data_PCOD9570585
_publ_section_title
;
Structure prediction by ZEFSAII (Michael W. Deem and Ramdas Pophale) SiO2 
 PCOD9570585
Probable space group: P 42/N C M
;
_chemical_formula_sum "Si O2"
_cell_formula_units_Z 96
_cell_length_a 14.194353
_cell_length_b 14.194353
_cell_length_c 30.194361
_cell_angle_alpha 90.000000
_cell_angle_beta 90.000000
_cell_angle_gamma 90.000000
_cell_volume 6083.549500
_symmetry_space_group_name_H-M "P 42/N C M"
_symmetry_group_IT_number 138
_space_group.IT_coordinate_system_code '2'
_symmetry_cell_setting 'tetragonal'
loop_
_space_group_symop_operation_xyz
x,y,z
1/2-y,x,1/2+z
1/2-x,1/2-y,z
y,1/2-x,1/2+z
1/2+x,-y,1/2-z
-x,1/2+y,1/2-z
1/2+y,1/2+x,-z
-y,-x,-z
-x,-y,-z
1/2+y,-x,1/2-z
1/2+x,1/2+y,-z
-y,1/2+x,1/2-z
1/2-x,y,1/2+z
x,1/2-y,1/2+z
1/2-y,1/2-x,z
y,x,z
loop_
_atom_site_type_symbol
_atom_site_label
_atom_site_fract_x
_atom_site_fract_y
_atom_site_fract_z
Si Si1 0.649702 0.003826 0.719792
Si Si2 0.893856 0.043095 0.951184
Si Si3 0.632510 0.475842 0.720412
Si Si4 0.515849 0.665396 0.116385
Si Si5 0.034153 0.877017 0.617249
Si Si6 0.797405 0.147015 0.450711
O O1 0.759559 0.001882 0.730919
O O2 0.598297 0.086998 0.746026
O O3 0.645039 0.016129 0.666741
O O4 0.591452 0.908549 0.730394
O O5 0.945583 0.112366 0.916664
O O6 0.783552 0.067143 0.949257
O O7 0.925766 0.074235 0.000000
O O8 0.938980 0.938980 0.943607
O O9 0.570096 0.570096 0.722989
O O10 0.623331 0.440465 0.669582
O O11 0.617259 0.617259 0.110565
O O12 0.516442 0.776589 0.109308
O O13 0.123840 0.876497 0.585358
O O14 0.963268 0.963268 0.609017
O O15 0.750000 0.250000 0.441453
O O16 0.841258 0.158743 0.500000
#
# Coordination Sequence:
#
# PCOD9570585 Si02
#       6
#    16  16  16  16  16  16
#     4   9  18  32  48  69  98 128 162 203 245 296
#     4  10  18  30  49  72  99 130 163 204 249 289
#     4   9  19  34  49  71 100 127 162 206 248 296
#     4   9  17  30  49  73  98 126 162 200 249 303
#     4  10  20  33  50  72 101 133 162 203 255 296
#     4  11  19  33  51  75 102 130 168 209 244 298
#
# _framework density 15.780260999999999
#
# number of rings (size 3 to 8) (size 9 to 14) (size 15 to 20)
#    0.000    2.333    3.333    0.000    0.000    2.667 
#    0.000    3.333    0.000    0.500    0.000    2.333 
#    0.000    0.000    0.000    0.333    0.000    0.167 
#
# Total GULP energy -534732.255689 kJ/mol
# GULP energy per Si atom -5570.127663 kJ/mol
# Density = 1.574434 g / cm^3
# Si number density = 15.780261 Si / 1000 Ang^3
#
#
#
# Elastic Constant Matrix: (Units=GPa)
#
#
# Indices 1 2 3 4 5 6 
#
# 1 104.2460 57.2511 54.2745 0.0000 0.0000 0.0000
# 2 57.2511 104.2465 54.2746 0.0000 0.0000 0.0000
# 3 54.2745 54.2746 53.8021 0.0000 0.0000 0.0000
# 4 0.0000 0.0000 0.0000 24.7653 0.0000 0.0000
# 5 0.0000 0.0000 0.0000 0.0000 24.7651 0.0000
# 6 0.0000 0.0000 0.0000 0.0000 0.0000 18.9557
#
#
#
# Elastic Compliance Matrix: (Units=1/GPa)
#
#
# Indices 1 2 3 4 5 6 
#
# 1 0.020256 -0.001023 -0.019402 0.000000 0.000000 0.000000
# 2 -0.001023 0.020256 -0.019401 0.000000 0.000000 0.000000
# 3 -0.019402 -0.019401 0.057730 0.000000 0.000000 0.000000
# 4 0.000000 0.000000 0.000000 0.040379 0.000000 0.000000
# 5 0.000000 0.000000 0.000000 0.000000 0.040379 0.000000
# 6 0.000000 0.000000 0.000000 0.000000 0.000000 0.052754
#
#
# Mechanical properties :
#
#
# Convention : Reuss Voigt Hill
#
# Bulk Modulus (GPa) = 53.79355 65.98834 59.89095
# Shear Modulus (GPa) = 15.74290 20.13018 17.93654
#
# Velocity S-wave (km/s) = 3.16196 3.57551 3.37507
# Velocity P-wave (km/s) = 6.89157 7.67812 7.29545
#
# Compressibility (1/GPa) = 0.01858959
#
# Stress axis : x y z
#
# Youngs Moduli (GPa) = 49.36871 49.36894 17.32190
#
# Poissons Ratio (x) = 0.05051 0.33607
# Poissons Ratio (y) = 0.05051 0.33607
# Poissons Ratio (z) = 0.95783 0.95783
#
# Static dielectric constant tensor:
#      x y z
#    x 1.519270 0.000000 0.000000 
#    y 0.000000 1.519270 0.000000 
#    z 0.000000 0.000000 1.525730 
# 
# From -- ./inp_files/8202.got.cif
#   From: 2010.05.17/outbox.cif.g08.bks.cpg/sg138_5_cif.got.tgz:8202.got - 2010.05.20 13:08:53.
