data_PCOD9570773
_publ_section_title
;
Structure prediction by ZEFSAII (Michael W. Deem and Ramdas Pophale) SiO2 
 PCOD9570773
Probable space group: P 42/N C M
;
_chemical_formula_sum "Si O2"
_cell_formula_units_Z 112
_cell_length_a 15.308073
_cell_length_b 15.308073
_cell_length_c 29.910800
_cell_angle_alpha 90.000000
_cell_angle_beta 90.000000
_cell_angle_gamma 90.000000
_cell_volume 7009.210100
_symmetry_space_group_name_H-M "P 42/N C M"
_symmetry_group_IT_number 138
_space_group.IT_coordinate_system_code '2'
_symmetry_cell_setting 'tetragonal'
loop_
_space_group_symop_operation_xyz
x,y,z
1/2-y,x,1/2+z
1/2-x,1/2-y,z
y,1/2-x,1/2+z
1/2+x,-y,1/2-z
-x,1/2+y,1/2-z
1/2+y,1/2+x,-z
-y,-x,-z
-x,-y,-z
1/2+y,-x,1/2-z
1/2+x,1/2+y,-z
-y,1/2+x,1/2-z
1/2-x,y,1/2+z
x,1/2-y,1/2+z
1/2-y,1/2-x,z
y,x,z
loop_
_atom_site_type_symbol
_atom_site_label
_atom_site_fract_x
_atom_site_fract_y
_atom_site_fract_z
Si Si1 0.245259 0.395419 0.034266
Si Si2 0.902976 0.052585 0.224183
Si Si3 0.824084 0.824084 0.716927
Si Si4 0.233292 0.008418 0.226418
Si Si5 0.695439 0.954620 0.373345
Si Si6 0.325038 0.174963 0.886303
Si Si7 0.703976 0.946923 0.558288
Si Si8 0.903923 0.447134 0.622110
O O1 0.156874 0.343127 0.024621
O O2 0.322254 0.322254 0.034639
O O3 0.245954 0.434917 0.083689
O O4 0.267876 0.458404 0.993033
O O5 0.822183 0.035160 0.256575
O O6 0.946340 0.147889 0.229520
O O7 0.869672 0.046044 0.172799
O O8 0.979214 0.979214 0.229616
O O9 0.750000 0.750000 0.717068
O O10 0.845301 0.845301 0.665229
O O11 0.907970 0.787663 0.742914
O O12 0.240405 0.037616 0.174689
O O13 0.622631 0.877370 0.369423
O O14 0.642880 0.044089 0.382490
O O15 0.250000 0.250000 0.885835
O O16 0.282473 0.095087 0.913161
O O17 0.627238 0.872763 0.558039
O O18 0.665742 0.029668 0.584383
O O19 0.978533 0.521468 0.618759
#
# Coordination Sequence:
#
# PCOD9570773 Si02
#       8
#    16  16   8  16  16   8  16  16
#     4   9  16  24  36  56  88 128 163 201 250 302
#     4  10  20  35  52  73 104 138 171 217 264 307
#     4  11  20  30  50  78  99 129 175 215 254 316
#     4  11  20  35  51  71 104 136 175 217 260 310
#     4   9  17  30  42  60  91 127 166 210 247 299
#     4   9  16  24  38  62  93 117 151 201 250 300
#     4   9  14  23  37  57  87 123 159 197 247 306
#     4   8  15  27  43  60  86 122 160 204 253 297
#
# _framework density 15.978975999999999
#
# number of rings (size 3 to 8) (size 9 to 14) (size 15 to 20)
#    0.000    2.571    2.143    2.143    0.000    4.286 
#    0.000    2.857    0.000    0.000    0.000    0.000 
#    0.000    5.714    0.000   12.571    0.000    6.571 
#
# Total GULP energy -623772.599091 kJ/mol
# GULP energy per Si atom -5569.398206 kJ/mol
# Density = 1.594261 g / cm^3
# Si number density = 15.978976 Si / 1000 Ang^3
#
#
#
# Elastic Constant Matrix: (Units=GPa)
#
#
# Indices 1 2 3 4 5 6 
#
# 1 39.2737 10.6782 31.0223 0.0000 0.0000 0.0000
# 2 10.6782 39.2737 31.0223 0.0000 0.0000 0.0000
# 3 31.0223 31.0223 120.6986 0.0000 0.0000 0.0000
# 4 0.0000 0.0000 0.0000 11.7585 0.0000 0.0000
# 5 0.0000 0.0000 0.0000 0.0000 11.7585 0.0000
# 6 0.0000 0.0000 0.0000 0.0000 0.0000 10.9778
#
#
#
# Elastic Compliance Matrix: (Units=1/GPa)
#
#
# Indices 1 2 3 4 5 6 
#
# 1 0.032189 -0.002782 -0.007558 0.000000 0.000000 0.000000
# 2 -0.002782 0.032189 -0.007558 0.000000 0.000000 0.000000
# 3 -0.007558 -0.007558 0.012170 0.000000 0.000000 0.000000
# 4 0.000000 0.000000 0.000000 0.085045 0.000000 0.000000
# 5 0.000000 0.000000 0.000000 0.000000 0.085045 0.000000
# 6 0.000000 0.000000 0.000000 0.000000 0.000000 0.091093
#
#
# Mechanical properties :
#
#
# Convention : Reuss Voigt Hill
#
# Bulk Modulus (GPa) = 24.53878 38.29906 31.41892
# Shear Modulus (GPa) = 12.91615 15.33383 14.12499
#
# Velocity S-wave (km/s) = 2.84618 3.10114 2.97639
# Velocity P-wave (km/s) = 5.11774 6.06986 5.61402
#
# Compressibility (1/GPa) = 0.04075182
#
# Stress axis : x y z
#
# Youngs Moduli (GPa) = 31.06651 31.06651 82.16618
#
# Poissons Ratio (x) = 0.08641 0.62104
# Poissons Ratio (y) = 0.08641 0.62104
# Poissons Ratio (z) = 0.23481 0.23481
#
# Static dielectric constant tensor:
#      x y z
#    x 1.524860 0.000000 0.000000 
#    y 0.000000 1.524860 0.000000 
#    z 0.000000 0.000000 1.551190 
# 
# From -- ./inp_files/7621.got.cif
#   From: 2010.05.17/outbox.cif.g08.bks.cpg/sg138_4_cif.got.tgz:7621.got - 2010.05.20 13:08:53.
