data_PCOD9570526
_publ_section_title
;
Structure prediction by ZEFSAII (Michael W. Deem and Ramdas Pophale) SiO2 
 PCOD9570526
Probable space group: P 42/N M C
;
_chemical_formula_sum "Si O2"
_cell_formula_units_Z 56
_cell_length_a 15.384199
_cell_length_b 15.384199
_cell_length_c 10.821329
_cell_angle_alpha 90.000000
_cell_angle_beta 90.000000
_cell_angle_gamma 90.000000
_cell_volume 2561.122663
_symmetry_space_group_name_H-M "P 42/N M C"
_symmetry_group_IT_number 137
_space_group.IT_coordinate_system_code '2'
_symmetry_cell_setting 'tetragonal'
loop_
_space_group_symop_operation_xyz
x,y,z
1/2-y,x,1/2+z
1/2-x,1/2-y,z
y,1/2-x,1/2+z
1/2+x,-y,-z
-x,1/2+y,-z
1/2+y,1/2+x,1/2-z
-y,-x,1/2-z
-x,-y,-z
1/2+y,-x,1/2-z
1/2+x,1/2+y,-z
-y,1/2+x,1/2-z
1/2-x,y,z
x,1/2-y,z
1/2-y,1/2-x,1/2+z
y,x,1/2+z
loop_
_atom_site_type_symbol
_atom_site_label
_atom_site_fract_x
_atom_site_fract_y
_atom_site_fract_z
Si Si1 0.932954 0.615593 0.440123
Si Si2 0.250000 0.003392 0.254989
Si Si3 0.750000 0.148349 0.559474
Si Si4 0.750000 0.843083 0.546874
Si Si5 0.589249 0.412192 0.107382
O O1 0.979225 0.666330 0.329433
O O2 0.837327 0.651217 0.466767
O O3 0.922082 0.514409 0.409081
O O4 0.995943 0.626473 0.558631
O O5 0.250000 0.075333 0.362329
O O6 0.250000 0.910096 0.318187
O O7 0.750000 0.250000 0.584119
O O8 0.835012 0.123066 0.479452
O O9 0.750000 0.750000 0.614148
O O10 0.607476 0.392525 0.250000
#
# Coordination Sequence:
#
# PCOD9570526 Si02
#       5
#    16   8   8   8  16
#     4  11  25  47  74 111 144 202 249 316 392 452
#     4  12  26  49  75 115 156 191 261 314 383 471
#     4  12  30  51  74 110 154 209 260 319 380 455
#     4  12  24  46  71 113 152 194 247 309 393 456
#     4  11  26  49  74 101 149 199 260 314 378 458
#
# _framework density 21.865411999999999
#
# number of rings (size 3 to 8) (size 9 to 14) (size 15 to 20)
#    0.000    0.571    4.286    1.714   10.000    0.000 
#    7.714    0.000    0.000    0.000    0.000    0.000 
#    0.000    0.000    0.000    0.000    0.000    0.000 
#
# Total GULP energy -313734.703501 kJ/mol
# GULP energy per Si atom -5602.405420 kJ/mol
# Density = 2.181565 g / cm^3
# Si number density = 21.865412 Si / 1000 Ang^3
#
#
#
# Elastic Constant Matrix: (Units=GPa)
#
#
# Indices 1 2 3 4 5 6 
#
# 1 168.6427 60.0723 65.8556 0.0000 0.0000 0.0000
# 2 60.0723 168.6431 65.8557 0.0000 0.0000 0.0000
# 3 65.8556 65.8557 131.0268 0.0000 0.0000 0.0000
# 4 0.0000 0.0000 0.0000 39.7852 0.0000 0.0000
# 5 0.0000 0.0000 0.0000 0.0000 39.7870 0.0000
# 6 0.0000 0.0000 0.0000 0.0000 0.0000 -23.7870
#
#
#
# Elastic Compliance Matrix: (Units=1/GPa)
#
#
# Indices 1 2 3 4 5 6 
#
# 1 0.007682 -0.001529 -0.003093 0.000000 0.000000 0.000000
# 2 -0.001529 0.007682 -0.003093 0.000000 0.000000 0.000000
# 3 -0.003093 -0.003093 0.010741 0.000000 0.000000 0.000000
# 4 0.000000 0.000000 0.000000 0.025135 0.000000 0.000000
# 5 0.000000 0.000000 0.000000 0.000000 0.025134 0.000000
# 6 0.000000 0.000000 0.000000 0.000000 0.000000 -0.042040
#
#
# Mechanical properties :
#
#
# Convention : Reuss Voigt Hill
#
# Bulk Modulus (GPa) = 93.66284 94.65332 94.15808
# Shear Modulus (GPa) = 93.77187 29.59229 61.68208
#
# Velocity S-wave (km/s) = 6.55584 3.68283 5.31706
# Velocity P-wave (km/s) = 10.01172 7.84011 8.99171
#
# Compressibility (1/GPa) = 0.01067659
#
# Stress axis : x y z
#
# Youngs Moduli (GPa) = 130.17546 130.17573 93.10214
#
# Poissons Ratio (x) = 0.19900 0.28794
# Poissons Ratio (y) = 0.19900 0.28794
# Poissons Ratio (z) = 0.40259 0.40260
#
# Static dielectric constant tensor:
#      x y z
#    x 1.793290 0.000000 0.000000 
#    y 0.000000 1.793300 0.000000 
#    z 0.000000 0.000000 1.770480 
# 
# From -- ./inp_files/1560.got.cif
#   From: 2010.05.17/outbox.cif.g08.bks.cpg/sg137_1_cif.got.tgz:1560.got - 2010.05.20 13:01:12.
