data_PCOD9570183
_publ_section_title
;
Structure prediction by ZEFSAII (Michael W. Deem and Ramdas Pophale) SiO2 
 PCOD9570183
Probable space group: P 42/N M C
;
_chemical_formula_sum "Si O2"
_cell_formula_units_Z 112
_cell_length_a 15.006063
_cell_length_b 15.006063
_cell_length_c 28.932446
_cell_angle_alpha 90.000000
_cell_angle_beta 90.000000
_cell_angle_gamma 90.000000
_cell_volume 6515.063936
_symmetry_space_group_name_H-M "P 42/N M C"
_symmetry_group_IT_number 137
_space_group.IT_coordinate_system_code '2'
_symmetry_cell_setting 'tetragonal'
loop_
_space_group_symop_operation_xyz
x,y,z
1/2-y,x,1/2+z
1/2-x,1/2-y,z
y,1/2-x,1/2+z
1/2+x,-y,-z
-x,1/2+y,-z
1/2+y,1/2+x,1/2-z
-y,-x,1/2-z
-x,-y,-z
1/2+y,-x,1/2-z
1/2+x,1/2+y,-z
-y,1/2+x,1/2-z
1/2-x,y,z
x,1/2-y,z
1/2-y,1/2-x,1/2+z
y,x,1/2+z
loop_
_atom_site_type_symbol
_atom_site_label
_atom_site_fract_x
_atom_site_fract_y
_atom_site_fract_z
Si Si1 0.151436 0.652242 0.039731
Si Si2 0.148440 0.144412 0.586936
Si Si3 0.465254 0.854165 0.370091
Si Si4 0.897442 0.975495 0.501236
Si Si5 0.650609 0.857960 0.191970
Si Si6 0.357090 0.151604 0.414842
Si Si7 0.453222 0.857370 0.208466
O O1 0.250000 0.640262 0.019058
O O2 0.149577 0.750000 0.062711
O O3 0.139337 0.578472 0.079050
O O4 0.071103 0.649432 0.004100
O O5 0.250000 0.131057 0.603442
O O6 0.138666 0.250000 0.575429
O O7 0.133072 0.085597 0.541173
O O8 0.069668 0.123891 0.623252
O O9 0.457343 0.750000 0.355356
O O10 0.409601 0.916875 0.336312
O O11 0.882455 0.922917 0.548901
O O12 0.000000 0.000000 0.500000
O O13 0.750000 0.888315 0.207492
O O14 0.653997 0.750000 0.192572
O O15 0.638942 0.885919 0.138181
O O16 0.557806 0.881048 0.216812
O O17 0.250000 0.152616 0.413694
O O18 0.387618 0.250000 0.430407
O O19 0.392176 0.892176 0.250000
O O20 0.446871 0.750000 0.202633
#
# Coordination Sequence:
#
# PCOD9570183 Si02
#       7
#    16  16  16  16  16  16  16
#     4  10  20  33  48  67  97 138 175 207 249 306
#     4  10  21  37  54  71  98 137 181 227 268 305
#     4  10  20  35  52  73 102 135 174 210 252 313
#     4  12  21  29  46  71 102 136 172 220 263 299
#     4   8  16  32  53  76 103 135 169 209 256 302
#     4   9  17  30  50  74  97 127 172 218 261 306
#     4  11  22  35  55  83 113 140 167 205 256 321
#
# _framework density 17.190928
#
# number of rings (size 3 to 8) (size 9 to 14) (size 15 to 20)
#    0.000    2.000    1.429    4.286    0.000    4.429 
#    0.000    0.714    0.000    3.429    0.000    0.000 
#    0.000    1.429    0.000    0.000    0.000    0.000 
#
# Total GULP energy -624063.465408 kJ/mol
# GULP energy per Si atom -5571.995227 kJ/mol
# Density = 1.715180 g / cm^3
# Si number density = 17.190928 Si / 1000 Ang^3
#
#
#
# Elastic Constant Matrix: (Units=GPa)
#
#
# Indices 1 2 3 4 5 6 
#
# 1 109.4835 38.2134 23.9911 0.0000 0.0000 0.0000
# 2 38.2134 109.4835 23.9911 0.0000 0.0000 0.0000
# 3 23.9911 23.9911 23.0207 0.0000 0.0000 0.0000
# 4 0.0000 0.0000 0.0000 16.1323 0.0000 0.0000
# 5 0.0000 0.0000 0.0000 0.0000 16.1323 0.0000
# 6 0.0000 0.0000 0.0000 0.0000 0.0000 7.3893
#
#
#
# Elastic Compliance Matrix: (Units=1/GPa)
#
#
# Indices 1 2 3 4 5 6 
#
# 1 0.012134 -0.001897 -0.010668 0.000000 0.000000 0.000000
# 2 -0.001897 0.012134 -0.010668 0.000000 0.000000 0.000000
# 3 -0.010668 -0.010668 0.065674 0.000000 0.000000 0.000000
# 4 0.000000 0.000000 0.000000 0.061987 0.000000 0.000000
# 5 0.000000 0.000000 0.000000 0.000000 0.061987 0.000000
# 6 0.000000 0.000000 0.000000 0.000000 0.000000 0.135331
#
#
# Mechanical properties :
#
#
# Convention : Reuss Voigt Hill
#
# Bulk Modulus (GPa) = 23.00139 46.04209 34.52174
# Shear Modulus (GPa) = 12.18903 18.31694 15.25299
#
# Velocity S-wave (km/s) = 2.66567 3.26774 2.98194
# Velocity P-wave (km/s) = 4.78366 6.40925 5.65517
#
# Compressibility (1/GPa) = 0.04347563
#
# Stress axis : x y z
#
# Youngs Moduli (GPa) = 82.41523 82.41523 15.22669
#
# Poissons Ratio (x) = 0.15638 0.16243
# Poissons Ratio (y) = 0.15638 0.16243
# Poissons Ratio (z) = 0.87918 0.87918
#
# Static dielectric constant tensor:
#      x y z
#    x 1.246040 0.000000 0.000000 
#    y 0.000000 1.246040 0.000000 
#    z 0.000000 0.000000 1.582880 
# 
# From -- ./inp_files/9848.got.cif
#   From: 2010.05.17/outbox.cif.g08.bks.cpg/sg137_5_cif.got.tgz:9848.got - 2010.05.20 13:01:12.
