data_PCOD9570137
_publ_section_title
;
Structure prediction by ZEFSAII (Michael W. Deem and Ramdas Pophale) SiO2 
 PCOD9570137
Probable space group: P 42/N M C
;
_chemical_formula_sum "Si O2"
_cell_formula_units_Z 96
_cell_length_a 20.752844
_cell_length_b 20.752844
_cell_length_c 11.715966
_cell_angle_alpha 90.000000
_cell_angle_beta 90.000000
_cell_angle_gamma 90.000000
_cell_volume 5045.838494
_symmetry_space_group_name_H-M "P 42/N M C"
_symmetry_group_IT_number 137
_space_group.IT_coordinate_system_code '2'
_symmetry_cell_setting 'tetragonal'
loop_
_space_group_symop_operation_xyz
x,y,z
1/2-y,x,1/2+z
1/2-x,1/2-y,z
y,1/2-x,1/2+z
1/2+x,-y,-z
-x,1/2+y,-z
1/2+y,1/2+x,1/2-z
-y,-x,1/2-z
-x,-y,-z
1/2+y,-x,1/2-z
1/2+x,1/2+y,-z
-y,1/2+x,1/2-z
1/2-x,y,z
x,1/2-y,z
1/2-y,1/2-x,1/2+z
y,x,1/2+z
loop_
_atom_site_type_symbol
_atom_site_label
_atom_site_fract_x
_atom_site_fract_y
_atom_site_fract_z
Si Si1 0.677153 0.961735 0.722219
Si Si2 0.677740 0.679309 0.697476
Si Si3 0.465303 0.178826 0.395024
Si Si4 0.175336 0.572502 0.702262
Si Si5 0.994922 0.919170 0.407174
Si Si6 0.612334 0.002706 0.498791
O O1 0.750000 0.985615 0.732637
O O2 0.675655 0.887444 0.765850
O O3 0.626369 0.999188 0.798601
O O4 0.655672 0.964255 0.589713
O O5 0.750000 0.677233 0.641492
O O6 0.675028 0.750000 0.755937
O O7 0.611555 0.676373 0.626000
O O8 0.479710 0.250000 0.442179
O O9 0.507883 0.171520 0.280729
O O10 0.487516 0.124939 0.481465
O O11 0.126310 0.626310 0.750000
O O12 0.250000 0.593673 0.705272
O O13 0.154026 0.551991 0.575387
O O14 0.056792 0.963121 0.426626
O O15 0.929509 0.960982 0.409052
#
# Coordination Sequence:
#
# PCOD9570137 Si02
#       6
#    16  16  16  16  16  16
#     4  11  22  38  57  85 120 155 200 241 295 360
#     4   9  18  34  54  77 113 156 197 239 280 338
#     4  10  19  36  59  85 115 153 199 245 297 357
#     4  11  23  41  65  90 121 155 202 263 323 376
#     4  11  22  36  59  85 120 159 196 246 296 357
#     4  11  23  37  61  88 121 154 200 248 305 360
#
# _framework density 19.025580000000001
#
# number of rings (size 3 to 8) (size 9 to 14) (size 15 to 20)
#    0.000    1.500    3.333    2.500    0.000    0.167 
#    0.000    1.667    0.000    4.000    0.000    0.000 
#    0.000    2.667    0.000    0.000    0.000    0.000 
#
# Total GULP energy -534938.866682 kJ/mol
# GULP energy per Si atom -5572.279861 kJ/mol
# Density = 1.898228 g / cm^3
# Si number density = 19.025580 Si / 1000 Ang^3
#
#
#
# Elastic Constant Matrix: (Units=GPa)
#
#
# Indices 1 2 3 4 5 6 
#
# 1 88.5158 39.4642 20.6800 0.0000 0.0000 0.0000
# 2 39.4642 88.5158 20.6800 0.0000 0.0000 0.0000
# 3 20.6800 20.6800 37.2471 0.0000 0.0000 0.0000
# 4 0.0000 0.0000 0.0000 16.7292 0.0000 0.0000
# 5 0.0000 0.0000 0.0000 0.0000 16.7292 0.0000
# 6 0.0000 0.0000 0.0000 0.0000 0.0000 28.0501
#
#
#
# Elastic Compliance Matrix: (Units=1/GPa)
#
#
# Indices 1 2 3 4 5 6 
#
# 1 0.014954 -0.005432 -0.005287 0.000000 0.000000 0.000000
# 2 -0.005432 0.014954 -0.005287 0.000000 0.000000 0.000000
# 3 -0.005287 -0.005287 0.032718 0.000000 0.000000 0.000000
# 4 0.000000 0.000000 0.000000 0.059776 0.000000 0.000000
# 5 0.000000 0.000000 0.000000 0.000000 0.059776 0.000000
# 6 0.000000 0.000000 0.000000 0.000000 0.000000 0.035650
#
#
# Mechanical properties :
#
#
# Convention : Reuss Voigt Hill
#
# Bulk Modulus (GPa) = 32.66325 41.76968 37.21646
# Shear Modulus (GPa) = 19.22732 21.19866 20.21299
#
# Velocity S-wave (km/s) = 3.18245 3.34161 3.26300
# Velocity P-wave (km/s) = 5.54160 6.07377 5.81377
#
# Compressibility (1/GPa) = 0.03061545
#
# Stress axis : x y z
#
# Youngs Moduli (GPa) = 66.86952 66.86952 30.56389
#
# Poissons Ratio (x) = 0.36325 0.16159
# Poissons Ratio (y) = 0.36325 0.16159
# Poissons Ratio (z) = 0.35353 0.35353
#
# Static dielectric constant tensor:
#      x y z
#    x 1.678970 0.000000 0.000000 
#    y 0.000000 1.678970 0.000000 
#    z 0.000000 0.000000 1.642180 
# 
# From -- ./inp_files/3775.got.cif
#   From: 2010.05.17/outbox.cif.g08.bks.cpg/sg137_2_cif.got.tgz:3775.got - 2010.05.20 13:01:12.
