data_PCOD9570536
_publ_section_title
;
Structure prediction by ZEFSAII (Michael W. Deem and Ramdas Pophale) SiO2 
 PCOD9570536
Probable space group: P 42/N M C
;
_chemical_formula_sum "Si O2"
_cell_formula_units_Z 52
_cell_length_a 16.307995
_cell_length_b 16.307995
_cell_length_c 7.953493
_cell_angle_alpha 90.000000
_cell_angle_beta 90.000000
_cell_angle_gamma 90.000000
_cell_volume 2115.237038
_symmetry_space_group_name_H-M "P 42/N M C"
_symmetry_group_IT_number 137
_space_group.IT_coordinate_system_code '2'
_symmetry_cell_setting 'tetragonal'
loop_
_space_group_symop_operation_xyz
x,y,z
1/2-y,x,1/2+z
1/2-x,1/2-y,z
y,1/2-x,1/2+z
1/2+x,-y,-z
-x,1/2+y,-z
1/2+y,1/2+x,1/2-z
-y,-x,1/2-z
-x,-y,-z
1/2+y,-x,1/2-z
1/2+x,1/2+y,-z
-y,1/2+x,1/2-z
1/2-x,y,z
x,1/2-y,z
1/2-y,1/2-x,1/2+z
y,x,1/2+z
loop_
_atom_site_type_symbol
_atom_site_label
_atom_site_fract_x
_atom_site_fract_y
_atom_site_fract_z
Si Si1 0.344580 0.515646 0.425700
Si Si2 0.411776 0.134054 0.586313
Si Si3 0.424773 0.656273 0.586498
Si Si4 0.750000 0.750000 0.424419
O O1 0.250000 0.526752 0.472246
O O2 0.392749 0.460673 0.560694
O O3 0.347143 0.459988 0.257953
O O4 0.397451 0.611043 0.066749
O O5 0.476812 0.156439 0.439916
O O6 0.324288 0.180218 0.576279
O O7 0.386820 0.613181 0.750000
O O8 0.397596 0.750000 0.580625
#
# Coordination Sequence:
#
# PCOD9570536 Si02
#       4
#    16  16  16   4
#     4  12  26  46  77 116 163 215 271 339 414 500
#     4  12  26  49  79 122 164 212 271 342 432 492
#     4  12  27  51  80 114 158 215 282 344 415 495
#     4  12  24  50  84 122 168 206 272 346 412 506
#
# _framework density 24.583531000000001
#
# number of rings (size 3 to 8) (size 9 to 14) (size 15 to 20)
#    0.000    0.000    4.615    4.615    0.000    4.615 
#    0.000    1.538    0.000    9.231    0.000    0.000 
#    0.000    0.000    0.000    0.000    0.000    0.000 
#
# Total GULP energy -290000.973885 kJ/mol
# GULP energy per Si atom -5576.941805 kJ/mol
# Density = 2.452758 g / cm^3
# Si number density = 24.583531 Si / 1000 Ang^3
#
#
#
# Elastic Constant Matrix: (Units=GPa)
#
#
# Indices 1 2 3 4 5 6 
#
# 1 219.5175 81.0535 53.1750 0.0000 0.0000 0.0000
# 2 81.0535 219.5185 53.1741 0.0000 0.0000 0.0000
# 3 53.1750 53.1741 118.3656 0.0000 0.0000 0.0000
# 4 0.0000 0.0000 0.0000 -13.8546 0.0000 0.0000
# 5 0.0000 0.0000 0.0000 0.0000 -13.8543 0.0000
# 6 0.0000 0.0000 0.0000 0.0000 0.0000 31.3079
#
#
#
# Elastic Compliance Matrix: (Units=1/GPa)
#
#
# Indices 1 2 3 4 5 6 
#
# 1 0.005589 -0.001633 -0.001777 0.000000 0.000000 0.000000
# 2 -0.001633 0.005589 -0.001777 0.000000 0.000000 0.000000
# 3 -0.001777 -0.001777 0.010045 0.000000 0.000000 0.000000
# 4 0.000000 0.000000 0.000000 -0.072178 0.000000 0.000000
# 5 0.000000 0.000000 0.000000 0.000000 -0.072180 0.000000
# 6 0.000000 0.000000 0.000000 0.000000 0.000000 0.031941
#
#
# Mechanical properties :
#
#
# Convention : Reuss Voigt Hill
#
# Bulk Modulus (GPa) = 92.18065 103.57852 97.87959
# Shear Modulus (GPa) = -64.76396 25.38639 -19.68878
#
# Velocity S-wave (km/s) = -5.13825 3.21699 -2.83308
# Velocity P-wave (km/s) = 1.54147 7.48488 5.40368
#
# Compressibility (1/GPa) = 0.01084826
#
# Stress axis : x y z
#
# Youngs Moduli (GPa) = 178.92459 178.92632 99.55119
#
# Poissons Ratio (x) = 0.29221 0.17692
# Poissons Ratio (y) = 0.29221 0.17691
# Poissons Ratio (z) = 0.31797 0.31796
#
# Static dielectric constant tensor:
#      x y z
#    x 1.935510 0.000000 0.000000 
#    y 0.000000 1.935500 0.000000 
#    z 0.000000 0.000000 2.122450 
# 
# From -- ./inp_files/3161.got.cif
#   From: 2010.05.17/outbox.cif.g08.bks.cpg/sg137_2_cif.got.tgz:3161.got - 2010.05.20 13:01:12.
