data_PCOD9570831
_publ_section_title
;
Structure prediction by ZEFSAII (Michael W. Deem and Ramdas Pophale) SiO2 
 PCOD9570831
Probable space group: P 42/N C M
;
_chemical_formula_sum "Si O2"
_cell_formula_units_Z 128
_cell_length_a 22.660800
_cell_length_b 22.660800
_cell_length_c 12.716287
_cell_angle_alpha 90.000000
_cell_angle_beta 90.000000
_cell_angle_gamma 90.000000
_cell_volume 6529.964147
_symmetry_space_group_name_H-M "P 42/N C M"
_symmetry_group_IT_number 138
_space_group.IT_coordinate_system_code '2'
_symmetry_cell_setting 'tetragonal'
loop_
_space_group_symop_operation_xyz
x,y,z
1/2-y,x,1/2+z
1/2-x,1/2-y,z
y,1/2-x,1/2+z
1/2+x,-y,1/2-z
-x,1/2+y,1/2-z
1/2+y,1/2+x,-z
-y,-x,-z
-x,-y,-z
1/2+y,-x,1/2-z
1/2+x,1/2+y,-z
-y,1/2+x,1/2-z
1/2-x,y,1/2+z
x,1/2-y,1/2+z
1/2-y,1/2-x,z
y,x,z
loop_
_atom_site_type_symbol
_atom_site_label
_atom_site_fract_x
_atom_site_fract_y
_atom_site_fract_z
Si Si1 0.898235 0.506149 0.105340
Si Si2 0.119802 0.957436 0.618162
Si Si3 0.593376 0.503286 0.969943
Si Si4 0.422921 0.682453 0.850496
Si Si5 0.996882 0.769653 0.679004
Si Si6 0.325549 0.802748 0.210639
Si Si7 0.225546 0.899879 0.489072
Si Si8 0.453501 0.144921 0.308307
O O1 0.918704 0.439416 0.131393
O O2 0.836584 0.524081 0.158475
O O3 0.949742 0.550259 0.134884
O O4 0.891216 0.502812 0.978877
O O5 0.172799 0.917130 0.569909
O O6 0.131760 0.996155 0.721147
O O7 0.559989 0.559989 0.923173
O O8 0.624809 0.523391 0.077258
O O9 0.543855 0.456146 0.000000
O O10 0.636107 0.469327 0.892722
O O11 0.461944 0.728050 0.782244
O O12 0.372763 0.658107 0.773096
O O13 0.391049 0.714909 0.946547
O O14 0.950657 0.716454 0.687300
O O15 0.042513 0.761517 0.582507
O O16 0.326117 0.739640 0.271058
O O17 0.348359 0.790238 0.093334
O O18 0.394758 0.105243 0.286920
#
# Coordination Sequence:
#
# PCOD9570831 Si02
#       8
#    16  16  16  16  16  16  16  16
#     4  10  21  37  59  90 124 153 194 253 320 379
#     4  10  20  37  60  91 121 153 200 256 326 375
#     4  10  24  40  58  87 118 153 200 251 311 380
#     4  11  22  37  61  80 117 158 204 257 314 371
#     4  10  22  37  55  87 119 155 201 246 306 379
#     4  10  25  42  56  83 119 167 225 264 302 362
#     4  10  21  39  58  85 116 160 209 263 313 365
#     4  11  21  38  61  86 122 160 202 250 307 383
#
# _framework density 19.601944
#
# number of rings (size 3 to 8) (size 9 to 14) (size 15 to 20)
#    0.000    1.750    2.500    1.500    3.500    6.000 
#    0.000    1.250    0.000    0.375    0.000    0.000 
#    0.000    2.250    0.000    0.000    0.000    0.125 
#
# Total GULP energy -714910.736400 kJ/mol
# GULP energy per Si atom -5585.240128 kJ/mol
# Density = 1.955733 g / cm^3
# Si number density = 19.601944 Si / 1000 Ang^3
#
#
#
# Elastic Constant Matrix: (Units=GPa)
#
#
# Indices 1 2 3 4 5 6 
#
# 1 114.3865 29.6943 35.9833 0.0000 0.0000 0.0000
# 2 29.6943 114.4043 36.0093 0.0000 0.0000 0.0000
# 3 35.9833 36.0093 78.5051 0.0000 0.0000 0.0000
# 4 0.0000 0.0000 0.0000 20.5904 0.0000 0.0000
# 5 0.0000 0.0000 0.0000 0.0000 20.5904 0.0000
# 6 0.0000 0.0000 0.0000 0.0000 0.0000 30.7582
#
#
#
# Elastic Compliance Matrix: (Units=1/GPa)
#
#
# Indices 1 2 3 4 5 6 
#
# 1 0.010404 -0.001402 -0.004126 0.000000 0.000000 0.000000
# 2 -0.001402 0.010405 -0.004130 0.000000 0.000000 0.000000
# 3 -0.004126 -0.004130 0.016523 0.000000 0.000000 0.000000
# 4 0.000000 0.000000 0.000000 0.048566 0.000000 0.000000
# 5 0.000000 0.000000 0.000000 0.000000 0.048566 0.000000
# 6 0.000000 0.000000 0.000000 0.000000 0.000000 0.032512
#
#
# Mechanical properties :
#
#
# Convention : Reuss Voigt Hill
#
# Bulk Modulus (GPa) = 55.50283 56.74109 56.12196
# Shear Modulus (GPa) = 26.00137 28.09506 27.04821
#
# Velocity S-wave (km/s) = 3.64602 3.78997 3.71870
# Velocity P-wave (km/s) = 6.78978 6.93984 6.86522
#
# Compressibility (1/GPa) = 0.01801710
#
# Stress axis : x y z
#
# Youngs Moduli (GPa) = 96.11628 96.11023 60.51997
#
# Poissons Ratio (x) = 0.13473 0.24969
# Poissons Ratio (y) = 0.13474 0.24995
# Poissons Ratio (z) = 0.39655 0.39693
#
# Static dielectric constant tensor:
#      x y z
#    x 1.714820 0.000000 0.000000 
#    y 0.000000 1.714820 0.000000 
#    z 0.000000 0.000000 1.780470 
# 
# From -- ./inp_files/3330.got.cif
#   From: 2010.05.17/outbox.cif.g08.bks.cpg/sg138_2_cif.got.tgz:3330.got - 2010.05.20 13:08:53.
