data_PCOD9570063
_publ_section_title
;
Structure prediction by ZEFSAII (Michael W. Deem and Ramdas Pophale) SiO2 
 PCOD9570063
Probable space group: P 42/N M C
;
_chemical_formula_sum "Si O2"
_cell_formula_units_Z 80
_cell_length_a 18.773332
_cell_length_b 18.773332
_cell_length_c 12.781080
_cell_angle_alpha 90.000000
_cell_angle_beta 90.000000
_cell_angle_gamma 90.000000
_cell_volume 4504.538201
_symmetry_space_group_name_H-M "P 42/N M C"
_symmetry_group_IT_number 137
_space_group.IT_coordinate_system_code '2'
_symmetry_cell_setting 'tetragonal'
loop_
_space_group_symop_operation_xyz
x,y,z
1/2-y,x,1/2+z
1/2-x,1/2-y,z
y,1/2-x,1/2+z
1/2+x,-y,-z
-x,1/2+y,-z
1/2+y,1/2+x,1/2-z
-y,-x,1/2-z
-x,-y,-z
1/2+y,-x,1/2-z
1/2+x,1/2+y,-z
-y,1/2+x,1/2-z
1/2-x,y,z
x,1/2-y,z
1/2-y,1/2-x,1/2+z
y,x,1/2+z
loop_
_atom_site_type_symbol
_atom_site_label
_atom_site_fract_x
_atom_site_fract_y
_atom_site_fract_z
Si Si1 0.901304 0.050648 0.484223
Si Si2 0.164324 0.668726 0.634221
Si Si3 0.447729 0.167318 0.189190
Si Si4 0.834040 0.669118 0.977010
Si Si5 0.926571 0.941468 0.108169
O O1 0.861319 0.124507 0.465338
O O2 0.981363 0.066169 0.445194
O O3 0.858862 0.999665 0.403204
O O4 0.907256 0.005401 0.591218
O O5 0.140369 0.640369 0.750000
O O6 0.250000 0.668071 0.638960
O O7 0.139699 0.750000 0.626295
O O8 0.463723 0.250000 0.219354
O O9 0.369428 0.165918 0.137551
O O10 0.451863 0.109039 0.279747
O O11 0.750000 0.658169 0.974607
O O12 0.848362 0.750000 0.016204
O O13 0.872547 0.610203 0.046762
#
# Coordination Sequence:
#
# PCOD9570063 Si02
#       5
#    16  16  16  16  16
#     4  10  20  32  47  71 102 131 162 203 247 300
#     4   9  17  29  47  71  97 126 161 203 253 306
#     4  10  19  32  52  73  96 130 165 203 253 298
#     4   9  19  34  49  69  97 126 163 208 245 288
#     4  10  20  32  48  71  98 133 167 199 246 302
#
# _framework density 17.759865999999999
#
# number of rings (size 3 to 8) (size 9 to 14) (size 15 to 20)
#    0.000    2.400    0.000    3.600    0.000    4.800 
#    0.000    2.000    0.000    0.000    0.000    0.000 
#    0.000    0.000    0.000   76.400    0.000    6.000 
#
# Total GULP energy -445383.151141 kJ/mol
# GULP energy per Si atom -5567.289389 kJ/mol
# Density = 1.771944 g / cm^3
# Si number density = 17.759866 Si / 1000 Ang^3
#
#
#
# Elastic Constant Matrix: (Units=GPa)
#
#
# Indices 1 2 3 4 5 6 
#
# 1 62.2223 19.0539 5.7258 0.0000 0.0000 0.0000
# 2 19.0539 62.2223 5.7258 0.0000 0.0000 0.0000
# 3 5.7258 5.7258 19.1365 0.0000 0.0000 0.0000
# 4 0.0000 0.0000 0.0000 36.4325 0.0000 0.0000
# 5 0.0000 0.0000 0.0000 0.0000 36.4325 0.0000
# 6 0.0000 0.0000 0.0000 0.0000 0.0000 31.2967
#
#
#
# Elastic Compliance Matrix: (Units=1/GPa)
#
#
# Indices 1 2 3 4 5 6 
#
# 1 0.018005 -0.005160 -0.003843 0.000000 0.000000 0.000000
# 2 -0.005160 0.018005 -0.003843 0.000000 0.000000 0.000000
# 3 -0.003843 -0.003843 0.054556 0.000000 0.000000 0.000000
# 4 0.000000 0.000000 0.000000 0.027448 0.000000 0.000000
# 5 0.000000 0.000000 0.000000 0.000000 0.027448 0.000000
# 6 0.000000 0.000000 0.000000 0.000000 0.000000 0.031952
#
#
# Mechanical properties :
#
#
# Convention : Reuss Voigt Hill
#
# Bulk Modulus (GPa) = 15.41471 22.73245 19.07358
# Shear Modulus (GPa) = 22.24865 28.37071 25.30968
#
# Velocity S-wave (km/s) = 3.54326 4.00116 3.77915
# Velocity P-wave (km/s) = 5.04360 5.84580 5.45946
#
# Compressibility (1/GPa) = 0.06487310
#
# Stress axis : x y z
#
# Youngs Moduli (GPa) = 55.53966 55.53966 18.32971
#
# Poissons Ratio (x) = 0.28658 0.07045
# Poissons Ratio (y) = 0.28658 0.07045
# Poissons Ratio (z) = 0.21346 0.21346
#
# Static dielectric constant tensor:
#      x y z
#    x 1.640010 0.000000 0.000000 
#    y 0.000000 1.640010 0.000000 
#    z 0.000000 0.000000 1.618430 
# 
# From -- ./inp_files/4927.got.cif
#   From: 2010.05.17/outbox.cif.g08.bks.cpg/sg137_3_cif.got.tgz:4927.got - 2010.05.20 13:01:12.
