data_PCOD9570648
_publ_section_title
;
Structure prediction by ZEFSAII (Michael W. Deem and Ramdas Pophale) SiO2 
 PCOD9570648
Probable space group: P 42/N C M
;
_chemical_formula_sum "Si O2"
_cell_formula_units_Z 96
_cell_length_a 16.446538
_cell_length_b 16.446538
_cell_length_c 19.452524
_cell_angle_alpha 90.000000
_cell_angle_beta 90.000000
_cell_angle_gamma 90.000000
_cell_volume 5261.686220
_symmetry_space_group_name_H-M "P 42/N C M"
_symmetry_group_IT_number 138
_space_group.IT_coordinate_system_code '2'
_symmetry_cell_setting 'tetragonal'
loop_
_space_group_symop_operation_xyz
x,y,z
1/2-y,x,1/2+z
1/2-x,1/2-y,z
y,1/2-x,1/2+z
1/2+x,-y,1/2-z
-x,1/2+y,1/2-z
1/2+y,1/2+x,-z
-y,-x,-z
-x,-y,-z
1/2+y,-x,1/2-z
1/2+x,1/2+y,-z
-y,1/2+x,1/2-z
1/2-x,y,1/2+z
x,1/2-y,1/2+z
1/2-y,1/2-x,z
y,x,z
loop_
_atom_site_type_symbol
_atom_site_label
_atom_site_fract_x
_atom_site_fract_y
_atom_site_fract_z
Si Si1 0.415096 0.215665 0.069908
Si Si2 0.530455 0.838121 0.699538
Si Si3 0.053498 0.920019 0.424813
Si Si4 0.586085 0.053630 0.225605
Si Si5 0.754418 0.615386 0.087851
Si Si6 0.703009 0.927301 0.295024
O O1 0.328974 0.171027 0.083427
O O2 0.484731 0.148793 0.081689
O O3 0.429043 0.287667 0.123208
O O4 0.413614 0.240392 0.990426
O O5 0.583251 0.916750 0.679485
O O6 0.445249 0.871286 0.727877
O O7 0.543414 0.773917 0.638021
O O8 0.572644 0.792419 0.763332
O O9 0.092834 0.907167 0.500000
O O10 0.102884 0.921123 0.353396
O O11 0.007231 0.007231 0.428514
O O12 0.509688 0.990313 0.221645
O O13 0.657160 0.004783 0.263196
O O14 0.840241 0.659760 0.105373
O O15 0.686226 0.686226 0.092969
O O16 0.651616 0.848385 0.274802
#
# Coordination Sequence:
#
# PCOD9570648 Si02
#       6
#    16  16  16  16  16  16
#     4  10  19  32  50  76 108 136 168 212 266 317
#     4  10  19  34  51  72 106 142 173 215 266 312
#     4   9  17  30  49  71  99 135 170 210 260 305
#     4   9  19  34  49  73 104 136 177 219 255 310
#     4   9  18  30  46  72 105 137 168 203 250 316
#     4  11  21  31  51  78 105 137 176 218 266 321
#
# _framework density 18.245101999999999
#
# number of rings (size 3 to 8) (size 9 to 14) (size 15 to 20)
#    0.000    2.333    1.667    1.500    2.333    2.667 
#    0.000    0.833    0.000    4.500    0.000    0.000 
#    0.000    0.000    0.000    0.000    0.000    0.000 
#
# Total GULP energy -534902.237189 kJ/mol
# GULP energy per Si atom -5571.898304 kJ/mol
# Density = 1.820358 g / cm^3
# Si number density = 18.245102 Si / 1000 Ang^3
#
#
#
# Elastic Constant Matrix: (Units=GPa)
#
#
# Indices 1 2 3 4 5 6 
#
# 1 33.0786 23.3326 31.6980 0.0000 0.0000 0.0000
# 2 23.3326 33.0788 31.6981 0.0000 0.0000 0.0000
# 3 31.6980 31.6981 153.4284 0.0000 0.0000 0.0000
# 4 0.0000 0.0000 0.0000 20.6816 0.0000 0.0000
# 5 0.0000 0.0000 0.0000 0.0000 20.6816 0.0000
# 6 0.0000 0.0000 0.0000 0.0000 0.0000 21.2871
#
#
#
# Elastic Compliance Matrix: (Units=1/GPa)
#
#
# Indices 1 2 3 4 5 6 
#
# 1 0.062846 -0.039759 -0.004770 0.000000 0.000000 0.000000
# 2 -0.039759 0.062846 -0.004770 0.000000 0.000000 0.000000
# 3 -0.004770 -0.004770 0.008489 0.000000 0.000000 0.000000
# 4 0.000000 0.000000 0.000000 0.048352 0.000000 0.000000
# 5 0.000000 0.000000 0.000000 0.000000 0.048352 0.000000
# 6 0.000000 0.000000 0.000000 0.000000 0.000000 0.046977
#
#
# Mechanical properties :
#
#
# Convention : Reuss Voigt Hill
#
# Bulk Modulus (GPa) = 28.10247 43.67145 35.88696
# Shear Modulus (GPa) = 12.87596 21.38718 17.13157
#
# Velocity S-wave (km/s) = 2.65942 3.42748 3.06758
# Velocity P-wave (km/s) = 4.98661 6.29694 5.67969
#
# Compressibility (1/GPa) = 0.03558406
#
# Stress axis : x y z
#
# Youngs Moduli (GPa) = 15.91183 15.91191 117.80549
#
# Poissons Ratio (x) = 0.63264 0.56191
# Poissons Ratio (y) = 0.63264 0.56191
# Poissons Ratio (z) = 0.07590 0.07590
#
# Static dielectric constant tensor:
#      x y z
#    x 1.635010 0.000000 0.000000 
#    y 0.000000 1.635010 0.000000 
#    z 0.000000 0.000000 1.675650 
# 
# From -- ./inp_files/5209.got.cif
#   From: 2010.05.17/outbox.cif.g08.bks.cpg/sg138_3_cif.got.tgz:5209.got - 2010.05.20 13:08:53.
