data_PCOD9570943
_publ_section_title
;
Structure prediction by ZEFSAII (Michael W. Deem and Ramdas Pophale) SiO2 
 PCOD9570943
Probable space group: P 42/N C M
;
_chemical_formula_sum "Si O2"
_cell_formula_units_Z 96
_cell_length_a 15.600658
_cell_length_b 15.600658
_cell_length_c 19.829902
_cell_angle_alpha 90.000000
_cell_angle_beta 90.000000
_cell_angle_gamma 90.000000
_cell_volume 4826.212059
_symmetry_space_group_name_H-M "P 42/N C M"
_symmetry_group_IT_number 138
_space_group.IT_coordinate_system_code '2'
_symmetry_cell_setting 'tetragonal'
loop_
_space_group_symop_operation_xyz
x,y,z
1/2-y,x,1/2+z
1/2-x,1/2-y,z
y,1/2-x,1/2+z
1/2+x,-y,1/2-z
-x,1/2+y,1/2-z
1/2+y,1/2+x,-z
-y,-x,-z
-x,-y,-z
1/2+y,-x,1/2-z
1/2+x,1/2+y,-z
-y,1/2+x,1/2-z
1/2-x,y,1/2+z
x,1/2-y,1/2+z
1/2-y,1/2-x,z
y,x,z
loop_
_atom_site_type_symbol
_atom_site_label
_atom_site_fract_x
_atom_site_fract_y
_atom_site_fract_z
Si Si1 0.751448 0.880612 0.333911
Si Si2 0.102765 0.533624 0.570156
Si Si3 0.455165 0.598012 0.213006
Si Si4 0.380483 0.522331 0.417906
Si Si5 0.695139 0.023962 0.933804
Si Si6 0.202176 0.993667 0.277909
O O1 0.685060 0.814941 0.368321
O O2 0.821505 0.821505 0.297590
O O3 0.802139 0.941185 0.385529
O O4 0.699214 0.933295 0.278789
O O5 0.070365 0.570365 0.500000
O O6 0.062378 0.581169 0.634148
O O7 0.204689 0.547757 0.571401
O O8 0.063092 0.436909 0.574044
O O9 0.533230 0.533230 0.233413
O O10 0.368808 0.573080 0.252307
O O11 0.470463 0.697959 0.223771
O O12 0.468136 0.468136 0.420937
O O13 0.407836 0.622598 0.410582
O O14 0.330818 0.508720 0.488329
O O15 0.326082 0.489120 0.354511
#
# Coordination Sequence:
#
# PCOD9570943 Si02
#       6
#    16  16  16  16  16  16
#     4  11  22  38  64  94 125 164 217 275 328 389
#     4  10  21  40  65  93 126 168 216 265 320 384
#     4  11  24  43  66  94 131 173 215 268 327 388
#     4  11  24  41  64  92 129 171 215 269 327 392
#     4  11  21  41  64  93 124 172 217 265 324 392
#     4  12  24  42  64  96 130 173 217 264 329 392
#
# _framework density 19.891376000000001
#
# number of rings (size 3 to 8) (size 9 to 14) (size 15 to 20)
#    0.000    1.000    1.667    6.500    0.000    0.333 
#    0.000    7.500    0.000    6.000    0.000    0.000 
#    0.000    0.000    0.000    0.000    0.000    0.000 
#
# Total GULP energy -535409.519588 kJ/mol
# GULP energy per Si atom -5577.182496 kJ/mol
# Density = 1.984610 g / cm^3
# Si number density = 19.891376 Si / 1000 Ang^3
#
#
#
# Elastic Constant Matrix: (Units=GPa)
#
#
# Indices 1 2 3 4 5 6 
#
# 1 121.9312 58.9006 31.4804 0.0000 0.0000 0.0000
# 2 58.9006 121.9312 31.4804 0.0000 0.0000 0.0000
# 3 31.4804 31.4804 105.8419 0.0000 0.0000 0.0000
# 4 0.0000 0.0000 0.0000 14.6057 0.0000 0.0000
# 5 0.0000 0.0000 0.0000 0.0000 14.6057 0.0000
# 6 0.0000 0.0000 0.0000 0.0000 0.0000 35.1848
#
#
#
# Elastic Compliance Matrix: (Units=1/GPa)
#
#
# Indices 1 2 3 4 5 6 
#
# 1 0.011017 -0.004848 -0.001835 0.000000 0.000000 0.000000
# 2 -0.004848 0.011017 -0.001835 0.000000 0.000000 0.000000
# 3 -0.001835 -0.001835 0.010539 0.000000 0.000000 0.000000
# 4 0.000000 0.000000 0.000000 0.068467 0.000000 0.000000
# 5 0.000000 0.000000 0.000000 0.000000 0.068467 0.000000
# 6 0.000000 0.000000 0.000000 0.000000 0.000000 0.028421
#
#
# Mechanical properties :
#
#
# Convention : Reuss Voigt Hill
#
# Bulk Modulus (GPa) = 64.35834 65.93634 65.14734
# Shear Modulus (GPa) = 22.71250 28.06876 25.39063
#
# Velocity S-wave (km/s) = 3.38276 3.76054 3.57664
# Velocity P-wave (km/s) = 6.90525 7.21635 7.06252
#
# Compressibility (1/GPa) = 0.01553800
#
# Stress axis : x y z
#
# Youngs Moduli (GPa) = 90.76825 90.76825 94.88129
#
# Poissons Ratio (x) = 0.44007 0.17409
# Poissons Ratio (y) = 0.44007 0.17409
# Poissons Ratio (z) = 0.16654 0.16654
#
# Static dielectric constant tensor:
#      x y z
#    x 1.740160 0.000000 0.000000 
#    y 0.000000 1.740160 0.000000 
#    z 0.000000 0.000000 1.704100 
# 
# From -- ./inp_files/6211.got.cif
#   From: 2010.05.17/outbox.cif.g08.bks.cpg/sg138_4_cif.got.tgz:6211.got - 2010.05.20 13:08:53.
