data_PCOD9570027
_publ_section_title
;
Structure prediction by ZEFSAII (Michael W. Deem and Ramdas Pophale) SiO2 
 PCOD9570027
Probable space group: P 42/N M C
;
_chemical_formula_sum "Si O2"
_cell_formula_units_Z 84
_cell_length_a 18.788994
_cell_length_b 18.788994
_cell_length_c 13.803766
_cell_angle_alpha 90.000000
_cell_angle_beta 90.000000
_cell_angle_gamma 90.000000
_cell_volume 4873.092375
_symmetry_space_group_name_H-M "P 42/N M C"
_symmetry_group_IT_number 137
_space_group.IT_coordinate_system_code '2'
_symmetry_cell_setting 'tetragonal'
loop_
_space_group_symop_operation_xyz
x,y,z
1/2-y,x,1/2+z
1/2-x,1/2-y,z
y,1/2-x,1/2+z
1/2+x,-y,-z
-x,1/2+y,-z
1/2+y,1/2+x,1/2-z
-y,-x,1/2-z
-x,-y,-z
1/2+y,-x,1/2-z
1/2+x,1/2+y,-z
-y,1/2+x,1/2-z
1/2-x,y,z
x,1/2-y,z
1/2-y,1/2-x,1/2+z
y,x,1/2+z
loop_
_atom_site_type_symbol
_atom_site_label
_atom_site_fract_x
_atom_site_fract_y
_atom_site_fract_z
Si Si1 0.527872 0.611729 0.960964
Si Si2 0.750000 0.250000 0.446794
Si Si3 0.615671 0.015193 0.041079
Si Si4 0.250000 0.870469 0.260834
Si Si5 0.974610 0.250000 0.949159
Si Si6 0.372741 0.514736 0.742498
Si Si7 0.404479 0.750000 0.453181
Si Si8 0.895448 0.250000 0.156153
O O1 0.451732 0.569819 0.959420
O O2 0.537471 0.634786 0.848675
O O3 0.587432 0.554935 0.988286
O O4 0.519951 0.677304 0.036065
O O5 0.821030 0.250000 0.513834
O O6 0.750000 0.314888 0.372897
O O7 0.640055 0.991641 0.148417
O O8 0.680152 0.058029 0.994670
O O9 0.318707 0.818707 0.250000
O O10 0.250000 0.920614 0.356936
O O11 0.250000 0.914362 0.161919
O O12 0.930494 0.250000 0.049379
O O13 0.451694 0.548307 0.750000
O O14 0.317833 0.576986 0.714334
#
# Coordination Sequence:
#
# PCOD9570027 Si02
#       8
#    16   4  16   8   8  16   8   8
#     4   9  19  34  53  73  98 135 177 220 263 316
#     4  12  20  32  50  72 110 144 168 204 256 326
#     4  10  20  34  50  74 105 134 170 218 267 313
#     4  11  21  32  49  76 112 150 182 214 261 327
#     4  10  19  35  53  71  98 137 185 223 261 315
#     4   9  17  30  47  68  96 130 167 205 251 305
#     4  12  23  34  51  76 109 144 176 217 267 317
#     4  10  19  30  47  73 102 133 167 204 252 312
#
# _framework density 17.237514000000001
#
# number of rings (size 3 to 8) (size 9 to 14) (size 15 to 20)
#    0.000    2.000    0.000    6.857    0.000    2.286 
#    0.000    6.667    0.000    0.571    0.000    0.000 
#    0.000    6.095    0.000    0.000    0.000    0.095 
#
# Total GULP energy -467891.064375 kJ/mol
# GULP energy per Si atom -5570.131719 kJ/mol
# Density = 1.719828 g / cm^3
# Si number density = 17.237514 Si / 1000 Ang^3
#
#
#
# Elastic Constant Matrix: (Units=GPa)
#
#
# Indices 1 2 3 4 5 6 
#
# 1 69.7765 40.3573 38.0582 0.0000 0.0000 0.0000
# 2 40.3573 69.7769 38.0582 0.0000 0.0000 0.0000
# 3 38.0582 38.0582 131.3145 0.0000 0.0000 0.0000
# 4 0.0000 0.0000 0.0000 11.3430 0.0000 0.0000
# 5 0.0000 0.0000 0.0000 0.0000 11.3438 0.0000
# 6 0.0000 0.0000 0.0000 0.0000 0.0000 28.0667
#
#
#
# Elastic Compliance Matrix: (Units=1/GPa)
#
#
# Indices 1 2 3 4 5 6 
#
# 1 0.022673 -0.011319 -0.003291 0.000000 0.000000 0.000000
# 2 -0.011319 0.022673 -0.003291 0.000000 0.000000 0.000000
# 3 -0.003291 -0.003291 0.009523 0.000000 0.000000 0.000000
# 4 0.000000 0.000000 0.000000 0.088160 0.000000 0.000000
# 5 0.000000 0.000000 0.000000 0.000000 0.088154 0.000000
# 6 0.000000 0.000000 0.000000 0.000000 0.000000 0.035629
#
#
# Mechanical properties :
#
#
# Convention : Reuss Voigt Hill
#
# Bulk Modulus (GPa) = 52.44334 55.97949 54.21142
# Shear Modulus (GPa) = 16.18293 20.44365 18.31329
#
# Velocity S-wave (km/s) = 3.06734 3.44757 3.26300
# Velocity P-wave (km/s) = 6.56009 6.95654 6.76122
#
# Compressibility (1/GPa) = 0.01906820
#
# Stress axis : x y z
#
# Youngs Moduli (GPa) = 44.10582 44.10612 105.01153
#
# Poissons Ratio (x) = 0.49922 0.34557
# Poissons Ratio (y) = 0.49921 0.34556
# Poissons Ratio (z) = 0.14514 0.14514
#
# Static dielectric constant tensor:
#      x y z
#    x 1.603150 0.000000 0.000000 
#    y 0.000000 1.603140 0.000000 
#    z 0.000000 0.000000 1.625300 
# 
# From -- ./inp_files/3719.got.cif
#   From: 2010.05.17/outbox.cif.g08.bks.cpg/sg137_2_cif.got.tgz:3719.got - 2010.05.20 13:01:12.
