data_PCOD9570007
_publ_section_title
;
Structure prediction by ZEFSAII (Michael W. Deem and Ramdas Pophale) SiO2 
 PCOD9570007
Probable space group: P 42/N M C
;
_chemical_formula_sum "Si O2"
_cell_formula_units_Z 112
_cell_length_a 18.658813
_cell_length_b 18.658813
_cell_length_c 19.262198
_cell_angle_alpha 90.000000
_cell_angle_beta 90.000000
_cell_angle_gamma 90.000000
_cell_volume 6706.159324
_symmetry_space_group_name_H-M "P 42/N M C"
_symmetry_group_IT_number 137
_space_group.IT_coordinate_system_code '2'
_symmetry_cell_setting 'tetragonal'
loop_
_space_group_symop_operation_xyz
x,y,z
1/2-y,x,1/2+z
1/2-x,1/2-y,z
y,1/2-x,1/2+z
1/2+x,-y,-z
-x,1/2+y,-z
1/2+y,1/2+x,1/2-z
-y,-x,1/2-z
-x,-y,-z
1/2+y,-x,1/2-z
1/2+x,1/2+y,-z
-y,1/2+x,1/2-z
1/2-x,y,z
x,1/2-y,z
1/2-y,1/2-x,1/2+z
y,x,1/2+z
loop_
_atom_site_type_symbol
_atom_site_label
_atom_site_fract_x
_atom_site_fract_y
_atom_site_fract_z
Si Si1 0.522637 0.101892 0.165872
Si Si2 0.169112 0.526262 0.808038
Si Si3 0.422703 0.331777 0.441102
Si Si4 0.669918 0.428457 0.470694
Si Si5 0.947049 0.446416 0.670258
Si Si6 0.038938 0.170221 0.902394
Si Si7 0.052653 0.664208 0.456238
O O1 0.606703 0.082792 0.176331
O O2 0.497613 0.148767 0.231431
O O3 0.523695 0.141410 0.092822
O O4 0.480350 0.026765 0.166051
O O5 0.250000 0.555134 0.807592
O O6 0.165366 0.467691 0.869090
O O7 0.399283 0.250000 0.451633
O O8 0.358681 0.387175 0.433631
O O9 0.478329 0.350858 0.502752
O O10 0.750000 0.401369 0.455418
O O11 0.673228 0.480947 0.536330
O O12 0.614988 0.366157 0.493264
O O13 0.929192 0.429192 0.750000
O O14 0.889978 0.506941 0.648123
O O15 0.943600 0.380703 0.615518
O O16 0.046031 0.250000 0.872067
O O17 0.058751 0.750000 0.446587
#
# Coordination Sequence:
#
# PCOD9570007 Si02
#       7
#    16  16  16  16  16  16  16
#     4  11  18  32  53  75 105 138 172 211 247 301
#     4  10  19  30  49  77 106 134 167 203 247 299
#     4  10  18  33  53  74 102 138 172 210 259 312
#     4  10  20  32  51  75 104 138 171 209 256 307
#     4  11  20  35  55  76 100 134 177 220 271 305
#     4  10  20  34  50  76 105 131 170 220 264 312
#     4  10  21  35  53  75 101 133 176 219 257 310
#
# _framework density 16.701065
#
# number of rings (size 3 to 8) (size 9 to 14) (size 15 to 20)
#    0.000    1.714    4.286    1.286    0.000    3.429 
#    0.000    0.000    0.000    6.857    0.000    2.000 
#    0.000    5.143    0.000    0.000    0.000    0.000 
#
# Total GULP energy -624066.051577 kJ/mol
# GULP energy per Si atom -5572.018318 kJ/mol
# Density = 1.666305 g / cm^3
# Si number density = 16.701065 Si / 1000 Ang^3
#
#
#
# Elastic Constant Matrix: (Units=GPa)
#
#
# Indices 1 2 3 4 5 6 
#
# 1 57.8299 24.8979 14.1671 0.0000 0.0000 0.0000
# 2 24.8979 57.8299 14.1671 0.0000 0.0000 0.0000
# 3 14.1671 14.1671 90.7612 0.0000 0.0000 0.0000
# 4 0.0000 0.0000 0.0000 17.6720 0.0000 0.0000
# 5 0.0000 0.0000 0.0000 0.0000 17.6720 0.0000
# 6 0.0000 0.0000 0.0000 0.0000 0.0000 13.1001
#
#
#
# Elastic Compliance Matrix: (Units=1/GPa)
#
#
# Indices 1 2 3 4 5 6 
#
# 1 0.021568 -0.008797 -0.001993 0.000000 0.000000 0.000000
# 2 -0.008797 0.021568 -0.001993 0.000000 0.000000 0.000000
# 3 -0.001993 -0.001993 0.011640 0.000000 0.000000 0.000000
# 4 0.000000 0.000000 0.000000 0.056587 0.000000 0.000000
# 5 0.000000 0.000000 0.000000 0.000000 0.056587 0.000000
# 6 0.000000 0.000000 0.000000 0.000000 0.000000 0.076335
#
#
# Mechanical properties :
#
#
# Convention : Reuss Voigt Hill
#
# Bulk Modulus (GPa) = 34.23741 34.76503 34.50122
# Shear Modulus (GPa) = 17.88338 19.90142 18.89240
#
# Velocity S-wave (km/s) = 3.27585 3.45574 3.36699
# Velocity P-wave (km/s) = 5.90363 6.06499 5.98485
#
# Compressibility (1/GPa) = 0.02920782
#
# Stress axis : x y z
#
# Youngs Moduli (GPa) = 46.36486 46.36486 85.90890
#
# Poissons Ratio (x) = 0.40789 0.17125
# Poissons Ratio (y) = 0.40789 0.17125
# Poissons Ratio (z) = 0.09242 0.09242
#
# Static dielectric constant tensor:
#      x y z
#    x 1.567760 0.000000 0.000000 
#    y 0.000000 1.567760 0.000000 
#    z 0.000000 0.000000 1.589790 
# 
# From -- ./inp_files/8104.got.cif
#   From: 2010.05.17/outbox.cif.g08.bks.cpg/sg137_5_cif.got.tgz:8104.got - 2010.05.20 13:01:12.
