data_PCOD9570053
_publ_section_title
;
Structure prediction by ZEFSAII (Michael W. Deem and Ramdas Pophale) SiO2 
 PCOD9570053
Probable space group: P 42/N M C
;
_chemical_formula_sum "Si O2"
_cell_formula_units_Z 96
_cell_length_a 24.625657
_cell_length_b 24.625657
_cell_length_c 9.566942
_cell_angle_alpha 90.000000
_cell_angle_beta 90.000000
_cell_angle_gamma 90.000000
_cell_volume 5801.613503
_symmetry_space_group_name_H-M "P 42/N M C"
_symmetry_group_IT_number 137
_space_group.IT_coordinate_system_code '2'
_symmetry_cell_setting 'tetragonal'
loop_
_space_group_symop_operation_xyz
x,y,z
1/2-y,x,1/2+z
1/2-x,1/2-y,z
y,1/2-x,1/2+z
1/2+x,-y,-z
-x,1/2+y,-z
1/2+y,1/2+x,1/2-z
-y,-x,1/2-z
-x,-y,-z
1/2+y,-x,1/2-z
1/2+x,1/2+y,-z
-y,1/2+x,1/2-z
1/2-x,y,z
x,1/2-y,z
1/2-y,1/2-x,1/2+z
y,x,1/2+z
loop_
_atom_site_type_symbol
_atom_site_label
_atom_site_fract_x
_atom_site_fract_y
_atom_site_fract_z
Si Si1 0.118298 0.186934 0.245608
Si Si2 0.310974 0.418476 0.245004
Si Si3 0.035666 0.348948 0.011271
Si Si4 0.517726 0.964298 0.132741
Si Si5 0.380404 0.532447 0.763359
Si Si6 0.812316 0.976539 0.022589
O O1 0.137358 0.250000 0.229732
O O2 0.160911 0.139128 0.276366
O O3 0.087081 0.166162 0.107512
O O4 0.073375 0.187313 0.367801
O O5 0.250000 0.405775 0.197564
O O6 0.310041 0.457216 0.379388
O O7 0.337935 0.452507 0.118722
O O8 0.986178 0.349806 0.122157
O O9 0.033240 0.406803 0.932778
O O10 0.470594 0.970594 0.250000
O O11 0.570797 0.989053 0.209004
O O12 0.500000 0.000000 0.000000
O O13 0.410225 0.589776 0.750000
O O14 0.343353 0.524624 0.899008
O O15 0.750000 0.992598 0.996438
#
# Coordination Sequence:
#
# PCOD9570053 Si02
#       6
#    16  16  16  16  16  16
#     4  10  20  35  52  65  88 129 172 219 268 298
#     4  11  22  33  49  71  93 127 174 218 260 298
#     4  11  20  32  48  69  97 125 157 206 256 316
#     4  11  20  30  45  73 100 127 151 193 252 302
#     4  10  19  32  48  71  97 123 161 193 237 307
#     4   9  20  35  49  66  94 130 161 199 253 306
#
# _framework density 16.54712
#
# number of rings (size 3 to 8) (size 9 to 14) (size 15 to 20)
#    0.000    1.667    3.333    4.500    2.333    1.000 
#    0.000    0.000    0.000    5.000    0.000    0.000 
#    0.000    0.333    0.000    0.000    0.000    4.000 
#
# Total GULP energy -534611.148928 kJ/mol
# GULP energy per Si atom -5568.866135 kJ/mol
# Density = 1.650946 g / cm^3
# Si number density = 16.547120 Si / 1000 Ang^3
#
#
#
# Elastic Constant Matrix: (Units=GPa)
#
#
# Indices 1 2 3 4 5 6 
#
# 1 47.2630 32.4241 15.3836 0.0000 0.0000 0.0000
# 2 32.4241 47.2618 15.3836 0.0000 0.0000 0.0000
# 3 15.3836 15.3836 102.9412 0.0000 0.0000 0.0000
# 4 0.0000 0.0000 0.0000 19.4857 0.0000 0.0000
# 5 0.0000 0.0000 0.0000 0.0000 19.4856 0.0000
# 6 0.0000 0.0000 0.0000 0.0000 0.0000 12.3186
#
#
#
# Elastic Compliance Matrix: (Units=1/GPa)
#
#
# Indices 1 2 3 4 5 6 
#
# 1 0.040355 -0.027038 -0.001990 0.000000 0.000000 0.000000
# 2 -0.027038 0.040356 -0.001990 0.000000 0.000000 0.000000
# 3 -0.001990 -0.001990 0.010309 0.000000 0.000000 0.000000
# 4 0.000000 0.000000 0.000000 0.051320 0.000000 0.000000
# 5 0.000000 0.000000 0.000000 0.000000 0.051320 0.000000
# 6 0.000000 0.000000 0.000000 0.000000 0.000000 0.081178
#
#
# Mechanical properties :
#
#
# Convention : Reuss Voigt Hill
#
# Bulk Modulus (GPa) = 34.50234 35.98317 35.24276
# Shear Modulus (GPa) = 14.42857 19.20964 16.81910
#
# Velocity S-wave (km/s) = 2.95612 3.41090 3.19162
# Velocity P-wave (km/s) = 5.70506 6.10782 5.90987
#
# Compressibility (1/GPa) = 0.02898355
#
# Stress axis : x y z
#
# Youngs Moduli (GPa) = 24.78022 24.77954 97.00159
#
# Poissons Ratio (x) = 0.66998 0.19304
# Poissons Ratio (y) = 0.67000 0.19306
# Poissons Ratio (z) = 0.04932 0.04932
#
# Static dielectric constant tensor:
#      x y z
#    x 1.590520 0.000000 0.000000 
#    y 0.000000 1.590520 0.000000 
#    z 0.000000 0.000000 1.609070 
# 
# From -- ./inp_files/2152.got.cif
#   From: 2010.05.17/outbox.cif.g08.bks.cpg/sg137_2_cif.got.tgz:2152.got - 2010.05.20 13:01:12.
