data_PCOD9570977
_publ_section_title
;
Structure prediction by ZEFSAII (Michael W. Deem and Ramdas Pophale) SiO2 
 PCOD9570977
Probable space group: P 42/N C M
;
_chemical_formula_sum "Si O2"
_cell_formula_units_Z 96
_cell_length_a 24.727127
_cell_length_b 24.727127
_cell_length_c 8.886651
_cell_angle_alpha 90.000000
_cell_angle_beta 90.000000
_cell_angle_gamma 90.000000
_cell_volume 5433.572216
_symmetry_space_group_name_H-M "P 42/N C M"
_symmetry_group_IT_number 138
_space_group.IT_coordinate_system_code '2'
_symmetry_cell_setting 'tetragonal'
loop_
_space_group_symop_operation_xyz
x,y,z
1/2-y,x,1/2+z
1/2-x,1/2-y,z
y,1/2-x,1/2+z
1/2+x,-y,1/2-z
-x,1/2+y,1/2-z
1/2+y,1/2+x,-z
-y,-x,-z
-x,-y,-z
1/2+y,-x,1/2-z
1/2+x,1/2+y,-z
-y,1/2+x,1/2-z
1/2-x,y,1/2+z
x,1/2-y,1/2+z
1/2-y,1/2-x,z
y,x,z
loop_
_atom_site_type_symbol
_atom_site_label
_atom_site_fract_x
_atom_site_fract_y
_atom_site_fract_z
Si Si1 0.190871 0.809128 0.317755
Si Si2 0.101006 0.898990 0.320105
Si Si3 0.106420 0.191624 0.180527
Si Si4 0.606425 0.691628 0.180499
Si Si5 0.897035 0.516003 0.319018
Si Si6 0.897031 0.983992 0.180990
O O1 0.194377 0.805624 0.500000
O O2 0.249999 0.823150 0.249998
O O3 0.145885 0.854111 0.277085
O O4 0.099625 0.900376 0.500000
O O5 0.041244 0.887274 0.257095
O O6 0.112717 0.958749 0.257078
O O7 0.160708 0.160708 0.231224
O O8 0.100435 0.249998 0.250018
O O9 0.056797 0.151802 0.216744
O O10 0.108255 0.195743 0.000015
O O11 0.660716 0.660716 0.231190
O O12 0.556805 0.651804 0.216734
O O13 0.952244 0.547757 0.274928
O O14 0.899412 0.509051 0.500005
O O15 0.952240 0.952240 0.225084
#
# Coordination Sequence:
#
# PCOD9570977 Si02
#       6
#    16  16  16  16  16  16
#     4  10  22  40  59  79 105 136 170 210 257 306
#     4  11  23  35  53  84 111 132 167 213 258 307
#     4   9  19  35  53  75 104 138 177 219 261 306
#     4   9  19  35  53  75 104 138 177 219 261 306
#     4   9  19  36  55  75 104 142 178 212 255 307
#     4   9  19  36  55  75 104 142 178 212 255 307
#
# _framework density 17.667935
#
# number of rings (size 3 to 8) (size 9 to 14) (size 15 to 20)
#    0.000    2.500    0.000    4.000    0.000    9.000 
#    0.000   11.667    0.000    0.000    0.000    0.000 
#    0.000    0.000    0.000    0.000    0.000    0.000 
#
# Total GULP energy -535505.382069 kJ/mol
# GULP energy per Si atom -5578.181063 kJ/mol
# Density = 1.762772 g / cm^3
# Si number density = 17.667935 Si / 1000 Ang^3
#
#
#
# Elastic Constant Matrix: (Units=GPa)
#
#
# Indices 1 2 3 4 5 6 
#
# 1 163.6803 92.8281 52.5322 0.0000 0.0000 0.0000
# 2 92.8281 163.6805 52.5331 0.0000 0.0000 0.0000
# 3 52.5322 52.5331 37.2771 0.0000 0.0000 0.0000
# 4 0.0000 0.0000 0.0000 37.0876 0.0000 0.0000
# 5 0.0000 0.0000 0.0000 0.0000 37.0875 0.0000
# 6 0.0000 0.0000 0.0000 0.0000 0.0000 25.4630
#
#
#
# Elastic Compliance Matrix: (Units=1/GPa)
#
#
# Indices 1 2 3 4 5 6 
#
# 1 0.011667 -0.002446 -0.012995 0.000000 0.000000 0.000000
# 2 -0.002446 0.011668 -0.012995 0.000000 0.000000 0.000000
# 3 -0.012995 -0.012995 0.063452 0.000000 0.000000 0.000000
# 4 0.000000 0.000000 0.000000 0.026963 0.000000 0.000000
# 5 0.000000 0.000000 0.000000 0.000000 0.026963 0.000000
# 6 0.000000 0.000000 0.000000 0.000000 0.000000 0.039273
#
#
# Mechanical properties :
#
#
# Convention : Reuss Voigt Hill
#
# Bulk Modulus (GPa) = 33.42814 84.49164 58.95989
# Shear Modulus (GPa) = 20.25679 31.04391 25.65035
#
# Velocity S-wave (km/s) = 3.38972 4.19630 3.81439
# Velocity P-wave (km/s) = 5.85504 8.45011 7.26932
#
# Compressibility (1/GPa) = 0.02991491
#
# Stress axis : x y z
#
# Youngs Moduli (GPa) = 85.70880 85.70687 15.75985
#
# Poissons Ratio (x) = 0.20967 0.20479
# Poissons Ratio (y) = 0.20967 0.20480
# Poissons Ratio (z) = 1.11375 1.11379
#
# Static dielectric constant tensor:
#      x y z
#    x 1.596380 0.000000 0.000000 
#    y 0.000000 1.596380 0.000000 
#    z 0.000000 0.000000 1.592070 
# 
# From -- ./inp_files/1721.got.cif
#   From: 2010.05.17/outbox.cif.g08.bks.cpg/sg138_1_cif.got.tgz:1721.got - 2010.05.20 13:08:53.
