data_PCOD9570021
_publ_section_title
;
Structure prediction by ZEFSAII (Michael W. Deem and Ramdas Pophale) SiO2 
 PCOD9570021
Probable space group: P 42/N M C
;
_chemical_formula_sum "Si O2"
_cell_formula_units_Z 112
_cell_length_a 14.570887
_cell_length_b 14.570887
_cell_length_c 32.100485
_cell_angle_alpha 90.000000
_cell_angle_beta 90.000000
_cell_angle_gamma 90.000000
_cell_volume 6815.277980
_symmetry_space_group_name_H-M "P 42/N M C"
_symmetry_group_IT_number 137
_space_group.IT_coordinate_system_code '2'
_symmetry_cell_setting 'tetragonal'
loop_
_space_group_symop_operation_xyz
x,y,z
1/2-y,x,1/2+z
1/2-x,1/2-y,z
y,1/2-x,1/2+z
1/2+x,-y,-z
-x,1/2+y,-z
1/2+y,1/2+x,1/2-z
-y,-x,1/2-z
-x,-y,-z
1/2+y,-x,1/2-z
1/2+x,1/2+y,-z
-y,1/2+x,1/2-z
1/2-x,y,z
x,1/2-y,z
1/2-y,1/2-x,1/2+z
y,x,1/2+z
loop_
_atom_site_type_symbol
_atom_site_label
_atom_site_fract_x
_atom_site_fract_y
_atom_site_fract_z
Si Si1 0.358354 0.048036 0.021201
Si Si2 0.152477 0.643397 0.498160
Si Si3 0.996869 0.353533 0.074728
Si Si4 0.027286 0.856596 0.718112
Si Si5 0.361221 0.143234 0.935475
Si Si6 0.861372 0.856287 0.159621
Si Si7 0.139313 0.848883 0.635308
O O1 0.250000 0.067900 0.023798
O O2 0.415483 0.097769 0.056394
O O3 0.373432 0.939952 0.026379
O O4 0.390269 0.080985 0.974811
O O5 0.250000 0.629779 0.475873
O O6 0.148700 0.750000 0.511846
O O7 0.151289 0.577458 0.537592
O O8 0.022788 0.250000 0.086475
O O9 0.937971 0.396803 0.111671
O O10 0.069265 0.930736 0.750000
O O11 0.016652 0.750000 0.734205
O O12 0.103402 0.850717 0.681841
O O13 0.932772 0.885062 0.694288
O O14 0.250000 0.138559 0.934807
O O15 0.385861 0.250000 0.944194
O O16 0.391541 0.120955 0.888134
O O17 0.750000 0.857445 0.158483
O O18 0.888561 0.750000 0.168426
O O19 0.250000 0.850532 0.633022
O O20 0.108439 0.750000 0.616945
#
# Coordination Sequence:
#
# PCOD9570021 Si02
#       7
#    16  16  16  16  16  16  16
#     4  10  19  29  46  67  90 123 161 202 242 274
#     4   9  18  31  44  59  83 117 158 199 234 272
#     4  10  19  30  44  64  91 122 158 195 231 278
#     4  10  19  30  49  74 100 125 151 186 229 279
#     4   8  14  25  41  63  90 118 150 186 226 270
#     4   8  15  28  45  66  94 126 155 185 224 269
#     4   9  18  31  47  68  96 130 161 191 233 284
#
# _framework density 16.433667
#
# number of rings (size 3 to 8) (size 9 to 14) (size 15 to 20)
#    0.000    2.857    0.000    2.571    2.000    3.286 
#    0.000    0.000    0.000    0.857    0.000    2.000 
#    0.000    0.286    0.000    0.000    0.000    0.000 
#
# Total GULP energy -623483.228502 kJ/mol
# GULP energy per Si atom -5566.814540 kJ/mol
# Density = 1.639626 g / cm^3
# Si number density = 16.433667 Si / 1000 Ang^3
#
#
#
# Elastic Constant Matrix: (Units=GPa)
#
#
# Indices 1 2 3 4 5 6 
#
# 1 68.8174 32.2553 35.8758 0.0000 0.0000 0.0000
# 2 32.2553 68.8165 35.8754 0.0000 0.0000 0.0000
# 3 35.8758 35.8754 62.3149 0.0000 0.0000 0.0000
# 4 0.0000 0.0000 0.0000 13.8267 0.0000 0.0000
# 5 0.0000 0.0000 0.0000 0.0000 13.8271 0.0000
# 6 0.0000 0.0000 0.0000 0.0000 0.0000 7.0955
#
#
#
# Elastic Compliance Matrix: (Units=1/GPa)
#
#
# Indices 1 2 3 4 5 6 
#
# 1 0.022042 -0.005309 -0.009633 0.000000 0.000000 0.000000
# 2 -0.005309 0.022042 -0.009633 0.000000 0.000000 0.000000
# 3 -0.009633 -0.009633 0.027139 0.000000 0.000000 0.000000
# 4 0.000000 0.000000 0.000000 0.072324 0.000000 0.000000
# 5 0.000000 0.000000 0.000000 0.000000 0.072322 0.000000
# 6 0.000000 0.000000 0.000000 0.000000 0.000000 0.140934
#
#
# Mechanical properties :
#
#
# Convention : Reuss Voigt Hill
#
# Bulk Modulus (GPa) = 45.30663 45.32908 45.31785
# Shear Modulus (GPa) = 12.09744 13.34603 12.72174
#
# Velocity S-wave (km/s) = 2.71613 2.85286 2.78533
# Velocity P-wave (km/s) = 6.12092 6.20441 6.16281
#
# Compressibility (1/GPa) = 0.02207183
#
# Stress axis : x y z
#
# Youngs Moduli (GPa) = 45.36866 45.36829 36.84682
#
# Poissons Ratio (x) = 0.24087 0.35495
# Poissons Ratio (y) = 0.24087 0.35495
# Poissons Ratio (z) = 0.43704 0.43704
#
# Static dielectric constant tensor:
#      x y z
#    x 1.594870 0.000000 0.000000 
#    y 0.000000 1.594870 0.000000 
#    z 0.000000 0.000000 1.540270 
# 
# From -- ./inp_files/9800.got.cif
#   From: 2010.05.17/outbox.cif.g08.bks.cpg/sg137_5_cif.got.tgz:9800.got - 2010.05.20 13:01:12.
