data_PCOD9570078
_publ_section_title
;
Structure prediction by ZEFSAII (Michael W. Deem and Ramdas Pophale) SiO2 
 PCOD9570078
Probable space group: P 42/N M C
;
_chemical_formula_sum "Si O2"
_cell_formula_units_Z 112
_cell_length_a 14.175341
_cell_length_b 14.175341
_cell_length_c 30.508375
_cell_angle_alpha 90.000000
_cell_angle_beta 90.000000
_cell_angle_gamma 90.000000
_cell_volume 6130.361795
_symmetry_space_group_name_H-M "P 42/N M C"
_symmetry_group_IT_number 137
_space_group.IT_coordinate_system_code '2'
_symmetry_cell_setting 'tetragonal'
loop_
_space_group_symop_operation_xyz
x,y,z
1/2-y,x,1/2+z
1/2-x,1/2-y,z
y,1/2-x,1/2+z
1/2+x,-y,-z
-x,1/2+y,-z
1/2+y,1/2+x,1/2-z
-y,-x,1/2-z
-x,-y,-z
1/2+y,-x,1/2-z
1/2+x,1/2+y,-z
-y,1/2+x,1/2-z
1/2-x,y,z
x,1/2-y,z
1/2-y,1/2-x,1/2+z
y,x,1/2+z
loop_
_atom_site_type_symbol
_atom_site_label
_atom_site_fract_x
_atom_site_fract_y
_atom_site_fract_z
Si Si1 0.863116 0.541090 0.972139
Si Si2 0.055836 0.022533 0.364277
Si Si3 0.995851 0.362494 0.769390
Si Si4 0.859648 0.530324 0.392707
Si Si5 0.138592 0.859808 0.079977
Si Si6 0.142940 0.137557 0.440609
Si Si7 0.852385 0.637553 0.302542
O O1 0.750000 0.558614 0.967509
O O2 0.918732 0.604552 0.936843
O O3 0.878589 0.430841 0.960721
O O4 0.891688 0.571657 0.020819
O O5 0.091061 0.919769 0.381249
O O6 0.945972 0.037475 0.377442
O O7 0.084043 0.025330 0.313757
O O8 0.115638 0.092388 0.394642
O O9 0.999483 0.250000 0.776646
O O10 0.067510 0.392092 0.730856
O O11 0.895747 0.395747 0.750000
O O12 0.750000 0.497498 0.396792
O O13 0.862259 0.603171 0.352099
O O14 0.250000 0.861961 0.089253
O O15 0.111738 0.750000 0.073628
O O16 0.250000 0.111779 0.453041
O O17 0.138510 0.250000 0.437045
O O18 0.750000 0.604491 0.286515
O O19 0.853795 0.750000 0.302919
#
# Coordination Sequence:
#
# PCOD9570078 Si02
#       7
#    16  16  16  16  16  16  16
#     4   9  18  32  52  78 107 141 184 231 275 322
#     4  11  22  37  55  77 110 144 181 222 272 322
#     4  11  22  36  53  77 107 142 181 216 260 318
#     4  10  19  32  54  80 106 137 175 222 277 329
#     4   9  18  32  51  77 110 149 186 219 266 329
#     4  10  21  37  56  79 108 143 184 229 276 324
#     4   9  18  33  54  79 105 132 170 223 276 321
#
# _framework density 18.26972
#
# number of rings (size 3 to 8) (size 9 to 14) (size 15 to 20)
#    0.000    2.143    1.429    2.143    0.000    5.571 
#    0.000    3.571    0.000    1.286    0.000    0.000 
#    0.000    0.286    0.000    0.000    0.000    0.000 
#
# Total GULP energy -624125.704789 kJ/mol
# GULP energy per Si atom -5572.550936 kJ/mol
# Density = 1.822814 g / cm^3
# Si number density = 18.269720 Si / 1000 Ang^3
#
#
#
# Elastic Constant Matrix: (Units=GPa)
#
#
# Indices 1 2 3 4 5 6 
#
# 1 66.4121 7.3269 11.9838 0.0000 0.0000 0.0000
# 2 7.3269 66.4121 11.9838 0.0000 0.0000 0.0000
# 3 11.9838 11.9838 83.6608 0.0000 0.0000 0.0000
# 4 0.0000 0.0000 0.0000 28.7889 0.0000 0.0000
# 5 0.0000 0.0000 0.0000 0.0000 28.7889 0.0000
# 6 0.0000 0.0000 0.0000 0.0000 0.0000 8.7514
#
#
#
# Elastic Compliance Matrix: (Units=1/GPa)
#
#
# Indices 1 2 3 4 5 6 
#
# 1 0.015574 -0.001351 -0.002037 0.000000 0.000000 0.000000
# 2 -0.001351 0.015574 -0.002037 0.000000 0.000000 0.000000
# 3 -0.002037 -0.002037 0.012537 0.000000 0.000000 0.000000
# 4 0.000000 0.000000 0.000000 0.034736 0.000000 0.000000
# 5 0.000000 0.000000 0.000000 0.000000 0.034736 0.000000
# 6 0.000000 0.000000 0.000000 0.000000 0.000000 0.114267
#
#
# Mechanical properties :
#
#
# Convention : Reuss Voigt Hill
#
# Bulk Modulus (GPa) = 30.45606 31.00821 30.73213
# Shear Modulus (GPa) = 20.06266 25.61187 22.83726
#
# Velocity S-wave (km/s) = 3.31741 3.74822 3.53938
# Velocity P-wave (km/s) = 5.60179 5.97842 5.79317
#
# Compressibility (1/GPa) = 0.03283419
#
# Stress axis : x y z
#
# Youngs Moduli (GPa) = 64.20901 64.20901 79.76562
#
# Poissons Ratio (x) = 0.08672 0.16252
# Poissons Ratio (y) = 0.08672 0.16252
# Poissons Ratio (z) = 0.13082 0.13082
#
# Static dielectric constant tensor:
#      x y z
#    x 1.664540 0.000000 0.000000 
#    y 0.000000 1.664540 0.000000 
#    z 0.000000 0.000000 1.601950 
# 
# From -- ./inp_files/9839.got.cif
#   From: 2010.05.17/outbox.cif.g08.bks.cpg/sg137_5_cif.got.tgz:9839.got - 2010.05.20 13:01:12.
