data_PCOD9570016
_publ_section_title
;
Structure prediction by ZEFSAII (Michael W. Deem and Ramdas Pophale) SiO2 
 PCOD9570016
Probable space group: P 42/N M C
;
_chemical_formula_sum "Si O2"
_cell_formula_units_Z 88
_cell_length_a 18.685418
_cell_length_b 18.685418
_cell_length_c 14.829449
_cell_angle_alpha 90.000000
_cell_angle_beta 90.000000
_cell_angle_gamma 90.000000
_cell_volume 5177.625685
_symmetry_space_group_name_H-M "P 42/N M C"
_symmetry_group_IT_number 137
_space_group.IT_coordinate_system_code '2'
_symmetry_cell_setting 'tetragonal'
loop_
_space_group_symop_operation_xyz
x,y,z
1/2-y,x,1/2+z
1/2-x,1/2-y,z
y,1/2-x,1/2+z
1/2+x,-y,-z
-x,1/2+y,-z
1/2+y,1/2+x,1/2-z
-y,-x,1/2-z
-x,-y,-z
1/2+y,-x,1/2-z
1/2+x,1/2+y,-z
-y,1/2+x,1/2-z
1/2-x,y,z
x,1/2-y,z
1/2-y,1/2-x,1/2+z
y,x,1/2+z
loop_
_atom_site_type_symbol
_atom_site_label
_atom_site_fract_x
_atom_site_fract_y
_atom_site_fract_z
Si Si1 0.618942 0.332110 0.655882
Si Si2 0.947440 0.750000 0.064837
Si Si3 0.890826 0.992702 0.260309
Si Si4 0.892573 0.250000 0.951437
Si Si5 0.915868 0.931406 0.586107
Si Si6 0.503191 0.578564 0.398585
Si Si7 0.985874 0.250000 0.122029
O O1 0.626449 0.373552 0.750000
O O2 0.628819 0.250000 0.678983
O O3 0.679463 0.353301 0.583399
O O4 0.541647 0.350437 0.617139
O O5 0.920760 0.670157 0.090614
O O6 0.029988 0.750000 0.096807
O O7 0.953195 0.750000 0.955589
O O8 0.932674 0.067327 0.250000
O O9 0.819225 0.006212 0.316032
O O10 0.885696 0.955399 0.163156
O O11 0.943678 0.942612 0.318656
O O12 0.914874 0.250000 0.057409
O O13 0.949651 0.915818 0.488462
O O14 0.943227 0.014374 0.598124
#
# Coordination Sequence:
#
# PCOD9570016 Si02
#       7
#    16   8  16   8  16  16   8
#     4  12  23  35  52  83 126 159 193 237 300 362
#     4  10  18  35  62  84 109 152 187 237 306 375
#     4  10  21  35  60  87 117 147 197 262 291 348
#     4  10  21  34  56  77 115 169 192 226 289 372
#     4  10  19  34  60  84 113 142 195 247 304 343
#     4  10  19  35  53  86 111 146 192 249 287 343
#     4  10  20  39  60  83 112 160 205 239 307 358
#
# _framework density 16.996207999999999
#
# number of rings (size 3 to 8) (size 9 to 14) (size 15 to 20)
#    0.545    1.091    4.545    1.909    5.091    0.000 
#    1.636    0.000    2.000    0.545    0.000    2.545 
#    0.000    0.000    0.000    0.000    0.000    0.000 
#
# Total GULP energy -490003.680525 kJ/mol
# GULP energy per Si atom -5568.223642 kJ/mol
# Density = 1.695752 g / cm^3
# Si number density = 16.996208 Si / 1000 Ang^3
#
#
#
# Elastic Constant Matrix: (Units=GPa)
#
#
# Indices 1 2 3 4 5 6 
#
# 1 58.1256 16.0199 10.6962 0.0000 0.0000 0.0000
# 2 16.0199 58.1286 10.7011 0.0000 0.0000 0.0000
# 3 10.6962 10.7011 55.9084 0.0000 0.0000 0.0000
# 4 0.0000 0.0000 0.0000 21.9504 0.0000 0.0000
# 5 0.0000 0.0000 0.0000 0.0000 21.9508 0.0000
# 6 0.0000 0.0000 0.0000 0.0000 0.0000 7.4284
#
#
#
# Elastic Compliance Matrix: (Units=1/GPa)
#
#
# Indices 1 2 3 4 5 6 
#
# 1 0.019012 -0.004737 -0.002731 0.000000 0.000000 0.000000
# 2 -0.004737 0.019012 -0.002733 0.000000 0.000000 0.000000
# 3 -0.002731 -0.002733 0.018932 0.000000 0.000000 0.000000
# 4 0.000000 0.000000 0.000000 0.045557 0.000000 0.000000
# 5 0.000000 0.000000 0.000000 0.000000 0.045556 0.000000
# 6 0.000000 0.000000 0.000000 0.000000 0.000000 0.134618
#
#
# Mechanical properties :
#
#
# Convention : Reuss Voigt Hill
#
# Bulk Modulus (GPa) = 27.35589 27.44413 27.40001
# Shear Modulus (GPa) = 15.85927 19.24896 17.55411
#
# Velocity S-wave (km/s) = 3.05799 3.36898 3.21725
# Velocity P-wave (km/s) = 5.34777 5.59604 5.47331
#
# Compressibility (1/GPa) = 0.03655520
#
# Stress axis : x y z
#
# Youngs Moduli (GPa) = 52.59786 52.59895 52.82096
#
# Poissons Ratio (x) = 0.24916 0.14424
# Poissons Ratio (y) = 0.24915 0.14434
# Poissons Ratio (z) = 0.14363 0.14374
#
# Static dielectric constant tensor:
#      x y z
#    x 1.584410 0.000000 0.000000 
#    y 0.000000 1.584420 0.000000 
#    z 0.000000 0.000000 1.580810 
# 
# From -- ./inp_files/5143.got.cif
#   From: 2010.05.17/outbox.cif.g08.bks.cpg/sg137_3_cif.got.tgz:5143.got - 2010.05.20 13:01:12.
