data_PCOD9570642
_publ_section_title
;
Structure prediction by ZEFSAII (Michael W. Deem and Ramdas Pophale) SiO2 
 PCOD9570642
Probable space group: P 42/N C M
;
_chemical_formula_sum "Si O2"
_cell_formula_units_Z 96
_cell_length_a 14.445344
_cell_length_b 14.445344
_cell_length_c 27.647513
_cell_angle_alpha 90.000000
_cell_angle_beta 90.000000
_cell_angle_gamma 90.000000
_cell_volume 5769.150227
_symmetry_space_group_name_H-M "P 42/N C M"
_symmetry_group_IT_number 138
_space_group.IT_coordinate_system_code '2'
_symmetry_cell_setting 'tetragonal'
loop_
_space_group_symop_operation_xyz
x,y,z
1/2-y,x,1/2+z
1/2-x,1/2-y,z
y,1/2-x,1/2+z
1/2+x,-y,1/2-z
-x,1/2+y,1/2-z
1/2+y,1/2+x,-z
-y,-x,-z
-x,-y,-z
1/2+y,-x,1/2-z
1/2+x,1/2+y,-z
-y,1/2+x,1/2-z
1/2-x,y,1/2+z
x,1/2-y,1/2+z
1/2-y,1/2-x,z
y,x,z
loop_
_atom_site_type_symbol
_atom_site_label
_atom_site_fract_x
_atom_site_fract_y
_atom_site_fract_z
Si Si1 0.248048 0.097273 0.480619
Si Si2 0.742410 0.600028 0.634093
Si Si3 0.606770 0.247916 0.022020
Si Si4 0.761400 0.360729 0.364543
Si Si5 0.122131 0.674875 0.766893
Si Si6 0.465333 0.882974 0.676433
O O1 0.339201 0.160800 0.487502
O O2 0.160953 0.160953 0.495877
O O3 0.237451 0.080519 0.423075
O O4 0.253563 0.999345 0.506384
O O5 0.818772 0.681229 0.639763
O O6 0.645123 0.645123 0.650159
O O7 0.786630 0.513520 0.660925
O O8 0.613586 0.245083 0.080018
O O9 0.657938 0.157938 0.000000
O O10 0.665919 0.334082 0.000000
O O11 0.750000 0.250000 0.360713
O O12 0.692666 0.399021 0.322993
O O13 0.865518 0.387995 0.348983
O O14 0.131198 0.776592 0.741984
O O15 0.051141 0.619016 0.733972
O O16 0.533421 0.966580 0.662375
#
# Coordination Sequence:
#
# PCOD9570642 Si02
#       6
#    16  16  16  16  16  16
#     4   9  19  36  55  75 107 153 191 219 274 345
#     4   8  15  29  50  75 103 136 172 214 267 318
#     4  11  22  33  53  84 114 138 181 243 279 318
#     4  11  19  35  55  73 103 147 178 207 281 341
#     4   9  16  31  53  69  93 139 174 198 259 328
#     4  10  19  31  53  82 105 129 177 232 264 313
#
# _framework density 16.640232999999998
#
# number of rings (size 3 to 8) (size 9 to 14) (size 15 to 20)
#    0.000    2.333    5.000    2.000    0.000    1.333 
#    0.000    4.167    0.000    0.000    0.000    2.333 
#    0.000    0.000    0.000    0.000    0.000    0.000 
#
# Total GULP energy -534665.507762 kJ/mol
# GULP energy per Si atom -5569.432373 kJ/mol
# Density = 1.660236 g / cm^3
# Si number density = 16.640233 Si / 1000 Ang^3
#
#
#
# Elastic Constant Matrix: (Units=GPa)
#
#
# Indices 1 2 3 4 5 6 
#
# 1 73.1027 25.2593 32.5748 0.0000 0.0000 0.0000
# 2 25.2593 73.1024 32.5750 0.0000 0.0000 0.0000
# 3 32.5748 32.5750 109.4704 0.0000 0.0000 0.0000
# 4 0.0000 0.0000 0.0000 27.6400 0.0000 0.0000
# 5 0.0000 0.0000 0.0000 0.0000 27.6412 0.0000
# 6 0.0000 0.0000 0.0000 0.0000 0.0000 9.6717
#
#
#
# Elastic Compliance Matrix: (Units=1/GPa)
#
#
# Indices 1 2 3 4 5 6 
#
# 1 0.016782 -0.004120 -0.003768 0.000000 0.000000 0.000000
# 2 -0.004120 0.016782 -0.003768 0.000000 0.000000 0.000000
# 3 -0.003768 -0.003768 0.011377 0.000000 0.000000 0.000000
# 4 0.000000 0.000000 0.000000 0.036179 0.000000 0.000000
# 5 0.000000 0.000000 0.000000 0.000000 0.036178 0.000000
# 6 0.000000 0.000000 0.000000 0.000000 0.000000 0.103394
#
#
# Mechanical properties :
#
#
# Convention : Reuss Voigt Hill
#
# Bulk Modulus (GPa) = 46.23165 48.49929 47.36547
# Shear Modulus (GPa) = 19.90339 24.00834 21.95586
#
# Velocity S-wave (km/s) = 3.46222 3.80253 3.63636
# Velocity P-wave (km/s) = 6.62012 6.96333 6.79389
#
# Compressibility (1/GPa) = 0.02163020
#
# Stress axis : x y z
#
# Youngs Moduli (GPa) = 59.58824 59.58789 87.89441
#
# Poissons Ratio (x) = 0.24548 0.33117
# Poissons Ratio (y) = 0.24549 0.33118
# Poissons Ratio (z) = 0.22452 0.22452
#
# Static dielectric constant tensor:
#      x y z
#    x 1.564370 0.000000 0.000000 
#    y 0.000000 1.564370 0.000000 
#    z 0.000000 0.000000 1.574710 
# 
# From -- ./inp_files/8188.got.cif
#   From: 2010.05.17/outbox.cif.g08.bks.cpg/sg138_5_cif.got.tgz:8188.got - 2010.05.20 13:08:53.
