data_PCOD9570582
_publ_section_title
;
Structure prediction by ZEFSAII (Michael W. Deem and Ramdas Pophale) SiO2 
 PCOD9570582
Probable space group: P 42/N C M
;
_chemical_formula_sum "Si O2"
_cell_formula_units_Z 88
_cell_length_a 29.993261
_cell_length_b 29.993261
_cell_length_c 5.351909
_cell_angle_alpha 90.000000
_cell_angle_beta 90.000000
_cell_angle_gamma 90.000000
_cell_volume 4814.554352
_symmetry_space_group_name_H-M "P 42/N C M"
_symmetry_group_IT_number 138
_space_group.IT_coordinate_system_code '2'
_symmetry_cell_setting 'tetragonal'
loop_
_space_group_symop_operation_xyz
x,y,z
1/2-y,x,1/2+z
1/2-x,1/2-y,z
y,1/2-x,1/2+z
1/2+x,-y,1/2-z
-x,1/2+y,1/2-z
1/2+y,1/2+x,-z
-y,-x,-z
-x,-y,-z
1/2+y,-x,1/2-z
1/2+x,1/2+y,-z
-y,1/2+x,1/2-z
1/2-x,y,1/2+z
x,1/2-y,1/2+z
1/2-y,1/2-x,z
y,x,z
loop_
_atom_site_type_symbol
_atom_site_label
_atom_site_fract_x
_atom_site_fract_y
_atom_site_fract_z
Si Si1 0.729162 0.389986 0.506014
Si Si2 0.263032 0.507874 0.917107
Si Si3 0.960600 0.097846 0.227607
Si Si4 0.123819 0.623819 0.000000
Si Si5 0.861882 0.997523 0.270156
Si Si6 0.071333 0.071333 0.790340
Si Si7 0.969862 0.530139 0.210413
O O1 0.744079 0.370144 0.771692
O O2 0.745438 0.441680 0.532396
O O3 0.676317 0.385324 0.462772
O O4 0.267041 0.487617 0.194983
O O5 0.310666 0.505432 0.785585
O O6 0.908893 0.107561 0.278343
O O7 0.984080 0.124244 0.458262
O O8 0.979771 0.047553 0.255304
O O9 0.976834 0.114541 0.959955
O O10 0.878726 0.946478 0.246625
O O11 0.045698 0.045698 0.564020
O O12 0.055969 0.055969 0.066428
#
# Coordination Sequence:
#
# PCOD9570582 Si02
#       7
#    16  16  16   8  16   8   8
#     4  10  22  38  54  75  97 118 152 201 250 297
#     4  10  18  30  48  69  97 126 158 202 245 283
#     4  10  20  31  50  74  99 130 161 196 239 286
#     4  12  24  37  60  79  96 126 164 204 254 306
#     4  10  18  34  51  73 103 131 166 201 239 288
#     4   8  16  28  50  71  96 136 166 193 230 280
#     4   8  16  31  44  68 104 130 156 192 230 274
#
# _framework density 18.277913000000002
#
# number of rings (size 3 to 8) (size 9 to 14) (size 15 to 20)
#    0.000    2.182    0.000    5.455    0.000    3.273 
#    0.000    0.000    0.000    8.182    0.000    0.000 
#    0.000    0.000    0.000    0.000    0.000    2.727 
#
# Total GULP energy -490320.785545 kJ/mol
# GULP energy per Si atom -5571.827108 kJ/mol
# Density = 1.823631 g / cm^3
# Si number density = 18.277913 Si / 1000 Ang^3
#
#
#
# Elastic Constant Matrix: (Units=GPa)
#
#
# Indices 1 2 3 4 5 6 
#
# 1 48.0645 48.4041 -6.3751 0.0000 0.0000 0.0000
# 2 48.4041 48.0645 -6.3751 0.0000 0.0000 0.0000
# 3 -6.3751 -6.3751 106.1974 0.0000 0.0000 0.0000
# 4 0.0000 0.0000 0.0000 11.9644 0.0000 0.0000
# 5 0.0000 0.0000 0.0000 0.0000 11.9644 0.0000
# 6 0.0000 0.0000 0.0000 0.0000 0.0000 19.7388
#
#
#
# Elastic Compliance Matrix: (Units=1/GPa)
#
#
# Indices 1 2 3 4 5 6 
#
# 1 -1.466809 1.477258 0.000627 0.000000 0.000000 0.000000
# 2 1.477258 -1.466809 0.000627 0.000000 0.000000 0.000000
# 3 0.000627 0.000627 0.009492 0.000000 0.000000 0.000000
# 4 0.000000 0.000000 0.000000 0.083582 0.000000 0.000000
# 5 0.000000 0.000000 0.000000 0.000000 0.083582 0.000000
# 6 0.000000 0.000000 0.000000 0.000000 0.000000 0.050662
#
#
# Mechanical properties :
#
#
# Convention : Reuss Voigt Hill
#
# Bulk Modulus (GPa) = 30.39631 30.40379 30.40005
# Shear Modulus (GPa) = -0.88459 19.84500 9.48021
#
# Velocity S-wave (km/s) = -0.69643 3.29863 2.27990
# Velocity P-wave (km/s) = 4.00244 5.58374 4.85786
#
# Compressibility (1/GPa) = 0.03289873
#
# Stress axis : x y z
#
# Youngs Moduli (GPa) = -0.68175 -0.68175 105.35480
#
# Poissons Ratio (x) = 1.00712 -0.06609
# Poissons Ratio (y) = 1.00712 -0.06609
# Poissons Ratio (z) = 0.00043 0.00043
#
# Static dielectric constant tensor:
#      x y z
#    x 1.692450 0.000000 0.000000 
#    y 0.000000 1.692450 0.000000 
#    z 0.000000 0.000000 1.786480 
# 
# From -- ./inp_files/529.got.cif
#   From: 2010.05.17/outbox.cif.g08.bks.cpg/sg138_1_cif.got.tgz:529.got - 2010.05.20 13:08:53.
