data_PCOD9570681
_publ_section_title
;
Structure prediction by ZEFSAII (Michael W. Deem and Ramdas Pophale) SiO2 
 PCOD9570681
Probable space group: P 42/N C M
;
_chemical_formula_sum "Si O2"
_cell_formula_units_Z 108
_cell_length_a 14.950024
_cell_length_b 14.950024
_cell_length_c 23.308530
_cell_angle_alpha 90.000000
_cell_angle_beta 90.000000
_cell_angle_gamma 90.000000
_cell_volume 5209.531453
_symmetry_space_group_name_H-M "P 42/N C M"
_symmetry_group_IT_number 138
_space_group.IT_coordinate_system_code '2'
_symmetry_cell_setting 'tetragonal'
loop_
_space_group_symop_operation_xyz
x,y,z
1/2-y,x,1/2+z
1/2-x,1/2-y,z
y,1/2-x,1/2+z
1/2+x,-y,1/2-z
-x,1/2+y,1/2-z
1/2+y,1/2+x,-z
-y,-x,-z
-x,-y,-z
1/2+y,-x,1/2-z
1/2+x,1/2+y,-z
-y,1/2+x,1/2-z
1/2-x,y,1/2+z
x,1/2-y,1/2+z
1/2-y,1/2-x,z
y,x,z
loop_
_atom_site_type_symbol
_atom_site_label
_atom_site_fract_x
_atom_site_fract_y
_atom_site_fract_z
Si Si1 0.250000 0.250000 0.206756
Si Si2 0.958871 0.678654 0.461501
Si Si3 0.743973 0.948039 0.335473
Si Si4 0.568537 0.419706 0.193818
Si Si5 0.405325 0.756520 0.614744
Si Si6 0.893636 0.746914 0.073593
Si Si7 0.416871 0.938834 0.171099
Si Si8 0.838425 0.338425 0.500000
O O1 0.250650 0.140451 0.201597
O O2 0.918708 0.581293 0.475024
O O3 0.930652 0.705684 0.398535
O O4 0.910650 0.744917 0.505723
O O5 0.064577 0.674733 0.470670
O O6 0.671057 0.011991 0.307248
O O7 0.837890 0.995138 0.346709
O O8 0.502987 0.502987 0.173930
O O9 0.657259 0.398812 0.156522
O O10 0.590729 0.436183 0.260016
O O11 0.509649 0.758489 0.598876
O O12 0.395653 0.658915 0.644140
O O13 0.347229 0.771815 0.555840
O O14 0.844051 0.655950 0.088919
O O15 0.827037 0.827037 0.090644
O O16 0.512202 0.987799 0.156987
#
# Coordination Sequence:
#
# PCOD9570681 Si02
#       8
#     4  16  16  16  16  16  16   8
#     4  12  24  40  72 102 134 162 232 294 346 388
#     4  10  19  33  60  94 129 168 223 279 336 396
#     4  12  23  42  68 100 129 176 223 291 344 400
#     4  11  23  43  71 100 135 177 232 289 341 403
#     4  11  22  42  65  97 135 181 231 279 339 423
#     4   9  19  33  58  93 135 179 220 271 337 400
#     4  11  26  44  67  96 139 183 230 285 354 413
#     4  10  21  38  63  96 132 181 225 284 338 410
#
# _framework density 20.731231000000001
#
# number of rings (size 3 to 8) (size 9 to 14) (size 15 to 20)
#    0.000    1.333    3.704    2.000    1.037    1.778 
#    0.000    5.185    0.000    4.444    0.000    0.000 
#    0.000    0.000    0.000    0.000    0.000    0.000 
#
# Total GULP energy -601224.195402 kJ/mol
# GULP energy per Si atom -5566.890698 kJ/mol
# Density = 2.068405 g / cm^3
# Si number density = 20.731231 Si / 1000 Ang^3
#
#
#
# Elastic Constant Matrix: (Units=GPa)
#
#
# Indices 1 2 3 4 5 6 
#
# 1 71.9633 68.7949 19.9133 0.0000 0.0000 0.0000
# 2 68.7949 71.9633 19.9133 0.0000 0.0000 0.0000
# 3 19.9133 19.9133 53.9253 0.0000 0.0000 0.0000
# 4 0.0000 0.0000 0.0000 6.7655 0.0000 0.0000
# 5 0.0000 0.0000 0.0000 0.0000 6.7655 0.0000
# 6 0.0000 0.0000 0.0000 0.0000 0.0000 21.3602
#
#
#
# Elastic Compliance Matrix: (Units=1/GPa)
#
#
# Indices 1 2 3 4 5 6 
#
# 1 0.161774 -0.153841 -0.002930 0.000000 0.000000 0.000000
# 2 -0.153841 0.161774 -0.002930 0.000000 0.000000 0.000000
# 3 -0.002930 -0.002930 0.020708 0.000000 0.000000 0.000000
# 4 0.000000 0.000000 0.000000 0.147808 0.000000 0.000000
# 5 0.000000 0.000000 0.000000 0.000000 0.147808 0.000000
# 6 0.000000 0.000000 0.000000 0.000000 0.000000 0.046816
#
#
# Mechanical properties :
#
#
# Convention : Reuss Voigt Hill
#
# Bulk Modulus (GPa) = 40.23156 46.12165 43.17661
# Shear Modulus (GPa) = 4.92915 12.92696 8.92805
#
# Velocity S-wave (km/s) = 1.54363 2.49981 2.07748
# Velocity P-wave (km/s) = 4.75662 5.53424 5.16010
#
# Compressibility (1/GPa) = 0.02485611
#
# Stress axis : x y z
#
# Youngs Moduli (GPa) = 6.18145 6.18145 48.29102
#
# Poissons Ratio (x) = 0.95096 0.14147
# Poissons Ratio (y) = 0.95096 0.14147
# Poissons Ratio (z) = 0.01811 0.01811
#
# Static dielectric constant tensor:
#      x y z
#    x 1.739800 0.000000 0.000000 
#    y 0.000000 1.739800 0.000000 
#    z 0.000000 0.000000 0.965540 
# 
# From -- ./inp_files/7107.got.cif
#   From: 2010.05.17/outbox.cif.g08.bks.cpg/sg138_4_cif.got.tgz:7107.got - 2010.05.20 13:08:53.
