data_PCOD9570196
_publ_section_title
;
Structure prediction by ZEFSAII (Michael W. Deem and Ramdas Pophale) SiO2 
 PCOD9570196
Probable space group: P 42/N M C
;
_chemical_formula_sum "Si O2"
_cell_formula_units_Z 88
_cell_length_a 16.887791
_cell_length_b 16.887791
_cell_length_c 13.719432
_cell_angle_alpha 90.000000
_cell_angle_beta 90.000000
_cell_angle_gamma 90.000000
_cell_volume 3912.747500
_symmetry_space_group_name_H-M "P 42/N M C"
_symmetry_group_IT_number 137
_space_group.IT_coordinate_system_code '2'
_symmetry_cell_setting 'tetragonal'
loop_
_space_group_symop_operation_xyz
x,y,z
1/2-y,x,1/2+z
1/2-x,1/2-y,z
y,1/2-x,1/2+z
1/2+x,-y,-z
-x,1/2+y,-z
1/2+y,1/2+x,1/2-z
-y,-x,1/2-z
-x,-y,-z
1/2+y,-x,1/2-z
1/2+x,1/2+y,-z
-y,1/2+x,1/2-z
1/2-x,y,z
x,1/2-y,z
1/2-y,1/2-x,1/2+z
y,x,1/2+z
loop_
_atom_site_type_symbol
_atom_site_label
_atom_site_fract_x
_atom_site_fract_y
_atom_site_fract_z
Si Si1 0.750000 0.656912 0.092036
Si Si2 0.840515 0.750000 0.359808
Si Si3 0.589554 0.931455 0.825076
Si Si4 0.929198 0.654605 0.132223
Si Si5 0.339914 0.839914 0.250000
Si Si6 0.656559 0.034974 0.436856
Si Si7 0.157062 0.937820 0.050945
O O1 0.750000 0.750000 0.116821
O O2 0.836971 0.627490 0.123894
O O3 0.750000 0.652252 0.975804
O O4 0.750000 0.750000 0.332307
O O5 0.877215 0.831702 0.324776
O O6 0.600776 0.968199 0.717133
O O7 0.510914 0.882731 0.846422
O O8 0.605540 0.986920 0.917949
O O9 0.932814 0.750000 0.153282
O O10 0.976197 0.647319 0.030761
O O11 0.352137 0.750000 0.216237
O O12 0.389499 0.847693 0.347772
O O13 0.750000 0.047506 0.422383
O O14 0.611046 0.114838 0.466187
O O15 0.250000 0.955910 0.032783
#
# Coordination Sequence:
#
# PCOD9570196 Si02
#       7
#     8   8  16  16   8  16  16
#     4   9  18  32  50  77 111 154 197 229 277 343
#     4  11  20  34  54  79 116 158 197 233 284 351
#     4  12  22  36  56  85 118 151 191 241 298 351
#     4  10  20  33  54  83 116 155 193 236 288 347
#     4   9  18  34  60  88 116 152 196 239 282 344
#     4  11  24  40  58  84 120 156 196 244 290 346
#     4  11  22  38  58  83 115 154 194 237 294 351
#
# _framework density 22.490589
#
# number of rings (size 3 to 8) (size 9 to 14) (size 15 to 20)
#    0.000    1.364    3.636    2.727    2.545    4.000 
#    0.000    0.000    0.000    0.000    0.000    0.000 
#    0.000    1.455    0.000   10.000    0.000    1.455 
#
# Total GULP energy -491743.001987 kJ/mol
# GULP energy per Si atom -5587.988659 kJ/mol
# Density = 2.243940 g / cm^3
# Si number density = 22.490589 Si / 1000 Ang^3
#
#
#
# Elastic Constant Matrix: (Units=GPa)
#
#
# Indices 1 2 3 4 5 6 
#
# 1 61.9208 -3.0835 -10.5343 0.0000 0.0000 0.0000
# 2 -3.0835 61.9208 -10.5343 0.0000 0.0000 0.0000
# 3 -10.5343 -10.5343 58.5116 0.0000 0.0000 0.0000
# 4 0.0000 0.0000 0.0000 23.2149 0.0000 0.0000
# 5 0.0000 0.0000 0.0000 0.0000 23.2149 0.0000
# 6 0.0000 0.0000 0.0000 0.0000 0.0000 29.4419
#
#
#
# Elastic Compliance Matrix: (Units=1/GPa)
#
#
# Indices 1 2 3 4 5 6 
#
# 1 0.016775 0.001392 0.003271 0.000000 0.000000 0.000000
# 2 0.001392 0.016775 0.003271 0.000000 0.000000 0.000000
# 3 0.003271 0.003271 0.018268 0.000000 0.000000 0.000000
# 4 0.000000 0.000000 0.000000 0.043076 0.000000 0.000000
# 5 0.000000 0.000000 0.000000 0.000000 0.043076 0.000000
# 6 0.000000 0.000000 0.000000 0.000000 0.000000 0.033965
#
#
# Mechanical properties :
#
#
# Convention : Reuss Voigt Hill
#
# Bulk Modulus (GPa) = 14.77409 14.89432 14.83421
# Shear Modulus (GPa) = 27.99063 28.94136 28.46599
#
# Velocity S-wave (km/s) = 3.53164 3.59112 3.56151
# Velocity P-wave (km/s) = 4.81802 4.88177 4.85000
#
# Compressibility (1/GPa) = 0.06768605
#
# Stress axis : x y z
#
# Youngs Moduli (GPa) = 59.61107 59.61107 54.73939
#
# Poissons Ratio (x) = -0.08297 -0.17904
# Poissons Ratio (y) = -0.08297 -0.17904
# Poissons Ratio (z) = -0.19498 -0.19498
#
# Static dielectric constant tensor:
#      x y z
#    x 3.564920 0.000000 0.000000 
#    y 0.000000 3.564920 0.000000 
#    z 0.000000 0.000000 1.867380 
# 
# From -- ./inp_files/5151.got.cif
#   From: 2010.05.17/outbox.cif.g08.bks.cpg/sg137_3_cif.got.tgz:5151.got - 2010.05.20 13:01:12.
