data_PCOD9570707
_publ_section_title
;
Structure prediction by ZEFSAII (Michael W. Deem and Ramdas Pophale) SiO2 
 PCOD9570707
Probable space group: P 42/N C M
;
_chemical_formula_sum "Si O2"
_cell_formula_units_Z 92
_cell_length_a 14.872561
_cell_length_b 14.872561
_cell_length_c 18.314178
_cell_angle_alpha 90.000000
_cell_angle_beta 90.000000
_cell_angle_gamma 90.000000
_cell_volume 4050.969269
_symmetry_space_group_name_H-M "P 42/N C M"
_symmetry_group_IT_number 138
_space_group.IT_coordinate_system_code '2'
_symmetry_cell_setting 'tetragonal'
loop_
_space_group_symop_operation_xyz
x,y,z
1/2-y,x,1/2+z
1/2-x,1/2-y,z
y,1/2-x,1/2+z
1/2+x,-y,1/2-z
-x,1/2+y,1/2-z
1/2+y,1/2+x,-z
-y,-x,-z
-x,-y,-z
1/2+y,-x,1/2-z
1/2+x,1/2+y,-z
-y,1/2+x,1/2-z
1/2-x,y,1/2+z
x,1/2-y,1/2+z
1/2-y,1/2-x,z
y,x,z
loop_
_atom_site_type_symbol
_atom_site_label
_atom_site_fract_x
_atom_site_fract_y
_atom_site_fract_z
Si Si1 0.357513 0.652694 0.086611
Si Si2 0.419255 0.935361 0.276429
Si Si3 0.361281 0.851805 0.912030
Si Si4 0.474607 0.232810 0.747874
Si Si5 0.505879 0.994122 0.087034
Si Si6 0.250000 0.250000 0.996579
Si Si7 0.849060 0.849060 0.633571
Si Si8 0.177530 0.177530 0.141407
O O1 0.421274 0.593979 0.136939
O O2 0.377880 0.757535 0.105271
O O3 0.253468 0.632348 0.107192
O O4 0.363562 0.636439 0.000000
O O5 0.443812 0.837934 0.245251
O O6 0.504626 0.995375 0.259887
O O7 0.330770 0.984638 0.249353
O O8 0.446903 0.912213 0.888832
O O9 0.359200 0.859200 0.000000
O O10 0.403184 0.219388 0.813951
O O11 0.418031 0.205935 0.675238
O O12 0.579049 0.920952 0.107690
O O13 0.500000 0.000000 0.000000
O O14 0.190494 0.190494 0.054005
O O15 0.307978 0.192023 0.939827
O O16 0.250000 0.250000 0.171281
#
# Coordination Sequence:
#
# PCOD9570707 Si02
#       8
#    16  16  16  16   8   4   8   8
#     4   9  19  39  65  96 144 189 233 303 375 450
#     4  12  26  47  72 108 137 202 258 300 383 456
#     4   8  16  34  58  92 140 190 228 291 388 435
#     4  11  26  49  77 104 159 198 251 315 377 464
#     4  10  19  35  58 102 143 174 240 313 365 440
#     4  10  26  46  82 110 138 206 258 300 386 448
#     4  11  24  48  69 113 147 191 254 310 365 460
#     4   9  21  52  75 107 147 197 249 314 371 435
#
# _framework density 22.710614
#
# number of rings (size 3 to 8) (size 9 to 14) (size 15 to 20)
#    0.261    1.739    1.739    2.609    3.652    4.870 
#   15.652    0.000    0.000    0.000    0.000    0.000 
#    0.000    0.000    0.000    0.000    0.000    0.000 
#
# Total GULP energy -513959.540633 kJ/mol
# GULP energy per Si atom -5586.516746 kJ/mol
# Density = 2.265892 g / cm^3
# Si number density = 22.710614 Si / 1000 Ang^3
#
#
#
# Elastic Constant Matrix: (Units=GPa)
#
#
# Indices 1 2 3 4 5 6 
#
# 1 88.5528 40.7189 48.5674 0.0000 0.0000 0.0000
# 2 40.7189 88.5529 48.5674 0.0000 0.0000 0.0000
# 3 48.5674 48.5674 157.4916 0.0000 0.0000 0.0000
# 4 0.0000 0.0000 0.0000 35.2278 0.0000 0.0000
# 5 0.0000 0.0000 0.0000 0.0000 35.2277 0.0000
# 6 0.0000 0.0000 0.0000 0.0000 0.0000 48.1255
#
#
#
# Elastic Compliance Matrix: (Units=1/GPa)
#
#
# Indices 1 2 3 4 5 6 
#
# 1 0.015487 -0.005418 -0.003105 0.000000 0.000000 0.000000
# 2 -0.005418 0.015487 -0.003105 0.000000 0.000000 0.000000
# 3 -0.003105 -0.003105 0.008265 0.000000 0.000000 0.000000
# 4 0.000000 0.000000 0.000000 0.028387 0.000000 0.000000
# 5 0.000000 0.000000 0.000000 0.000000 0.028387 0.000000
# 6 0.000000 0.000000 0.000000 0.000000 0.000000 0.020779
#
#
# Mechanical properties :
#
#
# Convention : Reuss Voigt Hill
#
# Bulk Modulus (GPa) = 62.57019 67.81163 65.19091
# Shear Modulus (GPa) = 34.39361 36.83242 35.61302
#
# Velocity S-wave (km/s) = 3.89579 4.03155 3.96425
# Velocity P-wave (km/s) = 6.91716 7.18296 7.05131
#
# Compressibility (1/GPa) = 0.01598205
#
# Stress axis : x y z
#
# Youngs Moduli (GPa) = 64.56937 64.56947 120.99802
#
# Poissons Ratio (x) = 0.34987 0.37570
# Poissons Ratio (y) = 0.34987 0.37570
# Poissons Ratio (z) = 0.20049 0.20049
#
# Static dielectric constant tensor:
#      x y z
#    x 1.826680 0.000000 0.000000 
#    y 0.000000 1.826680 0.000000 
#    z 0.000000 0.000000 1.885250 
# 
# From -- ./inp_files/6333.got.cif
#   From: 2010.05.17/outbox.cif.g08.bks.cpg/sg138_4_cif.got.tgz:6333.got - 2010.05.20 13:08:53.
