data_PCOD9570946
_publ_section_title
;
Structure prediction by ZEFSAII (Michael W. Deem and Ramdas Pophale) SiO2 
 PCOD9570946
Probable space group: P 42/N C M
;
_chemical_formula_sum "Si O2"
_cell_formula_units_Z 88
_cell_length_a 11.447528
_cell_length_b 11.447528
_cell_length_c 33.110962
_cell_angle_alpha 90.000000
_cell_angle_beta 90.000000
_cell_angle_gamma 90.000000
_cell_volume 4339.055726
_symmetry_space_group_name_H-M "P 42/N C M"
_symmetry_group_IT_number 138
_space_group.IT_coordinate_system_code '2'
_symmetry_cell_setting 'tetragonal'
loop_
_space_group_symop_operation_xyz
x,y,z
1/2-y,x,1/2+z
1/2-x,1/2-y,z
y,1/2-x,1/2+z
1/2+x,-y,1/2-z
-x,1/2+y,1/2-z
1/2+y,1/2+x,-z
-y,-x,-z
-x,-y,-z
1/2+y,-x,1/2-z
1/2+x,1/2+y,-z
-y,1/2+x,1/2-z
1/2-x,y,1/2+z
x,1/2-y,1/2+z
1/2-y,1/2-x,z
y,x,z
loop_
_atom_site_type_symbol
_atom_site_label
_atom_site_fract_x
_atom_site_fract_y
_atom_site_fract_z
Si Si1 0.650363 0.849638 0.686254
Si Si2 0.568997 0.242306 0.017031
Si Si3 0.506792 0.185423 0.768737
Si Si4 0.947294 0.552707 0.606325
Si Si5 0.843850 0.843850 0.024801
Si Si6 0.221080 0.887724 0.110103
Si Si7 0.680807 0.481520 0.307955
O O1 0.750000 0.750000 0.689365
O O2 0.536085 0.802338 0.709046
O O3 0.622876 0.877125 0.640338
O O4 0.575201 0.239505 0.065306
O O5 0.621719 0.121719 0.000000
O O6 0.657277 0.342724 0.000000
O O7 0.442174 0.277735 0.001240
O O8 0.412689 0.087312 0.779271
O O9 0.498910 0.209444 0.721277
O O10 0.623734 0.133500 0.787278
O O11 0.907088 0.592913 0.562092
O O12 0.916798 0.416574 0.611908
O O13 0.750000 0.750000 0.039805
O O14 0.250000 0.750000 0.114284
O O15 0.285018 0.954845 0.146335
O O16 0.590381 0.590381 0.305470
#
# Coordination Sequence:
#
# PCOD9570946 Si02
#       7
#     8  16  16   8   8  16  16
#     4  10  21  41  61  83 126 171 210 262 332 391
#     4  11  21  45  72  95 134 188 231 282 348 412
#     4  10  23  42  63  87 124 175 214 267 338 398
#     4  12  24  40  67 103 134 176 230 283 342 409
#     4  12  25  42  70 109 143 182 235 290 354 431
#     4  12  25  42  69 101 132 176 231 285 341 413
#     4  11  26  42  63  97 133 168 222 283 331 407
#
# _framework density 20.280911
#
# number of rings (size 3 to 8) (size 9 to 14) (size 15 to 20)
#    0.000    0.909    4.545    2.182    6.364    1.091 
#    0.000    4.545    0.000    0.000    0.000    0.000 
#    0.000    0.000    0.000    0.000    0.000    0.000 
#
# Total GULP energy -491825.243933 kJ/mol
# GULP energy per Si atom -5588.923227 kJ/mol
# Density = 2.023475 g / cm^3
# Si number density = 20.280911 Si / 1000 Ang^3
#
#
#
# Elastic Constant Matrix: (Units=GPa)
#
#
# Indices 1 2 3 4 5 6 
#
# 1 48.5454 56.5823 6.7781 0.0000 0.0000 0.0000
# 2 56.5823 48.5452 6.7783 0.0000 0.0000 0.0000
# 3 6.7781 6.7783 126.8034 0.0000 0.0000 0.0000
# 4 0.0000 0.0000 0.0000 6.1947 0.0000 0.0000
# 5 0.0000 0.0000 0.0000 0.0000 6.1930 0.0000
# 6 0.0000 0.0000 0.0000 0.0000 0.0000 24.4425
#
#
#
# Elastic Compliance Matrix: (Units=1/GPa)
#
#
# Indices 1 2 3 4 5 6 
#
# 1 -0.057423 0.067001 -0.000512 0.000000 0.000000 0.000000
# 2 0.067001 -0.057423 -0.000512 0.000000 0.000000 0.000000
# 3 -0.000512 -0.000512 0.007941 0.000000 0.000000 0.000000
# 4 0.000000 0.000000 0.000000 0.161429 0.000000 0.000000
# 5 0.000000 0.000000 0.000000 0.000000 0.161472 0.000000
# 6 0.000000 0.000000 0.000000 0.000000 0.000000 0.040912
#
#
# Mechanical properties :
#
#
# Convention : Reuss Voigt Hill
#
# Bulk Modulus (GPa) = 39.92095 40.46349 40.19222
# Shear Modulus (GPa) = 37.50816 17.61640 27.56228
#
# Velocity S-wave (km/s) = 4.30517 2.95043 3.69050
# Velocity P-wave (km/s) = 6.66628 5.62153 6.16607
#
# Compressibility (1/GPa) = 0.02504951
#
# Stress axis : x y z
#
# Youngs Moduli (GPa) = -17.41470 -17.41461 125.92938
#
# Poissons Ratio (x) = 1.16680 0.06449
# Poissons Ratio (y) = 1.16681 0.06446
# Poissons Ratio (z) = -0.00892 -0.00891
#
# Static dielectric constant tensor:
#      x y z
#    x 1.781390 0.000000 0.000000 
#    y 0.000000 1.781390 0.000000 
#    z 0.000000 0.000000 1.690360 
# 
# From -- ./inp_files/8137.got.cif
#   From: 2010.05.17/outbox.cif.g08.bks.cpg/sg138_5_cif.got.tgz:8137.got - 2010.05.20 13:08:53.
