data_PCOD9570597
_publ_section_title
;
Structure prediction by ZEFSAII (Michael W. Deem and Ramdas Pophale) SiO2 
 PCOD9570597
Probable space group: P 42/N C M
;
_chemical_formula_sum "Si O2"
_cell_formula_units_Z 108
_cell_length_a 14.753687
_cell_length_b 14.753687
_cell_length_c 28.425449
_cell_angle_alpha 90.000000
_cell_angle_beta 90.000000
_cell_angle_gamma 90.000000
_cell_volume 6187.403871
_symmetry_space_group_name_H-M "P 42/N C M"
_symmetry_group_IT_number 138
_space_group.IT_coordinate_system_code '2'
_symmetry_cell_setting 'tetragonal'
loop_
_space_group_symop_operation_xyz
x,y,z
1/2-y,x,1/2+z
1/2-x,1/2-y,z
y,1/2-x,1/2+z
1/2+x,-y,1/2-z
-x,1/2+y,1/2-z
1/2+y,1/2+x,-z
-y,-x,-z
-x,-y,-z
1/2+y,-x,1/2-z
1/2+x,1/2+y,-z
-y,1/2+x,1/2-z
1/2-x,y,1/2+z
x,1/2-y,1/2+z
1/2-y,1/2-x,z
y,x,z
loop_
_atom_site_type_symbol
_atom_site_label
_atom_site_fract_x
_atom_site_fract_y
_atom_site_fract_z
Si Si1 0.971593 0.739074 0.649109
Si Si2 0.074094 0.575949 0.700133
Si Si3 0.993576 0.655267 0.449573
Si Si4 0.749829 0.433974 0.365257
Si Si5 0.750000 0.750000 0.653079
Si Si6 0.416464 0.930853 0.809142
Si Si7 0.750000 0.250000 0.923763
Si Si8 0.059722 0.813313 0.050710
O O1 0.863475 0.749353 0.652916
O O2 0.010624 0.655504 0.679740
O O3 0.024256 0.827834 0.667685
O O4 0.002592 0.719313 0.595350
O O5 0.164071 0.568469 0.669094
O O6 0.099459 0.592674 0.754402
O O7 0.016550 0.483451 0.697147
O O8 0.997901 0.727633 0.407815
O O9 0.081020 0.588435 0.442682
O O10 0.008441 0.695672 0.501441
O O11 0.904528 0.595473 0.447940
O O12 0.658355 0.447376 0.336792
O O13 0.742785 0.337060 0.390728
O O14 0.495632 0.004368 0.810624
O O15 0.843791 0.238312 0.951561
#
# Coordination Sequence:
#
# PCOD9570597 Si02
#       8
#    16  16  16  16   4  16   8  16
#     4  12  22  42  62  93 126 167 203 262 318 376
#     4  11  22  37  65  89 121 162 209 264 314 376
#     4  10  21  34  57  93 117 158 203 266 315 374
#     4  11  20  36  58  87 120 156 202 254 316 371
#     4  12  28  36  68  90 130 170 212 252 312 388
#     4  11  24  41  59  85 125 167 212 260 316 381
#     4  10  18  31  53  90 116 152 183 242 307 374
#     4  10  20  33  60  86 129 152 197 251 321 374
#
# _framework density 17.454816999999998
#
# number of rings (size 3 to 8) (size 9 to 14) (size 15 to 20)
#    0.000    1.185    5.926    2.222    2.074    4.741 
#    0.000    1.481    1.630    2.667    0.000    0.000 
#    0.000    0.000    0.000    0.000    0.000    0.000 
#
# Total GULP energy -601936.389341 kJ/mol
# GULP energy per Si atom -5573.485086 kJ/mol
# Density = 1.741509 g / cm^3
# Si number density = 17.454817 Si / 1000 Ang^3
#
#
#
# Elastic Constant Matrix: (Units=GPa)
#
#
# Indices 1 2 3 4 5 6 
#
# 1 89.2384 30.3626 57.9047 0.0000 0.0000 0.0000
# 2 30.3626 89.2384 57.9047 0.0000 0.0000 0.0000
# 3 57.9047 57.9047 149.1847 0.0000 0.0000 0.0000
# 4 0.0000 0.0000 0.0000 40.2323 0.0000 0.0000
# 5 0.0000 0.0000 0.0000 0.0000 40.2323 0.0000
# 6 0.0000 0.0000 0.0000 0.0000 0.0000 22.4547
#
#
#
# Elastic Compliance Matrix: (Units=1/GPa)
#
#
# Indices 1 2 3 4 5 6 
#
# 1 0.015190 -0.001795 -0.005199 0.000000 0.000000 0.000000
# 2 -0.001795 0.015190 -0.005199 0.000000 0.000000 0.000000
# 3 -0.005199 -0.005199 0.010739 0.000000 0.000000 0.000000
# 4 0.000000 0.000000 0.000000 0.024856 0.000000 0.000000
# 5 0.000000 0.000000 0.000000 0.000000 0.024856 0.000000
# 6 0.000000 0.000000 0.000000 0.000000 0.000000 0.044534
#
#
# Mechanical properties :
#
#
# Convention : Reuss Voigt Hill
#
# Bulk Modulus (GPa) = 59.76194 68.88950 64.32572
# Shear Modulus (GPa) = 30.24256 32.68318 31.46287
#
# Velocity S-wave (km/s) = 4.16699 4.33187 4.25023
# Velocity P-wave (km/s) = 7.58051 8.03574 7.81144
#
# Compressibility (1/GPa) = 0.01673306
#
# Stress axis : x y z
#
# Youngs Moduli (GPa) = 65.83137 65.83137 93.11569
#
# Poissons Ratio (x) = 0.11814 0.48415
# Poissons Ratio (y) = 0.11814 0.48415
# Poissons Ratio (z) = 0.34229 0.34229
#
# Static dielectric constant tensor:
#      x y z
#    x 1.581690 0.000000 0.000000 
#    y 0.000000 1.581690 0.000000 
#    z 0.000000 0.000000 1.612760 
# 
# From -- ./inp_files/7642.got.cif
#   From: 2010.05.17/outbox.cif.g08.bks.cpg/sg138_4_cif.got.tgz:7642.got - 2010.05.20 13:08:53.
