data_PCOD9570507
_publ_section_title
;
Structure prediction by ZEFSAII (Michael W. Deem and Ramdas Pophale) SiO2 
 PCOD9570507
Probable space group: P 42/N M C
;
_chemical_formula_sum "Si O2"
_cell_formula_units_Z 64
_cell_length_a 18.813977
_cell_length_b 18.813977
_cell_length_c 9.348350
_cell_angle_alpha 90.000000
_cell_angle_beta 90.000000
_cell_angle_gamma 90.000000
_cell_volume 3308.995537
_symmetry_space_group_name_H-M "P 42/N M C"
_symmetry_group_IT_number 137
_space_group.IT_coordinate_system_code '2'
_symmetry_cell_setting 'tetragonal'
loop_
_space_group_symop_operation_xyz
x,y,z
1/2-y,x,1/2+z
1/2-x,1/2-y,z
y,1/2-x,1/2+z
1/2+x,-y,-z
-x,1/2+y,-z
1/2+y,1/2+x,1/2-z
-y,-x,1/2-z
-x,-y,-z
1/2+y,-x,1/2-z
1/2+x,1/2+y,-z
-y,1/2+x,1/2-z
1/2-x,y,z
x,1/2-y,z
1/2-y,1/2-x,1/2+z
y,x,1/2+z
loop_
_atom_site_type_symbol
_atom_site_label
_atom_site_fract_x
_atom_site_fract_y
_atom_site_fract_z
Si Si1 0.829604 0.325972 0.440335
Si Si2 0.046474 0.430508 0.445427
Si Si3 0.334828 0.471033 0.226247
Si Si4 0.361305 0.638696 0.250000
Si Si5 0.580698 0.080698 0.250000
O O1 0.750000 0.324767 0.383872
O O2 0.866064 0.250000 0.409457
O O3 0.826313 0.333330 0.608209
O O4 0.869347 0.393620 0.378289
O O5 0.051330 0.375760 0.578406
O O6 0.121730 0.445361 0.367854
O O7 0.000000 0.500000 0.500000
O O8 0.997220 0.406150 0.311675
O O9 0.250000 0.454430 0.225618
O O10 0.345452 0.555765 0.231667
#
# Coordination Sequence:
#
# PCOD9570507 Si02
#       5
#    16  16  16   8   8
#     4  11  23  36  52  88 143 189 221 262 329 418
#     4  12  22  44  69  99 135 178 224 291 342 399
#     4  12  25  43  72 105 135 177 229 285 352 413
#     4  12  21  37  62  96 134 172 218 265 329 414
#     4  12  21  35  62  86 124 181 226 274 325 382
#
# _framework density 19.341215999999999
#
# number of rings (size 3 to 8) (size 9 to 14) (size 15 to 20)
#    0.000    0.250    7.500    3.000    0.000    3.000 
#    0.000    2.500    0.000    2.250    0.000    0.000 
#    0.000    0.000    0.000    0.000    0.000    0.000 
#
# Total GULP energy -356886.932428 kJ/mol
# GULP energy per Si atom -5576.358319 kJ/mol
# Density = 1.929719 g / cm^3
# Si number density = 19.341216 Si / 1000 Ang^3
#
#
#
# Elastic Constant Matrix: (Units=GPa)
#
#
# Indices 1 2 3 4 5 6 
#
# 1 113.8058 46.6011 51.7692 0.0000 0.0000 0.0000
# 2 46.6011 113.8050 51.7694 0.0000 0.0000 0.0000
# 3 51.7692 51.7694 158.7546 0.0000 0.0000 0.0000
# 4 0.0000 0.0000 0.0000 61.8990 0.0000 0.0000
# 5 0.0000 0.0000 0.0000 0.0000 61.9084 0.0000
# 6 0.0000 0.0000 0.0000 0.0000 0.0000 49.7848
#
#
#
# Elastic Compliance Matrix: (Units=1/GPa)
#
#
# Indices 1 2 3 4 5 6 
#
# 1 0.011388 -0.003492 -0.002575 0.000000 0.000000 0.000000
# 2 -0.003492 0.011388 -0.002575 0.000000 0.000000 0.000000
# 3 -0.002575 -0.002575 0.007978 0.000000 0.000000 0.000000
# 4 0.000000 0.000000 0.000000 0.016155 0.000000 0.000000
# 5 0.000000 0.000000 0.000000 0.000000 0.016153 0.000000
# 6 0.000000 0.000000 0.000000 0.000000 0.000000 0.020086
#
#
# Mechanical properties :
#
#
# Convention : Reuss Voigt Hill
#
# Bulk Modulus (GPa) = 74.23298 76.29388 75.26343
# Shear Modulus (GPa) = 47.65391 50.46681 49.06036
#
# Velocity S-wave (km/s) = 4.96911 5.11366 5.04190
# Velocity P-wave (km/s) = 8.44907 8.62542 8.53770
#
# Compressibility (1/GPa) = 0.01347110
#
# Stress axis : x y z
#
# Youngs Moduli (GPa) = 87.81130 87.81042 125.33868
#
# Poissons Ratio (x) = 0.30662 0.32273
# Poissons Ratio (y) = 0.30663 0.32274
# Poissons Ratio (z) = 0.22611 0.22611
#
# Static dielectric constant tensor:
#      x y z
#    x 1.700270 0.000000 0.000000 
#    y 0.000000 1.700270 0.000000 
#    z 0.000000 0.000000 1.743440 
# 
# From -- ./inp_files/1855.got.cif
#   From: 2010.05.17/outbox.cif.g08.bks.cpg/sg137_1_cif.got.tgz:1855.got - 2010.05.20 13:01:12.
