data_PCOD9570497
_publ_section_title
;
Structure prediction by ZEFSAII (Michael W. Deem and Ramdas Pophale) SiO2 
 PCOD9570497
Probable space group: P 42/N M C
;
_chemical_formula_sum "Si O2"
_cell_formula_units_Z 96
_cell_length_a 23.734109
_cell_length_b 23.734109
_cell_length_c 9.889290
_cell_angle_alpha 90.000000
_cell_angle_beta 90.000000
_cell_angle_gamma 90.000000
_cell_volume 5570.715479
_symmetry_space_group_name_H-M "P 42/N M C"
_symmetry_group_IT_number 137
_space_group.IT_coordinate_system_code '2'
_symmetry_cell_setting 'tetragonal'
loop_
_space_group_symop_operation_xyz
x,y,z
1/2-y,x,1/2+z
1/2-x,1/2-y,z
y,1/2-x,1/2+z
1/2+x,-y,-z
-x,1/2+y,-z
1/2+y,1/2+x,1/2-z
-y,-x,1/2-z
-x,-y,-z
1/2+y,-x,1/2-z
1/2+x,1/2+y,-z
-y,1/2+x,1/2-z
1/2-x,y,z
x,1/2-y,z
1/2-y,1/2-x,1/2+z
y,x,1/2+z
loop_
_atom_site_type_symbol
_atom_site_label
_atom_site_fract_x
_atom_site_fract_y
_atom_site_fract_z
Si Si1 0.499918 0.250000 0.035139
Si Si2 0.500756 0.250000 0.506786
Si Si3 0.129407 0.537586 0.910057
Si Si4 0.070170 0.250000 0.764154
Si Si5 0.412054 0.250000 0.278880
Si Si6 0.627912 0.867112 0.284978
Si Si7 0.628082 0.460588 0.415716
Si Si8 0.426632 0.421984 0.965501
O O1 0.463643 0.250000 0.172683
O O2 0.534926 0.307839 0.033287
O O3 0.455106 0.250000 0.913965
O O4 0.532262 0.307089 0.463835
O O5 0.482889 0.250000 0.662356
O O6 0.441621 0.250000 0.424430
O O7 0.097805 0.595876 0.940170
O O8 0.129200 0.529903 0.746892
O O9 0.093086 0.486533 0.974250
O O10 0.108011 0.195922 0.736306
O O11 0.378388 0.192458 0.254553
O O12 0.615685 0.887532 0.436423
O O13 0.587482 0.903412 0.186570
O O14 0.592544 0.510518 0.487061
#
# Coordination Sequence:
#
# PCOD9570497 Si02
#       8
#     8   8  16   8   8  16  16  16
#     4  12  20  40  58  82 115 154 187 241 287 356
#     4  12  20  40  58  82 115 154 187 241 287 356
#     4  11  22  36  60  88 113 149 192 236 294 356
#     4  12  24  35  56  84 118 151 200 234 294 332
#     4  12  20  39  60  72 114 161 208 228 282 330
#     4  12  22  35  59  80 110 160 198 240 273 339
#     4  11  22  36  60  88 113 149 192 236 294 356
#     4  12  19  38  54  85 114 144 192 243 292 336
#
# _framework density 17.232975
#
# number of rings (size 3 to 8) (size 9 to 14) (size 15 to 20)
#    0.000    0.333   10.000    0.500    0.000    0.333 
#    0.000    2.500    0.000    4.500    0.000    2.333 
#    0.000    1.333    0.000    0.000    0.000    0.000 
#
# Total GULP energy -536294.080276 kJ/mol
# GULP energy per Si atom -5586.396670 kJ/mol
# Density = 1.719375 g / cm^3
# Si number density = 17.232975 Si / 1000 Ang^3
#
#
#
# Elastic Constant Matrix: (Units=GPa)
#
#
# Indices 1 2 3 4 5 6 
#
# 1 93.5346 78.7037 -1.8232 0.0000 0.0000 0.0000
# 2 78.7037 93.5346 -1.8232 0.0000 0.0000 0.0000
# 3 -1.8232 -1.8232 22.9279 0.0000 0.0000 0.0000
# 4 0.0000 0.0000 0.0000 11.9361 0.0000 0.0000
# 5 0.0000 0.0000 0.0000 0.0000 11.9361 0.0000
# 6 0.0000 0.0000 0.0000 0.0000 0.0000 32.9790
#
#
#
# Elastic Compliance Matrix: (Units=1/GPa)
#
#
# Indices 1 2 3 4 5 6 
#
# 1 0.036621 -0.030806 0.000462 0.000000 0.000000 0.000000
# 2 -0.030806 0.036621 0.000462 0.000000 0.000000 0.000000
# 3 0.000462 0.000462 0.043689 0.000000 0.000000 0.000000
# 4 0.000000 0.000000 0.000000 0.083779 0.000000 0.000000
# 5 0.000000 0.000000 0.000000 0.000000 0.083779 0.000000
# 6 0.000000 0.000000 0.000000 0.000000 0.000000 0.030322
#
#
# Mechanical properties :
#
#
# Convention : Reuss Voigt Hill
#
# Bulk Modulus (GPa) = 17.49175 40.01242 28.75209
# Shear Modulus (GPa) = 12.70229 20.36623 16.53426
#
# Velocity S-wave (km/s) = 2.71789 3.44149 3.10087
# Velocity P-wave (km/s) = 4.47453 6.24986 5.43517
#
# Compressibility (1/GPa) = 0.05716981
#
# Stress axis : x y z
#
# Youngs Moduli (GPa) = 27.30650 27.30650 22.88925
#
# Poissons Ratio (x) = 0.84119 -0.01059
# Poissons Ratio (y) = 0.84119 -0.01059
# Poissons Ratio (z) = -0.01263 -0.01263
#
# Static dielectric constant tensor:
#      x y z
#    x 1.576940 0.000000 0.000000 
#    y 0.000000 1.576940 0.000000 
#    z 0.000000 0.000000 1.580580 
# 
# From -- ./inp_files/2248.got.cif
#   From: 2010.05.17/outbox.cif.g08.bks.cpg/sg137_2_cif.got.tgz:2248.got - 2010.05.20 13:01:12.
