data_PCOD9570324
_publ_section_title
;
Structure prediction by ZEFSAII (Michael W. Deem and Ramdas Pophale) SiO2 
 PCOD9570324
Probable space group: P 42/N M C
;
_chemical_formula_sum "Si O2"
_cell_formula_units_Z 96
_cell_length_a 15.939974
_cell_length_b 15.939974
_cell_length_c 19.576712
_cell_angle_alpha 90.000000
_cell_angle_beta 90.000000
_cell_angle_gamma 90.000000
_cell_volume 4974.105234
_symmetry_space_group_name_H-M "P 42/N M C"
_symmetry_group_IT_number 137
_space_group.IT_coordinate_system_code '2'
_symmetry_cell_setting 'tetragonal'
loop_
_space_group_symop_operation_xyz
x,y,z
1/2-y,x,1/2+z
1/2-x,1/2-y,z
y,1/2-x,1/2+z
1/2+x,-y,-z
-x,1/2+y,-z
1/2+y,1/2+x,1/2-z
-y,-x,1/2-z
-x,-y,-z
1/2+y,-x,1/2-z
1/2+x,1/2+y,-z
-y,1/2+x,1/2-z
1/2-x,y,z
x,1/2-y,z
1/2-y,1/2-x,1/2+z
y,x,1/2+z
loop_
_atom_site_type_symbol
_atom_site_label
_atom_site_fract_x
_atom_site_fract_y
_atom_site_fract_z
Si Si1 0.346338 0.583184 0.181310
Si Si2 0.343261 0.649799 0.030468
Si Si3 0.967082 0.927128 0.797750
Si Si4 0.844861 0.850348 0.688538
Si Si5 0.148432 0.001307 0.556975
Si Si6 0.653614 0.647478 0.037297
O O1 0.363967 0.636034 0.250000
O O2 0.250000 0.553163 0.183116
O O3 0.357633 0.632856 0.110644
O O4 0.413072 0.508494 0.181371
O O5 0.250000 0.616498 0.012714
O O6 0.341236 0.750000 0.021067
O O7 0.419609 0.617413 0.984338
O O8 0.904687 0.874753 0.749760
O O9 0.996716 0.880900 0.865362
O O10 0.042672 0.957329 0.750000
O O11 0.750000 0.883477 0.698641
O O12 0.839554 0.750000 0.684355
O O13 0.876612 0.877001 0.613445
O O14 0.250000 0.001244 0.554868
O O15 0.120189 0.086573 0.518744
O O16 0.750000 0.620010 0.025377
O O17 0.655445 0.750000 0.037965
#
# Coordination Sequence:
#
# PCOD9570324 Si02
#       6
#    16  16  16  16  16  16
#     4  10  21  35  54  83 116 148 184 228 283 347
#     4   9  19  37  59  82 107 144 195 242 287 340
#     4  11  24  37  51  80 119 153 186 227 284 349
#     4   9  18  36  60  82 109 149 195 237 279 339
#     4  10  21  38  62  82 109 150 195 245 292 340
#     4   8  16  31  55  87 114 142 186 236 291 351
#
# _framework density 19.299952999999999
#
# number of rings (size 3 to 8) (size 9 to 14) (size 15 to 20)
#    0.000    2.500    0.000    2.500    4.667    2.833 
#    0.000    3.333    0.000    0.000    0.000    0.000 
#    0.000    0.000    0.000    0.000    0.000    0.000 
#
# Total GULP energy -535686.821302 kJ/mol
# GULP energy per Si atom -5580.071055 kJ/mol
# Density = 1.925603 g / cm^3
# Si number density = 19.299953 Si / 1000 Ang^3
#
#
#
# Elastic Constant Matrix: (Units=GPa)
#
#
# Indices 1 2 3 4 5 6 
#
# 1 49.4556 22.5427 52.3251 0.0000 0.0000 0.0000
# 2 22.5427 49.4564 52.3248 0.0000 0.0000 0.0000
# 3 52.3251 52.3248 159.6210 0.0000 0.0000 0.0000
# 4 0.0000 0.0000 0.0000 35.4878 0.0000 0.0000
# 5 0.0000 0.0000 0.0000 0.0000 35.4870 0.0000
# 6 0.0000 0.0000 0.0000 0.0000 0.0000 8.4191
#
#
#
# Elastic Compliance Matrix: (Units=1/GPa)
#
#
# Indices 1 2 3 4 5 6 
#
# 1 0.031844 -0.005313 -0.008697 0.000000 0.000000 0.000000
# 2 -0.005313 0.031842 -0.008696 0.000000 0.000000 0.000000
# 3 -0.008697 -0.008696 0.011966 0.000000 0.000000 0.000000
# 4 0.000000 0.000000 0.000000 0.028179 0.000000 0.000000
# 5 0.000000 0.000000 0.000000 0.000000 0.028179 0.000000
# 6 0.000000 0.000000 0.000000 0.000000 0.000000 0.118777
#
#
# Mechanical properties :
#
#
# Convention : Reuss Voigt Hill
#
# Bulk Modulus (GPa) = 33.06959 56.99091 45.03025
# Shear Modulus (GPa) = 16.32489 24.63481 20.47985
#
# Velocity S-wave (km/s) = 2.91151 3.57658 3.26104
# Velocity P-wave (km/s) = 5.33613 6.83001 6.12875
#
# Compressibility (1/GPa) = 0.03023926
#
# Stress axis : x y z
#
# Youngs Moduli (GPa) = 31.40357 31.40461 83.56699
#
# Poissons Ratio (x) = 0.16687 0.72677
# Poissons Ratio (y) = 0.16686 0.72673
# Poissons Ratio (z) = 0.27311 0.27311
#
# Static dielectric constant tensor:
#      x y z
#    x 1.686450 0.000000 0.000000 
#    y 0.000000 1.686450 0.000000 
#    z 0.000000 0.000000 1.661290 
# 
# From -- ./inp_files/7874.got.cif
#   From: 2010.05.17/outbox.cif.g08.bks.cpg/sg137_4_cif.got.tgz:7874.got - 2010.05.20 13:01:12.
