data_PCOD9570590
_publ_section_title
;
Structure prediction by ZEFSAII (Michael W. Deem and Ramdas Pophale) SiO2 
 PCOD9570590
Probable space group: P 42/N C M
;
_chemical_formula_sum "Si O2"
_cell_formula_units_Z 92
_cell_length_a 26.862567
_cell_length_b 26.862567
_cell_length_c 8.461512
_cell_angle_alpha 90.000000
_cell_angle_beta 90.000000
_cell_angle_gamma 90.000000
_cell_volume 6105.805955
_symmetry_space_group_name_H-M "P 42/N C M"
_symmetry_group_IT_number 138
_space_group.IT_coordinate_system_code '2'
_symmetry_cell_setting 'tetragonal'
loop_
_space_group_symop_operation_xyz
x,y,z
1/2-y,x,1/2+z
1/2-x,1/2-y,z
y,1/2-x,1/2+z
1/2+x,-y,1/2-z
-x,1/2+y,1/2-z
1/2+y,1/2+x,-z
-y,-x,-z
-x,-y,-z
1/2+y,-x,1/2-z
1/2+x,1/2+y,-z
-y,1/2+x,1/2-z
1/2-x,y,1/2+z
x,1/2-y,1/2+z
1/2-y,1/2-x,z
y,x,z
loop_
_atom_site_type_symbol
_atom_site_label
_atom_site_fract_x
_atom_site_fract_y
_atom_site_fract_z
Si Si1 0.688680 0.811321 0.833880
Si Si2 0.025853 0.109483 0.333275
Si Si3 0.961982 0.623958 0.811261
Si Si4 0.786882 0.909628 0.175708
Si Si5 0.681049 0.599240 0.816388
Si Si6 0.750000 0.750000 0.581778
Si Si7 0.546398 0.039109 0.680720
O O1 0.631207 0.802009 0.807204
O O2 0.715767 0.784234 0.688309
O O3 0.714343 0.785658 0.981433
O O4 0.062537 0.062537 0.353608
O O5 0.028442 0.134673 0.504182
O O6 0.052466 0.143920 0.203021
O O7 0.973714 0.085968 0.280478
O O8 0.913389 0.586611 0.791885
O O9 0.953933 0.675296 0.717936
O O10 0.009119 0.592772 0.749716
O O11 0.727929 0.912291 0.204032
O O12 0.800284 0.894452 0.996425
O O13 0.648563 0.648563 0.772803
O O14 0.554434 0.054434 0.500000
O O15 0.501567 0.998434 0.680406
#
# Coordination Sequence:
#
# PCOD9570590 Si02
#       7
#     8  16  16  16  16   4  16
#     4  11  22  36  46  60  76 102 142 192 235 281
#     4   9  18  31  47  66  85 107 137 174 218 267
#     4  10  18  31  46  66  86 109 137 175 218 268
#     4  12  22  35  47  62  83 113 145 188 235 272
#     4  11  23  37  47  63  84 113 150 192 233 279
#     4  10  24  34  48  58  72  98 144 194 240 272
#     4   9  16  27  47  68  88 108 130 166 213 264
#
# _framework density 15.067626000000001
#
# number of rings (size 3 to 8) (size 9 to 14) (size 15 to 20)
#    0.000    1.739    1.739    3.652    2.435    4.870 
#    1.565    0.000    0.000    0.000    0.000    0.000 
#    0.000    0.000    0.000    0.000    0.000    0.870 
#
# Total GULP energy -512933.959327 kJ/mol
# GULP energy per Si atom -5575.369123 kJ/mol
# Density = 1.503333 g / cm^3
# Si number density = 15.067626 Si / 1000 Ang^3
#
#
#
# Elastic Constant Matrix: (Units=GPa)
#
#
# Indices 1 2 3 4 5 6 
#
# 1 44.0373 43.7019 19.6198 0.0000 0.0000 0.0000
# 2 43.7019 44.0373 19.6198 0.0000 0.0000 0.0000
# 3 19.6198 19.6198 53.5898 0.0000 0.0000 0.0000
# 4 0.0000 0.0000 0.0000 17.7211 0.0000 0.0000
# 5 0.0000 0.0000 0.0000 0.0000 17.7211 0.0000
# 6 0.0000 0.0000 0.0000 0.0000 0.0000 20.3315
#
#
#
# Elastic Compliance Matrix: (Units=1/GPa)
#
#
# Indices 1 2 3 4 5 6 
#
# 1 1.497486 -1.483857 -0.004990 0.000000 0.000000 0.000000
# 2 -1.483857 1.497486 -0.004990 0.000000 0.000000 0.000000
# 3 -0.004990 -0.004990 0.022314 0.000000 0.000000 0.000000
# 4 0.000000 0.000000 0.000000 0.056430 0.000000 0.000000
# 5 0.000000 0.000000 0.000000 0.000000 0.056430 0.000000
# 6 0.000000 0.000000 0.000000 0.000000 0.000000 0.049185
#
#
# Mechanical properties :
#
#
# Convention : Reuss Voigt Hill
#
# Bulk Modulus (GPa) = 33.76901 34.17191 33.97046
# Shear Modulus (GPa) = 0.80947 15.06962 7.93954
#
# Velocity S-wave (km/s) = 0.73375 3.16592 2.29798
# Velocity P-wave (km/s) = 4.81437 6.00769 5.44382
#
# Compressibility (1/GPa) = 0.02961295
#
# Stress axis : x y z
#
# Youngs Moduli (GPa) = 0.66779 0.66779 44.81524
#
# Poissons Ratio (x) = 0.99090 0.22361
# Poissons Ratio (y) = 0.99090 0.22361
# Poissons Ratio (z) = 0.00333 0.00333
#
# Static dielectric constant tensor:
#      x y z
#    x 1.494110 0.000000 0.000000 
#    y 0.000000 1.494110 0.000000 
#    z 0.000000 0.000000 1.559070 
# 
# From -- ./inp_files/1762.got.cif
#   From: 2010.05.17/outbox.cif.g08.bks.cpg/sg138_1_cif.got.tgz:1762.got - 2010.05.20 13:08:53.
