data_PCOD9570318
_publ_section_title
;
Structure prediction by ZEFSAII (Michael W. Deem and Ramdas Pophale) SiO2 
 PCOD9570318
Probable space group: P 42/N M C
;
_chemical_formula_sum "Si O2"
_cell_formula_units_Z 96
_cell_length_a 14.104474
_cell_length_b 14.104474
_cell_length_c 21.973590
_cell_angle_alpha 90.000000
_cell_angle_beta 90.000000
_cell_angle_gamma 90.000000
_cell_volume 4371.342205
_symmetry_space_group_name_H-M "P 42/N M C"
_symmetry_group_IT_number 137
_space_group.IT_coordinate_system_code '2'
_symmetry_cell_setting 'tetragonal'
loop_
_space_group_symop_operation_xyz
x,y,z
1/2-y,x,1/2+z
1/2-x,1/2-y,z
y,1/2-x,1/2+z
1/2+x,-y,-z
-x,1/2+y,-z
1/2+y,1/2+x,1/2-z
-y,-x,1/2-z
-x,-y,-z
1/2+y,-x,1/2-z
1/2+x,1/2+y,-z
-y,1/2+x,1/2-z
1/2-x,y,z
x,1/2-y,z
1/2-y,1/2-x,1/2+z
y,x,1/2+z
loop_
_atom_site_type_symbol
_atom_site_label
_atom_site_fract_x
_atom_site_fract_y
_atom_site_fract_z
Si Si1 0.142736 0.105227 0.516345
Si Si2 0.057749 0.358409 0.392965
Si Si3 0.401336 0.646910 0.940706
Si Si4 0.477851 0.635180 0.301140
Si Si5 0.854027 0.061618 0.932471
Si Si6 0.137250 0.479765 0.754238
O O1 0.250000 0.145464 0.516625
O O2 0.113481 0.084870 0.445566
O O3 0.045962 0.151765 0.541170
O O4 0.147805 0.014280 0.560007
O O5 0.089140 0.250000 0.403595
O O6 0.064930 0.378067 0.321660
O O7 0.944951 0.364189 0.406402
O O8 0.364452 0.750000 0.922117
O O9 0.384837 0.626727 0.012069
O O10 0.409626 0.590375 0.250000
O O11 0.480368 0.750000 0.298505
O O12 0.443719 0.597580 0.367154
O O13 0.582332 0.591735 0.290305
O O14 0.750000 0.096742 0.917403
O O15 0.250000 0.490333 0.744062
O O16 0.078874 0.578874 0.750000
#
# Coordination Sequence:
#
# PCOD9570318 Si02
#       6
#    16  16  16  16  16  16
#     4  10  21  34  57  89 118 150 187 235 294 357
#     4  10  21  38  57  82 117 153 193 240 293 356
#     4  10  21  34  57  89 118 150 187 235 294 357
#     4  10  24  42  64  90 121 164 210 259 307 359
#     4  10  21  38  57  82 117 153 193 240 293 356
#     4  10  24  42  64  90 121 164 210 259 307 359
#
# _framework density 21.961217999999999
#
# number of rings (size 3 to 8) (size 9 to 14) (size 15 to 20)
#    0.000    2.000    0.000    4.000    9.333    6.000 
#    0.000    6.667    0.000    0.000    0.000    0.000 
#    0.000    0.000    0.000    0.000    0.000    0.000 
#
# Total GULP energy -534907.242668 kJ/mol
# GULP energy per Si atom -5571.950444 kJ/mol
# Density = 2.191123 g / cm^3
# Si number density = 21.961218 Si / 1000 Ang^3
#
#
#
# Elastic Constant Matrix: (Units=GPa)
#
#
# Indices 1 2 3 4 5 6 
#
# 1 47.5659 20.2373 -21.6816 0.0000 0.0000 0.0000
# 2 20.2373 47.5680 -21.6809 0.0000 0.0000 0.0000
# 3 -21.6816 -21.6809 70.0555 0.0000 0.0000 0.0000
# 4 0.0000 0.0000 0.0000 -39.9373 0.0000 0.0000
# 5 0.0000 0.0000 0.0000 0.0000 -39.9589 0.0000
# 6 0.0000 0.0000 0.0000 0.0000 0.0000 58.5270
#
#
#
# Elastic Compliance Matrix: (Units=1/GPa)
#
#
# Indices 1 2 3 4 5 6 
#
# 1 0.027490 -0.009101 0.005691 0.000000 0.000000 0.000000
# 2 -0.009101 0.027488 0.005690 0.000000 0.000000 0.000000
# 3 0.005691 0.005690 0.017797 0.000000 0.000000 0.000000
# 4 0.000000 0.000000 0.000000 -0.025039 0.000000 0.000000
# 5 0.000000 0.000000 0.000000 0.000000 -0.025026 0.000000
# 6 0.000000 0.000000 0.000000 0.000000 0.000000 0.017086
#
#
# Mechanical properties :
#
#
# Convention : Reuss Voigt Hill
#
# Bulk Modulus (GPa) = 12.93072 13.21545 13.07309
# Shear Modulus (GPa) = 81.94843 8.28045 45.11444
#
# Velocity S-wave (km/s) = 6.11523 1.94388 4.53733
# Velocity P-wave (km/s) = 7.46741 3.32700 5.78062
#
# Compressibility (1/GPa) = 0.07733521
#
# Stress axis : x y z
#
# Youngs Moduli (GPa) = 36.37703 36.37934 56.18987
#
# Poissons Ratio (x) = 0.33110 -0.31979
# Poissons Ratio (y) = 0.33108 -0.31974
# Poissons Ratio (z) = -0.20703 -0.20701
#
# Static dielectric constant tensor:
#      x y z
#    x 1.834490 0.000000 0.000000 
#    y 0.000000 1.834490 0.000000 
#    z 0.000000 0.000000 1.832970 
# 
# From -- ./inp_files/7806.got.cif
#   From: 2010.05.17/outbox.cif.g08.bks.cpg/sg137_4_cif.got.tgz:7806.got - 2010.05.20 13:01:12.
