data_PCOD9570432
_publ_section_title
;
Structure prediction by ZEFSAII (Michael W. Deem and Ramdas Pophale) SiO2 
 PCOD9570432
Probable space group: P 42/N M C
;
_chemical_formula_sum "Si O2"
_cell_formula_units_Z 56
_cell_length_a 18.338631
_cell_length_b 18.338631
_cell_length_c 7.000565
_cell_angle_alpha 90.000000
_cell_angle_beta 90.000000
_cell_angle_gamma 90.000000
_cell_volume 2354.327721
_symmetry_space_group_name_H-M "P 42/N M C"
_symmetry_group_IT_number 137
_space_group.IT_coordinate_system_code '2'
_symmetry_cell_setting 'tetragonal'
loop_
_space_group_symop_operation_xyz
x,y,z
1/2-y,x,1/2+z
1/2-x,1/2-y,z
y,1/2-x,1/2+z
1/2+x,-y,-z
-x,1/2+y,-z
1/2+y,1/2+x,1/2-z
-y,-x,1/2-z
-x,-y,-z
1/2+y,-x,1/2-z
1/2+x,1/2+y,-z
-y,1/2+x,1/2-z
1/2-x,y,z
x,1/2-y,z
1/2-y,1/2-x,1/2+z
y,x,1/2+z
loop_
_atom_site_type_symbol
_atom_site_label
_atom_site_fract_x
_atom_site_fract_y
_atom_site_fract_z
Si Si1 0.332823 0.423789 0.387682
Si Si2 0.906007 0.431821 0.524414
Si Si3 0.668900 0.964362 0.053512
Si Si4 0.830737 0.169264 0.250000
O O1 0.250000 0.412623 0.458613
O O2 0.380644 0.484646 0.499671
O O3 0.326141 0.454909 0.174599
O O4 0.384384 0.353429 0.374320
O O5 0.916990 0.416990 0.750000
O O6 0.843455 0.384704 0.425569
O O7 0.977488 0.396976 0.421367
O O8 0.750000 0.987151 0.120968
O O9 0.750000 0.160340 0.172115
#
# Coordination Sequence:
#
# PCOD9570432 Si02
#       4
#    16  16  16   8
#     4  10  22  39  61  90 122 163 209 254 314 373
#     4  10  22  42  65  89 125 162 208 259 310 365
#     4  10  22  39  61  90 122 163 209 254 314 373
#     4  11  24  38  60  96 126 162 210 247 308 382
#
# _framework density 23.785982000000001
#
# number of rings (size 3 to 8) (size 9 to 14) (size 15 to 20)
#    0.000    1.857    0.000    2.571    4.000    5.143 
#    0.000    4.286    0.000    0.000    0.000    0.000 
#    0.000    0.000    0.000    0.000    0.000    0.000 
#
# Total GULP energy -312715.958404 kJ/mol
# GULP energy per Si atom -5584.213543 kJ/mol
# Density = 2.373184 g / cm^3
# Si number density = 23.785982 Si / 1000 Ang^3
#
#
#
# Elastic Constant Matrix: (Units=GPa)
#
#
# Indices 1 2 3 4 5 6 
#
# 1 133.0414 77.1219 0.0651 0.0000 0.0000 0.0000
# 2 77.1219 133.0409 0.0647 0.0000 0.0000 0.0000
# 3 0.0651 0.0647 54.3992 0.0000 0.0000 0.0000
# 4 0.0000 0.0000 0.0000 24.0989 0.0000 0.0000
# 5 0.0000 0.0000 0.0000 0.0000 24.1006 0.0000
# 6 0.0000 0.0000 0.0000 0.0000 0.0000 28.8287
#
#
#
# Elastic Compliance Matrix: (Units=1/GPa)
#
#
# Indices 1 2 3 4 5 6 
#
# 1 0.011321 -0.006562 -0.000006 0.000000 0.000000 0.000000
# 2 -0.006562 0.011321 -0.000006 0.000000 0.000000 0.000000
# 3 -0.000006 -0.000006 0.018383 0.000000 0.000000 0.000000
# 4 0.000000 0.000000 0.000000 0.041496 0.000000 0.000000
# 5 0.000000 0.000000 0.000000 0.000000 0.041493 0.000000
# 6 0.000000 0.000000 0.000000 0.000000 0.000000 0.034688
#
#
# Mechanical properties :
#
#
# Convention : Reuss Voigt Hill
#
# Bulk Modulus (GPa) = 35.87271 52.77610 44.32440
# Shear Modulus (GPa) = 27.60306 31.62097 29.61201
#
# Velocity S-wave (km/s) = 3.41027 3.65004 3.53219
# Velocity P-wave (km/s) = 5.53361 6.32454 5.94225
#
# Compressibility (1/GPa) = 0.02787635
#
# Stress axis : x y z
#
# Youngs Moduli (GPa) = 88.33495 88.33459 54.39920
#
# Poissons Ratio (x) = 0.57968 0.00031
# Poissons Ratio (y) = 0.57969 0.00030
# Poissons Ratio (z) = 0.00051 0.00049
#
# Static dielectric constant tensor:
#      x y z
#    x 1.923060 0.000000 0.000000 
#    y 0.000000 1.923060 0.000000 
#    z 0.000000 0.000000 1.950790 
# 
# From -- ./inp_files/1419.got.cif
#   From: 2010.05.17/outbox.cif.g08.bks.cpg/sg137_1_cif.got.tgz:1419.got - 2010.05.20 13:01:12.
