data_PCOD9570110
_publ_section_title
;
Structure prediction by ZEFSAII (Michael W. Deem and Ramdas Pophale) SiO2 
 PCOD9570110
Probable space group: P 42/N M C
;
_chemical_formula_sum "Si O2"
_cell_formula_units_Z 116
_cell_length_a 17.601214
_cell_length_b 17.601214
_cell_length_c 19.660691
_cell_angle_alpha 90.000000
_cell_angle_beta 90.000000
_cell_angle_gamma 90.000000
_cell_volume 6090.935830
_symmetry_space_group_name_H-M "P 42/N M C"
_symmetry_group_IT_number 137
_space_group.IT_coordinate_system_code '2'
_symmetry_cell_setting 'tetragonal'
loop_
_space_group_symop_operation_xyz
x,y,z
1/2-y,x,1/2+z
1/2-x,1/2-y,z
y,1/2-x,1/2+z
1/2+x,-y,-z
-x,1/2+y,-z
1/2+y,1/2+x,1/2-z
-y,-x,1/2-z
-x,-y,-z
1/2+y,-x,1/2-z
1/2+x,1/2+y,-z
-y,1/2+x,1/2-z
1/2-x,y,z
x,1/2-y,z
1/2-y,1/2-x,1/2+z
y,x,1/2+z
loop_
_atom_site_type_symbol
_atom_site_label
_atom_site_fract_x
_atom_site_fract_y
_atom_site_fract_z
Si Si1 0.407304 0.160251 0.937971
Si Si2 0.337398 0.050374 0.831572
Si Si3 0.840635 0.415506 0.536099
Si Si4 0.657569 0.834003 0.421159
Si Si5 0.342655 0.838257 0.324321
Si Si6 0.157893 0.470924 0.674879
Si Si7 0.369510 0.613824 0.889599
Si Si8 0.750000 0.250000 0.135652
O O1 0.396457 0.250000 0.923489
O O2 0.387928 0.109073 0.873694
O O3 0.493951 0.150496 0.962473
O O4 0.354488 0.137547 0.001448
O O5 0.250000 0.077839 0.831780
O O6 0.362079 0.040655 0.753500
O O7 0.340320 0.967854 0.866341
O O8 0.750000 0.398967 0.528805
O O9 0.866583 0.383185 0.608747
O O10 0.880476 0.378790 0.471121
O O11 0.750000 0.834290 0.418915
O O12 0.630904 0.750000 0.402539
O O13 0.632040 0.899592 0.370248
O O14 0.367600 0.867600 0.250000
O O15 0.250000 0.840525 0.322194
O O16 0.364344 0.750000 0.331591
O O17 0.250000 0.475793 0.670539
O O18 0.125862 0.548118 0.643943
O O19 0.315725 0.682680 0.866181
#
# Coordination Sequence:
#
# PCOD9570110 Si02
#       8
#    16  16  16  16  16  16  16   4
#     4  10  21  40  63  88 115 158 203 256 313 377
#     4  11  25  39  58  89 125 159 199 261 309 360
#     4  10  19  33  61  86 119 162 204 250 309 376
#     4   9  17  33  62  90 111 149 206 256 305 372
#     4   8  15  27  47  79 116 154 200 254 305 357
#     4  10  20  39  59  84 126 164 201 249 313 372
#     4  12  22  40  61  94 128 166 208 254 306 372
#     4  12  24  36  69 100 125 168 220 254 284 376
#
# _framework density 19.044692999999999
#
# number of rings (size 3 to 8) (size 9 to 14) (size 15 to 20)
#    0.000    1.931    3.448    1.241    0.966    1.931 
#    0.000    4.138    0.000    0.000    0.000    0.000 
#    0.000    0.000    0.000    0.000    0.000    0.000 
#
# Total GULP energy -646468.531755 kJ/mol
# GULP energy per Si atom -5573.004584 kJ/mol
# Density = 1.900135 g / cm^3
# Si number density = 19.044693 Si / 1000 Ang^3
#
#
#
# Elastic Constant Matrix: (Units=GPa)
#
#
# Indices 1 2 3 4 5 6 
#
# 1 60.2940 14.0951 25.8150 0.0000 0.0000 0.0000
# 2 14.0951 60.2940 25.8150 0.0000 0.0000 0.0000
# 3 25.8150 25.8150 110.4367 0.0000 0.0000 0.0000
# 4 0.0000 0.0000 0.0000 23.6635 0.0000 0.0000
# 5 0.0000 0.0000 0.0000 0.0000 23.6635 0.0000
# 6 0.0000 0.0000 0.0000 0.0000 0.0000 9.5473
#
#
#
# Elastic Compliance Matrix: (Units=1/GPa)
#
#
# Indices 1 2 3 4 5 6 
#
# 1 0.018846 -0.002800 -0.003751 0.000000 0.000000 0.000000
# 2 -0.002800 0.018846 -0.003751 0.000000 0.000000 0.000000
# 3 -0.003751 -0.003751 0.010809 0.000000 0.000000 0.000000
# 4 0.000000 0.000000 0.000000 0.042259 0.000000 0.000000
# 5 0.000000 0.000000 0.000000 0.000000 0.042259 0.000000
# 6 0.000000 0.000000 0.000000 0.000000 0.000000 0.104742
#
#
# Mechanical properties :
#
#
# Convention : Reuss Voigt Hill
#
# Bulk Modulus (GPa) = 35.84568 40.27501 38.06034
# Shear Modulus (GPa) = 18.68024 22.39481 20.53752
#
# Velocity S-wave (km/s) = 3.13527 3.43287 3.28744
# Velocity P-wave (km/s) = 5.65414 6.07506 5.86838
#
# Compressibility (1/GPa) = 0.02789736
#
# Stress axis : x y z
#
# Youngs Moduli (GPa) = 53.06209 53.06209 92.51961
#
# Poissons Ratio (x) = 0.14856 0.34703
# Poissons Ratio (y) = 0.14856 0.34703
# Poissons Ratio (z) = 0.19903 0.19903
#
# Static dielectric constant tensor:
#      x y z
#    x 1.648380 0.000000 0.000000 
#    y 0.000000 1.648380 0.000000 
#    z 0.000000 0.000000 1.661010 
# 
# From -- ./inp_files/6682.got.cif
#   From: 2010.05.17/outbox.cif.g08.bks.cpg/sg137_4_cif.got.tgz:6682.got - 2010.05.20 13:01:12.
