data_PCOD9570750
_publ_section_title
;
Structure prediction by ZEFSAII (Michael W. Deem and Ramdas Pophale) SiO2 
 PCOD9570750
Probable space group: P 42/N C M
;
_chemical_formula_sum "Si O2"
_cell_formula_units_Z 96
_cell_length_a 14.964633
_cell_length_b 14.964633
_cell_length_c 21.138315
_cell_angle_alpha 90.000000
_cell_angle_beta 90.000000
_cell_angle_gamma 90.000000
_cell_volume 4733.719352
_symmetry_space_group_name_H-M "P 42/N C M"
_symmetry_group_IT_number 138
_space_group.IT_coordinate_system_code '2'
_symmetry_cell_setting 'tetragonal'
loop_
_space_group_symop_operation_xyz
x,y,z
1/2-y,x,1/2+z
1/2-x,1/2-y,z
y,1/2-x,1/2+z
1/2+x,-y,1/2-z
-x,1/2+y,1/2-z
1/2+y,1/2+x,-z
-y,-x,-z
-x,-y,-z
1/2+y,-x,1/2-z
1/2+x,1/2+y,-z
-y,1/2+x,1/2-z
1/2-x,y,1/2+z
x,1/2-y,1/2+z
1/2-y,1/2-x,z
y,x,z
loop_
_atom_site_type_symbol
_atom_site_label
_atom_site_fract_x
_atom_site_fract_y
_atom_site_fract_z
Si Si1 0.813124 0.463837 0.748741
Si Si2 0.898547 0.754207 0.015098
Si Si3 0.194671 0.657414 0.659401
Si Si4 0.271856 0.082571 0.839972
Si Si5 0.902563 0.219963 0.542573
Si Si6 0.938217 0.425901 0.858321
O O1 0.738916 0.416040 0.793537
O O2 0.826086 0.402144 0.687406
O O3 0.787401 0.558517 0.720172
O O4 0.899578 0.459883 0.792245
O O5 0.834751 0.665250 0.007369
O O6 0.838393 0.838393 0.990330
O O7 0.909984 0.769133 0.090371
O O8 0.998995 0.738134 0.987385
O O9 0.250000 0.750000 0.666071
O O10 0.197103 0.629428 0.585888
O O11 0.328963 0.171038 0.829033
O O12 0.341361 0.999984 0.845770
O O13 0.824659 0.175342 0.500000
O O14 0.910480 0.143635 0.595977
O O15 0.000577 0.499424 0.889774
#
# Coordination Sequence:
#
# PCOD9570750 Si02
#       6
#    16  16  16  16  16  16
#     4  11  18  36  57  84 118 150 188 241 297 358
#     4  10  22  41  62  84 120 166 208 255 309 363
#     4  11  20  34  57  85 119 154 189 239 302 360
#     4  10  20  36  60  87 115 154 205 245 292 362
#     4  11  22  36  58  91 116 150 204 261 297 351
#     4  10  20  33  56  86 113 148 192 245 295 341
#
# _framework density 20.280035999999999
#
# number of rings (size 3 to 8) (size 9 to 14) (size 15 to 20)
#    0.000    1.500    5.000    1.500    0.000    1.667 
#    0.000    4.167    0.000    2.000    0.000    0.000 
#    0.000    0.000    0.000    0.000    0.000    0.000 
#
# Total GULP energy -535341.579915 kJ/mol
# GULP energy per Si atom -5576.474791 kJ/mol
# Density = 2.023388 g / cm^3
# Si number density = 20.280036 Si / 1000 Ang^3
#
#
#
# Elastic Constant Matrix: (Units=GPa)
#
#
# Indices 1 2 3 4 5 6 
#
# 1 49.5173 43.0157 37.9625 0.0000 0.0000 0.0000
# 2 43.0157 49.5165 37.9626 0.0000 0.0000 0.0000
# 3 37.9625 37.9626 109.6595 0.0000 0.0000 0.0000
# 4 0.0000 0.0000 0.0000 29.3019 0.0000 0.0000
# 5 0.0000 0.0000 0.0000 0.0000 29.3014 0.0000
# 6 0.0000 0.0000 0.0000 0.0000 0.0000 31.5940
#
#
#
# Elastic Compliance Matrix: (Units=1/GPa)
#
#
# Indices 1 2 3 4 5 6 
#
# 1 0.084454 -0.069361 -0.005225 0.000000 0.000000 0.000000
# 2 -0.069361 0.084456 -0.005226 0.000000 0.000000 0.000000
# 3 -0.005225 -0.005226 0.012737 0.000000 0.000000 0.000000
# 4 0.000000 0.000000 0.000000 0.034128 0.000000 0.000000
# 5 0.000000 0.000000 0.000000 0.000000 0.034128 0.000000
# 6 0.000000 0.000000 0.000000 0.000000 0.000000 0.031652
#
#
# Mechanical properties :
#
#
# Convention : Reuss Voigt Hill
#
# Bulk Modulus (GPa) = 45.40440 49.61942 47.51191
# Shear Modulus (GPa) = 11.14778 24.02297 17.58537
#
# Velocity S-wave (km/s) = 2.34709 3.44548 2.94790
# Velocity P-wave (km/s) = 5.45733 6.35206 5.92162
#
# Compressibility (1/GPa) = 0.02202430
#
# Stress axis : x y z
#
# Youngs Moduli (GPa) = 11.84072 11.84043 78.51041
#
# Poissons Ratio (x) = 0.82126 0.41023
# Poissons Ratio (y) = 0.82128 0.41030
# Poissons Ratio (z) = 0.06187 0.06188
#
# Static dielectric constant tensor:
#      x y z
#    x -52.704330 0.000000 0.000000 
#    y 0.000000 -52.410880 0.000000 
#    z 0.000000 0.000000 1.730380 
# 
# From -- ./inp_files/6265.got.cif
#   From: 2010.05.17/outbox.cif.g08.bks.cpg/sg138_4_cif.got.tgz:6265.got - 2010.05.20 13:08:53.
