data_PCOD9570840
_publ_section_title
;
Structure prediction by ZEFSAII (Michael W. Deem and Ramdas Pophale) SiO2 
 PCOD9570840
Probable space group: P 42/N C M
;
_chemical_formula_sum "Si O2"
_cell_formula_units_Z 44
_cell_length_a 16.829587
_cell_length_b 16.829587
_cell_length_c 8.491585
_cell_angle_alpha 90.000000
_cell_angle_beta 90.000000
_cell_angle_gamma 90.000000
_cell_volume 2405.114066
_symmetry_space_group_name_H-M "P 42/N C M"
_symmetry_group_IT_number 138
_space_group.IT_coordinate_system_code '2'
_symmetry_cell_setting 'tetragonal'
loop_
_space_group_symop_operation_xyz
x,y,z
1/2-y,x,1/2+z
1/2-x,1/2-y,z
y,1/2-x,1/2+z
1/2+x,-y,1/2-z
-x,1/2+y,1/2-z
1/2+y,1/2+x,-z
-y,-x,-z
-x,-y,-z
1/2+y,-x,1/2-z
1/2+x,1/2+y,-z
-y,1/2+x,1/2-z
1/2-x,y,1/2+z
x,1/2-y,1/2+z
1/2-y,1/2-x,z
y,x,z
loop_
_atom_site_type_symbol
_atom_site_label
_atom_site_fract_x
_atom_site_fract_y
_atom_site_fract_z
Si Si1 0.889768 0.014317 0.870272
Si Si2 0.348352 0.348352 0.035302
Si Si3 0.189246 0.852908 0.320588
Si Si4 0.250000 0.250000 0.786029
O O1 0.843488 0.063900 0.740943
O O2 0.838707 0.944050 0.952494
O O3 0.927197 0.072803 0.000000
O O4 0.963939 0.963939 0.800889
O O5 0.306092 0.306092 0.181923
O O6 0.306748 0.306748 0.888691
O O7 0.166885 0.833116 0.500000
O O8 0.283195 0.847020 0.289473
#
# Coordination Sequence:
#
# PCOD9570840 Si02
#       4
#    16   8  16   4
#     4   9  20  41  59  84 120 150 195 238 302 341
#     4   9  21  38  57  85 114 157 195 247 285 355
#     4  11  22  37  60  87 118 157 201 242 292 353
#     4  10  20  38  60  84 118 150 210 232 292 346
#
# _framework density 18.294350000000001
#
# number of rings (size 3 to 8) (size 9 to 14) (size 15 to 20)
#    1.091    1.091    0.000    4.364    0.000    6.545 
#    0.000    3.636    0.000    0.000    0.000    0.000 
#    0.000    0.000    0.000    0.000    0.000    0.000 
#
# Total GULP energy -245084.660255 kJ/mol
# GULP energy per Si atom -5570.105915 kJ/mol
# Density = 1.825271 g / cm^3
# Si number density = 18.294350 Si / 1000 Ang^3
#
#
#
# Elastic Constant Matrix: (Units=GPa)
#
#
# Indices 1 2 3 4 5 6 
#
# 1 60.4349 64.1178 32.4899 0.0000 0.0000 0.0000
# 2 64.1178 60.4363 32.4946 0.0000 0.0000 0.0000
# 3 32.4899 32.4946 62.2201 0.0000 0.0000 0.0000
# 4 0.0000 0.0000 0.0000 18.1519 0.0000 0.0000
# 5 0.0000 0.0000 0.0000 0.0000 18.1517 0.0000
# 6 0.0000 0.0000 0.0000 0.0000 0.0000 47.1643
#
#
#
# Elastic Compliance Matrix: (Units=1/GPa)
#
#
# Indices 1 2 3 4 5 6 
#
# 1 -0.130264 0.141305 -0.005776 0.000000 0.000000 0.000000
# 2 0.141305 -0.130275 -0.005750 0.000000 0.000000 0.000000
# 3 -0.005776 -0.005750 0.022091 0.000000 0.000000 0.000000
# 4 0.000000 0.000000 0.000000 0.055091 0.000000 0.000000
# 5 0.000000 0.000000 0.000000 0.000000 0.055091 0.000000
# 6 0.000000 0.000000 0.000000 0.000000 0.000000 0.021202
#
#
# Mechanical properties :
#
#
# Convention : Reuss Voigt Hill
#
# Bulk Modulus (GPa) = 47.37029 49.03286 48.20157
# Shear Modulus (GPa) = -13.90491 20.29287 3.19398
#
# Velocity S-wave (km/s) = -2.75992 3.33414 1.32275
# Velocity P-wave (km/s) = 3.97409 6.45619 5.36077
#
# Compressibility (1/GPa) = 0.02111028
#
# Stress axis : x y z
#
# Youngs Moduli (GPa) = -7.67670 -7.67609 45.26762
#
# Poissons Ratio (x) = 1.08467 0.26146
# Poissons Ratio (y) = 1.08476 0.26028
# Poissons Ratio (z) = -0.04434 -0.04414
#
# Static dielectric constant tensor:
#      x y z
#    x 1.643200 0.000000 0.000000 
#    y 0.000000 1.643200 0.000000 
#    z 0.000000 0.000000 1.611970 
# 
# From -- ./inp_files/1029.got.cif
#   From: 2010.05.17/outbox.cif.g08.bks.cpg/sg138_1_cif.got.tgz:1029.got - 2010.05.20 13:08:53.
