data_PCOD9570415
_publ_section_title
;
Structure prediction by ZEFSAII (Michael W. Deem and Ramdas Pophale) SiO2 
 PCOD9570415
Probable space group: P 42/N M C
;
_chemical_formula_sum "Si O2"
_cell_formula_units_Z 96
_cell_length_a 26.232612
_cell_length_b 26.232612
_cell_length_c 8.097344
_cell_angle_alpha 90.000000
_cell_angle_beta 90.000000
_cell_angle_gamma 90.000000
_cell_volume 5572.186726
_symmetry_space_group_name_H-M "P 42/N M C"
_symmetry_group_IT_number 137
_space_group.IT_coordinate_system_code '2'
_symmetry_cell_setting 'tetragonal'
loop_
_space_group_symop_operation_xyz
x,y,z
1/2-y,x,1/2+z
1/2-x,1/2-y,z
y,1/2-x,1/2+z
1/2+x,-y,-z
-x,1/2+y,-z
1/2+y,1/2+x,1/2-z
-y,-x,1/2-z
-x,-y,-z
1/2+y,-x,1/2-z
1/2+x,1/2+y,-z
-y,1/2+x,1/2-z
1/2-x,y,z
x,1/2-y,z
1/2-y,1/2-x,1/2+z
y,x,1/2+z
loop_
_atom_site_type_symbol
_atom_site_label
_atom_site_fract_x
_atom_site_fract_y
_atom_site_fract_z
Si Si1 0.617247 0.695251 0.939891
Si Si2 0.478976 0.037207 0.139364
Si Si3 0.194212 0.109802 0.953382
Si Si4 0.490391 0.810420 0.572347
Si Si5 0.153260 0.490762 0.558947
Si Si6 0.117124 0.966633 0.223641
O O1 0.635694 0.750000 0.005294
O O2 0.616959 0.697249 0.742566
O O3 0.558655 0.686307 0.986736
O O4 0.651510 0.647793 0.986646
O O5 0.471804 0.095583 0.097093
O O6 0.529618 0.029618 0.250000
O O7 0.426075 0.011861 0.202421
O O8 0.500000 0.000000 0.000000
O O9 0.250000 0.121406 0.026526
O O10 0.183244 0.050213 0.975739
O O11 0.478111 0.750000 0.557273
O O12 0.486210 0.826481 0.766653
O O13 0.463776 0.847357 0.438821
O O14 0.148215 0.523749 0.392827
O O15 0.083588 0.916413 0.250000
#
# Coordination Sequence:
#
# PCOD9570415 Si02
#       6
#    16  16  16  16  16  16
#     4  10  22  36  51  74  97 134 190 240 294 343
#     4  11  19  32  50  81 116 146 188 236 289 347
#     4   9  20  37  52  70  98 133 182 246 299 338
#     4  10  23  40  57  80 114 153 196 240 288 349
#     4  11  22  35  56  76 115 147 189 235 293 350
#     4  11  23  36  56  86 114 152 191 236 288 349
#
# _framework density 17.228424
#
# number of rings (size 3 to 8) (size 9 to 14) (size 15 to 20)
#    0.000    1.667    3.333    3.500    7.000    2.333 
#    0.000    1.667    0.000    0.000    0.000    0.000 
#    0.000    0.333    0.000    0.333    0.000    0.000 
#
# Total GULP energy -534577.933589 kJ/mol
# GULP energy per Si atom -5568.520142 kJ/mol
# Density = 1.718921 g / cm^3
# Si number density = 17.228424 Si / 1000 Ang^3
#
#
#
# Elastic Constant Matrix: (Units=GPa)
#
#
# Indices 1 2 3 4 5 6 
#
# 1 49.0998 22.8755 31.3197 0.0000 0.0000 0.0000
# 2 22.8755 49.0998 31.3190 0.0000 0.0000 0.0000
# 3 31.3197 31.3190 68.4589 0.0000 0.0000 0.0000
# 4 0.0000 0.0000 0.0000 18.2350 0.0000 0.0000
# 5 0.0000 0.0000 0.0000 0.0000 18.2354 0.0000
# 6 0.0000 0.0000 0.0000 0.0000 0.0000 15.4214
#
#
#
# Elastic Compliance Matrix: (Units=1/GPa)
#
#
# Indices 1 2 3 4 5 6 
#
# 1 0.030609 -0.007524 -0.010561 0.000000 0.000000 0.000000
# 2 -0.007524 0.030608 -0.010561 0.000000 0.000000 0.000000
# 3 -0.010561 -0.010561 0.024271 0.000000 0.000000 0.000000
# 4 0.000000 0.000000 0.000000 0.054839 0.000000 0.000000
# 5 0.000000 0.000000 0.000000 0.000000 0.054838 0.000000
# 6 0.000000 0.000000 0.000000 0.000000 0.000000 0.064845
#
#
# Mechanical properties :
#
#
# Convention : Reuss Voigt Hill
#
# Bulk Modulus (GPa) = 35.46638 37.52076 36.49357
# Shear Modulus (GPa) = 15.30450 15.78799 15.54624
#
# Velocity S-wave (km/s) = 2.98372 3.03048 3.00719
# Velocity P-wave (km/s) = 5.70094 5.83702 5.76938
#
# Compressibility (1/GPa) = 0.02819572
#
# Stress axis : x y z
#
# Youngs Moduli (GPa) = 32.67013 32.67074 41.20221
#
# Poissons Ratio (x) = 0.24581 0.43515
# Poissons Ratio (y) = 0.24581 0.43513
# Poissons Ratio (z) = 0.34504 0.34503
#
# Static dielectric constant tensor:
#      x y z
#    x 1.621110 0.000000 0.000000 
#    y 0.000000 1.621120 0.000000 
#    z 0.000000 0.000000 1.684110 
# 
# From -- ./inp_files/2155.got.cif
#   From: 2010.05.17/outbox.cif.g08.bks.cpg/sg137_2_cif.got.tgz:2155.got - 2010.05.20 13:01:12.
