data_PCOD9570422
_publ_section_title
;
Structure prediction by ZEFSAII (Michael W. Deem and Ramdas Pophale) SiO2 
 PCOD9570422
Probable space group: P 42/N M C
;
_chemical_formula_sum "Si O2"
_cell_formula_units_Z 64
_cell_length_a 14.424139
_cell_length_b 14.424139
_cell_length_c 14.983863
_cell_angle_alpha 90.000000
_cell_angle_beta 90.000000
_cell_angle_gamma 90.000000
_cell_volume 3117.479392
_symmetry_space_group_name_H-M "P 42/N M C"
_symmetry_group_IT_number 137
_space_group.IT_coordinate_system_code '2'
_symmetry_cell_setting 'tetragonal'
loop_
_space_group_symop_operation_xyz
x,y,z
1/2-y,x,1/2+z
1/2-x,1/2-y,z
y,1/2-x,1/2+z
1/2+x,-y,-z
-x,1/2+y,-z
1/2+y,1/2+x,1/2-z
-y,-x,1/2-z
-x,-y,-z
1/2+y,-x,1/2-z
1/2+x,1/2+y,-z
-y,1/2+x,1/2-z
1/2-x,y,z
x,1/2-y,z
1/2-y,1/2-x,1/2+z
y,x,1/2+z
loop_
_atom_site_type_symbol
_atom_site_label
_atom_site_fract_x
_atom_site_fract_y
_atom_site_fract_z
Si Si1 0.039367 0.468087 0.374563
Si Si2 0.046800 0.357279 0.693459
Si Si3 0.146644 0.643895 0.642283
Si Si4 0.353301 0.142847 0.015026
O O1 0.093219 0.430202 0.286777
O O2 0.091642 0.433434 0.461466
O O3 0.029981 0.577513 0.354673
O O4 0.937255 0.423656 0.379889
O O5 0.020340 0.250000 0.707027
O O6 0.128787 0.360172 0.621126
O O7 0.147993 0.647993 0.750000
O O8 0.250000 0.614042 0.612650
O O9 0.130976 0.750000 0.610723
O O10 0.250000 0.106163 0.989558
O O11 0.356568 0.250000 0.992164
#
# Coordination Sequence:
#
# PCOD9570422 Si02
#       4
#    16  16  16  16
#     4  11  20  38  63  85 112 159 205 238 294 360
#     4  10  22  38  57  83 115 151 195 246 293 340
#     4   9  17  30  51  83 116 143 183 241 300 354
#     4  10  22  38  58  89 124 153 190 241 292 352
#
# _framework density 20.529406999999999
#
# number of rings (size 3 to 8) (size 9 to 14) (size 15 to 20)
#    0.000    2.000    2.500    3.000    0.000    3.000 
#    0.000    2.500    0.000   14.250    0.000   14.000 
#    0.000    0.000    0.000    0.000    0.000    0.000 
#
# Total GULP energy -357063.975294 kJ/mol
# GULP energy per Si atom -5579.124614 kJ/mol
# Density = 2.048268 g / cm^3
# Si number density = 20.529407 Si / 1000 Ang^3
#
#
#
# Elastic Constant Matrix: (Units=GPa)
#
#
# Indices 1 2 3 4 5 6 
#
# 1 120.9329 53.5982 32.0290 0.0000 0.0000 0.0000
# 2 53.5982 120.9329 32.0290 0.0000 0.0000 0.0000
# 3 32.0290 32.0290 77.1075 0.0000 0.0000 0.0000
# 4 0.0000 0.0000 0.0000 23.8264 0.0000 0.0000
# 5 0.0000 0.0000 0.0000 0.0000 23.8264 0.0000
# 6 0.0000 0.0000 0.0000 0.0000 0.0000 14.1950
#
#
#
# Elastic Compliance Matrix: (Units=1/GPa)
#
#
# Indices 1 2 3 4 5 6 
#
# 1 0.010806 -0.004045 -0.002808 0.000000 0.000000 0.000000
# 2 -0.004045 0.010806 -0.002808 0.000000 0.000000 0.000000
# 3 -0.002808 -0.002808 0.015302 0.000000 0.000000 0.000000
# 4 0.000000 0.000000 0.000000 0.041970 0.000000 0.000000
# 5 0.000000 0.000000 0.000000 0.000000 0.041970 0.000000
# 6 0.000000 0.000000 0.000000 0.000000 0.000000 0.070447
#
#
# Mechanical properties :
#
#
# Convention : Reuss Voigt Hill
#
# Bulk Modulus (GPa) = 56.85062 61.58731 59.21897
# Shear Modulus (GPa) = 23.09602 25.79072 24.44337
#
# Velocity S-wave (km/s) = 3.35777 3.54825 3.45433
# Velocity P-wave (km/s) = 6.54104 6.84481 6.69465
#
# Compressibility (1/GPa) = 0.01758996
#
# Stress axis : x y z
#
# Youngs Moduli (GPa) = 92.54350 92.54350 65.35194
#
# Poissons Ratio (x) = 0.37438 0.18351
# Poissons Ratio (y) = 0.37438 0.18351
# Poissons Ratio (z) = 0.25987 0.25987
#
# Static dielectric constant tensor:
#      x y z
#    x 1.761610 0.000000 0.000000 
#    y 0.000000 1.761610 0.000000 
#    z 0.000000 0.000000 1.738250 
# 
# From -- ./inp_files/4728.got.cif
#   From: 2010.05.17/outbox.cif.g08.bks.cpg/sg137_3_cif.got.tgz:4728.got - 2010.05.20 13:01:12.
