data_PCOD9570889
_publ_section_title
;
Structure prediction by ZEFSAII (Michael W. Deem and Ramdas Pophale) SiO2 
 PCOD9570889
Probable space group: P 42/N C M
;
_chemical_formula_sum "Si O2"
_cell_formula_units_Z 128
_cell_length_a 23.036531
_cell_length_b 23.036531
_cell_length_c 12.074804
_cell_angle_alpha 90.000000
_cell_angle_beta 90.000000
_cell_angle_gamma 90.000000
_cell_volume 6407.878245
_symmetry_space_group_name_H-M "P 42/N C M"
_symmetry_group_IT_number 138
_space_group.IT_coordinate_system_code '2'
_symmetry_cell_setting 'tetragonal'
loop_
_space_group_symop_operation_xyz
x,y,z
1/2-y,x,1/2+z
1/2-x,1/2-y,z
y,1/2-x,1/2+z
1/2+x,-y,1/2-z
-x,1/2+y,1/2-z
1/2+y,1/2+x,-z
-y,-x,-z
-x,-y,-z
1/2+y,-x,1/2-z
1/2+x,1/2+y,-z
-y,1/2+x,1/2-z
1/2-x,y,1/2+z
x,1/2-y,1/2+z
1/2-y,1/2-x,z
y,x,z
loop_
_atom_site_type_symbol
_atom_site_label
_atom_site_fract_x
_atom_site_fract_y
_atom_site_fract_z
Si Si1 0.917449 0.014474 0.855682
Si Si2 0.164799 0.002635 0.347019
Si Si3 0.312473 0.403398 0.523051
Si Si4 0.041072 0.224253 0.727325
Si Si5 0.093434 0.683432 0.965661
Si Si6 0.638358 0.044978 0.729182
Si Si7 0.415102 0.820655 0.501114
Si Si8 0.657966 0.746042 0.655626
O O1 0.949638 0.073060 0.814157
O O2 0.865771 0.039310 0.938557
O O3 0.884588 0.994801 0.744845
O O4 0.964107 0.964107 0.892372
O O5 0.162736 0.060538 0.420275
O O6 0.225024 0.001911 0.277540
O O7 0.163653 0.949994 0.434812
O O8 0.363738 0.363738 0.573625
O O9 0.279610 0.450543 0.596737
O O10 0.265338 0.360692 0.470429
O O11 0.103738 0.236633 0.773919
O O12 0.020223 0.160702 0.760444
O O13 0.074106 0.654633 0.847685
O O14 0.088841 0.754088 0.958844
O O15 0.155806 0.655806 0.000000
O O16 0.677941 0.069921 0.630692
O O17 0.353230 0.853230 0.500000
O O18 0.705185 0.794816 0.662124
O O19 0.686463 0.686463 0.696537
#
# Coordination Sequence:
#
# PCOD9570889 Si02
#       8
#    16  16  16  16  16  16  16  16
#     4  11  25  45  68  98 140 183 226 284 349 420
#     4  11  22  40  64  94 130 173 222 279 338 406
#     4  10  21  36  57  87 121 165 218 272 328 399
#     4  11  21  36  63  88 123 165 216 268 332 399
#     4  12  23  42  72 100 136 180 230 285 351 412
#     4  11  23  42  66  98 131 181 219 278 343 415
#     4  10  25  44  69 100 138 178 228 284 351 418
#     4   9  20  37  54  80 119 160 211 273 332 390
#
# _framework density 19.975411000000001
#
# number of rings (size 3 to 8) (size 9 to 14) (size 15 to 20)
#    0.000    1.375    3.750    1.500    0.000    4.500 
#    0.000    3.125    0.000    1.500    0.000    0.000 
#    0.000    0.000    0.000    0.000    0.000    0.000 
#
# Total GULP energy -712691.185524 kJ/mol
# GULP energy per Si atom -5567.899887 kJ/mol
# Density = 1.992995 g / cm^3
# Si number density = 19.975411 Si / 1000 Ang^3
#
#
#
# Elastic Constant Matrix: (Units=GPa)
#
#
# Indices 1 2 3 4 5 6 
#
# 1 95.8906 47.2840 31.4841 0.0000 0.0000 0.0000
# 2 47.2840 95.8906 31.4841 0.0000 0.0000 0.0000
# 3 31.4841 31.4841 96.5293 0.0000 0.0000 0.0000
# 4 0.0000 0.0000 0.0000 26.9297 0.0000 0.0000
# 5 0.0000 0.0000 0.0000 0.0000 26.9297 0.0000
# 6 0.0000 0.0000 0.0000 0.0000 0.0000 47.6479
#
#
#
# Elastic Compliance Matrix: (Units=1/GPa)
#
#
# Indices 1 2 3 4 5 6 
#
# 1 0.014364 -0.006210 -0.002660 0.000000 0.000000 0.000000
# 2 -0.006210 0.014364 -0.002660 0.000000 0.000000 0.000000
# 3 -0.002660 -0.002660 0.012094 0.000000 0.000000 0.000000
# 4 0.000000 0.000000 0.000000 0.037134 0.000000 0.000000
# 5 0.000000 0.000000 0.000000 0.000000 0.037134 0.000000
# 6 0.000000 0.000000 0.000000 0.000000 0.000000 0.020987
#
#
# Mechanical properties :
#
#
# Convention : Reuss Voigt Hill
#
# Bulk Modulus (GPa) = 56.29207 56.53497 56.41352
# Shear Modulus (GPa) = 30.29281 32.17201 31.23241
#
# Velocity S-wave (km/s) = 3.89846 4.01756 3.95846
# Velocity P-wave (km/s) = 6.96461 7.06291 7.01394
#
# Compressibility (1/GPa) = 0.01776449
#
# Stress axis : x y z
#
# Youngs Moduli (GPa) = 69.61974 69.61974 82.68258
#
# Poissons Ratio (x) = 0.43231 0.21990
# Poissons Ratio (y) = 0.43231 0.21990
# Poissons Ratio (z) = 0.18516 0.18516
#
# Static dielectric constant tensor:
#      x y z
#    x 1.832350 0.000000 0.000000 
#    y 0.000000 1.832350 0.000000 
#    z 0.000000 0.000000 1.798250 
# 
# From -- ./inp_files/3347.got.cif
#   From: 2010.05.17/outbox.cif.g08.bks.cpg/sg138_2_cif.got.tgz:3347.got - 2010.05.20 13:08:53.
