data_PCOD9570434
_publ_section_title
;
Structure prediction by ZEFSAII (Michael W. Deem and Ramdas Pophale) SiO2 
 PCOD9570434
Probable space group: P 42/N M C
;
_chemical_formula_sum "Si O2"
_cell_formula_units_Z 96
_cell_length_a 19.874607
_cell_length_b 19.874607
_cell_length_c 11.654988
_cell_angle_alpha 90.000000
_cell_angle_beta 90.000000
_cell_angle_gamma 90.000000
_cell_volume 4603.720300
_symmetry_space_group_name_H-M "P 42/N M C"
_symmetry_group_IT_number 137
_space_group.IT_coordinate_system_code '2'
_symmetry_cell_setting 'tetragonal'
loop_
_space_group_symop_operation_xyz
x,y,z
1/2-y,x,1/2+z
1/2-x,1/2-y,z
y,1/2-x,1/2+z
1/2+x,-y,-z
-x,1/2+y,-z
1/2+y,1/2+x,1/2-z
-y,-x,1/2-z
-x,-y,-z
1/2+y,-x,1/2-z
1/2+x,1/2+y,-z
-y,1/2+x,1/2-z
1/2-x,y,z
x,1/2-y,z
1/2-y,1/2-x,1/2+z
y,x,1/2+z
loop_
_atom_site_type_symbol
_atom_site_label
_atom_site_fract_x
_atom_site_fract_y
_atom_site_fract_z
Si Si1 0.173330 0.830929 0.621632
Si Si2 0.633310 0.014772 0.694732
Si Si3 0.564567 0.825990 0.984500
Si Si4 0.671107 0.564363 0.055395
Si Si5 0.911322 0.976981 0.274091
Si Si6 0.430651 0.863177 0.418684
O O1 0.148355 0.851646 0.750000
O O2 0.250000 0.856807 0.604170
O O3 0.176761 0.750000 0.629775
O O4 0.126089 0.845901 0.512788
O O5 0.583683 0.059983 0.616851
O O6 0.667976 0.062313 0.789936
O O7 0.677517 0.976077 0.603413
O O8 0.587306 0.960749 0.761193
O O9 0.577536 0.750000 0.942984
O O10 0.523342 0.871015 0.892989
O O11 0.630627 0.870077 0.013293
O O12 0.750000 0.577078 0.058167
O O13 0.643414 0.537980 0.176656
O O14 0.654321 0.501193 0.975125
O O15 0.958402 0.041599 0.250000
#
# Coordination Sequence:
#
# PCOD9570434 Si02
#       6
#    16  16  16  16  16  16
#     4   9  20  39  62  91 131 177 221 270 334 408
#     4  10  22  39  63  96 125 164 217 273 341 402
#     4  11  24  42  65  95 135 178 224 282 345 412
#     4  11  24  40  63  96 131 174 229 279 334 410
#     4  11  20  42  69  94 125 166 219 286 348 402
#     4  11  20  40  65  96 127 172 216 275 341 398
#
# _framework density 20.852702000000001
#
# number of rings (size 3 to 8) (size 9 to 14) (size 15 to 20)
#    0.000    1.500    3.333    2.500    0.000    7.000 
#    0.000    6.667    0.000    6.000    0.000    0.000 
#    0.000    4.333    0.000    0.000    0.000    0.000 
#
# Total GULP energy -535344.867648 kJ/mol
# GULP energy per Si atom -5576.509038 kJ/mol
# Density = 2.080524 g / cm^3
# Si number density = 20.852702 Si / 1000 Ang^3
#
#
#
# Elastic Constant Matrix: (Units=GPa)
#
#
# Indices 1 2 3 4 5 6 
#
# 1 166.4334 -3.3286 63.9943 0.0000 0.0000 0.0000
# 2 -3.3286 166.4327 63.9939 0.0000 0.0000 0.0000
# 3 63.9943 63.9939 155.3703 0.0000 0.0000 0.0000
# 4 0.0000 0.0000 0.0000 44.8172 0.0000 0.0000
# 5 0.0000 0.0000 0.0000 0.0000 44.8226 0.0000
# 6 0.0000 0.0000 0.0000 0.0000 0.0000 -6.5090
#
#
#
# Elastic Compliance Matrix: (Units=1/GPa)
#
#
# Indices 1 2 3 4 5 6 
#
# 1 0.007475 0.001584 -0.003731 0.000000 0.000000 0.000000
# 2 0.001584 0.007475 -0.003731 0.000000 0.000000 0.000000
# 3 -0.003731 -0.003731 0.009510 0.000000 0.000000 0.000000
# 4 0.000000 0.000000 0.000000 0.022313 0.000000 0.000000
# 5 0.000000 0.000000 0.000000 0.000000 0.022310 0.000000
# 6 0.000000 0.000000 0.000000 0.000000 0.000000 -0.153634
#
#
# Mechanical properties :
#
#
# Convention : Reuss Voigt Hill
#
# Bulk Modulus (GPa) = 78.72219 81.95061 80.33640
# Shear Modulus (GPa) = -72.92765 40.86460 -16.03152
#
# Velocity S-wave (km/s) = -5.92019 4.43163 -2.77573
# Velocity P-wave (km/s) = 2.98296 8.09758 5.32319
#
# Compressibility (1/GPa) = 0.01270290
#
# Stress axis : x y z
#
# Youngs Moduli (GPa) = 133.78373 133.78333 105.15411
#
# Poissons Ratio (x) = -0.21193 0.39235
# Poissons Ratio (y) = -0.21193 0.39235
# Poissons Ratio (z) = 0.49917 0.49917
#
# Static dielectric constant tensor:
#      x y z
#    x 1.764410 0.000000 0.000000 
#    y 0.000000 1.764410 0.000000 
#    z 0.000000 0.000000 1.879150 
# 
# From -- ./inp_files/3742.got.cif
#   From: 2010.05.17/outbox.cif.g08.bks.cpg/sg137_2_cif.got.tgz:3742.got - 2010.05.20 13:01:12.
