data_PCOD9570502
_publ_section_title
;
Structure prediction by ZEFSAII (Michael W. Deem and Ramdas Pophale) SiO2 
 PCOD9570502
Probable space group: P 42/N M C
;
_chemical_formula_sum "Si O2"
_cell_formula_units_Z 64
_cell_length_a 14.336476
_cell_length_b 14.336476
_cell_length_c 14.569804
_cell_angle_alpha 90.000000
_cell_angle_beta 90.000000
_cell_angle_gamma 90.000000
_cell_volume 2994.598023
_symmetry_space_group_name_H-M "P 42/N M C"
_symmetry_group_IT_number 137
_space_group.IT_coordinate_system_code '2'
_symmetry_cell_setting 'tetragonal'
loop_
_space_group_symop_operation_xyz
x,y,z
1/2-y,x,1/2+z
1/2-x,1/2-y,z
y,1/2-x,1/2+z
1/2+x,-y,-z
-x,1/2+y,-z
1/2+y,1/2+x,1/2-z
-y,-x,1/2-z
-x,-y,-z
1/2+y,-x,1/2-z
1/2+x,1/2+y,-z
-y,1/2+x,1/2-z
1/2-x,y,z
x,1/2-y,z
1/2-y,1/2-x,1/2+z
y,x,1/2+z
loop_
_atom_site_type_symbol
_atom_site_label
_atom_site_fract_x
_atom_site_fract_y
_atom_site_fract_z
Si Si1 0.646421 0.108686 0.357846
Si Si2 0.385954 0.357570 0.119001
Si Si3 0.851662 0.945515 0.078475
Si Si4 0.355014 0.495604 0.283510
O O1 0.631824 0.131824 0.250000
O O2 0.750000 0.141016 0.385185
O O3 0.557519 0.145209 0.413457
O O4 0.643911 0.997588 0.369324
O O5 0.354951 0.250000 0.120785
O O6 0.350338 0.421073 0.201236
O O7 0.360074 0.406476 0.023657
O O8 0.750000 0.915735 0.117164
O O9 0.938431 0.905273 0.135370
O O10 0.418968 0.581033 0.250000
O O11 0.250000 0.523701 0.309582
#
# Coordination Sequence:
#
# PCOD9570502 Si02
#       4
#    16  16  16  16
#     4  11  22  40  69  99 134 179 222 270 329 395
#     4  11  23  43  69  97 132 174 221 275 335 397
#     4  12  24  42  68 100 137 175 219 275 339 399
#     4  12  26  45  68  95 131 174 225 280 337 403
#
# _framework density 21.371815999999999
#
# number of rings (size 3 to 8) (size 9 to 14) (size 15 to 20)
#    0.000    0.500    5.000    3.750    0.000    6.500 
#    0.000    0.000    0.000    3.000    0.000    0.000 
#    0.000    0.000    0.000    0.000    0.000    0.000 
#
# Total GULP energy -358063.792861 kJ/mol
# GULP energy per Si atom -5594.746763 kJ/mol
# Density = 2.132317 g / cm^3
# Si number density = 21.371816 Si / 1000 Ang^3
#
#
#
# Elastic Constant Matrix: (Units=GPa)
#
#
# Indices 1 2 3 4 5 6 
#
# 1 155.8399 28.8828 23.7342 0.0000 0.0000 0.0000
# 2 28.8828 155.8413 23.7331 0.0000 0.0000 0.0000
# 3 23.7342 23.7331 66.6392 0.0000 0.0000 0.0000
# 4 0.0000 0.0000 0.0000 69.8433 0.0000 0.0000
# 5 0.0000 0.0000 0.0000 0.0000 69.8434 0.0000
# 6 0.0000 0.0000 0.0000 0.0000 0.0000 -21.6705
#
#
#
# Elastic Compliance Matrix: (Units=1/GPa)
#
#
# Indices 1 2 3 4 5 6 
#
# 1 0.006918 -0.000959 -0.002122 0.000000 0.000000 0.000000
# 2 -0.000959 0.006918 -0.002122 0.000000 0.000000 0.000000
# 3 -0.002122 -0.002122 0.016518 0.000000 0.000000 0.000000
# 4 0.000000 0.000000 0.000000 0.014318 0.000000 0.000000
# 5 0.000000 0.000000 0.000000 0.000000 0.014318 0.000000
# 6 0.000000 0.000000 0.000000 0.000000 0.000000 -0.046146
#
#
# Mechanical properties :
#
#
# Convention : Reuss Voigt Hill
#
# Bulk Modulus (GPa) = 50.13402 59.00231 54.56817
# Shear Modulus (GPa) = 167.23123 43.73460 105.48291
#
# Velocity S-wave (km/s) = 8.85541 4.52859 7.03301
# Velocity P-wave (km/s) = 11.31666 7.41698 9.56761
#
# Compressibility (1/GPa) = 0.01994654
#
# Stress axis : x y z
#
# Youngs Moduli (GPa) = 144.55489 144.55695 60.54053
#
# Poissons Ratio (x) = 0.13862 0.12849
# Poissons Ratio (y) = 0.13861 0.12848
# Poissons Ratio (z) = 0.30679 0.30677
#
# Static dielectric constant tensor:
#      x y z
#    x 1.771990 0.000000 0.000000 
#    y 0.000000 1.771990 0.000000 
#    z 0.000000 0.000000 1.745170 
# 
# From -- ./inp_files/4724.got.cif
#   From: 2010.05.17/outbox.cif.g08.bks.cpg/sg137_3_cif.got.tgz:4724.got - 2010.05.20 13:01:12.
