data_PCOD9570201
_publ_section_title
;
Structure prediction by ZEFSAII (Michael W. Deem and Ramdas Pophale) SiO2 
 PCOD9570201
Probable space group: P 42/N M C
;
_chemical_formula_sum "Si O2"
_cell_formula_units_Z 128
_cell_length_a 25.102024
_cell_length_b 25.102024
_cell_length_c 10.515559
_cell_angle_alpha 90.000000
_cell_angle_beta 90.000000
_cell_angle_gamma 90.000000
_cell_volume 6625.975800
_symmetry_space_group_name_H-M "P 42/N M C"
_symmetry_group_IT_number 137
_space_group.IT_coordinate_system_code '2'
_symmetry_cell_setting 'tetragonal'
loop_
_space_group_symop_operation_xyz
x,y,z
1/2-y,x,1/2+z
1/2-x,1/2-y,z
y,1/2-x,1/2+z
1/2+x,-y,-z
-x,1/2+y,-z
1/2+y,1/2+x,1/2-z
-y,-x,1/2-z
-x,-y,-z
1/2+y,-x,1/2-z
1/2+x,1/2+y,-z
-y,1/2+x,1/2-z
1/2-x,y,z
x,1/2-y,z
1/2-y,1/2-x,1/2+z
y,x,1/2+z
loop_
_atom_site_type_symbol
_atom_site_label
_atom_site_fract_x
_atom_site_fract_y
_atom_site_fract_z
Si Si1 0.384390 0.458877 0.180737
Si Si2 0.878979 0.063154 0.649732
Si Si3 0.812547 0.632396 0.835897
Si Si4 0.996994 0.687830 0.977612
Si Si5 0.019649 0.560174 0.526045
Si Si6 0.686824 0.872281 0.510174
Si Si7 0.624204 0.525554 0.235224
Si Si8 0.312639 0.123997 0.833551
O O1 0.390510 0.510376 0.267315
O O2 0.327879 0.430281 0.175751
O O3 0.403017 0.476150 0.043089
O O4 0.427116 0.415956 0.226095
O O5 0.888382 0.111619 0.750000
O O6 0.826083 0.043933 0.576971
O O7 0.924285 0.067639 0.542655
O O8 0.750000 0.646800 0.839620
O O9 0.825482 0.637661 0.001557
O O10 0.864560 0.677492 0.840959
O O11 0.996936 0.750000 0.947658
O O12 0.935974 0.674640 0.021782
O O13 0.002826 0.651572 0.853724
O O14 0.000000 0.500000 0.500000
O O15 0.015634 0.585903 0.663600
O O16 0.750000 0.860859 0.508513
O O17 0.675970 0.855492 0.672193
O O18 0.669949 0.561862 0.169085
O O19 0.250000 0.134025 0.833509
#
# Coordination Sequence:
#
# PCOD9570201 Si02
#       8
#    16  16  16  16  16  16  16  16
#     4  10  20  34  51  75 109 143 189 244 308 364
#     4  10  22  37  57  86 114 144 187 239 293 356
#     4  11  22  34  49  69 101 144 196 255 298 331
#     4  11  22  39  60  80 110 154 195 233 292 360
#     4  11  21  32  53  83 110 145 181 239 308 364
#     4  11  22  34  49  70  95 136 197 253 301 343
#     4  11  21  33  55  78 111 144 192 240 296 371
#     4  11  22  35  49  68  98 140 192 251 301 341
#
# _framework density 19.317909
#
# number of rings (size 3 to 8) (size 9 to 14) (size 15 to 20)
#    0.000    1.250    3.750    4.500    0.000    5.250 
#    0.000    0.625    0.000    1.500    0.000    0.000 
#    0.000    0.250    0.000    0.375    0.000    0.250 
#
# Total GULP energy -712897.228849 kJ/mol
# GULP energy per Si atom -5569.509600 kJ/mol
# Density = 1.927394 g / cm^3
# Si number density = 19.317909 Si / 1000 Ang^3
#
#
#
# Elastic Constant Matrix: (Units=GPa)
#
#
# Indices 1 2 3 4 5 6 
#
# 1 32.9765 38.8897 32.8466 0.0000 0.0000 0.0000
# 2 38.8897 32.9748 32.8468 0.0000 0.0000 0.0000
# 3 32.8466 32.8468 115.5606 0.0000 0.0000 0.0000
# 4 0.0000 0.0000 0.0000 44.9330 0.0000 0.0000
# 5 0.0000 0.0000 0.0000 0.0000 44.9331 0.0000
# 6 0.0000 0.0000 0.0000 0.0000 0.0000 20.2564
#
#
#
# Elastic Compliance Matrix: (Units=1/GPa)
#
#
# Indices 1 2 3 4 5 6 
#
# 1 -0.075142 0.093945 -0.005345 0.000000 0.000000 0.000000
# 2 0.093945 -0.075148 -0.005343 0.000000 0.000000 0.000000
# 3 -0.005345 -0.005343 0.011691 0.000000 0.000000 0.000000
# 4 0.000000 0.000000 0.000000 0.022255 0.000000 0.000000
# 5 0.000000 0.000000 0.000000 0.000000 0.022255 0.000000
# 6 0.000000 0.000000 0.000000 0.000000 0.000000 0.049367
#
#
# Mechanical properties :
#
#
# Convention : Reuss Voigt Hill
#
# Bulk Modulus (GPa) = 35.82167 43.40868 39.61517
# Shear Modulus (GPa) = -24.76088 27.15308 1.19610
#
# Velocity S-wave (km/s) = -3.58405 3.75319 0.78773
# Velocity P-wave (km/s) = 1.20677 6.42661 4.62373
#
# Compressibility (1/GPa) = 0.02791606
#
# Stress axis : x y z
#
# Youngs Moduli (GPa) = -13.30810 -13.30704 85.53475
#
# Poissons Ratio (x) = 1.25013 0.45714
# Poissons Ratio (y) = 1.25023 0.45698
# Poissons Ratio (z) = -0.07113 -0.07109
#
# Static dielectric constant tensor:
#      x y z
#    x 1.632220 0.000000 0.000000 
#    y 0.000000 1.632220 0.000000 
#    z 0.000000 0.000000 2.178290 
# 
# From -- ./inp_files/4019.got.cif
#   From: 2010.05.17/outbox.cif.g08.bks.cpg/sg137_3_cif.got.tgz:4019.got - 2010.05.20 13:01:12.
