data_PCOD9570730
_publ_section_title
;
Structure prediction by ZEFSAII (Michael W. Deem and Ramdas Pophale) SiO2 
 PCOD9570730
Probable space group: P 42/N C M
;
_chemical_formula_sum "Si O2"
_cell_formula_units_Z 96
_cell_length_a 22.166157
_cell_length_b 22.166157
_cell_length_c 10.074828
_cell_angle_alpha 90.000000
_cell_angle_beta 90.000000
_cell_angle_gamma 90.000000
_cell_volume 4950.151040
_symmetry_space_group_name_H-M "P 42/N C M"
_symmetry_group_IT_number 138
_space_group.IT_coordinate_system_code '2'
_symmetry_cell_setting 'tetragonal'
loop_
_space_group_symop_operation_xyz
x,y,z
1/2-y,x,1/2+z
1/2-x,1/2-y,z
y,1/2-x,1/2+z
1/2+x,-y,1/2-z
-x,1/2+y,1/2-z
1/2+y,1/2+x,-z
-y,-x,-z
-x,-y,-z
1/2+y,-x,1/2-z
1/2+x,1/2+y,-z
-y,1/2+x,1/2-z
1/2-x,y,1/2+z
x,1/2-y,1/2+z
1/2-y,1/2-x,z
y,x,z
loop_
_atom_site_type_symbol
_atom_site_label
_atom_site_fract_x
_atom_site_fract_y
_atom_site_fract_z
Si Si1 0.480673 0.480673 0.853339
Si Si2 0.116992 0.932425 0.860860
Si Si3 0.925450 0.758013 0.904557
Si Si4 0.858077 0.858077 0.745583
Si Si5 0.050694 0.050694 0.379886
Si Si6 0.061726 0.871170 0.604034
Si Si7 0.260926 0.508325 0.842419
Si Si8 0.801981 0.698020 0.994993
O O1 0.412000 0.500728 0.841130
O O2 0.519840 0.519840 0.749279
O O3 0.500000 0.500000 0.000000
O O4 0.087249 0.893920 0.744321
O O5 0.187914 0.941053 0.853164
O O6 0.095048 0.904953 0.000000
O O7 0.901031 0.818521 0.836866
O O8 0.974794 0.734185 0.799384
O O9 0.865146 0.719042 0.930340
O O10 0.958112 0.769323 0.043633
O O11 0.899826 0.899826 0.655501
O O12 0.816870 0.816870 0.649540
O O13 0.995857 0.088160 0.443830
O O14 0.114783 0.885218 0.500000
O O15 0.037478 0.804186 0.627855
O O16 0.750000 0.750000 0.983128
#
# Coordination Sequence:
#
# PCOD9570730 Si02
#       8
#     8  16  16   8   8  16  16   8
#     4   8  18  32  55  87 113 150 193 258 327 365
#     4  10  22  39  63  92 127 164 209 270 329 392
#     4  12  25  41  64  92 128 177 223 268 313 374
#     4  12  24  40  59  92 131 173 217 274 314 369
#     4  10  19  38  61  86 124 160 210 259 328 378
#     4  11  22  40  64  94 129 168 209 268 336 392
#     4  12  25  42  67  98 128 168 222 273 331 396
#     4  12  26  42  59  87 134 180 225 260 306 360
#
# _framework density 19.393348
#
# number of rings (size 3 to 8) (size 9 to 14) (size 15 to 20)
#    0.000    1.000    4.167    2.250    5.833    1.333 
#    0.000    1.667    0.000    3.000    0.000    0.000 
#    0.000    0.000    0.000    0.000    0.000    0.000 
#
# Total GULP energy -535963.014894 kJ/mol
# GULP energy per Si atom -5582.948072 kJ/mol
# Density = 1.934921 g / cm^3
# Si number density = 19.393348 Si / 1000 Ang^3
#
#
#
# Elastic Constant Matrix: (Units=GPa)
#
#
# Indices 1 2 3 4 5 6 
#
# 1 77.7289 59.5057 4.9590 0.0000 0.0000 0.0000
# 2 59.5057 77.7344 4.9490 0.0000 0.0000 0.0000
# 3 4.9590 4.9490 63.8855 0.0000 0.0000 0.0000
# 4 0.0000 0.0000 0.0000 10.8002 0.0000 0.0000
# 5 0.0000 0.0000 0.0000 0.0000 10.8013 0.0000
# 6 0.0000 0.0000 0.0000 0.0000 0.0000 29.8197
#
#
#
# Elastic Compliance Matrix: (Units=1/GPa)
#
#
# Indices 1 2 3 4 5 6 
#
# 1 0.031099 -0.023770 -0.000573 0.000000 0.000000 0.000000
# 2 -0.023770 0.031096 -0.000564 0.000000 0.000000 0.000000
# 3 -0.000573 -0.000564 0.015741 0.000000 0.000000 0.000000
# 4 0.000000 0.000000 0.000000 0.092591 0.000000 0.000000
# 5 0.000000 0.000000 0.000000 0.000000 0.092581 0.000000
# 6 0.000000 0.000000 0.000000 0.000000 0.000000 0.033535
#
#
# Mechanical properties :
#
#
# Convention : Reuss Voigt Hill
#
# Bulk Modulus (GPa) = 35.55733 39.79733 37.67733
# Shear Modulus (GPa) = 14.05168 20.27991 17.16579
#
# Velocity S-wave (km/s) = 2.69469 3.23726 2.97835
# Velocity P-wave (km/s) = 5.29683 5.87697 5.59443
#
# Compressibility (1/GPa) = 0.02812359
#
# Stress axis : x y z
#
# Youngs Moduli (GPa) = 32.15574 32.15866 63.52782
#
# Poissons Ratio (x) = 0.76440 0.03638
# Poissons Ratio (y) = 0.76433 0.03582
# Poissons Ratio (z) = 0.01841 0.01813
#
# Static dielectric constant tensor:
#      x y z
#    x 1.681090 0.000000 0.000000 
#    y 0.000000 1.681090 0.000000 
#    z 0.000000 0.000000 1.713670 
# 
# From -- ./inp_files/3180.got.cif
#   From: 2010.05.17/outbox.cif.g08.bks.cpg/sg138_2_cif.got.tgz:3180.got - 2010.05.20 13:08:53.
