data_PCOD9570178
_publ_section_title
;
Structure prediction by ZEFSAII (Michael W. Deem and Ramdas Pophale) SiO2 
 PCOD9570178
Probable space group: P 42/N M C
;
_chemical_formula_sum "Si O2"
_cell_formula_units_Z 112
_cell_length_a 18.696111
_cell_length_b 18.696111
_cell_length_c 17.506758
_cell_angle_alpha 90.000000
_cell_angle_beta 90.000000
_cell_angle_gamma 90.000000
_cell_volume 6119.392136
_symmetry_space_group_name_H-M "P 42/N M C"
_symmetry_group_IT_number 137
_space_group.IT_coordinate_system_code '2'
_symmetry_cell_setting 'tetragonal'
loop_
_space_group_symop_operation_xyz
x,y,z
1/2-y,x,1/2+z
1/2-x,1/2-y,z
y,1/2-x,1/2+z
1/2+x,-y,-z
-x,1/2+y,-z
1/2+y,1/2+x,1/2-z
-y,-x,1/2-z
-x,-y,-z
1/2+y,-x,1/2-z
1/2+x,1/2+y,-z
-y,1/2+x,1/2-z
1/2-x,y,z
x,1/2-y,z
1/2-y,1/2-x,1/2+z
y,x,1/2+z
loop_
_atom_site_type_symbol
_atom_site_label
_atom_site_fract_x
_atom_site_fract_y
_atom_site_fract_z
Si Si1 0.461445 0.332532 0.420373
Si Si2 0.605102 0.834385 0.167081
Si Si3 0.667344 0.665572 0.838173
Si Si4 0.536701 0.072343 0.828788
Si Si5 0.950026 0.168277 0.264484
Si Si6 0.026691 0.096475 0.131162
Si Si7 0.559336 0.437621 0.503551
O O1 0.455441 0.250000 0.436723
O O2 0.382341 0.361322 0.400785
O O3 0.507612 0.344242 0.342863
O O4 0.511623 0.370157 0.481994
O O5 0.596801 0.750000 0.149058
O O6 0.649139 0.838550 0.246764
O O7 0.531569 0.877007 0.181231
O O8 0.750000 0.649505 0.859168
O O9 0.654534 0.750000 0.850867
O O10 0.609458 0.616872 0.882829
O O11 0.579629 0.079629 0.750000
O O12 0.568541 0.090847 0.911986
O O13 0.520690 0.986127 0.838505
O O14 0.884950 0.115051 0.250000
O O15 0.926700 0.250000 0.262707
O O16 0.850047 0.994858 0.301961
O O17 0.969621 0.109240 0.063055
O O18 0.500000 0.500000 0.500000
#
# Coordination Sequence:
#
# PCOD9570178 Si02
#       7
#    16  16  16  16  16  16  16
#     4  11  20  35  57  85 121 159 197 232 284 351
#     4  11  20  33  54  86 124 160 194 238 291 345
#     4  10  20  32  51  86 127 163 197 232 279 349
#     4  11  20  38  63  81 106 144 197 258 292 335
#     4  11  20  32  55  84 115 154 191 228 281 342
#     4  11  18  34  57  81 111 150 197 233 280 331
#     4  10  21  35  59  83 108 145 194 251 287 329
#
# _framework density 18.302472000000002
#
# number of rings (size 3 to 8) (size 9 to 14) (size 15 to 20)
#    0.000    1.286    7.143    1.286    0.000    1.000 
#    0.000    5.000    0.000    0.000    0.000    0.000 
#    0.000    4.286    0.000    0.000    0.000    0.000 
#
# Total GULP energy -623999.543758 kJ/mol
# GULP energy per Si atom -5571.424498 kJ/mol
# Density = 1.826081 g / cm^3
# Si number density = 18.302472 Si / 1000 Ang^3
#
#
#
# Elastic Constant Matrix: (Units=GPa)
#
#
# Indices 1 2 3 4 5 6 
#
# 1 75.6805 65.3070 9.7512 0.0000 0.0000 0.0000
# 2 65.3070 75.6779 9.7525 0.0000 0.0000 0.0000
# 3 9.7512 9.7525 70.1786 0.0000 0.0000 0.0000
# 4 0.0000 0.0000 0.0000 9.2396 0.0000 0.0000
# 5 0.0000 0.0000 0.0000 0.0000 9.2390 0.0000
# 6 0.0000 0.0000 0.0000 0.0000 0.0000 18.8299
#
#
#
# Elastic Compliance Matrix: (Units=1/GPa)
#
#
# Indices 1 2 3 4 5 6 
#
# 1 0.051821 -0.044590 -0.001004 0.000000 0.000000 0.000000
# 2 -0.044590 0.051823 -0.001006 0.000000 0.000000 0.000000
# 3 -0.001004 -0.001006 0.014529 0.000000 0.000000 0.000000
# 4 0.000000 0.000000 0.000000 0.108230 0.000000 0.000000
# 5 0.000000 0.000000 0.000000 0.000000 0.108237 0.000000
# 6 0.000000 0.000000 0.000000 0.000000 0.000000 0.053107
#
#
# Mechanical properties :
#
#
# Convention : Reuss Voigt Hill
#
# Bulk Modulus (GPa) = 40.04364 43.46203 41.75284
# Shear Modulus (GPa) = 10.21931 16.57678 13.39804
#
# Velocity S-wave (km/s) = 2.36552 3.01277 2.70855
# Velocity P-wave (km/s) = 5.42100 5.99170 5.71348
#
# Compressibility (1/GPa) = 0.02497275
#
# Stress axis : x y z
#
# Youngs Moduli (GPa) = 19.29727 19.29650 68.82957
#
# Poissons Ratio (x) = 0.86043 0.06910
# Poissons Ratio (y) = 0.86046 0.06924
# Poissons Ratio (z) = 0.01937 0.01941
#
# Static dielectric constant tensor:
#      x y z
#    x 1.601720 0.000000 0.000000 
#    y 0.000000 1.601720 0.000000 
#    z 0.000000 0.000000 1.805190 
# 
# From -- ./inp_files/8065.got.cif
#   From: 2010.05.17/outbox.cif.g08.bks.cpg/sg137_5_cif.got.tgz:8065.got - 2010.05.20 13:01:12.
