data_PCOD9570079
_publ_section_title
;
Structure prediction by ZEFSAII (Michael W. Deem and Ramdas Pophale) SiO2 
 PCOD9570079
Probable space group: P 42/N M C
;
_chemical_formula_sum "Si O2"
_cell_formula_units_Z 64
_cell_length_a 26.024757
_cell_length_b 26.024757
_cell_length_c 5.075125
_cell_angle_alpha 90.000000
_cell_angle_beta 90.000000
_cell_angle_gamma 90.000000
_cell_volume 3437.321144
_symmetry_space_group_name_H-M "P 42/N M C"
_symmetry_group_IT_number 137
_space_group.IT_coordinate_system_code '2'
_symmetry_cell_setting 'tetragonal'
loop_
_space_group_symop_operation_xyz
x,y,z
1/2-y,x,1/2+z
1/2-x,1/2-y,z
y,1/2-x,1/2+z
1/2+x,-y,-z
-x,1/2+y,-z
1/2+y,1/2+x,1/2-z
-y,-x,1/2-z
-x,-y,-z
1/2+y,-x,1/2-z
1/2+x,1/2+y,-z
-y,1/2+x,1/2-z
1/2-x,y,z
x,1/2-y,z
1/2-y,1/2-x,1/2+z
y,x,1/2+z
loop_
_atom_site_type_symbol
_atom_site_label
_atom_site_fract_x
_atom_site_fract_y
_atom_site_fract_z
Si Si1 0.139364 0.560263 0.200907
Si Si2 0.402397 0.358460 0.223629
Si Si3 0.250000 0.976757 0.338940
Si Si4 0.250000 0.045926 0.841847
Si Si5 0.910477 0.009962 0.300783
O O1 0.116597 0.616597 0.250000
O O2 0.198451 0.553834 0.271795
O O3 0.107643 0.524632 0.406234
O O4 0.125054 0.541090 0.908891
O O5 0.361860 0.378561 0.435538
O O6 0.422903 0.302002 0.289008
O O7 0.450812 0.397581 0.242332
O O8 0.250000 0.998360 0.635280
O O9 0.250000 0.025014 0.138697
O O10 0.967476 0.032525 0.250000
#
# Coordination Sequence:
#
# PCOD9570079 Si02
#       5
#    16  16   8   8  16
#     4  10  19  32  54  84 116 151 191 235 279 324
#     4  12  24  39  60  86 116 149 189 234 289 336
#     4  12  18  36  62  81 112 157 196 242 268 328
#     4  12  24  40  62  87 108 149 196 238 280 340
#     4  10  20  36  54  84 122 152 183 220 278 350
#
# _framework density 18.619150000000001
#
# number of rings (size 3 to 8) (size 9 to 14) (size 15 to 20)
#    0.000    1.000    5.000    3.000    0.000    1.000 
#    0.000    0.000    0.000    2.625    0.000    0.000 
#    0.000    8.000    0.000    0.000    0.000    1.250 
#
# Total GULP energy -357795.364061 kJ/mol
# GULP energy per Si atom -5590.552563 kJ/mol
# Density = 1.857677 g / cm^3
# Si number density = 18.619150 Si / 1000 Ang^3
#
#
#
# Elastic Constant Matrix: (Units=GPa)
#
#
# Indices 1 2 3 4 5 6 
#
# 1 68.2198 20.8934 -3.4658 0.0000 0.0000 0.0000
# 2 20.8934 68.2211 -3.4657 0.0000 0.0000 0.0000
# 3 -3.4658 -3.4657 46.7570 0.0000 0.0000 0.0000
# 4 0.0000 0.0000 0.0000 19.3899 0.0000 0.0000
# 5 0.0000 0.0000 0.0000 0.0000 19.3889 0.0000
# 6 0.0000 0.0000 0.0000 0.0000 0.0000 23.4247
#
#
#
# Elastic Compliance Matrix: (Units=1/GPa)
#
#
# Indices 1 2 3 4 5 6 
#
# 1 0.016208 -0.004921 0.000837 0.000000 0.000000 0.000000
# 2 -0.004921 0.016208 0.000837 0.000000 0.000000 0.000000
# 3 0.000837 0.000837 0.021511 0.000000 0.000000 0.000000
# 4 0.000000 0.000000 0.000000 0.051573 0.000000 0.000000
# 5 0.000000 0.000000 0.000000 0.000000 0.051576 0.000000
# 6 0.000000 0.000000 0.000000 0.000000 0.000000 0.042690
#
#
# Mechanical properties :
#
#
# Convention : Reuss Voigt Hill
#
# Bulk Modulus (GPa) = 21.08331 23.45798 22.27064
# Shear Modulus (GPa) = 22.51507 23.72309 23.11908
#
# Velocity S-wave (km/s) = 3.48119 3.57336 3.52757
# Velocity P-wave (km/s) = 5.24464 5.44531 5.34592
#
# Compressibility (1/GPa) = 0.04743089
#
# Stress axis : x y z
#
# Youngs Moduli (GPa) = 61.69691 61.69806 46.48744
#
# Poissons Ratio (x) = 0.30364 -0.03889
# Poissons Ratio (y) = 0.30364 -0.03889
# Poissons Ratio (z) = -0.05162 -0.05161
#
# Static dielectric constant tensor:
#      x y z
#    x 1.632570 0.000000 0.000000 
#    y 0.000000 1.632570 0.000000 
#    z 0.000000 0.000000 1.650520 
# 
# From -- ./inp_files/476.got.cif
#   From: 2010.05.17/outbox.cif.g08.bks.cpg/sg137_1_cif.got.tgz:476.got - 2010.05.20 13:01:12.
