data_PCOD9570075
_publ_section_title
;
Structure prediction by ZEFSAII (Michael W. Deem and Ramdas Pophale) SiO2 
 PCOD9570075
Probable space group: P 42/N M C
;
_chemical_formula_sum "Si O2"
_cell_formula_units_Z 112
_cell_length_a 15.402013
_cell_length_b 15.402013
_cell_length_c 24.673040
_cell_angle_alpha 90.000000
_cell_angle_beta 90.000000
_cell_angle_gamma 90.000000
_cell_volume 5852.988005
_symmetry_space_group_name_H-M "P 42/N M C"
_symmetry_group_IT_number 137
_space_group.IT_coordinate_system_code '2'
_symmetry_cell_setting 'tetragonal'
loop_
_space_group_symop_operation_xyz
x,y,z
1/2-y,x,1/2+z
1/2-x,1/2-y,z
y,1/2-x,1/2+z
1/2+x,-y,-z
-x,1/2+y,-z
1/2+y,1/2+x,1/2-z
-y,-x,1/2-z
-x,-y,-z
1/2+y,-x,1/2-z
1/2+x,1/2+y,-z
-y,1/2+x,1/2-z
1/2-x,y,z
x,1/2-y,z
1/2-y,1/2-x,1/2+z
y,x,1/2+z
loop_
_atom_site_type_symbol
_atom_site_label
_atom_site_fract_x
_atom_site_fract_y
_atom_site_fract_z
Si Si1 0.156058 0.147744 0.040353
Si Si2 0.348343 0.964380 0.211723
Si Si3 0.087646 0.849950 0.805110
Si Si4 0.349364 0.647658 0.102248
Si Si5 0.843271 0.354176 0.083878
Si Si6 0.519525 0.100086 0.993538
Si Si7 0.386893 0.351641 0.163826
O O1 0.250000 0.109483 0.024536
O O2 0.165356 0.250000 0.045883
O O3 0.132900 0.119919 0.101824
O O4 0.076923 0.137704 0.999095
O O5 0.421887 0.921887 0.250000
O O6 0.250000 0.945746 0.232204
O O7 0.357367 0.913969 0.154381
O O8 0.354816 0.068310 0.201100
O O9 0.098145 0.901856 0.750000
O O10 0.114223 0.750000 0.793851
O O11 0.142652 0.886891 0.855119
O O12 0.989641 0.848564 0.826418
O O13 0.250000 0.636575 0.080766
O O14 0.358033 0.750000 0.116331
O O15 0.422794 0.624334 0.058314
O O16 0.750000 0.383996 0.062288
O O17 0.841628 0.250000 0.088204
O O18 0.922314 0.374002 0.044893
O O19 0.500000 0.000000 0.000000
O O20 0.356230 0.250000 0.172063
#
# Coordination Sequence:
#
# PCOD9570075 Si02
#       7
#    16  16  16  16  16  16  16
#     4  10  20  36  58  81 110 151 198 243 286 339
#     4  11  23  40  64  92 121 154 200 254 308 365
#     4  10  19  32  53  83 120 159 196 234 285 351
#     4  10  22  40  63  90 119 154 198 253 316 373
#     4  10  20  35  56  81 114 155 193 233 287 353
#     4  12  23  35  55  82 117 152 193 244 302 360
#     4  10  20  36  58  87 122 157 196 244 297 355
#
# _framework density 19.135525999999999
#
# number of rings (size 3 to 8) (size 9 to 14) (size 15 to 20)
#    0.000    1.571    1.429    4.286    0.000    5.714 
#    0.000    0.000    0.000    0.857    0.000    0.000 
#    0.000    0.000    0.000    0.000    0.000    0.000 
#
# Total GULP energy -624352.148444 kJ/mol
# GULP energy per Si atom -5574.572754 kJ/mol
# Density = 1.909197 g / cm^3
# Si number density = 19.135526 Si / 1000 Ang^3
#
#
#
# Elastic Constant Matrix: (Units=GPa)
#
#
# Indices 1 2 3 4 5 6 
#
# 1 105.3853 28.8857 33.0007 0.0000 0.0000 0.0000
# 2 28.8857 105.3851 33.0004 0.0000 0.0000 0.0000
# 3 33.0007 33.0004 67.1891 0.0000 0.0000 0.0000
# 4 0.0000 0.0000 0.0000 13.0365 0.0000 0.0000
# 5 0.0000 0.0000 0.0000 0.0000 13.0366 0.0000
# 6 0.0000 0.0000 0.0000 0.0000 0.0000 18.1553
#
#
#
# Elastic Compliance Matrix: (Units=1/GPa)
#
#
# Indices 1 2 3 4 5 6 
#
# 1 0.011445 -0.001627 -0.004822 0.000000 0.000000 0.000000
# 2 -0.001627 0.011445 -0.004822 0.000000 0.000000 0.000000
# 3 -0.004822 -0.004822 0.019620 0.000000 0.000000 0.000000
# 4 0.000000 0.000000 0.000000 0.076707 0.000000 0.000000
# 5 0.000000 0.000000 0.000000 0.000000 0.076707 0.000000
# 6 0.000000 0.000000 0.000000 0.000000 0.000000 0.055080
#
#
# Mechanical properties :
#
#
# Convention : Reuss Voigt Hill
#
# Bulk Modulus (GPa) = 50.08139 51.97033 51.02586
# Shear Modulus (GPa) = 17.84417 21.05054 19.44736
#
# Velocity S-wave (km/s) = 3.05702 3.32034 3.19140
# Velocity P-wave (km/s) = 6.22007 6.47438 6.34850
#
# Compressibility (1/GPa) = 0.01996750
#
# Stress axis : x y z
#
# Youngs Moduli (GPa) = 87.37445 87.37462 50.96767
#
# Poissons Ratio (x) = 0.14216 0.24578
# Poissons Ratio (y) = 0.14216 0.24577
# Poissons Ratio (z) = 0.42134 0.42133
#
# Static dielectric constant tensor:
#      x y z
#    x 1.680090 0.000000 0.000000 
#    y 0.000000 1.680090 0.000000 
#    z 0.000000 0.000000 1.462090 
# 
# From -- ./inp_files/8935.got.cif
#   From: 2010.05.17/outbox.cif.g08.bks.cpg/sg137_5_cif.got.tgz:8935.got - 2010.05.20 13:01:12.
