data_PCOD9570102
_publ_section_title
;
Structure prediction by ZEFSAII (Michael W. Deem and Ramdas Pophale) SiO2 
 PCOD9570102
Probable space group: P 42/N M C
;
_chemical_formula_sum "Si O2"
_cell_formula_units_Z 64
_cell_length_a 17.164307
_cell_length_b 17.164307
_cell_length_c 10.941945
_cell_angle_alpha 90.000000
_cell_angle_beta 90.000000
_cell_angle_gamma 90.000000
_cell_volume 3223.644000
_symmetry_space_group_name_H-M "P 42/N M C"
_symmetry_group_IT_number 137
_space_group.IT_coordinate_system_code '2'
_symmetry_cell_setting 'tetragonal'
loop_
_space_group_symop_operation_xyz
x,y,z
1/2-y,x,1/2+z
1/2-x,1/2-y,z
y,1/2-x,1/2+z
1/2+x,-y,-z
-x,1/2+y,-z
1/2+y,1/2+x,1/2-z
-y,-x,1/2-z
-x,-y,-z
1/2+y,-x,1/2-z
1/2+x,1/2+y,-z
-y,1/2+x,1/2-z
1/2-x,y,z
x,1/2-y,z
1/2-y,1/2-x,1/2+z
y,x,1/2+z
loop_
_atom_site_type_symbol
_atom_site_label
_atom_site_fract_x
_atom_site_fract_y
_atom_site_fract_z
Si Si1 0.579541 0.658963 0.737374
Si Si2 0.661084 0.338917 0.750000
Si Si3 0.415710 0.597387 0.013946
Si Si4 0.593668 0.406333 0.250000
Si Si5 0.601938 0.585038 0.980831
O O1 0.562428 0.750000 0.753508
O O2 0.498292 0.610562 0.737044
O O3 0.624841 0.626977 0.855118
O O4 0.613990 0.644295 0.603199
O O5 0.750000 0.350076 0.789413
O O6 0.608567 0.356595 0.866798
O O7 0.387602 0.508127 0.031934
O O8 0.383149 0.627250 0.882541
O O9 0.509275 0.597289 0.001714
#
# Coordination Sequence:
#
# PCOD9570102 Si02
#       5
#    16   8  16   8  16
#     4  10  19  33  56  83 109 138 175 223 275 323
#     4  11  24  37  50  79 122 157 180 204 250 328
#     4   9  17  34  58  77 104 143 181 228 272 305
#     4   8  18  33  54  82 106 127 168 222 274 324
#     4   9  18  34  56  81 104 134 184 235 272 311
#
# _framework density 19.853308999999999
#
# number of rings (size 3 to 8) (size 9 to 14) (size 15 to 20)
#    0.000    2.625    0.000    3.000    0.000   10.000 
#    0.000    1.250    0.000    4.125    0.000    0.000 
#    0.000    0.000    0.000    0.000    0.000    0.000 
#
# Total GULP energy -356590.827535 kJ/mol
# GULP energy per Si atom -5571.731680 kJ/mol
# Density = 1.980812 g / cm^3
# Si number density = 19.853309 Si / 1000 Ang^3
#
#
#
# Elastic Constant Matrix: (Units=GPa)
#
#
# Indices 1 2 3 4 5 6 
#
# 1 5.4679 24.2409 10.3791 0.0000 0.0000 0.0000
# 2 24.2409 5.4694 10.3796 0.0000 0.0000 0.0000
# 3 10.3791 10.3796 122.6766 0.0000 0.0000 0.0000
# 4 0.0000 0.0000 0.0000 -0.0396 0.0000 0.0000
# 5 0.0000 0.0000 0.0000 0.0000 -0.0422 0.0000
# 6 0.0000 0.0000 0.0000 0.0000 0.0000 11.3954
#
#
#
# Elastic Compliance Matrix: (Units=1/GPa)
#
#
# Indices 1 2 3 4 5 6 
#
# 1 -0.008749 0.044522 -0.003027 0.000000 0.000000 0.000000
# 2 0.044522 -0.008747 -0.003027 0.000000 0.000000 0.000000
# 3 -0.003027 -0.003027 0.008664 0.000000 0.000000 0.000000
# 4 0.000000 0.000000 0.000000-25.233269 0.000000 0.000000
# 5 0.000000 0.000000 0.000000 0.000000-23.689831 0.000000
# 6 0.000000 0.000000 0.000000 0.000000 0.000000 0.087755
#
#
# Mechanical properties :
#
#
# Convention : Reuss Voigt Hill
#
# Bulk Modulus (GPa) = 14.68327 24.84591 19.76459
# Shear Modulus (GPa) = -0.10225 8.17032 4.03403
#
# Velocity S-wave (km/s) = -0.22719 2.03083 1.42700
# Velocity P-wave (km/s) = 2.70982 4.24746 3.56259
#
# Compressibility (1/GPa) = 0.06810471
#
# Stress axis : x y z
#
# Youngs Moduli (GPa) = -114.29304 -114.33013 115.42431
#
# Poissons Ratio (x) = 5.09021 0.34936
# Poissons Ratio (y) = 5.08856 0.34936
# Poissons Ratio (z) = -0.34593 -0.34605
#
# Static dielectric constant tensor:
#      x y z
#    x 1.713230 0.000000 0.000000 
#    y 0.000000 1.713230 0.000000 
#    z 0.000000 0.000000 1.755730 
# 
# From -- ./inp_files/3371.got.cif
#   From: 2010.05.17/outbox.cif.g08.bks.cpg/sg137_2_cif.got.tgz:3371.got - 2010.05.20 13:01:12.
