data_PCOD9570175
_publ_section_title
;
Structure prediction by ZEFSAII (Michael W. Deem and Ramdas Pophale) SiO2 
 PCOD9570175
Probable space group: P 42/N M C
;
_chemical_formula_sum "Si O2"
_cell_formula_units_Z 112
_cell_length_a 14.934924
_cell_length_b 14.934924
_cell_length_c 30.707388
_cell_angle_alpha 90.000000
_cell_angle_beta 90.000000
_cell_angle_gamma 90.000000
_cell_volume 6849.342923
_symmetry_space_group_name_H-M "P 42/N M C"
_symmetry_group_IT_number 137
_space_group.IT_coordinate_system_code '2'
_symmetry_cell_setting 'tetragonal'
loop_
_space_group_symop_operation_xyz
x,y,z
1/2-y,x,1/2+z
1/2-x,1/2-y,z
y,1/2-x,1/2+z
1/2+x,-y,-z
-x,1/2+y,-z
1/2+y,1/2+x,1/2-z
-y,-x,1/2-z
-x,-y,-z
1/2+y,-x,1/2-z
1/2+x,1/2+y,-z
-y,1/2+x,1/2-z
1/2-x,y,z
x,1/2-y,z
1/2-y,1/2-x,1/2+z
y,x,1/2+z
loop_
_atom_site_type_symbol
_atom_site_label
_atom_site_fract_x
_atom_site_fract_y
_atom_site_fract_z
Si Si1 0.142152 0.147078 0.833855
Si Si2 0.151782 0.642223 0.871148
Si Si3 0.652005 0.952170 0.983027
Si Si4 0.080126 0.145509 0.931728
Si Si5 0.847760 0.104361 0.526498
Si Si6 0.497603 0.350931 0.064283
Si Si7 0.645922 0.470633 0.217256
O O1 0.250000 0.146268 0.835510
O O2 0.113841 0.250000 0.823974
O O3 0.109311 0.124174 0.882711
O O4 0.117851 0.069802 0.799255
O O5 0.250000 0.623066 0.891519
O O6 0.146916 0.750000 0.865469
O O7 0.148236 0.591412 0.825717
O O8 0.068553 0.614798 0.900706
O O9 0.750000 0.913485 0.976791
O O10 0.584322 0.913870 0.947252
O O11 0.654664 0.058940 0.977471
O O12 0.618835 0.919735 0.030885
O O13 0.107419 0.250000 0.940843
O O14 0.973079 0.143068 0.937254
O O15 0.750000 0.148505 0.532001
O O16 0.843528 0.051362 0.480857
O O17 0.468520 0.250000 0.076300
O O18 0.577662 0.422339 0.250000
O O19 0.750000 0.474027 0.233745
#
# Coordination Sequence:
#
# PCOD9570175 Si02
#       7
#    16  16  16  16  16  16  16
#     4   9  18  31  49  76 104 127 158 200 245 295
#     4   9  18  31  49  73 100 132 166 200 242 295
#     4  11  21  29  45  68  96 137 175 209 247 289
#     4   9  17  31  50  71  95 125 165 212 255 290
#     4   9  19  32  44  62  92 130 168 210 252 285
#     4   9  18  32  47  66  94 126 165 209 244 282
#     4  10  20  32  51  77 105 133 157 190 241 301
#
# _framework density 16.351932999999999
#
# number of rings (size 3 to 8) (size 9 to 14) (size 15 to 20)
#    0.000    2.571    0.000    3.857    4.000    3.286 
#    0.000    1.429    0.000    0.857    0.000    2.000 
#    0.000    0.286    0.000    0.000    0.000    0.000 
#
# Total GULP energy -623737.439368 kJ/mol
# GULP energy per Si atom -5569.084280 kJ/mol
# Density = 1.631472 g / cm^3
# Si number density = 16.351933 Si / 1000 Ang^3
#
#
#
# Elastic Constant Matrix: (Units=GPa)
#
#
# Indices 1 2 3 4 5 6 
#
# 1 93.6670 53.2885 41.6341 0.0000 0.0000 0.0000
# 2 53.2885 93.6670 41.6342 0.0000 0.0000 0.0000
# 3 41.6341 41.6342 59.2064 0.0000 0.0000 0.0000
# 4 0.0000 0.0000 0.0000 12.0951 0.0000 0.0000
# 5 0.0000 0.0000 0.0000 0.0000 12.1035 0.0000
# 6 0.0000 0.0000 0.0000 0.0000 0.0000 -5.0304
#
#
#
# Elastic Compliance Matrix: (Units=1/GPa)
#
#
# Indices 1 2 3 4 5 6 
#
# 1 0.018039 -0.006727 -0.007955 0.000000 0.000000 0.000000
# 2 -0.006727 0.018039 -0.007955 0.000000 0.000000 0.000000
# 3 -0.007955 -0.007955 0.028078 0.000000 0.000000 0.000000
# 4 0.000000 0.000000 0.000000 0.082678 0.000000 0.000000
# 5 0.000000 0.000000 0.000000 0.000000 0.082621 0.000000
# 6 0.000000 0.000000 0.000000 0.000000 0.000000 -0.198790
#
#
# Mechanical properties :
#
#
# Convention : Reuss Voigt Hill
#
# Bulk Modulus (GPa) = 52.95772 57.73934 55.34853
# Shear Modulus (GPa) = 60.80385 11.16585 35.98485
#
# Velocity S-wave (km/s) = 6.10452 2.61597 4.69620
# Velocity P-wave (km/s) = 9.06330 6.67169 7.95786
#
# Compressibility (1/GPa) = 0.01888299
#
# Stress axis : x y z
#
# Youngs Moduli (GPa) = 55.43586 55.43569 35.61555
#
# Poissons Ratio (x) = 0.37290 0.28331
# Poissons Ratio (y) = 0.37291 0.28331
# Poissons Ratio (z) = 0.44097 0.44098
#
# Static dielectric constant tensor:
#      x y z
#    x 1.590190 0.000000 0.000000 
#    y 0.000000 1.590190 0.000000 
#    z 0.000000 0.000000 1.521950 
# 
# From -- ./inp_files/10696.got.cif
#   From: 2010.05.17/outbox.cif.g08.bks.cpg/sg137_6_cif.got.tgz:10696.got - 2010.05.20 13:01:12.
