data_PCOD9570764
_publ_section_title
;
Structure prediction by ZEFSAII (Michael W. Deem and Ramdas Pophale) SiO2 
 PCOD9570764
Probable space group: P 42/N C M
;
_chemical_formula_sum "Si O2"
_cell_formula_units_Z 80
_cell_length_a 10.480754
_cell_length_b 10.480754
_cell_length_c 32.417064
_cell_angle_alpha 90.000000
_cell_angle_beta 90.000000
_cell_angle_gamma 90.000000
_cell_volume 3560.891438
_symmetry_space_group_name_H-M "P 42/N C M"
_symmetry_group_IT_number 138
_space_group.IT_coordinate_system_code '2'
_symmetry_cell_setting 'tetragonal'
loop_
_space_group_symop_operation_xyz
x,y,z
1/2-y,x,1/2+z
1/2-x,1/2-y,z
y,1/2-x,1/2+z
1/2+x,-y,1/2-z
-x,1/2+y,1/2-z
1/2+y,1/2+x,-z
-y,-x,-z
-x,-y,-z
1/2+y,-x,1/2-z
1/2+x,1/2+y,-z
-y,1/2+x,1/2-z
1/2-x,y,1/2+z
x,1/2-y,1/2+z
1/2-y,1/2-x,z
y,x,z
loop_
_atom_site_type_symbol
_atom_site_label
_atom_site_fract_x
_atom_site_fract_y
_atom_site_fract_z
Si Si1 0.703311 0.498321 0.982455
Si Si2 0.547894 0.748042 0.072360
Si Si3 0.571616 0.147038 0.188432
Si Si4 0.352960 0.573434 0.598742
Si Si5 0.963258 0.745049 0.728146
O O1 0.625356 0.625356 0.971634
O O2 0.771958 0.449405 0.942063
O O3 0.606023 0.393978 0.000000
O O4 0.780411 0.527626 0.024046
O O5 0.657564 0.842437 0.088484
O O6 0.605820 0.605820 0.074928
O O7 0.420790 0.788749 0.095054
O O8 0.566879 0.210562 0.143571
O O9 0.531438 0.231164 0.227462
O O10 0.463834 0.036167 0.187207
O O11 0.703665 0.072017 0.197325
O O12 0.464256 0.464256 0.597273
O O13 0.886269 0.613732 0.718420
O O14 0.854680 0.854680 0.730250
#
# Coordination Sequence:
#
# PCOD9570764 Si02
#       5
#    16  16  16  16  16
#     4  10  21  36  52  73 107 147 181 218 271 331
#     4   9  18  33  52  74 103 140 178 216 266 326
#     4   9  19  35  56  84 110 138 185 232 278 343
#     4  10  20  34  56  84 109 137 183 239 280 321
#     4   9  18  35  57  79 112 153 185 228 291 353
#
# _framework density 22.466287000000001
#
# number of rings (size 3 to 8) (size 9 to 14) (size 15 to 20)
#    0.000    2.600    0.000    1.200    0.000    6.400 
#    0.000   10.000    0.000    7.200    0.000    0.000 
#    0.000    0.000    0.000    0.000    0.000    0.000 
#
# Total GULP energy -446364.503365 kJ/mol
# GULP energy per Si atom -5579.556292 kJ/mol
# Density = 2.241515 g / cm^3
# Si number density = 22.466287 Si / 1000 Ang^3
#
#
#
# Elastic Constant Matrix: (Units=GPa)
#
#
# Indices 1 2 3 4 5 6 
#
# 1 21.3976 4.5748 11.0437 0.0000 0.0000 0.0000
# 2 4.5748 21.3946 11.0414 0.0000 0.0000 0.0000
# 3 11.0437 11.0414 81.7763 0.0000 0.0000 0.0000
# 4 0.0000 0.0000 0.0000 17.6343 0.0000 0.0000
# 5 0.0000 0.0000 0.0000 0.0000 17.6337 0.0000
# 6 0.0000 0.0000 0.0000 0.0000 0.0000 18.3808
#
#
#
# Elastic Compliance Matrix: (Units=1/GPa)
#
#
# Indices 1 2 3 4 5 6 
#
# 1 0.051471 -0.007974 -0.005874 0.000000 0.000000 0.000000
# 2 -0.007974 0.051477 -0.005873 0.000000 0.000000 0.000000
# 3 -0.005874 -0.005873 0.013815 0.000000 0.000000 0.000000
# 4 0.000000 0.000000 0.000000 0.056708 0.000000 0.000000
# 5 0.000000 0.000000 0.000000 0.000000 0.056710 0.000000
# 6 0.000000 0.000000 0.000000 0.000000 0.000000 0.054405
#
#
# Mechanical properties :
#
#
# Convention : Reuss Voigt Hill
#
# Bulk Modulus (GPa) = 12.93351 19.76537 16.34944
# Shear Modulus (GPa) = 14.29380 17.25699 15.77539
#
# Velocity S-wave (km/s) = 2.52510 2.77452 2.65274
# Velocity P-wave (km/s) = 3.77768 4.36816 4.08361
#
# Compressibility (1/GPa) = 0.07731853
#
# Stress axis : x y z
#
# Youngs Moduli (GPa) = 19.42839 19.42615 72.38588
#
# Poissons Ratio (x) = 0.15491 0.42522
# Poissons Ratio (y) = 0.15493 0.42516
# Poissons Ratio (z) = 0.11413 0.11410
#
# Static dielectric constant tensor:
#      x y z
#    x 1.893180 0.000000 0.000000 
#    y 0.000000 1.893180 0.000000 
#    z 0.000000 0.000000 1.800410 
# 
# From -- ./inp_files/7916.got.cif
#   From: 2010.05.17/outbox.cif.g08.bks.cpg/sg138_4_cif.got.tgz:7916.got - 2010.05.20 13:08:53.
