data_PCOD9570207
_publ_section_title
;
Structure prediction by ZEFSAII (Michael W. Deem and Ramdas Pophale) SiO2 
 PCOD9570207
Probable space group: P 42/N M C
;
_chemical_formula_sum "Si O2"
_cell_formula_units_Z 112
_cell_length_a 14.917934
_cell_length_b 14.917934
_cell_length_c 26.552862
_cell_angle_alpha 90.000000
_cell_angle_beta 90.000000
_cell_angle_gamma 90.000000
_cell_volume 5909.200164
_symmetry_space_group_name_H-M "P 42/N M C"
_symmetry_group_IT_number 137
_space_group.IT_coordinate_system_code '2'
_symmetry_cell_setting 'tetragonal'
loop_
_space_group_symop_operation_xyz
x,y,z
1/2-y,x,1/2+z
1/2-x,1/2-y,z
y,1/2-x,1/2+z
1/2+x,-y,-z
-x,1/2+y,-z
1/2+y,1/2+x,1/2-z
-y,-x,1/2-z
-x,-y,-z
1/2+y,-x,1/2-z
1/2+x,1/2+y,-z
-y,1/2+x,1/2-z
1/2-x,y,z
x,1/2-y,z
1/2-y,1/2-x,1/2+z
y,x,1/2+z
loop_
_atom_site_type_symbol
_atom_site_label
_atom_site_fract_x
_atom_site_fract_y
_atom_site_fract_z
Si Si1 0.465449 0.352477 0.123840
Si Si2 0.849205 0.918977 0.056942
Si Si3 0.646435 0.031289 0.600057
Si Si4 0.355566 0.490370 0.055781
Si Si5 0.854688 0.652706 0.281306
Si Si6 0.648349 0.066871 0.144942
Si Si7 0.530951 0.565677 0.205296
O O1 0.441096 0.250000 0.112525
O O2 0.418100 0.419277 0.085150
O O3 0.423550 0.376396 0.178302
O O4 0.572363 0.363215 0.127868
O O5 0.750000 0.874781 0.056794
O O6 0.935254 0.860386 0.071519
O O7 0.846810 0.995479 0.099559
O O8 0.862155 0.965880 0.003034
O O9 0.750000 0.056871 0.605387
O O10 0.586785 0.102949 0.569668
O O11 0.599602 0.016876 0.654711
O O12 0.250000 0.484502 0.069797
O O13 0.750000 0.645150 0.269325
O O14 0.870549 0.750000 0.305160
O O15 0.910420 0.642992 0.230794
O O16 0.750000 0.097940 0.155615
O O17 0.602015 0.012080 0.190490
O O18 0.466349 0.533652 0.250000
#
# Coordination Sequence:
#
# PCOD9570207 Si02
#       7
#    16  16  16  16  16  16  16
#     4  11  22  37  59  86 116 154 202 250 304 361
#     4   9  20  39  64  88 118 158 197 243 304 367
#     4  11  23  38  61  93 126 159 203 254 310 368
#     4  11  22  41  63  86 122 162 203 251 305 363
#     4  10  20  34  53  80 112 146 192 245 293 348
#     4  10  20  37  59  84 119 155 194 246 302 364
#     4  11  19  36  59  84 115 160 202 244 296 361
#
# _framework density 18.953495
#
# number of rings (size 3 to 8) (size 9 to 14) (size 15 to 20)
#    0.000    1.571    4.286    1.714    0.000    2.857 
#    0.000    2.143    0.000    2.571    0.000    0.000 
#    0.000    0.000    0.000    0.000    0.000    0.000 
#
# Total GULP energy -624608.717272 kJ/mol
# GULP energy per Si atom -5576.863547 kJ/mol
# Density = 1.891036 g / cm^3
# Si number density = 18.953495 Si / 1000 Ang^3
#
#
#
# Elastic Constant Matrix: (Units=GPa)
#
#
# Indices 1 2 3 4 5 6 
#
# 1 90.9761 37.7948 26.8325 0.0000 0.0000 0.0000
# 2 37.7948 90.9744 26.8316 0.0000 0.0000 0.0000
# 3 26.8325 26.8316 67.0695 0.0000 0.0000 0.0000
# 4 0.0000 0.0000 0.0000 12.2311 0.0000 0.0000
# 5 0.0000 0.0000 0.0000 0.0000 12.2314 0.0000
# 6 0.0000 0.0000 0.0000 0.0000 0.0000 9.3795
#
#
#
# Elastic Compliance Matrix: (Units=1/GPa)
#
#
# Indices 1 2 3 4 5 6 
#
# 1 0.014062 -0.004742 -0.003729 0.000000 0.000000 0.000000
# 2 -0.004742 0.014062 -0.003728 0.000000 0.000000 0.000000
# 3 -0.003729 -0.003728 0.017893 0.000000 0.000000 0.000000
# 4 0.000000 0.000000 0.000000 0.081759 0.000000 0.000000
# 5 0.000000 0.000000 0.000000 0.000000 0.081757 0.000000
# 6 0.000000 0.000000 0.000000 0.000000 0.000000 0.106616
#
#
# Mechanical properties :
#
#
# Convention : Reuss Voigt Hill
#
# Bulk Modulus (GPa) = 46.25649 47.99308 47.12479
# Shear Modulus (GPa) = 14.37804 17.27246 15.82525
#
# Velocity S-wave (km/s) = 2.75725 3.02206 2.89269
# Velocity P-wave (km/s) = 5.88174 6.12810 6.00618
#
# Compressibility (1/GPa) = 0.02161859
#
# Stress axis : x y z
#
# Youngs Moduli (GPa) = 71.11537 71.11450 55.88746
#
# Poissons Ratio (x) = 0.33724 0.20838
# Poissons Ratio (y) = 0.33724 0.20837
# Poissons Ratio (z) = 0.26515 0.26514
#
# Static dielectric constant tensor:
#      x y z
#    x 1.680700 0.000000 0.000000 
#    y 0.000000 1.680700 0.000000 
#    z 0.000000 0.000000 1.654610 
# 
# From -- ./inp_files/9008.got.cif
#   From: 2010.05.17/outbox.cif.g08.bks.cpg/sg137_5_cif.got.tgz:9008.got - 2010.05.20 13:01:12.
