data_PCOD9570141
_publ_section_title
;
Structure prediction by ZEFSAII (Michael W. Deem and Ramdas Pophale) SiO2 
 PCOD9570141
Probable space group: P 42/N M C
;
_chemical_formula_sum "Si O2"
_cell_formula_units_Z 112
_cell_length_a 14.213172
_cell_length_b 14.213172
_cell_length_c 28.593893
_cell_angle_alpha 90.000000
_cell_angle_beta 90.000000
_cell_angle_gamma 90.000000
_cell_volume 5776.374086
_symmetry_space_group_name_H-M "P 42/N M C"
_symmetry_group_IT_number 137
_space_group.IT_coordinate_system_code '2'
_symmetry_cell_setting 'tetragonal'
loop_
_space_group_symop_operation_xyz
x,y,z
1/2-y,x,1/2+z
1/2-x,1/2-y,z
y,1/2-x,1/2+z
1/2+x,-y,-z
-x,1/2+y,-z
1/2+y,1/2+x,1/2-z
-y,-x,1/2-z
-x,-y,-z
1/2+y,-x,1/2-z
1/2+x,1/2+y,-z
-y,1/2+x,1/2-z
1/2-x,y,z
x,1/2-y,z
1/2-y,1/2-x,1/2+z
y,x,1/2+z
loop_
_atom_site_type_symbol
_atom_site_label
_atom_site_fract_x
_atom_site_fract_y
_atom_site_fract_z
Si Si1 0.644261 0.929658 0.085510
Si Si2 0.142825 0.362500 0.739135
Si Si3 0.560885 0.356175 0.613826
Si Si4 0.976509 0.636462 0.172186
Si Si5 0.354934 0.091486 0.633364
Si Si6 0.901564 0.148120 0.074132
Si Si7 0.899711 0.478838 0.523091
O O1 0.750000 0.895942 0.083125
O O2 0.596572 0.906088 0.134836
O O3 0.577865 0.877651 0.047683
O O4 0.643701 0.043908 0.078388
O O5 0.250000 0.378613 0.757064
O O6 0.134961 0.250000 0.730045
O O7 0.063961 0.388108 0.776841
O O8 0.133966 0.412671 0.689327
O O9 0.595321 0.250000 0.617934
O O10 0.596223 0.422874 0.655968
O O11 0.447161 0.356980 0.614262
O O12 0.593741 0.404851 0.565555
O O13 0.977893 0.750000 0.168397
O O14 0.250000 0.132184 0.624504
O O15 0.357036 0.990165 0.609065
O O16 0.854318 0.250000 0.083972
O O17 0.938890 0.154291 0.020973
O O18 0.000000 0.500000 0.500000
#
# Coordination Sequence:
#
# PCOD9570141 Si02
#       7
#    16  16  16  16  16  16  16
#     4  10  20  36  58  85 113 147 191 239 292 347
#     4   9  18  33  57  88 116 148 194 243 292 350
#     4  11  22  37  59  89 121 156 197 245 301 355
#     4  10  21  39  58  81 116 157 199 244 290 348
#     4  10  19  36  60  86 117 149 188 240 294 348
#     4  10  20  38  59  82 116 153 190 239 296 357
#     4   9  18  36  52  79 110 153 188 235 281 349
#
# _framework density 19.389326000000001
#
# number of rings (size 3 to 8) (size 9 to 14) (size 15 to 20)
#    0.000    2.143    4.286    0.857    0.000    7.429 
#    0.000    0.000    0.000    0.000    0.000    2.000 
#    0.000    3.429    0.000    0.000    0.000    0.000 
#
# Total GULP energy -623904.436692 kJ/mol
# GULP energy per Si atom -5570.575328 kJ/mol
# Density = 1.934520 g / cm^3
# Si number density = 19.389326 Si / 1000 Ang^3
#
#
#
# Elastic Constant Matrix: (Units=GPa)
#
#
# Indices 1 2 3 4 5 6 
#
# 1 106.8406 24.3835 38.2971 0.0000 0.0000 0.0000
# 2 24.3835 106.8406 38.2971 0.0000 0.0000 0.0000
# 3 38.2971 38.2971 106.1559 0.0000 0.0000 0.0000
# 4 0.0000 0.0000 0.0000 -14.5993 0.0000 0.0000
# 5 0.0000 0.0000 0.0000 0.0000 -14.5993 0.0000
# 6 0.0000 0.0000 0.0000 0.0000 0.0000 8.3307
#
#
#
# Elastic Compliance Matrix: (Units=1/GPa)
#
#
# Indices 1 2 3 4 5 6 
#
# 1 0.010890 -0.001237 -0.003483 0.000000 0.000000 0.000000
# 2 -0.001237 0.010890 -0.003483 0.000000 0.000000 0.000000
# 3 -0.003483 -0.003483 0.011933 0.000000 0.000000 0.000000
# 4 0.000000 0.000000 0.000000 -0.068496 0.000000 0.000000
# 5 0.000000 0.000000 0.000000 0.000000 -0.068496 0.000000
# 6 0.000000 0.000000 0.000000 0.000000 0.000000 0.120038
#
#
# Mechanical properties :
#
#
# Convention : Reuss Voigt Hill
#
# Bulk Modulus (GPa) = 57.77263 57.97694 57.87478
# Shear Modulus (GPa) = 128.42503 10.41704 69.42103
#
# Velocity S-wave (km/s) = 8.14731 2.32039 5.99011
# Velocity P-wave (km/s) = 10.87960 6.09470 8.81791
#
# Compressibility (1/GPa) = 0.01730924
#
# Stress axis : x y z
#
# Youngs Moduli (GPa) = 91.82402 91.82402 83.80231
#
# Poissons Ratio (x) = 0.11360 0.29184
# Poissons Ratio (y) = 0.11360 0.29184
# Poissons Ratio (z) = 0.31978 0.31978
#
# Static dielectric constant tensor:
#      x y z
#    x 1.653760 0.000000 0.000000 
#    y 0.000000 1.653760 0.000000 
#    z 0.000000 0.000000 1.668920 
# 
# From -- ./inp_files/9810.got.cif
#   From: 2010.05.17/outbox.cif.g08.bks.cpg/sg137_5_cif.got.tgz:9810.got - 2010.05.20 13:01:12.
