data_PCOD9570530
_publ_section_title
;
Structure prediction by ZEFSAII (Michael W. Deem and Ramdas Pophale) SiO2 
 PCOD9570530
Probable space group: P 42/N M C
;
_chemical_formula_sum "Si O2"
_cell_formula_units_Z 36
_cell_length_a 13.841426
_cell_length_b 13.841426
_cell_length_c 9.693785
_cell_angle_alpha 90.000000
_cell_angle_beta 90.000000
_cell_angle_gamma 90.000000
_cell_volume 1857.184514
_symmetry_space_group_name_H-M "P 42/N M C"
_symmetry_group_IT_number 137
_space_group.IT_coordinate_system_code '2'
_symmetry_cell_setting 'tetragonal'
loop_
_space_group_symop_operation_xyz
x,y,z
1/2-y,x,1/2+z
1/2-x,1/2-y,z
y,1/2-x,1/2+z
1/2+x,-y,-z
-x,1/2+y,-z
1/2+y,1/2+x,1/2-z
-y,-x,1/2-z
-x,-y,-z
1/2+y,-x,1/2-z
1/2+x,1/2+y,-z
-y,1/2+x,1/2-z
1/2-x,y,z
x,1/2-y,z
1/2-y,1/2-x,1/2+z
y,x,1/2+z
loop_
_atom_site_type_symbol
_atom_site_label
_atom_site_fract_x
_atom_site_fract_y
_atom_site_fract_z
Si Si1 0.750000 0.047502 0.938694
Si Si2 0.552791 0.952526 0.872062
Si Si3 0.250000 0.963023 0.723179
Si Si4 0.750000 0.250000 0.750000
Si Si5 0.250000 0.750000 0.750000
O O1 0.750000 0.151285 0.850923
O O2 0.662171 0.978360 0.897625
O O3 0.750000 0.052988 0.108804
O O4 0.518512 0.844604 0.832449
O O5 0.518512 0.018512 0.750000
O O6 0.500000 0.000000 0.000000
O O7 0.250000 0.852136 0.669106
#
# Coordination Sequence:
#
# PCOD9570530 Si02
#       5
#     8  16   8   2   2
#     4  12  25  45  69 108 146 193 248 305 368 432
#     4  12  25  46  72 107 149 191 244 303 363 440
#     4  12  25  45  73 104 147 195 242 305 373 433
#     4  12  26  40  80 114 140 194 254 308 368 450
#     4  12  18  40  72  98 128 186 236 284 374 422
#
# _framework density 19.384180000000001
#
# number of rings (size 3 to 8) (size 9 to 14) (size 15 to 20)
#    0.000    0.000    8.889    0.667    0.000    4.444 
#    0.000    2.222    0.000    0.000    0.000    0.000 
#    0.000    0.000    0.000    0.000    0.000    0.000 
#
# Total GULP energy -200434.003922 kJ/mol
# GULP energy per Si atom -5567.611220 kJ/mol
# Density = 1.934006 g / cm^3
# Si number density = 19.384180 Si / 1000 Ang^3
#
#
#
# Elastic Constant Matrix: (Units=GPa)
#
#
# Indices 1 2 3 4 5 6 
#
# 1 221.0635 89.1394 67.6791 0.0000 0.0000 0.0000
# 2 89.1394 221.0635 67.6791 0.0000 0.0000 0.0000
# 3 67.6791 67.6791 166.5912 0.0000 0.0000 0.0000
# 4 0.0000 0.0000 0.0000 31.3992 0.0000 0.0000
# 5 0.0000 0.0000 0.0000 0.0000 31.3992 0.0000
# 6 0.0000 0.0000 0.0000 0.0000 0.0000 43.6815
#
#
#
# Elastic Compliance Matrix: (Units=1/GPa)
#
#
# Indices 1 2 3 4 5 6 
#
# 1 0.005749 -0.001831 -0.001592 0.000000 0.000000 0.000000
# 2 -0.001831 0.005749 -0.001592 0.000000 0.000000 0.000000
# 3 -0.001592 -0.001592 0.007296 0.000000 0.000000 0.000000
# 4 0.000000 0.000000 0.000000 0.031848 0.000000 0.000000
# 5 0.000000 0.000000 0.000000 0.000000 0.031848 0.000000
# 6 0.000000 0.000000 0.000000 0.000000 0.000000 0.022893
#
#
# Mechanical properties :
#
#
# Convention : Reuss Voigt Hill
#
# Bulk Modulus (GPa) = 114.08559 117.52371 115.80465
# Shear Modulus (GPa) = 42.25314 46.91069 44.58192
#
# Velocity S-wave (km/s) = 4.67387 4.92474 4.80094
# Velocity P-wave (km/s) = 9.38667 9.64871 9.51859
#
# Compressibility (1/GPa) = 0.00876535
#
# Stress axis : x y z
#
# Youngs Moduli (GPa) = 173.93695 173.93695 137.05925
#
# Poissons Ratio (x) = 0.31846 0.21818
# Poissons Ratio (y) = 0.31846 0.21818
# Poissons Ratio (z) = 0.27688 0.27688
#
# Static dielectric constant tensor:
#      x y z
#    x 1.626020 0.000000 0.000000 
#    y 0.000000 1.626020 0.000000 
#    z 0.000000 0.000000 1.690760 
# 
# From -- ./inp_files/991.got.cif
#   From: 2010.05.17/outbox.cif.g08.bks.cpg/sg137_1_cif.got.tgz:991.got - 2010.05.20 13:01:12.
