data_PCOD9570125
_publ_section_title
;
Structure prediction by ZEFSAII (Michael W. Deem and Ramdas Pophale) SiO2 
 PCOD9570125
Probable space group: P 42/N M C
;
_chemical_formula_sum "Si O2"
_cell_formula_units_Z 64
_cell_length_a 13.979436
_cell_length_b 13.979436
_cell_length_c 15.986740
_cell_angle_alpha 90.000000
_cell_angle_beta 90.000000
_cell_angle_gamma 90.000000
_cell_volume 3124.202763
_symmetry_space_group_name_H-M "P 42/N M C"
_symmetry_group_IT_number 137
_space_group.IT_coordinate_system_code '2'
_symmetry_cell_setting 'tetragonal'
loop_
_space_group_symop_operation_xyz
x,y,z
1/2-y,x,1/2+z
1/2-x,1/2-y,z
y,1/2-x,1/2+z
1/2+x,-y,-z
-x,1/2+y,-z
1/2+y,1/2+x,1/2-z
-y,-x,1/2-z
-x,-y,-z
1/2+y,-x,1/2-z
1/2+x,1/2+y,-z
-y,1/2+x,1/2-z
1/2-x,y,z
x,1/2-y,z
1/2-y,1/2-x,1/2+z
y,x,1/2+z
loop_
_atom_site_type_symbol
_atom_site_label
_atom_site_fract_x
_atom_site_fract_y
_atom_site_fract_z
Si Si1 0.140113 0.365748 0.906704
Si Si2 0.357725 0.634473 0.844322
Si Si3 0.478865 0.364419 0.743200
Si Si4 0.945897 0.633794 0.915136
O O1 0.250000 0.395077 0.902303
O O2 0.138387 0.250000 0.906348
O O3 0.083085 0.395182 0.824262
O O4 0.094190 0.394227 0.994705
O O5 0.389949 0.610052 0.750000
O O6 0.250000 0.600318 0.860611
O O7 0.352617 0.750000 0.843764
O O8 0.441783 0.608955 0.907161
O O9 0.577304 0.422697 0.750000
O O10 0.492858 0.250000 0.745329
O O11 0.420230 0.392166 0.659832
O O12 0.935609 0.750000 0.904910
#
# Coordination Sequence:
#
# PCOD9570125 Si02
#       4
#    16  16  16  16
#     4   9  19  37  61  90 122 152 188 242 302 354
#     4   8  14  26  46  77 120 162 194 230 281 341
#     4  11  24  41  60  83 114 155 202 249 300 358
#     4  10  19  34  61  93 121 153 194 240 296 360
#
# _framework density 20.485226999999998
#
# number of rings (size 3 to 8) (size 9 to 14) (size 15 to 20)
#    0.000    2.500    0.000    3.000    0.000    3.750 
#    0.000    2.500    0.000    4.500    0.000    0.000 
#    0.000    0.000    0.000    0.000    0.000    0.000 
#
# Total GULP energy -357641.382416 kJ/mol
# GULP energy per Si atom -5588.146600 kJ/mol
# Density = 2.043860 g / cm^3
# Si number density = 20.485227 Si / 1000 Ang^3
#
#
#
# Elastic Constant Matrix: (Units=GPa)
#
#
# Indices 1 2 3 4 5 6 
#
# 1 -212.3952 390.5327 70.9428 0.0000 0.0000 0.0000
# 2 390.5327 -212.2609 71.0441 0.0000 0.0000 0.0000
# 3 70.9428 71.0441 158.5694 0.0000 0.0000 0.0000
# 4 0.0000 0.0000 0.0000 27.7705 0.0000 0.0000
# 5 0.0000 0.0000 0.0000 0.0000 27.7688 0.0000
# 6 0.0000 0.0000 0.0000 0.0000 0.0000 20.9759
#
#
#
# Elastic Compliance Matrix: (Units=1/GPa)
#
#
# Indices 1 2 3 4 5 6 
#
# 1 0.003532 0.005191 -0.003906 0.000000 0.000000 0.000000
# 2 0.005191 0.003533 -0.003905 0.000000 0.000000 0.000000
# 3 -0.003906 -0.003905 0.009803 0.000000 0.000000 0.000000
# 4 0.000000 0.000000 0.000000 0.036009 0.000000 0.000000
# 5 0.000000 0.000000 0.000000 0.000000 0.036012 0.000000
# 6 0.000000 0.000000 0.000000 0.000000 0.000000 0.047674
#
#
# Mechanical properties :
#
#
# Convention : Reuss Voigt Hill
#
# Bulk Modulus (GPa) = 85.99944 88.77252 87.38598
# Shear Modulus (GPa) = 34.32209 -37.93736 -1.80764
#
# Velocity S-wave (km/s) = 4.09767 -4.30808 -0.94039
# Velocity P-wave (km/s) = 8.02871 4.32237 6.44760
#
# Compressibility (1/GPa) = 0.01162798
#
# Stress axis : x y z
#
# Youngs Moduli (GPa) = 283.12912 283.07850 102.00447
#
# Poissons Ratio (x) = -1.46947 0.39842
# Poissons Ratio (y) = -1.46973 0.39834
# Poissons Ratio (z) = 1.10588 1.10546
#
# Static dielectric constant tensor:
#      x y z
#    x 1.738790 0.000000 0.000000 
#    y 0.000000 1.738790 0.000000 
#    z 0.000000 0.000000 1.687160 
# 
# From -- ./inp_files/4726.got.cif
#   From: 2010.05.17/outbox.cif.g08.bks.cpg/sg137_3_cif.got.tgz:4726.got - 2010.05.20 13:01:12.
