data_PCOD9570763
_publ_section_title
;
Structure prediction by ZEFSAII (Michael W. Deem and Ramdas Pophale) SiO2 
 PCOD9570763
Probable space group: P 42/N C M
;
_chemical_formula_sum "Si O2"
_cell_formula_units_Z 96
_cell_length_a 16.100762
_cell_length_b 16.100762
_cell_length_c 22.437623
_cell_angle_alpha 90.000000
_cell_angle_beta 90.000000
_cell_angle_gamma 90.000000
_cell_volume 5816.606809
_symmetry_space_group_name_H-M "P 42/N C M"
_symmetry_group_IT_number 138
_space_group.IT_coordinate_system_code '2'
_symmetry_cell_setting 'tetragonal'
loop_
_space_group_symop_operation_xyz
x,y,z
1/2-y,x,1/2+z
1/2-x,1/2-y,z
y,1/2-x,1/2+z
1/2+x,-y,1/2-z
-x,1/2+y,1/2-z
1/2+y,1/2+x,-z
-y,-x,-z
-x,-y,-z
1/2+y,-x,1/2-z
1/2+x,1/2+y,-z
-y,1/2+x,1/2-z
1/2-x,y,1/2+z
x,1/2-y,1/2+z
1/2-y,1/2-x,z
y,x,z
loop_
_atom_site_type_symbol
_atom_site_label
_atom_site_fract_x
_atom_site_fract_y
_atom_site_fract_z
Si Si1 0.956486 0.956486 0.077608
Si Si2 0.509857 0.243971 0.565254
Si Si3 0.910698 0.308864 0.953060
Si Si4 0.096804 0.403197 0.548344
Si Si5 0.849228 0.152346 0.753439
Si Si6 0.452682 0.906589 0.860484
Si Si7 0.611684 0.360385 0.888098
O O1 0.015566 0.887146 0.105735
O O2 0.911876 0.911876 0.022523
O O3 0.027297 0.027297 0.065228
O O4 0.518112 0.278563 0.498197
O O5 0.430239 0.186002 0.571209
O O6 0.515522 0.319027 0.611789
O O7 0.585439 0.177961 0.574298
O O8 0.934608 0.384436 0.909751
O O9 0.880266 0.233390 0.911803
O O10 0.841297 0.341297 0.000000
O O11 0.751635 0.137306 0.743515
O O12 0.905138 0.112502 0.701506
O O13 0.867602 0.122467 0.819790
O O14 0.525897 0.974104 0.854468
#
# Coordination Sequence:
#
# PCOD9570763 Si02
#       7
#     8  16  16   8  16  16  16
#     4   9  18  28  52  82 116 142 167 226 274 337
#     4  10  20  34  56  82 113 147 180 227 277 331
#     4  10  21  32  54  80 112 149 177 221 282 337
#     4   9  16  32  51  84 114 140 175 222 277 326
#     4  11  22  37  57  80 110 141 180 231 277 325
#     4  11  24  40  53  78 114 151 189 224 270 330
#     4  11  19  34  52  85 116 140 181 224 284 330
#
# _framework density 16.504467000000002
#
# number of rings (size 3 to 8) (size 9 to 14) (size 15 to 20)
#    0.000    1.667    5.000    0.500    1.167    7.667 
#    0.000    0.417    0.000    0.000    0.000    0.583 
#    0.000    0.000    0.000    0.000    0.000    0.000 
#
# Total GULP energy -534596.319776 kJ/mol
# GULP energy per Si atom -5568.711664 kJ/mol
# Density = 1.646690 g / cm^3
# Si number density = 16.504467 Si / 1000 Ang^3
#
#
#
# Elastic Constant Matrix: (Units=GPa)
#
#
# Indices 1 2 3 4 5 6 
#
# 1 51.4070 47.7671 9.0223 0.0000 0.0000 0.0000
# 2 47.7671 51.4070 9.0223 0.0000 0.0000 0.0000
# 3 9.0223 9.0223 60.7986 0.0000 0.0000 0.0000
# 4 0.0000 0.0000 0.0000 14.2920 0.0000 0.0000
# 5 0.0000 0.0000 0.0000 0.0000 14.2920 0.0000
# 6 0.0000 0.0000 0.0000 0.0000 0.0000 21.0573
#
#
#
# Elastic Compliance Matrix: (Units=1/GPa)
#
#
# Indices 1 2 3 4 5 6 
#
# 1 0.142549 -0.132186 -0.001538 0.000000 0.000000 0.000000
# 2 -0.132186 0.142549 -0.001538 0.000000 0.000000 0.000000
# 3 -0.001538 -0.001538 0.016904 0.000000 0.000000 0.000000
# 4 0.000000 0.000000 0.000000 0.069969 0.000000 0.000000
# 5 0.000000 0.000000 0.000000 0.000000 0.069969 0.000000
# 6 0.000000 0.000000 0.000000 0.000000 0.000000 0.047489
#
#
# Mechanical properties :
#
#
# Convention : Reuss Voigt Hill
#
# Bulk Modulus (GPa) = 31.76727 32.80401 32.28564
# Shear Modulus (GPa) = 6.48975 16.44830 11.46902
#
# Velocity S-wave (km/s) = 1.98511 3.16032 2.63896
# Velocity P-wave (km/s) = 4.95416 5.76505 5.37492
#
# Compressibility (1/GPa) = 0.03147894
#
# Stress axis : x y z
#
# Youngs Moduli (GPa) = 7.01514 7.01514 59.15699
#
# Poissons Ratio (x) = 0.92730 0.09097
# Poissons Ratio (y) = 0.92730 0.09097
# Poissons Ratio (z) = 0.01079 0.01079
#
# Static dielectric constant tensor:
#      x y z
#    x 1.574850 0.000000 0.000000 
#    y 0.000000 1.574850 0.000000 
#    z 0.000000 0.000000 1.571170 
# 
# From -- ./inp_files/6978.got.cif
#   From: 2010.05.17/outbox.cif.g08.bks.cpg/sg138_4_cif.got.tgz:6978.got - 2010.05.20 13:08:53.
