data_PCOD9570259
_publ_section_title
;
Structure prediction by ZEFSAII (Michael W. Deem and Ramdas Pophale) SiO2 
 PCOD9570259
Probable space group: P 42/N M C
;
_chemical_formula_sum "Si O2"
_cell_formula_units_Z 96
_cell_length_a 24.314249
_cell_length_b 24.314249
_cell_length_c 8.449775
_cell_angle_alpha 90.000000
_cell_angle_beta 90.000000
_cell_angle_gamma 90.000000
_cell_volume 4995.360836
_symmetry_space_group_name_H-M "P 42/N M C"
_symmetry_group_IT_number 137
_space_group.IT_coordinate_system_code '2'
_symmetry_cell_setting 'tetragonal'
loop_
_space_group_symop_operation_xyz
x,y,z
1/2-y,x,1/2+z
1/2-x,1/2-y,z
y,1/2-x,1/2+z
1/2+x,-y,-z
-x,1/2+y,-z
1/2+y,1/2+x,1/2-z
-y,-x,1/2-z
-x,-y,-z
1/2+y,-x,1/2-z
1/2+x,1/2+y,-z
-y,1/2+x,1/2-z
1/2-x,y,z
x,1/2-y,z
1/2-y,1/2-x,1/2+z
y,x,1/2+z
loop_
_atom_site_type_symbol
_atom_site_label
_atom_site_fract_x
_atom_site_fract_y
_atom_site_fract_z
Si Si1 0.122684 0.187219 0.119804
Si Si2 0.686507 0.313284 0.441206
Si Si3 0.810845 0.591795 0.008557
Si Si4 0.893534 0.407738 0.564526
Si Si5 0.523077 0.612906 0.952127
Si Si6 0.407937 0.484733 0.922548
O O1 0.131686 0.250000 0.068852
O O2 0.108580 0.187701 0.306064
O O3 0.071469 0.157740 0.032085
O O4 0.172681 0.145962 0.088170
O O5 0.684397 0.315604 0.250000
O O6 0.750000 0.325058 0.487943
O O7 0.674135 0.250000 0.487823
O O8 0.643601 0.357026 0.507818
O O9 0.750000 0.572443 0.968597
O O10 0.856399 0.544782 0.991029
O O11 0.903186 0.403186 0.750000
O O12 0.866134 0.465957 0.521355
O O13 0.952852 0.410819 0.478933
O O14 0.516534 0.600855 0.765667
O O15 0.541862 0.556057 0.035293
#
# Coordination Sequence:
#
# PCOD9570259 Si02
#       6
#    16  16  16  16  16  16
#     4   9  19  35  54  77 105 139 179 222 267 314
#     4   9  20  41  65  85 108 141 180 221 266 317
#     4   9  19  35  54  77 105 139 179 222 267 314
#     4  12  24  36  55  85 115 143 178 218 265 326
#     4  10  20  36  56  78 108 145 184 228 275 322
#     4  10  20  36  56  78 108 145 184 228 275 322
#
# _framework density 19.217829999999999
#
# number of rings (size 3 to 8) (size 9 to 14) (size 15 to 20)
#    0.000    2.167    0.000    3.500    0.000    4.333 
#    0.000    5.833    0.000    0.000    0.000    0.000 
#    0.000    0.000    0.000    0.000    0.000    0.000 
#
# Total GULP energy -535986.522583 kJ/mol
# GULP energy per Si atom -5583.192944 kJ/mol
# Density = 1.917409 g / cm^3
# Si number density = 19.217830 Si / 1000 Ang^3
#
#
#
# Elastic Constant Matrix: (Units=GPa)
#
#
# Indices 1 2 3 4 5 6 
#
# 1 63.0100 13.7227 -4.9130 0.0000 0.0000 0.0000
# 2 13.7227 63.0100 -4.9131 0.0000 0.0000 0.0000
# 3 -4.9130 -4.9131 27.2383 0.0000 0.0000 0.0000
# 4 0.0000 0.0000 0.0000 23.5972 0.0000 0.0000
# 5 0.0000 0.0000 0.0000 0.0000 23.5972 0.0000
# 6 0.0000 0.0000 0.0000 0.0000 0.0000 22.0550
#
#
#
# Elastic Compliance Matrix: (Units=1/GPa)
#
#
# Indices 1 2 3 4 5 6 
#
# 1 0.016815 -0.003474 0.002406 0.000000 0.000000 0.000000
# 2 -0.003474 0.016815 0.002406 0.000000 0.000000 0.000000
# 3 0.002406 0.002406 0.037581 0.000000 0.000000 0.000000
# 4 0.000000 0.000000 0.000000 0.042378 0.000000 0.000000
# 5 0.000000 0.000000 0.000000 0.000000 0.042378 0.000000
# 6 0.000000 0.000000 0.000000 0.000000 0.000000 0.045341
#
#
# Mechanical properties :
#
#
# Convention : Reuss Voigt Hill
#
# Bulk Modulus (GPa) = 13.53419 17.89459 15.71439
# Shear Modulus (GPa) = 22.39537 23.80733 23.10135
#
# Velocity S-wave (km/s) = 3.41742 3.52350 3.47086
# Velocity P-wave (km/s) = 4.75704 5.08774 4.92516
#
# Compressibility (1/GPa) = 0.07388695
#
# Stress axis : x y z
#
# Youngs Moduli (GPa) = 59.47146 59.47140 26.60911
#
# Poissons Ratio (x) = 0.20663 -0.06403
# Poissons Ratio (y) = 0.20663 -0.06403
# Poissons Ratio (z) = -0.14310 -0.14311
#
# Static dielectric constant tensor:
#      x y z
#    x 1.661780 0.000000 0.000000 
#    y 0.000000 1.661780 0.000000 
#    z 0.000000 0.000000 1.662210 
# 
# From -- ./inp_files/2160.got.cif
#   From: 2010.05.17/outbox.cif.g08.bks.cpg/sg137_2_cif.got.tgz:2160.got - 2010.05.20 13:01:12.
