data_PCOD9570493
_publ_section_title
;
Structure prediction by ZEFSAII (Michael W. Deem and Ramdas Pophale) SiO2 
 PCOD9570493
Probable space group: P 42/N M C
;
_chemical_formula_sum "Si O2"
_cell_formula_units_Z 96
_cell_length_a 14.603888
_cell_length_b 14.603888
_cell_length_c 20.943412
_cell_angle_alpha 90.000000
_cell_angle_beta 90.000000
_cell_angle_gamma 90.000000
_cell_volume 4466.675716
_symmetry_space_group_name_H-M "P 42/N M C"
_symmetry_group_IT_number 137
_space_group.IT_coordinate_system_code '2'
_symmetry_cell_setting 'tetragonal'
loop_
_space_group_symop_operation_xyz
x,y,z
1/2-y,x,1/2+z
1/2-x,1/2-y,z
y,1/2-x,1/2+z
1/2+x,-y,-z
-x,1/2+y,-z
1/2+y,1/2+x,1/2-z
-y,-x,1/2-z
-x,-y,-z
1/2+y,-x,1/2-z
1/2+x,1/2+y,-z
-y,1/2+x,1/2-z
1/2-x,y,z
x,1/2-y,z
1/2-y,1/2-x,1/2+z
y,x,1/2+z
loop_
_atom_site_type_symbol
_atom_site_label
_atom_site_fract_x
_atom_site_fract_y
_atom_site_fract_z
Si Si1 0.146723 0.606485 0.612232
Si Si2 0.152465 0.638427 0.029759
Si Si3 0.604105 0.854447 0.932539
Si Si4 0.361796 0.450757 0.430790
Si Si5 0.359057 0.031090 0.815293
Si Si6 0.861217 0.650876 0.298946
O O1 0.250000 0.635322 0.628840
O O2 0.115942 0.651431 0.545541
O O3 0.150738 0.500553 0.591597
O O4 0.073975 0.623134 0.667183
O O5 0.250000 0.607956 0.057557
O O6 0.149877 0.750000 0.031841
O O7 0.057169 0.608945 0.061320
O O8 0.639073 0.750000 0.939570
O O9 0.649857 0.898880 0.870954
O O10 0.600918 0.892713 0.003940
O O11 0.250000 0.447126 0.428318
O O12 0.408381 0.406666 0.369928
O O13 0.250000 0.046265 0.818103
O O14 0.391261 0.069154 0.746843
O O15 0.750000 0.643475 0.305125
O O16 0.880778 0.750000 0.268971
#
# Coordination Sequence:
#
# PCOD9570493 Si02
#       6
#    16  16  16  16  16  16
#     4   9  18  33  52  73  99 133 178 230 274 316
#     4   8  14  27  48  72 100 136 174 216 271 326
#     4   8  16  32  53  74  97 133 178 218 261 315
#     4   9  18  32  51  78 110 139 174 223 268 316
#     4  11  22  32  48  77 111 146 180 218 271 327
#     4   9  18  33  51  72 103 142 177 209 256 322
#
# _framework density 21.492494000000001
#
# number of rings (size 3 to 8) (size 9 to 14) (size 15 to 20)
#    0.000    3.000    0.000    3.000    0.000    6.000 
#    0.000    1.667    0.000    5.000    0.000   23.333 
#    0.000    1.333    0.000    4.333    0.000    0.000 
#
# Total GULP energy -535469.477443 kJ/mol
# GULP energy per Si atom -5577.807057 kJ/mol
# Density = 2.144358 g / cm^3
# Si number density = 21.492494 Si / 1000 Ang^3
#
#
#
# Elastic Constant Matrix: (Units=GPa)
#
#
# Indices 1 2 3 4 5 6 
#
# 1 78.2580 6.2968 29.5165 0.0000 0.0000 0.0000
# 2 6.2968 78.2580 29.5165 0.0000 0.0000 0.0000
# 3 29.5165 29.5165 97.9759 0.0000 0.0000 0.0000
# 4 0.0000 0.0000 0.0000 20.3033 0.0000 0.0000
# 5 0.0000 0.0000 0.0000 0.0000 20.3033 0.0000
# 6 0.0000 0.0000 0.0000 0.0000 0.0000 12.0901
#
#
#
# Elastic Compliance Matrix: (Units=1/GPa)
#
#
# Indices 1 2 3 4 5 6 
#
# 1 0.014437 0.000540 -0.004512 0.000000 0.000000 0.000000
# 2 0.000540 0.014437 -0.004512 0.000000 0.000000 0.000000
# 3 -0.004512 -0.004512 0.012925 0.000000 0.000000 0.000000
# 4 0.000000 0.000000 0.000000 0.049253 0.000000 0.000000
# 5 0.000000 0.000000 0.000000 0.000000 0.049253 0.000000
# 6 0.000000 0.000000 0.000000 0.000000 0.000000 0.082712
#
#
# Mechanical properties :
#
#
# Convention : Reuss Voigt Hill
#
# Bulk Modulus (GPa) = 40.27248 42.79461 41.53355
# Shear Modulus (GPa) = 20.14007 23.15013 21.64510
#
# Velocity S-wave (km/s) = 3.06449 3.28552 3.17693
# Velocity P-wave (km/s) = 5.59465 5.86068 5.72920
#
# Compressibility (1/GPa) = 0.02483085
#
# Stress axis : x y z
#
# Youngs Moduli (GPa) = 69.26870 69.26870 77.36856
#
# Poissons Ratio (x) = -0.03742 0.34908
# Poissons Ratio (y) = -0.03742 0.34908
# Poissons Ratio (z) = 0.31254 0.31254
#
# Static dielectric constant tensor:
#      x y z
#    x 1.833730 0.000000 0.000000 
#    y 0.000000 1.833730 0.000000 
#    z 0.000000 0.000000 1.768120 
# 
# From -- ./inp_files/7845.got.cif
#   From: 2010.05.17/outbox.cif.g08.bks.cpg/sg137_4_cif.got.tgz:7845.got - 2010.05.20 13:01:12.
