data_PCOD9570234
_publ_section_title
;
Structure prediction by ZEFSAII (Michael W. Deem and Ramdas Pophale) SiO2 
 PCOD9570234
Probable space group: P 42/N M C
;
_chemical_formula_sum "Si O2"
_cell_formula_units_Z 88
_cell_length_a 16.445197
_cell_length_b 16.445197
_cell_length_c 16.139008
_cell_angle_alpha 90.000000
_cell_angle_beta 90.000000
_cell_angle_gamma 90.000000
_cell_volume 4364.706020
_symmetry_space_group_name_H-M "P 42/N M C"
_symmetry_group_IT_number 137
_space_group.IT_coordinate_system_code '2'
_symmetry_cell_setting 'tetragonal'
loop_
_space_group_symop_operation_xyz
x,y,z
1/2-y,x,1/2+z
1/2-x,1/2-y,z
y,1/2-x,1/2+z
1/2+x,-y,-z
-x,1/2+y,-z
1/2+y,1/2+x,1/2-z
-y,-x,1/2-z
-x,-y,-z
1/2+y,-x,1/2-z
1/2+x,1/2+y,-z
-y,1/2+x,1/2-z
1/2-x,y,z
x,1/2-y,z
1/2-y,1/2-x,1/2+z
y,x,1/2+z
loop_
_atom_site_type_symbol
_atom_site_label
_atom_site_fract_x
_atom_site_fract_y
_atom_site_fract_z
Si Si1 0.343669 0.847237 0.575208
Si Si2 0.450308 0.347413 0.638565
Si Si3 0.048955 0.931556 0.050827
Si Si4 0.348632 0.161693 0.292441
Si Si5 0.111111 0.154433 0.972892
Si Si6 0.847665 0.347665 0.250000
O O1 0.250000 0.874272 0.564888
O O2 0.341926 0.750000 0.579946
O O3 0.399493 0.876583 0.502767
O O4 0.378499 0.879537 0.662802
O O5 0.468555 0.250000 0.640152
O O6 0.526491 0.408275 0.628599
O O7 0.403689 0.370247 0.723074
O O8 0.394161 0.363697 0.556108
O O9 0.983419 0.859449 0.051908
O O10 0.000000 0.000000 0.000000
O O11 0.250000 0.160043 0.296788
O O12 0.375198 0.250000 0.261367
O O13 0.376372 0.152562 0.387612
O O14 0.128534 0.250000 0.985338
O O15 0.859531 0.250000 0.246478
#
# Coordination Sequence:
#
# PCOD9570234 Si02
#       6
#    16  16  16  16  16   8
#     4   9  16  30  54  79 104 139 185 231 272 327
#     4  10  20  35  55  78 106 139 176 222 272 323
#     4  10  21  34  47  70 106 144 177 213 268 330
#     4   9  18  33  55  81 102 126 168 217 265 318
#     4  10  20  35  55  78 106 139 176 222 272 323
#     4   7  12  24  46  78 108 132 166 219 272 306
#
# _framework density 20.161724
#
# number of rings (size 3 to 8) (size 9 to 14) (size 15 to 20)
#    0.000    2.636    0.000    3.273    0.000    2.545 
#    0.000    7.273    0.000    8.727    0.000    0.000 
#    0.000   11.636    0.000    0.000    0.000    0.000 
#
# Total GULP energy -489985.575501 kJ/mol
# GULP energy per Si atom -5568.017903 kJ/mol
# Density = 2.011583 g / cm^3
# Si number density = 20.161724 Si / 1000 Ang^3
#
#
#
# Elastic Constant Matrix: (Units=GPa)
#
#
# Indices 1 2 3 4 5 6 
#
# 1 10.2142 5.6810 -4.3026 0.0000 0.0000 0.0000
# 2 5.6810 10.2142 -4.3026 0.0000 0.0000 0.0000
# 3 -4.3026 -4.3026 63.0204 0.0000 0.0000 0.0000
# 4 0.0000 0.0000 0.0000 7.7468 0.0000 0.0000
# 5 0.0000 0.0000 0.0000 0.0000 7.7468 0.0000
# 6 0.0000 0.0000 0.0000 0.0000 0.0000 19.3129
#
#
#
# Elastic Compliance Matrix: (Units=1/GPa)
#
#
# Indices 1 2 3 4 5 6 
#
# 1 0.142960 -0.077633 0.004460 0.000000 0.000000 0.000000
# 2 -0.077633 0.142960 0.004460 0.000000 0.000000 0.000000
# 3 0.004460 0.004460 0.016477 0.000000 0.000000 0.000000
# 4 0.000000 0.000000 0.000000 0.129085 0.000000 0.000000
# 5 0.000000 0.000000 0.000000 0.000000 0.129085 0.000000
# 6 0.000000 0.000000 0.000000 0.000000 0.000000 0.051779
#
#
# Mechanical properties :
#
#
# Convention : Reuss Voigt Hill
#
# Bulk Modulus (GPa) = 6.06167 8.62225 7.34196
# Shear Modulus (GPa) = 6.21301 12.71953 9.46627
#
# Velocity S-wave (km/s) = 1.75735 2.51445 2.16918
# Velocity P-wave (km/s) = 2.67035 3.56592 3.15012
#
# Compressibility (1/GPa) = 0.16497104
#
# Stress axis : x y z
#
# Youngs Moduli (GPa) = 6.99495 6.99495 60.69109
#
# Poissons Ratio (x) = 0.54304 -0.27069
# Poissons Ratio (y) = 0.54304 -0.27069
# Poissons Ratio (z) = -0.03120 -0.03120
#
# Static dielectric constant tensor:
#      x y z
#    x 1.721460 0.000000 0.000000 
#    y 0.000000 1.721460 0.000000 
#    z 0.000000 0.000000 1.733930 
# 
# From -- ./inp_files/5121.got.cif
#   From: 2010.05.17/outbox.cif.g08.bks.cpg/sg137_3_cif.got.tgz:5121.got - 2010.05.20 13:01:12.
