data_PCOD9570662
_publ_section_title
;
Structure prediction by ZEFSAII (Michael W. Deem and Ramdas Pophale) SiO2 
 PCOD9570662
Probable space group: P 42/N C M
;
_chemical_formula_sum "Si O2"
_cell_formula_units_Z 96
_cell_length_a 21.898103
_cell_length_b 21.898103
_cell_length_c 9.836193
_cell_angle_alpha 90.000000
_cell_angle_beta 90.000000
_cell_angle_gamma 90.000000
_cell_volume 4716.719285
_symmetry_space_group_name_H-M "P 42/N C M"
_symmetry_group_IT_number 138
_space_group.IT_coordinate_system_code '2'
_symmetry_cell_setting 'tetragonal'
loop_
_space_group_symop_operation_xyz
x,y,z
1/2-y,x,1/2+z
1/2-x,1/2-y,z
y,1/2-x,1/2+z
1/2+x,-y,1/2-z
-x,1/2+y,1/2-z
1/2+y,1/2+x,-z
-y,-x,-z
-x,-y,-z
1/2+y,-x,1/2-z
1/2+x,1/2+y,-z
-y,1/2+x,1/2-z
1/2-x,y,1/2+z
x,1/2-y,1/2+z
1/2-y,1/2-x,z
y,x,z
loop_
_atom_site_type_symbol
_atom_site_label
_atom_site_fract_x
_atom_site_fract_y
_atom_site_fract_z
Si Si1 0.149245 0.246847 0.536430
Si Si2 0.798771 0.367171 0.102909
Si Si3 0.156714 0.612330 0.355057
Si Si4 0.129560 0.516042 0.926064
Si Si5 0.081815 0.512985 0.206295
Si Si6 0.308773 0.410235 0.272053
O O1 0.198211 0.301790 0.525130
O O2 0.188617 0.188617 0.587836
O O3 0.096337 0.268562 0.637625
O O4 0.122095 0.228990 0.391977
O O5 0.729143 0.383290 0.127405
O O6 0.835424 0.358679 0.243579
O O7 0.810969 0.310969 0.000000
O O8 0.831399 0.424886 0.033359
O O9 0.126668 0.626668 0.500000
O O10 0.130515 0.547976 0.299701
O O11 0.112652 0.485843 0.069603
O O12 0.067840 0.538460 0.851558
O O13 0.168912 0.475128 0.825047
O O14 0.038906 0.461095 0.270354
O O15 0.369544 0.369544 0.251980
#
# Coordination Sequence:
#
# PCOD9570662 Si02
#       6
#    16  16  16  16  16  16
#     4   9  18  33  52  79 116 154 193 243 305 368
#     4  11  22  43  63  92 127 164 210 247 315 378
#     4  11  24  38  64  96 126 163 203 262 315 370
#     4  10  19  37  62  86 111 161 209 252 291 370
#     4  10  20  39  63  87 119 160 207 252 302 371
#     4  10  19  32  54  82 110 151 202 248 298 355
#
# _framework density 20.35313
#
# number of rings (size 3 to 8) (size 9 to 14) (size 15 to 20)
#    0.000    1.833    3.333    3.500    0.000    5.667 
#    3.000    0.000    0.000    1.000    0.000    0.000 
#    0.000    0.000    0.000    0.000    0.000    0.000 
#
# Total GULP energy -535899.256902 kJ/mol
# GULP energy per Si atom -5582.283926 kJ/mol
# Density = 2.030681 g / cm^3
# Si number density = 20.353130 Si / 1000 Ang^3
#
#
#
# Elastic Constant Matrix: (Units=GPa)
#
#
# Indices 1 2 3 4 5 6 
#
# 1 54.3665 32.1825 5.5068 0.0000 0.0000 0.0000
# 2 32.1825 54.3665 5.5068 0.0000 0.0000 0.0000
# 3 5.5068 5.5068 55.7801 0.0000 0.0000 0.0000
# 4 0.0000 0.0000 0.0000 4.6655 0.0000 0.0000
# 5 0.0000 0.0000 0.0000 0.0000 4.6655 0.0000
# 6 0.0000 0.0000 0.0000 0.0000 0.0000 22.1570
#
#
#
# Elastic Compliance Matrix: (Units=1/GPa)
#
#
# Indices 1 2 3 4 5 6 
#
# 1 0.028389 -0.016688 -0.001155 0.000000 0.000000 0.000000
# 2 -0.016688 0.028389 -0.001155 0.000000 0.000000 0.000000
# 3 -0.001155 -0.001155 0.018156 0.000000 0.000000 0.000000
# 4 0.000000 0.000000 0.000000 0.214341 0.000000 0.000000
# 5 0.000000 0.000000 0.000000 0.000000 0.214341 0.000000
# 6 0.000000 0.000000 0.000000 0.000000 0.000000 0.045133
#
#
# Mechanical properties :
#
#
# Convention : Reuss Voigt Hill
#
# Bulk Modulus (GPa) = 27.07297 27.87837 27.47567
# Shear Modulus (GPa) = 8.34643 14.38538 11.36590
#
# Velocity S-wave (km/s) = 2.02724 2.66144 2.36569
# Velocity P-wave (km/s) = 4.33706 4.81367 4.58157
#
# Compressibility (1/GPa) = 0.03693721
#
# Stress axis : x y z
#
# Youngs Moduli (GPa) = 35.22450 35.22450 55.07939
#
# Poissons Ratio (x) = 0.58783 0.06363
# Poissons Ratio (y) = 0.58783 0.06363
# Poissons Ratio (z) = 0.04069 0.04069
#
# Static dielectric constant tensor:
#      x y z
#    x 1.740830 0.000000 0.000000 
#    y 0.000000 1.740830 0.000000 
#    z 0.000000 0.000000 1.736920 
# 
# From -- ./inp_files/1736.got.cif
#   From: 2010.05.17/outbox.cif.g08.bks.cpg/sg138_1_cif.got.tgz:1736.got - 2010.05.20 13:08:53.
