data_PCOD9570510
_publ_section_title
;
Structure prediction by ZEFSAII (Michael W. Deem and Ramdas Pophale) SiO2 
 PCOD9570510
Probable space group: P 42/N M C
;
_chemical_formula_sum "Si O2"
_cell_formula_units_Z 48
_cell_length_a 18.334356
_cell_length_b 18.334356
_cell_length_c 7.317412
_cell_angle_alpha 90.000000
_cell_angle_beta 90.000000
_cell_angle_gamma 90.000000
_cell_volume 2459.737872
_symmetry_space_group_name_H-M "P 42/N M C"
_symmetry_group_IT_number 137
_space_group.IT_coordinate_system_code '2'
_symmetry_cell_setting 'tetragonal'
loop_
_space_group_symop_operation_xyz
x,y,z
1/2-y,x,1/2+z
1/2-x,1/2-y,z
y,1/2-x,1/2+z
1/2+x,-y,-z
-x,1/2+y,-z
1/2+y,1/2+x,1/2-z
-y,-x,1/2-z
-x,-y,-z
1/2+y,-x,1/2-z
1/2+x,1/2+y,-z
-y,1/2+x,1/2-z
1/2-x,y,z
x,1/2-y,z
1/2-y,1/2-x,1/2+z
y,x,1/2+z
loop_
_atom_site_type_symbol
_atom_site_label
_atom_site_fract_x
_atom_site_fract_y
_atom_site_fract_z
Si Si1 0.168622 0.569578 0.132944
Si Si2 0.945476 0.668457 0.059831
Si Si3 0.903314 0.513507 0.192050
O O1 0.133480 0.633480 0.250000
O O2 0.250000 0.587393 0.072655
O O3 0.171124 0.502409 0.274606
O O4 0.122809 0.543504 0.959294
O O5 0.911319 0.750000 0.047731
O O6 0.900603 0.594802 0.106194
O O7 0.983852 0.648478 0.868447
O O8 0.984340 0.484340 0.250000
#
# Coordination Sequence:
#
# PCOD9570510 Si02
#       3
#    16  16  16
#     4  11  23  40  63  93 126 165 206 257 317 373
#     4  11  23  37  61  93 123 156 205 264 314 363
#     4  12  21  39  67  92 122 164 218 263 304 377
#
# _framework density 19.514274
#
# number of rings (size 3 to 8) (size 9 to 14) (size 15 to 20)
#    0.000    0.667    6.667    3.000    0.000    0.333 
#    0.000    0.000    0.000    8.000    0.000    0.000 
#    0.000    0.000    0.000    0.000    0.000    0.000 
#
# Total GULP energy -267731.412149 kJ/mol
# GULP energy per Si atom -5577.737753 kJ/mol
# Density = 1.946986 g / cm^3
# Si number density = 19.514274 Si / 1000 Ang^3
#
#
#
# Elastic Constant Matrix: (Units=GPa)
#
#
# Indices 1 2 3 4 5 6 
#
# 1 85.9591 22.4163 18.3061 0.0000 0.0000 0.0000
# 2 22.4163 85.9591 18.3061 0.0000 0.0000 0.0000
# 3 18.3061 18.3061 108.7653 0.0000 0.0000 0.0000
# 4 0.0000 0.0000 0.0000 24.3378 0.0000 0.0000
# 5 0.0000 0.0000 0.0000 0.0000 24.3378 0.0000
# 6 0.0000 0.0000 0.0000 0.0000 0.0000 2.9517
#
#
#
# Elastic Compliance Matrix: (Units=1/GPa)
#
#
# Indices 1 2 3 4 5 6 
#
# 1 0.012760 -0.002977 -0.001647 0.000000 0.000000 0.000000
# 2 -0.002977 0.012760 -0.001647 0.000000 0.000000 0.000000
# 3 -0.001647 -0.001647 0.009748 0.000000 0.000000 0.000000
# 4 0.000000 0.000000 0.000000 0.041088 0.000000 0.000000
# 5 0.000000 0.000000 0.000000 0.000000 0.041088 0.000000
# 6 0.000000 0.000000 0.000000 0.000000 0.000000 0.338785
#
#
# Mechanical properties :
#
#
# Convention : Reuss Voigt Hill
#
# Bulk Modulus (GPa) = 43.99707 44.30448 44.15077
# Shear Modulus (GPa) = 10.49654 25.10247 17.79950
#
# Velocity S-wave (km/s) = 2.32176 3.59048 3.02342
# Velocity P-wave (km/s) = 5.45733 6.31994 5.90441
#
# Compressibility (1/GPa) = 0.02272879
#
# Stress axis : x y z
#
# Youngs Moduli (GPa) = 78.36717 78.36717 102.58102
#
# Poissons Ratio (x) = 0.23330 0.16891
# Poissons Ratio (y) = 0.23330 0.16891
# Poissons Ratio (z) = 0.12904 0.12904
#
# Static dielectric constant tensor:
#      x y z
#    x 1.726060 0.000000 0.000000 
#    y 0.000000 1.726060 0.000000 
#    z 0.000000 0.000000 1.681080 
# 
# From -- ./inp_files/287.got.cif
#   From: 2010.05.17/outbox.cif.g08.bks.cpg/sg137_1_cif.got.tgz:287.got - 2010.05.20 13:01:12.
