data_PCOD9570213
_publ_section_title
;
Structure prediction by ZEFSAII (Michael W. Deem and Ramdas Pophale) SiO2 
 PCOD9570213
Probable space group: P 42/N M C
;
_chemical_formula_sum "Si O2"
_cell_formula_units_Z 112
_cell_length_a 15.619597
_cell_length_b 15.619597
_cell_length_c 24.015219
_cell_angle_alpha 90.000000
_cell_angle_beta 90.000000
_cell_angle_gamma 90.000000
_cell_volume 5859.036458
_symmetry_space_group_name_H-M "P 42/N M C"
_symmetry_group_IT_number 137
_space_group.IT_coordinate_system_code '2'
_symmetry_cell_setting 'tetragonal'
loop_
_space_group_symop_operation_xyz
x,y,z
1/2-y,x,1/2+z
1/2-x,1/2-y,z
y,1/2-x,1/2+z
1/2+x,-y,-z
-x,1/2+y,-z
1/2+y,1/2+x,1/2-z
-y,-x,1/2-z
-x,-y,-z
1/2+y,-x,1/2-z
1/2+x,1/2+y,-z
-y,1/2+x,1/2-z
1/2-x,y,z
x,1/2-y,z
1/2-y,1/2-x,1/2+z
y,x,1/2+z
loop_
_atom_site_type_symbol
_atom_site_label
_atom_site_fract_x
_atom_site_fract_y
_atom_site_fract_z
Si Si1 0.845995 0.625321 0.867445
Si Si2 0.013798 0.347637 0.840655
Si Si3 0.013087 0.843169 0.941829
Si Si4 0.647353 0.843124 0.737571
Si Si5 0.344914 0.572820 0.106752
Si Si6 0.844872 0.035883 0.024587
Si Si7 0.843826 0.607658 0.543105
O O1 0.750000 0.655174 0.885152
O O2 0.861122 0.652299 0.803989
O O3 0.842057 0.523430 0.870766
O O4 0.927220 0.650523 0.904754
O O5 0.994535 0.250000 0.824331
O O6 0.071696 0.388550 0.791857
O O7 0.077684 0.347769 0.893419
O O8 0.924760 0.385490 0.862104
O O9 0.053730 0.750000 0.931326
O O10 0.080215 0.920635 0.939114
O O11 0.976224 0.844063 0.004316
O O12 0.750000 0.843343 0.726164
O O13 0.614220 0.750000 0.717863
O O14 0.250000 0.612261 0.115736
O O15 0.357430 0.563695 0.039931
O O16 0.750000 0.064632 0.041721
O O17 0.847324 0.932707 0.027863
O O18 0.750000 0.649276 0.533591
#
# Coordination Sequence:
#
# PCOD9570213 Si02
#       7
#    16  16  16  16  16  16  16
#     4  10  20  36  58  83 110 143 187 239 295 349
#     4  10  20  35  55  79 112 150 190 236 283 339
#     4  11  21  34  57  86 116 150 189 236 284 336
#     4   9  19  36  56  78 107 143 181 227 289 354
#     4  10  20  34  54  79 111 152 194 233 281 337
#     4  11  22  37  55  79 119 163 195 231 278 340
#     4  10  20  34  55  83 113 147 187 236 293 342
#
# _framework density 19.115770999999999
#
# number of rings (size 3 to 8) (size 9 to 14) (size 15 to 20)
#    0.000    1.857    2.857    1.714    0.000    2.857 
#    0.000    4.286    0.000    0.000    0.000    4.000 
#    0.000    0.000    0.000    3.857    0.000    0.429 
#
# Total GULP energy -623922.949111 kJ/mol
# GULP energy per Si atom -5570.740617 kJ/mol
# Density = 1.907226 g / cm^3
# Si number density = 19.115771 Si / 1000 Ang^3
#
#
#
# Elastic Constant Matrix: (Units=GPa)
#
#
# Indices 1 2 3 4 5 6 
#
# 1 105.2855 61.1917 29.0796 0.0000 0.0000 0.0000
# 2 61.1917 105.2855 29.0796 0.0000 0.0000 0.0000
# 3 29.0796 29.0796 52.3712 0.0000 0.0000 0.0000
# 4 0.0000 0.0000 0.0000 -17.2203 0.0000 0.0000
# 5 0.0000 0.0000 0.0000 0.0000 -17.2203 0.0000
# 6 0.0000 0.0000 0.0000 0.0000 0.0000 29.1479
#
#
#
# Elastic Compliance Matrix: (Units=1/GPa)
#
#
# Indices 1 2 3 4 5 6 
#
# 1 0.015066 -0.007613 -0.004138 0.000000 0.000000 0.000000
# 2 -0.007613 0.015066 -0.004138 0.000000 0.000000 0.000000
# 3 -0.004138 -0.004138 0.023690 0.000000 0.000000 0.000000
# 4 0.000000 0.000000 0.000000 -0.058071 0.000000 0.000000
# 5 0.000000 0.000000 0.000000 0.000000 -0.058071 0.000000
# 6 0.000000 0.000000 0.000000 0.000000 0.000000 0.034308
#
#
# Mechanical properties :
#
#
# Convention : Reuss Voigt Hill
#
# Bulk Modulus (GPa) = 45.36676 55.73821 50.55248
# Shear Modulus (GPa) = 449.91714 8.51422 229.21568
#
# Velocity S-wave (km/s) = 15.35823 2.11275 10.96219
# Velocity P-wave (km/s) = 18.39251 5.93069 13.66488
#
# Compressibility (1/GPa) = 0.02204257
#
# Stress axis : x y z
#
# Youngs Moduli (GPa) = 66.37600 66.37600 42.21225
#
# Poissons Ratio (x) = 0.50534 0.17468
# Poissons Ratio (y) = 0.50534 0.17468
# Poissons Ratio (z) = 0.27467 0.27467
#
# Static dielectric constant tensor:
#      x y z
#    x 1.677080 0.000000 0.000000 
#    y 0.000000 1.677080 0.000000 
#    z 0.000000 0.000000 1.672830 
# 
# From -- ./inp_files/9004.got.cif
#   From: 2010.05.17/outbox.cif.g08.bks.cpg/sg137_5_cif.got.tgz:9004.got - 2010.05.20 13:01:12.
