data_PCOD9570700
_publ_section_title
;
Structure prediction by ZEFSAII (Michael W. Deem and Ramdas Pophale) SiO2 
 PCOD9570700
Probable space group: P 42/N C M
;
_chemical_formula_sum "Si O2"
_cell_formula_units_Z 112
_cell_length_a 14.653395
_cell_length_b 14.653395
_cell_length_c 24.351433
_cell_angle_alpha 90.000000
_cell_angle_beta 90.000000
_cell_angle_gamma 90.000000
_cell_volume 5228.788032
_symmetry_space_group_name_H-M "P 42/N C M"
_symmetry_group_IT_number 138
_space_group.IT_coordinate_system_code '2'
_symmetry_cell_setting 'tetragonal'
loop_
_space_group_symop_operation_xyz
x,y,z
1/2-y,x,1/2+z
1/2-x,1/2-y,z
y,1/2-x,1/2+z
1/2+x,-y,1/2-z
-x,1/2+y,1/2-z
1/2+y,1/2+x,-z
-y,-x,-z
-x,-y,-z
1/2+y,-x,1/2-z
1/2+x,1/2+y,-z
-y,1/2+x,1/2-z
1/2-x,y,1/2+z
x,1/2-y,1/2+z
1/2-y,1/2-x,z
y,x,z
loop_
_atom_site_type_symbol
_atom_site_label
_atom_site_fract_x
_atom_site_fract_y
_atom_site_fract_z
Si Si1 0.755603 0.600809 0.216634
Si Si2 0.642162 0.219847 0.141937
Si Si3 0.797680 0.559626 0.092771
Si Si4 0.048701 0.909689 0.844318
Si Si5 0.474267 0.622962 0.272925
Si Si6 0.055769 0.915466 0.435744
Si Si7 0.019812 0.627025 0.540491
O O1 0.854015 0.645986 0.228388
O O2 0.681288 0.681288 0.217598
O O3 0.757500 0.565700 0.154016
O O4 0.716637 0.528477 0.259391
O O5 0.750000 0.250000 0.140033
O O6 0.580501 0.307060 0.153345
O O7 0.612824 0.146949 0.189381
O O8 0.597081 0.177961 0.086956
O O9 0.842159 0.657842 0.079365
O O10 0.879198 0.488254 0.093837
O O11 0.727281 0.520447 0.048485
O O12 0.087618 0.946076 0.786916
O O13 0.096098 0.953082 0.898200
O O14 0.944116 0.944116 0.847484
O O15 0.546112 0.546112 0.295266
O O16 0.074102 0.925899 0.500000
O O17 0.951657 0.951657 0.426619
O O18 0.103755 0.603755 0.500000
O O19 0.936623 0.563378 0.520832
#
# Coordination Sequence:
#
# PCOD9570700 Si02
#       7
#    16  16  16  16  16  16  16
#     4   9  17  32  60  95 126 163 213 265 318 385
#     4  12  27  41  67 101 131 169 224 283 324 388
#     4  10  19  34  60  90 121 160 213 268 320 383
#     4  10  23  42  61  88 129 173 211 265 337 397
#     4  10  22  41  62  87 131 176 213 263 333 395
#     4  10  24  46  67  91 128 173 215 265 337 407
#     4  10  20  35  59  90 126 164 207 263 332 397
#
# _framework density 21.419877
#
# number of rings (size 3 to 8) (size 9 to 14) (size 15 to 20)
#    0.000    1.857    1.429    1.714    4.000    1.714 
#    0.000    2.857    0.000    1.286    0.000    0.000 
#    0.000    0.000    0.000    0.000    0.000    0.000 
#
# Total GULP energy -624273.445638 kJ/mol
# GULP energy per Si atom -5573.870050 kJ/mol
# Density = 2.137112 g / cm^3
# Si number density = 21.419877 Si / 1000 Ang^3
#
#
#
# Elastic Constant Matrix: (Units=GPa)
#
#
# Indices 1 2 3 4 5 6 
#
# 1 131.4746 31.5240 38.8272 0.0000 0.0000 0.0000
# 2 31.5240 131.4760 38.8266 0.0000 0.0000 0.0000
# 3 38.8272 38.8266 93.2511 0.0000 0.0000 0.0000
# 4 0.0000 0.0000 0.0000 96.8587 0.0000 0.0000
# 5 0.0000 0.0000 0.0000 0.0000 96.8560 0.0000
# 6 0.0000 0.0000 0.0000 0.0000 0.0000 18.0051
#
#
#
# Elastic Compliance Matrix: (Units=1/GPa)
#
#
# Indices 1 2 3 4 5 6 
#
# 1 0.008829 -0.001176 -0.003187 0.000000 0.000000 0.000000
# 2 -0.001176 0.008829 -0.003186 0.000000 0.000000 0.000000
# 3 -0.003187 -0.003186 0.013377 0.000000 0.000000 0.000000
# 4 0.000000 0.000000 0.000000 0.010324 0.000000 0.000000
# 5 0.000000 0.000000 0.000000 0.000000 0.010325 0.000000
# 6 0.000000 0.000000 0.000000 0.000000 0.000000 0.055540
#
#
# Mechanical properties :
#
#
# Convention : Reuss Voigt Hill
#
# Bulk Modulus (GPa) = 62.74558 63.83971 63.29265
# Shear Modulus (GPa) = 39.17445 58.81222 48.99334
#
# Velocity S-wave (km/s) = 4.28118 5.24561 4.78774
# Velocity P-wave (km/s) = 7.33449 8.15826 7.75732
#
# Compressibility (1/GPa) = 0.01593738
#
# Stress axis : x y z
#
# Youngs Moduli (GPa) = 113.26251 113.26448 74.75371
#
# Poissons Ratio (x) = 0.13319 0.23821
# Poissons Ratio (y) = 0.13319 0.23820
# Poissons Ratio (z) = 0.36092 0.36091
#
# Static dielectric constant tensor:
#      x y z
#    x 1.862330 0.000000 0.000000 
#    y 0.000000 1.862330 0.000000 
#    z 0.000000 0.000000 1.789880 
# 
# From -- ./inp_files/7077.got.cif
#   From: 2010.05.17/outbox.cif.g08.bks.cpg/sg138_4_cif.got.tgz:7077.got - 2010.05.20 13:08:53.
