data_PCOD9570514
_publ_section_title
;
Structure prediction by ZEFSAII (Michael W. Deem and Ramdas Pophale) SiO2 
 PCOD9570514
Probable space group: P 42/N M C
;
_chemical_formula_sum "Si O2"
_cell_formula_units_Z 48
_cell_length_a 7.956395
_cell_length_b 7.956395
_cell_length_c 38.894087
_cell_angle_alpha 90.000000
_cell_angle_beta 90.000000
_cell_angle_gamma 90.000000
_cell_volume 2462.159894
_symmetry_space_group_name_H-M "P 42/N M C"
_symmetry_group_IT_number 137
_space_group.IT_coordinate_system_code '2'
_symmetry_cell_setting 'tetragonal'
loop_
_space_group_symop_operation_xyz
x,y,z
1/2-y,x,1/2+z
1/2-x,1/2-y,z
y,1/2-x,1/2+z
1/2+x,-y,-z
-x,1/2+y,-z
1/2+y,1/2+x,1/2-z
-y,-x,1/2-z
-x,-y,-z
1/2+y,-x,1/2-z
1/2+x,1/2+y,-z
-y,1/2+x,1/2-z
1/2-x,y,z
x,1/2-y,z
1/2-y,1/2-x,1/2+z
y,x,1/2+z
loop_
_atom_site_type_symbol
_atom_site_label
_atom_site_fract_x
_atom_site_fract_y
_atom_site_fract_z
Si Si1 0.750000 0.450193 0.163402
Si Si2 0.439620 0.950341 0.038098
Si Si3 0.441951 0.952044 0.211465
Si Si4 0.949875 0.250000 0.414134
O O1 0.750000 0.250000 0.161444
O O2 0.581850 0.500194 0.183908
O O3 0.750000 0.520367 0.124588
O O4 0.250000 0.017321 0.044493
O O5 0.430329 0.750000 0.039053
O O6 0.582479 0.002126 0.065007
O O7 0.500000 0.000000 0.000000
O O8 0.500347 0.000347 0.250000
O O9 0.250000 0.014646 0.205134
O O10 0.432115 0.750000 0.212257
O O11 0.750000 0.250000 0.411968
#
# Coordination Sequence:
#
# PCOD9570514 Si02
#       4
#     8  16  16   8
#     4  11  25  39  59  91 127 165 205 257 319 373
#     4  11  23  39  64  93 120 157 206 258 309 368
#     4   9  20  39  62  89 120 158 207 258 308 372
#     4  11  25  43  59  87 129 167 207 255 311 375
#
# _framework density 19.495076999999998
#
# number of rings (size 3 to 8) (size 9 to 14) (size 15 to 20)
#    0.000    1.667    1.667    3.000    2.333    6.667 
#    0.000    6.667    0.000    0.000    0.000    0.000 
#    0.000    0.000    0.000    0.000    0.000    0.000 
#
# Total GULP energy -267981.850140 kJ/mol
# GULP energy per Si atom -5582.955211 kJ/mol
# Density = 1.945071 g / cm^3
# Si number density = 19.495077 Si / 1000 Ang^3
#
#
#
# Elastic Constant Matrix: (Units=GPa)
#
#
# Indices 1 2 3 4 5 6 
#
# 1 109.2932 37.4605 75.6980 0.0000 0.0000 0.0000
# 2 37.4605 109.2932 75.6980 0.0000 0.0000 0.0000
# 3 75.6980 75.6980 199.1011 0.0000 0.0000 0.0000
# 4 0.0000 0.0000 0.0000 9.2059 0.0000 0.0000
# 5 0.0000 0.0000 0.0000 0.0000 9.2059 0.0000
# 6 0.0000 0.0000 0.0000 0.0000 0.0000 30.3602
#
#
#
# Elastic Compliance Matrix: (Units=1/GPa)
#
#
# Indices 1 2 3 4 5 6 
#
# 1 0.012566 -0.001355 -0.004263 0.000000 0.000000 0.000000
# 2 -0.001355 0.012566 -0.004263 0.000000 0.000000 0.000000
# 3 -0.004263 -0.004263 0.008264 0.000000 0.000000 0.000000
# 4 0.000000 0.000000 0.000000 0.108625 0.000000 0.000000
# 5 0.000000 0.000000 0.000000 0.000000 0.108625 0.000000
# 6 0.000000 0.000000 0.000000 0.000000 0.000000 0.032938
#
#
# Mechanical properties :
#
#
# Convention : Reuss Voigt Hill
#
# Bulk Modulus (GPa) = 73.33235 88.37784 80.85509
# Shear Modulus (GPa) = 16.23950 25.00981 20.62466
#
# Velocity S-wave (km/s) = 2.88931 3.58561 3.25613
# Velocity P-wave (km/s) = 6.98773 7.91037 7.46332
#
# Compressibility (1/GPa) = 0.01363655
#
# Stress axis : x y z
#
# Youngs Moduli (GPa) = 79.57708 79.57708 121.00840
#
# Poissons Ratio (x) = 0.10781 0.51582
# Poissons Ratio (y) = 0.10781 0.51582
# Poissons Ratio (z) = 0.33921 0.33921
#
# Static dielectric constant tensor:
#      x y z
#    x 1.731880 0.000000 0.000000 
#    y 0.000000 1.731880 0.000000 
#    z 0.000000 0.000000 1.715180 
# 
# From -- ./inp_files/10053.got.cif
#   From: 2010.05.17/outbox.cif.g08.bks.cpg/sg137_6_cif.got.tgz:10053.got - 2010.05.20 13:01:12.
