data_PCOD9570558
_publ_section_title
;
Structure prediction by ZEFSAII (Michael W. Deem and Ramdas Pophale) SiO2 
 PCOD9570558
Probable space group: P 42/N C M
;
_chemical_formula_sum "Si O2"
_cell_formula_units_Z 112
_cell_length_a 29.010141
_cell_length_b 29.010141
_cell_length_c 5.517310
_cell_angle_alpha 90.000000
_cell_angle_beta 90.000000
_cell_angle_gamma 90.000000
_cell_volume 4643.303438
_symmetry_space_group_name_H-M "P 42/N C M"
_symmetry_group_IT_number 138
_space_group.IT_coordinate_system_code '2'
_symmetry_cell_setting 'tetragonal'
loop_
_space_group_symop_operation_xyz
x,y,z
1/2-y,x,1/2+z
1/2-x,1/2-y,z
y,1/2-x,1/2+z
1/2+x,-y,1/2-z
-x,1/2+y,1/2-z
1/2+y,1/2+x,-z
-y,-x,-z
-x,-y,-z
1/2+y,-x,1/2-z
1/2+x,1/2+y,-z
-y,1/2+x,1/2-z
1/2-x,y,1/2+z
x,1/2-y,1/2+z
1/2-y,1/2-x,z
y,x,z
loop_
_atom_site_type_symbol
_atom_site_label
_atom_site_fract_x
_atom_site_fract_y
_atom_site_fract_z
Si Si1 0.358481 0.219785 0.785312
Si Si2 0.443573 0.722949 0.786863
Si Si3 0.537628 0.720933 0.673238
Si Si4 0.647368 0.109114 0.752146
Si Si5 0.979042 0.102549 0.752841
Si Si6 0.252985 0.654544 0.712597
Si Si7 0.571579 0.495979 0.747687
O O1 0.353615 0.248826 0.531593
O O2 0.320187 0.179814 0.789429
O O3 0.411234 0.200438 0.794261
O O4 0.448044 0.756233 0.553811
O O5 0.489802 0.693528 0.734445
O O6 0.387815 0.715351 0.779081
O O7 0.536499 0.740627 0.395029
O O8 0.624757 0.124757 0.500000
O O9 0.646671 0.053813 0.741837
O O10 0.697153 0.130982 0.779199
O O11 0.621343 0.121343 0.000000
O O12 0.944441 0.057687 0.751352
O O13 0.005567 0.097843 0.501979
O O14 0.006077 0.097405 0.002015
O O15 0.250198 0.679867 0.462425
O O16 0.524974 0.524974 0.745534
#
# Coordination Sequence:
#
# PCOD9570558 Si02
#       7
#    16  16  16  16  16  16  16
#     4  10  19  28  38  55  84 120 149 190 253 317
#     4   8  14  27  47  68  92 118 150 199 246 276
#     4   8  14  25  41  60  82 111 144 190 232 285
#     4  12  21  35  53  76 112 149 172 214 273 340
#     4  10  16  27  39  64  96 133 173 206 249 304
#     4  10  21  36  54  79 109 138 174 216 259 320
#     4  10  16  25  41  63  98 136 177 216 241 282
#
# _framework density 24.120757999999999
#
# number of rings (size 3 to 8) (size 9 to 14) (size 15 to 20)
#    0.000    2.286    2.857    3.429    0.000    0.857 
#    0.000    0.000    0.000    0.000    0.000    0.000 
#    0.000  166.286    0.000    0.000    0.000    0.000 
#
# Total GULP energy -624101.942703 kJ/mol
# GULP energy per Si atom -5572.338774 kJ/mol
# Density = 2.406586 g / cm^3
# Si number density = 24.120758 Si / 1000 Ang^3
#
#
#
# Elastic Constant Matrix: (Units=GPa)
#
#
# Indices 1 2 3 4 5 6 
#
# 1 113.8222 -29.4969 27.6893 0.0000 0.0000 0.0000
# 2 -29.4969 113.8222 27.6893 0.0000 0.0000 0.0000
# 3 27.6893 27.6893 270.0841 0.0000 0.0000 0.0000
# 4 0.0000 0.0000 0.0000 13.2957 0.0000 0.0000
# 5 0.0000 0.0000 0.0000 0.0000 13.2957 0.0000
# 6 0.0000 0.0000 0.0000 0.0000 0.0000 21.5757
#
#
#
# Elastic Compliance Matrix: (Units=1/GPa)
#
#
# Indices 1 2 3 4 5 6 
#
# 1 0.009846 0.002869 -0.001304 0.000000 0.000000 0.000000
# 2 0.002869 0.009846 -0.001304 0.000000 0.000000 0.000000
# 3 -0.001304 -0.001304 0.003970 0.000000 0.000000 0.000000
# 4 0.000000 0.000000 0.000000 0.075212 0.000000 0.000000
# 5 0.000000 0.000000 0.000000 0.000000 0.075212 0.000000
# 6 0.000000 0.000000 0.000000 0.000000 0.000000 0.046348
#
#
# Mechanical properties :
#
#
# Convention : Reuss Voigt Hill
#
# Bulk Modulus (GPa) = 41.34713 61.05467 51.20090
# Shear Modulus (GPa) = 21.93240 41.08988 31.51114
#
# Velocity S-wave (km/s) = 3.01869 4.13183 3.61832
# Velocity P-wave (km/s) = 5.41562 6.93756 6.22329
#
# Compressibility (1/GPa) = 0.02418547
#
# Stress axis : x y z
#
# Youngs Moduli (GPa) = 101.56224 101.56224 251.89974
#
# Poissons Ratio (x) = -0.29136 0.32836
# Poissons Ratio (y) = -0.29136 0.32836
# Poissons Ratio (z) = 0.13239 0.13239
#
# Static dielectric constant tensor:
#      x y z
#    x 1.969200 0.000000 0.000000 
#    y 0.000000 1.969200 0.000000 
#    z 0.000000 0.000000 1.975220 
# 
# From -- ./inp_files/542.got.cif
#   From: 2010.05.17/outbox.cif.g08.bks.cpg/sg138_1_cif.got.tgz:542.got - 2010.05.20 13:08:53.
