data_PCOD9570194
_publ_section_title
;
Structure prediction by ZEFSAII (Michael W. Deem and Ramdas Pophale) SiO2 
 PCOD9570194
Probable space group: P 42/N M C
;
_chemical_formula_sum "Si O2"
_cell_formula_units_Z 96
_cell_length_a 22.396770
_cell_length_b 22.396770
_cell_length_c 8.084320
_cell_angle_alpha 90.000000
_cell_angle_beta 90.000000
_cell_angle_gamma 90.000000
_cell_volume 4055.218654
_symmetry_space_group_name_H-M "P 42/N M C"
_symmetry_group_IT_number 137
_space_group.IT_coordinate_system_code '2'
_symmetry_cell_setting 'tetragonal'
loop_
_space_group_symop_operation_xyz
x,y,z
1/2-y,x,1/2+z
1/2-x,1/2-y,z
y,1/2-x,1/2+z
1/2+x,-y,-z
-x,1/2+y,-z
1/2+y,1/2+x,1/2-z
-y,-x,1/2-z
-x,-y,-z
1/2+y,-x,1/2-z
1/2+x,1/2+y,-z
-y,1/2+x,1/2-z
1/2-x,y,z
x,1/2-y,z
1/2-y,1/2-x,1/2+z
y,x,1/2+z
loop_
_atom_site_type_symbol
_atom_site_label
_atom_site_fract_x
_atom_site_fract_y
_atom_site_fract_z
Si Si1 0.521174 0.080126 0.416432
Si Si2 0.076235 0.316084 0.663360
Si Si3 0.817494 0.078144 0.562808
Si Si4 0.990118 0.906026 0.124265
Si Si5 0.408021 0.681484 0.465364
Si Si6 0.685078 0.681069 0.569845
O O1 0.550834 0.050834 0.250000
O O2 0.452216 0.062552 0.410698
O O3 0.538824 0.149010 0.434833
O O4 0.550148 0.046464 0.577897
O O5 0.046346 0.250000 0.652953
O O6 0.033318 0.369656 0.716671
O O7 0.120469 0.325848 0.512087
O O8 0.127103 0.312495 0.803647
O O9 0.750000 0.078560 0.508302
O O10 0.853060 0.136212 0.501266
O O11 0.819836 0.082561 0.765081
O O12 0.850124 0.015866 0.517946
O O13 0.398415 0.750000 0.511945
O O14 0.750000 0.675902 0.478606
O O15 0.685448 0.750000 0.626589
#
# Coordination Sequence:
#
# PCOD9570194 Si02
#       6
#    16  16  16  16  16  16
#     4  10  23  38  57  81 111 159 191 229 288 353
#     4  10  20  33  53  79 107 142 185 236 284 333
#     4   9  18  34  60  89 116 148 189 244 301 347
#     4  10  22  35  57  79 112 145 192 234 283 346
#     4   9  19  37  59  86 117 148 191 245 295 350
#     4   9  18  33  51  73 106 146 185 226 277 333
#
# _framework density 23.673200000000001
#
# number of rings (size 3 to 8) (size 9 to 14) (size 15 to 20)
#    0.000    2.500    0.000    1.000    9.333    2.333 
#    0.000    9.167    0.000    0.000    0.000    0.000 
#    0.000    0.000    0.000    0.000    0.000    0.000 
#
# Total GULP energy -534490.027900 kJ/mol
# GULP energy per Si atom -5567.604457 kJ/mol
# Density = 2.361932 g / cm^3
# Si number density = 23.673200 Si / 1000 Ang^3
#
#
#
# Elastic Constant Matrix: (Units=GPa)
#
#
# Indices 1 2 3 4 5 6 
#
# 1 131.5728 96.4959 18.5288 0.0000 0.0000 0.0000
# 2 96.4959 131.5728 18.5288 0.0000 0.0000 0.0000
# 3 18.5288 18.5288 47.7001 0.0000 0.0000 0.0000
# 4 0.0000 0.0000 0.0000 22.3300 0.0000 0.0000
# 5 0.0000 0.0000 0.0000 0.0000 22.3300 0.0000
# 6 0.0000 0.0000 0.0000 0.0000 0.0000 43.5159
#
#
#
# Elastic Compliance Matrix: (Units=1/GPa)
#
#
# Indices 1 2 3 4 5 6 
#
# 1 0.016594 -0.011914 -0.001818 0.000000 0.000000 0.000000
# 2 -0.011914 0.016594 -0.001818 0.000000 0.000000 0.000000
# 3 -0.001818 -0.001818 0.022377 0.000000 0.000000 0.000000
# 4 0.000000 0.000000 0.000000 0.044783 0.000000 0.000000
# 5 0.000000 0.000000 0.000000 0.000000 0.044783 0.000000
# 6 0.000000 0.000000 0.000000 0.000000 0.000000 0.022980
#
#
# Mechanical properties :
#
#
# Convention : Reuss Voigt Hill
#
# Bulk Modulus (GPa) = 40.87473 64.21695 52.54584
# Shear Modulus (GPa) = 24.11187 29.45465 26.78326
#
# Velocity S-wave (km/s) = 3.19490 3.53118 3.36724
# Velocity P-wave (km/s) = 5.56000 6.61898 6.11247
#
# Compressibility (1/GPa) = 0.02446499
#
# Stress axis : x y z
#
# Youngs Moduli (GPa) = 60.26118 60.26118 44.68948
#
# Poissons Ratio (x) = 0.71798 0.08124
# Poissons Ratio (y) = 0.71798 0.08124
# Poissons Ratio (z) = 0.10955 0.10955
#
# Static dielectric constant tensor:
#      x y z
#    x 1.920860 0.000000 0.000000 
#    y 0.000000 1.920860 0.000000 
#    z 0.000000 0.000000 1.999240 
# 
# From -- ./inp_files/2181.got.cif
#   From: 2010.05.17/outbox.cif.g08.bks.cpg/sg137_2_cif.got.tgz:2181.got - 2010.05.20 13:01:12.
