data_PCOD9570447
_publ_section_title
;
Structure prediction by ZEFSAII (Michael W. Deem and Ramdas Pophale) SiO2 
 PCOD9570447
Probable space group: P 42/N M C
;
_chemical_formula_sum "Si O2"
_cell_formula_units_Z 42
_cell_length_a 7.673029
_cell_length_b 7.673029
_cell_length_c 34.761955
_cell_angle_alpha 90.000000
_cell_angle_beta 90.000000
_cell_angle_gamma 90.000000
_cell_volume 2046.623103
_symmetry_space_group_name_H-M "P 42/N M C"
_symmetry_group_IT_number 137
_space_group.IT_coordinate_system_code '2'
_symmetry_cell_setting 'tetragonal'
loop_
_space_group_symop_operation_xyz
x,y,z
1/2-y,x,1/2+z
1/2-x,1/2-y,z
y,1/2-x,1/2+z
1/2+x,-y,-z
-x,1/2+y,-z
1/2+y,1/2+x,1/2-z
-y,-x,1/2-z
-x,-y,-z
1/2+y,-x,1/2-z
1/2+x,1/2+y,-z
-y,1/2+x,1/2-z
1/2-x,y,z
x,1/2-y,z
1/2-y,1/2-x,1/2+z
y,x,1/2+z
loop_
_atom_site_type_symbol
_atom_site_label
_atom_site_fract_x
_atom_site_fract_y
_atom_site_fract_z
Si Si1 0.556695 0.040374 0.456922
Si Si2 0.950002 0.463181 0.125565
Si Si3 0.750000 0.250000 0.750000
Si Si4 0.460409 0.250000 0.685591
O O1 0.750000 0.965951 0.455051
O O2 0.561090 0.250000 0.454234
O O3 0.469220 0.988084 0.416562
O O4 0.500000 0.000000 0.500000
O O5 0.750000 0.518423 0.132447
O O6 0.947470 0.250000 0.123006
O O7 0.081911 0.505362 0.159446
O O8 0.578649 0.250000 0.723211
O O9 0.250000 0.250000 0.692649
#
# Coordination Sequence:
#
# PCOD9570447 Si02
#       4
#    16  16   2   8
#     4   9  18  31  47  74 110 148 193 240 276 328
#     4   8  16  34  58  81 109 152 202 236 283 357
#     4  12  28  44  60 104 124 132 204 268 292 376
#     4  10  22  42  66  86 116 160 188 236 318 360
#
# _framework density 20.521612000000001
#
# number of rings (size 3 to 8) (size 9 to 14) (size 15 to 20)
#    0.000    3.048    0.000    2.286    2.667    2.286 
#    3.429    0.000    0.000    0.000    0.000    0.000 
#    0.000    0.000    0.000    0.000    0.000    0.000 
#
# Total GULP energy -233873.157027 kJ/mol
# GULP energy per Si atom -5568.408501 kJ/mol
# Density = 2.047490 g / cm^3
# Si number density = 20.521612 Si / 1000 Ang^3
#
#
#
# Elastic Constant Matrix: (Units=GPa)
#
#
# Indices 1 2 3 4 5 6 
#
# 1 75.7645 24.3242 72.4301 0.0000 0.0000 0.0000
# 2 24.3242 75.7645 72.4301 0.0000 0.0000 0.0000
# 3 72.4301 72.4301 214.6042 0.0000 0.0000 0.0000
# 4 0.0000 0.0000 0.0000 36.5023 0.0000 0.0000
# 5 0.0000 0.0000 0.0000 0.0000 36.5023 0.0000
# 6 0.0000 0.0000 0.0000 0.0000 0.0000 9.9780
#
#
#
# Elastic Compliance Matrix: (Units=1/GPa)
#
#
# Indices 1 2 3 4 5 6 
#
# 1 0.019486 0.000046 -0.006592 0.000000 0.000000 0.000000
# 2 0.000046 0.019486 -0.006592 0.000000 0.000000 0.000000
# 3 -0.006592 -0.006592 0.009110 0.000000 0.000000 0.000000
# 4 0.000000 0.000000 0.000000 0.027396 0.000000 0.000000
# 5 0.000000 0.000000 0.000000 0.000000 0.027396 0.000000
# 6 0.000000 0.000000 0.000000 0.000000 0.000000 0.100220
#
#
# Mechanical properties :
#
#
# Convention : Reuss Voigt Hill
#
# Bulk Modulus (GPa) = 45.86096 78.27797 62.06946
# Shear Modulus (GPa) = 21.12930 29.72644 25.42787
#
# Velocity S-wave (km/s) = 3.21224 3.81010 3.52387
# Velocity P-wave (km/s) = 6.01283 7.58833 6.84605
#
# Compressibility (1/GPa) = 0.02180504
#
# Stress axis : x y z
#
# Youngs Moduli (GPa) = 51.31865 51.31865 109.77486
#
# Poissons Ratio (x) = -0.00236 0.72366
# Poissons Ratio (y) = -0.00236 0.72366
# Poissons Ratio (z) = 0.33830 0.33830
#
# Static dielectric constant tensor:
#      x y z
#    x 1.755650 0.000000 0.000000 
#    y 0.000000 1.755650 0.000000 
#    z 0.000000 0.000000 1.761110 
# 
# From -- ./inp_files/9320.got.cif
#   From: 2010.05.17/outbox.cif.g08.bks.cpg/sg137_5_cif.got.tgz:9320.got - 2010.05.20 13:01:12.
