data_PCOD9570282
_publ_section_title
;
Structure prediction by ZEFSAII (Michael W. Deem and Ramdas Pophale) SiO2 
 PCOD9570282
Probable space group: P 42/N M C
;
_chemical_formula_sum "Si O2"
_cell_formula_units_Z 92
_cell_length_a 25.458071
_cell_length_b 25.458071
_cell_length_c 8.536921
_cell_angle_alpha 90.000000
_cell_angle_beta 90.000000
_cell_angle_gamma 90.000000
_cell_volume 5532.892716
_symmetry_space_group_name_H-M "P 42/N M C"
_symmetry_group_IT_number 137
_space_group.IT_coordinate_system_code '2'
_symmetry_cell_setting 'tetragonal'
loop_
_space_group_symop_operation_xyz
x,y,z
1/2-y,x,1/2+z
1/2-x,1/2-y,z
y,1/2-x,1/2+z
1/2+x,-y,-z
-x,1/2+y,-z
1/2+y,1/2+x,1/2-z
-y,-x,1/2-z
-x,-y,-z
1/2+y,-x,1/2-z
1/2+x,1/2+y,-z
-y,1/2+x,1/2-z
1/2-x,y,z
x,1/2-y,z
1/2-y,1/2-x,1/2+z
y,x,1/2+z
loop_
_atom_site_type_symbol
_atom_site_label
_atom_site_fract_x
_atom_site_fract_y
_atom_site_fract_z
Si Si1 0.409205 0.037572 0.650601
Si Si2 0.033621 0.310276 0.725999
Si Si3 0.621305 0.851586 0.058695
Si Si4 0.990797 0.416419 0.836665
Si Si5 0.055631 0.310477 0.363664
Si Si6 0.250000 0.340256 0.578975
Si Si7 0.250000 0.250000 0.826621
O O1 0.393035 0.084508 0.531597
O O2 0.458588 0.054868 0.755194
O O3 0.423714 0.992539 0.524911
O O4 0.356588 0.031103 0.755557
O O5 0.024533 0.250000 0.775259
O O6 0.090930 0.328076 0.791207
O O7 0.996600 0.354509 0.800648
O O8 0.031479 0.312489 0.538560
O O9 0.672650 0.883661 0.106013
O O10 0.628141 0.803143 0.942665
O O11 0.941473 0.441473 0.750000
O O12 0.051570 0.250000 0.307438
O O13 0.250000 0.301596 0.722832
O O14 0.250000 0.301586 0.429841
#
# Coordination Sequence:
#
# PCOD9570282 Si02
#       7
#    16  16  16  16  16   8   4
#     4  11  21  34  50  74  97 125 173 216 264 309
#     4  10  20  37  52  71  99 130 164 209 260 312
#     4  11  21  33  50  66  91 128 177 215 262 307
#     4  11  21  36  56  76 100 129 166 213 264 313
#     4  11  22  32  51  70  98 136 177 219 260 301
#     4  11  26  34  46  56  82 122 166 226 271 309
#     4  10  28  38  36  58  84 114 172 230 284 292
#
# _framework density 16.627831
#
# number of rings (size 3 to 8) (size 9 to 14) (size 15 to 20)
#    0.000    1.217    6.087    0.522    8.522    0.696 
#    0.000    0.000    0.000    0.000    0.000    0.000 
#    0.000    0.348    0.000    0.000    0.000    4.174 
#
# Total GULP energy -513566.683153 kJ/mol
# GULP energy per Si atom -5582.246556 kJ/mol
# Density = 1.658998 g / cm^3
# Si number density = 16.627831 Si / 1000 Ang^3
#
#
#
# Elastic Constant Matrix: (Units=GPa)
#
#
# Indices 1 2 3 4 5 6 
#
# 1 32.4390 10.3906 -1.4872 0.0000 0.0000 0.0000
# 2 10.3906 32.4390 -1.4872 0.0000 0.0000 0.0000
# 3 -1.4872 -1.4872 72.2091 0.0000 0.0000 0.0000
# 4 0.0000 0.0000 0.0000 20.8647 0.0000 0.0000
# 5 0.0000 0.0000 0.0000 0.0000 20.8647 0.0000
# 6 0.0000 0.0000 0.0000 0.0000 0.0000 14.2311
#
#
#
# Elastic Compliance Matrix: (Units=1/GPa)
#
#
# Indices 1 2 3 4 5 6 
#
# 1 0.034368 -0.010986 0.000482 0.000000 0.000000 0.000000
# 2 -0.010986 0.034368 0.000482 0.000000 0.000000 0.000000
# 3 0.000482 0.000482 0.013869 0.000000 0.000000 0.000000
# 4 0.000000 0.000000 0.000000 0.047928 0.000000 0.000000
# 5 0.000000 0.000000 0.000000 0.000000 0.047928 0.000000
# 6 0.000000 0.000000 0.000000 0.000000 0.000000 0.070269
#
#
# Mechanical properties :
#
#
# Convention : Reuss Voigt Hill
#
# Bulk Modulus (GPa) = 15.98510 16.87996 16.43253
# Shear Modulus (GPa) = 17.26349 19.83684 18.55016
#
# Velocity S-wave (km/s) = 3.22565 3.45772 3.34370
# Velocity P-wave (km/s) = 4.84845 5.11026 4.98107
#
# Compressibility (1/GPa) = 0.06255826
#
# Stress axis : x y z
#
# Youngs Moduli (GPa) = 29.09661 29.09661 72.10579
#
# Poissons Ratio (x) = 0.31967 -0.03472
# Poissons Ratio (y) = 0.31967 -0.03472
# Poissons Ratio (z) = -0.01401 -0.01401
#
# Static dielectric constant tensor:
#      x y z
#    x 1.577380 0.000000 0.000000 
#    y 0.000000 1.577380 0.000000 
#    z 0.000000 0.000000 1.633520 
# 
# From -- ./inp_files/2302.got.cif
#   From: 2010.05.17/outbox.cif.g08.bks.cpg/sg137_2_cif.got.tgz:2302.got - 2010.05.20 13:01:12.
