data_PCOD9570191
_publ_section_title
;
Structure prediction by ZEFSAII (Michael W. Deem and Ramdas Pophale) SiO2 
 PCOD9570191
Probable space group: P 42/N M C
;
_chemical_formula_sum "Si O2"
_cell_formula_units_Z 80
_cell_length_a 18.389503
_cell_length_b 18.389503
_cell_length_c 13.331639
_cell_angle_alpha 90.000000
_cell_angle_beta 90.000000
_cell_angle_gamma 90.000000
_cell_volume 4508.411295
_symmetry_space_group_name_H-M "P 42/N M C"
_symmetry_group_IT_number 137
_space_group.IT_coordinate_system_code '2'
_symmetry_cell_setting 'tetragonal'
loop_
_space_group_symop_operation_xyz
x,y,z
1/2-y,x,1/2+z
1/2-x,1/2-y,z
y,1/2-x,1/2+z
1/2+x,-y,-z
-x,1/2+y,-z
1/2+y,1/2+x,1/2-z
-y,-x,1/2-z
-x,-y,-z
1/2+y,-x,1/2-z
1/2+x,1/2+y,-z
-y,1/2+x,1/2-z
1/2-x,y,z
x,1/2-y,z
1/2-y,1/2-x,1/2+z
y,x,1/2+z
loop_
_atom_site_type_symbol
_atom_site_label
_atom_site_fract_x
_atom_site_fract_y
_atom_site_fract_z
Si Si1 0.616854 0.335393 0.140860
Si Si2 0.904357 0.331690 0.561621
Si Si3 0.662757 0.021754 0.638631
Si Si4 0.163710 0.455204 0.574622
Si Si5 0.665734 0.557013 0.845892
O O1 0.646260 0.353741 0.250000
O O2 0.627310 0.250000 0.118757
O O3 0.530525 0.350023 0.133799
O O4 0.655708 0.379646 0.052443
O O5 0.882808 0.250000 0.594984
O O6 0.870274 0.398047 0.624625
O O7 0.990804 0.336565 0.575137
O O8 0.750000 0.030086 0.638089
O O9 0.643295 0.979786 0.740087
O O10 0.642872 0.974730 0.540250
O O11 0.250000 0.440596 0.577079
O O12 0.118898 0.389143 0.620011
O O13 0.750000 0.581367 0.837003
#
# Coordination Sequence:
#
# PCOD9570191 Si02
#       5
#    16  16  16  16  16
#     4  10  21  35  53  80 112 145 181 219 260 311
#     4  10  20  33  52  79 108 141 179 215 259 316
#     4   9  19  36  55  78 109 141 176 219 263 310
#     4   9  20  38  57  77 103 139 182 223 266 319
#     4  10  21  36  55  81 110 137 174 226 273 316
#
# _framework density 17.744610000000002
#
# number of rings (size 3 to 8) (size 9 to 14) (size 15 to 20)
#    0.000    2.400    0.000    3.000    0.000    9.400 
#    0.000    4.000    0.000   10.800    0.000    0.000 
#    0.000    0.000    0.000    0.000    0.000    0.000 
#
# Total GULP energy -446332.251255 kJ/mol
# GULP energy per Si atom -5579.153141 kJ/mol
# Density = 1.770422 g / cm^3
# Si number density = 17.744610 Si / 1000 Ang^3
#
#
#
# Elastic Constant Matrix: (Units=GPa)
#
#
# Indices 1 2 3 4 5 6 
#
# 1 78.5278 67.2195 37.8302 0.0000 0.0000 0.0000
# 2 67.2195 78.5319 37.8347 0.0000 0.0000 0.0000
# 3 37.8302 37.8347 69.7091 0.0000 0.0000 0.0000
# 4 0.0000 0.0000 0.0000 23.0696 0.0000 0.0000
# 5 0.0000 0.0000 0.0000 0.0000 23.0701 0.0000
# 6 0.0000 0.0000 0.0000 0.0000 0.0000 43.1791
#
#
#
# Elastic Compliance Matrix: (Units=1/GPa)
#
#
# Indices 1 2 3 4 5 6 
#
# 1 0.048983 -0.039431 -0.005181 0.000000 0.000000 0.000000
# 2 -0.039431 0.048984 -0.005187 0.000000 0.000000 0.000000
# 3 -0.005181 -0.005187 0.019973 0.000000 0.000000 0.000000
# 4 0.000000 0.000000 0.000000 0.043347 0.000000 0.000000
# 5 0.000000 0.000000 0.000000 0.000000 0.043346 0.000000
# 6 0.000000 0.000000 0.000000 0.000000 0.000000 0.023159
#
#
# Mechanical properties :
#
#
# Convention : Reuss Voigt Hill
#
# Bulk Modulus (GPa) = 54.52474 56.94863 55.73668
# Shear Modulus (GPa) = 14.99229 23.45605 19.22417
#
# Velocity S-wave (km/s) = 2.90986 3.63970 3.29505
# Velocity P-wave (km/s) = 6.48721 7.05878 6.77902
#
# Compressibility (1/GPa) = 0.01834030
#
# Stress axis : x y z
#
# Youngs Moduli (GPa) = 20.41518 20.41492 50.06860
#
# Poissons Ratio (x) = 0.80498 0.25942
# Poissons Ratio (y) = 0.80499 0.25972
# Poissons Ratio (z) = 0.10578 0.10590
#
# Static dielectric constant tensor:
#      x y z
#    x 1.593110 0.000000 0.000000 
#    y 0.000000 1.593110 0.000000 
#    z 0.000000 0.000000 1.613440 
# 
# From -- ./inp_files/4934.got.cif
#   From: 2010.05.17/outbox.cif.g08.bks.cpg/sg137_3_cif.got.tgz:4934.got - 2010.05.20 13:01:12.
