data_PCOD9570026
_publ_section_title
;
Structure prediction by ZEFSAII (Michael W. Deem and Ramdas Pophale) SiO2 
 PCOD9570026
Probable space group: P 42/N M C
;
_chemical_formula_sum "Si O2"
_cell_formula_units_Z 64
_cell_length_a 13.656397
_cell_length_b 13.656397
_cell_length_c 21.770490
_cell_angle_alpha 90.000000
_cell_angle_beta 90.000000
_cell_angle_gamma 90.000000
_cell_volume 4060.134971
_symmetry_space_group_name_H-M "P 42/N M C"
_symmetry_group_IT_number 137
_space_group.IT_coordinate_system_code '2'
_symmetry_cell_setting 'tetragonal'
loop_
_space_group_symop_operation_xyz
x,y,z
1/2-y,x,1/2+z
1/2-x,1/2-y,z
y,1/2-x,1/2+z
1/2+x,-y,-z
-x,1/2+y,-z
1/2+y,1/2+x,1/2-z
-y,-x,1/2-z
-x,-y,-z
1/2+y,-x,1/2-z
1/2+x,1/2+y,-z
-y,1/2+x,1/2-z
1/2-x,y,z
x,1/2-y,z
1/2-y,1/2-x,1/2+z
y,x,1/2+z
loop_
_atom_site_type_symbol
_atom_site_label
_atom_site_fract_x
_atom_site_fract_y
_atom_site_fract_z
Si Si1 0.452288 0.364113 0.003688
Si Si2 0.132147 0.559922 0.315534
Si Si3 0.632206 0.858418 0.629508
Si Si4 0.952606 0.135940 0.558929
O O1 0.443132 0.250000 0.018605
O O2 0.407235 0.437613 0.053200
O O3 0.392318 0.384905 0.940605
O O4 0.564180 0.391058 0.986118
O O5 0.098313 0.598313 0.250000
O O6 0.250000 0.564406 0.319612
O O7 0.099781 0.447388 0.327340
O O8 0.088728 0.620492 0.372642
O O9 0.750000 0.853597 0.635850
O O10 0.592092 0.750000 0.641084
O O11 0.949281 0.250000 0.542392
#
# Coordination Sequence:
#
# PCOD9570026 Si02
#       4
#    16  16  16  16
#     4   9  18  31  47  70  98 124 152 190 238 286
#     4  10  20  32  46  66  92 122 156 192 231 276
#     4   8  14  27  47  66  85 114 149 183 224 275
#     4  10  19  30  47  71  96 124 159 194 230 279
#
# _framework density 15.763021999999999
#
# number of rings (size 3 to 8) (size 9 to 14) (size 15 to 20)
#    0.000    2.750    0.000    3.750    0.000    4.750 
#    0.000    1.250    0.000    3.000    0.000    0.000 
#    0.000    2.500    0.000    0.000    0.000    0.000 
#
# Total GULP energy -356439.992492 kJ/mol
# GULP energy per Si atom -5569.374883 kJ/mol
# Density = 1.572715 g / cm^3
# Si number density = 15.763022 Si / 1000 Ang^3
#
#
#
# Elastic Constant Matrix: (Units=GPa)
#
#
# Indices 1 2 3 4 5 6 
#
# 1 109.5355 31.5067 39.1327 0.0000 0.0000 0.0000
# 2 31.5067 109.5355 39.1327 0.0000 0.0000 0.0000
# 3 39.1327 39.1327 58.3145 0.0000 0.0000 0.0000
# 4 0.0000 0.0000 0.0000 13.5195 0.0000 0.0000
# 5 0.0000 0.0000 0.0000 0.0000 13.5195 0.0000
# 6 0.0000 0.0000 0.0000 0.0000 0.0000 15.0099
#
#
#
# Elastic Compliance Matrix: (Units=1/GPa)
#
#
# Indices 1 2 3 4 5 6 
#
# 1 0.012056 -0.000760 -0.007581 0.000000 0.000000 0.000000
# 2 -0.000760 0.012056 -0.007581 0.000000 0.000000 0.000000
# 3 -0.007581 -0.007581 0.027323 0.000000 0.000000 0.000000
# 4 0.000000 0.000000 0.000000 0.073967 0.000000 0.000000
# 5 0.000000 0.000000 0.000000 0.000000 0.073967 0.000000
# 6 0.000000 0.000000 0.000000 0.000000 0.000000 0.066623
#
#
# Mechanical properties :
#
#
# Convention : Reuss Voigt Hill
#
# Bulk Modulus (GPa) = 51.03867 55.21443 53.12655
# Shear Modulus (GPa) = 16.42757 19.58398 18.00578
#
# Velocity S-wave (km/s) = 3.23175 3.52859 3.38343
# Velocity P-wave (km/s) = 6.80989 7.19063 7.00285
#
# Compressibility (1/GPa) = 0.01959299
#
# Stress axis : x y z
#
# Youngs Moduli (GPa) = 82.94443 82.94443 36.59942
#
# Poissons Ratio (x) = 0.06300 0.27745
# Poissons Ratio (y) = 0.06300 0.27745
# Poissons Ratio (z) = 0.62879 0.62879
#
# Static dielectric constant tensor:
#      x y z
#    x 1.546080 0.000000 0.000000 
#    y 0.000000 1.546080 0.000000 
#    z 0.000000 0.000000 1.505990 
# 
# From -- ./inp_files/6057.got.cif
#   From: 2010.05.17/outbox.cif.g08.bks.cpg/sg137_4_cif.got.tgz:6057.got - 2010.05.20 13:01:12.
