data_PCOD9570883
_publ_section_title
;
Structure prediction by ZEFSAII (Michael W. Deem and Ramdas Pophale) SiO2 
 PCOD9570883
Probable space group: P 42/N C M
;
_chemical_formula_sum "Si O2"
_cell_formula_units_Z 112
_cell_length_a 16.382278
_cell_length_b 16.382278
_cell_length_c 23.764215
_cell_angle_alpha 90.000000
_cell_angle_beta 90.000000
_cell_angle_gamma 90.000000
_cell_volume 6377.817029
_symmetry_space_group_name_H-M "P 42/N C M"
_symmetry_group_IT_number 138
_space_group.IT_coordinate_system_code '2'
_symmetry_cell_setting 'tetragonal'
loop_
_space_group_symop_operation_xyz
x,y,z
1/2-y,x,1/2+z
1/2-x,1/2-y,z
y,1/2-x,1/2+z
1/2+x,-y,1/2-z
-x,1/2+y,1/2-z
1/2+y,1/2+x,-z
-y,-x,-z
-x,-y,-z
1/2+y,-x,1/2-z
1/2+x,1/2+y,-z
-y,1/2+x,1/2-z
1/2-x,y,1/2+z
x,1/2-y,1/2+z
1/2-y,1/2-x,z
y,x,z
loop_
_atom_site_type_symbol
_atom_site_label
_atom_site_fract_x
_atom_site_fract_y
_atom_site_fract_z
Si Si1 0.557898 0.809690 0.875973
Si Si2 0.250298 0.115656 0.001085
Si Si3 0.614256 0.324441 0.084088
Si Si4 0.746767 0.063708 0.537824
Si Si5 0.869761 0.312654 0.762640
Si Si6 0.368643 0.650928 0.384857
Si Si7 0.149615 0.012985 0.176818
O O1 0.619099 0.880902 0.859972
O O2 0.588879 0.771018 0.934885
O O3 0.466992 0.845516 0.885183
O O4 0.555124 0.738033 0.830113
O O5 0.321598 0.178403 0.983774
O O6 0.165780 0.165780 0.999526
O O7 0.250457 0.033571 0.964575
O O8 0.676613 0.397480 0.076440
O O9 0.653479 0.247564 0.116389
O O10 0.536016 0.356010 0.117589
O O11 0.591568 0.282424 0.024477
O O12 0.828653 0.105361 0.561978
O O13 0.855775 0.215800 0.754419
O O14 0.886414 0.334952 0.827405
O O15 0.943606 0.344174 0.724128
O O16 0.077734 0.077734 0.184330
#
# Coordination Sequence:
#
# PCOD9570883 Si02
#       7
#    16  16  16  16  16  16  16
#     4  10  21  38  59  86 116 152 199 250 299 344
#     4  10  21  38  58  80 113 159 202 238 289 352
#     4  10  21  36  54  91 121 158 190 240 296 355
#     4  11  21  34  58  87 124 156 195 238 297 355
#     4  11  22  39  61  84 120 158 195 240 303 362
#     4  11  21  36  58  88 122 153 192 239 296 362
#     4  11  22  40  63  91 119 153 205 253 296 350
#
# _framework density 17.560867999999999
#
# number of rings (size 3 to 8) (size 9 to 14) (size 15 to 20)
#    0.000    1.429    5.714    2.143    2.000    3.714 
#    0.000    2.857    0.000    0.857    0.000    0.000 
#    0.000    0.000    0.000    0.000    0.000    0.000 
#
# Total GULP energy -624740.367120 kJ/mol
# GULP energy per Si atom -5578.038992 kJ/mol
# Density = 1.752090 g / cm^3
# Si number density = 17.560868 Si / 1000 Ang^3
#
#
#
# Elastic Constant Matrix: (Units=GPa)
#
#
# Indices 1 2 3 4 5 6 
#
# 1 125.8055 80.7647 46.9461 0.0000 0.0000 0.0000
# 2 80.7647 125.8055 46.9461 0.0000 0.0000 0.0000
# 3 46.9461 46.9461 75.3831 0.0000 0.0000 0.0000
# 4 0.0000 0.0000 0.0000 22.3051 0.0000 0.0000
# 5 0.0000 0.0000 0.0000 0.0000 22.3051 0.0000
# 6 0.0000 0.0000 0.0000 0.0000 0.0000 23.7266
#
#
#
# Elastic Compliance Matrix: (Units=1/GPa)
#
#
# Indices 1 2 3 4 5 6 
#
# 1 0.014477 -0.007725 -0.004205 0.000000 0.000000 0.000000
# 2 -0.007725 0.014477 -0.004205 0.000000 0.000000 0.000000
# 3 -0.004205 -0.004205 0.018503 0.000000 0.000000 0.000000
# 4 0.000000 0.000000 0.000000 0.044833 0.000000 0.000000
# 5 0.000000 0.000000 0.000000 0.000000 0.044833 0.000000
# 6 0.000000 0.000000 0.000000 0.000000 0.000000 0.042147
#
#
# Mechanical properties :
#
#
# Convention : Reuss Voigt Hill
#
# Bulk Modulus (GPa) = 65.84428 75.14532 70.49480
# Shear Modulus (GPa) = 23.08373 23.82316 23.45344
#
# Velocity S-wave (km/s) = 3.62953 3.68721 3.65848
# Velocity P-wave (km/s) = 7.42570 7.81099 7.62078
#
# Compressibility (1/GPa) = 0.01518735
#
# Stress axis : x y z
#
# Youngs Moduli (GPa) = 69.07413 69.07413 54.04472
#
# Poissons Ratio (x) = 0.53359 0.22726
# Poissons Ratio (y) = 0.53359 0.22726
# Poissons Ratio (z) = 0.29047 0.29047
#
# Static dielectric constant tensor:
#      x y z
#    x 1.599850 0.000000 0.000000 
#    y 0.000000 1.599850 0.000000 
#    z 0.000000 0.000000 1.636860 
# 
# From -- ./inp_files/7081.got.cif
#   From: 2010.05.17/outbox.cif.g08.bks.cpg/sg138_4_cif.got.tgz:7081.got - 2010.05.20 13:08:53.
