data_PCOD9570468
_publ_section_title
;
Structure prediction by ZEFSAII (Michael W. Deem and Ramdas Pophale) SiO2 
 PCOD9570468
Probable space group: P 42/N M C
;
_chemical_formula_sum "Si O2"
_cell_formula_units_Z 58
_cell_length_a 11.250376
_cell_length_b 11.250376
_cell_length_c 22.310395
_cell_angle_alpha 90.000000
_cell_angle_beta 90.000000
_cell_angle_gamma 90.000000
_cell_volume 2823.848116
_symmetry_space_group_name_H-M "P 42/N M C"
_symmetry_group_IT_number 137
_space_group.IT_coordinate_system_code '2'
_symmetry_cell_setting 'tetragonal'
loop_
_space_group_symop_operation_xyz
x,y,z
1/2-y,x,1/2+z
1/2-x,1/2-y,z
y,1/2-x,1/2+z
1/2+x,-y,-z
-x,1/2+y,-z
1/2+y,1/2+x,1/2-z
-y,-x,1/2-z
-x,-y,-z
1/2+y,-x,1/2-z
1/2+x,1/2+y,-z
-y,1/2+x,1/2-z
1/2-x,y,z
x,1/2-y,z
1/2-y,1/2-x,1/2+z
y,x,1/2+z
loop_
_atom_site_type_symbol
_atom_site_label
_atom_site_fract_x
_atom_site_fract_y
_atom_site_fract_z
Si Si1 0.390378 0.250000 0.487045
Si Si2 0.981976 0.612267 0.090162
Si Si3 0.250000 0.750000 0.250000
Si Si4 0.504870 0.750000 0.264927
Si Si5 0.614903 0.521696 0.207576
Si Si6 0.948842 0.250000 0.593876
O O1 0.250000 0.250000 0.484163
O O2 0.426746 0.123842 0.455602
O O3 0.431113 0.250000 0.555565
O O4 0.953597 0.750000 0.105722
O O5 0.964279 0.530381 0.148365
O O6 0.122736 0.608662 0.075077
O O7 0.383883 0.750000 0.224382
O O8 0.577928 0.634317 0.247898
O O9 0.463989 0.750000 0.334126
O O10 0.589291 0.410710 0.250000
O O11 0.750000 0.531084 0.188496
#
# Coordination Sequence:
#
# PCOD9570468 Si02
#       6
#     8  16   2   8  16   8
#     4  10  24  43  63  86 125 176 216 257 320 403
#     4  11  22  40  66  93 123 168 214 266 329 398
#     4  12  20  40  64 108 136 144 208 264 342 380
#     4  12  23  35  65 101 134 157 194 273 337 386
#     4  12  24  41  64  93 128 171 213 261 327 400
#     4  12  23  38  62  94 132 158 210 273 323 364
#
# _framework density 20.539349999999999
#
# number of rings (size 3 to 8) (size 9 to 14) (size 15 to 20)
#    0.000    0.552    6.897    1.655    1.931    1.379 
#    0.000    0.000    0.000    1.655    0.000    0.000 
#    0.000    0.000    0.000    0.000    0.000    0.000 
#
# Total GULP energy -323148.880271 kJ/mol
# GULP energy per Si atom -5571.532418 kJ/mol
# Density = 2.049260 g / cm^3
# Si number density = 20.539350 Si / 1000 Ang^3
#
#
#
# Elastic Constant Matrix: (Units=GPa)
#
#
# Indices 1 2 3 4 5 6 
#
# 1 95.1880 15.9474 15.4864 0.0000 0.0000 0.0000
# 2 15.9474 95.1895 15.4864 0.0000 0.0000 0.0000
# 3 15.4864 15.4864 75.7048 0.0000 0.0000 0.0000
# 4 0.0000 0.0000 0.0000 23.8669 0.0000 0.0000
# 5 0.0000 0.0000 0.0000 0.0000 23.8667 0.0000
# 6 0.0000 0.0000 0.0000 0.0000 0.0000 19.3386
#
#
#
# Elastic Compliance Matrix: (Units=1/GPa)
#
#
# Indices 1 2 3 4 5 6 
#
# 1 0.011081 -0.001539 -0.001952 0.000000 0.000000 0.000000
# 2 -0.001539 0.011081 -0.001952 0.000000 0.000000 0.000000
# 3 -0.001952 -0.001952 0.014008 0.000000 0.000000 0.000000
# 4 0.000000 0.000000 0.000000 0.041899 0.000000 0.000000
# 5 0.000000 0.000000 0.000000 0.000000 0.041899 0.000000
# 6 0.000000 0.000000 0.000000 0.000000 0.000000 0.051710
#
#
# Mechanical properties :
#
#
# Convention : Reuss Voigt Hill
#
# Bulk Modulus (GPa) = 39.55074 39.99141 39.77107
# Shear Modulus (GPa) = 26.17917 28.02522 27.10220
#
# Velocity S-wave (km/s) = 3.57401 3.69787 3.63647
# Velocity P-wave (km/s) = 6.02738 6.14372 6.08582
#
# Compressibility (1/GPa) = 0.02528398
#
# Stress axis : x y z
#
# Youngs Moduli (GPa) = 90.24534 90.24674 71.38882
#
# Poissons Ratio (x) = 0.13888 0.13935
# Poissons Ratio (y) = 0.13887 0.13935
# Poissons Ratio (z) = 0.17615 0.17615
#
# Static dielectric constant tensor:
#      x y z
#    x 1.773920 0.000000 0.000000 
#    y 0.000000 1.773920 0.000000 
#    z 0.000000 0.000000 1.738720 
# 
# From -- ./inp_files/7388.got.cif
#   From: 2010.05.17/outbox.cif.g08.bks.cpg/sg137_4_cif.got.tgz:7388.got - 2010.05.20 13:01:12.
