data_PCOD9570023
_publ_section_title
;
Structure prediction by ZEFSAII (Michael W. Deem and Ramdas Pophale) SiO2 
 PCOD9570023
Probable space group: P 42/N M C
;
_chemical_formula_sum "Si O2"
_cell_formula_units_Z 112
_cell_length_a 14.219907
_cell_length_b 14.219907
_cell_length_c 34.973175
_cell_angle_alpha 90.000000
_cell_angle_beta 90.000000
_cell_angle_gamma 90.000000
_cell_volume 7071.777259
_symmetry_space_group_name_H-M "P 42/N M C"
_symmetry_group_IT_number 137
_space_group.IT_coordinate_system_code '2'
_symmetry_cell_setting 'tetragonal'
loop_
_space_group_symop_operation_xyz
x,y,z
1/2-y,x,1/2+z
1/2-x,1/2-y,z
y,1/2-x,1/2+z
1/2+x,-y,-z
-x,1/2+y,-z
1/2+y,1/2+x,1/2-z
-y,-x,1/2-z
-x,-y,-z
1/2+y,-x,1/2-z
1/2+x,1/2+y,-z
-y,1/2+x,1/2-z
1/2-x,y,z
x,1/2-y,z
1/2-y,1/2-x,1/2+z
y,x,1/2+z
loop_
_atom_site_type_symbol
_atom_site_label
_atom_site_fract_x
_atom_site_fract_y
_atom_site_fract_z
Si Si1 0.643969 0.636219 0.685833
Si Si2 0.355488 0.363938 0.084728
Si Si3 0.359692 0.986137 0.873398
Si Si4 0.514257 0.862519 0.756761
Si Si5 0.362287 0.485760 0.512466
Si Si6 0.473575 0.137424 0.156284
Si Si7 0.995325 0.638920 0.535235
O O1 0.750000 0.599531 0.684571
O O2 0.649219 0.750000 0.687131
O O3 0.581944 0.613467 0.648684
O O4 0.587399 0.607914 0.723906
O O5 0.250000 0.398867 0.077418
O O6 0.351267 0.250000 0.085220
O O7 0.428279 0.387368 0.051240
O O8 0.395928 0.394669 0.125628
O O9 0.250000 0.966190 0.864569
O O10 0.428166 0.907403 0.856664
O O11 0.368508 0.994589 0.918957
O O12 0.501177 0.750000 0.754068
O O13 0.547918 0.885166 0.799710
O O14 0.417716 0.917716 0.750000
O O15 0.250000 0.495971 0.509861
O O16 0.405406 0.420352 0.479232
O O17 0.416633 0.584806 0.515738
O O18 0.480391 0.250000 0.153482
O O19 0.989381 0.750000 0.525649
#
# Coordination Sequence:
#
# PCOD9570023 Si02
#       7
#    16  16  16  16  16  16  16
#     4   9  18  32  48  67  95 132 168 201 240 284
#     4   9  17  30  48  69  95 127 159 195 244 296
#     4  10  19  32  49  71 101 133 163 199 243 295
#     4  10  19  30  46  68  98 131 162 200 242 291
#     4  10  20  35  53  75 104 136 169 208 255 303
#     4  10  19  30  46  71 100 128 159 198 242 295
#     4  10  21  34  52  78 104 133 172 213 252 303
#
# _framework density 15.837603
#
# number of rings (size 3 to 8) (size 9 to 14) (size 15 to 20)
#    0.000    2.286    2.857    0.429    0.000    2.714 
#    0.000    7.143    0.000    0.000    0.000    0.000 
#    0.000    2.000    0.000    0.000    0.000    0.000 
#
# Total GULP energy -623867.491649 kJ/mol
# GULP energy per Si atom -5570.245461 kJ/mol
# Density = 1.580156 g / cm^3
# Si number density = 15.837603 Si / 1000 Ang^3
#
#
#
# Elastic Constant Matrix: (Units=GPa)
#
#
# Indices 1 2 3 4 5 6 
#
# 1 52.4262 19.5394 17.8440 0.0000 0.0000 0.0000
# 2 19.5394 52.4262 17.8440 0.0000 0.0000 0.0000
# 3 17.8440 17.8440 49.8222 0.0000 0.0000 0.0000
# 4 0.0000 0.0000 0.0000 19.0353 0.0000 0.0000
# 5 0.0000 0.0000 0.0000 0.0000 19.0353 0.0000
# 6 0.0000 0.0000 0.0000 0.0000 0.0000 12.6828
#
#
#
# Elastic Compliance Matrix: (Units=1/GPa)
#
#
# Indices 1 2 3 4 5 6 
#
# 1 0.023652 -0.006755 -0.006052 0.000000 0.000000 0.000000
# 2 -0.006755 0.023652 -0.006052 0.000000 0.000000 0.000000
# 3 -0.006052 -0.006052 0.024406 0.000000 0.000000 0.000000
# 4 0.000000 0.000000 0.000000 0.052534 0.000000 0.000000
# 5 0.000000 0.000000 0.000000 0.000000 0.052534 0.000000
# 6 0.000000 0.000000 0.000000 0.000000 0.000000 0.078847
#
#
# Mechanical properties :
#
#
# Convention : Reuss Voigt Hill
#
# Bulk Modulus (GPa) = 29.41782 29.45880 29.43831
# Shear Modulus (GPa) = 16.41105 16.78050 16.59577
#
# Velocity S-wave (km/s) = 3.22251 3.25858 3.24060
# Velocity P-wave (km/s) = 5.69746 5.72702 5.71226
#
# Compressibility (1/GPa) = 0.03399300
#
# Stress axis : x y z
#
# Youngs Moduli (GPa) = 42.27987 42.27987 40.97328
#
# Poissons Ratio (x) = 0.28562 0.24795
# Poissons Ratio (y) = 0.28562 0.24795
# Poissons Ratio (z) = 0.25586 0.25586
#
# Static dielectric constant tensor:
#      x y z
#    x 1.520540 0.000000 0.000000 
#    y 0.000000 1.520540 0.000000 
#    z 0.000000 0.000000 1.550480 
# 
# From -- ./inp_files/10681.got.cif
#   From: 2010.05.17/outbox.cif.g08.bks.cpg/sg137_6_cif.got.tgz:10681.got - 2010.05.20 13:01:12.
