data_PCOD9570911
_publ_section_title
;
Structure prediction by ZEFSAII (Michael W. Deem and Ramdas Pophale) SiO2 
 PCOD9570911
Probable space group: P 42/N C M
;
_chemical_formula_sum "Si O2"
_cell_formula_units_Z 64
_cell_length_a 15.948924
_cell_length_b 15.948924
_cell_length_c 11.643401
_cell_angle_alpha 90.000000
_cell_angle_beta 90.000000
_cell_angle_gamma 90.000000
_cell_volume 2961.710684
_symmetry_space_group_name_H-M "P 42/N C M"
_symmetry_group_IT_number 138
_space_group.IT_coordinate_system_code '2'
_symmetry_cell_setting 'tetragonal'
loop_
_space_group_symop_operation_xyz
x,y,z
1/2-y,x,1/2+z
1/2-x,1/2-y,z
y,1/2-x,1/2+z
1/2+x,-y,1/2-z
-x,1/2+y,1/2-z
1/2+y,1/2+x,-z
-y,-x,-z
-x,-y,-z
1/2+y,-x,1/2-z
1/2+x,1/2+y,-z
-y,1/2+x,1/2-z
1/2-x,y,1/2+z
x,1/2-y,1/2+z
1/2-y,1/2-x,z
y,x,z
loop_
_atom_site_type_symbol
_atom_site_label
_atom_site_fract_x
_atom_site_fract_y
_atom_site_fract_z
Si Si1 0.012992 0.619782 0.104892
Si Si2 0.315388 0.052901 0.649041
Si Si3 0.425067 0.697335 0.047786
Si Si4 0.498040 0.364736 0.720369
O O1 0.215906 0.451708 0.168263
O O2 0.053409 0.704163 0.053958
O O3 0.085780 0.552042 0.126156
O O4 0.930035 0.569966 0.058938
O O5 0.356307 0.143694 0.631652
O O6 0.338075 0.993516 0.542183
O O7 0.353202 0.015217 0.766058
O O8 0.442363 0.663818 0.175643
O O9 0.336021 0.663980 0.000000
O O10 0.429609 0.429609 0.766538
#
# Coordination Sequence:
#
# PCOD9570911 Si02
#       4
#    16  16  16  16
#     4   9  20  39  61  89 127 164 203 256 320 382
#     4  10  21  37  59  90 125 158 205 262 312 368
#     4  11  21  37  67  95 122 163 217 265 312 373
#     4  10  21  39  64  90 123 168 211 255 315 377
#
# _framework density 21.609131999999999
#
# number of rings (size 3 to 8) (size 9 to 14) (size 15 to 20)
#    0.000    2.000    2.500    0.750    0.000    3.500 
#    0.000    5.000    0.000    4.500    0.000    0.000 
#    0.000    0.000    0.000    0.000    0.000    0.000 
#
# Total GULP energy -357249.197570 kJ/mol
# GULP energy per Si atom -5582.018712 kJ/mol
# Density = 2.155995 g / cm^3
# Si number density = 21.609132 Si / 1000 Ang^3
#
#
#
# Elastic Constant Matrix: (Units=GPa)
#
#
# Indices 1 2 3 4 5 6 
#
# 1 129.1769 83.8634 27.0705 0.0000 0.0000 0.0000
# 2 83.8634 129.1725 27.0699 0.0000 0.0000 0.0000
# 3 27.0705 27.0699 59.5379 0.0000 0.0000 0.0000
# 4 0.0000 0.0000 0.0000 38.7055 0.0000 0.0000
# 5 0.0000 0.0000 0.0000 0.0000 38.7062 0.0000
# 6 0.0000 0.0000 0.0000 0.0000 0.0000 33.1182
#
#
#
# Elastic Compliance Matrix: (Units=1/GPa)
#
#
# Indices 1 2 3 4 5 6 
#
# 1 0.013688 -0.008381 -0.002413 0.000000 0.000000 0.000000
# 2 -0.008381 0.013689 -0.002413 0.000000 0.000000 0.000000
# 3 -0.002413 -0.002413 0.018990 0.000000 0.000000 0.000000
# 4 0.000000 0.000000 0.000000 0.025836 0.000000 0.000000
# 5 0.000000 0.000000 0.000000 0.000000 0.025836 0.000000
# 6 0.000000 0.000000 0.000000 0.000000 0.000000 0.030195
#
#
# Mechanical properties :
#
#
# Convention : Reuss Voigt Hill
#
# Bulk Modulus (GPa) = 50.11882 65.98833 58.05357
# Shear Modulus (GPa) = 30.99832 34.09823 32.54827
#
# Velocity S-wave (km/s) = 3.79159 3.97666 3.88523
# Velocity P-wave (km/s) = 6.51244 7.18948 6.85932
#
# Compressibility (1/GPa) = 0.01995258
#
# Stress axis : x y z
#
# Youngs Moduli (GPa) = 73.05579 73.05336 52.65847
#
# Poissons Ratio (x) = 0.61227 0.12707
# Poissons Ratio (y) = 0.61229 0.12707
# Poissons Ratio (z) = 0.17629 0.17628
#
# Static dielectric constant tensor:
#      x y z
#    x 1.773270 0.000000 0.000000 
#    y 0.000000 1.773270 0.000000 
#    z 0.000000 0.000000 1.855470 
# 
# From -- ./inp_files/3889.got.cif
#   From: 2010.05.17/outbox.cif.g08.bks.cpg/sg138_2_cif.got.tgz:3889.got - 2010.05.20 13:08:53.
