data_PCOD9570990
_publ_section_title
;
Structure prediction by ZEFSAII (Michael W. Deem and Ramdas Pophale) SiO2 
 PCOD9570990
Probable space group: P 42/N C M
;
_chemical_formula_sum "Si O2"
_cell_formula_units_Z 80
_cell_length_a 16.480040
_cell_length_b 16.480040
_cell_length_c 14.838915
_cell_angle_alpha 90.000000
_cell_angle_beta 90.000000
_cell_angle_gamma 90.000000
_cell_volume 4030.126424
_symmetry_space_group_name_H-M "P 42/N C M"
_symmetry_group_IT_number 138
_space_group.IT_coordinate_system_code '2'
_symmetry_cell_setting 'tetragonal'
loop_
_space_group_symop_operation_xyz
x,y,z
1/2-y,x,1/2+z
1/2-x,1/2-y,z
y,1/2-x,1/2+z
1/2+x,-y,1/2-z
-x,1/2+y,1/2-z
1/2+y,1/2+x,-z
-y,-x,-z
-x,-y,-z
1/2+y,-x,1/2-z
1/2+x,1/2+y,-z
-y,1/2+x,1/2-z
1/2-x,y,1/2+z
x,1/2-y,1/2+z
1/2-y,1/2-x,z
y,x,z
loop_
_atom_site_type_symbol
_atom_site_label
_atom_site_fract_x
_atom_site_fract_y
_atom_site_fract_z
Si Si1 0.174233 0.039005 0.971365
Si Si2 0.861240 0.179434 0.900642
Si Si3 0.863629 0.388044 0.106781
Si Si4 0.758221 0.033372 0.842400
Si Si5 0.058054 0.189704 0.333105
O O1 0.097809 0.097809 0.983237
O O2 0.242781 0.077717 0.907773
O O3 0.153752 0.954170 0.920764
O O4 0.214612 0.012588 0.066123
O O5 0.860314 0.271865 0.868015
O O6 0.816307 0.112943 0.841124
O O7 0.821168 0.178833 0.000000
O O8 0.931018 0.332204 0.152269
O O9 0.863976 0.482924 0.129049
O O10 0.874337 0.374337 0.000000
O O11 0.770369 0.976586 0.757365
O O12 0.133741 0.133741 0.313360
#
# Coordination Sequence:
#
# PCOD9570990 Si02
#       5
#    16  16  16  16  16
#     4  10  22  42  65  89 121 165 215 264 316 370
#     4   9  18  33  60  92 129 164 197 247 311 385
#     4  11  20  39  62  93 129 168 211 256 320 390
#     4  11  22  39  63  97 129 167 208 257 323 389
#     4  11  26  43  62  93 130 171 219 271 323 383
#
# _framework density 19.850494000000001
#
# number of rings (size 3 to 8) (size 9 to 14) (size 15 to 20)
#    0.000    1.600    6.000    1.200    5.600    5.200 
#    0.000    1.000    0.000    2.400    0.000    0.000 
#    0.000    0.000    0.000    0.000    0.000    0.000 
#
# Total GULP energy -447069.117986 kJ/mol
# GULP energy per Si atom -5588.363975 kJ/mol
# Density = 1.980531 g / cm^3
# Si number density = 19.850494 Si / 1000 Ang^3
#
#
#
# Elastic Constant Matrix: (Units=GPa)
#
#
# Indices 1 2 3 4 5 6 
#
# 1 47.1302 34.9414 19.8428 0.0000 0.0000 0.0000
# 2 34.9414 47.1293 19.8428 0.0000 0.0000 0.0000
# 3 19.8428 19.8428 89.0339 0.0000 0.0000 0.0000
# 4 0.0000 0.0000 0.0000 20.0556 0.0000 0.0000
# 5 0.0000 0.0000 0.0000 0.0000 20.0558 0.0000
# 6 0.0000 0.0000 0.0000 0.0000 0.0000 53.9247
#
#
#
# Elastic Compliance Matrix: (Units=1/GPa)
#
#
# Indices 1 2 3 4 5 6 
#
# 1 0.047850 -0.034194 -0.003043 0.000000 0.000000 0.000000
# 2 -0.034194 0.047851 -0.003044 0.000000 0.000000 0.000000
# 3 -0.003043 -0.003044 0.012588 0.000000 0.000000 0.000000
# 4 0.000000 0.000000 0.000000 0.049861 0.000000 0.000000
# 5 0.000000 0.000000 0.000000 0.000000 0.049861 0.000000
# 6 0.000000 0.000000 0.000000 0.000000 0.000000 0.018544
#
#
# Mechanical properties :
#
#
# Convention : Reuss Voigt Hill
#
# Bulk Modulus (GPa) = 36.06639 36.94971 36.50805
# Shear Modulus (GPa) = 15.80468 26.05164 20.92816
#
# Velocity S-wave (km/s) = 2.82474 3.62663 3.25050
# Velocity P-wave (km/s) = 5.37097 6.01589 5.70256
#
# Compressibility (1/GPa) = 0.02772665
#
# Stress axis : x y z
#
# Youngs Moduli (GPa) = 20.89852 20.89810 79.43887
#
# Poissons Ratio (x) = 0.71460 0.24177
# Poissons Ratio (y) = 0.71461 0.24179
# Poissons Ratio (z) = 0.06360 0.06361
#
# Static dielectric constant tensor:
#      x y z
#    x 1.697400 0.000000 0.000000 
#    y 0.000000 1.697400 0.000000 
#    z 0.000000 0.000000 1.729580 
# 
# From -- ./inp_files/4071.got.cif
#   From: 2010.05.17/outbox.cif.g08.bks.cpg/sg138_3_cif.got.tgz:4071.got - 2010.05.20 13:08:53.
