data_PCOD9570766
_publ_section_title
;
Structure prediction by ZEFSAII (Michael W. Deem and Ramdas Pophale) SiO2 
 PCOD9570766
Probable space group: P 42/N C M
;
_chemical_formula_sum "Si O2"
_cell_formula_units_Z 112
_cell_length_a 15.890286
_cell_length_b 15.890286
_cell_length_c 23.885501
_cell_angle_alpha 90.000000
_cell_angle_beta 90.000000
_cell_angle_gamma 90.000000
_cell_volume 6031.117406
_symmetry_space_group_name_H-M "P 42/N C M"
_symmetry_group_IT_number 138
_space_group.IT_coordinate_system_code '2'
_symmetry_cell_setting 'tetragonal'
loop_
_space_group_symop_operation_xyz
x,y,z
1/2-y,x,1/2+z
1/2-x,1/2-y,z
y,1/2-x,1/2+z
1/2+x,-y,1/2-z
-x,1/2+y,1/2-z
1/2+y,1/2+x,-z
-y,-x,-z
-x,-y,-z
1/2+y,-x,1/2-z
1/2+x,1/2+y,-z
-y,1/2+x,1/2-z
1/2-x,y,1/2+z
x,1/2-y,1/2+z
1/2-y,1/2-x,z
y,x,z
loop_
_atom_site_type_symbol
_atom_site_label
_atom_site_fract_x
_atom_site_fract_y
_atom_site_fract_z
Si Si1 0.673813 0.531355 0.421098
Si Si2 0.068321 0.567584 0.829651
Si Si3 0.247243 0.110162 0.682526
Si Si4 0.612428 0.746505 0.695118
Si Si5 0.250849 0.892840 0.493807
Si Si6 0.178303 0.866151 0.764547
Si Si7 0.258979 0.955731 0.368065
O O1 0.611710 0.611710 0.439365
O O2 0.614165 0.473327 0.382466
O O3 0.743479 0.561423 0.375690
O O4 0.720549 0.471401 0.466499
O O5 0.072084 0.624987 0.774519
O O6 0.163726 0.550790 0.845881
O O7 0.015111 0.484890 0.818155
O O8 0.318148 0.181853 0.680102
O O9 0.156401 0.156401 0.683624
O O10 0.260595 0.068607 0.743531
O O11 0.686393 0.813608 0.702944
O O12 0.396040 0.814259 0.671737
O O13 0.551108 0.779859 0.647659
O O14 0.337431 0.837431 0.500000
O O15 0.175994 0.824007 0.500000
O O16 0.258553 0.929979 0.431742
O O17 0.272383 0.858842 0.739545
O O18 0.158929 0.158929 0.318472
#
# Coordination Sequence:
#
# PCOD9570766 Si02
#       7
#    16  16  16  16  16  16  16
#     4  10  20  35  58  85 113 148 193 250 294 335
#     4  10  20  34  56  87 116 140 180 243 300 342
#     4   8  15  31  58  89 117 148 188 232 281 343
#     4   9  18  34  58  88 119 150 185 230 291 355
#     4  11  25  41  59  80 112 159 204 246 295 352
#     4   9  20  33  53  80 111 148 185 227 284 356
#     4  11  21  36  56  81 114 151 189 239 282 350
#
# _framework density 18.570356
#
# number of rings (size 3 to 8) (size 9 to 14) (size 15 to 20)
#    0.000    2.286    1.429    2.143    2.000    4.286 
#    0.000    0.714    0.000    3.429    0.000    0.000 
#    0.000    0.000    0.000    0.000    0.000    0.000 
#
# Total GULP energy -623577.859540 kJ/mol
# GULP energy per Si atom -5567.659460 kJ/mol
# Density = 1.852809 g / cm^3
# Si number density = 18.570356 Si / 1000 Ang^3
#
#
#
# Elastic Constant Matrix: (Units=GPa)
#
#
# Indices 1 2 3 4 5 6 
#
# 1 62.2155 30.2603 51.5642 0.0000 0.0000 0.0000
# 2 30.2603 62.2155 51.5646 0.0000 0.0000 0.0000
# 3 51.5642 51.5646 153.3027 0.0000 0.0000 0.0000
# 4 0.0000 0.0000 0.0000 25.3179 0.0000 0.0000
# 5 0.0000 0.0000 0.0000 0.0000 25.3194 0.0000
# 6 0.0000 0.0000 0.0000 0.0000 0.0000 26.7162
#
#
#
# Elastic Compliance Matrix: (Units=1/GPa)
#
#
# Indices 1 2 3 4 5 6 
#
# 1 0.024299 -0.006995 -0.005821 0.000000 0.000000 0.000000
# 2 -0.006995 0.024299 -0.005821 0.000000 0.000000 0.000000
# 3 -0.005821 -0.005821 0.010439 0.000000 0.000000 0.000000
# 4 0.000000 0.000000 0.000000 0.039498 0.000000 0.000000
# 5 0.000000 0.000000 0.000000 0.000000 0.039495 0.000000
# 6 0.000000 0.000000 0.000000 0.000000 0.000000 0.037431
#
#
# Mechanical properties :
#
#
# Convention : Reuss Voigt Hill
#
# Bulk Modulus (GPa) = 45.94360 60.50131 53.22245
# Shear Modulus (GPa) = 22.72858 25.09367 23.91113
#
# Velocity S-wave (km/s) = 3.50225 3.67996 3.59220
# Velocity P-wave (km/s) = 6.41470 7.12084 6.77697
#
# Compressibility (1/GPa) = 0.02176582
#
# Stress axis : x y z
#
# Youngs Moduli (GPa) = 41.15363 41.15345 95.79818
#
# Poissons Ratio (x) = 0.28785 0.55759
# Poissons Ratio (y) = 0.28785 0.55760
# Poissons Ratio (z) = 0.23953 0.23954
#
# Static dielectric constant tensor:
#      x y z
#    x 1.705460 0.000000 0.000000 
#    y 0.000000 1.705460 0.000000 
#    z 0.000000 0.000000 1.634590 
# 
# From -- ./inp_files/7085.got.cif
#   From: 2010.05.17/outbox.cif.g08.bks.cpg/sg138_4_cif.got.tgz:7085.got - 2010.05.20 13:08:53.
