data_PCOD9570451
_publ_section_title
;
Structure prediction by ZEFSAII (Michael W. Deem and Ramdas Pophale) SiO2 
 PCOD9570451
Probable space group: P 42/N M C
;
_chemical_formula_sum "Si O2"
_cell_formula_units_Z 96
_cell_length_a 14.693073
_cell_length_b 14.693073
_cell_length_c 21.037032
_cell_angle_alpha 90.000000
_cell_angle_beta 90.000000
_cell_angle_gamma 90.000000
_cell_volume 4541.608983
_symmetry_space_group_name_H-M "P 42/N M C"
_symmetry_group_IT_number 137
_space_group.IT_coordinate_system_code '2'
_symmetry_cell_setting 'tetragonal'
loop_
_space_group_symop_operation_xyz
x,y,z
1/2-y,x,1/2+z
1/2-x,1/2-y,z
y,1/2-x,1/2+z
1/2+x,-y,-z
-x,1/2+y,-z
1/2+y,1/2+x,1/2-z
-y,-x,1/2-z
-x,-y,-z
1/2+y,-x,1/2-z
1/2+x,1/2+y,-z
-y,1/2+x,1/2-z
1/2-x,y,z
x,1/2-y,z
1/2-y,1/2-x,1/2+z
y,x,1/2+z
loop_
_atom_site_type_symbol
_atom_site_label
_atom_site_fract_x
_atom_site_fract_y
_atom_site_fract_z
Si Si1 0.851231 0.952060 0.924259
Si Si2 0.646978 0.942082 0.645424
Si Si3 0.650588 0.485702 0.388931
Si Si4 0.354602 0.005192 0.755610
Si Si5 0.143928 0.890535 0.174883
Si Si6 0.001681 0.143480 0.438237
O O1 0.750000 0.913415 0.928357
O O2 0.929023 0.878210 0.930613
O O3 0.857420 0.010536 0.859368
O O4 0.864784 0.015244 0.986358
O O5 0.750000 0.908184 0.653308
O O6 0.580531 0.907595 0.702799
O O7 0.595824 0.902720 0.583833
O O8 0.650479 0.052047 0.644400
O O9 0.750000 0.448867 0.402607
O O10 0.650154 0.528544 0.318627
O O11 0.575651 0.408738 0.399250
O O12 0.411688 0.911688 0.750000
O O13 0.250000 0.994541 0.777886
O O14 0.122435 0.877566 0.250000
O O15 0.250000 0.858990 0.165386
O O16 0.004599 0.250000 0.423742
#
# Coordination Sequence:
#
# PCOD9570451 Si02
#       6
#    16  16  16  16  16  16
#     4  10  22  43  68  93 132 179 220 274 338 397
#     4  12  25  41  67  99 136 179 226 285 347 408
#     4  11  23  39  66  95 126 170 218 270 333 401
#     4  11  23  41  64  94 131 172 223 278 340 406
#     4  11  23  41  67  99 137 178 221 270 335 410
#     4  11  24  44  67  92 131 177 227 283 336 399
#
# _framework density 21.137884
#
# number of rings (size 3 to 8) (size 9 to 14) (size 15 to 20)
#    0.000    1.000    3.333    3.000    0.000    6.000 
#    0.000    5.833    0.000    6.000    0.000    0.000 
#    0.000    0.000    0.000    0.000    0.000    0.000 
#
# Total GULP energy -534993.630329 kJ/mol
# GULP energy per Si atom -5572.850316 kJ/mol
# Density = 2.108977 g / cm^3
# Si number density = 21.137884 Si / 1000 Ang^3
#
#
#
# Elastic Constant Matrix: (Units=GPa)
#
#
# Indices 1 2 3 4 5 6 
#
# 1 137.8229 59.4703 27.8281 0.0000 0.0000 0.0000
# 2 59.4703 137.8229 27.8283 0.0000 0.0000 0.0000
# 3 27.8281 27.8283 85.0049 0.0000 0.0000 0.0000
# 4 0.0000 0.0000 0.0000 10.8962 0.0000 0.0000
# 5 0.0000 0.0000 0.0000 0.0000 10.8967 0.0000
# 6 0.0000 0.0000 0.0000 0.0000 0.0000 151.1837
#
#
#
# Elastic Compliance Matrix: (Units=1/GPa)
#
#
# Indices 1 2 3 4 5 6 
#
# 1 0.009174 -0.003589 -0.001828 0.000000 0.000000 0.000000
# 2 -0.003589 0.009174 -0.001828 0.000000 0.000000 0.000000
# 3 -0.001828 -0.001828 0.012961 0.000000 0.000000 0.000000
# 4 0.000000 0.000000 0.000000 0.091775 0.000000 0.000000
# 5 0.000000 0.000000 0.000000 0.000000 0.091771 0.000000
# 6 0.000000 0.000000 0.000000 0.000000 0.000000 0.006614
#
#
# Mechanical properties :
#
#
# Convention : Reuss Voigt Hill
#
# Bulk Modulus (GPa) = 59.46349 65.65601 62.55975
# Shear Modulus (GPa) = 20.69833 50.96358 35.83095
#
# Velocity S-wave (km/s) = 3.13262 4.91553 4.12163
# Velocity P-wave (km/s) = 6.42470 7.95894 7.23262
#
# Compressibility (1/GPa) = 0.01681704
#
# Stress axis : x y z
#
# Youngs Moduli (GPa) = 109.00886 109.00876 77.15458
#
# Poissons Ratio (x) = 0.39126 0.14105
# Poissons Ratio (y) = 0.39126 0.14105
# Poissons Ratio (z) = 0.19928 0.19929
#
# Static dielectric constant tensor:
#      x y z
#    x 1.760900 0.000000 0.000000 
#    y 0.000000 1.760900 0.000000 
#    z 0.000000 0.000000 1.838430 
# 
# From -- ./inp_files/7829.got.cif
#   From: 2010.05.17/outbox.cif.g08.bks.cpg/sg137_4_cif.got.tgz:7829.got - 2010.05.20 13:01:12.
