data_PCOD9570286
_publ_section_title
;
Structure prediction by ZEFSAII (Michael W. Deem and Ramdas Pophale) SiO2 
 PCOD9570286
Probable space group: P 42/N M C
;
_chemical_formula_sum "Si O2"
_cell_formula_units_Z 112
_cell_length_a 13.803535
_cell_length_b 13.803535
_cell_length_c 28.815586
_cell_angle_alpha 90.000000
_cell_angle_beta 90.000000
_cell_angle_gamma 90.000000
_cell_volume 5490.451979
_symmetry_space_group_name_H-M "P 42/N M C"
_symmetry_group_IT_number 137
_space_group.IT_coordinate_system_code '2'
_symmetry_cell_setting 'tetragonal'
loop_
_space_group_symop_operation_xyz
x,y,z
1/2-y,x,1/2+z
1/2-x,1/2-y,z
y,1/2-x,1/2+z
1/2+x,-y,-z
-x,1/2+y,-z
1/2+y,1/2+x,1/2-z
-y,-x,1/2-z
-x,-y,-z
1/2+y,-x,1/2-z
1/2+x,1/2+y,-z
-y,1/2+x,1/2-z
1/2-x,y,z
x,1/2-y,z
1/2-y,1/2-x,1/2+z
y,x,1/2+z
loop_
_atom_site_type_symbol
_atom_site_label
_atom_site_fract_x
_atom_site_fract_y
_atom_site_fract_z
Si Si1 0.596849 0.644038 0.318799
Si Si2 0.999346 0.356770 0.776594
Si Si3 0.862186 0.948124 0.568909
Si Si4 0.141956 0.040706 0.847536
Si Si5 0.140393 0.364023 0.531017
Si Si6 0.359876 0.539669 0.098521
Si Si7 0.426443 0.640066 0.800684
O O1 0.638666 0.750000 0.334395
O O2 0.577115 0.653355 0.264519
O O3 0.497363 0.635990 0.348451
O O4 0.642698 0.537241 0.319814
O O5 0.916360 0.416360 0.750000
O O6 0.965704 0.250000 0.791267
O O7 0.057338 0.408647 0.817599
O O8 0.750000 0.925009 0.579049
O O9 0.930798 0.880389 0.599851
O O10 0.877755 0.927597 0.514629
O O11 0.886238 0.057781 0.583677
O O12 0.250000 0.073083 0.834160
O O13 0.131394 0.927557 0.836148
O O14 0.250000 0.383283 0.548151
O O15 0.136797 0.250000 0.517763
O O16 0.059017 0.379104 0.569510
O O17 0.250000 0.572560 0.089020
O O18 0.412066 0.587934 0.750000
O O19 0.392392 0.750000 0.795755
#
# Coordination Sequence:
#
# PCOD9570286 Si02
#       7
#    16  16  16  16  16  16  16
#     4  10  20  37  60  85 116 150 192 242 292 345
#     4  11  21  37  58  84 118 152 193 239 288 347
#     4  11  22  38  60  88 120 154 199 250 301 357
#     4  12  24  41  61  84 116 155 199 245 297 353
#     4   9  19  36  59  88 119 152 196 249 301 354
#     4  10  20  37  61  87 119 157 196 242 301 364
#     4  12  24  41  62  86 120 160 201 245 296 354
#
# _framework density 20.399049000000002
#
# number of rings (size 3 to 8) (size 9 to 14) (size 15 to 20)
#    0.000    1.286    4.286    1.714    0.000    4.000 
#    0.000    2.857    0.000    4.286    0.000    2.000 
#    0.000    0.000    0.000    0.000    0.000    0.000 
#
# Total GULP energy -624520.684533 kJ/mol
# GULP energy per Si atom -5576.077540 kJ/mol
# Density = 2.035262 g / cm^3
# Si number density = 20.399049 Si / 1000 Ang^3
#
#
#
# Elastic Constant Matrix: (Units=GPa)
#
#
# Indices 1 2 3 4 5 6 
#
# 1 88.9718 17.8757 5.2128 0.0000 0.0000 0.0000
# 2 17.8757 88.9722 5.2128 0.0000 0.0000 0.0000
# 3 5.2128 5.2128 47.2055 0.0000 0.0000 0.0000
# 4 0.0000 0.0000 0.0000 13.9376 0.0000 0.0000
# 5 0.0000 0.0000 0.0000 0.0000 13.9374 0.0000
# 6 0.0000 0.0000 0.0000 0.0000 0.0000 6.5276
#
#
#
# Elastic Compliance Matrix: (Units=1/GPa)
#
#
# Indices 1 2 3 4 5 6 
#
# 1 0.011763 -0.002302 -0.001045 0.000000 0.000000 0.000000
# 2 -0.002302 0.011763 -0.001045 0.000000 0.000000 0.000000
# 3 -0.001045 -0.001045 0.021415 0.000000 0.000000 0.000000
# 4 0.000000 0.000000 0.000000 0.071748 0.000000 0.000000
# 5 0.000000 0.000000 0.000000 0.000000 0.071749 0.000000
# 6 0.000000 0.000000 0.000000 0.000000 0.000000 0.153195
#
#
# Mechanical properties :
#
#
# Convention : Reuss Voigt Hill
#
# Bulk Modulus (GPa) = 27.65657 31.30578 29.48117
# Shear Modulus (GPa) = 13.79424 20.00374 16.89899
#
# Velocity S-wave (km/s) = 2.60324 3.13488 2.88135
# Velocity P-wave (km/s) = 4.75637 5.33698 5.05502
#
# Compressibility (1/GPa) = 0.03615778
#
# Stress axis : x y z
#
# Youngs Moduli (GPa) = 85.01041 85.01073 46.69687
#
# Poissons Ratio (x) = 0.19571 0.04879
# Poissons Ratio (y) = 0.19571 0.04879
# Poissons Ratio (z) = 0.08882 0.08882
#
# Static dielectric constant tensor:
#      x y z
#    x 1.790780 0.000000 0.000000 
#    y 0.000000 1.790780 0.000000 
#    z 0.000000 0.000000 1.717980 
# 
# From -- ./inp_files/9812.got.cif
#   From: 2010.05.17/outbox.cif.g08.bks.cpg/sg137_5_cif.got.tgz:9812.got - 2010.05.20 13:01:12.
