data_PCOD9570714
_publ_section_title
;
Structure prediction by ZEFSAII (Michael W. Deem and Ramdas Pophale) SiO2 
 PCOD9570714
Probable space group: P 42/N C M
;
_chemical_formula_sum "Si O2"
_cell_formula_units_Z 84
_cell_length_a 15.054671
_cell_length_b 15.054671
_cell_length_c 19.085490
_cell_angle_alpha 90.000000
_cell_angle_beta 90.000000
_cell_angle_gamma 90.000000
_cell_volume 4325.594980
_symmetry_space_group_name_H-M "P 42/N C M"
_symmetry_group_IT_number 138
_space_group.IT_coordinate_system_code '2'
_symmetry_cell_setting 'tetragonal'
loop_
_space_group_symop_operation_xyz
x,y,z
1/2-y,x,1/2+z
1/2-x,1/2-y,z
y,1/2-x,1/2+z
1/2+x,-y,1/2-z
-x,1/2+y,1/2-z
1/2+y,1/2+x,-z
-y,-x,-z
-x,-y,-z
1/2+y,-x,1/2-z
1/2+x,1/2+y,-z
-y,1/2+x,1/2-z
1/2-x,y,1/2+z
x,1/2-y,1/2+z
1/2-y,1/2-x,z
y,x,z
loop_
_atom_site_type_symbol
_atom_site_label
_atom_site_fract_x
_atom_site_fract_y
_atom_site_fract_z
Si Si1 0.082764 0.766361 0.398141
Si Si2 0.250000 0.750000 0.000000
Si Si3 0.449286 0.302994 0.478422
Si Si4 0.103159 0.959293 0.347658
Si Si5 0.326277 0.173724 0.240488
Si Si6 0.035181 0.182899 0.205896
Si Si7 0.326875 0.326875 0.901994
O O1 0.166237 0.747693 0.447791
O O2 0.100275 0.853750 0.351380
O O3 0.004146 0.786691 0.452430
O O4 0.046573 0.690136 0.347166
O O5 0.367172 0.367172 0.494744
O O6 0.508244 0.352479 0.420049
O O7 0.409085 0.215219 0.442937
O O8 0.159378 0.999286 0.283286
O O9 0.006762 0.006762 0.343425
O O10 0.250000 0.250000 0.241585
O O11 0.410647 0.223573 0.207018
O O12 0.347896 0.152105 0.321437
O O13 0.105993 0.105993 0.187102
O O14 0.250000 0.250000 0.899719
#
# Coordination Sequence:
#
# PCOD9570714 Si02
#       7
#    16   4  16  16   8  16   8
#     4  12  25  42  65  88 123 165 217 264 312 365
#     4  12  28  48  62  84 124 172 226 260 312 376
#     4  10  19  35  62  96 127 159 203 256 315 375
#     4  10  20  40  64  90 122 162 212 261 310 375
#     4   9  16  34  60  91 132 167 193 251 326 385
#     4  10  23  40  64  98 132 162 208 269 329 385
#     4   9  16  30  60  95 132 165 189 238 324 390
#
# _framework density 19.419295000000002
#
# number of rings (size 3 to 8) (size 9 to 14) (size 15 to 20)
#    0.000    1.714    3.810    0.571    4.000    3.048 
#    0.000    0.476    0.000    0.000    0.000    0.000 
#    0.000    0.000    0.000    0.000    0.000    0.000 
#
# Total GULP energy -468958.090415 kJ/mol
# GULP energy per Si atom -5582.834410 kJ/mol
# Density = 1.937510 g / cm^3
# Si number density = 19.419295 Si / 1000 Ang^3
#
#
#
# Elastic Constant Matrix: (Units=GPa)
#
#
# Indices 1 2 3 4 5 6 
#
# 1 42.6202 23.8180 13.6241 0.0000 0.0000 0.0000
# 2 23.8180 42.6202 13.6241 0.0000 0.0000 0.0000
# 3 13.6241 13.6241 65.4178 0.0000 0.0000 0.0000
# 4 0.0000 0.0000 0.0000 22.7087 0.0000 0.0000
# 5 0.0000 0.0000 0.0000 0.0000 22.7087 0.0000
# 6 0.0000 0.0000 0.0000 0.0000 0.0000 10.9157
#
#
#
# Elastic Compliance Matrix: (Units=1/GPa)
#
#
# Indices 1 2 3 4 5 6 
#
# 1 0.034821 -0.018364 -0.003427 0.000000 0.000000 0.000000
# 2 -0.018364 0.034821 -0.003427 0.000000 0.000000 0.000000
# 3 -0.003427 -0.003427 0.016714 0.000000 0.000000 0.000000
# 4 0.000000 0.000000 0.000000 0.044036 0.000000 0.000000
# 5 0.000000 0.000000 0.000000 0.000000 0.044036 0.000000
# 6 0.000000 0.000000 0.000000 0.000000 0.000000 0.091612
#
#
# Mechanical properties :
#
#
# Convention : Reuss Voigt Hill
#
# Bulk Modulus (GPa) = 27.84060 28.08784 27.96422
# Shear Modulus (GPa) = 15.22299 17.90609 16.56454
#
# Velocity S-wave (km/s) = 2.80288 3.03987 2.92377
# Velocity P-wave (km/s) = 4.98423 5.17845 5.08227
#
# Compressibility (1/GPa) = 0.03591877
#
# Stress axis : x y z
#
# Youngs Moduli (GPa) = 28.71805 28.71805 59.83016
#
# Poissons Ratio (x) = 0.52738 0.20506
# Poissons Ratio (y) = 0.52738 0.20506
# Poissons Ratio (z) = 0.09843 0.09843
#
# Static dielectric constant tensor:
#      x y z
#    x 1.697560 0.000000 0.000000 
#    y 0.000000 1.697560 0.000000 
#    z 0.000000 0.000000 1.641560 
# 
# From -- ./inp_files/6164.got.cif
#   From: 2010.05.17/outbox.cif.g08.bks.cpg/sg138_4_cif.got.tgz:6164.got - 2010.05.20 13:08:53.
