data_PCOD9570748
_publ_section_title
;
Structure prediction by ZEFSAII (Michael W. Deem and Ramdas Pophale) SiO2 
 PCOD9570748
Probable space group: P 42/N C M
;
_chemical_formula_sum "Si O2"
_cell_formula_units_Z 68
_cell_length_a 11.348360
_cell_length_b 11.348360
_cell_length_c 26.639359
_cell_angle_alpha 90.000000
_cell_angle_beta 90.000000
_cell_angle_gamma 90.000000
_cell_volume 3430.757166
_symmetry_space_group_name_H-M "P 42/N C M"
_symmetry_group_IT_number 138
_space_group.IT_coordinate_system_code '2'
_symmetry_cell_setting 'tetragonal'
loop_
_space_group_symop_operation_xyz
x,y,z
1/2-y,x,1/2+z
1/2-x,1/2-y,z
y,1/2-x,1/2+z
1/2+x,-y,1/2-z
-x,1/2+y,1/2-z
1/2+y,1/2+x,-z
-y,-x,-z
-x,-y,-z
1/2+y,-x,1/2-z
1/2+x,1/2+y,-z
-y,1/2+x,1/2-z
1/2-x,y,1/2+z
x,1/2-y,1/2+z
1/2-y,1/2-x,z
y,x,z
loop_
_atom_site_type_symbol
_atom_site_label
_atom_site_fract_x
_atom_site_fract_y
_atom_site_fract_z
Si Si1 0.706101 0.982860 0.884807
Si Si2 0.244007 0.444142 0.500400
Si Si3 0.250000 0.750000 0.250000
Si Si4 0.410466 0.599607 0.175831
Si Si5 0.388669 0.778481 0.090819
O O1 0.637959 0.862042 0.874871
O O2 0.808400 0.014428 0.846255
O O3 0.612343 0.090033 0.886862
O O4 0.758367 0.978585 0.941235
O O5 0.124157 0.375844 0.487533
O O6 0.350641 0.350641 0.495208
O O7 0.268257 0.549718 0.462647
O O8 0.346425 0.682128 0.216408
O O9 0.520091 0.520091 0.192753
O O10 0.443912 0.685545 0.129567
O O11 0.250000 0.750000 0.087138
#
# Coordination Sequence:
#
# PCOD9570748 Si02
#       5
#    16  16   4  16  16
#     4  10  20  37  60  89 127 169 211 252 304 371
#     4  10  20  33  53  86 129 171 212 252 293 357
#     4  12  24  52  64  98 120 156 208 268 340 390
#     4  11  24  43  68  91 119 157 203 262 322 383
#     4  10  20  37  56  87 122 162 207 246 306 368
#
# _framework density 19.820698
#
# number of rings (size 3 to 8) (size 9 to 14) (size 15 to 20)
#    0.000    1.647    3.529    2.824    0.000   10.824 
#    0.000    5.882    0.000    2.824    0.000    0.000 
#    0.000    0.000    0.000    0.000    0.000    0.000 
#
# Total GULP energy -379967.117873 kJ/mol
# GULP energy per Si atom -5587.751733 kJ/mol
# Density = 1.977558 g / cm^3
# Si number density = 19.820698 Si / 1000 Ang^3
#
#
#
# Elastic Constant Matrix: (Units=GPa)
#
#
# Indices 1 2 3 4 5 6 
#
# 1 50.8206 32.0295 17.1867 0.0000 0.0000 0.0000
# 2 32.0295 50.8206 17.1867 0.0000 0.0000 0.0000
# 3 17.1867 17.1867 52.2231 0.0000 0.0000 0.0000
# 4 0.0000 0.0000 0.0000 -8.3783 0.0000 0.0000
# 5 0.0000 0.0000 0.0000 0.0000 -8.3783 0.0000
# 6 0.0000 0.0000 0.0000 0.0000 0.0000 36.5562
#
#
#
# Elastic Compliance Matrix: (Units=1/GPa)
#
#
# Indices 1 2 3 4 5 6 
#
# 1 0.033598 -0.019619 -0.004600 0.000000 0.000000 0.000000
# 2 -0.019619 0.033598 -0.004600 0.000000 0.000000 0.000000
# 3 -0.004600 -0.004600 0.022177 0.000000 0.000000 0.000000
# 4 0.000000 0.000000 0.000000 -0.119356 0.000000 0.000000
# 5 0.000000 0.000000 0.000000 0.000000 -0.119356 0.000000
# 6 0.000000 0.000000 0.000000 0.000000 0.000000 0.027355
#
#
# Mechanical properties :
#
#
# Convention : Reuss Voigt Hill
#
# Bulk Modulus (GPa) = 31.51360 31.85222 31.68291
# Shear Modulus (GPa) = -92.99310 9.79069 -41.60121
#
# Velocity S-wave (km/s) = -6.85704 2.22494 -4.58632
# Velocity P-wave (km/s) = 6.83799 4.76503 3.46790
#
# Compressibility (1/GPa) = 0.03173233
#
# Stress axis : x y z
#
# Youngs Moduli (GPa) = 29.76405 29.76405 45.09255
#
# Poissons Ratio (x) = 0.58394 0.20744
# Poissons Ratio (y) = 0.58394 0.20744
# Poissons Ratio (z) = 0.13693 0.13693
#
# Static dielectric constant tensor:
#      x y z
#    x 1.733740 0.000000 0.000000 
#    y 0.000000 1.733740 0.000000 
#    z 0.000000 0.000000 1.674310 
# 
# From -- ./inp_files/7418.got.cif
#   From: 2010.05.17/outbox.cif.g08.bks.cpg/sg138_4_cif.got.tgz:7418.got - 2010.05.20 13:08:53.
