data_PCOD9570616
_publ_section_title
;
Structure prediction by ZEFSAII (Michael W. Deem and Ramdas Pophale) SiO2 
 PCOD9570616
Probable space group: P 42/N C M
;
_chemical_formula_sum "Si O2"
_cell_formula_units_Z 80
_cell_length_a 12.156214
_cell_length_b 12.156214
_cell_length_c 30.643613
_cell_angle_alpha 90.000000
_cell_angle_beta 90.000000
_cell_angle_gamma 90.000000
_cell_volume 4528.315135
_symmetry_space_group_name_H-M "P 42/N C M"
_symmetry_group_IT_number 138
_space_group.IT_coordinate_system_code '2'
_symmetry_cell_setting 'tetragonal'
loop_
_space_group_symop_operation_xyz
x,y,z
1/2-y,x,1/2+z
1/2-x,1/2-y,z
y,1/2-x,1/2+z
1/2+x,-y,1/2-z
-x,1/2+y,1/2-z
1/2+y,1/2+x,-z
-y,-x,-z
-x,-y,-z
1/2+y,-x,1/2-z
1/2+x,1/2+y,-z
-y,1/2+x,1/2-z
1/2-x,y,1/2+z
x,1/2-y,1/2+z
1/2-y,1/2-x,z
y,x,z
loop_
_atom_site_type_symbol
_atom_site_label
_atom_site_fract_x
_atom_site_fract_y
_atom_site_fract_z
Si Si1 0.535012 0.257179 0.833671
Si Si2 0.841498 0.481302 0.344860
Si Si3 0.663985 0.663985 0.609660
Si Si4 0.253286 0.434696 0.741877
Si Si5 0.016878 0.483123 0.948945
Si Si6 0.141616 0.813269 0.404018
O O1 0.573026 0.383218 0.835384
O O2 0.424016 0.227030 0.859818
O O3 0.512972 0.232545 0.783146
O O4 0.626745 0.189156 0.860342
O O5 0.762334 0.501067 0.303379
O O6 0.776528 0.443510 0.387172
O O7 0.907472 0.592529 0.352001
O O8 0.750000 0.750000 0.592112
O O9 0.604426 0.604426 0.569761
O O10 0.159089 0.340912 0.743022
O O11 0.369273 0.369273 0.745156
O O12 0.903405 0.428774 0.930487
O O13 0.000000 0.500000 0.000000
O O14 0.250000 0.750000 0.423592
#
# Coordination Sequence:
#
# PCOD9570616 Si02
#       6
#    16  16   8  16   8  16
#     4  10  19  34  52  76 107 148 189 232 275 315
#     4  10  21  34  50  75 109 151 192 223 268 324
#     4  10  18  34  62  82 110 140 182 236 282 327
#     4  10  20  31  45  71 106 144 189 236 270 309
#     4  10  22  40  64  90 110 140 182 230 294 354
#     4   9  21  39  57  81 112 146 184 226 283 338
#
# _framework density 17.666616000000001
#
# number of rings (size 3 to 8) (size 9 to 14) (size 15 to 20)
#    0.000    2.200    1.000    1.800    4.200    0.400 
#    0.000    1.000    0.000    0.000    0.000    8.400 
#    0.000    0.000    0.000    0.000    0.000    0.000 
#
# Total GULP energy -445638.045064 kJ/mol
# GULP energy per Si atom -5570.475563 kJ/mol
# Density = 1.762641 g / cm^3
# Si number density = 17.666616 Si / 1000 Ang^3
#
#
#
# Elastic Constant Matrix: (Units=GPa)
#
#
# Indices 1 2 3 4 5 6 
#
# 1 69.2831 37.5712 36.8776 0.0000 0.0000 0.0000
# 2 37.5712 69.2831 36.8776 0.0000 0.0000 0.0000
# 3 36.8776 36.8776 79.2946 0.0000 0.0000 0.0000
# 4 0.0000 0.0000 0.0000 4.6012 0.0000 0.0000
# 5 0.0000 0.0000 0.0000 0.0000 4.6012 0.0000
# 6 0.0000 0.0000 0.0000 0.0000 0.0000 20.8058
#
#
#
# Elastic Compliance Matrix: (Units=1/GPa)
#
#
# Indices 1 2 3 4 5 6 
#
# 1 0.022658 -0.008875 -0.006410 0.000000 0.000000 0.000000
# 2 -0.008875 0.022658 -0.006410 0.000000 0.000000 0.000000
# 3 -0.006410 -0.006410 0.018574 0.000000 0.000000 0.000000
# 4 0.000000 0.000000 0.000000 0.217333 0.000000 0.000000
# 5 0.000000 0.000000 0.000000 0.000000 0.217333 0.000000
# 6 0.000000 0.000000 0.000000 0.000000 0.000000 0.048064
#
#
# Mechanical properties :
#
#
# Convention : Reuss Voigt Hill
#
# Bulk Modulus (GPa) = 48.78234 48.94595 48.86414
# Shear Modulus (GPa) = 8.37739 13.10394 10.74066
#
# Velocity S-wave (km/s) = 2.17996 2.72644 2.46837
# Velocity P-wave (km/s) = 5.83172 6.13814 5.98689
#
# Compressibility (1/GPa) = 0.02049922
#
# Stress axis : x y z
#
# Youngs Moduli (GPa) = 44.13363 44.13363 53.84012
#
# Poissons Ratio (x) = 0.39170 0.34512
# Poissons Ratio (y) = 0.39170 0.34512
# Poissons Ratio (z) = 0.28290 0.28290
#
# Static dielectric constant tensor:
#      x y z
#    x 1.632800 0.000000 0.000000 
#    y 0.000000 1.632800 0.000000 
#    z 0.000000 0.000000 1.562130 
# 
# From -- ./inp_files/7944.got.cif
#   From: 2010.05.17/outbox.cif.g08.bks.cpg/sg138_4_cif.got.tgz:7944.got - 2010.05.20 13:08:53.
