data_PCOD9570672
_publ_section_title
;
Structure prediction by ZEFSAII (Michael W. Deem and Ramdas Pophale) SiO2 
 PCOD9570672
Probable space group: P 42/N C M
;
_chemical_formula_sum "Si O2"
_cell_formula_units_Z 112
_cell_length_a 22.747098
_cell_length_b 22.747098
_cell_length_c 12.801060
_cell_angle_alpha 90.000000
_cell_angle_beta 90.000000
_cell_angle_gamma 90.000000
_cell_volume 6623.658459
_symmetry_space_group_name_H-M "P 42/N C M"
_symmetry_group_IT_number 138
_space_group.IT_coordinate_system_code '2'
_symmetry_cell_setting 'tetragonal'
loop_
_space_group_symop_operation_xyz
x,y,z
1/2-y,x,1/2+z
1/2-x,1/2-y,z
y,1/2-x,1/2+z
1/2+x,-y,1/2-z
-x,1/2+y,1/2-z
1/2+y,1/2+x,-z
-y,-x,-z
-x,-y,-z
1/2+y,-x,1/2-z
1/2+x,1/2+y,-z
-y,1/2+x,1/2-z
1/2-x,y,1/2+z
x,1/2-y,1/2+z
1/2-y,1/2-x,z
y,x,z
loop_
_atom_site_type_symbol
_atom_site_label
_atom_site_fract_x
_atom_site_fract_y
_atom_site_fract_z
Si Si1 0.339908 0.698656 0.387929
Si Si2 0.846506 0.454502 0.663746
Si Si3 0.674952 0.154112 0.332121
Si Si4 0.022027 0.831426 0.926635
Si Si5 0.501111 0.097308 0.966794
Si Si6 0.521233 0.075887 0.737101
Si Si7 0.481741 0.701525 0.374546
O O1 0.323529 0.676472 0.500000
O O2 0.318962 0.657108 0.293309
O O3 0.317744 0.765452 0.373376
O O4 0.410654 0.700159 0.381825
O O5 0.818051 0.389139 0.648273
O O6 0.847217 0.480689 0.548319
O O7 0.911891 0.442261 0.709652
O O8 0.813800 0.491616 0.752704
O O9 0.671273 0.090127 0.385798
O O10 0.996990 0.883343 0.855398
O O11 0.997608 0.766579 0.904729
O O12 0.515579 0.111091 0.845905
O O13 0.442561 0.057440 0.971987
O O14 0.554901 0.054901 0.000000
O O15 0.496922 0.152069 0.044630
O O16 0.482503 0.017498 0.749183
#
# Coordination Sequence:
#
# PCOD9570672 Si02
#       7
#    16  16  16  16  16  16  16
#     4  10  21  32  47  59  78 119 157 206 252 283
#     4  10  20  35  48  67  95 130 168 204 254 304
#     4   9  20  34  41  60  84 111 162 205 246 293
#     4  10  22  33  50  70  98 131 160 203 251 306
#     4  10  19  33  53  78 102 128 168 214 250 290
#     4  10  20  34  55  79 103 130 167 212 261 305
#     4  10  21  33  51  69  95 130 169 202 243 304
#
# _framework density 16.909082999999999
#
# number of rings (size 3 to 8) (size 9 to 14) (size 15 to 20)
#    0.000    2.143    1.429    2.143    6.000    8.286 
#    0.000    3.571    0.000    0.000    0.000    0.000 
#    0.000    0.571    0.000    3.143    0.000    0.000 
#
# Total GULP energy -624580.451766 kJ/mol
# GULP energy per Si atom -5576.611176 kJ/mol
# Density = 1.687060 g / cm^3
# Si number density = 16.909083 Si / 1000 Ang^3
#
#
#
# Elastic Constant Matrix: (Units=GPa)
#
#
# Indices 1 2 3 4 5 6 
#
# 1 27.7914 -0.5984 3.1949 0.0000 0.0000 0.0000
# 2 -0.5984 27.7910 3.1946 0.0000 0.0000 0.0000
# 3 3.1949 3.1946 126.6977 0.0000 0.0000 0.0000
# 4 0.0000 0.0000 0.0000 2.8682 0.0000 0.0000
# 5 0.0000 0.0000 0.0000 0.0000 2.8719 0.0000
# 6 0.0000 0.0000 0.0000 0.0000 0.0000 -8.3853
#
#
#
# Elastic Compliance Matrix: (Units=1/GPa)
#
#
# Indices 1 2 3 4 5 6 
#
# 1 0.036109 0.000885 -0.000933 0.000000 0.000000 0.000000
# 2 0.000885 0.036109 -0.000933 0.000000 0.000000 0.000000
# 3 -0.000933 -0.000933 0.007940 0.000000 0.000000 0.000000
# 4 0.000000 0.000000 0.000000 0.348647 0.000000 0.000000
# 5 0.000000 0.000000 0.000000 0.000000 0.348207 0.000000
# 6 0.000000 0.000000 0.000000 0.000000 0.000000 -0.119256
#
#
# Mechanical properties :
#
#
# Convention : Reuss Voigt Hill
#
# Bulk Modulus (GPa) = 12.78841 21.54025 17.16433
# Shear Modulus (GPa) = 7.29094 11.23689 9.26391
#
# Velocity S-wave (km/s) = 2.07875 2.58068 2.34319
# Velocity P-wave (km/s) = 3.65254 4.65257 4.18255
#
# Compressibility (1/GPa) = 0.07819580
#
# Stress axis : x y z
#
# Youngs Moduli (GPa) = 27.69423 27.69381 125.94703
#
# Poissons Ratio (x) = -0.02450 0.11749
# Poissons Ratio (y) = -0.02450 0.11748
# Poissons Ratio (z) = 0.02583 0.02583
#
# Static dielectric constant tensor:
#      x y z
#    x 1.597500 0.000000 0.000000 
#    y 0.000000 1.597510 0.000000 
#    z 0.000000 0.000000 1.613670 
# 
# From -- ./inp_files/3305.got.cif
#   From: 2010.05.17/outbox.cif.g08.bks.cpg/sg138_2_cif.got.tgz:3305.got - 2010.05.20 13:08:53.
