data_PCOD9570810
_publ_section_title
;
Structure prediction by ZEFSAII (Michael W. Deem and Ramdas Pophale) SiO2 
 PCOD9570810
Probable space group: P 42/N C M
;
_chemical_formula_sum "Si O2"
_cell_formula_units_Z 96
_cell_length_a 14.477613
_cell_length_b 14.477613
_cell_length_c 22.568816
_cell_angle_alpha 90.000000
_cell_angle_beta 90.000000
_cell_angle_gamma 90.000000
_cell_volume 4730.452681
_symmetry_space_group_name_H-M "P 42/N C M"
_symmetry_group_IT_number 138
_space_group.IT_coordinate_system_code '2'
_symmetry_cell_setting 'tetragonal'
loop_
_space_group_symop_operation_xyz
x,y,z
1/2-y,x,1/2+z
1/2-x,1/2-y,z
y,1/2-x,1/2+z
1/2+x,-y,1/2-z
-x,1/2+y,1/2-z
1/2+y,1/2+x,-z
-y,-x,-z
-x,-y,-z
1/2+y,-x,1/2-z
1/2+x,1/2+y,-z
-y,1/2+x,1/2-z
1/2-x,y,1/2+z
x,1/2-y,1/2+z
1/2-y,1/2-x,z
y,x,z
loop_
_atom_site_type_symbol
_atom_site_label
_atom_site_fract_x
_atom_site_fract_y
_atom_site_fract_z
Si Si1 0.480697 0.865536 0.735801
Si Si2 0.124668 0.835755 0.354828
Si Si3 0.337408 0.875929 0.378291
Si Si4 0.012215 0.639935 0.964539
Si Si5 0.180763 0.026479 0.964011
Si Si6 0.756655 0.899696 0.661425
O O1 0.408528 0.847672 0.787786
O O2 0.428722 0.889216 0.674701
O O3 0.533664 0.772029 0.715161
O O4 0.555689 0.944312 0.750485
O O5 0.226263 0.877443 0.366041
O O6 0.134743 0.729675 0.374449
O O7 0.044048 0.872790 0.397102
O O8 0.357018 0.929260 0.439006
O O9 0.925661 0.574340 0.978341
O O10 0.100680 0.600680 0.000000
O O11 0.988415 0.743242 0.985347
O O12 0.100302 0.100302 0.977646
O O13 0.234765 0.062989 0.904544
O O14 0.683252 0.816749 0.667736
O O15 0.858732 0.858732 0.665010
#
# Coordination Sequence:
#
# PCOD9570810 Si02
#       6
#    16  16  16  16  16  16
#     4  10  20  36  58  86 120 154 197 250 307 364
#     4  11  22  39  60  85 121 161 200 247 311 367
#     4  10  21  39  61  87 114 157 207 252 298 367
#     4  11  23  40  61  90 123 156 205 253 304 372
#     4  10  20  39  63  89 120 156 204 257 308 359
#     4   8  15  30  54  81 110 149 195 240 290 354
#
# _framework density 20.294041
#
# number of rings (size 3 to 8) (size 9 to 14) (size 15 to 20)
#    0.000    2.000    1.667    3.500    0.000    3.000 
#    0.000    9.167    0.000    2.000    0.000    0.000 
#    0.000    0.000    0.000    0.000    0.000    0.000 
#
# Total GULP energy -535452.127141 kJ/mol
# GULP energy per Si atom -5577.626324 kJ/mol
# Density = 2.024785 g / cm^3
# Si number density = 20.294041 Si / 1000 Ang^3
#
#
#
# Elastic Constant Matrix: (Units=GPa)
#
#
# Indices 1 2 3 4 5 6 
#
# 1 67.5491 30.5277 10.2954 0.0000 0.0000 0.0000
# 2 30.5277 67.5491 10.2954 0.0000 0.0000 0.0000
# 3 10.2954 10.2954 73.8297 0.0000 0.0000 0.0000
# 4 0.0000 0.0000 0.0000 20.7180 0.0000 0.0000
# 5 0.0000 0.0000 0.0000 0.0000 20.7180 0.0000
# 6 0.0000 0.0000 0.0000 0.0000 0.0000 16.3389
#
#
#
# Elastic Compliance Matrix: (Units=1/GPa)
#
#
# Indices 1 2 3 4 5 6 
#
# 1 0.018757 -0.008254 -0.001465 0.000000 0.000000 0.000000
# 2 -0.008254 0.018757 -0.001465 0.000000 0.000000 0.000000
# 3 -0.001465 -0.001465 0.013953 0.000000 0.000000 0.000000
# 4 0.000000 0.000000 0.000000 0.048267 0.000000 0.000000
# 5 0.000000 0.000000 0.000000 0.000000 0.048267 0.000000
# 6 0.000000 0.000000 0.000000 0.000000 0.000000 0.061204
#
#
# Mechanical properties :
#
#
# Convention : Reuss Voigt Hill
#
# Bulk Modulus (GPa) = 34.36243 34.57389 34.46816
# Shear Modulus (GPa) = 20.72339 22.07562 21.39951
#
# Velocity S-wave (km/s) = 3.19902 3.30174 3.25079
# Velocity P-wave (km/s) = 5.53299 5.62217 5.57776
#
# Compressibility (1/GPa) = 0.02910155
#
# Stress axis : x y z
#
# Youngs Moduli (GPa) = 53.31201 53.31201 71.66819
#
# Poissons Ratio (x) = 0.44003 0.10497
# Poissons Ratio (y) = 0.44003 0.10497
# Poissons Ratio (z) = 0.07809 0.07809
#
# Static dielectric constant tensor:
#      x y z
#    x 1.752390 0.000000 0.000000 
#    y 0.000000 1.752390 0.000000 
#    z 0.000000 0.000000 1.726330 
# 
# From -- ./inp_files/6238.got.cif
#   From: 2010.05.17/outbox.cif.g08.bks.cpg/sg138_4_cif.got.tgz:6238.got - 2010.05.20 13:08:53.
