data_PCOD9570563
_publ_section_title
;
Structure prediction by ZEFSAII (Michael W. Deem and Ramdas Pophale) SiO2 
 PCOD9570563
Probable space group: P 42/N C M
;
_chemical_formula_sum "Si O2"
_cell_formula_units_Z 72
_cell_length_a 14.377751
_cell_length_b 14.377751
_cell_length_c 19.464880
_cell_angle_alpha 90.000000
_cell_angle_beta 90.000000
_cell_angle_gamma 90.000000
_cell_volume 4023.774618
_symmetry_space_group_name_H-M "P 42/N C M"
_symmetry_group_IT_number 138
_space_group.IT_coordinate_system_code '2'
_symmetry_cell_setting 'tetragonal'
loop_
_space_group_symop_operation_xyz
x,y,z
1/2-y,x,1/2+z
1/2-x,1/2-y,z
y,1/2-x,1/2+z
1/2+x,-y,1/2-z
-x,1/2+y,1/2-z
1/2+y,1/2+x,-z
-y,-x,-z
-x,-y,-z
1/2+y,-x,1/2-z
1/2+x,1/2+y,-z
-y,1/2+x,1/2-z
1/2-x,y,1/2+z
x,1/2-y,1/2+z
1/2-y,1/2-x,z
y,x,z
loop_
_atom_site_type_symbol
_atom_site_label
_atom_site_fract_x
_atom_site_fract_y
_atom_site_fract_z
Si Si1 0.346557 0.501248 0.475029
Si Si2 0.933745 0.213055 0.324703
Si Si3 0.750000 0.250000 0.886775
Si Si4 0.582277 0.433490 0.803319
Si Si5 0.565438 0.166452 0.552755
O O1 0.413738 0.586263 0.500000
O O2 0.407826 0.407826 0.483762
O O3 0.318353 0.515449 0.395002
O O4 0.251759 0.509585 0.519194
O O5 0.824682 0.197954 0.340511
O O6 0.955903 0.151438 0.259104
O O7 0.939115 0.323471 0.310980
O O8 0.701167 0.329318 0.930455
O O9 0.487483 0.487483 0.791902
O O10 0.629783 0.467798 0.873996
O O11 0.582209 0.082209 0.500000
#
# Coordination Sequence:
#
# PCOD9570563 Si02
#       5
#    16  16   8  16  16
#     4  11  21  34  57  89 123 156 190 242 310 368
#     4  11  21  37  56  87 120 150 191 251 297 361
#     4  10  17  31  58  84 114 144 178 240 312 356
#     4  11  24  38  60  88 116 156 199 243 300 359
#     4  11  18  35  56  83 117 148 195 249 299 350
#
# _framework density 17.893646
#
# number of rings (size 3 to 8) (size 9 to 14) (size 15 to 20)
#    0.000    1.111    6.667    3.667    0.000    1.333 
#    0.000    0.000    0.000    6.000    0.000    0.000 
#    0.000    0.000    0.000    0.000    0.000    0.000 
#
# Total GULP energy -401600.281282 kJ/mol
# GULP energy per Si atom -5577.781684 kJ/mol
# Density = 1.785292 g / cm^3
# Si number density = 17.893646 Si / 1000 Ang^3
#
#
#
# Elastic Constant Matrix: (Units=GPa)
#
#
# Indices 1 2 3 4 5 6 
#
# 1 56.5334 49.9878 45.5508 0.0000 0.0000 0.0000
# 2 49.9878 56.5334 45.5513 0.0000 0.0000 0.0000
# 3 45.5508 45.5513 146.0140 0.0000 0.0000 0.0000
# 4 0.0000 0.0000 0.0000 2.1330 0.0000 0.0000
# 5 0.0000 0.0000 0.0000 0.0000 2.1326 0.0000
# 6 0.0000 0.0000 0.0000 0.0000 0.0000 38.7901
#
#
#
# Elastic Compliance Matrix: (Units=1/GPa)
#
#
# Indices 1 2 3 4 5 6 
#
# 1 0.082789 -0.069986 -0.003994 0.000000 0.000000 0.000000
# 2 -0.069986 0.082790 -0.003995 0.000000 0.000000 0.000000
# 3 -0.003994 -0.003995 0.009341 0.000000 0.000000 0.000000
# 4 0.000000 0.000000 0.000000 0.468820 0.000000 0.000000
# 5 0.000000 0.000000 0.000000 0.000000 0.468919 0.000000
# 6 0.000000 0.000000 0.000000 0.000000 0.000000 0.025780
#
#
# Mechanical properties :
#
#
# Convention : Reuss Voigt Hill
#
# Bulk Modulus (GPa) = 52.71115 60.14008 56.42562
# Shear Modulus (GPa) = 3.84405 16.47719 10.16062
#
# Velocity S-wave (km/s) = 1.46729 3.03783 2.38551
# Velocity P-wave (km/s) = 5.69145 6.78139 6.26018
#
# Compressibility (1/GPa) = 0.01897132
#
# Stress axis : x y z
#
# Youngs Moduli (GPa) = 12.07887 12.07877 107.05646
#
# Poissons Ratio (x) = 0.84534 0.42758
# Poissons Ratio (y) = 0.84535 0.42767
# Poissons Ratio (z) = 0.04824 0.04825
#
# Static dielectric constant tensor:
#      x y z
#    x 1.609650 0.000000 0.000000 
#    y 0.000000 1.609650 0.000000 
#    z 0.000000 0.000000 1.692640 
# 
# From -- ./inp_files/5005.got.cif
#   From: 2010.05.17/outbox.cif.g08.bks.cpg/sg138_3_cif.got.tgz:5005.got - 2010.05.20 13:08:53.
