data_PCOD9570867
_publ_section_title
;
Structure prediction by ZEFSAII (Michael W. Deem and Ramdas Pophale) SiO2 
 PCOD9570867
Probable space group: P 42/N C M
;
_chemical_formula_sum "Si O2"
_cell_formula_units_Z 52
_cell_length_a 15.158063
_cell_length_b 15.158063
_cell_length_c 12.138773
_cell_angle_alpha 90.000000
_cell_angle_beta 90.000000
_cell_angle_gamma 90.000000
_cell_volume 2789.087925
_symmetry_space_group_name_H-M "P 42/N C M"
_symmetry_group_IT_number 138
_space_group.IT_coordinate_system_code '2'
_symmetry_cell_setting 'tetragonal'
loop_
_space_group_symop_operation_xyz
x,y,z
1/2-y,x,1/2+z
1/2-x,1/2-y,z
y,1/2-x,1/2+z
1/2+x,-y,1/2-z
-x,1/2+y,1/2-z
1/2+y,1/2+x,-z
-y,-x,-z
-x,-y,-z
1/2+y,-x,1/2-z
1/2+x,1/2+y,-z
-y,1/2+x,1/2-z
1/2-x,y,1/2+z
x,1/2-y,1/2+z
1/2-y,1/2-x,z
y,x,z
loop_
_atom_site_type_symbol
_atom_site_label
_atom_site_fract_x
_atom_site_fract_y
_atom_site_fract_z
Si Si1 0.750000 0.250000 0.000000
Si Si2 0.675980 0.419867 0.091895
Si Si3 0.967967 0.826447 0.536204
Si Si4 0.547790 0.093598 0.179443
O O1 0.839132 0.244664 0.929461
O O2 0.726555 0.511362 0.069822
O O3 0.641256 0.413615 0.214989
O O4 0.601666 0.398335 0.000000
O O5 0.870979 0.870979 0.537370
O O6 0.026644 0.885445 0.619703
O O7 0.009818 0.842432 0.415241
O O8 0.465765 0.034236 0.218635
#
# Coordination Sequence:
#
# PCOD9570867 Si02
#       4
#     4  16  16  16
#     4   8  20  32  42  86 116 136 156 222 298 328
#     4  10  21  33  52  85 112 142 176 236 280 327
#     4   9  19  36  53  76 109 157 187 216 280 352
#     4   9  19  35  55  74 107 149 190 222 267 339
#
# _framework density 18.644088
#
# number of rings (size 3 to 8) (size 9 to 14) (size 15 to 20)
#    0.923    1.846    0.000    3.692    4.308    0.615 
#    0.000    0.000    0.000    0.923    0.000    4.308 
#    0.000    0.000    0.000    0.000    0.000    0.000 
#
# Total GULP energy -289492.913291 kJ/mol
# GULP energy per Si atom -5567.171409 kJ/mol
# Density = 1.860165 g / cm^3
# Si number density = 18.644088 Si / 1000 Ang^3
#
#
#
# Elastic Constant Matrix: (Units=GPa)
#
#
# Indices 1 2 3 4 5 6 
#
# 1 35.4069 28.4988 38.0576 0.0000 0.0000 0.0000
# 2 28.4988 35.4059 38.0580 0.0000 0.0000 0.0000
# 3 38.0576 38.0580 127.8590 0.0000 0.0000 0.0000
# 4 0.0000 0.0000 0.0000 24.9470 0.0000 0.0000
# 5 0.0000 0.0000 0.0000 0.0000 24.9469 0.0000
# 6 0.0000 0.0000 0.0000 0.0000 0.0000 26.6147
#
#
#
# Elastic Compliance Matrix: (Units=1/GPa)
#
#
# Indices 1 2 3 4 5 6 
#
# 1 0.084504 -0.060263 -0.007215 0.000000 0.000000 0.000000
# 2 -0.060263 0.084509 -0.007217 0.000000 0.000000 0.000000
# 3 -0.007215 -0.007217 0.012117 0.000000 0.000000 0.000000
# 4 0.000000 0.000000 0.000000 0.040085 0.000000 0.000000
# 5 0.000000 0.000000 0.000000 0.000000 0.040085 0.000000
# 6 0.000000 0.000000 0.000000 0.000000 0.000000 0.037573
#
#
# Mechanical properties :
#
#
# Convention : Reuss Voigt Hill
#
# Bulk Modulus (GPa) = 31.50726 45.32228 38.41477
# Shear Modulus (GPa) = 10.89696 21.57219 16.23458
#
# Velocity S-wave (km/s) = 2.42021 3.40524 2.95407
# Velocity P-wave (km/s) = 4.97453 6.31053 5.68193
#
# Compressibility (1/GPa) = 0.03173872
#
# Stress axis : x y z
#
# Youngs Moduli (GPa) = 11.83372 11.83312 82.52949
#
# Poissons Ratio (x) = 0.71310 0.59547
# Poissons Ratio (y) = 0.71314 0.59561
# Poissons Ratio (z) = 0.08538 0.08540
#
# Static dielectric constant tensor:
#      x y z
#    x 1.684700 0.000000 0.000000 
#    y 0.000000 1.684700 0.000000 
#    z 0.000000 0.000000 1.621040 
# 
# From -- ./inp_files/1085.got.cif
#   From: 2010.05.17/outbox.cif.g08.bks.cpg/sg138_1_cif.got.tgz:1085.got - 2010.05.20 13:08:53.
