data_PCOD9570417
_publ_section_title
;
Structure prediction by ZEFSAII (Michael W. Deem and Ramdas Pophale) SiO2 
 PCOD9570417
Probable space group: P 42/N M C
;
_chemical_formula_sum "Si O2"
_cell_formula_units_Z 96
_cell_length_a 14.332311
_cell_length_b 14.332311
_cell_length_c 20.426448
_cell_angle_alpha 90.000000
_cell_angle_beta 90.000000
_cell_angle_gamma 90.000000
_cell_volume 4195.901647
_symmetry_space_group_name_H-M "P 42/N M C"
_symmetry_group_IT_number 137
_space_group.IT_coordinate_system_code '2'
_symmetry_cell_setting 'tetragonal'
loop_
_space_group_symop_operation_xyz
x,y,z
1/2-y,x,1/2+z
1/2-x,1/2-y,z
y,1/2-x,1/2+z
1/2+x,-y,-z
-x,1/2+y,-z
1/2+y,1/2+x,1/2-z
-y,-x,1/2-z
-x,-y,-z
1/2+y,-x,1/2-z
1/2+x,1/2+y,-z
-y,1/2+x,1/2-z
1/2-x,y,z
x,1/2-y,z
1/2-y,1/2-x,1/2+z
y,x,1/2+z
loop_
_atom_site_type_symbol
_atom_site_label
_atom_site_fract_x
_atom_site_fract_y
_atom_site_fract_z
Si Si1 0.609854 0.355520 0.450827
Si Si2 0.447005 0.862423 0.685040
Si Si3 0.151518 0.540155 0.417834
Si Si4 0.638069 0.643822 0.237678
Si Si5 0.108703 0.354181 0.485473
Si Si6 0.463924 0.360695 0.623899
O O1 0.646088 0.250000 0.448917
O O2 0.608361 0.398803 0.378458
O O3 0.651310 0.410246 0.511001
O O4 0.500171 0.350488 0.467139
O O5 0.398515 0.898515 0.750000
O O6 0.442584 0.750000 0.680981
O O7 0.556960 0.886472 0.690900
O O8 0.250000 0.562487 0.383787
O O9 0.148803 0.432383 0.438725
O O10 0.058195 0.578996 0.383551
O O11 0.750000 0.640219 0.247571
O O12 0.615859 0.750000 0.215725
O O13 0.586077 0.627211 0.306658
O O14 0.146681 0.250000 0.477105
O O15 0.105114 0.380433 0.562520
O O16 0.488177 0.250000 0.617048
#
# Coordination Sequence:
#
# PCOD9570417 Si02
#       6
#    16  16  16  16  16  16
#     4   9  19  37  56  77 109 149 191 239 290 341
#     4  10  22  36  57  85 115 155 198 241 287 341
#     4  11  22  33  55  87 120 159 196 232 291 362
#     4   9  19  37  62  89 113 146 194 246 300 350
#     4   9  19  35  54  76 108 145 186 239 290 337
#     4   9  18  34  57  84 115 146 186 241 291 343
#
# _framework density 22.879469
#
# number of rings (size 3 to 8) (size 9 to 14) (size 15 to 20)
#    0.000    2.500    0.000    3.500    4.667    3.167 
#    0.000    4.167    0.000    4.000    0.000    4.667 
#    0.000    0.000    0.000    0.000    0.000    0.000 
#
# Total GULP energy -536378.832191 kJ/mol
# GULP energy per Si atom -5587.279502 kJ/mol
# Density = 2.282739 g / cm^3
# Si number density = 22.879469 Si / 1000 Ang^3
#
#
#
# Elastic Constant Matrix: (Units=GPa)
#
#
# Indices 1 2 3 4 5 6 
#
# 1 84.0117 29.4197 27.8061 0.0000 0.0000 0.0000
# 2 29.4197 84.0117 27.8061 0.0000 0.0000 0.0000
# 3 27.8061 27.8061 93.6780 0.0000 0.0000 0.0000
# 4 0.0000 0.0000 0.0000 4.3939 0.0000 0.0000
# 5 0.0000 0.0000 0.0000 0.0000 4.3939 0.0000
# 6 0.0000 0.0000 0.0000 0.0000 0.0000 764.5831
#
#
#
# Elastic Compliance Matrix: (Units=1/GPa)
#
#
# Indices 1 2 3 4 5 6 
#
# 1 0.014318 -0.004000 -0.003062 0.000000 0.000000 0.000000
# 2 -0.004000 0.014318 -0.003062 0.000000 0.000000 0.000000
# 3 -0.003062 -0.003062 0.012493 0.000000 0.000000 0.000000
# 4 0.000000 0.000000 0.000000 0.227586 0.000000 0.000000
# 5 0.000000 0.000000 0.000000 0.000000 0.227586 0.000000
# 6 0.000000 0.000000 0.000000 0.000000 0.000000 0.001308
#
#
# Mechanical properties :
#
#
# Convention : Reuss Voigt Hill
#
# Bulk Modulus (GPa) = 47.89791 47.97393 47.93592
# Shear Modulus (GPa) = 9.52713 166.45217 87.98965
#
# Velocity S-wave (km/s) = 2.04281 8.53872 6.20817
# Velocity P-wave (km/s) = 5.15213 10.87320 8.50797
#
# Compressibility (1/GPa) = 0.02087774
#
# Stress axis : x y z
#
# Youngs Moduli (GPa) = 69.84449 69.84449 80.04545
#
# Poissons Ratio (x) = 0.27939 0.24514
# Poissons Ratio (y) = 0.27939 0.24514
# Poissons Ratio (z) = 0.21390 0.21390
#
# Static dielectric constant tensor:
#      x y z
#    x 1.871200 0.000000 0.000000 
#    y 0.000000 1.871200 0.000000 
#    z 0.000000 0.000000 1.886310 
# 
# From -- ./inp_files/7837.got.cif
#   From: 2010.05.17/outbox.cif.g08.bks.cpg/sg137_4_cif.got.tgz:7837.got - 2010.05.20 13:01:12.
