data_PCOD9570993
_publ_section_title
;
Structure prediction by ZEFSAII (Michael W. Deem and Ramdas Pophale) SiO2 
 PCOD9570993
Probable space group: P 42/N C M
;
_chemical_formula_sum "Si O2"
_cell_formula_units_Z 112
_cell_length_a 14.589307
_cell_length_b 14.589307
_cell_length_c 23.578319
_cell_angle_alpha 90.000000
_cell_angle_beta 90.000000
_cell_angle_gamma 90.000000
_cell_volume 5018.595183
_symmetry_space_group_name_H-M "P 42/N C M"
_symmetry_group_IT_number 138
_space_group.IT_coordinate_system_code '2'
_symmetry_cell_setting 'tetragonal'
loop_
_space_group_symop_operation_xyz
x,y,z
1/2-y,x,1/2+z
1/2-x,1/2-y,z
y,1/2-x,1/2+z
1/2+x,-y,1/2-z
-x,1/2+y,1/2-z
1/2+y,1/2+x,-z
-y,-x,-z
-x,-y,-z
1/2+y,-x,1/2-z
1/2+x,1/2+y,-z
-y,1/2+x,1/2-z
1/2-x,y,1/2+z
x,1/2-y,1/2+z
1/2-y,1/2-x,z
y,x,z
loop_
_atom_site_type_symbol
_atom_site_label
_atom_site_fract_x
_atom_site_fract_y
_atom_site_fract_z
Si Si1 0.894938 0.750034 0.847349
Si Si2 0.690730 0.451178 0.973487
Si Si3 0.391242 0.251487 0.447697
Si Si4 0.974759 0.125601 0.574263
Si Si5 0.544970 0.297962 0.366056
Si Si6 0.359452 0.507609 0.243694
Si Si7 0.414989 0.567418 0.869110
O O1 0.821443 0.678558 0.824137
O O2 0.834139 0.834139 0.872783
O O3 0.951368 0.789457 0.795168
O O4 0.957301 0.690787 0.889425
O O5 0.800662 0.437467 0.971106
O O6 0.640431 0.460812 0.912386
O O7 0.631511 0.368490 0.000000
O O8 0.692725 0.542750 0.011431
O O9 0.319603 0.180397 0.422245
O O10 0.330354 0.330354 0.478684
O O11 0.447651 0.299181 0.397970
O O12 0.885053 0.097790 0.609037
O O13 0.036610 0.036610 0.558101
O O14 0.546589 0.311312 0.298742
O O15 0.573290 0.193506 0.380110
O O16 0.438904 0.438904 0.264548
O O17 0.405247 0.572786 0.196689
O O18 0.471809 0.471809 0.877286
#
# Coordination Sequence:
#
# PCOD9570993 Si02
#       7
#    16  16  16  16  16  16  16
#     4   9  19  38  67 101 134 178 236 295 354 412
#     4  12  25  47  74 104 143 187 246 303 368 440
#     4  11  25  46  74 108 145 190 246 309 377 443
#     4  11  25  46  72 102 144 190 237 301 367 433
#     4  12  26  45  71 105 146 192 243 292 366 441
#     4  10  22  42  68 102 142 185 237 299 357 426
#     4  11  25  46  72 105 146 195 247 302 360 430
#
# _framework density 22.317001999999999
#
# number of rings (size 3 to 8) (size 9 to 14) (size 15 to 20)
#    0.000    1.143    2.857    2.571    2.000    3.429 
#    2.571    4.286    0.000    0.000    0.000    0.000 
#    0.000    0.000    0.000    0.000    0.000    0.000 
#
# Total GULP energy -624654.755820 kJ/mol
# GULP energy per Si atom -5577.274606 kJ/mol
# Density = 2.226621 g / cm^3
# Si number density = 22.317002 Si / 1000 Ang^3
#
#
#
# Elastic Constant Matrix: (Units=GPa)
#
#
# Indices 1 2 3 4 5 6 
#
# 1 110.0004 80.9053 31.1107 0.0000 0.0000 0.0000
# 2 80.9053 110.0021 31.1116 0.0000 0.0000 0.0000
# 3 31.1107 31.1116 79.8531 0.0000 0.0000 0.0000
# 4 0.0000 0.0000 0.0000 17.7397 0.0000 0.0000
# 5 0.0000 0.0000 0.0000 0.0000 17.7399 0.0000
# 6 0.0000 0.0000 0.0000 0.0000 0.0000 49.8653
#
#
#
# Elastic Compliance Matrix: (Units=1/GPa)
#
#
# Indices 1 2 3 4 5 6 
#
# 1 0.020185 -0.014184 -0.002337 0.000000 0.000000 0.000000
# 2 -0.014184 0.020184 -0.002338 0.000000 0.000000 0.000000
# 3 -0.002337 -0.002338 0.014345 0.000000 0.000000 0.000000
# 4 0.000000 0.000000 0.000000 0.056371 0.000000 0.000000
# 5 0.000000 0.000000 0.000000 0.000000 0.056370 0.000000
# 6 0.000000 0.000000 0.000000 0.000000 0.000000 0.020054
#
#
# Mechanical properties :
#
#
# Convention : Reuss Voigt Hill
#
# Bulk Modulus (GPa) = 58.84413 65.12342 61.98377
# Shear Modulus (GPa) = 21.65507 27.51751 24.58629
#
# Velocity S-wave (km/s) = 3.11841 3.51526 3.32276
# Velocity P-wave (km/s) = 6.27619 6.76169 6.52346
#
# Compressibility (1/GPa) = 0.01699405
#
# Stress axis : x y z
#
# Youngs Moduli (GPa) = 49.54265 49.54314 69.71299
#
# Poissons Ratio (x) = 0.70274 0.16295
# Poissons Ratio (y) = 0.70274 0.16298
# Poissons Ratio (z) = 0.11581 0.11582
#
# Static dielectric constant tensor:
#      x y z
#    x 1.863560 0.000000 0.000000 
#    y 0.000000 1.863560 0.000000 
#    z 0.000000 0.000000 1.847700 
# 
# From -- ./inp_files/7047.got.cif
#   From: 2010.05.17/outbox.cif.g08.bks.cpg/sg138_4_cif.got.tgz:7047.got - 2010.05.20 13:08:53.
