data_PCOD9570472
_publ_section_title
;
Structure prediction by ZEFSAII (Michael W. Deem and Ramdas Pophale) SiO2 
 PCOD9570472
Probable space group: P 42/N M C
;
_chemical_formula_sum "Si O2"
_cell_formula_units_Z 52
_cell_length_a 17.148497
_cell_length_b 17.148497
_cell_length_c 8.838177
_cell_angle_alpha 90.000000
_cell_angle_beta 90.000000
_cell_angle_gamma 90.000000
_cell_volume 2599.051101
_symmetry_space_group_name_H-M "P 42/N M C"
_symmetry_group_IT_number 137
_space_group.IT_coordinate_system_code '2'
_symmetry_cell_setting 'tetragonal'
loop_
_space_group_symop_operation_xyz
x,y,z
1/2-y,x,1/2+z
1/2-x,1/2-y,z
y,1/2-x,1/2+z
1/2+x,-y,-z
-x,1/2+y,-z
1/2+y,1/2+x,1/2-z
-y,-x,1/2-z
-x,-y,-z
1/2+y,-x,1/2-z
1/2+x,1/2+y,-z
-y,1/2+x,1/2-z
1/2-x,y,z
x,1/2-y,z
1/2-y,1/2-x,1/2+z
y,x,1/2+z
loop_
_atom_site_type_symbol
_atom_site_label
_atom_site_fract_x
_atom_site_fract_y
_atom_site_fract_z
Si Si1 0.750000 0.418840 0.713558
Si Si2 0.750000 0.250000 0.250000
Si Si3 0.449311 0.164123 0.935334
Si Si4 0.750000 0.250000 0.750000
Si Si5 0.586509 0.250000 0.424397
Si Si6 0.386096 0.013756 0.774145
O O1 0.823023 0.467926 0.650471
O O2 0.750000 0.330430 0.657725
O O3 0.750000 0.414508 0.894102
O O4 0.671973 0.250000 0.351303
O O5 0.411006 0.250000 0.917655
O O6 0.403066 0.093177 0.863556
O O7 0.466230 0.148292 0.110057
O O8 0.540241 0.325586 0.364056
O O9 0.465420 0.965420 0.750000
#
# Coordination Sequence:
#
# PCOD9570472 Si02
#       6
#     8   2  16   2   8  16
#     4  10  26  41  66 100 144 185 228 290 342 426
#     4  12  26  44  68 114 146 192 222 304 354 444
#     4  10  25  46  68 103 139 180 242 293 348 420
#     4  12  26  36  68  94 150 184 228 274 358 420
#     4  12  24  43  71 104 144 182 237 283 363 421
#     4  12  24  43  76 101 141 186 233 290 351 427
#
# _framework density 20.007303
#
# number of rings (size 3 to 8) (size 9 to 14) (size 15 to 20)
#    0.923    0.000    3.077    3.231    6.462    2.462 
#    0.000    0.769    0.000    0.000    0.000    0.000 
#    0.000    0.000    0.000    0.000    0.000    0.000 
#
# Total GULP energy -290632.925202 kJ/mol
# GULP energy per Si atom -5589.094715 kJ/mol
# Density = 1.996177 g / cm^3
# Si number density = 20.007303 Si / 1000 Ang^3
#
#
#
# Elastic Constant Matrix: (Units=GPa)
#
#
# Indices 1 2 3 4 5 6 
#
# 1 124.8402 71.1717 54.7111 0.0000 0.0000 0.0000
# 2 71.1717 124.8402 54.7111 0.0000 0.0000 0.0000
# 3 54.7111 54.7111 155.6070 0.0000 0.0000 0.0000
# 4 0.0000 0.0000 0.0000 34.6702 0.0000 0.0000
# 5 0.0000 0.0000 0.0000 0.0000 34.6702 0.0000
# 6 0.0000 0.0000 0.0000 0.0000 0.0000 47.7553
#
#
#
# Elastic Compliance Matrix: (Units=1/GPa)
#
#
# Indices 1 2 3 4 5 6 
#
# 1 0.012490 -0.006143 -0.002232 0.000000 0.000000 0.000000
# 2 -0.006143 0.012490 -0.002232 0.000000 0.000000 0.000000
# 3 -0.002232 -0.002232 0.007996 0.000000 0.000000 0.000000
# 4 0.000000 0.000000 0.000000 0.028843 0.000000 0.000000
# 5 0.000000 0.000000 0.000000 0.000000 0.028843 0.000000
# 6 0.000000 0.000000 0.000000 0.000000 0.000000 0.020940
#
#
# Mechanical properties :
#
#
# Convention : Reuss Voigt Hill
#
# Bulk Modulus (GPa) = 85.00622 85.16393 85.08508
# Shear Modulus (GPa) = 36.56663 38.39871 37.48267
#
# Velocity S-wave (km/s) = 4.27976 4.38566 4.33303
# Velocity P-wave (km/s) = 8.18545 8.26463 8.22514
#
# Compressibility (1/GPa) = 0.01176385
#
# Stress axis : x y z
#
# Youngs Moduli (GPa) = 80.06236 80.06236 125.06496
#
# Poissons Ratio (x) = 0.49179 0.27912
# Poissons Ratio (y) = 0.49179 0.27912
# Poissons Ratio (z) = 0.17868 0.17868
#
# Static dielectric constant tensor:
#      x y z
#    x 1.703850 0.000000 0.000000 
#    y 0.000000 1.703850 0.000000 
#    z 0.000000 0.000000 1.680190 
# 
# From -- ./inp_files/1461.got.cif
#   From: 2010.05.17/outbox.cif.g08.bks.cpg/sg137_1_cif.got.tgz:1461.got - 2010.05.20 13:01:12.
