data_PCOD9570670
_publ_section_title
;
Structure prediction by ZEFSAII (Michael W. Deem and Ramdas Pophale) SiO2 
 PCOD9570670
Probable space group: P 42/N C M
;
_chemical_formula_sum "Si O2"
_cell_formula_units_Z 72
_cell_length_a 17.297728
_cell_length_b 17.297728
_cell_length_c 14.356752
_cell_angle_alpha 90.000000
_cell_angle_beta 90.000000
_cell_angle_gamma 90.000000
_cell_volume 4295.703779
_symmetry_space_group_name_H-M "P 42/N C M"
_symmetry_group_IT_number 138
_space_group.IT_coordinate_system_code '2'
_symmetry_cell_setting 'tetragonal'
loop_
_space_group_symop_operation_xyz
x,y,z
1/2-y,x,1/2+z
1/2-x,1/2-y,z
y,1/2-x,1/2+z
1/2+x,-y,1/2-z
-x,1/2+y,1/2-z
1/2+y,1/2+x,-z
-y,-x,-z
-x,-y,-z
1/2+y,-x,1/2-z
1/2+x,1/2+y,-z
-y,1/2+x,1/2-z
1/2-x,y,1/2+z
x,1/2-y,1/2+z
1/2-y,1/2-x,z
y,x,z
loop_
_atom_site_type_symbol
_atom_site_label
_atom_site_fract_x
_atom_site_fract_y
_atom_site_fract_z
Si Si1 0.350553 0.850553 0.000000
Si Si2 0.025172 0.350971 0.799251
Si Si3 0.851654 0.304287 0.796860
Si Si4 0.971224 0.848285 0.480776
Si Si5 0.374981 0.250787 0.662425
O O1 0.298405 0.839422 0.908758
O O2 0.344694 0.938076 0.038552
O O3 0.067069 0.432932 0.779146
O O4 0.036967 0.335251 0.908884
O O5 0.070195 0.286953 0.739481
O O6 0.933946 0.345298 0.781035
O O7 0.849425 0.219826 0.749708
O O8 0.931195 0.931195 0.459820
O O9 0.924986 0.785989 0.420899
O O10 0.316584 0.183417 0.630021
O O11 0.320084 0.320084 0.698949
#
# Coordination Sequence:
#
# PCOD9570670 Si02
#       5
#     8  16  16  16  16
#     4  10  19  33  52  72  94 124 161 203 242 280
#     4   9  18  33  51  73 100 128 160 201 245 286
#     4  10  21  35  52  74  98 127 163 199 241 288
#     4   9  17  29  48  73  99 126 159 199 239 280
#     4   9  17  29  47  72 101 132 162 194 238 289
#
# _framework density 16.760933000000001
#
# number of rings (size 3 to 8) (size 9 to 14) (size 15 to 20)
#    0.000    2.667    0.000    1.667    0.000    3.556 
#    0.000    5.556    0.000    1.333    0.000   14.000 
#    0.000    0.000    0.000    0.000    0.000    0.000 
#
# Total GULP energy -401132.630967 kJ/mol
# GULP energy per Si atom -5571.286541 kJ/mol
# Density = 1.672278 g / cm^3
# Si number density = 16.760933 Si / 1000 Ang^3
#
#
#
# Elastic Constant Matrix: (Units=GPa)
#
#
# Indices 1 2 3 4 5 6 
#
# 1 82.8484 40.5134 33.7697 0.0000 0.0000 0.0000
# 2 40.5134 82.8484 33.7697 0.0000 0.0000 0.0000
# 3 33.7697 33.7697 50.7409 0.0000 0.0000 0.0000
# 4 0.0000 0.0000 0.0000 26.7502 0.0000 0.0000
# 5 0.0000 0.0000 0.0000 0.0000 26.7502 0.0000
# 6 0.0000 0.0000 0.0000 0.0000 0.0000 13.4412
#
#
#
# Elastic Compliance Matrix: (Units=1/GPa)
#
#
# Indices 1 2 3 4 5 6 
#
# 1 0.018187 -0.005434 -0.008488 0.000000 0.000000 0.000000
# 2 -0.005434 0.018187 -0.008488 0.000000 0.000000 0.000000
# 3 -0.008488 -0.008488 0.031006 0.000000 0.000000 0.000000
# 4 0.000000 0.000000 0.000000 0.037383 0.000000 0.000000
# 5 0.000000 0.000000 0.000000 0.000000 0.037383 0.000000
# 6 0.000000 0.000000 0.000000 0.000000 0.000000 0.074398
#
#
# Mechanical properties :
#
#
# Convention : Reuss Voigt Hill
#
# Bulk Modulus (GPa) = 44.32363 48.06035 46.19199
# Shear Modulus (GPa) = 18.59548 20.61399 19.60473
#
# Velocity S-wave (km/s) = 3.33446 3.51077 3.42375
# Velocity P-wave (km/s) = 6.42860 6.72089 6.57637
#
# Compressibility (1/GPa) = 0.02256133
#
# Stress axis : x y z
#
# Youngs Moduli (GPa) = 54.98397 54.98397 32.25228
#
# Poissons Ratio (x) = 0.29878 0.27375
# Poissons Ratio (y) = 0.29878 0.27375
# Poissons Ratio (z) = 0.46668 0.46668
#
# Static dielectric constant tensor:
#      x y z
#    x 1.577430 0.000000 0.000000 
#    y 0.000000 1.577430 0.000000 
#    z 0.000000 0.000000 1.540900 
# 
# From -- ./inp_files/2803.got.cif
#   From: 2010.05.17/outbox.cif.g08.bks.cpg/sg138_2_cif.got.tgz:2803.got - 2010.05.20 13:08:53.
