data_PCOD9570893
_publ_section_title
;
Structure prediction by ZEFSAII (Michael W. Deem and Ramdas Pophale) SiO2 
 PCOD9570893
Probable space group: P 42/N C M
;
_chemical_formula_sum "Si O2"
_cell_formula_units_Z 112
_cell_length_a 30.051517
_cell_length_b 30.051517
_cell_length_c 5.131922
_cell_angle_alpha 90.000000
_cell_angle_beta 90.000000
_cell_angle_gamma 90.000000
_cell_volume 4634.606294
_symmetry_space_group_name_H-M "P 42/N C M"
_symmetry_group_IT_number 138
_space_group.IT_coordinate_system_code '2'
_symmetry_cell_setting 'tetragonal'
loop_
_space_group_symop_operation_xyz
x,y,z
1/2-y,x,1/2+z
1/2-x,1/2-y,z
y,1/2-x,1/2+z
1/2+x,-y,1/2-z
-x,1/2+y,1/2-z
1/2+y,1/2+x,-z
-y,-x,-z
-x,-y,-z
1/2+y,-x,1/2-z
1/2+x,1/2+y,-z
-y,1/2+x,1/2-z
1/2-x,y,1/2+z
x,1/2-y,1/2+z
1/2-y,1/2-x,z
y,x,z
loop_
_atom_site_type_symbol
_atom_site_label
_atom_site_fract_x
_atom_site_fract_y
_atom_site_fract_z
Si Si1 0.279254 0.147418 0.907414
Si Si2 0.977515 0.590280 0.021514
Si Si3 0.889494 0.059515 0.824003
Si Si4 0.504288 0.662844 0.184292
Si Si5 0.221457 0.954000 0.391589
Si Si6 0.825772 0.362121 0.236888
Si Si7 0.416523 0.154396 0.623431
O O1 0.239024 0.145298 0.700169
O O2 0.307186 0.192815 0.872603
O O3 0.312575 0.107991 0.824038
O O4 0.958239 0.541762 0.025335
O O5 0.947753 0.621249 0.210027
O O6 0.028073 0.595185 0.098099
O O7 0.974350 0.614465 0.747813
O O8 0.869642 0.106668 0.746450
O O9 0.931661 0.068340 0.000000
O O10 0.850457 0.035369 0.988587
O O11 0.482532 0.684233 0.446707
O O12 0.548690 0.683081 0.053524
O O13 0.261080 0.964028 0.599986
O O14 0.209265 0.901274 0.351332
O O15 0.832533 0.332533 0.500000
O O16 0.828370 0.328370 0.000000
O O17 0.376626 0.123375 0.503222
#
# Coordination Sequence:
#
# PCOD9570893 Si02
#       7
#    16  16  16  16  16  16  16
#     4  11  25  44  68  96 123 154 197 255 325 406
#     4  10  21  37  59  82 116 164 222 278 321 370
#     4  10  21  36  59  85 120 165 220 269 319 376
#     4  11  22  39  59  85 127 170 213 264 335 374
#     4  12  25  40  62  98 136 165 206 265 318 375
#     4  11  22  41  68  92 126 178 221 256 311 385
#     4   9  22  41  61  84 116 164 221 267 315 393
#
# _framework density 24.166025000000001
#
# number of rings (size 3 to 8) (size 9 to 14) (size 15 to 20)
#    0.000    1.429    1.429    4.286    4.000    2.857 
#    0.000    0.714    0.000    0.000    0.000    0.000 
#    0.000   20.000    0.000    0.000    0.000    0.000 
#
# Total GULP energy -624121.282331 kJ/mol
# GULP energy per Si atom -5572.511449 kJ/mol
# Density = 2.411102 g / cm^3
# Si number density = 24.166025 Si / 1000 Ang^3
#
#
#
# Elastic Constant Matrix: (Units=GPa)
#
#
# Indices 1 2 3 4 5 6 
#
# 1 -3.0615 71.7863 8.8352 0.0000 0.0000 0.0000
# 2 71.7863 -3.0471 8.8339 0.0000 0.0000 0.0000
# 3 8.8352 8.8339 99.9218 0.0000 0.0000 0.0000
# 4 0.0000 0.0000 0.0000 29.0982 0.0000 0.0000
# 5 0.0000 0.0000 0.0000 0.0000 29.0978 0.0000
# 6 0.0000 0.0000 0.0000 0.0000 0.0000 32.0968
#
#
#
# Elastic Compliance Matrix: (Units=1/GPa)
#
#
# Indices 1 2 3 4 5 6 
#
# 1 0.000762 0.014125 -0.001316 0.000000 0.000000 0.000000
# 2 0.014125 0.000764 -0.001316 0.000000 0.000000 0.000000
# 3 -0.001316 -0.001316 0.010241 0.000000 0.000000 0.000000
# 4 0.000000 0.000000 0.000000 0.034366 0.000000 0.000000
# 5 0.000000 0.000000 0.000000 0.000000 0.034367 0.000000
# 6 0.000000 0.000000 0.000000 0.000000 0.000000 0.031156
#
#
# Mechanical properties :
#
#
# Convention : Reuss Voigt Hill
#
# Bulk Modulus (GPa) = 28.77637 30.30266 29.53952
# Shear Modulus (GPa) = 49.87292 18.34908 34.11100
#
# Velocity S-wave (km/s) = 4.54779 2.75852 3.76111
# Velocity P-wave (km/s) = 6.28571 4.76576 5.57775
#
# Compressibility (1/GPa) = 0.03475073
#
# Stress axis : x y z
#
# Youngs Moduli (GPa) = 1313.19256 1308.19089 97.65064
#
# Poissons Ratio (x) = -18.47779 0.12852
# Poissons Ratio (y) = -18.54844 0.12856
# Poissons Ratio (z) = 1.72826 1.72223
#
# Static dielectric constant tensor:
#      x y z
#    x 2.009430 0.000000 0.000000 
#    y 0.000000 2.009430 0.000000 
#    z 0.000000 0.000000 2.037860 
# 
# From -- ./inp_files/543.got.cif
#   From: 2010.05.17/outbox.cif.g08.bks.cpg/sg138_1_cif.got.tgz:543.got - 2010.05.20 13:08:53.
