data_PCOD9570979
_publ_section_title
;
Structure prediction by ZEFSAII (Michael W. Deem and Ramdas Pophale) SiO2 
 PCOD9570979
Probable space group: P 42/N C M
;
_chemical_formula_sum "Si O2"
_cell_formula_units_Z 64
_cell_length_a 9.622086
_cell_length_b 9.622086
_cell_length_c 26.893302
_cell_angle_alpha 90.000000
_cell_angle_beta 90.000000
_cell_angle_gamma 90.000000
_cell_volume 2489.903968
_symmetry_space_group_name_H-M "P 42/N C M"
_symmetry_group_IT_number 138
_space_group.IT_coordinate_system_code '2'
_symmetry_cell_setting 'tetragonal'
loop_
_space_group_symop_operation_xyz
x,y,z
1/2-y,x,1/2+z
1/2-x,1/2-y,z
y,1/2-x,1/2+z
1/2+x,-y,1/2-z
-x,1/2+y,1/2-z
1/2+y,1/2+x,-z
-y,-x,-z
-x,-y,-z
1/2+y,-x,1/2-z
1/2+x,1/2+y,-z
-y,1/2+x,1/2-z
1/2-x,y,1/2+z
x,1/2-y,1/2+z
1/2-y,1/2-x,z
y,x,z
loop_
_atom_site_type_symbol
_atom_site_label
_atom_site_fract_x
_atom_site_fract_y
_atom_site_fract_z
Si Si1 0.686451 0.052198 0.878329
Si Si2 0.956599 0.186968 0.732655
Si Si3 0.227484 0.498903 0.015517
Si Si4 0.768778 0.972051 0.093126
O O1 0.745463 0.033967 0.823697
O O2 0.774764 0.029335 0.928414
O O3 0.606220 0.198949 0.883306
O O4 0.565063 0.934938 0.881639
O O5 0.821980 0.083714 0.734996
O O6 0.093843 0.093843 0.743545
O O7 0.145865 0.354136 0.018307
O O8 0.113363 0.613363 0.000000
O O9 0.308797 0.499839 0.964283
O O10 0.644463 0.855538 0.091775
O O11 0.898252 0.898252 0.119287
#
# Coordination Sequence:
#
# PCOD9570979 Si02
#       4
#    16  16  16  16
#     4   8  14  26  44  66  98 141 182 223 280 343
#     4  10  22  40  61  86 116 152 198 251 304 356
#     4   7  10  18  33  56  90 128 163 204 256 317
#     4   8  12  18  33  63 101 136 172 217 269 331
#
# _framework density 25.703804999999999
#
# number of rings (size 3 to 8) (size 9 to 14) (size 15 to 20)
#    0.000    3.750    0.000    3.000    0.000    1.500 
#    0.000    3.750    0.000    4.500    0.000   31.500 
#    0.000   26.000    0.000    1.000    0.000    0.000 
#
# Total GULP energy -357023.771117 kJ/mol
# GULP energy per Si atom -5578.496424 kJ/mol
# Density = 2.564530 g / cm^3
# Si number density = 25.703805 Si / 1000 Ang^3
#
#
#
# Elastic Constant Matrix: (Units=GPa)
#
#
# Indices 1 2 3 4 5 6 
#
# 1 111.0495 -12.4241 6.8383 0.0000 0.0000 0.0000
# 2 -12.4241 111.0495 6.8383 0.0000 0.0000 0.0000
# 3 6.8383 6.8383 117.3390 0.0000 0.0000 0.0000
# 4 0.0000 0.0000 0.0000 16.1548 0.0000 0.0000
# 5 0.0000 0.0000 0.0000 0.0000 16.1548 0.0000
# 6 0.0000 0.0000 0.0000 0.0000 0.0000 39.6445
#
#
#
# Elastic Compliance Matrix: (Units=1/GPa)
#
#
# Indices 1 2 3 4 5 6 
#
# 1 0.009160 0.001062 -0.000596 0.000000 0.000000 0.000000
# 2 0.001062 0.009160 -0.000596 0.000000 0.000000 0.000000
# 3 -0.000596 -0.000596 0.008592 0.000000 0.000000 0.000000
# 4 0.000000 0.000000 0.000000 0.061901 0.000000 0.000000
# 5 0.000000 0.000000 0.000000 0.000000 0.061901 0.000000
# 6 0.000000 0.000000 0.000000 0.000000 0.000000 0.025224
#
#
# Mechanical properties :
#
#
# Convention : Reuss Voigt Hill
#
# Bulk Modulus (GPa) = 37.51944 37.99366 37.75655
# Shear Modulus (GPa) = 27.01490 36.93653 31.97572
#
# Velocity S-wave (km/s) = 3.24544 3.79490 3.53087
# Velocity P-wave (km/s) = 5.35466 5.83225 5.59855
#
# Compressibility (1/GPa) = 0.02665285
#
# Stress axis : x y z
#
# Youngs Moduli (GPa) = 109.16506 109.16506 116.39075
#
# Poissons Ratio (x) = -0.11588 0.06934
# Poissons Ratio (y) = -0.11588 0.06934
# Poissons Ratio (z) = 0.06503 0.06503
#
# Static dielectric constant tensor:
#      x y z
#    x 2.155250 0.000000 0.000000 
#    y 0.000000 2.155250 0.000000 
#    z 0.000000 0.000000 1.969080 
# 
# From -- ./inp_files/7313.got.cif
#   From: 2010.05.17/outbox.cif.g08.bks.cpg/sg138_4_cif.got.tgz:7313.got - 2010.05.20 13:08:53.
