data_PCOD9570222
_publ_section_title
;
Structure prediction by ZEFSAII (Michael W. Deem and Ramdas Pophale) SiO2 
 PCOD9570222
Probable space group: P 42/N M C
;
_chemical_formula_sum "Si O2"
_cell_formula_units_Z 42
_cell_length_a 7.998336
_cell_length_b 7.998336
_cell_length_c 32.215300
_cell_angle_alpha 90.000000
_cell_angle_beta 90.000000
_cell_angle_gamma 90.000000
_cell_volume 2060.921589
_symmetry_space_group_name_H-M "P 42/N M C"
_symmetry_group_IT_number 137
_space_group.IT_coordinate_system_code '2'
_symmetry_cell_setting 'tetragonal'
loop_
_space_group_symop_operation_xyz
x,y,z
1/2-y,x,1/2+z
1/2-x,1/2-y,z
y,1/2-x,1/2+z
1/2+x,-y,-z
-x,1/2+y,-z
1/2+y,1/2+x,1/2-z
-y,-x,1/2-z
-x,-y,-z
1/2+y,-x,1/2-z
1/2+x,1/2+y,-z
-y,1/2+x,1/2-z
1/2-x,y,z
x,1/2-y,z
1/2-y,1/2-x,1/2+z
y,x,1/2+z
loop_
_atom_site_type_symbol
_atom_site_label
_atom_site_fract_x
_atom_site_fract_y
_atom_site_fract_z
Si Si1 0.750000 0.250000 0.750000
Si Si2 0.063961 0.453119 0.866339
Si Si3 0.561010 0.750000 0.312233
Si Si4 0.049060 0.561323 0.454627
O O1 0.750000 0.416303 0.777912
O O2 0.250000 0.496469 0.851527
O O3 0.046162 0.250000 0.864082
O O4 0.914253 0.532174 0.840404
O O5 0.045016 0.503459 0.914719
O O6 0.750000 0.750000 0.295597
O O7 0.250000 0.563692 0.453699
O O8 0.986709 0.750000 0.448702
O O9 0.000000 0.500000 0.500000
#
# Coordination Sequence:
#
# PCOD9570222 Si02
#       4
#     2  16   8  16
#     4  12  28  52  76 104 148 172 228 292 352 420
#     4  10  20  40  69  96 133 183 228 278 343 408
#     4  12  26  46  76 106 134 180 224 278 352 420
#     4  10  20  34  55  85 128 177 227 277 329 391
#
# _framework density 20.379234
#
# number of rings (size 3 to 8) (size 9 to 14) (size 15 to 20)
#    0.000    1.524    3.810    1.143    0.000    6.095 
#    0.000    0.000    0.000    0.000    0.000    0.000 
#    0.000    0.000    0.000    0.000    0.000    0.000 
#
# Total GULP energy -234673.291472 kJ/mol
# GULP energy per Si atom -5587.459321 kJ/mol
# Density = 2.033285 g / cm^3
# Si number density = 20.379234 Si / 1000 Ang^3
#
#
#
# Elastic Constant Matrix: (Units=GPa)
#
#
# Indices 1 2 3 4 5 6 
#
# 1 116.4167 42.0081 48.4659 0.0000 0.0000 0.0000
# 2 42.0081 116.4167 48.4659 0.0000 0.0000 0.0000
# 3 48.4659 48.4659 105.6636 0.0000 0.0000 0.0000
# 4 0.0000 0.0000 0.0000 23.0027 0.0000 0.0000
# 5 0.0000 0.0000 0.0000 0.0000 23.0027 0.0000
# 6 0.0000 0.0000 0.0000 0.0000 0.0000 13.3575
#
#
#
# Elastic Compliance Matrix: (Units=1/GPa)
#
#
# Indices 1 2 3 4 5 6 
#
# 1 0.011107 -0.002332 -0.004025 0.000000 0.000000 0.000000
# 2 -0.002332 0.011107 -0.004025 0.000000 0.000000 0.000000
# 3 -0.004025 -0.004025 0.013156 0.000000 0.000000 0.000000
# 4 0.000000 0.000000 0.000000 0.043473 0.000000 0.000000
# 5 0.000000 0.000000 0.000000 0.000000 0.043473 0.000000
# 6 0.000000 0.000000 0.000000 0.000000 0.000000 0.074864
#
#
# Mechanical properties :
#
#
# Convention : Reuss Voigt Hill
#
# Bulk Modulus (GPa) = 68.46304 68.48635 68.47469
# Shear Modulus (GPa) = 22.44031 25.17639 23.80835
#
# Velocity S-wave (km/s) = 3.32194 3.51863 3.42170
# Velocity P-wave (km/s) = 6.95565 7.08425 7.02025
#
# Compressibility (1/GPa) = 0.01460642
#
# Stress axis : x y z
#
# Youngs Moduli (GPa) = 90.03325 90.03325 76.00985
#
# Poissons Ratio (x) = 0.20999 0.30592
# Poissons Ratio (y) = 0.20999 0.30592
# Poissons Ratio (z) = 0.36237 0.36237
#
# Static dielectric constant tensor:
#      x y z
#    x 1.713500 0.000000 0.000000 
#    y 0.000000 1.713500 0.000000 
#    z 0.000000 0.000000 1.705150 
# 
# From -- ./inp_files/9323.got.cif
#   From: 2010.05.17/outbox.cif.g08.bks.cpg/sg137_5_cif.got.tgz:9323.got - 2010.05.20 13:01:12.
