data_PCOD9570955
_publ_section_title
;
Structure prediction by ZEFSAII (Michael W. Deem and Ramdas Pophale) SiO2 
 PCOD9570955
Probable space group: P 42/N C M
;
_chemical_formula_sum "Si O2"
_cell_formula_units_Z 96
_cell_length_a 15.608753
_cell_length_b 15.608753
_cell_length_c 22.550822
_cell_angle_alpha 90.000000
_cell_angle_beta 90.000000
_cell_angle_gamma 90.000000
_cell_volume 5494.128255
_symmetry_space_group_name_H-M "P 42/N C M"
_symmetry_group_IT_number 138
_space_group.IT_coordinate_system_code '2'
_symmetry_cell_setting 'tetragonal'
loop_
_space_group_symop_operation_xyz
x,y,z
1/2-y,x,1/2+z
1/2-x,1/2-y,z
y,1/2-x,1/2+z
1/2+x,-y,1/2-z
-x,1/2+y,1/2-z
1/2+y,1/2+x,-z
-y,-x,-z
-x,-y,-z
1/2+y,-x,1/2-z
1/2+x,1/2+y,-z
-y,1/2+x,1/2-z
1/2-x,y,1/2+z
x,1/2-y,1/2+z
1/2-y,1/2-x,z
y,x,z
loop_
_atom_site_type_symbol
_atom_site_label
_atom_site_fract_x
_atom_site_fract_y
_atom_site_fract_z
Si Si1 0.608024 0.381487 0.613116
Si Si2 0.818699 0.681302 0.025074
Si Si3 0.011069 0.248877 0.931682
Si Si4 0.602689 0.285921 0.043239
Si Si5 0.444191 0.055810 0.047444
Si Si6 0.154742 0.858464 0.747169
Si Si7 0.939370 0.083095 0.866687
O O1 0.671768 0.458094 0.595600
O O2 0.637843 0.294590 0.580115
O O3 0.514568 0.397637 0.587099
O O4 0.606049 0.370699 0.683201
O O5 0.750000 0.750000 0.000083
O O6 0.877503 0.622498 0.981340
O O7 0.768769 0.610798 0.063673
O O8 0.989860 0.164148 0.894500
O O9 0.973422 0.238249 0.998215
O O10 0.572449 0.358068 0.089603
O O11 0.673449 0.326552 0.000000
O O12 0.500000 0.000000 0.000000
O O13 0.257273 0.866192 0.753488
O O14 0.108649 0.904526 0.801953
O O15 0.001080 0.001080 0.865698
#
# Coordination Sequence:
#
# PCOD9570955 Si02
#       7
#    16   8  16  16   8  16  16
#     4  12  21  39  62  91 126 155 208 263 315 371
#     4  12  24  40  62  94 128 168 208 254 320 388
#     4  11  22  39  62  91 123 162 201 258 314 379
#     4  10  22  35  60  90 121 156 193 250 317 368
#     4  12  22  40  64  96 128 160 209 266 313 378
#     4  11  23  40  62  87 116 159 207 259 309 362
#     4  11  24  41  57  87 127 165 204 245 311 382
#
# _framework density 17.473199999999999
#
# number of rings (size 3 to 8) (size 9 to 14) (size 15 to 20)
#    0.000    0.833    6.667    1.000    1.167    8.333 
#    0.000    0.000    0.000    0.000    0.000    0.000 
#    0.000    0.000    0.000    0.000    0.000    0.000 
#
# Total GULP energy -536310.295865 kJ/mol
# GULP energy per Si atom -5586.565582 kJ/mol
# Density = 1.743343 g / cm^3
# Si number density = 17.473200 Si / 1000 Ang^3
#
#
#
# Elastic Constant Matrix: (Units=GPa)
#
#
# Indices 1 2 3 4 5 6 
#
# 1 67.8283 28.4459 34.2438 0.0000 0.0000 0.0000
# 2 28.4459 67.8288 34.2437 0.0000 0.0000 0.0000
# 3 34.2438 34.2437 143.0520 0.0000 0.0000 0.0000
# 4 0.0000 0.0000 0.0000 21.9982 0.0000 0.0000
# 5 0.0000 0.0000 0.0000 0.0000 21.9983 0.0000
# 6 0.0000 0.0000 0.0000 0.0000 0.0000 37.9322
#
#
#
# Elastic Compliance Matrix: (Units=1/GPa)
#
#
# Indices 1 2 3 4 5 6 
#
# 1 0.018955 -0.006437 -0.002997 0.000000 0.000000 0.000000
# 2 -0.006437 0.018955 -0.002997 0.000000 0.000000 0.000000
# 3 -0.002997 -0.002997 0.008425 0.000000 0.000000 0.000000
# 4 0.000000 0.000000 0.000000 0.045458 0.000000 0.000000
# 5 0.000000 0.000000 0.000000 0.000000 0.045458 0.000000
# 6 0.000000 0.000000 0.000000 0.000000 0.000000 0.026363
#
#
# Mechanical properties :
#
#
# Convention : Reuss Voigt Hill
#
# Bulk Modulus (GPa) = 46.56409 52.50845 49.53627
# Shear Modulus (GPa) = 25.55796 28.50410 27.03103
#
# Velocity S-wave (km/s) = 3.82867 4.04332 3.93746
# Velocity P-wave (km/s) = 6.80086 7.20514 7.00591
#
# Compressibility (1/GPa) = 0.02147578
#
# Stress axis : x y z
#
# Youngs Moduli (GPa) = 52.75538 52.75579 118.69176
#
# Poissons Ratio (x) = 0.33957 0.35569
# Poissons Ratio (y) = 0.33956 0.35569
# Poissons Ratio (z) = 0.15810 0.15809
#
# Static dielectric constant tensor:
#      x y z
#    x 1.625210 0.000000 0.000000 
#    y 0.000000 1.625220 0.000000 
#    z 0.000000 0.000000 1.573370 
# 
# From -- ./inp_files/6284.got.cif
#   From: 2010.05.17/outbox.cif.g08.bks.cpg/sg138_4_cif.got.tgz:6284.got - 2010.05.20 13:08:53.
