data_PCOD9570577
_publ_section_title
;
Structure prediction by ZEFSAII (Michael W. Deem and Ramdas Pophale) SiO2 
 PCOD9570577
Probable space group: P 42/N C M
;
_chemical_formula_sum "Si O2"
_cell_formula_units_Z 80
_cell_length_a 29.388656
_cell_length_b 29.388656
_cell_length_c 5.526614
_cell_angle_alpha 90.000000
_cell_angle_beta 90.000000
_cell_angle_gamma 90.000000
_cell_volume 4773.298386
_symmetry_space_group_name_H-M "P 42/N C M"
_symmetry_group_IT_number 138
_space_group.IT_coordinate_system_code '2'
_symmetry_cell_setting 'tetragonal'
loop_
_space_group_symop_operation_xyz
x,y,z
1/2-y,x,1/2+z
1/2-x,1/2-y,z
y,1/2-x,1/2+z
1/2+x,-y,1/2-z
-x,1/2+y,1/2-z
1/2+y,1/2+x,-z
-y,-x,-z
-x,-y,-z
1/2+y,-x,1/2-z
1/2+x,1/2+y,-z
-y,1/2+x,1/2-z
1/2-x,y,1/2+z
x,1/2-y,1/2+z
1/2-y,1/2-x,z
y,x,z
loop_
_atom_site_type_symbol
_atom_site_label
_atom_site_fract_x
_atom_site_fract_y
_atom_site_fract_z
Si Si1 0.089059 0.410942 0.963265
Si Si2 0.221502 0.145210 0.493593
Si Si3 0.021437 0.592533 0.528439
Si Si4 0.038750 0.222477 0.498043
Si Si5 0.412333 0.087668 0.464116
Si Si6 0.511483 0.127906 0.970807
O O1 0.107516 0.392485 0.710266
O O2 0.097509 0.465081 0.961934
O O3 0.107147 0.392854 0.217149
O O4 0.249868 0.152257 0.744008
O O5 0.179806 0.179806 0.492360
O O6 0.207974 0.091810 0.493977
O O7 0.042352 0.542352 0.500000
O O8 0.035274 0.619345 0.285767
O O9 0.966581 0.594763 0.536278
O O10 0.036800 0.613036 0.785151
O O11 0.031507 0.249133 0.750570
O O12 0.006609 0.178854 0.492853
#
# Coordination Sequence:
#
# PCOD9570577 Si02
#       6
#     8  16  16  16   8  16
#     4   8  16  26  41  64  78 106 143 170 208 264
#     4  10  21  35  51  70  88 109 136 179 235 293
#     4  10  18  29  44  66  91 114 141 175 214 261
#     4  10  21  36  50  66  88 115 150 189 227 268
#     4   8  15  26  38  56  88 114 134 162 201 252
#     4  10  19  31  47  65  86 116 146 177 224 265
#
# _framework density 16.759898
#
# number of rings (size 3 to 8) (size 9 to 14) (size 15 to 20)
#    0.000    2.400    0.000    2.700    1.400    1.200 
#    0.000    6.000    0.000    0.000    0.000    0.000 
#    0.000    0.000    0.000    0.000    0.000    0.000 
#
# Total GULP energy -445720.787249 kJ/mol
# GULP energy per Si atom -5571.509841 kJ/mol
# Density = 1.672175 g / cm^3
# Si number density = 16.759898 Si / 1000 Ang^3
#
#
#
# Elastic Constant Matrix: (Units=GPa)
#
#
# Indices 1 2 3 4 5 6 
#
# 1 17.5900 13.0700 2.2868 0.0000 0.0000 0.0000
# 2 13.0700 17.5900 2.2868 0.0000 0.0000 0.0000
# 3 2.2868 2.2868 170.3274 0.0000 0.0000 0.0000
# 4 0.0000 0.0000 0.0000 15.1055 0.0000 0.0000
# 5 0.0000 0.0000 0.0000 0.0000 15.1055 0.0000
# 6 0.0000 0.0000 0.0000 0.0000 0.0000 12.5170
#
#
#
# Elastic Compliance Matrix: (Units=1/GPa)
#
#
# Indices 1 2 3 4 5 6 
#
# 1 0.126961 -0.094280 -0.000439 0.000000 0.000000 0.000000
# 2 -0.094280 0.126961 -0.000439 0.000000 0.000000 0.000000
# 3 -0.000439 -0.000439 0.005883 0.000000 0.000000 0.000000
# 4 0.000000 0.000000 0.000000 0.066201 0.000000 0.000000
# 5 0.000000 0.000000 0.000000 0.000000 0.066201 0.000000
# 6 0.000000 0.000000 0.000000 0.000000 0.000000 0.079891
#
#
# Mechanical properties :
#
#
# Convention : Reuss Voigt Hill
#
# Bulk Modulus (GPa) = 14.39050 26.75495 20.57273
# Shear Modulus (GPa) = 7.29314 21.06987 14.18150
#
# Velocity S-wave (km/s) = 2.08830 3.54949 2.91203
# Velocity P-wave (km/s) = 3.79731 5.72685 4.85883
#
# Compressibility (1/GPa) = 0.06949028
#
# Stress axis : x y z
#
# Youngs Moduli (GPa) = 7.87643 7.87643 169.98628
#
# Poissons Ratio (x) = 0.74259 0.07459
# Poissons Ratio (y) = 0.74259 0.07459
# Poissons Ratio (z) = 0.00346 0.00346
#
# Static dielectric constant tensor:
#      x y z
#    x 1.548060 0.000000 0.000000 
#    y 0.000000 1.548060 0.000000 
#    z 0.000000 0.000000 1.696670 
# 
# From -- ./inp_files/470.got.cif
#   From: 2010.05.17/outbox.cif.g08.bks.cpg/sg138_1_cif.got.tgz:470.got - 2010.05.20 13:08:53.
