data_PCOD9570828
_publ_section_title
;
Structure prediction by ZEFSAII (Michael W. Deem and Ramdas Pophale) SiO2 
 PCOD9570828
Probable space group: P 42/N C M
;
_chemical_formula_sum "Si O2"
_cell_formula_units_Z 112
_cell_length_a 16.696965
_cell_length_b 16.696965
_cell_length_c 23.267574
_cell_angle_alpha 90.000000
_cell_angle_beta 90.000000
_cell_angle_gamma 90.000000
_cell_volume 6486.735316
_symmetry_space_group_name_H-M "P 42/N C M"
_symmetry_group_IT_number 138
_space_group.IT_coordinate_system_code '2'
_symmetry_cell_setting 'tetragonal'
loop_
_space_group_symop_operation_xyz
x,y,z
1/2-y,x,1/2+z
1/2-x,1/2-y,z
y,1/2-x,1/2+z
1/2+x,-y,1/2-z
-x,1/2+y,1/2-z
1/2+y,1/2+x,-z
-y,-x,-z
-x,-y,-z
1/2+y,-x,1/2-z
1/2+x,1/2+y,-z
-y,1/2+x,1/2-z
1/2-x,y,1/2+z
x,1/2-y,1/2+z
1/2-y,1/2-x,z
y,x,z
loop_
_atom_site_type_symbol
_atom_site_label
_atom_site_fract_x
_atom_site_fract_y
_atom_site_fract_z
Si Si1 0.280339 0.540586 0.371327
Si Si2 0.499465 0.866367 0.012160
Si Si3 0.418481 0.944360 0.184173
Si Si4 0.817213 0.318367 0.566446
Si Si5 0.380944 0.251672 0.675197
Si Si6 0.965134 0.834203 0.218416
Si Si7 0.270071 0.976485 0.099009
O O1 0.328385 0.502634 0.424781
O O2 0.351462 0.563478 0.326903
O O3 0.227204 0.611386 0.399139
O O4 0.217970 0.488575 0.335695
O O5 0.574020 0.925981 0.005169
O O6 0.419889 0.919889 0.000000
O O7 0.498327 0.797129 0.964994
O O8 0.352337 0.965089 0.135448
O O9 0.495121 0.004880 0.178172
O O10 0.377188 0.963623 0.245460
O O11 0.750000 0.250000 0.563622
O O12 0.838682 0.338682 0.500000
O O13 0.896003 0.282234 0.596816
O O14 0.319131 0.180870 0.684582
O O15 0.329309 0.329309 0.654842
O O16 0.422306 0.278269 0.734208
O O17 0.449010 0.228771 0.630041
O O18 0.903431 0.903431 0.202180
#
# Coordination Sequence:
#
# PCOD9570828 Si02
#       7
#    16  16  16  16  16  16  16
#     4  12  22  36  59  87 116 153 195 236 296 355
#     4  11  20  32  56  90 117 142 191 251 297 342
#     4  10  20  37  59  85 113 144 191 250 299 341
#     4  11  21  36  54  81 122 157 181 222 286 362
#     4   9  19  38  64  88 112 151 201 251 298 342
#     4   9  22  41  59  81 117 156 192 242 294 349
#     4  11  19  35  58  85 119 153 191 234 292 356
#
# _framework density 17.266003000000001
#
# number of rings (size 3 to 8) (size 9 to 14) (size 15 to 20)
#    0.000    1.571    4.286    2.571    0.000    3.429 
#    0.000    2.857    0.000    1.714    0.000    0.000 
#    0.000    0.000    0.000    0.000    0.000    0.000 
#
# Total GULP energy -624618.672727 kJ/mol
# GULP energy per Si atom -5576.952435 kJ/mol
# Density = 1.722671 g / cm^3
# Si number density = 17.266003 Si / 1000 Ang^3
#
#
#
# Elastic Constant Matrix: (Units=GPa)
#
#
# Indices 1 2 3 4 5 6 
#
# 1 69.0665 29.0691 21.4625 0.0000 0.0000 0.0000
# 2 29.0691 69.0665 21.4625 0.0000 0.0000 0.0000
# 3 21.4625 21.4625 39.2336 0.0000 0.0000 0.0000
# 4 0.0000 0.0000 0.0000 51.3424 0.0000 0.0000
# 5 0.0000 0.0000 0.0000 0.0000 51.3424 0.0000
# 6 0.0000 0.0000 0.0000 0.0000 0.0000 25.5837
#
#
#
# Elastic Compliance Matrix: (Units=1/GPa)
#
#
# Indices 1 2 3 4 5 6 
#
# 1 0.019198 -0.005803 -0.007328 0.000000 0.000000 0.000000
# 2 -0.005803 0.019198 -0.007328 0.000000 0.000000 0.000000
# 3 -0.007328 -0.007328 0.033505 0.000000 0.000000 0.000000
# 4 0.000000 0.000000 0.000000 0.019477 0.000000 0.000000
# 5 0.000000 0.000000 0.000000 0.000000 0.019477 0.000000
# 6 0.000000 0.000000 0.000000 0.000000 0.000000 0.039087
#
#
# Mechanical properties :
#
#
# Convention : Reuss Voigt Hill
#
# Bulk Modulus (GPa) = 32.27378 35.70609 33.98993
# Shear Modulus (GPa) = 24.85218 32.67854 28.76536
#
# Velocity S-wave (km/s) = 3.79802 4.35518 4.08611
# Velocity P-wave (km/s) = 6.16165 6.78344 6.48001
#
# Compressibility (1/GPa) = 0.03098491
#
# Stress axis : x y z
#
# Youngs Moduli (GPa) = 52.08763 52.08763 29.84585
#
# Poissons Ratio (x) = 0.30228 0.21870
# Poissons Ratio (y) = 0.30228 0.21870
# Poissons Ratio (z) = 0.38168 0.38168
#
# Static dielectric constant tensor:
#      x y z
#    x 1.600260 0.000000 0.000000 
#    y 0.000000 1.600260 0.000000 
#    z 0.000000 0.000000 1.594100 
# 
# From -- ./inp_files/7075.got.cif
#   From: 2010.05.17/outbox.cif.g08.bks.cpg/sg138_4_cif.got.tgz:7075.got - 2010.05.20 13:08:53.
