data_PCOD9570375
_publ_section_title
;
Structure prediction by ZEFSAII (Michael W. Deem and Ramdas Pophale) SiO2 
 PCOD9570375
Probable space group: P 42/N M C
;
_chemical_formula_sum "Si O2"
_cell_formula_units_Z 64
_cell_length_a 24.234105
_cell_length_b 24.234105
_cell_length_c 4.835114
_cell_angle_alpha 90.000000
_cell_angle_beta 90.000000
_cell_angle_gamma 90.000000
_cell_volume 2839.623023
_symmetry_space_group_name_H-M "P 42/N M C"
_symmetry_group_IT_number 137
_space_group.IT_coordinate_system_code '2'
_symmetry_cell_setting 'tetragonal'
loop_
_space_group_symop_operation_xyz
x,y,z
1/2-y,x,1/2+z
1/2-x,1/2-y,z
y,1/2-x,1/2+z
1/2+x,-y,-z
-x,1/2+y,-z
1/2+y,1/2+x,1/2-z
-y,-x,1/2-z
-x,-y,-z
1/2+y,-x,1/2-z
1/2+x,1/2+y,-z
-y,1/2+x,1/2-z
1/2-x,y,z
x,1/2-y,z
1/2-y,1/2-x,1/2+z
y,x,1/2+z
loop_
_atom_site_type_symbol
_atom_site_label
_atom_site_fract_x
_atom_site_fract_y
_atom_site_fract_z
Si Si1 0.750000 0.340018 0.789248
Si Si2 0.594922 0.957587 0.755992
Si Si3 0.133922 0.313501 0.676053
Si Si4 0.925996 0.130928 0.504652
Si Si5 0.589126 0.250000 0.237059
O O1 0.802516 0.302516 0.750000
O O2 0.750000 0.394710 0.588459
O O3 0.750000 0.352464 0.113637
O O4 0.571894 0.950900 0.448554
O O5 0.650301 0.920940 0.784456
O O6 0.609474 0.017712 0.860427
O O7 0.125808 0.250000 0.745100
O O8 0.156643 0.321130 0.368523
O O9 0.905756 0.094245 0.250000
O O10 0.934680 0.192520 0.367667
O O11 0.881144 0.118857 0.750000
#
# Coordination Sequence:
#
# PCOD9570375 Si02
#       5
#     8  16  16  16   8
#     4  11  22  38  62  88 120 170 206 246 313 379
#     4  10  23  43  65  93 127 170 218 268 326 380
#     4  10  21  37  60  91 128 171 212 260 313 378
#     4  12  26  43  67  97 127 169 216 266 328 389
#     4  12  24  41  62  92 130 160 203 270 314 387
#
# _framework density 22.538202999999999
#
# number of rings (size 3 to 8) (size 9 to 14) (size 15 to 20)
#    0.000    1.125    0.000    6.750    1.750    5.500 
#    0.000    1.250    0.000    0.000    0.000    0.000 
#    0.000    0.000    0.000    0.000    0.000    0.000 
#
# Total GULP energy -357271.798445 kJ/mol
# GULP energy per Si atom -5582.371851 kJ/mol
# Density = 2.248691 g / cm^3
# Si number density = 22.538203 Si / 1000 Ang^3
#
#
#
# Elastic Constant Matrix: (Units=GPa)
#
#
# Indices 1 2 3 4 5 6 
#
# 1 81.8407 44.8805 0.0021 0.0000 0.0000 0.0000
# 2 44.8805 81.8405 0.0018 0.0000 0.0000 0.0000
# 3 0.0021 0.0018 71.9362 0.0000 0.0000 0.0000
# 4 0.0000 0.0000 0.0000 4.5323 0.0000 0.0000
# 5 0.0000 0.0000 0.0000 0.0000 4.5269 0.0000
# 6 0.0000 0.0000 0.0000 0.0000 0.0000 11.3061
#
#
#
# Elastic Compliance Matrix: (Units=1/GPa)
#
#
# Indices 1 2 3 4 5 6 
#
# 1 0.017474 -0.009582 0.000000 0.000000 0.000000 0.000000
# 2 -0.009582 0.017474 0.000000 0.000000 0.000000 0.000000
# 3 0.000000 0.000000 0.013901 0.000000 0.000000 0.000000
# 4 0.000000 0.000000 0.000000 0.220639 0.000000 0.000000
# 5 0.000000 0.000000 0.000000 0.000000 0.220903 0.000000
# 6 0.000000 0.000000 0.000000 0.000000 0.000000 0.088448
#
#
# Mechanical properties :
#
#
# Convention : Reuss Voigt Hill
#
# Bulk Modulus (GPa) = 33.68928 36.15404 34.92166
# Shear Modulus (GPa) = 8.22505 16.78858 12.50681
#
# Velocity S-wave (km/s) = 1.91241 2.73224 2.35822
# Velocity P-wave (km/s) = 4.45606 5.10191 4.78989
#
# Compressibility (1/GPa) = 0.02968303
#
# Stress axis : x y z
#
# Youngs Moduli (GPa) = 57.22868 57.22856 71.93619
#
# Poissons Ratio (x) = 0.54839 0.00002
# Poissons Ratio (y) = 0.54839 0.00001
# Poissons Ratio (z) = 0.00002 0.00001
#
# Static dielectric constant tensor:
#      x y z
#    x 1.859860 0.000000 0.000000 
#    y 0.000000 1.859860 0.000000 
#    z 0.000000 0.000000 1.797010 
# 
# From -- ./inp_files/479.got.cif
#   From: 2010.05.17/outbox.cif.g08.bks.cpg/sg137_1_cif.got.tgz:479.got - 2010.05.20 13:01:12.
