data_PCOD9570691
_publ_section_title
;
Structure prediction by ZEFSAII (Michael W. Deem and Ramdas Pophale) SiO2 
 PCOD9570691
Probable space group: P 42/N C M
;
_chemical_formula_sum "Si O2"
_cell_formula_units_Z 96
_cell_length_a 13.049742
_cell_length_b 13.049742
_cell_length_c 22.620223
_cell_angle_alpha 90.000000
_cell_angle_beta 90.000000
_cell_angle_gamma 90.000000
_cell_volume 3852.128209
_symmetry_space_group_name_H-M "P 42/N C M"
_symmetry_group_IT_number 138
_space_group.IT_coordinate_system_code '2'
_symmetry_cell_setting 'tetragonal'
loop_
_space_group_symop_operation_xyz
x,y,z
1/2-y,x,1/2+z
1/2-x,1/2-y,z
y,1/2-x,1/2+z
1/2+x,-y,1/2-z
-x,1/2+y,1/2-z
1/2+y,1/2+x,-z
-y,-x,-z
-x,-y,-z
1/2+y,-x,1/2-z
1/2+x,1/2+y,-z
-y,1/2+x,1/2-z
1/2-x,y,1/2+z
x,1/2-y,1/2+z
1/2-y,1/2-x,z
y,x,z
loop_
_atom_site_type_symbol
_atom_site_label
_atom_site_fract_x
_atom_site_fract_y
_atom_site_fract_z
Si Si1 0.254078 0.949953 0.263365
Si Si2 0.803938 0.979954 0.945974
Si Si3 0.384971 0.946369 0.365548
Si Si4 0.192201 0.016694 0.431566
Si Si5 0.331125 0.331125 0.622332
Si Si6 0.399733 0.931698 0.163280
Si Si7 0.826950 0.826950 0.237603
O O1 0.321287 0.889736 0.312714
O O2 0.290253 0.931844 0.196409
O O3 0.138814 0.954474 0.285858
O O4 0.298359 0.060473 0.276456
O O5 0.891497 0.891497 0.958687
O O6 0.717344 0.935868 0.901313
O O7 0.866454 0.070990 0.914275
O O8 0.735337 0.005003 0.003102
O O9 0.484685 0.015316 0.347860
O O10 0.299282 0.018488 0.396130
O O11 0.117681 0.117681 0.431247
O O12 0.126026 0.928130 0.397746
O O13 0.250000 0.250000 0.595147
O O14 0.320018 0.320018 0.691761
O O15 0.460283 0.039718 0.162237
O O16 0.750000 0.750000 0.207681
#
# Coordination Sequence:
#
# PCOD9570691 Si02
#       7
#    16  16  16  16   8  16   8
#     4  11  22  40  63  92 136 178 227 282 351 417
#     4  10  19  34  57  85 130 173 230 288 352 417
#     4  10  20  33  52  88 124 173 223 282 354 421
#     4  10  20  34  55  84 123 172 222 283 348 413
#     4   9  20  34  55  93 123 172 220 281 344 408
#     4  10  22  40  62  92 130 179 224 285 346 421
#     4  11  22  38  63  99 136 177 228 291 363 412
#
# _framework density 24.921289999999999
#
# number of rings (size 3 to 8) (size 9 to 14) (size 15 to 20)
#    0.000    1.833    2.500    1.500    2.333    3.333 
#    0.000    0.000    0.000    2.000    0.000    0.000 
#    0.000    0.000    0.000    0.000    0.000    0.000 
#
# Total GULP energy -535009.388957 kJ/mol
# GULP energy per Si atom -5573.014468 kJ/mol
# Density = 2.486457 g / cm^3
# Si number density = 24.921290 Si / 1000 Ang^3
#
#
#
# Elastic Constant Matrix: (Units=GPa)
#
#
# Indices 1 2 3 4 5 6 
#
# 1 94.0847 22.5758 25.0540 0.0000 0.0000 0.0000
# 2 22.5758 94.0847 25.0540 0.0000 0.0000 0.0000
# 3 25.0540 25.0540 160.1728 0.0000 0.0000 0.0000
# 4 0.0000 0.0000 0.0000 39.0769 0.0000 0.0000
# 5 0.0000 0.0000 0.0000 0.0000 39.0769 0.0000
# 6 0.0000 0.0000 0.0000 0.0000 0.0000 37.0555
#
#
#
# Elastic Compliance Matrix: (Units=1/GPa)
#
#
# Indices 1 2 3 4 5 6 
#
# 1 0.011587 -0.002398 -0.001437 0.000000 0.000000 0.000000
# 2 -0.002398 0.011587 -0.001437 0.000000 0.000000 0.000000
# 3 -0.001437 -0.001437 0.006693 0.000000 0.000000 0.000000
# 4 0.000000 0.000000 0.000000 0.025591 0.000000 0.000000
# 5 0.000000 0.000000 0.000000 0.000000 0.025591 0.000000
# 6 0.000000 0.000000 0.000000 0.000000 0.000000 0.026987
#
#
# Mechanical properties :
#
#
# Convention : Reuss Voigt Hill
#
# Bulk Modulus (GPa) = 51.75459 54.85666 53.30562
# Shear Modulus (GPa) = 39.99381 41.41906 40.70643
#
# Velocity S-wave (km/s) = 4.01035 4.08118 4.04592
# Velocity P-wave (km/s) = 6.50047 6.65340 6.57738
#
# Compressibility (1/GPa) = 0.01932196
#
# Stress axis : x y z
#
# Youngs Moduli (GPa) = 86.30532 86.30532 149.41158
#
# Poissons Ratio (x) = 0.20692 0.21476
# Poissons Ratio (y) = 0.20692 0.21476
# Poissons Ratio (z) = 0.12405 0.12405
#
# Static dielectric constant tensor:
#      x y z
#    x 2.045280 0.000000 0.000000 
#    y 0.000000 2.045280 0.000000 
#    z 0.000000 0.000000 2.057950 
# 
# From -- ./inp_files/6283.got.cif
#   From: 2010.05.17/outbox.cif.g08.bks.cpg/sg138_4_cif.got.tgz:6283.got - 2010.05.20 13:08:53.
