data_PCOD9570057
_publ_section_title
;
Structure prediction by ZEFSAII (Michael W. Deem and Ramdas Pophale) SiO2 
 PCOD9570057
Probable space group: P 42/N M C
;
_chemical_formula_sum "Si O2"
_cell_formula_units_Z 84
_cell_length_a 21.780965
_cell_length_b 21.780965
_cell_length_c 7.778765
_cell_angle_alpha 90.000000
_cell_angle_beta 90.000000
_cell_angle_gamma 90.000000
_cell_volume 3690.327298
_symmetry_space_group_name_H-M "P 42/N M C"
_symmetry_group_IT_number 137
_space_group.IT_coordinate_system_code '2'
_symmetry_cell_setting 'tetragonal'
loop_
_space_group_symop_operation_xyz
x,y,z
1/2-y,x,1/2+z
1/2-x,1/2-y,z
y,1/2-x,1/2+z
1/2+x,-y,-z
-x,1/2+y,-z
1/2+y,1/2+x,1/2-z
-y,-x,1/2-z
-x,-y,-z
1/2+y,-x,1/2-z
1/2+x,1/2+y,-z
-y,1/2+x,1/2-z
1/2-x,y,z
x,1/2-y,z
1/2-y,1/2-x,1/2+z
y,x,1/2+z
loop_
_atom_site_type_symbol
_atom_site_label
_atom_site_fract_x
_atom_site_fract_y
_atom_site_fract_z
Si Si1 0.882671 0.515826 0.332210
Si Si2 0.750000 0.985148 0.325035
Si Si3 0.750000 0.250000 0.503199
Si Si4 0.980074 0.881728 0.420858
Si Si5 0.250000 0.884956 0.017024
Si Si6 0.886452 0.386429 0.522420
Si Si7 0.116002 0.750000 0.996520
Si Si8 0.250000 0.020673 0.088733
O O1 0.815228 0.538764 0.393613
O O2 0.879875 0.514555 0.126923
O O3 0.937560 0.561399 0.376976
O O4 0.891635 0.448284 0.410243
O O5 0.750000 0.975813 0.119765
O O6 0.750000 0.057542 0.371095
O O7 0.683671 0.250000 0.596785
O O8 0.750000 0.183837 0.409991
O O9 0.954656 0.816118 0.354114
O O10 0.050944 0.886484 0.366748
O O11 0.181720 0.888781 0.932159
O O12 0.250000 0.947766 0.125595
O O13 0.816130 0.387266 0.590452
#
# Coordination Sequence:
#
# PCOD9570057 Si02
#       8
#    16   8   4  16   8  16   8   8
#     4  10  19  32  50  73  98 126 158 196 238 284
#     4   8  16  30  46  64  93 127 155 185 234 289
#     4   8  12  20  33  56  88 120 161 202 229 256
#     4  10  19  32  50  73  98 126 158 196 238 284
#     4   8  14  24  39  61  92 130 164 196 231 271
#     4   9  16  27  44  68  99 132 166 199 235 275
#     4   8  14  24  39  61  92 130 164 196 231 271
#     4   8  16  30  46  64  93 127 155 185 234 289
#
# _framework density 22.76221
#
# number of rings (size 3 to 8) (size 9 to 14) (size 15 to 20)
#    0.000    3.048    0.000    1.143    0.000    1.524 
#    0.000    4.286    0.000    0.571    0.000    8.000 
#    0.000    0.000    0.000   65.333    0.000   21.714 
#
# Total GULP energy -467921.810621 kJ/mol
# GULP energy per Si atom -5570.497745 kJ/mol
# Density = 2.271040 g / cm^3
# Si number density = 22.762210 Si / 1000 Ang^3
#
#
#
# Elastic Constant Matrix: (Units=GPa)
#
#
# Indices 1 2 3 4 5 6 
#
# 1 157.7833 103.2830 18.2870 0.0000 0.0000 0.0000
# 2 103.2830 157.7833 18.2870 0.0000 0.0000 0.0000
# 3 18.2870 18.2870 28.3425 0.0000 0.0000 0.0000
# 4 0.0000 0.0000 0.0000 24.8905 0.0000 0.0000
# 5 0.0000 0.0000 0.0000 0.0000 24.8905 0.0000
# 6 0.0000 0.0000 0.0000 0.0000 0.0000 46.4227
#
#
#
# Elastic Compliance Matrix: (Units=1/GPa)
#
#
# Indices 1 2 3 4 5 6 
#
# 1 0.011280 -0.007069 -0.002717 0.000000 0.000000 0.000000
# 2 -0.007069 0.011280 -0.002717 0.000000 0.000000 0.000000
# 3 -0.002717 -0.002717 0.038789 0.000000 0.000000 0.000000
# 4 0.000000 0.000000 0.000000 0.040176 0.000000 0.000000
# 5 0.000000 0.000000 0.000000 0.000000 0.040176 0.000000
# 6 0.000000 0.000000 0.000000 0.000000 0.000000 0.021541
#
#
# Mechanical properties :
#
#
# Convention : Reuss Voigt Hill
#
# Bulk Modulus (GPa) = 27.51576 69.29145 48.40361
# Shear Modulus (GPa) = 24.95488 32.84420 28.89954
#
# Velocity S-wave (km/s) = 3.31468 3.80271 3.56705
# Velocity P-wave (km/s) = 5.17340 7.05608 6.18678
#
# Compressibility (1/GPa) = 0.03634281
#
# Stress axis : x y z
#
# Youngs Moduli (GPa) = 88.65401 88.65401 25.78059
#
# Poissons Ratio (x) = 0.62667 0.07005
# Poissons Ratio (y) = 0.62667 0.07005
# Poissons Ratio (z) = 0.24088 0.24088
#
# Static dielectric constant tensor:
#      x y z
#    x 1.859510 0.000000 0.000000 
#    y 0.000000 1.859510 0.000000 
#    z 0.000000 0.000000 2.007040 
# 
# From -- ./inp_files/3714.got.cif
#   From: 2010.05.17/outbox.cif.g08.bks.cpg/sg137_2_cif.got.tgz:3714.got - 2010.05.20 13:01:12.
