data_PCOD9570923
_publ_section_title
;
Structure prediction by ZEFSAII (Michael W. Deem and Ramdas Pophale) SiO2 
 PCOD9570923
Probable space group: P 42/N C M
;
_chemical_formula_sum "Si O2"
_cell_formula_units_Z 80
_cell_length_a 12.347108
_cell_length_b 12.347108
_cell_length_c 28.202993
_cell_angle_alpha 90.000000
_cell_angle_beta 90.000000
_cell_angle_gamma 90.000000
_cell_volume 4299.576628
_symmetry_space_group_name_H-M "P 42/N C M"
_symmetry_group_IT_number 138
_space_group.IT_coordinate_system_code '2'
_symmetry_cell_setting 'tetragonal'
loop_
_space_group_symop_operation_xyz
x,y,z
1/2-y,x,1/2+z
1/2-x,1/2-y,z
y,1/2-x,1/2+z
1/2+x,-y,1/2-z
-x,1/2+y,1/2-z
1/2+y,1/2+x,-z
-y,-x,-z
-x,-y,-z
1/2+y,-x,1/2-z
1/2+x,1/2+y,-z
-y,1/2+x,1/2-z
1/2-x,y,1/2+z
x,1/2-y,1/2+z
1/2-y,1/2-x,z
y,x,z
loop_
_atom_site_type_symbol
_atom_site_label
_atom_site_fract_x
_atom_site_fract_y
_atom_site_fract_z
Si Si1 0.271425 0.550245 0.695222
Si Si2 0.524922 0.343398 0.357278
Si Si3 0.354385 0.674105 0.444973
Si Si4 0.927454 0.747117 0.399858
Si Si5 0.965885 0.142396 0.797975
O O1 0.374359 0.616522 0.675327
O O2 0.250832 0.459045 0.655681
O O3 0.162477 0.620781 0.698434
O O4 0.302279 0.510210 0.747329
O O5 0.427210 0.427210 0.351733
O O6 0.571103 0.345671 0.410423
O O7 0.498195 0.224122 0.339060
O O8 0.250000 0.750000 0.436739
O O9 0.356830 0.643171 0.500000
O O10 0.462248 0.737433 0.428857
O O11 0.861438 0.638563 0.410571
O O12 0.848236 0.848236 0.409569
O O13 0.030366 0.030366 0.800803
#
# Coordination Sequence:
#
# PCOD9570923 Si02
#       5
#    16  16  16  16  16
#     4  11  21  37  58  82 115 159 206 245 285 346
#     4  11  23  39  60  87 120 158 198 244 298 354
#     4  10  21  40  65  91 118 155 202 247 296 357
#     4  10  21  38  61  88 118 153 199 254 301 347
#     4  12  24  37  58  86 119 160 199 242 297 355
#
# _framework density 18.606483000000001
#
# number of rings (size 3 to 8) (size 9 to 14) (size 15 to 20)
#    0.000    1.200    2.000    7.200    0.000    2.800 
#    0.000    3.000    0.000    0.000    0.000    0.000 
#    0.000    0.000    0.000    0.000    0.000    0.000 
#
# Total GULP energy -447053.260873 kJ/mol
# GULP energy per Si atom -5588.165761 kJ/mol
# Density = 1.856413 g / cm^3
# Si number density = 18.606483 Si / 1000 Ang^3
#
#
#
# Elastic Constant Matrix: (Units=GPa)
#
#
# Indices 1 2 3 4 5 6 
#
# 1 70.6607 15.8619 16.5673 0.0000 0.0000 0.0000
# 2 15.8619 70.6609 16.5670 0.0000 0.0000 0.0000
# 3 16.5673 16.5670 67.2988 0.0000 0.0000 0.0000
# 4 0.0000 0.0000 0.0000 13.8232 0.0000 0.0000
# 5 0.0000 0.0000 0.0000 0.0000 13.8233 0.0000
# 6 0.0000 0.0000 0.0000 0.0000 0.0000 22.7689
#
#
#
# Elastic Compliance Matrix: (Units=1/GPa)
#
#
# Indices 1 2 3 4 5 6 
#
# 1 0.015505 -0.002744 -0.003141 0.000000 0.000000 0.000000
# 2 -0.002744 0.015505 -0.003141 0.000000 0.000000 0.000000
# 3 -0.003141 -0.003141 0.016406 0.000000 0.000000 0.000000
# 4 0.000000 0.000000 0.000000 0.072342 0.000000 0.000000
# 5 0.000000 0.000000 0.000000 0.000000 0.072342 0.000000
# 6 0.000000 0.000000 0.000000 0.000000 0.000000 0.043920
#
#
# Mechanical properties :
#
#
# Convention : Reuss Voigt Hill
#
# Bulk Modulus (GPa) = 34.05796 34.06809 34.06303
# Shear Modulus (GPa) = 18.94949 20.72466 19.83707
#
# Velocity S-wave (km/s) = 3.19475 3.34105 3.26872
# Velocity P-wave (km/s) = 5.65267 5.76481 5.70901
#
# Compressibility (1/GPa) = 0.02936171
#
# Stress axis : x y z
#
# Youngs Moduli (GPa) = 64.49679 64.49713 60.95430
#
# Poissons Ratio (x) = 0.17698 0.19148
# Poissons Ratio (y) = 0.17698 0.19147
# Poissons Ratio (z) = 0.20261 0.20260
#
# Static dielectric constant tensor:
#      x y z
#    x 1.642030 0.000000 0.000000 
#    y 0.000000 1.642030 0.000000 
#    z 0.000000 0.000000 1.633080 
# 
# From -- ./inp_files/7850.got.cif
#   From: 2010.05.17/outbox.cif.g08.bks.cpg/sg138_4_cif.got.tgz:7850.got - 2010.05.20 13:08:53.
