data_PCOD9570088
_publ_section_title
;
Structure prediction by ZEFSAII (Michael W. Deem and Ramdas Pophale) SiO2 
 PCOD9570088
Probable space group: P 42/N M C
;
_chemical_formula_sum "Si O2"
_cell_formula_units_Z 56
_cell_length_a 13.737337
_cell_length_b 13.737337
_cell_length_c 17.032696
_cell_angle_alpha 90.000000
_cell_angle_beta 90.000000
_cell_angle_gamma 90.000000
_cell_volume 3214.315480
_symmetry_space_group_name_H-M "P 42/N M C"
_symmetry_group_IT_number 137
_space_group.IT_coordinate_system_code '2'
_symmetry_cell_setting 'tetragonal'
loop_
_space_group_symop_operation_xyz
x,y,z
1/2-y,x,1/2+z
1/2-x,1/2-y,z
y,1/2-x,1/2+z
1/2+x,-y,-z
-x,1/2+y,-z
1/2+y,1/2+x,1/2-z
-y,-x,1/2-z
-x,-y,-z
1/2+y,-x,1/2-z
1/2+x,1/2+y,-z
-y,1/2+x,1/2-z
1/2-x,y,z
x,1/2-y,z
1/2-y,1/2-x,1/2+z
y,x,1/2+z
loop_
_atom_site_type_symbol
_atom_site_label
_atom_site_fract_x
_atom_site_fract_y
_atom_site_fract_z
Si Si1 0.036901 0.863639 0.823788
Si Si2 0.643133 0.143133 0.750000
Si Si3 0.141209 0.865835 0.511799
Si Si4 0.137519 0.015150 0.113618
O O1 0.072565 0.927436 0.750000
O O2 0.032938 0.750000 0.801249
O O3 0.110967 0.873855 0.896811
O O4 0.934747 0.899878 0.860244
O O5 0.637222 0.250000 0.788583
O O6 0.560525 0.137251 0.685727
O O7 0.250000 0.904709 0.491033
O O8 0.144143 0.750000 0.499200
O O9 0.050409 0.899790 0.459272
O O10 0.250000 0.046011 0.099843
#
# Coordination Sequence:
#
# PCOD9570088 Si02
#       4
#    16   8  16  16
#     4  11  22  36  53  75 105 142 182 218 256 304
#     4   9  16  28  50  78 103 128 162 208 259 308
#     4   9  18  33  55  81 104 130 170 219 263 305
#     4  10  19  33  53  77 106 135 168 214 266 316
#
# _framework density 17.422062
#
# number of rings (size 3 to 8) (size 9 to 14) (size 15 to 20)
#    0.000    2.143    1.429    2.571    0.000    5.429 
#    0.000    0.000    0.000    0.000    0.000    4.000 
#    0.000    0.000    0.000    0.000    0.000    0.000 
#
# Total GULP energy -311950.818415 kJ/mol
# GULP energy per Si atom -5570.550329 kJ/mol
# Density = 1.738241 g / cm^3
# Si number density = 17.422062 Si / 1000 Ang^3
#
#
#
# Elastic Constant Matrix: (Units=GPa)
#
#
# Indices 1 2 3 4 5 6 
#
# 1 55.5631 32.0202 22.5577 0.0000 0.0000 0.0000
# 2 32.0202 55.5620 22.5579 0.0000 0.0000 0.0000
# 3 22.5577 22.5579 69.0217 0.0000 0.0000 0.0000
# 4 0.0000 0.0000 0.0000 25.4579 0.0000 0.0000
# 5 0.0000 0.0000 0.0000 0.0000 25.4583 0.0000
# 6 0.0000 0.0000 0.0000 0.0000 0.0000 24.4350
#
#
#
# Elastic Compliance Matrix: (Units=1/GPa)
#
#
# Indices 1 2 3 4 5 6 
#
# 1 0.028103 -0.014374 -0.004487 0.000000 0.000000 0.000000
# 2 -0.014374 0.028103 -0.004487 0.000000 0.000000 0.000000
# 3 -0.004487 -0.004487 0.017421 0.000000 0.000000 0.000000
# 4 0.000000 0.000000 0.000000 0.039281 0.000000 0.000000
# 5 0.000000 0.000000 0.000000 0.000000 0.039280 0.000000
# 6 0.000000 0.000000 0.000000 0.000000 0.000000 0.040925
#
#
# Mechanical properties :
#
#
# Convention : Reuss Voigt Hill
#
# Bulk Modulus (GPa) = 37.13138 37.15760 37.14449
# Shear Modulus (GPa) = 20.09770 21.93764 21.01767
#
# Velocity S-wave (km/s) = 3.40012 3.55235 3.47707
# Velocity P-wave (km/s) = 6.06412 6.18060 6.12264
#
# Compressibility (1/GPa) = 0.02693140
#
# Stress axis : x y z
#
# Youngs Moduli (GPa) = 35.58399 35.58311 57.40171
#
# Poissons Ratio (x) = 0.51146 0.25755
# Poissons Ratio (y) = 0.51148 0.25757
# Poissons Ratio (z) = 0.15966 0.15967
#
# Static dielectric constant tensor:
#      x y z
#    x 1.606550 0.000000 0.000000 
#    y 0.000000 1.606560 0.000000 
#    z 0.000000 0.000000 1.582930 
# 
# From -- ./inp_files/4588.got.cif
#   From: 2010.05.17/outbox.cif.g08.bks.cpg/sg137_3_cif.got.tgz:4588.got - 2010.05.20 13:01:12.
