data_PCOD9570749
_publ_section_title
;
Structure prediction by ZEFSAII (Michael W. Deem and Ramdas Pophale) SiO2 
 PCOD9570749
Probable space group: P 42/N C M
;
_chemical_formula_sum "Si O2"
_cell_formula_units_Z 80
_cell_length_a 13.911153
_cell_length_b 13.911153
_cell_length_c 23.240814
_cell_angle_alpha 90.000000
_cell_angle_beta 90.000000
_cell_angle_gamma 90.000000
_cell_volume 4497.566457
_symmetry_space_group_name_H-M "P 42/N C M"
_symmetry_group_IT_number 138
_space_group.IT_coordinate_system_code '2'
_symmetry_cell_setting 'tetragonal'
loop_
_space_group_symop_operation_xyz
x,y,z
1/2-y,x,1/2+z
1/2-x,1/2-y,z
y,1/2-x,1/2+z
1/2+x,-y,1/2-z
-x,1/2+y,1/2-z
1/2+y,1/2+x,-z
-y,-x,-z
-x,-y,-z
1/2+y,-x,1/2-z
1/2+x,1/2+y,-z
-y,1/2+x,1/2-z
1/2-x,y,1/2+z
x,1/2-y,1/2+z
1/2-y,1/2-x,z
y,x,z
loop_
_atom_site_type_symbol
_atom_site_label
_atom_site_fract_x
_atom_site_fract_y
_atom_site_fract_z
Si Si1 0.636402 0.248182 0.392229
Si Si2 0.246249 0.093264 0.595100
Si Si3 0.155615 0.001921 0.482030
Si Si4 0.962225 0.385957 0.662085
Si Si5 0.336285 0.875325 0.771324
O O1 0.750000 0.250000 0.409841
O O2 0.557833 0.275668 0.439668
O O3 0.618827 0.142307 0.366576
O O4 0.619877 0.322978 0.339401
O O5 0.328572 0.171429 0.580196
O O6 0.154509 0.154509 0.616488
O O7 0.212884 0.036860 0.538362
O O8 0.293350 0.022377 0.641247
O O9 0.075108 0.924893 0.500000
O O10 0.095409 0.095409 0.459393
O O11 0.950554 0.390022 0.731140
O O12 0.021875 0.478126 0.642003
O O13 0.376395 0.770820 0.755607
#
# Coordination Sequence:
#
# PCOD9570749 Si02
#       5
#    16  16  16  16  16
#     4  11  20  35  57  76 110 146 174 215 280 319
#     4   9  19  37  56  74 107 149 177 213 272 321
#     4  10  22  36  52  80 110 139 184 223 257 318
#     4  10  20  33  54  84 105 130 185 230 255 315
#     4   9  16  33  53  71 100 141 168 200 265 323
#
# _framework density 17.787398
#
# number of rings (size 3 to 8) (size 9 to 14) (size 15 to 20)
#    0.000    2.200    4.000    1.200    0.000    4.400 
#    0.000    6.000    0.000    0.000    0.000    5.600 
#    0.000    0.000    0.000    0.000    0.000    0.000 
#
# Total GULP energy -445482.272802 kJ/mol
# GULP energy per Si atom -5568.528410 kJ/mol
# Density = 1.774691 g / cm^3
# Si number density = 17.787398 Si / 1000 Ang^3
#
#
#
# Elastic Constant Matrix: (Units=GPa)
#
#
# Indices 1 2 3 4 5 6 
#
# 1 68.9470 23.3930 13.6647 0.0000 0.0000 0.0000
# 2 23.3930 68.9463 13.6640 0.0000 0.0000 0.0000
# 3 13.6647 13.6640 20.9937 0.0000 0.0000 0.0000
# 4 0.0000 0.0000 0.0000 25.7574 0.0000 0.0000
# 5 0.0000 0.0000 0.0000 0.0000 25.7574 0.0000
# 6 0.0000 0.0000 0.0000 0.0000 0.0000 40.2179
#
#
#
# Elastic Compliance Matrix: (Units=1/GPa)
#
#
# Indices 1 2 3 4 5 6 
#
# 1 0.017683 -0.004269 -0.008731 0.000000 0.000000 0.000000
# 2 -0.004269 0.017683 -0.008730 0.000000 0.000000 0.000000
# 3 -0.008731 -0.008730 0.058998 0.000000 0.000000 0.000000
# 4 0.000000 0.000000 0.000000 0.038824 0.000000 0.000000
# 5 0.000000 0.000000 0.000000 0.000000 0.038824 0.000000
# 6 0.000000 0.000000 0.000000 0.000000 0.000000 0.024865
#
#
# Mechanical properties :
#
#
# Convention : Reuss Voigt Hill
#
# Bulk Modulus (GPa) = 19.64518 28.92561 24.28540
# Shear Modulus (GPa) = 19.43222 25.55755 22.49489
#
# Velocity S-wave (km/s) = 3.30884 3.79467 3.56005
# Velocity P-wave (km/s) = 5.06619 5.95790 5.53005
#
# Compressibility (1/GPa) = 0.05090306
#
# Stress axis : x y z
#
# Youngs Moduli (GPa) = 56.55208 56.55218 16.94965
#
# Poissons Ratio (x) = 0.24144 0.14799
# Poissons Ratio (y) = 0.24144 0.14797
# Poissons Ratio (z) = 0.49375 0.49371
#
# Static dielectric constant tensor:
#      x y z
#    x 1.623880 0.000000 0.000000 
#    y 0.000000 1.623880 0.000000 
#    z 0.000000 0.000000 1.558030 
# 
# From -- ./inp_files/6004.got.cif
#   From: 2010.05.17/outbox.cif.g08.bks.cpg/sg138_4_cif.got.tgz:6004.got - 2010.05.20 13:08:53.
