data_PCOD9570377
_publ_section_title
;
Structure prediction by ZEFSAII (Michael W. Deem and Ramdas Pophale) SiO2 
 PCOD9570377
Probable space group: P 42/N M C
;
_chemical_formula_sum "Si O2"
_cell_formula_units_Z 72
_cell_length_a 19.590745
_cell_length_b 19.590745
_cell_length_c 9.909273
_cell_angle_alpha 90.000000
_cell_angle_beta 90.000000
_cell_angle_gamma 90.000000
_cell_volume 3803.152120
_symmetry_space_group_name_H-M "P 42/N M C"
_symmetry_group_IT_number 137
_space_group.IT_coordinate_system_code '2'
_symmetry_cell_setting 'tetragonal'
loop_
_space_group_symop_operation_xyz
x,y,z
1/2-y,x,1/2+z
1/2-x,1/2-y,z
y,1/2-x,1/2+z
1/2+x,-y,-z
-x,1/2+y,-z
1/2+y,1/2+x,1/2-z
-y,-x,1/2-z
-x,-y,-z
1/2+y,-x,1/2-z
1/2+x,1/2+y,-z
-y,1/2+x,1/2-z
1/2-x,y,z
x,1/2-y,z
1/2-y,1/2-x,1/2+z
y,x,1/2+z
loop_
_atom_site_type_symbol
_atom_site_label
_atom_site_fract_x
_atom_site_fract_y
_atom_site_fract_z
Si Si1 0.537688 0.051901 0.901784
Si Si2 0.830604 0.592340 0.225940
Si Si3 0.172932 0.827069 0.750000
Si Si4 0.827673 0.454775 0.054169
Si Si5 0.436372 0.169047 0.960473
O O1 0.528018 0.028018 0.750000
O O2 0.503704 0.125327 0.927442
O O3 0.617077 0.048105 0.937522
O O4 0.500000 0.000000 0.000000
O O5 0.750000 0.609704 0.213883
O O6 0.840600 0.518729 0.154035
O O7 0.846990 0.586440 0.385003
O O8 0.878588 0.644158 0.144586
O O9 0.250000 0.833518 0.693645
O O10 0.114409 0.834706 0.639752
O O11 0.750000 0.460950 0.005169
O O12 0.447372 0.250000 0.952137
#
# Coordination Sequence:
#
# PCOD9570377 Si02
#       5
#    16  16   8  16  16
#     4  12  25  40  62  89 122 162 203 251 309 361
#     4  10  22  40  62  91 123 160 200 246 303 361
#     4   9  18  34  60  92 122 158 200 244 293 348
#     4  10  21  37  61  88 122 159 200 247 298 362
#     4  11  24  41  63  93 123 160 207 253 301 363
#
# _framework density 18.931664999999999
#
# number of rings (size 3 to 8) (size 9 to 14) (size 15 to 20)
#    0.000    1.444    2.222    2.667    1.556    4.889 
#    0.000    2.222    0.000    0.000    0.000    1.556 
#    0.000    0.000    0.000    0.000    0.000    0.000 
#
# Total GULP energy -402352.532994 kJ/mol
# GULP energy per Si atom -5588.229625 kJ/mol
# Density = 1.888858 g / cm^3
# Si number density = 18.931665 Si / 1000 Ang^3
#
#
#
# Elastic Constant Matrix: (Units=GPa)
#
#
# Indices 1 2 3 4 5 6 
#
# 1 90.3791 46.2578 56.3201 0.0000 0.0000 0.0000
# 2 46.2578 90.3777 56.3207 0.0000 0.0000 0.0000
# 3 56.3201 56.3207 132.6561 0.0000 0.0000 0.0000
# 4 0.0000 0.0000 0.0000 25.0117 0.0000 0.0000
# 5 0.0000 0.0000 0.0000 0.0000 25.0116 0.0000
# 6 0.0000 0.0000 0.0000 0.0000 0.0000 31.1424
#
#
#
# Elastic Compliance Matrix: (Units=1/GPa)
#
#
# Indices 1 2 3 4 5 6 
#
# 1 0.016962 -0.005703 -0.004780 0.000000 0.000000 0.000000
# 2 -0.005703 0.016963 -0.004781 0.000000 0.000000 0.000000
# 3 -0.004780 -0.004781 0.011597 0.000000 0.000000 0.000000
# 4 0.000000 0.000000 0.000000 0.039981 0.000000 0.000000
# 5 0.000000 0.000000 0.000000 0.000000 0.039981 0.000000
# 6 0.000000 0.000000 0.000000 0.000000 0.000000 0.032111
#
#
# Mechanical properties :
#
#
# Convention : Reuss Voigt Hill
#
# Bulk Modulus (GPa) = 66.68852 70.13445 68.41149
# Shear Modulus (GPa) = 25.89053 26.53408 26.21231
#
# Velocity S-wave (km/s) = 3.70209 3.74782 3.72502
# Velocity P-wave (km/s) = 7.31959 7.47360 7.39700
#
# Compressibility (1/GPa) = 0.01499508
#
# Stress axis : x y z
#
# Youngs Moduli (GPa) = 58.95498 58.95322 86.22643
#
# Poissons Ratio (x) = 0.33620 0.41218
# Poissons Ratio (y) = 0.33621 0.41221
# Poissons Ratio (z) = 0.28182 0.28183
#
# Static dielectric constant tensor:
#      x y z
#    x 1.661030 0.000000 0.000000 
#    y 0.000000 1.661030 0.000000 
#    z 0.000000 0.000000 1.626470 
# 
# From -- ./inp_files/1954.got.cif
#   From: 2010.05.17/outbox.cif.g08.bks.cpg/sg137_1_cif.got.tgz:1954.got - 2010.05.20 13:01:12.
