data_PCOD9570346
_publ_section_title
;
Structure prediction by ZEFSAII (Michael W. Deem and Ramdas Pophale) SiO2 
 PCOD9570346
Probable space group: P 42/N M C
;
_chemical_formula_sum "Si O2"
_cell_formula_units_Z 112
_cell_length_a 14.013531
_cell_length_b 14.013531
_cell_length_c 29.774472
_cell_angle_alpha 90.000000
_cell_angle_beta 90.000000
_cell_angle_gamma 90.000000
_cell_volume 5847.082558
_symmetry_space_group_name_H-M "P 42/N M C"
_symmetry_group_IT_number 137
_space_group.IT_coordinate_system_code '2'
_symmetry_cell_setting 'tetragonal'
loop_
_space_group_symop_operation_xyz
x,y,z
1/2-y,x,1/2+z
1/2-x,1/2-y,z
y,1/2-x,1/2+z
1/2+x,-y,-z
-x,1/2+y,-z
1/2+y,1/2+x,1/2-z
-y,-x,1/2-z
-x,-y,-z
1/2+y,-x,1/2-z
1/2+x,1/2+y,-z
-y,1/2+x,1/2-z
1/2-x,y,z
x,1/2-y,z
1/2-y,1/2-x,1/2+z
y,x,1/2+z
loop_
_atom_site_type_symbol
_atom_site_label
_atom_site_fract_x
_atom_site_fract_y
_atom_site_fract_z
Si Si1 0.952586 0.362475 0.293592
Si Si2 0.641681 0.963530 0.708809
Si Si3 0.552706 0.860482 0.987035
Si Si4 0.855757 0.363800 0.383427
Si Si5 0.980518 0.358946 0.686445
Si Si6 0.955729 0.140359 0.474600
Si Si7 0.362891 0.358838 0.111876
O O1 0.918859 0.418859 0.250000
O O2 0.936796 0.250000 0.287105
O O3 0.891020 0.399316 0.335653
O O4 0.063150 0.384491 0.302659
O O5 0.750000 0.943296 0.695408
O O6 0.639661 0.976604 0.763045
O O7 0.602118 0.062026 0.687444
O O8 0.568184 0.750000 0.998005
O O9 0.443393 0.892056 0.996650
O O10 0.578711 0.872972 0.934105
O O11 0.618698 0.935479 0.013087
O O12 0.750000 0.399534 0.396315
O O13 0.847531 0.250000 0.378239
O O14 0.932809 0.375275 0.422230
O O15 0.946996 0.250000 0.678359
O O16 0.061879 0.381350 0.649705
O O17 0.930450 0.250000 0.485921
O O18 0.250000 0.365426 0.100530
O O19 0.379427 0.250000 0.128221
#
# Coordination Sequence:
#
# PCOD9570346 Si02
#       7
#    16  16  16  16  16  16  16
#     4  11  22  37  58  86 119 153 190 237 292 342
#     4  10  21  37  53  77 112 151 195 238 284 343
#     4  10  21  36  59  89 117 152 196 241 295 352
#     4   9  19  36  58  83 111 147 190 232 279 340
#     4   9  18  35  57  81 110 147 193 237 285 341
#     4  10  21  37  57  83 118 156 194 237 285 346
#     4   9  18  33  57  89 120 147 183 240 302 354
#
# _framework density 19.154852000000002
#
# number of rings (size 3 to 8) (size 9 to 14) (size 15 to 20)
#    0.000    2.286    1.429    1.286    2.000    3.571 
#    0.000    3.571    0.000    3.429    0.000    4.000 
#    0.000    0.000    0.000    0.000    0.000    0.000 
#
# Total GULP energy -624651.214744 kJ/mol
# GULP energy per Si atom -5577.242989 kJ/mol
# Density = 1.911125 g / cm^3
# Si number density = 19.154852 Si / 1000 Ang^3
#
#
#
# Elastic Constant Matrix: (Units=GPa)
#
#
# Indices 1 2 3 4 5 6 
#
# 1 111.2948 28.1265 38.0735 0.0000 0.0000 0.0000
# 2 28.1265 111.2948 38.0735 0.0000 0.0000 0.0000
# 3 38.0735 38.0735 66.7695 0.0000 0.0000 0.0000
# 4 0.0000 0.0000 0.0000 17.2147 0.0000 0.0000
# 5 0.0000 0.0000 0.0000 0.0000 17.2147 0.0000
# 6 0.0000 0.0000 0.0000 0.0000 0.0000 21.0658
#
#
#
# Elastic Compliance Matrix: (Units=1/GPa)
#
#
# Indices 1 2 3 4 5 6 
#
# 1 0.011220 -0.000804 -0.005940 0.000000 0.000000 0.000000
# 2 -0.000804 0.011220 -0.005940 0.000000 0.000000 0.000000
# 3 -0.005940 -0.005940 0.021751 0.000000 0.000000 0.000000
# 4 0.000000 0.000000 0.000000 0.058090 0.000000 0.000000
# 5 0.000000 0.000000 0.000000 0.000000 0.058090 0.000000
# 6 0.000000 0.000000 0.000000 0.000000 0.000000 0.047470
#
#
# Mechanical properties :
#
#
# Convention : Reuss Voigt Hill
#
# Bulk Modulus (GPa) = 53.12094 55.32290 54.22192
# Shear Modulus (GPa) = 20.87836 23.43810 22.15823
#
# Velocity S-wave (km/s) = 3.30506 3.50181 3.40486
# Velocity P-wave (km/s) = 6.50824 6.73015 6.62012
#
# Compressibility (1/GPa) = 0.01882497
#
# Stress axis : x y z
#
# Youngs Moduli (GPa) = 89.12495 89.12495 45.97519
#
# Poissons Ratio (x) = 0.07162 0.27308
# Poissons Ratio (y) = 0.07162 0.27308
# Poissons Ratio (z) = 0.52938 0.52938
#
# Static dielectric constant tensor:
#      x y z
#    x 1.690350 0.000000 0.000000 
#    y 0.000000 1.690350 0.000000 
#    z 0.000000 0.000000 1.649390 
# 
# From -- ./inp_files/9789.got.cif
#   From: 2010.05.17/outbox.cif.g08.bks.cpg/sg137_5_cif.got.tgz:9789.got - 2010.05.20 13:01:12.
