data_PCOD9570645
_publ_section_title
;
Structure prediction by ZEFSAII (Michael W. Deem and Ramdas Pophale) SiO2 
 PCOD9570645
Probable space group: P 42/N C M
;
_chemical_formula_sum "Si O2"
_cell_formula_units_Z 96
_cell_length_a 26.105681
_cell_length_b 26.105681
_cell_length_c 10.338844
_cell_angle_alpha 90.000000
_cell_angle_beta 90.000000
_cell_angle_gamma 90.000000
_cell_volume 7045.990220
_symmetry_space_group_name_H-M "P 42/N C M"
_symmetry_group_IT_number 138
_space_group.IT_coordinate_system_code '2'
_symmetry_cell_setting 'tetragonal'
loop_
_space_group_symop_operation_xyz
x,y,z
1/2-y,x,1/2+z
1/2-x,1/2-y,z
y,1/2-x,1/2+z
1/2+x,-y,1/2-z
-x,1/2+y,1/2-z
1/2+y,1/2+x,-z
-y,-x,-z
-x,-y,-z
1/2+y,-x,1/2-z
1/2+x,1/2+y,-z
-y,1/2+x,1/2-z
1/2-x,y,1/2+z
x,1/2-y,1/2+z
1/2-y,1/2-x,z
y,x,z
loop_
_atom_site_type_symbol
_atom_site_label
_atom_site_fract_x
_atom_site_fract_y
_atom_site_fract_z
Si Si1 0.140006 0.446510 0.700529
Si Si2 0.349252 0.435766 0.508542
Si Si3 0.166400 0.251455 0.838330
Si Si4 0.262136 0.097781 0.584809
Si Si5 0.530334 0.057772 0.639451
Si Si6 0.427612 0.984391 0.109124
O O1 0.100824 0.399177 0.674882
O O2 0.190243 0.439365 0.613257
O O3 0.108847 0.498376 0.671335
O O4 0.153420 0.443429 0.853209
O O5 0.386387 0.386387 0.530839
O O6 0.293475 0.427666 0.568327
O O7 0.377203 0.484630 0.571211
O O8 0.196815 0.303186 0.877748
O O9 0.208774 0.208774 0.810936
O O10 0.134925 0.261574 0.708900
O O11 0.130813 0.232318 0.954430
O O12 0.556466 0.056466 0.500000
O O13 0.569475 0.042824 0.752773
O O14 0.487016 0.012985 0.639411
O O15 0.472309 0.027692 0.108521
O O16 0.444022 0.944022 0.000000
#
# Coordination Sequence:
#
# PCOD9570645 Si02
#       6
#    16  16  16  16  16  16
#     4  10  19  33  49  64  90 121 147 192 245 278
#     4  10  19  32  49  66  87 117 154 194 235 281
#     4  11  22  34  46  59  79 113 160 209 245 273
#     4  12  22  33  47  64  87 118 156 195 242 287
#     4   9  17  29  47  71  92 108 137 183 233 281
#     4   9  15  27  49  69  84 109 143 179 223 279
#
# _framework density 13.62477
#
# number of rings (size 3 to 8) (size 9 to 14) (size 15 to 20)
#    0.000    1.833    3.333    3.000    0.000    2.667 
#    0.000    3.333    0.000    0.000    0.000    0.000 
#    0.000    0.000    0.000    0.000    0.000    5.000 
#
# Total GULP energy -535350.575766 kJ/mol
# GULP energy per Si atom -5576.568498 kJ/mol
# Density = 1.359376 g / cm^3
# Si number density = 13.624770 Si / 1000 Ang^3
#
#
#
# Elastic Constant Matrix: (Units=GPa)
#
#
# Indices 1 2 3 4 5 6 
#
# 1 50.8879 24.6632 7.5295 0.0000 0.0000 0.0000
# 2 24.6632 50.8879 7.5295 0.0000 0.0000 0.0000
# 3 7.5295 7.5295 51.7932 0.0000 0.0000 0.0000
# 4 0.0000 0.0000 0.0000 19.5428 0.0000 0.0000
# 5 0.0000 0.0000 0.0000 0.0000 19.5428 0.0000
# 6 0.0000 0.0000 0.0000 0.0000 0.0000 23.5872
#
#
#
# Elastic Compliance Matrix: (Units=1/GPa)
#
#
# Indices 1 2 3 4 5 6 
#
# 1 0.025882 -0.012250 -0.001982 0.000000 0.000000 0.000000
# 2 -0.012250 0.025882 -0.001982 0.000000 0.000000 0.000000
# 3 -0.001982 -0.001982 0.019884 0.000000 0.000000 0.000000
# 4 0.000000 0.000000 0.000000 0.051170 0.000000 0.000000
# 5 0.000000 0.000000 0.000000 0.000000 0.051170 0.000000
# 6 0.000000 0.000000 0.000000 0.000000 0.000000 0.042396
#
#
# Mechanical properties :
#
#
# Convention : Reuss Voigt Hill
#
# Bulk Modulus (GPa) = 25.49764 25.89038 25.69401
# Shear Modulus (GPa) = 19.09251 20.12435 19.60843
#
# Velocity S-wave (km/s) = 3.74747 3.84740 3.79776
# Velocity P-wave (km/s) = 6.12205 6.22738 6.17494
#
# Compressibility (1/GPa) = 0.03921931
#
# Stress axis : x y z
#
# Youngs Moduli (GPa) = 38.63757 38.63757 50.29241
#
# Poissons Ratio (x) = 0.47333 0.09966
# Poissons Ratio (y) = 0.47333 0.09966
# Poissons Ratio (z) = 0.07657 0.07657
#
# Static dielectric constant tensor:
#      x y z
#    x 1.438800 0.000000 0.000000 
#    y 0.000000 1.438800 0.000000 
#    z 0.000000 0.000000 1.458550 
# 
# From -- ./inp_files/1819.got.cif
#   From: 2010.05.17/outbox.cif.g08.bks.cpg/sg138_1_cif.got.tgz:1819.got - 2010.05.20 13:08:53.
