data_PCOD9570368
_publ_section_title
;
Structure prediction by ZEFSAII (Michael W. Deem and Ramdas Pophale) SiO2 
 PCOD9570368
Probable space group: P 42/N M C
;
_chemical_formula_sum "Si O2"
_cell_formula_units_Z 112
_cell_length_a 15.394037
_cell_length_b 15.394037
_cell_length_c 23.840619
_cell_angle_alpha 90.000000
_cell_angle_beta 90.000000
_cell_angle_gamma 90.000000
_cell_volume 5649.663472
_symmetry_space_group_name_H-M "P 42/N M C"
_symmetry_group_IT_number 137
_space_group.IT_coordinate_system_code '2'
_symmetry_cell_setting 'tetragonal'
loop_
_space_group_symop_operation_xyz
x,y,z
1/2-y,x,1/2+z
1/2-x,1/2-y,z
y,1/2-x,1/2+z
1/2+x,-y,-z
-x,1/2+y,-z
1/2+y,1/2+x,1/2-z
-y,-x,1/2-z
-x,-y,-z
1/2+y,-x,1/2-z
1/2+x,1/2+y,-z
-y,1/2+x,1/2-z
1/2-x,y,z
x,1/2-y,z
1/2-y,1/2-x,1/2+z
y,x,1/2+z
loop_
_atom_site_type_symbol
_atom_site_label
_atom_site_fract_x
_atom_site_fract_y
_atom_site_fract_z
Si Si1 0.849207 0.431883 0.800636
Si Si2 0.154815 0.498608 0.803993
Si Si3 0.652063 0.148219 0.923832
Si Si4 0.349025 0.148401 0.886569
Si Si5 0.403958 0.022947 0.481475
Si Si6 0.851294 0.852223 0.916482
Si Si7 0.975356 0.914298 0.815448
O O1 0.864474 0.364474 0.750000
O O2 0.750000 0.462209 0.798801
O O3 0.865594 0.396572 0.863678
O O4 0.916610 0.508480 0.791402
O O5 0.250000 0.533834 0.820559
O O6 0.149066 0.401430 0.828066
O O7 0.148443 0.493089 0.736968
O O8 0.072195 0.550333 0.828828
O O9 0.750000 0.120467 0.942962
O O10 0.656261 0.250000 0.912336
O O11 0.572196 0.135133 0.966754
O O12 0.250000 0.139500 0.909323
O O13 0.368029 0.250000 0.881820
O O14 0.420320 0.104530 0.925524
O O15 0.367612 0.089755 0.528209
O O16 0.500000 0.000000 0.500000
O O17 0.750000 0.888119 0.917704
O O18 0.841106 0.750000 0.910290
O O19 0.915129 0.882473 0.866309
#
# Coordination Sequence:
#
# PCOD9570368 Si02
#       7
#    16  16  16  16  16  16  16
#     4  11  21  35  57  89 128 167 207 256 320 398
#     4  10  21  39  62  88 122 161 204 254 313 377
#     4  10  22  39  58  83 117 160 208 256 310 376
#     4  10  21  37  59  87 116 149 195 251 312 374
#     4  12  24  38  60  85 119 160 203 252 309 371
#     4  11  24  42  65  92 123 162 209 264 323 382
#     4  11  22  40  60  91 125 164 211 259 318 378
#
# _framework density 19.824190000000002
#
# number of rings (size 3 to 8) (size 9 to 14) (size 15 to 20)
#    0.000    1.286    1.429    5.571    0.000    5.286 
#    0.000    2.143    0.000    8.143    0.000    0.000 
#    0.000    0.000    0.000    0.000    0.000    0.000 
#
# Total GULP energy -624122.696735 kJ/mol
# GULP energy per Si atom -5572.524078 kJ/mol
# Density = 1.977907 g / cm^3
# Si number density = 19.824190 Si / 1000 Ang^3
#
#
#
# Elastic Constant Matrix: (Units=GPa)
#
#
# Indices 1 2 3 4 5 6 
#
# 1 116.3870 50.4956 29.7744 0.0000 0.0000 0.0000
# 2 50.4956 116.3870 29.7744 0.0000 0.0000 0.0000
# 3 29.7744 29.7744 68.5774 0.0000 0.0000 0.0000
# 4 0.0000 0.0000 0.0000 31.8577 0.0000 0.0000
# 5 0.0000 0.0000 0.0000 0.0000 31.8577 0.0000
# 6 0.0000 0.0000 0.0000 0.0000 0.0000 21.8303
#
#
#
# Elastic Compliance Matrix: (Units=1/GPa)
#
#
# Indices 1 2 3 4 5 6 
#
# 1 0.011134 -0.004043 -0.003079 0.000000 0.000000 0.000000
# 2 -0.004043 0.011134 -0.003079 0.000000 0.000000 0.000000
# 3 -0.003079 -0.003079 0.017255 0.000000 0.000000 0.000000
# 4 0.000000 0.000000 0.000000 0.031390 0.000000 0.000000
# 5 0.000000 0.000000 0.000000 0.000000 0.031390 0.000000
# 6 0.000000 0.000000 0.000000 0.000000 0.000000 0.045808
#
#
# Mechanical properties :
#
#
# Convention : Reuss Voigt Hill
#
# Bulk Modulus (GPa) = 52.29455 57.93780 55.11618
# Shear Modulus (GPa) = 28.59036 29.86293 29.22664
#
# Velocity S-wave (km/s) = 3.80174 3.88543 3.84382
# Velocity P-wave (km/s) = 6.76073 7.02980 6.89657
#
# Compressibility (1/GPa) = 0.01912245
#
# Stress axis : x y z
#
# Youngs Moduli (GPa) = 89.81790 89.81790 57.95294
#
# Poissons Ratio (x) = 0.36312 0.17842
# Poissons Ratio (y) = 0.36312 0.17842
# Poissons Ratio (z) = 0.27652 0.27652
#
# Static dielectric constant tensor:
#      x y z
#    x 1.790850 0.000000 0.000000 
#    y 0.000000 1.790850 0.000000 
#    z 0.000000 0.000000 1.728360 
# 
# From -- ./inp_files/8972.got.cif
#   From: 2010.05.17/outbox.cif.g08.bks.cpg/sg137_5_cif.got.tgz:8972.got - 2010.05.20 13:01:12.
