data_PCOD9570022
_publ_section_title
;
Structure prediction by ZEFSAII (Michael W. Deem and Ramdas Pophale) SiO2 
 PCOD9570022
Probable space group: P 42/N M C
;
_chemical_formula_sum "Si O2"
_cell_formula_units_Z 96
_cell_length_a 26.059875
_cell_length_b 26.059875
_cell_length_c 7.971630
_cell_angle_alpha 90.000000
_cell_angle_beta 90.000000
_cell_angle_gamma 90.000000
_cell_volume 5413.670128
_symmetry_space_group_name_H-M "P 42/N M C"
_symmetry_group_IT_number 137
_space_group.IT_coordinate_system_code '2'
_symmetry_cell_setting 'tetragonal'
loop_
_space_group_symop_operation_xyz
x,y,z
1/2-y,x,1/2+z
1/2-x,1/2-y,z
y,1/2-x,1/2+z
1/2+x,-y,-z
-x,1/2+y,-z
1/2+y,1/2+x,1/2-z
-y,-x,1/2-z
-x,-y,-z
1/2+y,-x,1/2-z
1/2+x,1/2+y,-z
-y,1/2+x,1/2-z
1/2-x,y,z
x,1/2-y,z
1/2-y,1/2-x,1/2+z
y,x,1/2+z
loop_
_atom_site_type_symbol
_atom_site_label
_atom_site_fract_x
_atom_site_fract_y
_atom_site_fract_z
Si Si1 0.050546 0.191757 0.886027
Si Si2 0.194131 0.157320 0.534291
Si Si3 0.964303 0.884890 0.805029
Si Si4 0.513960 0.893918 0.323246
Si Si5 0.948866 0.465289 0.495715
Si Si6 0.306048 0.405076 0.884306
O O1 0.033118 0.250000 0.903603
O O2 0.112252 0.191711 0.894974
O O3 0.027911 0.164088 0.723293
O O4 0.036444 0.157415 0.047621
O O5 0.250000 0.184012 0.517017
O O6 0.195117 0.127094 0.709701
O O7 0.140985 0.186859 0.515772
O O8 0.923502 0.931169 0.834401
O O9 0.944462 0.853257 0.642856
O O10 0.017711 0.914923 0.836222
O O11 0.473235 0.909696 0.466314
O O12 0.485819 0.917042 0.156645
O O13 0.000000 0.500000 0.500000
O O14 0.250000 0.429735 0.905702
#
# Coordination Sequence:
#
# PCOD9570022 Si02
#       6
#    16  16  16  16  16  16
#     4   9  16  26  39  54  73  99 130 163 208 250
#     4   9  18  30  41  52  67  92 127 167 209 249
#     4   9  15  25  38  54  74  96 123 163 202 248
#     4   9  14  24  40  57  74  95 123 158 199 247
#     4   8  15  23  37  59  77  93 118 153 203 247
#     4  10  19  30  43  56  72  99 134 172 216 254
#
# _framework density 17.732887000000002
#
# number of rings (size 3 to 8) (size 9 to 14) (size 15 to 20)
#    0.000    3.000    1.667    1.500    0.000    1.000 
#    0.000    1.667    0.000    0.000    0.000    0.000 
#    0.000    0.000    0.000    0.000    0.000  134.167 
#
# Total GULP energy -534591.265843 kJ/mol
# GULP energy per Si atom -5568.659019 kJ/mol
# Density = 1.769253 g / cm^3
# Si number density = 17.732887 Si / 1000 Ang^3
#
#
#
# Elastic Constant Matrix: (Units=GPa)
#
#
# Indices 1 2 3 4 5 6 
#
# 1 72.0324 43.6126 13.4314 0.0000 0.0000 0.0000
# 2 43.6126 72.0324 13.4314 0.0000 0.0000 0.0000
# 3 13.4314 13.4314 61.9603 0.0000 0.0000 0.0000
# 4 0.0000 0.0000 0.0000 13.8374 0.0000 0.0000
# 5 0.0000 0.0000 0.0000 0.0000 13.8374 0.0000
# 6 0.0000 0.0000 0.0000 0.0000 0.0000 18.4501
#
#
#
# Elastic Compliance Matrix: (Units=1/GPa)
#
#
# Indices 1 2 3 4 5 6 
#
# 1 0.022146 -0.013041 -0.001974 0.000000 0.000000 0.000000
# 2 -0.013041 0.022146 -0.001974 0.000000 0.000000 0.000000
# 3 -0.001974 -0.001974 0.016995 0.000000 0.000000 0.000000
# 4 0.000000 0.000000 0.000000 0.072268 0.000000 0.000000
# 5 0.000000 0.000000 0.000000 0.000000 0.072268 0.000000
# 6 0.000000 0.000000 0.000000 0.000000 0.000000 0.054200
#
#
# Mechanical properties :
#
#
# Convention : Reuss Voigt Hill
#
# Bulk Modulus (GPa) = 36.61535 38.55288 37.58412
# Shear Modulus (GPa) = 16.49601 18.26163 17.37882
#
# Velocity S-wave (km/s) = 3.05331 3.21256 3.13394
# Velocity P-wave (km/s) = 5.75529 5.96228 5.85970
#
# Compressibility (1/GPa) = 0.02731095
#
# Stress axis : x y z
#
# Youngs Moduli (GPa) = 45.15450 45.15450 58.84034
#
# Poissons Ratio (x) = 0.58884 0.11614
# Poissons Ratio (y) = 0.58884 0.11614
# Poissons Ratio (z) = 0.08913 0.08913
#
# Static dielectric constant tensor:
#      x y z
#    x 1.627520 0.000000 0.000000 
#    y 0.000000 1.627520 0.000000 
#    z 0.000000 0.000000 1.770850 
# 
# From -- ./inp_files/2255.got.cif
#   From: 2010.05.17/outbox.cif.g08.bks.cpg/sg137_2_cif.got.tgz:2255.got - 2010.05.20 13:01:12.
