data_PCOD9570570
_publ_section_title
;
Structure prediction by ZEFSAII (Michael W. Deem and Ramdas Pophale) SiO2 
 PCOD9570570
Probable space group: P 42/N C M
;
_chemical_formula_sum "Si O2"
_cell_formula_units_Z 96
_cell_length_a 14.807734
_cell_length_b 14.807734
_cell_length_c 25.167714
_cell_angle_alpha 90.000000
_cell_angle_beta 90.000000
_cell_angle_gamma 90.000000
_cell_volume 5518.499134
_symmetry_space_group_name_H-M "P 42/N C M"
_symmetry_group_IT_number 138
_space_group.IT_coordinate_system_code '2'
_symmetry_cell_setting 'tetragonal'
loop_
_space_group_symop_operation_xyz
x,y,z
1/2-y,x,1/2+z
1/2-x,1/2-y,z
y,1/2-x,1/2+z
1/2+x,-y,1/2-z
-x,1/2+y,1/2-z
1/2+y,1/2+x,-z
-y,-x,-z
-x,-y,-z
1/2+y,-x,1/2-z
1/2+x,1/2+y,-z
-y,1/2+x,1/2-z
1/2-x,y,1/2+z
x,1/2-y,1/2+z
1/2-y,1/2-x,z
y,x,z
loop_
_atom_site_type_symbol
_atom_site_label
_atom_site_fract_x
_atom_site_fract_y
_atom_site_fract_z
Si Si1 0.821213 0.029470 0.991262
Si Si2 0.608407 0.278012 0.413697
Si Si3 0.813208 0.965881 0.673673
Si Si4 0.719397 0.104514 0.383634
Si Si5 0.675123 0.824878 0.661459
Si Si6 0.891764 0.207481 0.238065
Si Si7 0.826482 0.826482 0.033568
O O1 0.803763 0.032139 0.928491
O O2 0.810193 0.928321 0.012794
O O3 0.917118 0.082883 0.000000
O O4 0.748382 0.087733 0.025458
O O5 0.520834 0.308201 0.381244
O O6 0.645693 0.184410 0.389090
O O7 0.686592 0.349782 0.401777
O O8 0.889745 0.889745 0.670434
O O9 0.715902 0.918093 0.681721
O O10 0.829310 0.033450 0.722080
O O11 0.720267 0.076478 0.322464
O O12 0.750000 0.750000 0.675471
O O13 0.670809 0.829192 0.597566
O O14 0.803964 0.143492 0.240379
O O15 0.750000 0.750000 0.019457
#
# Coordination Sequence:
#
# PCOD9570570 Si02
#       7
#    16  16  16  16   8  16   8
#     4  10  21  34  57  87 114 141 186 239 282 336
#     4  10  17  34  58  84 109 144 181 229 283 338
#     4  11  21  36  57  83 110 145 192 234 275 326
#     4  10  19  34  56  83 117 144 177 228 295 339
#     4   9  20  37  59  79 105 147 190 233 273 321
#     4  11  19  36  59  83 114 149 187 233 284 332
#     4  11  21  37  59  79 111 155 187 223 283 348
#
# _framework density 17.396034
#
# number of rings (size 3 to 8) (size 9 to 14) (size 15 to 20)
#    0.000    1.667    5.000    1.750    0.000    2.000 
#    3.000    0.833    1.833    2.000    0.000    0.000 
#    0.000    0.000    0.000    0.000    0.000    0.000 
#
# Total GULP energy -534898.616085 kJ/mol
# GULP energy per Si atom -5571.860584 kJ/mol
# Density = 1.735644 g / cm^3
# Si number density = 17.396034 Si / 1000 Ang^3
#
#
#
# Elastic Constant Matrix: (Units=GPa)
#
#
# Indices 1 2 3 4 5 6 
#
# 1 48.3164 35.1340 8.1403 0.0000 0.0000 0.0000
# 2 35.1340 48.3170 8.1404 0.0000 0.0000 0.0000
# 3 8.1403 8.1404 90.8045 0.0000 0.0000 0.0000
# 4 0.0000 0.0000 0.0000 17.9296 0.0000 0.0000
# 5 0.0000 0.0000 0.0000 0.0000 17.9293 0.0000
# 6 0.0000 0.0000 0.0000 0.0000 0.0000 13.4037
#
#
#
# Elastic Compliance Matrix: (Units=1/GPa)
#
#
# Indices 1 2 3 4 5 6 
#
# 1 0.044027 -0.031830 -0.001093 0.000000 0.000000 0.000000
# 2 -0.031830 0.044027 -0.001093 0.000000 0.000000 0.000000
# 3 -0.001093 -0.001093 0.011209 0.000000 0.000000 0.000000
# 4 0.000000 0.000000 0.000000 0.055774 0.000000 0.000000
# 5 0.000000 0.000000 0.000000 0.000000 0.055775 0.000000
# 6 0.000000 0.000000 0.000000 0.000000 0.000000 0.074606
#
#
# Mechanical properties :
#
#
# Convention : Reuss Voigt Hill
#
# Bulk Modulus (GPa) = 32.02247 32.25193 32.13720
# Shear Modulus (GPa) = 13.74153 18.92073 16.33113
#
# Velocity S-wave (km/s) = 2.81361 3.30153 3.06728
# Velocity P-wave (km/s) = 5.38545 5.75443 5.57299
#
# Compressibility (1/GPa) = 0.03122807
#
# Stress axis : x y z
#
# Youngs Moduli (GPa) = 22.71330 22.71354 89.21634
#
# Poissons Ratio (x) = 0.72298 0.09754
# Poissons Ratio (y) = 0.72297 0.09755
# Poissons Ratio (z) = 0.02483 0.02483
#
# Static dielectric constant tensor:
#      x y z
#    x 1.604320 0.000000 0.000000 
#    y 0.000000 1.604320 0.000000 
#    z 0.000000 0.000000 1.585460 
# 
# From -- ./inp_files/7015.got.cif
#   From: 2010.05.17/outbox.cif.g08.bks.cpg/sg138_4_cif.got.tgz:7015.got - 2010.05.20 13:08:53.
