data_PCOD9570139
_publ_section_title
;
Structure prediction by ZEFSAII (Michael W. Deem and Ramdas Pophale) SiO2 
 PCOD9570139
Probable space group: P 42/N M C
;
_chemical_formula_sum "Si O2"
_cell_formula_units_Z 58
_cell_length_a 10.732891
_cell_length_b 10.732891
_cell_length_c 27.081631
_cell_angle_alpha 90.000000
_cell_angle_beta 90.000000
_cell_angle_gamma 90.000000
_cell_volume 3119.667108
_symmetry_space_group_name_H-M "P 42/N M C"
_symmetry_group_IT_number 137
_space_group.IT_coordinate_system_code '2'
_symmetry_cell_setting 'tetragonal'
loop_
_space_group_symop_operation_xyz
x,y,z
1/2-y,x,1/2+z
1/2-x,1/2-y,z
y,1/2-x,1/2+z
1/2+x,-y,-z
-x,1/2+y,-z
1/2+y,1/2+x,1/2-z
-y,-x,1/2-z
-x,-y,-z
1/2+y,-x,1/2-z
1/2+x,1/2+y,-z
-y,1/2+x,1/2-z
1/2-x,y,z
x,1/2-y,z
1/2-y,1/2-x,1/2+z
y,x,1/2+z
loop_
_atom_site_type_symbol
_atom_site_label
_atom_site_fract_x
_atom_site_fract_y
_atom_site_fract_z
Si Si1 0.499623 0.959987 0.361753
Si Si2 0.750000 0.750000 0.447401
Si Si3 0.250000 0.392359 0.206218
Si Si4 0.750000 0.478845 0.945166
Si Si5 0.250000 0.750000 0.980826
Si Si6 0.029032 0.750000 0.902605
Si Si7 0.750000 0.990929 0.688286
Si Si8 0.750000 0.250000 0.750000
O O1 0.541067 0.869224 0.317249
O O2 0.473194 0.869753 0.408776
O O3 0.619680 0.043970 0.373851
O O4 0.373035 0.023506 0.344535
O O5 0.614189 0.750000 0.471760
O O6 0.750000 0.881096 0.417434
O O7 0.250000 0.250000 0.189601
O O8 0.250000 0.401916 0.264675
O O9 0.750000 0.369845 0.984105
O O10 0.374367 0.750000 0.947503
O O11 0.750000 0.129205 0.714204
#
# Coordination Sequence:
#
# PCOD9570139 Si02
#       8
#    16   4   8   8   4   8   8   2
#     4  10  19  36  60  84 118 157 199 234 302 358
#     4   8  18  36  60  84 100 150 208 220 284 358
#     4  11  19  33  57  84 116 159 195 235 288 364
#     4   9  19  35  60  88 113 152 194 248 300 360
#     4  12  24  39  56  90 124 146 198 260 315 336
#     4  10  22  40  61  78 117 170 194 234 292 384
#     4  12  20  32  56  95 118 140 196 260 281 332
#     4  12  16  26  52  92 120 128 164 260 314 288
#
# _framework density 18.591728
#
# number of rings (size 3 to 8) (size 9 to 14) (size 15 to 20)
#    0.000    1.655    4.138    2.483    1.931    4.414 
#    2.483    1.379    0.000    0.000    3.586    0.000 
#    0.000    0.000    0.000    0.000    0.000    0.000 
#
# Total GULP energy -323437.285522 kJ/mol
# GULP energy per Si atom -5576.504923 kJ/mol
# Density = 1.854941 g / cm^3
# Si number density = 18.591728 Si / 1000 Ang^3
#
#
#
# Elastic Constant Matrix: (Units=GPa)
#
#
# Indices 1 2 3 4 5 6 
#
# 1 120.8743 23.1342 54.3083 0.0000 0.0000 0.0000
# 2 23.1342 120.8743 54.3083 0.0000 0.0000 0.0000
# 3 54.3083 54.3083 92.1369 0.0000 0.0000 0.0000
# 4 0.0000 0.0000 0.0000 19.5708 0.0000 0.0000
# 5 0.0000 0.0000 0.0000 0.0000 19.5708 0.0000
# 6 0.0000 0.0000 0.0000 0.0000 0.0000 2.0561
#
#
#
# Elastic Compliance Matrix: (Units=1/GPa)
#
#
# Indices 1 2 3 4 5 6 
#
# 1 0.011367 0.001135 -0.007369 0.000000 0.000000 0.000000
# 2 0.001135 0.011367 -0.007369 0.000000 0.000000 0.000000
# 3 -0.007369 -0.007369 0.019541 0.000000 0.000000 0.000000
# 4 0.000000 0.000000 0.000000 0.051097 0.000000 0.000000
# 5 0.000000 0.000000 0.000000 0.000000 0.051097 0.000000
# 6 0.000000 0.000000 0.000000 0.000000 0.000000 0.486357
#
#
# Mechanical properties :
#
#
# Convention : Reuss Voigt Hill
#
# Bulk Modulus (GPa) = 66.36449 66.37637 66.37043
# Shear Modulus (GPa) = 7.54088 21.71518 14.62803
#
# Velocity S-wave (km/s) = 2.01615 3.42131 2.80804
# Velocity P-wave (km/s) = 6.41818 7.16846 6.80367
#
# Compressibility (1/GPa) = 0.01506830
#
# Stress axis : x y z
#
# Youngs Moduli (GPa) = 87.97660 87.97660 51.17555
#
# Poissons Ratio (x) = -0.09989 0.37712
# Poissons Ratio (y) = -0.09989 0.37712
# Poissons Ratio (z) = 0.64831 0.64831
#
# Static dielectric constant tensor:
#      x y z
#    x 1.650670 0.000000 0.000000 
#    y 0.000000 1.650670 0.000000 
#    z 0.000000 0.000000 1.619950 
# 
# From -- ./inp_files/7443.got.cif
#   From: 2010.05.17/outbox.cif.g08.bks.cpg/sg137_4_cif.got.tgz:7443.got - 2010.05.20 13:01:12.
