data_PCOD9570928
_publ_section_title
;
Structure prediction by ZEFSAII (Michael W. Deem and Ramdas Pophale) SiO2 
 PCOD9570928
Probable space group: P 42/N C M
;
_chemical_formula_sum "Si O2"
_cell_formula_units_Z 80
_cell_length_a 26.027483
_cell_length_b 26.027483
_cell_length_c 5.051991
_cell_angle_alpha 90.000000
_cell_angle_beta 90.000000
_cell_angle_gamma 90.000000
_cell_volume 3422.369613
_symmetry_space_group_name_H-M "P 42/N C M"
_symmetry_group_IT_number 138
_space_group.IT_coordinate_system_code '2'
_symmetry_cell_setting 'tetragonal'
loop_
_space_group_symop_operation_xyz
x,y,z
1/2-y,x,1/2+z
1/2-x,1/2-y,z
y,1/2-x,1/2+z
1/2+x,-y,1/2-z
-x,1/2+y,1/2-z
1/2+y,1/2+x,-z
-y,-x,-z
-x,-y,-z
1/2+y,-x,1/2-z
1/2+x,1/2+y,-z
-y,1/2+x,1/2-z
1/2-x,y,1/2+z
x,1/2-y,1/2+z
1/2-y,1/2-x,z
y,x,z
loop_
_atom_site_type_symbol
_atom_site_label
_atom_site_fract_x
_atom_site_fract_y
_atom_site_fract_z
Si Si1 0.214116 0.490897 0.232488
Si Si2 0.932070 0.344823 0.568075
Si Si3 0.282565 0.852135 0.827035
Si Si4 0.287880 0.375227 0.788378
Si Si5 0.511895 0.434956 0.253049
O O1 0.239676 0.492340 0.946504
O O2 0.178349 0.538991 0.314846
O O3 0.190142 0.433826 0.270865
O O4 0.884290 0.384290 0.500000
O O5 0.908851 0.301165 0.755487
O O6 0.975543 0.376157 0.721645
O O7 0.263279 0.838740 0.530507
O O8 0.328188 0.828188 0.000000
O O9 0.253715 0.369730 0.052783
O O10 0.332667 0.332667 0.774806
O O11 0.541906 0.458095 0.500000
O O12 0.453550 0.453550 0.269442
O O13 0.537672 0.462329 0.000000
#
# Coordination Sequence:
#
# PCOD9570928 Si02
#       5
#    16  16  16  16  16
#     4  10  23  42  62  87 127 170 206 256 323 386
#     4  11  23  41  67  96 125 163 219 272 317 382
#     4  12  26  44  66  92 122 159 205 262 331 401
#     4  10  21  38  63  97 134 175 220 265 319 378
#     4   9  19  35  55  83 119 153 188 239 299 352
#
# _framework density 23.375617999999999
#
# number of rings (size 3 to 8) (size 9 to 14) (size 15 to 20)
#    0.000    1.600    0.000    4.200    0.000    9.600 
#    0.000    0.000    0.000    9.600    0.000    0.000 
#    0.000    0.000    0.000    0.000    0.000    0.000 
#
# Total GULP energy -446503.908753 kJ/mol
# GULP energy per Si atom -5581.298859 kJ/mol
# Density = 2.332241 g / cm^3
# Si number density = 23.375618 Si / 1000 Ang^3
#
#
#
# Elastic Constant Matrix: (Units=GPa)
#
#
# Indices 1 2 3 4 5 6 
#
# 1 71.5950 46.8105 8.5799 0.0000 0.0000 0.0000
# 2 46.8105 71.5943 8.5799 0.0000 0.0000 0.0000
# 3 8.5799 8.5799 111.8195 0.0000 0.0000 0.0000
# 4 0.0000 0.0000 0.0000 24.4411 0.0000 0.0000
# 5 0.0000 0.0000 0.0000 0.0000 24.4417 0.0000
# 6 0.0000 0.0000 0.0000 0.0000 0.0000 63.5258
#
#
#
# Elastic Compliance Matrix: (Units=1/GPa)
#
#
# Indices 1 2 3 4 5 6 
#
# 1 0.024444 -0.015904 -0.000655 0.000000 0.000000 0.000000
# 2 -0.015904 0.024445 -0.000655 0.000000 0.000000 0.000000
# 3 -0.000655 -0.000655 0.009044 0.000000 0.000000 0.000000
# 4 0.000000 0.000000 0.000000 0.040915 0.000000 0.000000
# 5 0.000000 0.000000 0.000000 0.000000 0.040914 0.000000
# 6 0.000000 0.000000 0.000000 0.000000 0.000000 0.015742
#
#
# Mechanical properties :
#
#
# Convention : Reuss Voigt Hill
#
# Bulk Modulus (GPa) = 42.54707 42.54994 42.54850
# Shear Modulus (GPa) = 25.28240 35.21761 30.25001
#
# Velocity S-wave (km/s) = 3.29229 3.88570 3.60124
# Velocity P-wave (km/s) = 5.71780 6.19466 5.96100
#
# Compressibility (1/GPa) = 0.02350338
#
# Stress axis : x y z
#
# Youngs Moduli (GPa) = 40.90923 40.90888 110.57603
#
# Poissons Ratio (x) = 0.65061 0.07246
# Poissons Ratio (y) = 0.65062 0.07246
# Poissons Ratio (z) = 0.02681 0.02681
#
# Static dielectric constant tensor:
#      x y z
#    x 1.939250 0.000000 0.000000 
#    y 0.000000 1.939250 0.000000 
#    z 0.000000 0.000000 1.875510 
# 
# From -- ./inp_files/466.got.cif
#   From: 2010.05.17/outbox.cif.g08.bks.cpg/sg138_1_cif.got.tgz:466.got - 2010.05.20 13:08:53.
