data_PCOD9570689
_publ_section_title
;
Structure prediction by ZEFSAII (Michael W. Deem and Ramdas Pophale) SiO2 
 PCOD9570689
Probable space group: P 42/N C M
;
_chemical_formula_sum "Si O2"
_cell_formula_units_Z 80
_cell_length_a 12.687867
_cell_length_b 12.687867
_cell_length_c 27.446053
_cell_angle_alpha 90.000000
_cell_angle_beta 90.000000
_cell_angle_gamma 90.000000
_cell_volume 4418.319653
_symmetry_space_group_name_H-M "P 42/N C M"
_symmetry_group_IT_number 138
_space_group.IT_coordinate_system_code '2'
_symmetry_cell_setting 'tetragonal'
loop_
_space_group_symop_operation_xyz
x,y,z
1/2-y,x,1/2+z
1/2-x,1/2-y,z
y,1/2-x,1/2+z
1/2+x,-y,1/2-z
-x,1/2+y,1/2-z
1/2+y,1/2+x,-z
-y,-x,-z
-x,-y,-z
1/2+y,-x,1/2-z
1/2+x,1/2+y,-z
-y,1/2+x,1/2-z
1/2-x,y,1/2+z
x,1/2-y,1/2+z
1/2-y,1/2-x,z
y,x,z
loop_
_atom_site_type_symbol
_atom_site_label
_atom_site_fract_x
_atom_site_fract_y
_atom_site_fract_z
Si Si1 0.446758 0.878112 0.446397
Si Si2 0.623966 0.250831 0.375641
Si Si3 0.846671 0.477187 0.908282
Si Si4 0.919581 0.745563 0.314740
Si Si5 0.731349 0.417867 0.734049
O O1 0.404652 0.904652 0.500000
O O2 0.352670 0.897706 0.407550
O O3 0.476362 0.754605 0.443314
O O4 0.545680 0.954321 0.436476
O O5 0.750000 0.250000 0.364807
O O6 0.605447 0.360066 0.404333
O O7 0.567305 0.254019 0.323470
O O8 0.794102 0.504715 0.855725
O O9 0.934090 0.565911 0.918732
O O10 0.852634 0.647367 0.334930
O O11 0.836428 0.836428 0.302433
O O12 0.980468 0.712568 0.266544
O O13 0.836010 0.362415 0.755450
#
# Coordination Sequence:
#
# PCOD9570689 Si02
#       5
#    16  16  16  16  16
#     4  10  22  40  60  83 111 146 187 233 286 341
#     4  10  19  34  57  82 113 147 190 231 271 330
#     4  10  20  36  59  86 112 142 184 236 285 330
#     4  10  21  34  50  78 112 145 183 225 273 329
#     4  11  18  31  51  78 110 146 184 219 261 319
#
# _framework density 18.10643
#
# number of rings (size 3 to 8) (size 9 to 14) (size 15 to 20)
#    0.000    1.800    4.000    1.800    0.000    7.200 
#    0.000    2.000    0.000    1.800    0.000    0.000 
#    0.000    0.000    0.000    0.000    0.000    0.000 
#
# Total GULP energy -446405.034220 kJ/mol
# GULP energy per Si atom -5580.062928 kJ/mol
# Density = 1.806522 g / cm^3
# Si number density = 18.106430 Si / 1000 Ang^3
#
#
#
# Elastic Constant Matrix: (Units=GPa)
#
#
# Indices 1 2 3 4 5 6 
#
# 1 74.6945 33.3178 25.0806 0.0000 0.0000 0.0000
# 2 33.3178 74.6945 25.0806 0.0000 0.0000 0.0000
# 3 25.0806 25.0806 49.5914 0.0000 0.0000 0.0000
# 4 0.0000 0.0000 0.0000 21.5089 0.0000 0.0000
# 5 0.0000 0.0000 0.0000 0.0000 21.5089 0.0000
# 6 0.0000 0.0000 0.0000 0.0000 0.0000 9.5723
#
#
#
# Elastic Compliance Matrix: (Units=1/GPa)
#
#
# Indices 1 2 3 4 5 6 
#
# 1 0.018134 -0.006034 -0.006120 0.000000 0.000000 0.000000
# 2 -0.006034 0.018134 -0.006120 0.000000 0.000000 0.000000
# 3 -0.006120 -0.006120 0.026355 0.000000 0.000000 0.000000
# 4 0.000000 0.000000 0.000000 0.046492 0.000000 0.000000
# 5 0.000000 0.000000 0.000000 0.000000 0.046492 0.000000
# 6 0.000000 0.000000 0.000000 0.000000 0.000000 0.104468
#
#
# Mechanical properties :
#
#
# Convention : Reuss Voigt Hill
#
# Bulk Modulus (GPa) = 38.34852 40.65983 39.50418
# Shear Modulus (GPa) = 16.37653 18.21810 17.29732
#
# Velocity S-wave (km/s) = 3.01069 3.17546 3.09417
# Velocity P-wave (km/s) = 5.77158 5.99579 5.88475
#
# Compressibility (1/GPa) = 0.02607663
#
# Stress axis : x y z
#
# Youngs Moduli (GPa) = 55.14443 55.14443 37.94391
#
# Poissons Ratio (x) = 0.33274 0.23220
# Poissons Ratio (y) = 0.33274 0.23220
# Poissons Ratio (z) = 0.33746 0.33746
#
# Static dielectric constant tensor:
#      x y z
#    x 1.634640 0.000000 0.000000 
#    y 0.000000 1.634640 0.000000 
#    z 0.000000 0.000000 1.616890 
# 
# From -- ./inp_files/7874.got.cif
#   From: 2010.05.17/outbox.cif.g08.bks.cpg/sg138_4_cif.got.tgz:7874.got - 2010.05.20 13:08:53.
