data_PCOD9570741
_publ_section_title
;
Structure prediction by ZEFSAII (Michael W. Deem and Ramdas Pophale) SiO2 
 PCOD9570741
Probable space group: P 42/N C M
;
_chemical_formula_sum "Si O2"
_cell_formula_units_Z 96
_cell_length_a 21.508815
_cell_length_b 21.508815
_cell_length_c 12.380356
_cell_angle_alpha 90.000000
_cell_angle_beta 90.000000
_cell_angle_gamma 90.000000
_cell_volume 5727.513235
_symmetry_space_group_name_H-M "P 42/N C M"
_symmetry_group_IT_number 138
_space_group.IT_coordinate_system_code '2'
_symmetry_cell_setting 'tetragonal'
loop_
_space_group_symop_operation_xyz
x,y,z
1/2-y,x,1/2+z
1/2-x,1/2-y,z
y,1/2-x,1/2+z
1/2+x,-y,1/2-z
-x,1/2+y,1/2-z
1/2+y,1/2+x,-z
-y,-x,-z
-x,-y,-z
1/2+y,-x,1/2-z
1/2+x,1/2+y,-z
-y,1/2+x,1/2-z
1/2-x,y,1/2+z
x,1/2-y,1/2+z
1/2-y,1/2-x,z
y,x,z
loop_
_atom_site_type_symbol
_atom_site_label
_atom_site_fract_x
_atom_site_fract_y
_atom_site_fract_z
Si Si1 0.059061 0.335232 0.138870
Si Si2 0.359404 0.038002 0.480039
Si Si3 0.349190 0.255314 0.253295
Si Si4 0.378830 0.484009 0.233179
Si Si5 0.218095 0.448091 0.908085
Si Si6 0.021661 0.916572 0.215058
O O1 0.110613 0.389388 0.141344
O O2 0.094194 0.275155 0.187940
O O3 0.001646 0.359935 0.210000
O O4 0.042448 0.320327 0.016750
O O5 0.396959 0.103042 0.458191
O O6 0.361865 0.026120 0.607501
O O7 0.289576 0.036798 0.435031
O O8 0.396081 0.986927 0.409087
O O9 0.298419 0.201582 0.267998
O O10 0.313664 0.313664 0.199888
O O11 0.377138 0.277559 0.366436
O O12 0.427920 0.427920 0.261287
O O13 0.319890 0.480986 0.311897
O O14 0.414085 0.549924 0.241428
O O15 0.971014 0.971014 0.231433
#
# Coordination Sequence:
#
# PCOD9570741 Si02
#       6
#    16  16  16  16  16  16
#     4  10  20  33  48  68 100 143 181 219 265 309
#     4  10  20  35  55  75 102 141 181 221 264 310
#     4  10  20  33  47  67 101 147 192 222 247 295
#     4  10  21  35  54  78 101 137 186 228 265 314
#     4  12  21  31  48  75 108 138 170 217 267 321
#     4   9  18  36  56  73  98 137 185 226 269 315
#
# _framework density 16.761201
#
# number of rings (size 3 to 8) (size 9 to 14) (size 15 to 20)
#    0.000    1.833    1.667    3.500    0.000    5.333 
#    0.000    4.167    0.000    0.000    0.000    0.000 
#    0.000    0.667    1.000    0.000    0.000    0.000 
#
# Total GULP energy -535076.848818 kJ/mol
# GULP energy per Si atom -5573.717175 kJ/mol
# Density = 1.672305 g / cm^3
# Si number density = 16.761201 Si / 1000 Ang^3
#
#
#
# Elastic Constant Matrix: (Units=GPa)
#
#
# Indices 1 2 3 4 5 6 
#
# 1 77.1898 52.1460 42.9421 0.0000 0.0000 0.0000
# 2 52.1460 77.1898 42.9421 0.0000 0.0000 0.0000
# 3 42.9421 42.9421 104.7704 0.0000 0.0000 0.0000
# 4 0.0000 0.0000 0.0000 17.8773 0.0000 0.0000
# 5 0.0000 0.0000 0.0000 0.0000 17.8773 0.0000
# 6 0.0000 0.0000 0.0000 0.0000 0.0000 31.1873
#
#
#
# Elastic Compliance Matrix: (Units=1/GPa)
#
#
# Indices 1 2 3 4 5 6 
#
# 1 0.025277 -0.014653 -0.004354 0.000000 0.000000 0.000000
# 2 -0.014653 0.025277 -0.004354 0.000000 0.000000 0.000000
# 3 -0.004354 -0.004354 0.013114 0.000000 0.000000 0.000000
# 4 0.000000 0.000000 0.000000 0.055937 0.000000 0.000000
# 5 0.000000 0.000000 0.000000 0.000000 0.055937 0.000000
# 6 0.000000 0.000000 0.000000 0.000000 0.000000 0.032064
#
#
# Mechanical properties :
#
#
# Convention : Reuss Voigt Hill
#
# Bulk Modulus (GPa) = 59.01873 59.46781 59.24327
# Shear Modulus (GPa) = 19.23253 21.46303 20.34778
#
# Velocity S-wave (km/s) = 3.39107 3.58232 3.48800
# Velocity P-wave (km/s) = 7.11480 7.25721 7.18636
#
# Compressibility (1/GPa) = 0.01694377
#
# Stress axis : x y z
#
# Youngs Moduli (GPa) = 39.56239 39.56239 76.25510
#
# Poissons Ratio (x) = 0.57972 0.33202
# Poissons Ratio (y) = 0.57972 0.33202
# Poissons Ratio (z) = 0.17226 0.17226
#
# Static dielectric constant tensor:
#      x y z
#    x 1.580760 0.000000 0.000000 
#    y 0.000000 1.580760 0.000000 
#    z 0.000000 0.000000 1.596390 
# 
# From -- ./inp_files/3115.got.cif
#   From: 2010.05.17/outbox.cif.g08.bks.cpg/sg138_2_cif.got.tgz:3115.got - 2010.05.20 13:08:53.
