data_PCOD9570435
_publ_section_title
;
Structure prediction by ZEFSAII (Michael W. Deem and Ramdas Pophale) SiO2 
 PCOD9570435
Probable space group: P 42/N M C
;
_chemical_formula_sum "Si O2"
_cell_formula_units_Z 64
_cell_length_a 19.581681
_cell_length_b 19.581681
_cell_length_c 9.045735
_cell_angle_alpha 90.000000
_cell_angle_beta 90.000000
_cell_angle_gamma 90.000000
_cell_volume 3468.516807
_symmetry_space_group_name_H-M "P 42/N M C"
_symmetry_group_IT_number 137
_space_group.IT_coordinate_system_code '2'
_symmetry_cell_setting 'tetragonal'
loop_
_space_group_symop_operation_xyz
x,y,z
1/2-y,x,1/2+z
1/2-x,1/2-y,z
y,1/2-x,1/2+z
1/2+x,-y,-z
-x,1/2+y,-z
1/2+y,1/2+x,1/2-z
-y,-x,1/2-z
-x,-y,-z
1/2+y,-x,1/2-z
1/2+x,1/2+y,-z
-y,1/2+x,1/2-z
1/2-x,y,z
x,1/2-y,z
1/2-y,1/2-x,1/2+z
y,x,1/2+z
loop_
_atom_site_type_symbol
_atom_site_label
_atom_site_fract_x
_atom_site_fract_y
_atom_site_fract_z
Si Si1 0.613081 0.169926 0.596447
Si Si2 0.326868 0.552592 0.562569
Si Si3 0.829537 0.988970 0.116514
Si Si4 0.943390 0.519417 0.617197
O O1 0.633508 0.133508 0.750000
O O2 0.627395 0.250000 0.610208
O O3 0.657028 0.130930 0.473058
O O4 0.536052 0.163246 0.530540
O O5 0.250000 0.536878 0.522246
O O6 0.336080 0.534428 0.734448
O O7 0.374524 0.508556 0.454612
O O8 0.750000 0.962310 0.116395
O O9 0.897769 0.942382 0.131093
O O10 0.974191 0.474191 0.750000
O O11 0.000000 0.500000 0.500000
#
# Coordination Sequence:
#
# PCOD9570435 Si02
#       4
#    16  16  16  16
#     4  11  22  35  52  79 116 155 193 237 287 344
#     4  11  23  38  58  85 117 155 198 245 296 357
#     4  10  22  40  60  84 115 152 197 245 299 354
#     4  12  21  37  63  90 115 154 199 247 293 346
#
# _framework density 18.451689999999999
#
# number of rings (size 3 to 8) (size 9 to 14) (size 15 to 20)
#    0.000    1.000    5.000    2.250    0.000    1.750 
#    0.000    1.250    0.000    9.750    0.000    3.500 
#    0.000    0.000    0.000    0.000    0.000    0.000 
#
# Total GULP energy -356372.658715 kJ/mol
# GULP energy per Si atom -5568.322792 kJ/mol
# Density = 1.840969 g / cm^3
# Si number density = 18.451690 Si / 1000 Ang^3
#
#
#
# Elastic Constant Matrix: (Units=GPa)
#
#
# Indices 1 2 3 4 5 6 
#
# 1 107.6153 51.7259 30.7112 0.0000 0.0000 0.0000
# 2 51.7259 107.6153 30.7112 0.0000 0.0000 0.0000
# 3 30.7112 30.7112 61.3686 0.0000 0.0000 0.0000
# 4 0.0000 0.0000 0.0000 24.3785 0.0000 0.0000
# 5 0.0000 0.0000 0.0000 0.0000 24.3785 0.0000
# 6 0.0000 0.0000 0.0000 0.0000 0.0000 20.1974
#
#
#
# Elastic Compliance Matrix: (Units=1/GPa)
#
#
# Indices 1 2 3 4 5 6 
#
# 1 0.012834 -0.005058 -0.003891 0.000000 0.000000 0.000000
# 2 -0.005058 0.012834 -0.003891 0.000000 0.000000 0.000000
# 3 -0.003891 -0.003891 0.020190 0.000000 0.000000 0.000000
# 4 0.000000 0.000000 0.000000 0.041020 0.000000 0.000000
# 5 0.000000 0.000000 0.000000 0.000000 0.041020 0.000000
# 6 0.000000 0.000000 0.000000 0.000000 0.000000 0.049511
#
#
# Mechanical properties :
#
#
# Convention : Reuss Voigt Hill
#
# Bulk Modulus (GPa) = 49.56363 55.87733 52.72048
# Shear Modulus (GPa) = 23.83039 24.68762 24.25901
#
# Velocity S-wave (km/s) = 3.59765 3.66178 3.62986
# Velocity P-wave (km/s) = 6.64658 6.94456 6.79721
#
# Compressibility (1/GPa) = 0.02017609
#
# Stress axis : x y z
#
# Youngs Moduli (GPa) = 77.91700 77.91700 49.53011
#
# Poissons Ratio (x) = 0.39413 0.19274
# Poissons Ratio (y) = 0.39413 0.19274
# Poissons Ratio (z) = 0.30320 0.30320
#
# Static dielectric constant tensor:
#      x y z
#    x -0.152010 0.000000 0.000000 
#    y 0.000000 -0.152010 0.000000 
#    z 0.000000 0.000000 1.660180 
# 
# From -- ./inp_files/1772.got.cif
#   From: 2010.05.17/outbox.cif.g08.bks.cpg/sg137_1_cif.got.tgz:1772.got - 2010.05.20 13:01:12.
