data_PCOD9570252
_publ_section_title
;
Structure prediction by ZEFSAII (Michael W. Deem and Ramdas Pophale) SiO2 
 PCOD9570252
Probable space group: P 42/N M C
;
_chemical_formula_sum "Si O2"
_cell_formula_units_Z 48
_cell_length_a 7.988072
_cell_length_b 7.988072
_cell_length_c 38.103287
_cell_angle_alpha 90.000000
_cell_angle_beta 90.000000
_cell_angle_gamma 90.000000
_cell_volume 2431.343853
_symmetry_space_group_name_H-M "P 42/N M C"
_symmetry_group_IT_number 137
_space_group.IT_coordinate_system_code '2'
_symmetry_cell_setting 'tetragonal'
loop_
_space_group_symop_operation_xyz
x,y,z
1/2-y,x,1/2+z
1/2-x,1/2-y,z
y,1/2-x,1/2+z
1/2+x,-y,-z
-x,1/2+y,-z
1/2+y,1/2+x,1/2-z
-y,-x,1/2-z
-x,-y,-z
1/2+y,-x,1/2-z
1/2+x,1/2+y,-z
-y,1/2+x,1/2-z
1/2-x,y,z
x,1/2-y,z
1/2-y,1/2-x,1/2+z
y,x,1/2+z
loop_
_atom_site_type_symbol
_atom_site_label
_atom_site_fract_x
_atom_site_fract_y
_atom_site_fract_z
Si Si1 0.947496 0.934247 0.286981
Si Si2 0.952733 0.250000 0.413552
Si Si3 0.052240 0.250000 0.332564
Si Si4 0.547884 0.559540 0.461035
O O1 0.750000 0.938588 0.279098
O O2 0.989461 0.750000 0.301394
O O3 0.038549 0.961451 0.250000
O O4 0.985156 0.084344 0.313337
O O5 0.750000 0.250000 0.414843
O O6 0.011327 0.417357 0.433872
O O7 0.005845 0.250000 0.373324
O O8 0.250000 0.250000 0.328344
O O9 0.500000 0.500000 0.500000
O O10 0.750000 0.563360 0.459045
O O11 0.487273 0.750000 0.454826
#
# Coordination Sequence:
#
# PCOD9570252 Si02
#       4
#    16   8   8  16
#     4  11  23  41  67  96 126 166 215 264 317 389
#     4  10  22  40  58  84 124 166 208 260 316 379
#     4  12  26  42  62  94 132 170 212 267 333 386
#     4  10  20  35  59  88 117 154 205 257 309 375
#
# _framework density 19.742170000000002
#
# number of rings (size 3 to 8) (size 9 to 14) (size 15 to 20)
#    0.000    1.333    3.333    2.500    0.000    5.000 
#    0.000    3.333    0.000    0.000    0.000    0.000 
#    0.000    0.000    0.000    0.000    0.000    0.000 
#
# Total GULP energy -268253.600717 kJ/mol
# GULP energy per Si atom -5588.616682 kJ/mol
# Density = 1.969724 g / cm^3
# Si number density = 19.742170 Si / 1000 Ang^3
#
#
#
# Elastic Constant Matrix: (Units=GPa)
#
#
# Indices 1 2 3 4 5 6 
#
# 1 128.6668 46.6656 50.7424 0.0000 0.0000 0.0000
# 2 46.6656 128.6680 50.7440 0.0000 0.0000 0.0000
# 3 50.7424 50.7440 123.2042 0.0000 0.0000 0.0000
# 4 0.0000 0.0000 0.0000 19.3379 0.0000 0.0000
# 5 0.0000 0.0000 0.0000 0.0000 19.3361 0.0000
# 6 0.0000 0.0000 0.0000 0.0000 0.0000 -14.4638
#
#
#
# Elastic Compliance Matrix: (Units=1/GPa)
#
#
# Indices 1 2 3 4 5 6 
#
# 1 0.009842 -0.002353 -0.003084 0.000000 0.000000 0.000000
# 2 -0.002353 0.009842 -0.003084 0.000000 0.000000 0.000000
# 3 -0.003084 -0.003084 0.010657 0.000000 0.000000 0.000000
# 4 0.000000 0.000000 0.000000 0.051712 0.000000 0.000000
# 5 0.000000 0.000000 0.000000 0.000000 0.051717 0.000000
# 6 0.000000 0.000000 0.000000 0.000000 0.000000 -0.069138
#
#
# Mechanical properties :
#
#
# Convention : Reuss Voigt Hill
#
# Bulk Modulus (GPa) = 75.20282 75.20477 75.20380
# Shear Modulus (GPa) = 58.06716 20.33450 39.20083
#
# Velocity S-wave (km/s) = 5.42924 3.21285 4.46089
# Velocity P-wave (km/s) = 8.80212 7.20690 8.04415
#
# Compressibility (1/GPa) = 0.01329737
#
# Stress axis : x y z
#
# Youngs Moduli (GPa) = 101.60767 101.60764 93.83298
#
# Poissons Ratio (x) = 0.23909 0.28940
# Poissons Ratio (y) = 0.23909 0.28942
# Poissons Ratio (z) = 0.31338 0.31340
#
# Static dielectric constant tensor:
#      x y z
#    x 1.706720 0.000000 0.000000 
#    y 0.000000 1.706710 0.000000 
#    z 0.000000 0.000000 1.641410 
# 
# From -- ./inp_files/10055.got.cif
#   From: 2010.05.17/outbox.cif.g08.bks.cpg/sg137_6_cif.got.tgz:10055.got - 2010.05.20 13:01:12.
