data_PCOD9570349
_publ_section_title
;
Structure prediction by ZEFSAII (Michael W. Deem and Ramdas Pophale) SiO2 
 PCOD9570349
Probable space group: P 42/N M C
;
_chemical_formula_sum "Si O2"
_cell_formula_units_Z 96
_cell_length_a 25.084923
_cell_length_b 25.084923
_cell_length_c 7.568386
_cell_angle_alpha 90.000000
_cell_angle_beta 90.000000
_cell_angle_gamma 90.000000
_cell_volume 4762.432335
_symmetry_space_group_name_H-M "P 42/N M C"
_symmetry_group_IT_number 137
_space_group.IT_coordinate_system_code '2'
_symmetry_cell_setting 'tetragonal'
loop_
_space_group_symop_operation_xyz
x,y,z
1/2-y,x,1/2+z
1/2-x,1/2-y,z
y,1/2-x,1/2+z
1/2+x,-y,-z
-x,1/2+y,-z
1/2+y,1/2+x,1/2-z
-y,-x,1/2-z
-x,-y,-z
1/2+y,-x,1/2-z
1/2+x,1/2+y,-z
-y,1/2+x,1/2-z
1/2-x,y,z
x,1/2-y,z
1/2-y,1/2-x,1/2+z
y,x,1/2+z
loop_
_atom_site_type_symbol
_atom_site_label
_atom_site_fract_x
_atom_site_fract_y
_atom_site_fract_z
Si Si1 0.690313 0.583999 0.038364
Si Si2 0.879805 0.914668 0.386052
Si Si3 0.663552 0.030361 0.088225
Si Si4 0.186810 0.992484 0.503299
Si Si5 0.556123 0.002695 0.904870
Si Si6 0.189188 0.601171 0.221624
O O1 0.750000 0.604738 0.039363
O O2 0.660928 0.581369 0.225906
O O3 0.647548 0.616936 0.929511
O O4 0.690928 0.521179 0.995004
O O5 0.941232 0.931275 0.349775
O O6 0.852531 0.956619 0.521440
O O7 0.683605 0.080508 0.979184
O O8 0.601534 0.021847 0.039685
O O9 0.674794 0.029904 0.297713
O O10 0.250000 0.007246 0.497677
O O11 0.176625 0.947894 0.355518
O O12 0.545404 0.045404 0.750000
O O13 0.500000 0.000000 0.000000
O O14 0.148442 0.648442 0.250000
O O15 0.250000 0.616693 0.257186
#
# Coordination Sequence:
#
# PCOD9570349 Si02
#       6
#    16  16  16  16  16  16
#     4  10  21  39  60  85 118 158 205 252 304 370
#     4  10  21  36  60  87 116 159 202 250 313 370
#     4  10  21  39  62  87 125 162 202 252 301 372
#     4  10  22  41  64  89 119 158 206 256 312 373
#     4  11  22  34  53  90 130 163 193 246 317 386
#     4  11  25  42  65  93 124 165 212 259 312 371
#
# _framework density 20.157767
#
# number of rings (size 3 to 8) (size 9 to 14) (size 15 to 20)
#    0.000    1.667    0.000    6.500    9.333    0.833 
#    3.000    0.833    0.000    4.000    0.000    2.333 
#    0.000    0.000    0.000    0.000    0.000    0.000 
#
# Total GULP energy -535941.782493 kJ/mol
# GULP energy per Si atom -5582.726901 kJ/mol
# Density = 2.011189 g / cm^3
# Si number density = 20.157767 Si / 1000 Ang^3
#
#
#
# Elastic Constant Matrix: (Units=GPa)
#
#
# Indices 1 2 3 4 5 6 
#
# 1 122.7648 43.9118 22.7421 0.0000 0.0000 0.0000
# 2 43.9118 122.7648 22.7421 0.0000 0.0000 0.0000
# 3 22.7421 22.7421 57.6017 0.0000 0.0000 0.0000
# 4 0.0000 0.0000 0.0000 17.2170 0.0000 0.0000
# 5 0.0000 0.0000 0.0000 0.0000 17.2170 0.0000
# 6 0.0000 0.0000 0.0000 0.0000 0.0000 15.5246
#
#
#
# Elastic Compliance Matrix: (Units=1/GPa)
#
#
# Indices 1 2 3 4 5 6 
#
# 1 0.009703 -0.002979 -0.002655 0.000000 0.000000 0.000000
# 2 -0.002979 0.009703 -0.002655 0.000000 0.000000 0.000000
# 3 -0.002655 -0.002655 0.019457 0.000000 0.000000 0.000000
# 4 0.000000 0.000000 0.000000 0.058082 0.000000 0.000000
# 5 0.000000 0.000000 0.000000 0.000000 0.058082 0.000000
# 6 0.000000 0.000000 0.000000 0.000000 0.000000 0.064414
#
#
# Mechanical properties :
#
#
# Convention : Reuss Voigt Hill
#
# Bulk Modulus (GPa) = 44.87128 53.54704 49.20916
# Shear Modulus (GPa) = 20.53842 24.24076 22.38959
#
# Velocity S-wave (km/s) = 3.19546 3.47154 3.33636
# Velocity P-wave (km/s) = 5.99358 6.53379 6.26951
#
# Compressibility (1/GPa) = 0.02228597
#
# Stress axis : x y z
#
# Youngs Moduli (GPa) = 103.06127 103.06127 51.39563
#
# Poissons Ratio (x) = 0.30701 0.13644
# Poissons Ratio (y) = 0.30701 0.13644
# Poissons Ratio (z) = 0.27361 0.27361
#
# Static dielectric constant tensor:
#      x y z
#    x 1.911500 0.000000 0.000000 
#    y 0.000000 1.911500 0.000000 
#    z 0.000000 0.000000 6.324280 
# 
# From -- ./inp_files/2129.got.cif
#   From: 2010.05.17/outbox.cif.g08.bks.cpg/sg137_2_cif.got.tgz:2129.got - 2010.05.20 13:01:12.
