data_PCOD9570224
_publ_section_title
;
Structure prediction by ZEFSAII (Michael W. Deem and Ramdas Pophale) SiO2 
 PCOD9570224
Probable space group: P 42/N M C
;
_chemical_formula_sum "Si O2"
_cell_formula_units_Z 88
_cell_length_a 12.349699
_cell_length_b 12.349699
_cell_length_c 30.962084
_cell_angle_alpha 90.000000
_cell_angle_beta 90.000000
_cell_angle_gamma 90.000000
_cell_volume 4722.184266
_symmetry_space_group_name_H-M "P 42/N M C"
_symmetry_group_IT_number 137
_space_group.IT_coordinate_system_code '2'
_symmetry_cell_setting 'tetragonal'
loop_
_space_group_symop_operation_xyz
x,y,z
1/2-y,x,1/2+z
1/2-x,1/2-y,z
y,1/2-x,1/2+z
1/2+x,-y,-z
-x,1/2+y,-z
1/2+y,1/2+x,1/2-z
-y,-x,1/2-z
-x,-y,-z
1/2+y,-x,1/2-z
1/2+x,1/2+y,-z
-y,1/2+x,1/2-z
1/2-x,y,z
x,1/2-y,z
1/2-y,1/2-x,1/2+z
y,x,1/2+z
loop_
_atom_site_type_symbol
_atom_site_label
_atom_site_fract_x
_atom_site_fract_y
_atom_site_fract_z
Si Si1 0.042263 0.501912 0.296995
Si Si2 0.965799 0.370110 0.957147
Si Si3 0.471415 0.750000 0.310512
Si Si4 0.622577 0.432499 0.048437
Si Si5 0.623059 0.127032 0.146562
Si Si6 0.621315 0.250000 0.598348
Si Si7 0.250000 0.378084 0.270781
O O1 0.075459 0.629292 0.300460
O O2 0.147073 0.427284 0.295229
O O3 0.988634 0.488634 0.250000
O O4 0.957935 0.459521 0.332325
O O5 0.001085 0.250000 0.945477
O O6 0.857500 0.395123 0.929981
O O7 0.060255 0.454190 0.948372
O O8 0.931762 0.374949 0.007439
O O9 0.462851 0.750000 0.362221
O O10 0.575955 0.750000 0.278783
O O11 0.750000 0.444530 0.039617
O O12 0.611331 0.376064 0.094715
O O13 0.750000 0.099716 0.156052
O O14 0.603073 0.250000 0.161720
O O15 0.750000 0.250000 0.612450
O O16 0.250000 0.250000 0.270385
#
# Coordination Sequence:
#
# PCOD9570224 Si02
#       7
#    16  16   8  16  16   8   8
#     4  10  22  39  60  88 118 156 197 245 304 364
#     4  10  20  35  56  82 114 153 194 240 299 352
#     4  10  22  38  58  89 120 156 199 248 299 370
#     4  10  20  36  57  82 114 151 196 245 295 356
#     4  10  21  37  59  86 115 152 202 249 297 359
#     4  10  20  34  58  88 115 153 200 248 298 356
#     4  10  22  41  63  86 122 160 197 247 308 365
#
# _framework density 18.635444
#
# number of rings (size 3 to 8) (size 9 to 14) (size 15 to 20)
#    0.000    2.000    0.909    2.182    1.273    4.727 
#    3.273    0.909    0.000    1.091    0.000    0.000 
#    0.000    0.000    0.000    0.000    0.000    0.000 
#
# Total GULP energy -490399.707218 kJ/mol
# GULP energy per Si atom -5572.723946 kJ/mol
# Density = 1.859303 g / cm^3
# Si number density = 18.635444 Si / 1000 Ang^3
#
#
#
# Elastic Constant Matrix: (Units=GPa)
#
#
# Indices 1 2 3 4 5 6 
#
# 1 65.0666 46.0109 12.1153 0.0000 0.0000 0.0000
# 2 46.0109 65.0666 12.1153 0.0000 0.0000 0.0000
# 3 12.1153 12.1153 67.0318 0.0000 0.0000 0.0000
# 4 0.0000 0.0000 0.0000 6.9195 0.0000 0.0000
# 5 0.0000 0.0000 0.0000 0.0000 6.9195 0.0000
# 6 0.0000 0.0000 0.0000 0.0000 0.0000 14.1795
#
#
#
# Elastic Compliance Matrix: (Units=1/GPa)
#
#
# Indices 1 2 3 4 5 6 
#
# 1 0.030925 -0.021553 -0.001694 0.000000 0.000000 0.000000
# 2 -0.021553 0.030925 -0.001694 0.000000 0.000000 0.000000
# 3 -0.001694 -0.001694 0.015531 0.000000 0.000000 0.000000
# 4 0.000000 0.000000 0.000000 0.144520 0.000000 0.000000
# 5 0.000000 0.000000 0.000000 0.000000 0.144520 0.000000
# 6 0.000000 0.000000 0.000000 0.000000 0.000000 0.070524
#
#
# Mechanical properties :
#
#
# Convention : Reuss Voigt Hill
#
# Bulk Modulus (GPa) = 36.36448 37.51644 36.94046
# Shear Modulus (GPa) = 10.08081 14.06525 12.07303
#
# Velocity S-wave (km/s) = 2.32835 2.75027 2.54806
# Velocity P-wave (km/s) = 5.17535 5.50098 5.34065
#
# Compressibility (1/GPa) = 0.02749936
#
# Stress axis : x y z
#
# Youngs Moduli (GPa) = 32.33630 32.33630 64.38890
#
# Poissons Ratio (x) = 0.69694 0.10907
# Poissons Ratio (y) = 0.69694 0.10907
# Poissons Ratio (z) = 0.05478 0.05478
#
# Static dielectric constant tensor:
#      x y z
#    x 1.637430 0.000000 0.000000 
#    y 0.000000 1.637430 0.000000 
#    z 0.000000 0.000000 1.659590 
# 
# From -- ./inp_files/10490.got.cif
#   From: 2010.05.17/outbox.cif.g08.bks.cpg/sg137_6_cif.got.tgz:10490.got - 2010.05.20 13:01:12.
