data_PCOD9570532
_publ_section_title
;
Structure prediction by ZEFSAII (Michael W. Deem and Ramdas Pophale) SiO2 
 PCOD9570532
Probable space group: P 42/N M C
;
_chemical_formula_sum "Si O2"
_cell_formula_units_Z 36
_cell_length_a 13.795786
_cell_length_b 13.795786
_cell_length_c 10.153070
_cell_angle_alpha 90.000000
_cell_angle_beta 90.000000
_cell_angle_gamma 90.000000
_cell_volume 1932.369964
_symmetry_space_group_name_H-M "P 42/N M C"
_symmetry_group_IT_number 137
_space_group.IT_coordinate_system_code '2'
_symmetry_cell_setting 'tetragonal'
loop_
_space_group_symop_operation_xyz
x,y,z
1/2-y,x,1/2+z
1/2-x,1/2-y,z
y,1/2-x,1/2+z
1/2+x,-y,-z
-x,1/2+y,-z
1/2+y,1/2+x,1/2-z
-y,-x,1/2-z
-x,-y,-z
1/2+y,-x,1/2-z
1/2+x,1/2+y,-z
-y,1/2+x,1/2-z
1/2-x,y,z
x,1/2-y,z
1/2-y,1/2-x,1/2+z
y,x,1/2+z
loop_
_atom_site_type_symbol
_atom_site_label
_atom_site_fract_x
_atom_site_fract_y
_atom_site_fract_z
Si Si1 0.036555 0.750000 0.803361
Si Si2 0.750000 0.250000 0.053203
Si Si3 0.956806 0.552501 0.374942
Si Si4 0.465717 0.750000 0.481840
O O1 0.147743 0.750000 0.861783
O O2 0.981993 0.846591 0.852032
O O3 0.030242 0.750000 0.643198
O O4 0.750000 0.348573 0.966913
O O5 0.979673 0.661602 0.413139
O O6 0.017214 0.517214 0.250000
O O7 0.000000 0.500000 0.500000
#
# Coordination Sequence:
#
# PCOD9570532 Si02
#       4
#     8   4  16   8
#     4  12  23  44  72 101 141 193 234 285 363 428
#     4  12  21  38  75 100 131 190 237 286 369 428
#     4  12  25  45  71 105 144 180 234 294 346 418
#     4  12  25  43  71 106 142 188 234 291 359 420
#
# _framework density 18.629971000000001
#
# number of rings (size 3 to 8) (size 9 to 14) (size 15 to 20)
#    0.000    0.000    8.889    2.000    0.000    4.444 
#    0.000    2.222    0.000    0.000    0.000    0.000 
#    0.000    0.000    0.000    0.000    0.000    0.000 
#
# Total GULP energy -200839.772830 kJ/mol
# GULP energy per Si atom -5578.882579 kJ/mol
# Density = 1.858757 g / cm^3
# Si number density = 18.629971 Si / 1000 Ang^3
#
#
#
# Elastic Constant Matrix: (Units=GPa)
#
#
# Indices 1 2 3 4 5 6 
#
# 1 214.2950 88.8557 67.1544 0.0000 0.0000 0.0000
# 2 88.8557 214.2950 67.1544 0.0000 0.0000 0.0000
# 3 67.1544 67.1544 129.3728 0.0000 0.0000 0.0000
# 4 0.0000 0.0000 0.0000 36.6123 0.0000 0.0000
# 5 0.0000 0.0000 0.0000 0.0000 36.6123 0.0000
# 6 0.0000 0.0000 0.0000 0.0000 0.0000 36.3670
#
#
#
# Elastic Compliance Matrix: (Units=1/GPa)
#
#
# Indices 1 2 3 4 5 6 
#
# 1 0.006128 -0.001844 -0.002224 0.000000 0.000000 0.000000
# 2 -0.001844 0.006128 -0.002224 0.000000 0.000000 0.000000
# 3 -0.002224 -0.002224 0.010038 0.000000 0.000000 0.000000
# 4 0.000000 0.000000 0.000000 0.027313 0.000000 0.000000
# 5 0.000000 0.000000 0.000000 0.000000 0.027313 0.000000
# 6 0.000000 0.000000 0.000000 0.000000 0.000000 0.027497
#
#
# Mechanical properties :
#
#
# Convention : Reuss Voigt Hill
#
# Bulk Modulus (GPa) = 102.97382 111.58797 107.28089
# Shear Modulus (GPa) = 41.58429 44.23819 42.91124
#
# Velocity S-wave (km/s) = 4.72966 4.87824 4.80452
# Velocity P-wave (km/s) = 9.23143 9.57897 9.40681
#
# Compressibility (1/GPa) = 0.00971121
#
# Stress axis : x y z
#
# Youngs Moduli (GPa) = 163.18742 163.18742 99.62051
#
# Poissons Ratio (x) = 0.30093 0.22152
# Poissons Ratio (y) = 0.30093 0.22152
# Poissons Ratio (z) = 0.36287 0.36287
#
# Static dielectric constant tensor:
#      x y z
#    x 1.592070 0.000000 0.000000 
#    y 0.000000 1.592070 0.000000 
#    z 0.000000 0.000000 1.618190 
# 
# From -- ./inp_files/1019.got.cif
#   From: 2010.05.17/outbox.cif.g08.bks.cpg/sg137_1_cif.got.tgz:1019.got - 2010.05.20 13:01:12.
