data_PCOD9570177
_publ_section_title
;
Structure prediction by ZEFSAII (Michael W. Deem and Ramdas Pophale) SiO2 
 PCOD9570177
Probable space group: P 42/N M C
;
_chemical_formula_sum "Si O2"
_cell_formula_units_Z 112
_cell_length_a 15.090239
_cell_length_b 15.090239
_cell_length_c 24.622119
_cell_angle_alpha 90.000000
_cell_angle_beta 90.000000
_cell_angle_gamma 90.000000
_cell_volume 5606.833537
_symmetry_space_group_name_H-M "P 42/N M C"
_symmetry_group_IT_number 137
_space_group.IT_coordinate_system_code '2'
_symmetry_cell_setting 'tetragonal'
loop_
_space_group_symop_operation_xyz
x,y,z
1/2-y,x,1/2+z
1/2-x,1/2-y,z
y,1/2-x,1/2+z
1/2+x,-y,-z
-x,1/2+y,-z
1/2+y,1/2+x,1/2-z
-y,-x,1/2-z
-x,-y,-z
1/2+y,-x,1/2-z
1/2+x,1/2+y,-z
-y,1/2+x,1/2-z
1/2-x,y,z
x,1/2-y,z
1/2-y,1/2-x,1/2+z
y,x,1/2+z
loop_
_atom_site_type_symbol
_atom_site_label
_atom_site_fract_x
_atom_site_fract_y
_atom_site_fract_z
Si Si1 0.348935 0.581770 0.300722
Si Si2 0.152184 0.849358 0.413374
Si Si3 0.019218 0.357363 0.108435
Si Si4 0.351461 0.383085 0.330177
Si Si5 0.145631 0.151248 0.702020
Si Si6 0.478949 0.095015 0.523456
Si Si7 0.017547 0.653997 0.593136
O O1 0.413273 0.586728 0.250000
O O2 0.250000 0.592417 0.277450
O O3 0.360496 0.650895 0.348625
O O4 0.353423 0.489162 0.331514
O O5 0.250000 0.891783 0.424010
O O6 0.157945 0.750000 0.434356
O O7 0.063738 0.886591 0.439107
O O8 0.005531 0.250000 0.107090
O O9 0.071958 0.385874 0.163356
O O10 0.083965 0.391037 0.059729
O O11 0.927640 0.413780 0.102947
O O12 0.250000 0.354579 0.344055
O O13 0.365601 0.361557 0.266405
O O14 0.431602 0.352308 0.367774
O O15 0.250000 0.157373 0.689611
O O16 0.105886 0.250000 0.691688
O O17 0.481446 0.152135 0.468838
O O18 0.500000 0.000000 0.500000
O O19 0.061090 0.750000 0.602600
#
# Coordination Sequence:
#
# PCOD9570177 Si02
#       7
#    16  16  16  16  16  16  16
#     4  10  20  32  51  84 121 157 194 235 294 369
#     4  10  21  37  58  85 121 161 196 239 300 372
#     4  10  23  42  63  90 124 162 206 263 321 376
#     4  10  22  38  59  88 121 159 202 254 316 376
#     4   9  19  37  61  88 116 151 198 250 308 373
#     4  10  22  39  59  85 116 153 201 255 304 365
#     4  11  24  41  63  92 123 164 214 264 314 372
#
# _framework density 19.975622999999999
#
# number of rings (size 3 to 8) (size 9 to 14) (size 15 to 20)
#    0.000    2.000    0.000    3.000    4.000    5.857 
#    0.000    0.000    0.000    0.000    0.000    2.000 
#    0.000    0.000    0.000    0.000    0.000    0.000 
#
# Total GULP energy -623823.986813 kJ/mol
# GULP energy per Si atom -5569.857025 kJ/mol
# Density = 1.993016 g / cm^3
# Si number density = 19.975623 Si / 1000 Ang^3
#
#
#
# Elastic Constant Matrix: (Units=GPa)
#
#
# Indices 1 2 3 4 5 6 
#
# 1 112.3774 37.9545 44.5221 0.0000 0.0000 0.0000
# 2 37.9545 112.3780 44.5227 0.0000 0.0000 0.0000
# 3 44.5221 44.5227 85.6595 0.0000 0.0000 0.0000
# 4 0.0000 0.0000 0.0000 39.1888 0.0000 0.0000
# 5 0.0000 0.0000 0.0000 0.0000 39.1888 0.0000
# 6 0.0000 0.0000 0.0000 0.0000 0.0000 -185.1817
#
#
#
# Elastic Compliance Matrix: (Units=1/GPa)
#
#
# Indices 1 2 3 4 5 6 
#
# 1 0.011524 -0.001913 -0.004995 0.000000 0.000000 0.000000
# 2 -0.001913 0.011524 -0.004995 0.000000 0.000000 0.000000
# 3 -0.004995 -0.004995 0.016867 0.000000 0.000000 0.000000
# 4 0.000000 0.000000 0.000000 0.025518 0.000000 0.000000
# 5 0.000000 0.000000 0.000000 0.000000 0.025518 0.000000
# 6 0.000000 0.000000 0.000000 0.000000 0.000000 -0.005400
#
#
# Mechanical properties :
#
#
# Convention : Reuss Voigt Hill
#
# Bulk Modulus (GPa) = 62.08409 62.71260 62.39835
# Shear Modulus (GPa) = 43.58240 -9.13312 17.22464
#
# Velocity S-wave (km/s) = 4.67602 -2.14057 2.93965
# Velocity P-wave (km/s) = 7.76537 5.03521 6.54424
#
# Compressibility (1/GPa) = 0.01610719
#
# Stress axis : x y z
#
# Youngs Moduli (GPa) = 86.77770 86.77766 59.28807
#
# Poissons Ratio (x) = 0.16600 0.29616
# Poissons Ratio (y) = 0.16600 0.29616
# Poissons Ratio (z) = 0.43347 0.43348
#
# Static dielectric constant tensor:
#      x y z
#    x 1.686550 0.000000 0.000000 
#    y 0.000000 1.686550 0.000000 
#    z 0.000000 0.000000 1.687130 
# 
# From -- ./inp_files/8973.got.cif
#   From: 2010.05.17/outbox.cif.g08.bks.cpg/sg137_5_cif.got.tgz:8973.got - 2010.05.20 13:01:12.
