data_PCOD9570940
_publ_section_title
;
Structure prediction by ZEFSAII (Michael W. Deem and Ramdas Pophale) SiO2 
 PCOD9570940
Probable space group: P 42/N C M
;
_chemical_formula_sum "Si O2"
_cell_formula_units_Z 48
_cell_length_a 11.711544
_cell_length_b 11.711544
_cell_length_c 15.423224
_cell_angle_alpha 90.000000
_cell_angle_beta 90.000000
_cell_angle_gamma 90.000000
_cell_volume 2115.453458
_symmetry_space_group_name_H-M "P 42/N C M"
_symmetry_group_IT_number 138
_space_group.IT_coordinate_system_code '2'
_symmetry_cell_setting 'tetragonal'
loop_
_space_group_symop_operation_xyz
x,y,z
1/2-y,x,1/2+z
1/2-x,1/2-y,z
y,1/2-x,1/2+z
1/2+x,-y,1/2-z
-x,1/2+y,1/2-z
1/2+y,1/2+x,-z
-y,-x,-z
-x,-y,-z
1/2+y,-x,1/2-z
1/2+x,1/2+y,-z
-y,1/2+x,1/2-z
1/2-x,y,1/2+z
x,1/2-y,1/2+z
1/2-y,1/2-x,z
y,x,z
loop_
_atom_site_type_symbol
_atom_site_label
_atom_site_fract_x
_atom_site_fract_y
_atom_site_fract_z
Si Si1 0.840984 0.470893 0.614381
Si Si2 0.934776 0.748439 0.279031
Si Si3 0.438180 0.767654 0.950249
O O1 0.760088 0.480295 0.697825
O O2 0.867752 0.340153 0.589422
O O3 0.957031 0.542970 0.626530
O O4 0.798736 0.510117 0.866058
O O5 0.875319 0.624682 0.290918
O O6 0.832936 0.832936 0.253917
O O7 0.983122 0.719539 0.527617
O O8 0.361001 0.861001 0.000000
#
# Coordination Sequence:
#
# PCOD9570940 Si02
#       3
#    16  16  16
#     4  10  21  40  64  91 129 178 223 277 341 399
#     4  10  23  42  66  96 131 178 233 285 338 405
#     4  11  23  40  62  97 134 173 220 279 343 407
#
# _framework density 22.690168
#
# number of rings (size 3 to 8) (size 9 to 14) (size 15 to 20)
#    0.000    1.667    0.000    6.000    4.667    2.000 
#    0.000    3.333    0.000    3.000    0.000    0.000 
#    0.000    0.000    0.000    0.000    0.000    0.000 
#
# Total GULP energy -267538.893109 kJ/mol
# GULP energy per Si atom -5573.726940 kJ/mol
# Density = 2.263852 g / cm^3
# Si number density = 22.690168 Si / 1000 Ang^3
#
#
#
# Elastic Constant Matrix: (Units=GPa)
#
#
# Indices 1 2 3 4 5 6 
#
# 1 70.7010 37.5778 42.4215 0.0000 0.0000 0.0000
# 2 37.5778 70.7010 42.4215 0.0000 0.0000 0.0000
# 3 42.4215 42.4215 173.3327 0.0000 0.0000 0.0000
# 4 0.0000 0.0000 0.0000 28.9778 0.0000 0.0000
# 5 0.0000 0.0000 0.0000 0.0000 28.9778 0.0000
# 6 0.0000 0.0000 0.0000 0.0000 0.0000 30.4514
#
#
#
# Elastic Compliance Matrix: (Units=1/GPa)
#
#
# Indices 1 2 3 4 5 6 
#
# 1 0.020809 -0.009382 -0.002797 0.000000 0.000000 0.000000
# 2 -0.009382 0.020809 -0.002797 0.000000 0.000000 0.000000
# 3 -0.002797 -0.002797 0.007138 0.000000 0.000000 0.000000
# 4 0.000000 0.000000 0.000000 0.034509 0.000000 0.000000
# 5 0.000000 0.000000 0.000000 0.000000 0.034509 0.000000
# 6 0.000000 0.000000 0.000000 0.000000 0.000000 0.032839
#
#
# Mechanical properties :
#
#
# Convention : Reuss Voigt Hill
#
# Bulk Modulus (GPa) = 53.17669 62.17515 57.67592
# Shear Modulus (GPa) = 26.76211 30.50229 28.63220
#
# Velocity S-wave (km/s) = 3.43805 3.67044 3.55614
# Velocity P-wave (km/s) = 6.26475 6.73974 6.50658
#
# Compressibility (1/GPa) = 0.01880523
#
# Stress axis : x y z
#
# Youngs Moduli (GPa) = 48.05718 48.05718 140.09278
#
# Poissons Ratio (x) = 0.45086 0.39178
# Poissons Ratio (y) = 0.45086 0.39178
# Poissons Ratio (z) = 0.13440 0.13440
#
# Static dielectric constant tensor:
#      x y z
#    x 1.944510 0.000000 0.000000 
#    y 0.000000 1.944510 0.000000 
#    z 0.000000 0.000000 1.885110 
# 
# From -- ./inp_files/2376.got.cif
#   From: 2010.05.17/outbox.cif.g08.bks.cpg/sg138_2_cif.got.tgz:2376.got - 2010.05.20 13:08:53.
