data_PCOD9570327
_publ_section_title
;
Structure prediction by ZEFSAII (Michael W. Deem and Ramdas Pophale) SiO2 
 PCOD9570327
Probable space group: P 42/N M C
;
_chemical_formula_sum "Si O2"
_cell_formula_units_Z 96
_cell_length_a 19.911143
_cell_length_b 19.911143
_cell_length_c 11.883129
_cell_angle_alpha 90.000000
_cell_angle_beta 90.000000
_cell_angle_gamma 90.000000
_cell_volume 4711.109456
_symmetry_space_group_name_H-M "P 42/N M C"
_symmetry_group_IT_number 137
_space_group.IT_coordinate_system_code '2'
_symmetry_cell_setting 'tetragonal'
loop_
_space_group_symop_operation_xyz
x,y,z
1/2-y,x,1/2+z
1/2-x,1/2-y,z
y,1/2-x,1/2+z
1/2+x,-y,-z
-x,1/2+y,-z
1/2+y,1/2+x,1/2-z
-y,-x,1/2-z
-x,-y,-z
1/2+y,-x,1/2-z
1/2+x,1/2+y,-z
-y,1/2+x,1/2-z
1/2-x,y,z
x,1/2-y,z
1/2-y,1/2-x,1/2+z
y,x,1/2+z
loop_
_atom_site_type_symbol
_atom_site_label
_atom_site_fract_x
_atom_site_fract_y
_atom_site_fract_z
Si Si1 0.095874 0.960200 0.009165
Si Si2 0.867330 0.981874 0.442020
Si Si3 0.321265 0.599457 0.417712
Si Si4 0.826630 0.965055 0.187314
Si Si5 0.999293 0.174514 0.710745
Si Si6 0.673225 0.875890 0.617712
O O1 0.133793 0.889361 0.040747
O O2 0.114576 0.001695 0.120776
O O3 0.979942 0.064791 0.017137
O O4 0.128140 0.996055 0.903116
O O5 0.858093 0.975891 0.310107
O O6 0.850488 0.912309 0.502919
O O7 0.817254 0.036912 0.495511
O O8 0.250000 0.636101 0.416576
O O9 0.331904 0.563411 0.296894
O O10 0.750000 0.989369 0.186310
O O11 0.827411 0.886246 0.155136
O O12 0.996846 0.250000 0.659098
O O13 0.064558 0.172568 0.789660
O O14 0.750000 0.850861 0.608380
#
# Coordination Sequence:
#
# PCOD9570327 Si02
#       6
#    16  16  16  16  16  16
#     4  10  21  35  59  97 124 161 201 258 315 372
#     4   9  21  41  61  83 125 161 199 246 314 380
#     4   8  16  32  59  86 119 168 203 239 306 377
#     4  12  25  41  61  89 127 162 206 266 311 366
#     4   9  17  36  59  87 124 157 199 255 308 360
#     4  10  23  42  65  86 116 166 211 250 314 387
#
# _framework density 20.377365000000001
#
# number of rings (size 3 to 8) (size 9 to 14) (size 15 to 20)
#    1.000    1.333    0.000    4.000    2.333    1.000 
#    3.000    0.000    0.000    4.000    0.000    4.667 
#    0.000    0.000    0.000    0.000    0.000    0.000 
#
# Total GULP energy -534498.257723 kJ/mol
# GULP energy per Si atom -5567.690185 kJ/mol
# Density = 2.033098 g / cm^3
# Si number density = 20.377365 Si / 1000 Ang^3
#
#
#
# Elastic Constant Matrix: (Units=GPa)
#
#
# Indices 1 2 3 4 5 6 
#
# 1 61.0973 -5.7504 7.8721 0.0000 0.0000 0.0000
# 2 -5.7504 61.0973 7.8721 0.0000 0.0000 0.0000
# 3 7.8721 7.8721 117.8760 0.0000 0.0000 0.0000
# 4 0.0000 0.0000 0.0000 -6.9500 0.0000 0.0000
# 5 0.0000 0.0000 0.0000 0.0000 -6.9500 0.0000
# 6 0.0000 0.0000 0.0000 0.0000 0.0000 93.8540
#
#
#
# Elastic Compliance Matrix: (Units=1/GPa)
#
#
# Indices 1 2 3 4 5 6 
#
# 1 0.016689 0.001729 -0.001230 0.000000 0.000000 0.000000
# 2 0.001729 0.016689 -0.001230 0.000000 0.000000 0.000000
# 3 -0.001230 -0.001230 0.008648 0.000000 0.000000 0.000000
# 4 0.000000 0.000000 0.000000 -0.143885 0.000000 0.000000
# 5 0.000000 0.000000 0.000000 0.000000 -0.143885 0.000000
# 6 0.000000 0.000000 0.000000 0.000000 0.000000 0.010655
#
#
# Mechanical properties :
#
#
# Convention : Reuss Voigt Hill
#
# Bulk Modulus (GPa) = 24.65284 28.89538 26.77411
# Shear Modulus (GPa) = -22.71616 31.32924 4.30654
#
# Velocity S-wave (km/s) = -3.34245 3.92529 1.45533
# Velocity P-wave (km/s) = 1.66479 5.89532 3.99896
#
# Compressibility (1/GPa) = 0.04056327
#
# Stress axis : x y z
#
# Youngs Moduli (GPa) = 59.92128 59.92128 115.63661
#
# Poissons Ratio (x) = -0.10361 0.14223
# Poissons Ratio (y) = -0.10361 0.14223
# Poissons Ratio (z) = 0.07370 0.07370
#
# Static dielectric constant tensor:
#      x y z
#    x 1.776320 0.000000 0.000000 
#    y 0.000000 1.776320 0.000000 
#    z 0.000000 0.000000 1.701260 
# 
# From -- ./inp_files/3764.got.cif
#   From: 2010.05.17/outbox.cif.g08.bks.cpg/sg137_2_cif.got.tgz:3764.got - 2010.05.20 13:01:12.
