data_PCOD9570767
_publ_section_title
;
Structure prediction by ZEFSAII (Michael W. Deem and Ramdas Pophale) SiO2 
 PCOD9570767
Probable space group: P 42/N C M
;
_chemical_formula_sum "Si O2"
_cell_formula_units_Z 96
_cell_length_a 24.194390
_cell_length_b 24.194390
_cell_length_c 9.152176
_cell_angle_alpha 90.000000
_cell_angle_beta 90.000000
_cell_angle_gamma 90.000000
_cell_volume 5357.395605
_symmetry_space_group_name_H-M "P 42/N C M"
_symmetry_group_IT_number 138
_space_group.IT_coordinate_system_code '2'
_symmetry_cell_setting 'tetragonal'
loop_
_space_group_symop_operation_xyz
x,y,z
1/2-y,x,1/2+z
1/2-x,1/2-y,z
y,1/2-x,1/2+z
1/2+x,-y,1/2-z
-x,1/2+y,1/2-z
1/2+y,1/2+x,-z
-y,-x,-z
-x,-y,-z
1/2+y,-x,1/2-z
1/2+x,1/2+y,-z
-y,1/2+x,1/2-z
1/2-x,y,1/2+z
x,1/2-y,1/2+z
1/2-y,1/2-x,z
y,x,z
loop_
_atom_site_type_symbol
_atom_site_label
_atom_site_fract_x
_atom_site_fract_y
_atom_site_fract_z
Si Si1 0.132151 0.804379 0.625029
Si Si2 0.190445 0.098340 0.231742
Si Si3 0.689124 0.010461 0.767115
Si Si4 0.126365 0.674811 0.634647
Si Si5 0.809578 0.598356 0.615919
Si Si6 0.309795 0.990337 0.884054
O O1 0.165763 0.834238 0.500000
O O2 0.125529 0.739557 0.592203
O O3 0.164878 0.818641 0.771053
O O4 0.071391 0.831477 0.641607
O O5 0.150470 0.150470 0.251440
O O6 0.249964 0.107777 0.308170
O O7 0.164130 0.043948 0.308205
O O8 0.197894 0.088851 0.057942
O O9 0.664251 0.070098 0.725081
O O10 0.663990 0.956113 0.691324
O O11 0.749936 0.011331 0.694245
O O12 0.693376 0.003257 0.941065
O O13 0.133782 0.633782 0.500000
O O14 0.849483 0.650517 0.635822
#
# Coordination Sequence:
#
# PCOD9570767 Si02
#       6
#    16  16  16  16  16  16
#     4  11  22  38  52  81 111 143 187 228 278 333
#     4  10  21  36  58  87 115 147 181 221 269 319
#     4  10  20  35  55  80 105 147 189 225 268 321
#     4  11  24  34  56  79 109 149 182 229 282 331
#     4  10  21  36  58  86 116 146 181 223 266 322
#     4  10  20  34  57  77 108 146 187 229 263 324
#
# _framework density 17.919153999999999
#
# number of rings (size 3 to 8) (size 9 to 14) (size 15 to 20)
#    0.000    1.667    1.667    5.000    9.333    5.000 
#    0.000    1.667    0.000    2.000    0.000    0.000 
#    0.000    0.000    0.000    0.000    0.000    0.000 
#
# Total GULP energy -534868.218453 kJ/mol
# GULP energy per Si atom -5571.543942 kJ/mol
# Density = 1.787837 g / cm^3
# Si number density = 17.919154 Si / 1000 Ang^3
#
#
#
# Elastic Constant Matrix: (Units=GPa)
#
#
# Indices 1 2 3 4 5 6 
#
# 1 79.8023 20.7480 21.0689 0.0000 0.0000 0.0000
# 2 20.7480 79.8065 21.0789 0.0000 0.0000 0.0000
# 3 21.0689 21.0789 70.1045 0.0000 0.0000 0.0000
# 4 0.0000 0.0000 0.0000 10.8524 0.0000 0.0000
# 5 0.0000 0.0000 0.0000 0.0000 10.8342 0.0000
# 6 0.0000 0.0000 0.0000 0.0000 0.0000 0.9699
#
#
#
# Elastic Compliance Matrix: (Units=1/GPa)
#
#
# Indices 1 2 3 4 5 6 
#
# 1 0.014156 -0.002777 -0.003419 0.000000 0.000000 0.000000
# 2 -0.002777 0.014156 -0.003422 0.000000 0.000000 0.000000
# 3 -0.003419 -0.003422 0.016321 0.000000 0.000000 0.000000
# 4 0.000000 0.000000 0.000000 0.092146 0.000000 0.000000
# 5 0.000000 0.000000 0.000000 0.000000 0.092300 0.000000
# 6 0.000000 0.000000 0.000000 0.000000 0.000000 1.030988
#
#
# Mechanical properties :
#
#
# Convention : Reuss Voigt Hill
#
# Bulk Modulus (GPa) = 39.37573 39.50054 39.43813
# Shear Modulus (GPa) = 3.88269 15.65248 9.76758
#
# Velocity S-wave (km/s) = 1.47360 2.95872 2.33725
# Velocity P-wave (km/s) = 4.99170 5.81065 5.41668
#
# Compressibility (1/GPa) = 0.02539635
#
# Stress axis : x y z
#
# Youngs Moduli (GPa) = 70.64284 70.64101 61.27112
#
# Poissons Ratio (x) = 0.19618 0.20950
# Poissons Ratio (y) = 0.19618 0.20966
# Poissons Ratio (z) = 0.24155 0.24172
#
# Static dielectric constant tensor:
#      x y z
#    x 1.643350 0.000000 0.000000 
#    y 0.000000 1.643340 0.000000 
#    z 0.000000 0.000000 1.735060 
# 
# From -- ./inp_files/1723.got.cif
#   From: 2010.05.17/outbox.cif.g08.bks.cpg/sg138_1_cif.got.tgz:1723.got - 2010.05.20 13:08:53.
