data_PCOD9570726
_publ_section_title
;
Structure prediction by ZEFSAII (Michael W. Deem and Ramdas Pophale) SiO2 
 PCOD9570726
Probable space group: P 42/N C M
;
_chemical_formula_sum "Si O2"
_cell_formula_units_Z 76
_cell_length_a 16.466611
_cell_length_b 16.466611
_cell_length_c 15.184183
_cell_angle_alpha 90.000000
_cell_angle_beta 90.000000
_cell_angle_gamma 90.000000
_cell_volume 4117.180255
_symmetry_space_group_name_H-M "P 42/N C M"
_symmetry_group_IT_number 138
_space_group.IT_coordinate_system_code '2'
_symmetry_cell_setting 'tetragonal'
loop_
_space_group_symop_operation_xyz
x,y,z
1/2-y,x,1/2+z
1/2-x,1/2-y,z
y,1/2-x,1/2+z
1/2+x,-y,1/2-z
-x,1/2+y,1/2-z
1/2+y,1/2+x,-z
-y,-x,-z
-x,-y,-z
1/2+y,-x,1/2-z
1/2+x,1/2+y,-z
-y,1/2+x,1/2-z
1/2-x,y,1/2+z
x,1/2-y,1/2+z
1/2-y,1/2-x,z
y,x,z
loop_
_atom_site_type_symbol
_atom_site_label
_atom_site_fract_x
_atom_site_fract_y
_atom_site_fract_z
Si Si1 0.473054 0.345506 0.856996
Si Si2 0.419271 0.769706 0.353839
Si Si3 0.250000 0.750000 0.250000
Si Si4 0.662867 0.527218 0.696742
Si Si5 0.100531 0.527656 0.162862
Si Si6 0.901446 0.401446 0.500000
O O1 0.384007 0.384007 0.853302
O O2 0.468623 0.248042 0.855297
O O3 0.517814 0.374490 0.766557
O O4 0.520450 0.386621 0.938116
O O5 0.334515 0.753602 0.303328
O O6 0.486069 0.811746 0.290081
O O7 0.454694 0.683952 0.384955
O O8 0.400023 0.827270 0.433653
O O9 0.610748 0.610748 0.705603
O O10 0.601356 0.462097 0.654624
O O11 0.053846 0.446155 0.136666
#
# Coordination Sequence:
#
# PCOD9570726 Si02
#       6
#    16  16   4  16  16   8
#     4  10  21  37  57  85 116 151 194 241 295 352
#     4  11  21  35  57  87 118 154 193 243 292 352
#     4  12  20  38  56  80 124 158 204 240 292 338
#     4  10  19  37  61  83 110 153 202 243 283 341
#     4   9  18  36  59  79 109 151 197 239 280 341
#     4  12  23  35  56  90 124 152 188 240 310 358
#
# _framework density 18.459236000000001
#
# number of rings (size 3 to 8) (size 9 to 14) (size 15 to 20)
#    0.000    1.684    4.211    1.579    0.000    1.684 
#    0.000    1.053    0.000    2.526    0.000    2.947 
#    0.000    0.000    0.000    0.000    0.000    0.000 
#
# Total GULP energy -423802.310198 kJ/mol
# GULP energy per Si atom -5576.346187 kJ/mol
# Density = 1.841722 g / cm^3
# Si number density = 18.459236 Si / 1000 Ang^3
#
#
#
# Elastic Constant Matrix: (Units=GPa)
#
#
# Indices 1 2 3 4 5 6 
#
# 1 98.7828 100.7763 22.7025 0.0000 0.0000 0.0000
# 2 100.7763 98.7828 22.7025 0.0000 0.0000 0.0000
# 3 22.7025 22.7025 28.6186 0.0000 0.0000 0.0000
# 4 0.0000 0.0000 0.0000 -2.8758 0.0000 0.0000
# 5 0.0000 0.0000 0.0000 0.0000 -2.8758 0.0000
# 6 0.0000 0.0000 0.0000 0.0000 0.0000 29.5212
#
#
#
# Elastic Compliance Matrix: (Units=1/GPa)
#
#
# Indices 1 2 3 4 5 6 
#
# 1 -0.247765 0.253879 -0.004851 0.000000 0.000000 0.000000
# 2 0.253879 -0.247765 -0.004851 0.000000 0.000000 0.000000
# 3 -0.004851 -0.004851 0.042638 0.000000 0.000000 0.000000
# 4 0.000000 0.000000 0.000000 -0.347730 0.000000 0.000000
# 5 0.000000 0.000000 0.000000 0.000000 -0.347730 0.000000
# 6 0.000000 0.000000 0.000000 0.000000 0.000000 0.033874
#
#
# Mechanical properties :
#
#
# Convention : Reuss Voigt Hill
#
# Bulk Modulus (GPa) = 28.19691 57.61633 42.90662
# Shear Modulus (GPa) = -3.14266 10.08745 3.47240
#
# Velocity S-wave (km/s) = -1.30621 2.34021 1.37303
# Velocity P-wave (km/s) = 3.61019 6.21149 5.08016
#
# Compressibility (1/GPa) = 0.03546488
#
# Stress axis : x y z
#
# Youngs Moduli (GPa) = -4.03609 -4.03609 23.45319
#
# Poissons Ratio (x) = 1.02468 0.11376
# Poissons Ratio (y) = 1.02468 0.11376
# Poissons Ratio (z) = -0.01958 -0.01958
#
# Static dielectric constant tensor:
#      x y z
#    x 1.640250 0.000000 0.000000 
#    y 0.000000 1.640250 0.000000 
#    z 0.000000 0.000000 1.646390 
# 
# From -- ./inp_files/4165.got.cif
#   From: 2010.05.17/outbox.cif.g08.bks.cpg/sg138_3_cif.got.tgz:4165.got - 2010.05.20 13:08:53.
