data_PCOD9570341
_publ_section_title
;
Structure prediction by ZEFSAII (Michael W. Deem and Ramdas Pophale) SiO2 
 PCOD9570341
Probable space group: P 42/N M C
;
_chemical_formula_sum "Si O2"
_cell_formula_units_Z 96
_cell_length_a 14.806948
_cell_length_b 14.806948
_cell_length_c 22.541928
_cell_angle_alpha 90.000000
_cell_angle_beta 90.000000
_cell_angle_gamma 90.000000
_cell_volume 4942.220988
_symmetry_space_group_name_H-M "P 42/N M C"
_symmetry_group_IT_number 137
_space_group.IT_coordinate_system_code '2'
_symmetry_cell_setting 'tetragonal'
loop_
_space_group_symop_operation_xyz
x,y,z
1/2-y,x,1/2+z
1/2-x,1/2-y,z
y,1/2-x,1/2+z
1/2+x,-y,-z
-x,1/2+y,-z
1/2+y,1/2+x,1/2-z
-y,-x,1/2-z
-x,-y,-z
1/2+y,-x,1/2-z
1/2+x,1/2+y,-z
-y,1/2+x,1/2-z
1/2-x,y,z
x,1/2-y,z
1/2-y,1/2-x,1/2+z
y,x,1/2+z
loop_
_atom_site_type_symbol
_atom_site_label
_atom_site_fract_x
_atom_site_fract_y
_atom_site_fract_z
Si Si1 0.486370 0.641661 0.555919
Si Si2 0.907125 0.645982 0.765054
Si Si3 0.641928 0.516383 0.921436
Si Si4 0.989629 0.354857 0.121480
Si Si5 0.349647 0.956382 0.201450
Si Si6 0.858206 0.852612 0.133646
O O1 0.480086 0.750000 0.563051
O O2 0.478797 0.620753 0.486363
O O3 0.412609 0.591792 0.595508
O O4 0.584676 0.610622 0.579878
O O5 0.874637 0.750000 0.773187
O O6 0.994920 0.637248 0.807158
O O7 0.846653 0.564307 0.788635
O O8 0.908293 0.629242 0.694741
O O9 0.750000 0.535350 0.919402
O O10 0.579950 0.603067 0.908226
O O11 0.621615 0.447894 0.867097
O O12 0.980323 0.250000 0.107413
O O13 0.415581 0.915581 0.250000
O O14 0.250000 0.917718 0.209584
O O15 0.750000 0.843783 0.127168
O O16 0.894792 0.750000 0.137720
#
# Coordination Sequence:
#
# PCOD9570341 Si02
#       6
#    16  16  16  16  16  16
#     4  10  21  37  58  84 120 161 195 241 296 357
#     4   9  19  35  55  81 112 142 184 241 293 340
#     4   9  20  39  59  81 113 151 196 249 303 352
#     4  10  21  36  57  83 114 156 198 241 293 356
#     4  10  21  36  58  84 112 150 190 236 292 352
#     4   9  18  32  53  84 116 147 188 237 291 345
#
# _framework density 19.424465000000001
#
# number of rings (size 3 to 8) (size 9 to 14) (size 15 to 20)
#    0.000    2.500    0.000    1.000    4.667    3.167 
#    0.000    7.500    0.000    3.000    0.000    4.667 
#    0.000    0.000    0.000    0.000    0.000    0.000 
#
# Total GULP energy -534620.900604 kJ/mol
# GULP energy per Si atom -5568.967715 kJ/mol
# Density = 1.938025 g / cm^3
# Si number density = 19.424465 Si / 1000 Ang^3
#
#
#
# Elastic Constant Matrix: (Units=GPa)
#
#
# Indices 1 2 3 4 5 6 
#
# 1 64.5333 41.0034 57.4460 0.0000 0.0000 0.0000
# 2 41.0034 64.5333 57.4460 0.0000 0.0000 0.0000
# 3 57.4460 57.4460 146.2492 0.0000 0.0000 0.0000
# 4 0.0000 0.0000 0.0000 16.2296 0.0000 0.0000
# 5 0.0000 0.0000 0.0000 0.0000 16.2296 0.0000
# 6 0.0000 0.0000 0.0000 0.0000 0.0000 11.6136
#
#
#
# Elastic Compliance Matrix: (Units=1/GPa)
#
#
# Indices 1 2 3 4 5 6 
#
# 1 0.029527 -0.012972 -0.006502 0.000000 0.000000 0.000000
# 2 -0.012972 0.029527 -0.006502 0.000000 0.000000 0.000000
# 3 -0.006502 -0.006502 0.011946 0.000000 0.000000 0.000000
# 4 0.000000 0.000000 0.000000 0.061616 0.000000 0.000000
# 5 0.000000 0.000000 0.000000 0.000000 0.061616 0.000000
# 6 0.000000 0.000000 0.000000 0.000000 0.000000 0.086106
#
#
# Mechanical properties :
#
#
# Convention : Reuss Voigt Hill
#
# Bulk Modulus (GPa) = 52.50822 65.23407 58.87114
# Shear Modulus (GPa) = 14.76495 16.77591 15.77043
#
# Velocity S-wave (km/s) = 2.76002 2.94198 2.85245
# Velocity P-wave (km/s) = 6.10308 6.72285 6.42045
#
# Compressibility (1/GPa) = 0.01904464
#
# Stress axis : x y z
#
# Youngs Moduli (GPa) = 33.86765 33.86765 83.71085
#
# Poissons Ratio (x) = 0.43935 0.54432
# Poissons Ratio (y) = 0.43935 0.54432
# Poissons Ratio (z) = 0.22022 0.22022
#
# Static dielectric constant tensor:
#      x y z
#    x 1.682940 0.000000 0.000000 
#    y 0.000000 1.682940 0.000000 
#    z 0.000000 0.000000 1.723200 
# 
# From -- ./inp_files/7862.got.cif
#   From: 2010.05.17/outbox.cif.g08.bks.cpg/sg137_4_cif.got.tgz:7862.got - 2010.05.20 13:01:12.
