data_PCOD9570030
_publ_section_title
;
Structure prediction by ZEFSAII (Michael W. Deem and Ramdas Pophale) SiO2 
 PCOD9570030
Probable space group: P 42/N M C
;
_chemical_formula_sum "Si O2"
_cell_formula_units_Z 112
_cell_length_a 14.787657
_cell_length_b 14.787657
_cell_length_c 24.670000
_cell_angle_alpha 90.000000
_cell_angle_beta 90.000000
_cell_angle_gamma 90.000000
_cell_volume 5394.707305
_symmetry_space_group_name_H-M "P 42/N M C"
_symmetry_group_IT_number 137
_space_group.IT_coordinate_system_code '2'
_symmetry_cell_setting 'tetragonal'
loop_
_space_group_symop_operation_xyz
x,y,z
1/2-y,x,1/2+z
1/2-x,1/2-y,z
y,1/2-x,1/2+z
1/2+x,-y,-z
-x,1/2+y,-z
1/2+y,1/2+x,1/2-z
-y,-x,1/2-z
-x,-y,-z
1/2+y,-x,1/2-z
1/2+x,1/2+y,-z
-y,1/2+x,1/2-z
1/2-x,y,z
x,1/2-y,z
1/2-y,1/2-x,1/2+z
y,x,1/2+z
loop_
_atom_site_type_symbol
_atom_site_label
_atom_site_fract_x
_atom_site_fract_y
_atom_site_fract_z
Si Si1 0.358550 0.846843 0.925280
Si Si2 0.412649 0.031655 0.283074
Si Si3 0.507806 0.351266 0.899364
Si Si4 0.857239 0.544202 0.036440
Si Si5 0.351371 0.357820 0.681540
Si Si6 0.852777 0.086167 0.192782
Si Si7 0.857260 0.984659 0.912948
O O1 0.250000 0.845368 0.935104
O O2 0.396003 0.750000 0.944219
O O3 0.370876 0.855362 0.860502
O O4 0.389754 0.941209 0.950978
O O5 0.374818 0.101513 0.239042
O O6 0.504074 0.077415 0.305738
O O7 0.442694 0.942694 0.250000
O O8 0.353246 0.010592 0.334878
O O9 0.530100 0.250000 0.916825
O O10 0.418533 0.388162 0.929507
O O11 0.587092 0.422932 0.910399
O O12 0.750000 0.550627 0.050282
O O13 0.867162 0.558273 0.972339
O O14 0.250000 0.396604 0.679933
O O15 0.344847 0.250000 0.673914
O O16 0.416368 0.391168 0.633519
O O17 0.863454 0.136547 0.250000
O O18 0.750000 0.051986 0.187954
O O19 0.750000 0.002050 0.904701
#
# Coordination Sequence:
#
# PCOD9570030 Si02
#       7
#    16  16  16  16  16  16  16
#     4   9  17  31  53  81 119 166 208 248 304 378
#     4  11  21  38  59  86 127 166 206 262 327 384
#     4  12  25  42  66  97 130 172 222 270 329 395
#     4  10  22  42  65  94 134 171 212 267 327 388
#     4  10  21  39  66  96 123 160 213 266 327 399
#     4  10  19  30  48  78 120 163 203 245 301 375
#     4  10  23  45  69  93 130 172 217 277 329 377
#
# _framework density 20.761088999999998
#
# number of rings (size 3 to 8) (size 9 to 14) (size 15 to 20)
#    0.000    1.714    2.857    1.714    0.000    3.000 
#    0.000    5.000    0.000    0.000    0.000    0.000 
#    0.000    0.000    0.000    0.000    0.000    0.000 
#
# Total GULP energy -625870.008034 kJ/mol
# GULP energy per Si atom -5588.125072 kJ/mol
# Density = 2.071384 g / cm^3
# Si number density = 20.761089 Si / 1000 Ang^3
#
#
#
# Elastic Constant Matrix: (Units=GPa)
#
#
# Indices 1 2 3 4 5 6 
#
# 1 85.9936 22.7765 27.9945 0.0000 0.0000 0.0000
# 2 22.7765 85.9936 27.9946 0.0000 0.0000 0.0000
# 3 27.9945 27.9946 94.9515 0.0000 0.0000 0.0000
# 4 0.0000 0.0000 0.0000 1.3170 0.0000 0.0000
# 5 0.0000 0.0000 0.0000 0.0000 1.3155 0.0000
# 6 0.0000 0.0000 0.0000 0.0000 0.0000 26.1815
#
#
#
# Elastic Compliance Matrix: (Units=1/GPa)
#
#
# Indices 1 2 3 4 5 6 
#
# 1 0.013329 -0.002490 -0.003196 0.000000 0.000000 0.000000
# 2 -0.002490 0.013329 -0.003196 0.000000 0.000000 0.000000
# 3 -0.003196 -0.003196 0.012416 0.000000 0.000000 0.000000
# 4 0.000000 0.000000 0.000000 0.759284 0.000000 0.000000
# 5 0.000000 0.000000 0.000000 0.000000 0.760158 0.000000
# 6 0.000000 0.000000 0.000000 0.000000 0.000000 0.038195
#
#
# Mechanical properties :
#
#
# Convention : Reuss Voigt Hill
#
# Bulk Modulus (GPa) = 46.92412 47.16332 47.04372
# Shear Modulus (GPa) = 3.08342 18.30769 10.69556
#
# Velocity S-wave (km/s) = 1.22001 2.97278 2.27221
# Velocity P-wave (km/s) = 4.96342 5.87790 5.43991
#
# Compressibility (1/GPa) = 0.02131100
#
# Stress axis : x y z
#
# Youngs Moduli (GPa) = 75.02697 75.02691 80.54141
#
# Poissons Ratio (x) = 0.18681 0.25737
# Poissons Ratio (y) = 0.18681 0.25737
# Poissons Ratio (z) = 0.23975 0.23975
#
# Static dielectric constant tensor:
#      x y z
#    x 1.750630 0.000000 0.000000 
#    y 0.000000 1.750630 0.000000 
#    z 0.000000 0.000000 1.753100 
# 
# From -- ./inp_files/8926.got.cif
#   From: 2010.05.17/outbox.cif.g08.bks.cpg/sg137_5_cif.got.tgz:8926.got - 2010.05.20 13:01:12.
