data_PCOD9570392
_publ_section_title
;
Structure prediction by ZEFSAII (Michael W. Deem and Ramdas Pophale) SiO2 
 PCOD9570392
Probable space group: P 42/N M C
;
_chemical_formula_sum "Si O2"
_cell_formula_units_Z 96
_cell_length_a 21.249129
_cell_length_b 21.249129
_cell_length_c 12.516006
_cell_angle_alpha 90.000000
_cell_angle_beta 90.000000
_cell_angle_gamma 90.000000
_cell_volume 5651.295658
_symmetry_space_group_name_H-M "P 42/N M C"
_symmetry_group_IT_number 137
_space_group.IT_coordinate_system_code '2'
_symmetry_cell_setting 'tetragonal'
loop_
_space_group_symop_operation_xyz
x,y,z
1/2-y,x,1/2+z
1/2-x,1/2-y,z
y,1/2-x,1/2+z
1/2+x,-y,-z
-x,1/2+y,-z
1/2+y,1/2+x,1/2-z
-y,-x,1/2-z
-x,-y,-z
1/2+y,-x,1/2-z
1/2+x,1/2+y,-z
-y,1/2+x,1/2-z
1/2-x,y,z
x,1/2-y,z
1/2-y,1/2-x,1/2+z
y,x,1/2+z
loop_
_atom_site_type_symbol
_atom_site_label
_atom_site_fract_x
_atom_site_fract_y
_atom_site_fract_z
Si Si1 0.674441 0.750000 0.130759
Si Si2 0.076986 0.675612 0.748474
Si Si3 0.367524 0.131143 0.993526
Si Si4 0.495282 0.824880 0.525578
Si Si5 0.750000 0.825013 0.877902
Si Si6 0.501411 0.904587 0.921975
Si Si7 0.564138 0.038182 0.872954
O O1 0.750000 0.750000 0.110565
O O2 0.666649 0.750000 0.254442
O O3 0.641803 0.688191 0.086122
O O4 0.146925 0.646925 0.750000
O O5 0.073871 0.750000 0.772404
O O6 0.048823 0.666157 0.629086
O O7 0.038085 0.634254 0.834927
O O8 0.311600 0.142952 0.076104
O O9 0.434386 0.131309 0.049852
O O10 0.353469 0.063280 0.942933
O O11 0.499361 0.750000 0.504156
O O12 0.475187 0.866339 0.422557
O O13 0.750000 0.750000 0.898090
O O14 0.523808 0.973048 0.878305
O O15 0.466577 0.917242 0.035423
O O16 0.561921 0.061921 0.750000
#
# Coordination Sequence:
#
# PCOD9570392 Si02
#       7
#     8  16  16  16   8  16  16
#     4  11  22  36  52  72 114 160 200 245 283 331
#     4  11  23  41  66  90 119 148 195 251 308 363
#     4  11  21  37  53  80 114 154 199 237 283 340
#     4  10  21  38  61  86 114 153 191 238 292 354
#     4  11  22  36  52  72 114 162 202 247 281 337
#     4  10  23  36  59  89 119 150 196 238 294 359
#     4  10  21  38  62  85 120 156 185 238 292 349
#
# _framework density 16.987255999999999
#
# number of rings (size 3 to 8) (size 9 to 14) (size 15 to 20)
#    0.000    1.500    4.167    0.500    8.167    1.500 
#    0.000    0.833    0.000    0.000    0.000    0.000 
#    0.000    0.000    0.000    0.000    0.000    0.000 
#
# Total GULP energy -535263.183408 kJ/mol
# GULP energy per Si atom -5575.658160 kJ/mol
# Density = 1.694859 g / cm^3
# Si number density = 16.987256 Si / 1000 Ang^3
#
#
#
# Elastic Constant Matrix: (Units=GPa)
#
#
# Indices 1 2 3 4 5 6 
#
# 1 76.2804 29.6969 32.1660 0.0000 0.0000 0.0000
# 2 29.6969 76.2804 32.1660 0.0000 0.0000 0.0000
# 3 32.1660 32.1660 117.5044 0.0000 0.0000 0.0000
# 4 0.0000 0.0000 0.0000 28.8180 0.0000 0.0000
# 5 0.0000 0.0000 0.0000 0.0000 28.8180 0.0000
# 6 0.0000 0.0000 0.0000 0.0000 0.0000 35.5364
#
#
#
# Elastic Compliance Matrix: (Units=1/GPa)
#
#
# Indices 1 2 3 4 5 6 
#
# 1 0.016392 -0.005075 -0.003098 0.000000 0.000000 0.000000
# 2 -0.005075 0.016392 -0.003098 0.000000 0.000000 0.000000
# 3 -0.003098 -0.003098 0.010206 0.000000 0.000000 0.000000
# 4 0.000000 0.000000 0.000000 0.034701 0.000000 0.000000
# 5 0.000000 0.000000 0.000000 0.000000 0.034701 0.000000
# 6 0.000000 0.000000 0.000000 0.000000 0.000000 0.028140
#
#
# Mechanical properties :
#
#
# Convention : Reuss Voigt Hill
#
# Bulk Modulus (GPa) = 48.90447 50.90257 49.90352
# Shear Modulus (GPa) = 29.43107 30.37023 29.90065
#
# Velocity S-wave (km/s) = 4.16689 4.23285 4.20000
# Velocity P-wave (km/s) = 7.21125 7.34300 7.27742
#
# Compressibility (1/GPa) = 0.02044803
#
# Stress axis : x y z
#
# Youngs Moduli (GPa) = 61.00666 61.00666 97.97846
#
# Poissons Ratio (x) = 0.30962 0.30352
# Poissons Ratio (y) = 0.30962 0.30352
# Poissons Ratio (z) = 0.18899 0.18899
#
# Static dielectric constant tensor:
#      x y z
#    x 1.570110 0.000000 0.000000 
#    y 0.000000 1.570110 0.000000 
#    z 0.000000 0.000000 1.559730 
# 
# From -- ./inp_files/3810.got.cif
#   From: 2010.05.17/outbox.cif.g08.bks.cpg/sg137_2_cif.got.tgz:3810.got - 2010.05.20 13:01:12.
