data_PCOD9570296
_publ_section_title
;
Structure prediction by ZEFSAII (Michael W. Deem and Ramdas Pophale) SiO2 
 PCOD9570296
Probable space group: P 42/N M C
;
_chemical_formula_sum "Si O2"
_cell_formula_units_Z 80
_cell_length_a 17.353763
_cell_length_b 17.353763
_cell_length_c 13.949766
_cell_angle_alpha 90.000000
_cell_angle_beta 90.000000
_cell_angle_gamma 90.000000
_cell_volume 4201.015139
_symmetry_space_group_name_H-M "P 42/N M C"
_symmetry_group_IT_number 137
_space_group.IT_coordinate_system_code '2'
_symmetry_cell_setting 'tetragonal'
loop_
_space_group_symop_operation_xyz
x,y,z
1/2-y,x,1/2+z
1/2-x,1/2-y,z
y,1/2-x,1/2+z
1/2+x,-y,-z
-x,1/2+y,-z
1/2+y,1/2+x,1/2-z
-y,-x,1/2-z
-x,-y,-z
1/2+y,-x,1/2-z
1/2+x,1/2+y,-z
-y,1/2+x,1/2-z
1/2-x,y,z
x,1/2-y,z
1/2-y,1/2-x,1/2+z
y,x,1/2+z
loop_
_atom_site_type_symbol
_atom_site_label
_atom_site_fract_x
_atom_site_fract_y
_atom_site_fract_z
Si Si1 0.569503 0.900786 0.635928
Si Si2 0.036140 0.843410 0.473872
Si Si3 0.335643 0.250000 0.365215
Si Si4 0.069503 0.400786 0.135928
Si Si5 0.843410 0.036140 0.526128
Si Si6 0.250000 0.335643 0.634786
O O1 0.494357 0.877114 0.575655
O O2 0.623217 0.828516 0.609108
O O3 0.556670 0.904638 0.750000
O O4 0.613749 0.976981 0.599461
O O5 0.032248 0.750000 0.469525
O O6 0.120665 0.879335 0.456858
O O7 0.976981 0.886251 0.400539
O O8 0.250000 0.250000 0.400303
O O9 0.334686 0.250000 0.250000
O O10 0.123217 0.328516 0.109109
O O11 0.994358 0.377114 0.075654
O O12 0.750000 0.032247 0.530475
O O13 0.250000 0.250000 0.599697
#
# Coordination Sequence:
#
# PCOD9570296 Si02
#       6
#    16  16   8  16  16   8
#     4  10  20  38  61  88 120 152 192 244 298 355
#     4  11  24  40  59  87 119 157 204 245 291 349
#     4   9  16  28  52  84 116 148 178 219 286 356
#     4  10  20  38  61  88 120 152 192 244 298 355
#     4  11  24  40  59  87 119 157 204 245 291 349
#     4   9  16  28  52  84 116 148 178 219 286 356
#
# _framework density 19.043016999999999
#
# number of rings (size 3 to 8) (size 9 to 14) (size 15 to 20)
#    0.000    1.800    2.000    3.600    0.000    6.000 
#    0.000    0.000    0.000    0.000    0.000    5.600 
#    0.000    0.000    0.000    0.000    0.000    0.000 
#
# Total GULP energy -445958.635990 kJ/mol
# GULP energy per Si atom -5574.482950 kJ/mol
# Density = 1.899967 g / cm^3
# Si number density = 19.043017 Si / 1000 Ang^3
#
#
#
# Elastic Constant Matrix: (Units=GPa)
#
#
# Indices 1 2 3 4 5 6 
#
# 1 91.1590 83.1597 13.4713 0.0000 0.0000 0.0000
# 2 83.1597 91.1590 13.4713 0.0000 0.0000 0.0000
# 3 13.4713 13.4713 102.5354 0.0000 0.0000 0.0000
# 4 0.0000 0.0000 0.0000 15.7818 0.0000 0.0000
# 5 0.0000 0.0000 0.0000 0.0000 15.7818 0.0000
# 6 0.0000 0.0000 0.0000 0.0000 0.0000 35.6601
#
#
#
# Elastic Compliance Matrix: (Units=1/GPa)
#
#
# Indices 1 2 3 4 5 6 
#
# 1 0.065434 -0.059578 -0.000769 0.000000 0.000000 0.000000
# 2 -0.059578 0.065434 -0.000769 0.000000 0.000000 0.000000
# 3 -0.000769 -0.000769 0.009955 0.000000 0.000000 0.000000
# 4 0.000000 0.000000 0.000000 0.063364 0.000000 0.000000
# 5 0.000000 0.000000 0.000000 0.000000 0.063364 0.000000
# 6 0.000000 0.000000 0.000000 0.000000 0.000000 0.028043
#
#
# Mechanical properties :
#
#
# Convention : Reuss Voigt Hill
#
# Bulk Modulus (GPa) = 53.79618 56.11757 54.95687
# Shear Modulus (GPa) = 11.79185 25.09482 18.44333
#
# Velocity S-wave (km/s) = 2.49112 3.63408 3.11546
# Velocity P-wave (km/s) = 6.04858 6.86597 6.47020
#
# Compressibility (1/GPa) = 0.01858868
#
# Stress axis : x y z
#
# Youngs Moduli (GPa) = 15.28269 15.28269 100.45324
#
# Poissons Ratio (x) = 0.91051 0.07728
# Poissons Ratio (y) = 0.91051 0.07728
# Poissons Ratio (z) = 0.01176 0.01176
#
# Static dielectric constant tensor:
#      x y z
#    x 1.744700 0.000000 0.000000 
#    y 0.000000 1.744700 0.000000 
#    z 0.000000 0.000000 1.682800 
# 
# From -- ./inp_files/5003.got.cif
#   From: 2010.05.17/outbox.cif.g08.bks.cpg/sg137_3_cif.got.tgz:5003.got - 2010.05.20 13:01:12.
