data_PCOD9570221
_publ_section_title
;
Structure prediction by ZEFSAII (Michael W. Deem and Ramdas Pophale) SiO2 
 PCOD9570221
Probable space group: P 42/N M C
;
_chemical_formula_sum "Si O2"
_cell_formula_units_Z 112
_cell_length_a 15.725763
_cell_length_b 15.725763
_cell_length_c 24.778828
_cell_angle_alpha 90.000000
_cell_angle_beta 90.000000
_cell_angle_gamma 90.000000
_cell_volume 6127.794796
_symmetry_space_group_name_H-M "P 42/N M C"
_symmetry_group_IT_number 137
_space_group.IT_coordinate_system_code '2'
_symmetry_cell_setting 'tetragonal'
loop_
_space_group_symop_operation_xyz
x,y,z
1/2-y,x,1/2+z
1/2-x,1/2-y,z
y,1/2-x,1/2+z
1/2+x,-y,-z
-x,1/2+y,-z
1/2+y,1/2+x,1/2-z
-y,-x,1/2-z
-x,-y,-z
1/2+y,-x,1/2-z
1/2+x,1/2+y,-z
-y,1/2+x,1/2-z
1/2-x,y,z
x,1/2-y,z
1/2-y,1/2-x,1/2+z
y,x,1/2+z
loop_
_atom_site_type_symbol
_atom_site_label
_atom_site_fract_x
_atom_site_fract_y
_atom_site_fract_z
Si Si1 0.409027 0.153309 0.957375
Si Si2 0.596942 0.153935 0.695854
Si Si3 0.344817 0.602636 0.418537
Si Si4 0.651407 0.966416 0.950072
Si Si5 0.069352 0.060133 0.742015
Si Si6 0.348247 0.349391 0.839590
Si Si7 0.653843 0.849649 0.349362
O O1 0.383675 0.250000 0.974832
O O2 0.506385 0.157142 0.938801
O O3 0.358442 0.130906 0.902772
O O4 0.398119 0.081802 0.002548
O O5 0.652236 0.152236 0.750000
O O6 0.580735 0.250000 0.677654
O O7 0.640586 0.107166 0.645910
O O8 0.509773 0.110533 0.714969
O O9 0.250000 0.639925 0.430062
O O10 0.432124 0.639959 0.443591
O O11 0.750000 0.949113 0.960822
O O12 0.630573 0.916905 0.894441
O O13 0.093009 0.096635 0.800266
O O14 0.142887 0.085937 0.700454
O O15 0.035516 0.964485 0.750000
O O16 0.250000 0.360378 0.823860
O O17 0.370888 0.250000 0.833119
O O18 0.750000 0.856276 0.371381
O O19 0.642856 0.750000 0.332084
#
# Coordination Sequence:
#
# PCOD9570221 Si02
#       7
#    16  16  16  16  16  16  16
#     4  10  21  38  58  82 110 144 186 233 287 340
#     4  11  21  33  50  75 109 150 192 227 267 323
#     4  11  23  38  55  80 115 153 190 230 277 336
#     4  11  22  37  58  84 112 147 189 234 281 335
#     4  11  21  33  51  77 113 149 185 227 281 342
#     4  10  20  34  55  82 111 145 186 234 287 340
#     4  10  20  35  57  84 114 150 191 238 292 342
#
# _framework density 18.277373999999998
#
# number of rings (size 3 to 8) (size 9 to 14) (size 15 to 20)
#    0.000    1.429    1.429    5.571    0.000    5.571 
#    0.000    0.000    0.000    0.000    0.000    0.000 
#    0.000    4.571    0.000    0.000    0.000    0.000 
#
# Total GULP energy -624757.327530 kJ/mol
# GULP energy per Si atom -5578.190424 kJ/mol
# Density = 1.823577 g / cm^3
# Si number density = 18.277374 Si / 1000 Ang^3
#
#
#
# Elastic Constant Matrix: (Units=GPa)
#
#
# Indices 1 2 3 4 5 6 
#
# 1 75.7377 16.0772 37.6578 0.0000 0.0000 0.0000
# 2 16.0772 75.7388 37.6580 0.0000 0.0000 0.0000
# 3 37.6578 37.6580 97.2718 0.0000 0.0000 0.0000
# 4 0.0000 0.0000 0.0000 142.4117 0.0000 0.0000
# 5 0.0000 0.0000 0.0000 0.0000 142.7851 0.0000
# 6 0.0000 0.0000 0.0000 0.0000 0.0000 23.3677
#
#
#
# Elastic Compliance Matrix: (Units=1/GPa)
#
#
# Indices 1 2 3 4 5 6 
#
# 1 0.016361 -0.000401 -0.006179 0.000000 0.000000 0.000000
# 2 -0.000401 0.016360 -0.006179 0.000000 0.000000 0.000000
# 3 -0.006179 -0.006179 0.015065 0.000000 0.000000 0.000000
# 4 0.000000 0.000000 0.000000 0.007022 0.000000 0.000000
# 5 0.000000 0.000000 0.000000 0.000000 0.007004 0.000000
# 6 0.000000 0.000000 0.000000 0.000000 0.000000 0.042794
#
#
# Mechanical properties :
#
#
# Convention : Reuss Voigt Hill
#
# Bulk Modulus (GPa) = 44.90484 47.94826 46.42655
# Shear Modulus (GPa) = 36.35187 72.20326 54.27757
#
# Velocity S-wave (km/s) = 4.46455 6.29205 5.45537
# Velocity P-wave (km/s) = 7.15529 8.89254 8.07079
#
# Compressibility (1/GPa) = 0.02226931
#
# Stress axis : x y z
#
# Youngs Moduli (GPa) = 61.12218 61.12307 66.38118
#
# Poissons Ratio (x) = 0.02450 0.41015
# Poissons Ratio (y) = 0.02450 0.41015
# Poissons Ratio (z) = 0.37766 0.37766
#
# Static dielectric constant tensor:
#      x y z
#    x 1.663310 0.000000 0.000000 
#    y 0.000000 1.663310 0.000000 
#    z 0.000000 0.000000 1.650300 
# 
# From -- ./inp_files/8948.got.cif
#   From: 2010.05.17/outbox.cif.g08.bks.cpg/sg137_5_cif.got.tgz:8948.got - 2010.05.20 13:01:12.
