data_PCOD9570932
_publ_section_title
;
Structure prediction by ZEFSAII (Michael W. Deem and Ramdas Pophale) SiO2 
 PCOD9570932
Probable space group: P 42/N C M
;
_chemical_formula_sum "Si O2"
_cell_formula_units_Z 48
_cell_length_a 11.531899
_cell_length_b 11.531899
_cell_length_c 15.322163
_cell_angle_alpha 90.000000
_cell_angle_beta 90.000000
_cell_angle_gamma 90.000000
_cell_volume 2037.613166
_symmetry_space_group_name_H-M "P 42/N C M"
_symmetry_group_IT_number 138
_space_group.IT_coordinate_system_code '2'
_symmetry_cell_setting 'tetragonal'
loop_
_space_group_symop_operation_xyz
x,y,z
1/2-y,x,1/2+z
1/2-x,1/2-y,z
y,1/2-x,1/2+z
1/2+x,-y,1/2-z
-x,1/2+y,1/2-z
1/2+y,1/2+x,-z
-y,-x,-z
-x,-y,-z
1/2+y,-x,1/2-z
1/2+x,1/2+y,-z
-y,1/2+x,1/2-z
1/2-x,y,1/2+z
x,1/2-y,1/2+z
1/2-y,1/2-x,z
y,x,z
loop_
_atom_site_type_symbol
_atom_site_label
_atom_site_fract_x
_atom_site_fract_y
_atom_site_fract_z
Si Si1 0.755463 0.938903 0.255052
Si Si2 0.385780 0.780377 0.609049
Si Si3 0.016582 0.296673 0.557436
O O1 0.639453 0.860548 0.251986
O O2 0.859148 0.859148 0.219017
O O3 0.779201 0.963198 0.356710
O O4 0.744982 0.053616 0.198092
O O5 0.250000 0.750000 0.605399
O O6 0.461181 0.735931 0.526816
O O7 0.386012 0.918746 0.593158
O O8 0.132852 0.367149 0.535199
#
# Coordination Sequence:
#
# PCOD9570932 Si02
#       3
#    16  16  16
#     4  10  23  42  67  99 132 176 229 278 336 403
#     4  11  23  39  64  95 133 174 221 273 338 398
#     4  10  21  39  63  91 129 179 225 273 331 393
#
# _framework density 23.556972999999999
#
# number of rings (size 3 to 8) (size 9 to 14) (size 15 to 20)
#    0.000    1.667    0.000    6.000    4.667    2.667 
#    0.000    3.333    0.000   12.000    0.000    0.000 
#    0.000    0.000    0.000    0.000    0.000    0.000 
#
# Total GULP energy -268273.995680 kJ/mol
# GULP energy per Si atom -5589.041577 kJ/mol
# Density = 2.350336 g / cm^3
# Si number density = 23.556973 Si / 1000 Ang^3
#
#
#
# Elastic Constant Matrix: (Units=GPa)
#
#
# Indices 1 2 3 4 5 6 
#
# 1 62.0952 46.4828 65.8124 0.0000 0.0000 0.0000
# 2 46.4828 62.0952 65.8124 0.0000 0.0000 0.0000
# 3 65.8124 65.8124 159.1018 0.0000 0.0000 0.0000
# 4 0.0000 0.0000 0.0000 37.5316 0.0000 0.0000
# 5 0.0000 0.0000 0.0000 0.0000 37.5316 0.0000
# 6 0.0000 0.0000 0.0000 0.0000 0.0000 27.5566
#
#
#
# Elastic Compliance Matrix: (Units=1/GPa)
#
#
# Indices 1 2 3 4 5 6 
#
# 1 0.041263 -0.022789 -0.007642 0.000000 0.000000 0.000000
# 2 -0.022789 0.041263 -0.007642 0.000000 0.000000 0.000000
# 3 -0.007642 -0.007642 0.012607 0.000000 0.000000 0.000000
# 4 0.000000 0.000000 0.000000 0.026644 0.000000 0.000000
# 5 0.000000 0.000000 0.000000 0.000000 0.026644 0.000000
# 6 0.000000 0.000000 0.000000 0.000000 0.000000 0.036289
#
#
# Mechanical properties :
#
#
# Convention : Reuss Voigt Hill
#
# Bulk Modulus (GPa) = 52.66496 71.05638 61.86067
# Shear Modulus (GPa) = 18.71371 27.53626 23.12498
#
# Velocity S-wave (km/s) = 2.82157 3.42266 3.13655
# Velocity P-wave (km/s) = 5.74630 6.77116 6.27967
#
# Compressibility (1/GPa) = 0.01898796
#
# Stress axis : x y z
#
# Youngs Moduli (GPa) = 24.23498 24.23498 79.31995
#
# Poissons Ratio (x) = 0.55229 0.60613
# Poissons Ratio (y) = 0.55229 0.60613
# Poissons Ratio (z) = 0.18519 0.18519
#
# Static dielectric constant tensor:
#      x y z
#    x 1.935560 0.000000 0.000000 
#    y 0.000000 1.935560 0.000000 
#    z 0.000000 0.000000 1.947620 
# 
# From -- ./inp_files/4725.got.cif
#   From: 2010.05.17/outbox.cif.g08.bks.cpg/sg138_3_cif.got.tgz:4725.got - 2010.05.20 13:08:53.
