data_PCOD9570718
_publ_section_title
;
Structure prediction by ZEFSAII (Michael W. Deem and Ramdas Pophale) SiO2 
 PCOD9570718
Probable space group: P 42/N C M
;
_chemical_formula_sum "Si O2"
_cell_formula_units_Z 68
_cell_length_a 11.295179
_cell_length_b 11.295179
_cell_length_c 26.180748
_cell_angle_alpha 90.000000
_cell_angle_beta 90.000000
_cell_angle_gamma 90.000000
_cell_volume 3340.167808
_symmetry_space_group_name_H-M "P 42/N C M"
_symmetry_group_IT_number 138
_space_group.IT_coordinate_system_code '2'
_symmetry_cell_setting 'tetragonal'
loop_
_space_group_symop_operation_xyz
x,y,z
1/2-y,x,1/2+z
1/2-x,1/2-y,z
y,1/2-x,1/2+z
1/2+x,-y,1/2-z
-x,1/2+y,1/2-z
1/2+y,1/2+x,-z
-y,-x,-z
-x,-y,-z
1/2+y,-x,1/2-z
1/2+x,1/2+y,-z
-y,1/2+x,1/2-z
1/2-x,y,1/2+z
x,1/2-y,1/2+z
1/2-y,1/2-x,z
y,x,z
loop_
_atom_site_type_symbol
_atom_site_label
_atom_site_fract_x
_atom_site_fract_y
_atom_site_fract_z
Si Si1 0.712919 0.974919 0.883025
Si Si2 0.194289 0.491010 0.501404
Si Si3 0.250000 0.750000 0.250000
Si Si4 0.415761 0.603091 0.174989
Si Si5 0.387777 0.788559 0.089788
O O1 0.644121 0.855880 0.870813
O O2 0.819377 0.009291 0.846039
O O3 0.623343 0.086383 0.882532
O O4 0.760043 0.972771 0.941355
O O5 0.128403 0.371598 0.484617
O O6 0.291154 0.537905 0.461957
O O7 0.094151 0.594151 0.500000
O O8 0.348371 0.684401 0.215773
O O9 0.530947 0.530947 0.192138
O O10 0.440744 0.688188 0.126568
O O11 0.250000 0.750000 0.079580
#
# Coordination Sequence:
#
# PCOD9570718 Si02
#       5
#    16  16   4  16  16
#     4  11  23  38  60  94 133 170 214 264 320 384
#     4  11  20  31  54  87 125 169 214 254 300 373
#     4  12  24  48  68 106 124 164 220 276 340 410
#     4  11  23  43  71  95 123 164 213 268 326 390
#     4  10  19  36  59  87 121 166 214 249 306 380
#
# _framework density 20.358256999999998
#
# number of rings (size 3 to 8) (size 9 to 14) (size 15 to 20)
#    0.000    1.176    8.235    2.118    0.000    4.706 
#    0.000    0.000    0.000    3.529    0.000    0.000 
#    0.000    0.000    0.000    0.000    0.000    0.000 
#
# Total GULP energy -379913.254642 kJ/mol
# GULP energy per Si atom -5586.959627 kJ/mol
# Density = 2.031192 g / cm^3
# Si number density = 20.358257 Si / 1000 Ang^3
#
#
#
# Elastic Constant Matrix: (Units=GPa)
#
#
# Indices 1 2 3 4 5 6 
#
# 1 40.3474 40.4507 7.7143 0.0000 0.0000 0.0000
# 2 40.4507 40.3474 7.7143 0.0000 0.0000 0.0000
# 3 7.7143 7.7143 54.3440 0.0000 0.0000 0.0000
# 4 0.0000 0.0000 0.0000 7.7532 0.0000 0.0000
# 5 0.0000 0.0000 0.0000 0.0000 7.7532 0.0000
# 6 0.0000 0.0000 0.0000 0.0000 0.0000 48.8630
#
#
#
# Elastic Compliance Matrix: (Units=1/GPa)
#
#
# Indices 1 2 3 4 5 6 
#
# 1 -4.834157 4.846879 -0.001806 0.000000 0.000000 0.000000
# 2 4.846879 -4.834157 -0.001806 0.000000 0.000000 0.000000
# 3 -0.001806 -0.001806 0.018914 0.000000 0.000000 0.000000
# 4 0.000000 0.000000 0.000000 0.128980 0.000000 0.000000
# 5 0.000000 0.000000 0.000000 0.000000 0.128980 0.000000
# 6 0.000000 0.000000 0.000000 0.000000 0.000000 0.020465
#
#
# Mechanical properties :
#
#
# Convention : Reuss Voigt Hill
#
# Bulk Modulus (GPa) = 26.92999 27.42195 27.17597
# Shear Modulus (GPa) = -0.26253 18.15117 8.94432
#
# Velocity S-wave (km/s) = -0.35950 2.98919 2.09833
# Velocity P-wave (km/s) = 3.61724 5.04109 4.38731
#
# Compressibility (1/GPa) = 0.03713333
#
# Stress axis : x y z
#
# Youngs Moduli (GPa) = -0.20686 -0.20686 52.87097
#
# Poissons Ratio (x) = 1.00263 0.09548
# Poissons Ratio (y) = 1.00263 0.09548
# Poissons Ratio (z) = -0.00037 -0.00037
#
# Static dielectric constant tensor:
#      x y z
#    x 1.756730 0.000000 0.000000 
#    y 0.000000 1.756730 0.000000 
#    z 0.000000 0.000000 1.717830 
# 
# From -- ./inp_files/7417.got.cif
#   From: 2010.05.17/outbox.cif.g08.bks.cpg/sg138_4_cif.got.tgz:7417.got - 2010.05.20 13:08:53.
