data_PCOD9570565
_publ_section_title
;
Structure prediction by ZEFSAII (Michael W. Deem and Ramdas Pophale) SiO2 
 PCOD9570565
Probable space group: P 42/N C M
;
_chemical_formula_sum "Si O2"
_cell_formula_units_Z 112
_cell_length_a 18.241321
_cell_length_b 18.241321
_cell_length_c 22.028382
_cell_angle_alpha 90.000000
_cell_angle_beta 90.000000
_cell_angle_gamma 90.000000
_cell_volume 7329.851411
_symmetry_space_group_name_H-M "P 42/N C M"
_symmetry_group_IT_number 138
_space_group.IT_coordinate_system_code '2'
_symmetry_cell_setting 'tetragonal'
loop_
_space_group_symop_operation_xyz
x,y,z
1/2-y,x,1/2+z
1/2-x,1/2-y,z
y,1/2-x,1/2+z
1/2+x,-y,1/2-z
-x,1/2+y,1/2-z
1/2+y,1/2+x,-z
-y,-x,-z
-x,-y,-z
1/2+y,-x,1/2-z
1/2+x,1/2+y,-z
-y,1/2+x,1/2-z
1/2-x,y,1/2+z
x,1/2-y,1/2+z
1/2-y,1/2-x,z
y,x,z
loop_
_atom_site_type_symbol
_atom_site_label
_atom_site_fract_x
_atom_site_fract_y
_atom_site_fract_z
Si Si1 0.331478 0.746241 0.159289
Si Si2 0.861910 0.517162 0.735145
Si Si3 0.562107 0.059956 0.154616
Si Si4 0.965809 0.295674 0.769817
Si Si5 0.118402 0.832438 0.434239
Si Si6 0.912623 0.033238 0.836970
Si Si7 0.110578 0.663768 0.433933
O O1 0.250000 0.750000 0.183333
O O2 0.389317 0.756275 0.212850
O O3 0.335303 0.814428 0.113024
O O4 0.342512 0.675634 0.116363
O O5 0.905707 0.594293 0.737570
O O6 0.883964 0.470664 0.795179
O O7 0.773944 0.520426 0.729231
O O8 0.901878 0.468600 0.683084
O O9 0.640109 0.029244 0.179355
O O10 0.566431 0.105174 0.092636
O O11 0.506938 0.993063 0.151095
O O12 0.965397 0.341649 0.707416
O O13 0.147501 0.852500 0.500000
O O14 0.089553 0.749473 0.435865
O O15 0.885413 0.046872 0.905068
O O16 0.958828 0.958828 0.828290
O O17 0.138227 0.638227 0.500000
#
# Coordination Sequence:
#
# PCOD9570565 Si02
#       7
#    16  16  16  16  16  16  16
#     4   9  18  29  43  71 101 128 157 196 234 292
#     4   9  17  31  48  69  95 121 156 202 251 302
#     4   9  19  32  46  66  96 129 160 198 248 298
#     4  10  17  32  50  68  94 128 161 205 249 296
#     4  10  18  29  47  69  97 129 163 196 238 284
#     4  10  21  34  48  69  98 132 168 204 247 296
#     4  11  19  31  49  68 103 137 164 199 238 287
#
# _framework density 15.279983
#
# number of rings (size 3 to 8) (size 9 to 14) (size 15 to 20)
#    0.000    2.286    2.857    2.143    0.000    1.714 
#    0.000    0.000    0.000    1.714    0.000    0.000 
#    0.000    0.000    0.000    0.000    0.000    0.000 
#
# Total GULP energy -623673.099632 kJ/mol
# GULP energy per Si atom -5568.509818 kJ/mol
# Density = 1.524520 g / cm^3
# Si number density = 15.279983 Si / 1000 Ang^3
#
#
#
# Elastic Constant Matrix: (Units=GPa)
#
#
# Indices 1 2 3 4 5 6 
#
# 1 71.1553 33.8902 30.3550 0.0000 0.0000 0.0000
# 2 33.8902 71.1553 30.3548 0.0000 0.0000 0.0000
# 3 30.3550 30.3548 58.8251 0.0000 0.0000 0.0000
# 4 0.0000 0.0000 0.0000 11.9928 0.0000 0.0000
# 5 0.0000 0.0000 0.0000 0.0000 11.9929 0.0000
# 6 0.0000 0.0000 0.0000 0.0000 0.0000 15.2741
#
#
#
# Elastic Compliance Matrix: (Units=1/GPa)
#
#
# Indices 1 2 3 4 5 6 
#
# 1 0.020200 -0.006635 -0.007000 0.000000 0.000000 0.000000
# 2 -0.006635 0.020200 -0.007000 0.000000 0.000000 0.000000
# 3 -0.007000 -0.007000 0.024224 0.000000 0.000000 0.000000
# 4 0.000000 0.000000 0.000000 0.083383 0.000000 0.000000
# 5 0.000000 0.000000 0.000000 0.000000 0.083383 0.000000
# 6 0.000000 0.000000 0.000000 0.000000 0.000000 0.065470
#
#
# Mechanical properties :
#
#
# Convention : Reuss Voigt Hill
#
# Bulk Modulus (GPa) = 42.81831 43.37063 43.09447
# Shear Modulus (GPa) = 14.45444 14.95433 14.70438
#
# Velocity S-wave (km/s) = 3.07900 3.13179 3.10551
# Velocity P-wave (km/s) = 6.38151 6.44384 6.41275
#
# Compressibility (1/GPa) = 0.02335450
#
# Stress axis : x y z
#
# Youngs Moduli (GPa) = 49.50494 49.50509 41.28183
#
# Poissons Ratio (x) = 0.32846 0.28897
# Poissons Ratio (y) = 0.32845 0.28897
# Poissons Ratio (z) = 0.34653 0.34653
#
# Static dielectric constant tensor:
#      x y z
#    x 1.536810 0.000000 0.000000 
#    y 0.000000 1.536810 0.000000 
#    z 0.000000 0.000000 1.515250 
# 
# From -- ./inp_files/6461.got.cif
#   From: 2010.05.17/outbox.cif.g08.bks.cpg/sg138_4_cif.got.tgz:6461.got - 2010.05.20 13:08:53.
