data_PCOD9570285
_publ_section_title
;
Structure prediction by ZEFSAII (Michael W. Deem and Ramdas Pophale) SiO2 
 PCOD9570285
Probable space group: P 42/N M C
;
_chemical_formula_sum "Si O2"
_cell_formula_units_Z 56
_cell_length_a 13.476617
_cell_length_b 13.476617
_cell_length_c 12.696735
_cell_angle_alpha 90.000000
_cell_angle_beta 90.000000
_cell_angle_gamma 90.000000
_cell_volume 2305.970927
_symmetry_space_group_name_H-M "P 42/N M C"
_symmetry_group_IT_number 137
_space_group.IT_coordinate_system_code '2'
_symmetry_cell_setting 'tetragonal'
loop_
_space_group_symop_operation_xyz
x,y,z
1/2-y,x,1/2+z
1/2-x,1/2-y,z
y,1/2-x,1/2+z
1/2+x,-y,-z
-x,1/2+y,-z
1/2+y,1/2+x,1/2-z
-y,-x,1/2-z
-x,-y,-z
1/2+y,-x,1/2-z
1/2+x,1/2+y,-z
-y,1/2+x,1/2-z
1/2-x,y,z
x,1/2-y,z
1/2-y,1/2-x,1/2+z
y,x,1/2+z
loop_
_atom_site_type_symbol
_atom_site_label
_atom_site_fract_x
_atom_site_fract_y
_atom_site_fract_z
Si Si1 0.463678 0.640962 0.097973
Si Si2 0.750000 0.937848 0.014116
Si Si3 0.750000 0.866323 0.242529
Si Si4 0.750000 0.145314 0.962203
Si Si5 0.047641 0.082974 0.117044
O O1 0.503842 0.750000 0.134674
O O2 0.492154 0.529526 0.135296
O O3 0.345847 0.641286 0.111775
O O4 0.479678 0.634391 0.971601
O O5 0.750000 0.871553 0.116763
O O6 0.750000 0.054039 0.041334
O O7 0.652617 0.923388 0.944841
O O8 0.750000 0.750000 0.275684
O O9 0.845225 0.924985 0.287569
O O10 0.750000 0.250000 0.018954
#
# Coordination Sequence:
#
# PCOD9570285 Si02
#       5
#    16   8   8   8  16
#     4   9  17  33  62  85 117 161 200 243 301 365
#     4  10  22  38  60  90 120 160 199 250 311 365
#     4  12  24  36  60  88 126 154 201 257 312 366
#     4   8  16  34  60  88 118 154 198 237 301 363
#     4  10  20  37  58  88 122 157 202 249 305 368
#
# _framework density 24.284782
#
# number of rings (size 3 to 8) (size 9 to 14) (size 15 to 20)
#    0.000    2.286    2.857    0.000    2.000    0.000 
#    0.000   12.857    3.143    0.000    3.714    0.000 
#    0.000    0.000    0.000    0.000    0.000    0.000 
#
# Total GULP energy -312372.581258 kJ/mol
# GULP energy per Si atom -5578.081808 kJ/mol
# Density = 2.422951 g / cm^3
# Si number density = 24.284782 Si / 1000 Ang^3
#
#
#
# Elastic Constant Matrix: (Units=GPa)
#
#
# Indices 1 2 3 4 5 6 
#
# 1 128.9029 21.8219 31.7007 0.0000 0.0000 0.0000
# 2 21.8219 128.9029 31.7007 0.0000 0.0000 0.0000
# 3 31.7007 31.7007 75.3564 0.0000 0.0000 0.0000
# 4 0.0000 0.0000 0.0000 15.3208 0.0000 0.0000
# 5 0.0000 0.0000 0.0000 0.0000 15.3208 0.0000
# 6 0.0000 0.0000 0.0000 0.0000 0.0000 27.8950
#
#
#
# Elastic Compliance Matrix: (Units=1/GPa)
#
#
# Indices 1 2 3 4 5 6 
#
# 1 0.008700 -0.000639 -0.003391 0.000000 0.000000 0.000000
# 2 -0.000639 0.008700 -0.003391 0.000000 0.000000 0.000000
# 3 -0.003391 -0.003391 0.016123 0.000000 0.000000 0.000000
# 4 0.000000 0.000000 0.000000 0.065271 0.000000 0.000000
# 5 0.000000 0.000000 0.000000 0.000000 0.065271 0.000000
# 6 0.000000 0.000000 0.000000 0.000000 0.000000 0.035849
#
#
# Mechanical properties :
#
#
# Convention : Reuss Voigt Hill
#
# Bulk Modulus (GPa) = 53.53004 55.95652 54.74328
# Shear Modulus (GPa) = 22.62626 28.23660 25.43143
#
# Velocity S-wave (km/s) = 3.05570 3.41358 3.23958
# Velocity P-wave (km/s) = 5.87709 6.21519 6.04850
#
# Compressibility (1/GPa) = 0.01868110
#
# Stress axis : x y z
#
# Youngs Moduli (GPa) = 114.94404 114.94404 62.02171
#
# Poissons Ratio (x) = 0.07343 0.21032
# Poissons Ratio (y) = 0.07343 0.21032
# Poissons Ratio (z) = 0.38979 0.38979
#
# Static dielectric constant tensor:
#      x y z
#    x 2.048020 0.000000 0.000000 
#    y 0.000000 2.048020 0.000000 
#    z 0.000000 0.000000 1.887060 
# 
# From -- ./inp_files/3184.got.cif
#   From: 2010.05.17/outbox.cif.g08.bks.cpg/sg137_2_cif.got.tgz:3184.got - 2010.05.20 13:01:12.
