data_PCOD9570344
_publ_section_title
;
Structure prediction by ZEFSAII (Michael W. Deem and Ramdas Pophale) SiO2 
 PCOD9570344
Probable space group: P 42/N M C
;
_chemical_formula_sum "Si O2"
_cell_formula_units_Z 96
_cell_length_a 14.607284
_cell_length_b 14.607284
_cell_length_c 20.517699
_cell_angle_alpha 90.000000
_cell_angle_beta 90.000000
_cell_angle_gamma 90.000000
_cell_volume 4377.917774
_symmetry_space_group_name_H-M "P 42/N M C"
_symmetry_group_IT_number 137
_space_group.IT_coordinate_system_code '2'
_symmetry_cell_setting 'tetragonal'
loop_
_space_group_symop_operation_xyz
x,y,z
1/2-y,x,1/2+z
1/2-x,1/2-y,z
y,1/2-x,1/2+z
1/2+x,-y,-z
-x,1/2+y,-z
1/2+y,1/2+x,1/2-z
-y,-x,1/2-z
-x,-y,-z
1/2+y,-x,1/2-z
1/2+x,1/2+y,-z
-y,1/2+x,1/2-z
1/2-x,y,z
x,1/2-y,z
1/2-y,1/2-x,1/2+z
y,x,1/2+z
loop_
_atom_site_type_symbol
_atom_site_label
_atom_site_fract_x
_atom_site_fract_y
_atom_site_fract_z
Si Si1 0.008472 0.145769 0.743758
Si Si2 0.855849 0.145802 0.462800
Si Si3 0.900484 0.147942 0.320853
Si Si4 0.145589 0.389405 0.859124
Si Si5 0.542479 0.860739 0.006903
Si Si6 0.139693 0.144339 0.127699
O O1 0.976418 0.250000 0.730474
O O2 0.073108 0.150060 0.807615
O O3 0.075097 0.114510 0.685119
O O4 0.925442 0.074558 0.750000
O O5 0.750000 0.154718 0.482476
O O6 0.895681 0.250000 0.465641
O O7 0.856109 0.111447 0.387392
O O8 0.897643 0.062167 0.504012
O O9 0.895109 0.104891 0.250000
O O10 0.861864 0.250000 0.313241
O O11 0.005746 0.152447 0.339025
O O12 0.250000 0.352185 0.857285
O O13 0.101817 0.385836 0.930585
O O14 0.536016 0.750000 0.007985
O O15 0.594350 0.883551 0.940179
O O16 0.250000 0.142646 0.121331
O O17 0.113956 0.250000 0.143629
#
# Coordination Sequence:
#
# PCOD9570344 Si02
#       6
#    16  16  16  16  16  16
#     4  11  25  45  67  93 125 168 218 271 326 382
#     4   9  19  36  57  86 127 173 216 257 310 382
#     4  10  21  36  58  91 128 168 211 259 320 388
#     4  11  24  40  64  98 132 164 207 267 335 398
#     4  10  21  37  63  93 125 169 212 260 320 387
#     4   9  19  38  66  98 128 162 208 262 327 398
#
# _framework density 21.928232000000001
#
# number of rings (size 3 to 8) (size 9 to 14) (size 15 to 20)
#    0.000    2.000    0.000    2.500    4.667    4.333 
#    0.000    0.833    0.000    2.000    0.000    0.000 
#    0.000    0.000    0.000    0.000    0.000    0.000 
#
# Total GULP energy -536114.924947 kJ/mol
# GULP energy per Si atom -5584.530468 kJ/mol
# Density = 2.187832 g / cm^3
# Si number density = 21.928232 Si / 1000 Ang^3
#
#
#
# Elastic Constant Matrix: (Units=GPa)
#
#
# Indices 1 2 3 4 5 6 
#
# 1 94.9314 61.5812 62.2911 0.0000 0.0000 0.0000
# 2 61.5812 94.9277 62.2904 0.0000 0.0000 0.0000
# 3 62.2911 62.2904 145.4106 0.0000 0.0000 0.0000
# 4 0.0000 0.0000 0.0000 34.4560 0.0000 0.0000
# 5 0.0000 0.0000 0.0000 0.0000 34.4565 0.0000
# 6 0.0000 0.0000 0.0000 0.0000 0.0000 68.4369
#
#
#
# Elastic Compliance Matrix: (Units=1/GPa)
#
#
# Indices 1 2 3 4 5 6 
#
# 1 0.019840 -0.010146 -0.004153 0.000000 0.000000 0.000000
# 2 -0.010146 0.019841 -0.004153 0.000000 0.000000 0.000000
# 3 -0.004153 -0.004153 0.010435 0.000000 0.000000 0.000000
# 4 0.000000 0.000000 0.000000 0.029023 0.000000 0.000000
# 5 0.000000 0.000000 0.000000 0.000000 0.029022 0.000000
# 6 0.000000 0.000000 0.000000 0.000000 0.000000 0.014612
#
#
# Mechanical properties :
#
#
# Convention : Reuss Voigt Hill
#
# Bulk Modulus (GPa) = 75.68312 78.62167 77.15239
# Shear Modulus (GPa) = 30.47251 37.41036 33.94144
#
# Velocity S-wave (km/s) = 3.73184 4.13490 3.93853
# Velocity P-wave (km/s) = 7.29094 7.66345 7.47951
#
# Compressibility (1/GPa) = 0.01321299
#
# Stress axis : x y z
#
# Youngs Moduli (GPa) = 50.40217 50.39978 95.82753
#
# Poissons Ratio (x) = 0.51133 0.39798
# Poissons Ratio (y) = 0.51136 0.39801
# Poissons Ratio (z) = 0.20933 0.20933
#
# Static dielectric constant tensor:
#      x y z
#    x 1.821260 0.000000 0.000000 
#    y 0.000000 1.821260 0.000000 
#    z 0.000000 0.000000 1.807020 
# 
# From -- ./inp_files/7810.got.cif
#   From: 2010.05.17/outbox.cif.g08.bks.cpg/sg137_4_cif.got.tgz:7810.got - 2010.05.20 13:01:12.
