data_PCOD9570578
_publ_section_title
;
Structure prediction by ZEFSAII (Michael W. Deem and Ramdas Pophale) SiO2 
 PCOD9570578
Probable space group: P 42/N C M
;
_chemical_formula_sum "Si O2"
_cell_formula_units_Z 96
_cell_length_a 16.117300
_cell_length_b 16.117300
_cell_length_c 20.908827
_cell_angle_alpha 90.000000
_cell_angle_beta 90.000000
_cell_angle_gamma 90.000000
_cell_volume 5431.430776
_symmetry_space_group_name_H-M "P 42/N C M"
_symmetry_group_IT_number 138
_space_group.IT_coordinate_system_code '2'
_symmetry_cell_setting 'tetragonal'
loop_
_space_group_symop_operation_xyz
x,y,z
1/2-y,x,1/2+z
1/2-x,1/2-y,z
y,1/2-x,1/2+z
1/2+x,-y,1/2-z
-x,1/2+y,1/2-z
1/2+y,1/2+x,-z
-y,-x,-z
-x,-y,-z
1/2+y,-x,1/2-z
1/2+x,1/2+y,-z
-y,1/2+x,1/2-z
1/2-x,y,1/2+z
x,1/2-y,1/2+z
1/2-y,1/2-x,z
y,x,z
loop_
_atom_site_type_symbol
_atom_site_label
_atom_site_fract_x
_atom_site_fract_y
_atom_site_fract_z
Si Si1 0.812528 0.954194 0.588083
Si Si2 0.749591 0.610119 0.218406
Si Si3 0.387084 0.250771 0.038901
Si Si4 0.928581 0.431586 0.848779
Si Si5 0.319959 0.634984 0.236691
Si Si6 0.748615 0.498914 0.845078
O O1 0.877835 0.877835 0.587203
O O2 0.757583 0.937719 0.651145
O O3 0.766334 0.946499 0.521157
O O4 0.866709 0.035933 0.599824
O O5 0.830649 0.669352 0.225037
O O6 0.670780 0.670780 0.217971
O O7 0.745162 0.549019 0.278417
O O8 0.332406 0.167595 0.054231
O O9 0.319943 0.319943 0.020420
O O10 0.438905 0.279991 0.100058
O O11 0.914662 0.381203 0.783169
O O12 0.840166 0.469694 0.865683
O O13 0.996605 0.503396 0.840809
O O14 0.228532 0.645540 0.268815
O O15 0.304873 0.582479 0.172448
#
# Coordination Sequence:
#
# PCOD9570578 Si02
#       6
#    16  16  16  16  16  16
#     4   9  18  32  48  69 101 141 177 207 250 317
#     4  10  18  29  47  72 102 137 175 213 261 321
#     4  10  20  33  49  74 109 144 175 211 263 321
#     4  10  19  32  52  79 105 130 171 220 269 312
#     4   9  19  35  54  76 104 140 178 214 256 313
#     4  11  20  31  50  78 106 132 171 227 273 303
#
# _framework density 17.674901999999999
#
# number of rings (size 3 to 8) (size 9 to 14) (size 15 to 20)
#    0.000    2.167    1.667    2.500    0.000    4.667 
#    0.000    2.500    0.000    1.000    0.000    5.833 
#    0.000    0.000    0.000    0.000    0.000    0.000 
#
# Total GULP energy -535323.774774 kJ/mol
# GULP energy per Si atom -5576.289321 kJ/mol
# Density = 1.763467 g / cm^3
# Si number density = 17.674902 Si / 1000 Ang^3
#
#
#
# Elastic Constant Matrix: (Units=GPa)
#
#
# Indices 1 2 3 4 5 6 
#
# 1 38.7103 1.1434 -1.5112 0.0000 0.0000 0.0000
# 2 1.1434 38.7103 -1.5112 0.0000 0.0000 0.0000
# 3 -1.5112 -1.5112 45.2977 0.0000 0.0000 0.0000
# 4 0.0000 0.0000 0.0000 19.2629 0.0000 0.0000
# 5 0.0000 0.0000 0.0000 0.0000 19.2629 0.0000
# 6 0.0000 0.0000 0.0000 0.0000 0.0000 17.6091
#
#
#
# Elastic Compliance Matrix: (Units=1/GPa)
#
#
# Indices 1 2 3 4 5 6 
#
# 1 0.025887 -0.000732 0.000839 0.000000 0.000000 0.000000
# 2 -0.000732 0.025887 0.000839 0.000000 0.000000 0.000000
# 3 0.000839 0.000839 0.022132 0.000000 0.000000 0.000000
# 4 0.000000 0.000000 0.000000 0.051913 0.000000 0.000000
# 5 0.000000 0.000000 0.000000 0.000000 0.051913 0.000000
# 6 0.000000 0.000000 0.000000 0.000000 0.000000 0.056789
#
#
# Mechanical properties :
#
#
# Convention : Reuss Voigt Hill
#
# Bulk Modulus (GPa) = 13.19262 13.21780 13.20521
# Shear Modulus (GPa) = 19.38769 19.53347 19.46058
#
# Velocity S-wave (km/s) = 3.31555 3.32799 3.32178
# Velocity P-wave (km/s) = 4.70504 4.71825 4.71165
#
# Compressibility (1/GPa) = 0.07579998
#
# Stress axis : x y z
#
# Youngs Moduli (GPa) = 38.62896 38.62896 45.18309
#
# Poissons Ratio (x) = 0.02827 -0.03792
# Poissons Ratio (y) = 0.02827 -0.03792
# Poissons Ratio (z) = -0.03242 -0.03242
#
# Static dielectric constant tensor:
#      x y z
#    x 1.620860 0.000000 0.000000 
#    y 0.000000 1.620860 0.000000 
#    z 0.000000 0.000000 1.588440 
# 
# From -- ./inp_files/5231.got.cif
#   From: 2010.05.17/outbox.cif.g08.bks.cpg/sg138_3_cif.got.tgz:5231.got - 2010.05.20 13:08:53.
