data_PCOD9570706
_publ_section_title
;
Structure prediction by ZEFSAII (Michael W. Deem and Ramdas Pophale) SiO2 
 PCOD9570706
Probable space group: P 42/N C M
;
_chemical_formula_sum "Si O2"
_cell_formula_units_Z 72
_cell_length_a 18.795808
_cell_length_b 18.795808
_cell_length_c 12.761520
_cell_angle_alpha 90.000000
_cell_angle_beta 90.000000
_cell_angle_gamma 90.000000
_cell_volume 4508.420392
_symmetry_space_group_name_H-M "P 42/N C M"
_symmetry_group_IT_number 138
_space_group.IT_coordinate_system_code '2'
_symmetry_cell_setting 'tetragonal'
loop_
_space_group_symop_operation_xyz
x,y,z
1/2-y,x,1/2+z
1/2-x,1/2-y,z
y,1/2-x,1/2+z
1/2+x,-y,1/2-z
-x,1/2+y,1/2-z
1/2+y,1/2+x,-z
-y,-x,-z
-x,-y,-z
1/2+y,-x,1/2-z
1/2+x,1/2+y,-z
-y,1/2+x,1/2-z
1/2-x,y,1/2+z
x,1/2-y,1/2+z
1/2-y,1/2-x,z
y,x,z
loop_
_atom_site_type_symbol
_atom_site_label
_atom_site_fract_x
_atom_site_fract_y
_atom_site_fract_z
Si Si1 0.010201 0.489800 0.875737
Si Si2 0.995955 0.117576 0.972082
Si Si3 0.061854 0.232299 0.124885
Si Si4 0.124334 0.375667 0.795364
Si Si5 0.130038 0.015602 0.730879
Si Si6 0.308257 0.308257 0.502581
O O1 0.067370 0.432631 0.838675
O O2 0.028082 0.566646 0.824425
O O3 0.000000 0.500000 0.000000
O O4 0.058827 0.058827 0.984165
O O5 0.018179 0.182576 0.045565
O O6 0.994353 0.139241 0.850781
O O7 0.923463 0.076538 0.000000
O O8 0.087702 0.183370 0.221357
O O9 0.129896 0.268117 0.067655
O O10 0.015893 0.297535 0.168205
O O11 0.159082 0.340919 0.897484
O O12 0.095567 0.095567 0.730377
O O13 0.250000 0.250000 0.473535
#
# Coordination Sequence:
#
# PCOD9570706 Si02
#       6
#     8  16  16   8  16   8
#     4  10  20  39  55  76 105 151 191 256 285 347
#     4  10  19  35  55  79 112 158 203 245 287 346
#     4  12  21  35  53  82 112 161 192 233 288 362
#     4  12  24  33  58  76 109 156 209 219 291 358
#     4   9  20  34  55  74 117 146 195 245 293 335
#     4  12  24  36  47  79 124 158 184 230 281 355
#
# _framework density 15.970116000000001
#
# number of rings (size 3 to 8) (size 9 to 14) (size 15 to 20)
#    0.667    0.667    3.333    4.000    1.556    1.778 
#    0.000    0.000    0.000    0.000    0.000    0.000 
#    0.000   72.000    0.000    0.000    0.000    0.000 
#
# Total GULP energy -401525.639983 kJ/mol
# GULP energy per Si atom -5576.745000 kJ/mol
# Density = 1.593377 g / cm^3
# Si number density = 15.970116 Si / 1000 Ang^3
#
#
#
# Elastic Constant Matrix: (Units=GPa)
#
#
# Indices 1 2 3 4 5 6 
#
# 1 84.6778 79.1519 77.6104 0.0000 0.0000 0.0000
# 2 79.1519 84.6748 77.6092 0.0000 0.0000 0.0000
# 3 77.6104 77.6092 152.4709 0.0000 0.0000 0.0000
# 4 0.0000 0.0000 0.0000 29.3347 0.0000 0.0000
# 5 0.0000 0.0000 0.0000 0.0000 29.3345 0.0000
# 6 0.0000 0.0000 0.0000 0.0000 0.0000 36.9871
#
#
#
# Elastic Compliance Matrix: (Units=1/GPa)
#
#
# Indices 1 2 3 4 5 6 
#
# 1 0.096400 -0.084612 -0.006001 0.000000 0.000000 0.000000
# 2 -0.084612 0.096404 -0.006001 0.000000 0.000000 0.000000
# 3 -0.006001 -0.006001 0.012668 0.000000 0.000000 0.000000
# 4 0.000000 0.000000 0.000000 0.034089 0.000000 0.000000
# 5 0.000000 0.000000 0.000000 0.000000 0.034090 0.000000
# 6 0.000000 0.000000 0.000000 0.000000 0.000000 0.027036
#
#
# Mechanical properties :
#
#
# Convention : Reuss Voigt Hill
#
# Bulk Modulus (GPa) = 81.68008 87.84073 84.76041
# Shear Modulus (GPa) = 10.04025 24.96141 17.50083
#
# Velocity S-wave (km/s) = 2.51009 3.95778 3.31395
# Velocity P-wave (km/s) = 7.72382 8.71825 8.23606
#
# Compressibility (1/GPa) = 0.01224289
#
# Stress axis : x y z
#
# Youngs Moduli (GPa) = 10.37349 10.37307 78.93927
#
# Poissons Ratio (x) = 0.87768 0.47370
# Poissons Ratio (y) = 0.87772 0.47375
# Poissons Ratio (z) = 0.06225 0.06225
#
# Static dielectric constant tensor:
#      x y z
#    x 1.528050 0.000000 0.000000 
#    y 0.000000 1.528050 0.000000 
#    z 0.000000 0.000000 1.535670 
# 
# From -- ./inp_files/2874.got.cif
#   From: 2010.05.17/outbox.cif.g08.bks.cpg/sg138_2_cif.got.tgz:2874.got - 2010.05.20 13:08:53.
