data_PCOD9570275
_publ_section_title
;
Structure prediction by ZEFSAII (Michael W. Deem and Ramdas Pophale) SiO2 
 PCOD9570275
Probable space group: P 42/N M C
;
_chemical_formula_sum "Si O2"
_cell_formula_units_Z 80
_cell_length_a 14.180419
_cell_length_b 14.180419
_cell_length_c 18.468152
_cell_angle_alpha 90.000000
_cell_angle_beta 90.000000
_cell_angle_gamma 90.000000
_cell_volume 3713.655104
_symmetry_space_group_name_H-M "P 42/N M C"
_symmetry_group_IT_number 137
_space_group.IT_coordinate_system_code '2'
_symmetry_cell_setting 'tetragonal'
loop_
_space_group_symop_operation_xyz
x,y,z
1/2-y,x,1/2+z
1/2-x,1/2-y,z
y,1/2-x,1/2+z
1/2+x,-y,-z
-x,1/2+y,-z
1/2+y,1/2+x,1/2-z
-y,-x,1/2-z
-x,-y,-z
1/2+y,-x,1/2-z
1/2+x,1/2+y,-z
-y,1/2+x,1/2-z
1/2-x,y,z
x,1/2-y,z
1/2-y,1/2-x,1/2+z
y,x,1/2+z
loop_
_atom_site_type_symbol
_atom_site_label
_atom_site_fract_x
_atom_site_fract_y
_atom_site_fract_z
Si Si1 0.016232 0.641288 0.952481
Si Si2 0.146433 0.358583 0.308516
Si Si3 0.955527 0.550179 0.313510
Si Si4 0.644905 0.357816 0.662015
Si Si5 0.537899 0.860110 0.544893
O O1 0.039416 0.750000 0.964215
O O2 0.984171 0.620449 0.870178
O O3 0.101146 0.567826 0.966394
O O4 0.927562 0.606999 0.000014
O O5 0.250000 0.374192 0.341117
O O6 0.139777 0.250000 0.285403
O O7 0.135737 0.421022 0.237010
O O8 0.069445 0.371385 0.371290
O O9 0.975357 0.475357 0.250000
O O10 0.052772 0.580022 0.353813
O O11 0.645463 0.354538 0.750000
O O12 0.750000 0.391475 0.639779
O O13 0.633561 0.250000 0.636447
O O14 0.546692 0.750000 0.525958
#
# Coordination Sequence:
#
# PCOD9570275 Si02
#       5
#    16  16  16  16  16
#     4  11  24  43  68  97 130 168 216 273 328 385
#     4  10  20  36  61  91 125 168 217 268 324 388
#     4  11  20  35  57  93 129 169 209 264 321 384
#     4   8  15  28  46  72 113 161 201 242 300 370
#     4  10  23  45  68  92 127 172 219 268 326 392
#
# _framework density 21.542120000000001
#
# number of rings (size 3 to 8) (size 9 to 14) (size 15 to 20)
#    0.000    2.000    2.000    2.400    0.000    4.000 
#    0.000    1.000    0.000    0.000    0.000    0.000 
#    0.000    0.000    0.000    0.000    0.000    0.000 
#
# Total GULP energy -446785.022517 kJ/mol
# GULP energy per Si atom -5584.812781 kJ/mol
# Density = 2.149309 g / cm^3
# Si number density = 21.542120 Si / 1000 Ang^3
#
#
#
# Elastic Constant Matrix: (Units=GPa)
#
#
# Indices 1 2 3 4 5 6 
#
# 1 119.2503 15.5201 14.5872 0.0000 0.0000 0.0000
# 2 15.5201 119.2506 14.5873 0.0000 0.0000 0.0000
# 3 14.5872 14.5873 65.3130 0.0000 0.0000 0.0000
# 4 0.0000 0.0000 0.0000 25.3271 0.0000 0.0000
# 5 0.0000 0.0000 0.0000 0.0000 25.3270 0.0000
# 6 0.0000 0.0000 0.0000 0.0000 0.0000 20.2175
#
#
#
# Elastic Compliance Matrix: (Units=1/GPa)
#
#
# Indices 1 2 3 4 5 6 
#
# 1 0.008719 -0.000922 -0.001741 0.000000 0.000000 0.000000
# 2 -0.000922 0.008719 -0.001741 0.000000 0.000000 0.000000
# 3 -0.001741 -0.001741 0.016089 0.000000 0.000000 0.000000
# 4 0.000000 0.000000 0.000000 0.039483 0.000000 0.000000
# 5 0.000000 0.000000 0.000000 0.000000 0.039484 0.000000
# 6 0.000000 0.000000 0.000000 0.000000 0.000000 0.049462
#
#
# Mechanical properties :
#
#
# Convention : Reuss Voigt Hill
#
# Bulk Modulus (GPa) = 40.45780 43.68922 42.07351
# Shear Modulus (GPa) = 27.93243 31.44892 29.69068
#
# Velocity S-wave (km/s) = 3.60480 3.82498 3.71652
# Velocity P-wave (km/s) = 6.01229 6.31128 6.16360
#
# Compressibility (1/GPa) = 0.02471711
#
# Stress axis : x y z
#
# Youngs Moduli (GPa) = 114.69610 114.69629 62.15518
#
# Poissons Ratio (x) = 0.10572 0.10824
# Poissons Ratio (y) = 0.10571 0.10824
# Poissons Ratio (z) = 0.19973 0.19973
#
# Static dielectric constant tensor:
#      x y z
#    x 1.830220 0.000000 0.000000 
#    y 0.000000 1.830220 0.000000 
#    z 0.000000 0.000000 1.790260 
# 
# From -- ./inp_files/7591.got.cif
#   From: 2010.05.17/outbox.cif.g08.bks.cpg/sg137_4_cif.got.tgz:7591.got - 2010.05.20 13:01:12.
