data_PCOD9570703
_publ_section_title
;
Structure prediction by ZEFSAII (Michael W. Deem and Ramdas Pophale) SiO2 
 PCOD9570703
Probable space group: P 42/N C M
;
_chemical_formula_sum "Si O2"
_cell_formula_units_Z 56
_cell_length_a 11.156971
_cell_length_b 11.156971
_cell_length_c 24.553487
_cell_angle_alpha 90.000000
_cell_angle_beta 90.000000
_cell_angle_gamma 90.000000
_cell_volume 3056.369001
_symmetry_space_group_name_H-M "P 42/N C M"
_symmetry_group_IT_number 138
_space_group.IT_coordinate_system_code '2'
_symmetry_cell_setting 'tetragonal'
loop_
_space_group_symop_operation_xyz
x,y,z
1/2-y,x,1/2+z
1/2-x,1/2-y,z
y,1/2-x,1/2+z
1/2+x,-y,1/2-z
-x,1/2+y,1/2-z
1/2+y,1/2+x,-z
-y,-x,-z
-x,-y,-z
1/2+y,-x,1/2-z
1/2+x,1/2+y,-z
-y,1/2+x,1/2-z
1/2-x,y,1/2+z
x,1/2-y,1/2+z
1/2-y,1/2-x,z
y,x,z
loop_
_atom_site_type_symbol
_atom_site_label
_atom_site_fract_x
_atom_site_fract_y
_atom_site_fract_z
Si Si1 0.200695 0.492670 0.640669
Si Si2 0.555175 0.944826 0.662902
Si Si3 0.307961 0.513287 0.526190
Si Si4 0.148147 0.351854 0.222972
Si Si5 0.147748 0.352253 0.452670
O O1 0.133541 0.366460 0.625153
O O2 0.259040 0.540624 0.586031
O O3 0.294377 0.458922 0.687393
O O4 0.089308 0.570806 0.661496
O O5 0.608557 0.891444 0.717525
O O6 0.607839 0.892162 0.607211
O O7 0.374466 0.625535 0.500000
O O8 0.407083 0.407083 0.531946
O O9 0.205006 0.460908 0.487066
O O10 0.250000 0.250000 0.228387
O O11 0.250000 0.250000 0.448076
#
# Coordination Sequence:
#
# PCOD9570703 Si02
#       5
#    16   8  16   8   8
#     4   9  19  36  63  80 112 155 190 243 290 347
#     4  10  22  37  57  90 113 153 196 242 295 348
#     4  10  19  34  60  93 116 152 202 238 290 358
#     4  10  19  39  65  82 105 159 204 238 292 356
#     4  10  20  37  59  82 122 152 191 251 291 353
#
# _framework density 18.322395
#
# number of rings (size 3 to 8) (size 9 to 14) (size 15 to 20)
#    0.857    1.429    2.857    0.429    0.000    2.286 
#    5.143    2.857    0.000    0.000    0.000    0.000 
#    0.000    0.000    0.000    0.000    0.000    0.000 
#
# Total GULP energy -312230.731998 kJ/mol
# GULP energy per Si atom -5575.548786 kJ/mol
# Density = 1.828069 g / cm^3
# Si number density = 18.322395 Si / 1000 Ang^3
#
#
#
# Elastic Constant Matrix: (Units=GPa)
#
#
# Indices 1 2 3 4 5 6 
#
# 1 51.1164 43.3866 61.4983 0.0000 0.0000 0.0000
# 2 43.3866 51.1165 61.4991 0.0000 0.0000 0.0000
# 3 61.4983 61.4991 189.5533 0.0000 0.0000 0.0000
# 4 0.0000 0.0000 0.0000 23.2675 0.0000 0.0000
# 5 0.0000 0.0000 0.0000 0.0000 23.2666 0.0000
# 6 0.0000 0.0000 0.0000 0.0000 0.0000 22.8139
#
#
#
# Elastic Compliance Matrix: (Units=1/GPa)
#
#
# Indices 1 2 3 4 5 6 
#
# 1 0.073842 -0.055527 -0.005942 0.000000 0.000000 0.000000
# 2 -0.055527 0.073843 -0.005943 0.000000 0.000000 0.000000
# 3 -0.005942 -0.005943 0.009131 0.000000 0.000000 0.000000
# 4 0.000000 0.000000 0.000000 0.042978 0.000000 0.000000
# 5 0.000000 0.000000 0.000000 0.000000 0.042980 0.000000
# 6 0.000000 0.000000 0.000000 0.000000 0.000000 0.043833
#
#
# Mechanical properties :
#
#
# Convention : Reuss Voigt Hill
#
# Bulk Modulus (GPa) = 45.46797 69.39491 57.43144
# Shear Modulus (GPa) = 11.66150 22.22973 16.94562
#
# Velocity S-wave (km/s) = 2.52556 3.48696 3.04445
# Velocity P-wave (km/s) = 5.77702 7.35992 6.61598
#
# Compressibility (1/GPa) = 0.02199351
#
# Stress axis : x y z
#
# Youngs Moduli (GPa) = 13.54248 13.54227 109.51161
#
# Poissons Ratio (x) = 0.75196 0.65071
# Poissons Ratio (y) = 0.75197 0.65081
# Poissons Ratio (z) = 0.08047 0.08048
#
# Static dielectric constant tensor:
#      x y z
#    x 1.646870 0.000000 0.000000 
#    y 0.000000 1.646870 0.000000 
#    z 0.000000 0.000000 1.576080 
# 
# From -- ./inp_files/6692.got.cif
#   From: 2010.05.17/outbox.cif.g08.bks.cpg/sg138_4_cif.got.tgz:6692.got - 2010.05.20 13:08:53.
