data_PCOD9570952
_publ_section_title
;
Structure prediction by ZEFSAII (Michael W. Deem and Ramdas Pophale) SiO2 
 PCOD9570952
Probable space group: P 42/N C M
;
_chemical_formula_sum "Si O2"
_cell_formula_units_Z 56
_cell_length_a 10.192811
_cell_length_b 10.192811
_cell_length_c 25.703729
_cell_angle_alpha 90.000000
_cell_angle_beta 90.000000
_cell_angle_gamma 90.000000
_cell_volume 2670.447698
_symmetry_space_group_name_H-M "P 42/N C M"
_symmetry_group_IT_number 138
_space_group.IT_coordinate_system_code '2'
_symmetry_cell_setting 'tetragonal'
loop_
_space_group_symop_operation_xyz
x,y,z
1/2-y,x,1/2+z
1/2-x,1/2-y,z
y,1/2-x,1/2+z
1/2+x,-y,1/2-z
-x,1/2+y,1/2-z
1/2+y,1/2+x,-z
-y,-x,-z
-x,-y,-z
1/2+y,-x,1/2-z
1/2+x,1/2+y,-z
-y,1/2+x,1/2-z
1/2-x,y,1/2+z
x,1/2-y,1/2+z
1/2-y,1/2-x,z
y,x,z
loop_
_atom_site_type_symbol
_atom_site_label
_atom_site_fract_x
_atom_site_fract_y
_atom_site_fract_z
Si Si1 0.890693 0.249622 0.156998
Si Si2 0.145675 0.354326 0.435095
Si Si3 0.931981 0.344116 0.944200
Si Si4 0.636978 0.636978 0.280256
Si Si5 0.445923 0.445923 0.835016
O O1 0.750000 0.250000 0.185219
O O2 0.866916 0.331997 0.103604
O O3 0.010223 0.310412 0.188942
O O4 0.921621 0.096872 0.151060
O O5 0.250000 0.250000 0.456631
O O6 0.202762 0.496605 0.448310
O O7 0.142611 0.357390 0.372560
O O8 0.048136 0.451865 0.936445
O O9 0.869082 0.369082 0.000000
O O10 0.750000 0.750000 0.277768
O O11 0.590180 0.590180 0.223586
#
# Coordination Sequence:
#
# PCOD9570952 Si02
#       5
#    16   8  16   8   8
#     4  12  26  45  71 106 144 184 246 304 360 441
#     4  10  21  43  66  99 138 181 239 292 365 429
#     4  10  22  43  72 102 140 190 237 302 369 440
#     4  12  29  50  73 105 148 201 252 302 374 437
#     4  12  27  42  72 104 138 190 239 302 364 434
#
# _framework density 20.970268000000001
#
# number of rings (size 3 to 8) (size 9 to 14) (size 15 to 20)
#    0.000    0.857    5.714    0.429    4.000    1.714 
#    0.000    2.857    0.000    0.000    0.000    0.000 
#    0.000    0.000    0.000    0.000    0.000    0.000 
#
# Total GULP energy -312553.117889 kJ/mol
# GULP energy per Si atom -5581.305677 kJ/mol
# Density = 2.092254 g / cm^3
# Si number density = 20.970268 Si / 1000 Ang^3
#
#
#
# Elastic Constant Matrix: (Units=GPa)
#
#
# Indices 1 2 3 4 5 6 
#
# 1 140.7644 85.8949 56.4930 0.0000 0.0000 0.0000
# 2 85.8949 140.7644 56.4930 0.0000 0.0000 0.0000
# 3 56.4930 56.4930 126.2856 0.0000 0.0000 0.0000
# 4 0.0000 0.0000 0.0000 -33.5345 0.0000 0.0000
# 5 0.0000 0.0000 0.0000 0.0000 -33.5345 0.0000
# 6 0.0000 0.0000 0.0000 0.0000 0.0000 52.9434
#
#
#
# Elastic Compliance Matrix: (Units=1/GPa)
#
#
# Indices 1 2 3 4 5 6 
#
# 1 0.011952 -0.006273 -0.002540 0.000000 0.000000 0.000000
# 2 -0.006273 0.011952 -0.002540 0.000000 0.000000 0.000000
# 3 -0.002540 -0.002540 0.010191 0.000000 0.000000 0.000000
# 4 0.000000 0.000000 0.000000 -0.029820 0.000000 0.000000
# 5 0.000000 0.000000 0.000000 0.000000 -0.029820 0.000000
# 6 0.000000 0.000000 0.000000 0.000000 0.000000 0.018888
#
#
# Mechanical properties :
#
#
# Convention : Reuss Voigt Hill
#
# Bulk Modulus (GPa) = 87.81890 89.50845 88.66367
# Shear Modulus (GPa) = 251.95209 11.10381 131.52795
#
# Velocity S-wave (km/s) = 10.97306 2.30359 7.92826
# Velocity P-wave (km/s) = 14.23070 7.06056 11.23309
#
# Compressibility (1/GPa) = 0.01138707
#
# Stress axis : x y z
#
# Youngs Moduli (GPa) = 83.67102 83.67102 98.12474
#
# Poissons Ratio (x) = 0.52491 0.24924
# Poissons Ratio (y) = 0.52491 0.24924
# Poissons Ratio (z) = 0.21253 0.21253
#
# Static dielectric constant tensor:
#      x y z
#    x 1.670350 0.000000 0.000000 
#    y 0.000000 1.670350 0.000000 
#    z 0.000000 0.000000 1.716140 
# 
# From -- ./inp_files/6701.got.cif
#   From: 2010.05.17/outbox.cif.g08.bks.cpg/sg138_4_cif.got.tgz:6701.got - 2010.05.20 13:08:53.
