data_PCOD9570516
_publ_section_title
;
Structure prediction by ZEFSAII (Michael W. Deem and Ramdas Pophale) SiO2 
 PCOD9570516
Probable space group: P 42/N M C
;
_chemical_formula_sum "Si O2"
_cell_formula_units_Z 90
_cell_length_a 17.899647
_cell_length_b 17.899647
_cell_length_c 13.170623
_cell_angle_alpha 90.000000
_cell_angle_beta 90.000000
_cell_angle_gamma 90.000000
_cell_volume 4219.832875
_symmetry_space_group_name_H-M "P 42/N M C"
_symmetry_group_IT_number 137
_space_group.IT_coordinate_system_code '2'
_symmetry_cell_setting 'tetragonal'
loop_
_space_group_symop_operation_xyz
x,y,z
1/2-y,x,1/2+z
1/2-x,1/2-y,z
y,1/2-x,1/2+z
1/2+x,-y,-z
-x,1/2+y,-z
1/2+y,1/2+x,1/2-z
-y,-x,1/2-z
-x,-y,-z
1/2+y,-x,1/2-z
1/2+x,1/2+y,-z
-y,1/2+x,1/2-z
1/2-x,y,z
x,1/2-y,z
1/2-y,1/2-x,1/2+z
y,x,1/2+z
loop_
_atom_site_type_symbol
_atom_site_label
_atom_site_fract_x
_atom_site_fract_y
_atom_site_fract_z
Si Si1 0.833583 0.750000 0.047249
Si Si2 0.519094 0.118165 0.682811
Si Si3 0.337242 0.904202 0.973062
Si Si4 0.750000 0.936642 0.347026
Si Si5 0.463495 0.507622 0.890546
Si Si6 0.250000 0.887598 0.589878
Si Si7 0.750000 0.250000 0.250000
Si Si8 0.882728 0.871271 0.206710
O O1 0.750000 0.750000 0.002560
O O2 0.843576 0.818607 0.124724
O O3 0.893602 0.750000 0.955788
O O4 0.590395 0.090395 0.750000
O O5 0.550046 0.150040 0.577370
O O6 0.452762 0.165601 0.732497
O O7 0.474862 0.038969 0.668800
O O8 0.250000 0.906353 0.945596
O O9 0.367980 0.820833 0.979980
O O10 0.394005 0.937104 0.889414
O O11 0.821522 0.908530 0.281236
O O12 0.750000 0.026621 0.369083
O O13 0.427360 0.429916 0.862208
O O14 0.500000 0.500000 0.000000
O O15 0.250000 0.824925 0.680077
#
# Coordination Sequence:
#
# PCOD9570516 Si02
#       8
#     8  16  16   8  16   8   2  16
#     4  12  30  50  71 104 158 183 238 320 366 446
#     4   9  21  42  69  97 133 178 239 297 338 421
#     4  11  23  41  67 100 137 184 229 297 359 426
#     4  12  30  46  78 105 137 203 240 288 377 456
#     4   9  21  41  69 101 138 178 241 300 348 419
#     4  12  28  46  70 102 144 190 239 292 373 432
#     4  12  28  52  64 104 162 180 232 324 340 428
#     4  11  25  47  71 106 140 192 239 294 365 438
#
# _framework density 21.327857999999999
#
# number of rings (size 3 to 8) (size 9 to 14) (size 15 to 20)
#    0.000    1.422    1.778    1.067   18.667    0.000 
#    1.600    0.000    0.000    0.000    0.000    0.000 
#    0.000    0.000    0.000    0.000    0.000    0.000 
#
# Total GULP energy -501359.761598 kJ/mol
# GULP energy per Si atom -5570.664018 kJ/mol
# Density = 2.127931 g / cm^3
# Si number density = 21.327858 Si / 1000 Ang^3
#
#
#
# Elastic Constant Matrix: (Units=GPa)
#
#
# Indices 1 2 3 4 5 6 
#
# 1 141.8569 45.1061 37.8737 0.0000 0.0000 0.0000
# 2 45.1061 141.8569 37.8737 0.0000 0.0000 0.0000
# 3 37.8737 37.8737 81.7484 0.0000 0.0000 0.0000
# 4 0.0000 0.0000 0.0000 27.3896 0.0000 0.0000
# 5 0.0000 0.0000 0.0000 0.0000 27.3896 0.0000
# 6 0.0000 0.0000 0.0000 0.0000 0.0000 19.9101
#
#
#
# Elastic Compliance Matrix: (Units=1/GPa)
#
#
# Indices 1 2 3 4 5 6 
#
# 1 0.008460 -0.001876 -0.003051 0.000000 0.000000 0.000000
# 2 -0.001876 0.008460 -0.003051 0.000000 0.000000 0.000000
# 3 -0.003051 -0.003051 0.015059 0.000000 0.000000 0.000000
# 4 0.000000 0.000000 0.000000 0.036510 0.000000 0.000000
# 5 0.000000 0.000000 0.000000 0.000000 0.036510 0.000000
# 6 0.000000 0.000000 0.000000 0.000000 0.000000 0.050226
#
#
# Mechanical properties :
#
#
# Convention : Reuss Voigt Hill
#
# Bulk Modulus (GPa) = 62.39835 67.46322 64.93078
# Shear Modulus (GPa) = 28.32514 31.24511 29.78513
#
# Velocity S-wave (km/s) = 3.64824 3.83167 3.74108
# Velocity P-wave (km/s) = 6.86050 7.16071 7.01221
#
# Compressibility (1/GPa) = 0.01602607
#
# Stress axis : x y z
#
# Youngs Moduli (GPa) = 118.20029 118.20029 66.40402
#
# Poissons Ratio (x) = 0.22170 0.20257
# Poissons Ratio (y) = 0.22170 0.20257
# Poissons Ratio (z) = 0.36058 0.36058
#
# Static dielectric constant tensor:
#      x y z
#    x 1.655380 0.000000 0.000000 
#    y 0.000000 1.655380 0.000000 
#    z 0.000000 0.000000 1.893040 
# 
# From -- ./inp_files/5155.got.cif
#   From: 2010.05.17/outbox.cif.g08.bks.cpg/sg137_3_cif.got.tgz:5155.got - 2010.05.20 13:01:12.
