data_PCOD9570474
_publ_section_title
;
Structure prediction by ZEFSAII (Michael W. Deem and Ramdas Pophale) SiO2 
 PCOD9570474
Probable space group: P 42/N M C
;
_chemical_formula_sum "Si O2"
_cell_formula_units_Z 80
_cell_length_a 13.730633
_cell_length_b 13.730633
_cell_length_c 26.882456
_cell_angle_alpha 90.000000
_cell_angle_beta 90.000000
_cell_angle_gamma 90.000000
_cell_volume 5068.157026
_symmetry_space_group_name_H-M "P 42/N M C"
_symmetry_group_IT_number 137
_space_group.IT_coordinate_system_code '2'
_symmetry_cell_setting 'tetragonal'
loop_
_space_group_symop_operation_xyz
x,y,z
1/2-y,x,1/2+z
1/2-x,1/2-y,z
y,1/2-x,1/2+z
1/2+x,-y,-z
-x,1/2+y,-z
1/2+y,1/2+x,1/2-z
-y,-x,1/2-z
-x,-y,-z
1/2+y,-x,1/2-z
1/2+x,1/2+y,-z
-y,1/2+x,1/2-z
1/2-x,y,z
x,1/2-y,z
1/2-y,1/2-x,1/2+z
y,x,1/2+z
loop_
_atom_site_type_symbol
_atom_site_label
_atom_site_fract_x
_atom_site_fract_y
_atom_site_fract_z
Si Si1 0.462078 0.002044 0.885069
Si Si2 0.862910 0.135841 0.309666
Si Si3 0.636827 0.134649 0.916372
Si Si4 0.134125 0.143862 0.451822
Si Si5 0.135550 0.959813 0.519572
O O1 0.564611 0.060207 0.888099
O O2 0.383726 0.084048 0.900117
O O3 0.432632 0.940529 0.837052
O O4 0.452971 0.926801 0.931093
O O5 0.871222 0.128778 0.250000
O O6 0.750000 0.112458 0.322869
O O7 0.879005 0.250000 0.323299
O O8 0.750000 0.120484 0.904384
O O9 0.611652 0.250000 0.907490
O O10 0.618294 0.119033 0.975550
O O11 0.250000 0.142211 0.445797
O O12 0.102613 0.250000 0.468823
O O13 0.111279 0.061440 0.492129
O O14 0.250000 0.957935 0.531751
#
# Coordination Sequence:
#
# PCOD9570474 Si02
#       5
#    16  16  16  16  16
#     4  11  18  27  48  70  88 118 160 195 223 265
#     4   9  19  35  52  71  95 119 144 181 231 280
#     4   9  18  31  45  65  97 131 158 188 227 269
#     4   9  17  28  41  62  93 122 148 182 224 268
#     4   9  18  28  39  63  95 123 154 189 222 265
#
# _framework density 15.784831000000001
#
# number of rings (size 3 to 8) (size 9 to 14) (size 15 to 20)
#    0.000    2.600    0.000    6.000    0.000    4.000 
#    0.000    2.000    0.000    4.200    0.000    7.000 
#    0.000    0.000    0.000    0.000    0.000    0.000 
#
# Total GULP energy -445544.902247 kJ/mol
# GULP energy per Si atom -5569.311278 kJ/mol
# Density = 1.574890 g / cm^3
# Si number density = 15.784831 Si / 1000 Ang^3
#
#
#
# Elastic Constant Matrix: (Units=GPa)
#
#
# Indices 1 2 3 4 5 6 
#
# 1 70.5481 30.8854 27.2498 0.0000 0.0000 0.0000
# 2 30.8854 70.5482 27.2498 0.0000 0.0000 0.0000
# 3 27.2498 27.2498 42.9198 0.0000 0.0000 0.0000
# 4 0.0000 0.0000 0.0000 9.4736 0.0000 0.0000
# 5 0.0000 0.0000 0.0000 0.0000 9.4736 0.0000
# 6 0.0000 0.0000 0.0000 0.0000 0.0000 25.2779
#
#
#
# Elastic Compliance Matrix: (Units=1/GPa)
#
#
# Indices 1 2 3 4 5 6 
#
# 1 0.020088 -0.005125 -0.009500 0.000000 0.000000 0.000000
# 2 -0.005125 0.020088 -0.009500 0.000000 0.000000 0.000000
# 3 -0.009500 -0.009500 0.035362 0.000000 0.000000 0.000000
# 4 0.000000 0.000000 0.000000 0.105556 0.000000 0.000000
# 5 0.000000 0.000000 0.000000 0.000000 0.105557 0.000000
# 6 0.000000 0.000000 0.000000 0.000000 0.000000 0.039560
#
#
# Mechanical properties :
#
#
# Convention : Reuss Voigt Hill
#
# Bulk Modulus (GPa) = 36.64569 39.42068 38.03319
# Shear Modulus (GPa) = 13.03587 15.42043 14.22815
#
# Velocity S-wave (km/s) = 2.87688 3.12895 3.00556
# Velocity P-wave (km/s) = 5.85674 6.17104 6.01594
#
# Compressibility (1/GPa) = 0.02728834
#
# Stress axis : x y z
#
# Youngs Moduli (GPa) = 49.78151 49.78162 28.27862
#
# Poissons Ratio (x) = 0.25512 0.26865
# Poissons Ratio (y) = 0.25512 0.26865
# Poissons Ratio (z) = 0.47293 0.47292
#
# Static dielectric constant tensor:
#      x y z
#    x 1.569540 0.000000 0.000000 
#    y 0.000000 1.569540 0.000000 
#    z 0.000000 0.000000 1.503990 
# 
# From -- ./inp_files/7549.got.cif
#   From: 2010.05.17/outbox.cif.g08.bks.cpg/sg137_4_cif.got.tgz:7549.got - 2010.05.20 13:01:12.
