data_PCOD9570765
_publ_section_title
;
Structure prediction by ZEFSAII (Michael W. Deem and Ramdas Pophale) SiO2 
 PCOD9570765
Probable space group: P 42/N C M
;
_chemical_formula_sum "Si O2"
_cell_formula_units_Z 48
_cell_length_a 12.016344
_cell_length_b 12.016344
_cell_length_c 16.227991
_cell_angle_alpha 90.000000
_cell_angle_beta 90.000000
_cell_angle_gamma 90.000000
_cell_volume 2343.200566
_symmetry_space_group_name_H-M "P 42/N C M"
_symmetry_group_IT_number 138
_space_group.IT_coordinate_system_code '2'
_symmetry_cell_setting 'tetragonal'
loop_
_space_group_symop_operation_xyz
x,y,z
1/2-y,x,1/2+z
1/2-x,1/2-y,z
y,1/2-x,1/2+z
1/2+x,-y,1/2-z
-x,1/2+y,1/2-z
1/2+y,1/2+x,-z
-y,-x,-z
-x,-y,-z
1/2+y,-x,1/2-z
1/2+x,1/2+y,-z
-y,1/2+x,1/2-z
1/2-x,y,1/2+z
x,1/2-y,1/2+z
1/2-y,1/2-x,z
y,x,z
loop_
_atom_site_type_symbol
_atom_site_label
_atom_site_fract_x
_atom_site_fract_y
_atom_site_fract_z
Si Si1 0.843619 0.843619 0.207953
Si Si2 0.093562 0.093562 0.979186
Si Si3 0.739939 0.424397 0.526589
Si Si4 0.736767 0.075694 0.721893
O O1 0.750000 0.750000 0.195431
O O2 0.888573 0.888573 0.119086
O O3 0.952245 0.792660 0.250976
O O4 0.040030 0.210039 0.007587
O O5 0.000000 0.000000 0.000000
O O6 0.830774 0.330774 0.500000
O O7 0.620663 0.379338 0.500000
O O8 0.737014 0.428866 0.625135
O O9 0.633014 0.159011 0.733711
#
# Coordination Sequence:
#
# PCOD9570765 Si02
#       4
#     8   8  16  16
#     4  10  22  36  56  85 116 153 188 247 291 344
#     4   8  16  30  50  80  98 142 189 223 278 340
#     4   9  15  27  50  79 103 137 183 231 279 333
#     4  10  20  34  56  86 111 151 201 236 287 351
#
# _framework density 20.484802999999999
#
# number of rings (size 3 to 8) (size 9 to 14) (size 15 to 20)
#    0.000    2.667    0.000    4.000    2.333    0.000 
#    0.000    0.000    3.667   16.000  104.000    1.167 
#    0.000    0.000    0.000    0.000    0.000    0.000 
#
# Total GULP energy -267263.018376 kJ/mol
# GULP energy per Si atom -5567.979550 kJ/mol
# Density = 2.043818 g / cm^3
# Si number density = 20.484803 Si / 1000 Ang^3
#
#
#
# Elastic Constant Matrix: (Units=GPa)
#
#
# Indices 1 2 3 4 5 6 
#
# 1 103.5042 86.8754 21.2083 0.0000 0.0000 0.0000
# 2 86.8754 103.5030 21.2084 0.0000 0.0000 0.0000
# 3 21.2083 21.2084 32.5629 0.0000 0.0000 0.0000
# 4 0.0000 0.0000 0.0000 16.6110 0.0000 0.0000
# 5 0.0000 0.0000 0.0000 0.0000 16.6108 0.0000
# 6 0.0000 0.0000 0.0000 0.0000 0.0000 45.8342
#
#
#
# Elastic Compliance Matrix: (Units=1/GPa)
#
#
# Indices 1 2 3 4 5 6 
#
# 1 0.033141 -0.026997 -0.004001 0.000000 0.000000 0.000000
# 2 -0.026997 0.033142 -0.004002 0.000000 0.000000 0.000000
# 3 -0.004001 -0.004002 0.035923 0.000000 0.000000 0.000000
# 4 0.000000 0.000000 0.000000 0.060201 0.000000 0.000000
# 5 0.000000 0.000000 0.000000 0.000000 0.060202 0.000000
# 6 0.000000 0.000000 0.000000 0.000000 0.000000 0.021818
#
#
# Mechanical properties :
#
#
# Convention : Reuss Voigt Hill
#
# Bulk Modulus (GPa) = 31.05209 55.35048 43.20128
# Shear Modulus (GPa) = 15.37692 23.16306 19.26999
#
# Velocity S-wave (km/s) = 2.74277 3.36630 3.07041
# Velocity P-wave (km/s) = 5.02214 6.49525 5.80561
#
# Compressibility (1/GPa) = 0.03220395
#
# Stress axis : x y z
#
# Youngs Moduli (GPa) = 30.17385 30.17338 27.83764
#
# Poissons Ratio (x) = 0.81460 0.11139
# Poissons Ratio (y) = 0.81461 0.11141
# Poissons Ratio (z) = 0.12074 0.12076
#
# Static dielectric constant tensor:
#      x y z
#    x 1.767550 0.000000 0.000000 
#    y 0.000000 1.767550 0.000000 
#    z 0.000000 0.000000 1.730030 
# 
# From -- ./inp_files/4736.got.cif
#   From: 2010.05.17/outbox.cif.g08.bks.cpg/sg138_3_cif.got.tgz:4736.got - 2010.05.20 13:08:53.
