data_PCOD9570588
_publ_section_title
;
Structure prediction by ZEFSAII (Michael W. Deem and Ramdas Pophale) SiO2 
 PCOD9570588
Probable space group: P 42/N C M
;
_chemical_formula_sum "Si O2"
_cell_formula_units_Z 80
_cell_length_a 14.012813
_cell_length_b 14.012813
_cell_length_c 25.470125
_cell_angle_alpha 90.000000
_cell_angle_beta 90.000000
_cell_angle_gamma 90.000000
_cell_volume 5001.286445
_symmetry_space_group_name_H-M "P 42/N C M"
_symmetry_group_IT_number 138
_space_group.IT_coordinate_system_code '2'
_symmetry_cell_setting 'tetragonal'
loop_
_space_group_symop_operation_xyz
x,y,z
1/2-y,x,1/2+z
1/2-x,1/2-y,z
y,1/2-x,1/2+z
1/2+x,-y,1/2-z
-x,1/2+y,1/2-z
1/2+y,1/2+x,-z
-y,-x,-z
-x,-y,-z
1/2+y,-x,1/2-z
1/2+x,1/2+y,-z
-y,1/2+x,1/2-z
1/2-x,y,1/2+z
x,1/2-y,1/2+z
1/2-y,1/2-x,z
y,x,z
loop_
_atom_site_type_symbol
_atom_site_label
_atom_site_fract_x
_atom_site_fract_y
_atom_site_fract_z
Si Si1 0.376069 0.534344 0.857156
Si Si2 0.148311 0.700779 0.440536
Si Si3 0.893637 0.044429 0.441666
Si Si4 0.351137 0.629195 0.249157
Si Si5 0.656148 0.997453 0.150208
O O1 0.454414 0.454414 0.867143
O O2 0.374169 0.615056 0.901706
O O3 0.394429 0.585748 0.801329
O O4 0.269509 0.491424 0.855005
O O5 0.250000 0.750000 0.425386
O O6 0.164057 0.664057 0.500000
O O7 0.066706 0.781714 0.437258
O O8 0.922475 0.077526 0.500000
O O9 0.946893 0.111304 0.399398
O O10 0.938586 0.938586 0.434223
O O11 0.238690 0.626877 0.234975
O O12 0.366522 0.559579 0.298001
O O13 0.603266 0.896735 0.153725
#
# Coordination Sequence:
#
# PCOD9570588 Si02
#       5
#    16  16  16  16  16
#     4  11  22  33  50  76 106 137 174 214 256 311
#     4  11  19  34  55  77 104 136 172 218 261 309
#     4  10  18  30  52  80 102 127 168 217 261 303
#     4   9  18  31  52  76  99 130 170 220 260 303
#     4  10  19  32  49  71 103 137 170 210 262 311
#
# _framework density 15.995884
#
# number of rings (size 3 to 8) (size 9 to 14) (size 15 to 20)
#    0.000    1.800    4.000    1.800    2.800    0.800 
#    0.000    0.000    0.000    0.600    0.000    0.000 
#    0.000    0.000    0.000    0.000    0.000    0.000 
#
# Total GULP energy -446232.196654 kJ/mol
# GULP energy per Si atom -5577.902458 kJ/mol
# Density = 1.595948 g / cm^3
# Si number density = 15.995884 Si / 1000 Ang^3
#
#
#
# Elastic Constant Matrix: (Units=GPa)
#
#
# Indices 1 2 3 4 5 6 
#
# 1 105.6391 89.7231 67.5707 0.0000 0.0000 0.0000
# 2 89.7231 105.6390 67.5707 0.0000 0.0000 0.0000
# 3 67.5707 67.5707 98.8026 0.0000 0.0000 0.0000
# 4 0.0000 0.0000 0.0000 -10.5329 0.0000 0.0000
# 5 0.0000 0.0000 0.0000 0.0000 -10.5259 0.0000
# 6 0.0000 0.0000 0.0000 0.0000 0.0000 34.6277
#
#
#
# Elastic Compliance Matrix: (Units=1/GPa)
#
#
# Indices 1 2 3 4 5 6 
#
# 1 0.036272 -0.026558 -0.006644 0.000000 0.000000 0.000000
# 2 -0.026558 0.036272 -0.006644 0.000000 0.000000 0.000000
# 3 -0.006644 -0.006644 0.019208 0.000000 0.000000 0.000000
# 4 0.000000 0.000000 0.000000 -0.094941 0.000000 0.000000
# 5 0.000000 0.000000 0.000000 0.000000 -0.095003 0.000000
# 6 0.000000 0.000000 0.000000 0.000000 0.000000 0.028879
#
#
# Mechanical properties :
#
#
# Convention : Reuss Voigt Hill
#
# Bulk Modulus (GPa) = 82.90114 84.42329 83.66222
# Shear Modulus (GPa) = 347.25672 8.39485 177.82579
#
# Velocity S-wave (km/s) = 14.75000 2.29337 10.55514
# Velocity P-wave (km/s) = 18.49385 7.73986 14.17618
#
# Compressibility (1/GPa) = 0.01206256
#
# Stress axis : x y z
#
# Youngs Moduli (GPa) = 27.56922 27.56924 52.06067
#
# Poissons Ratio (x) = 0.73218 0.34588
# Poissons Ratio (y) = 0.73218 0.34587
# Poissons Ratio (z) = 0.18316 0.18316
#
# Static dielectric constant tensor:
#      x y z
#    x 1.525980 0.000000 0.000000 
#    y 0.000000 1.525980 0.000000 
#    z 0.000000 0.000000 1.528580 
# 
# From -- ./inp_files/6019.got.cif
#   From: 2010.05.17/outbox.cif.g08.bks.cpg/sg138_4_cif.got.tgz:6019.got - 2010.05.20 13:08:53.
