data_PCOD9570676
_publ_section_title
;
Structure prediction by ZEFSAII (Michael W. Deem and Ramdas Pophale) SiO2 
 PCOD9570676
Probable space group: P 42/N C M
;
_chemical_formula_sum "Si O2"
_cell_formula_units_Z 112
_cell_length_a 15.502783
_cell_length_b 15.502783
_cell_length_c 26.989294
_cell_angle_alpha 90.000000
_cell_angle_beta 90.000000
_cell_angle_gamma 90.000000
_cell_volume 6486.506540
_symmetry_space_group_name_H-M "P 42/N C M"
_symmetry_group_IT_number 138
_space_group.IT_coordinate_system_code '2'
_symmetry_cell_setting 'tetragonal'
loop_
_space_group_symop_operation_xyz
x,y,z
1/2-y,x,1/2+z
1/2-x,1/2-y,z
y,1/2-x,1/2+z
1/2+x,-y,1/2-z
-x,1/2+y,1/2-z
1/2+y,1/2+x,-z
-y,-x,-z
-x,-y,-z
1/2+y,-x,1/2-z
1/2+x,1/2+y,-z
-y,1/2+x,1/2-z
1/2-x,y,1/2+z
x,1/2-y,1/2+z
1/2-y,1/2-x,z
y,x,z
loop_
_atom_site_type_symbol
_atom_site_label
_atom_site_fract_x
_atom_site_fract_y
_atom_site_fract_z
Si Si1 0.247190 0.391798 0.228219
Si Si2 0.228986 0.564349 0.782606
Si Si3 0.246726 0.105735 0.026902
Si Si4 0.916948 0.059093 0.638579
Si Si5 0.515426 0.367451 0.467163
Si Si6 0.259821 0.004014 0.127186
Si Si7 0.698326 0.160337 0.321492
O O1 0.155719 0.344282 0.231490
O O2 0.320493 0.320493 0.233946
O O3 0.258986 0.465694 0.268543
O O4 0.255877 0.435986 0.174649
O O5 0.142231 0.578045 0.814156
O O6 0.308407 0.601006 0.814019
O O7 0.225751 0.617247 0.730946
O O8 0.323688 0.176313 0.033748
O O9 0.162146 0.162146 0.013052
O O10 0.233600 0.055029 0.078285
O O11 0.284627 0.033895 0.989177
O O12 0.859278 0.044403 0.589661
O O13 0.979550 0.138949 0.626445
O O14 0.975420 0.975420 0.647553
O O15 0.594763 0.405238 0.500000
O O16 0.444041 0.444041 0.467580
O O17 0.213988 0.912102 0.137429
O O18 0.750000 0.250000 0.329526
#
# Coordination Sequence:
#
# PCOD9570676 Si02
#       7
#    16  16  16  16  16  16  16
#     4  10  21  35  49  72 109 146 177 218 274 330
#     4  11  19  34  53  73 102 143 184 220 266 314
#     4  10  19  33  54  82 115 146 175 220 285 341
#     4  11  20  30  51  81 105 133 181 226 268 321
#     4   9  17  31  49  74 107 137 174 223 272 323
#     4  11  20  30  53  79 107 140 177 223 278 330
#     4  11  19  34  52  76 105 141 176 226 271 306
#
# _framework density 17.266614000000001
#
# number of rings (size 3 to 8) (size 9 to 14) (size 15 to 20)
#    0.000    1.571    4.286    3.000    0.000    1.143 
#    0.000    4.286    0.000    3.429    0.000    1.000 
#    0.000    0.000    0.000    0.000    0.000    0.000 
#
# Total GULP energy -624575.996958 kJ/mol
# GULP energy per Si atom -5576.571401 kJ/mol
# Density = 1.722731 g / cm^3
# Si number density = 17.266614 Si / 1000 Ang^3
#
#
#
# Elastic Constant Matrix: (Units=GPa)
#
#
# Indices 1 2 3 4 5 6 
#
# 1 76.1163 25.5835 15.2775 0.0000 0.0000 0.0000
# 2 25.5835 76.1166 15.2776 0.0000 0.0000 0.0000
# 3 15.2775 15.2776 35.8877 0.0000 0.0000 0.0000
# 4 0.0000 0.0000 0.0000 20.1985 0.0000 0.0000
# 5 0.0000 0.0000 0.0000 0.0000 20.1985 0.0000
# 6 0.0000 0.0000 0.0000 0.0000 0.0000 33.2545
#
#
#
# Elastic Compliance Matrix: (Units=1/GPa)
#
#
# Indices 1 2 3 4 5 6 
#
# 1 0.015532 -0.004257 -0.004800 0.000000 0.000000 0.000000
# 2 -0.004257 0.015532 -0.004800 0.000000 0.000000 0.000000
# 3 -0.004800 -0.004800 0.031951 0.000000 0.000000 0.000000
# 4 0.000000 0.000000 0.000000 0.049509 0.000000 0.000000
# 5 0.000000 0.000000 0.000000 0.000000 0.049509 0.000000
# 6 0.000000 0.000000 0.000000 0.000000 0.000000 0.030071
#
#
# Mechanical properties :
#
#
# Convention : Reuss Voigt Hill
#
# Bulk Modulus (GPa) = 28.32699 33.37751 30.85225
# Shear Modulus (GPa) = 21.59042 23.52911 22.55976
#
# Velocity S-wave (km/s) = 3.53996 3.69547 3.61855
# Velocity P-wave (km/s) = 5.75757 6.13036 5.94689
#
# Compressibility (1/GPa) = 0.03530202
#
# Stress axis : x y z
#
# Youngs Moduli (GPa) = 64.38313 64.38338 31.29762
#
# Poissons Ratio (x) = 0.27409 0.15022
# Poissons Ratio (y) = 0.27408 0.15022
# Poissons Ratio (z) = 0.30902 0.30903
#
# Static dielectric constant tensor:
#      x y z
#    x 1.593620 0.000000 0.000000 
#    y 0.000000 1.593620 0.000000 
#    z 0.000000 0.000000 1.587980 
# 
# From -- ./inp_files/8235.got.cif
#   From: 2010.05.17/outbox.cif.g08.bks.cpg/sg138_5_cif.got.tgz:8235.got - 2010.05.20 13:08:53.
