data_PCOD9570320
_publ_section_title
;
Structure prediction by ZEFSAII (Michael W. Deem and Ramdas Pophale) SiO2 
 PCOD9570320
Probable space group: P 42/N M C
;
_chemical_formula_sum "Si O2"
_cell_formula_units_Z 112
_cell_length_a 14.344503
_cell_length_b 14.344503
_cell_length_c 26.263643
_cell_angle_alpha 90.000000
_cell_angle_beta 90.000000
_cell_angle_gamma 90.000000
_cell_volume 5404.132365
_symmetry_space_group_name_H-M "P 42/N M C"
_symmetry_group_IT_number 137
_space_group.IT_coordinate_system_code '2'
_symmetry_cell_setting 'tetragonal'
loop_
_space_group_symop_operation_xyz
x,y,z
1/2-y,x,1/2+z
1/2-x,1/2-y,z
y,1/2-x,1/2+z
1/2+x,-y,-z
-x,1/2+y,-z
1/2+y,1/2+x,1/2-z
-y,-x,1/2-z
-x,-y,-z
1/2+y,-x,1/2-z
1/2+x,1/2+y,-z
-y,1/2+x,1/2-z
1/2-x,y,z
x,1/2-y,z
1/2-y,1/2-x,1/2+z
y,x,1/2+z
loop_
_atom_site_type_symbol
_atom_site_label
_atom_site_fract_x
_atom_site_fract_y
_atom_site_fract_z
Si Si1 0.463080 0.448981 0.842714
Si Si2 0.638737 0.643633 0.451548
Si Si3 0.138028 0.640921 0.387276
Si Si4 0.542605 0.862476 0.555704
Si Si5 0.363033 0.854159 0.994395
Si Si6 0.356835 0.141714 0.750773
Si Si7 0.976275 0.856225 0.852012
O O1 0.569628 0.417849 0.852147
O O2 0.407727 0.418153 0.893345
O O3 0.423422 0.405426 0.791685
O O4 0.452726 0.560674 0.841423
O O5 0.750000 0.647567 0.456324
O O6 0.603949 0.750000 0.443411
O O7 0.597348 0.609277 0.504704
O O8 0.618921 0.580850 0.402890
O O9 0.250000 0.630681 0.379914
O O10 0.115140 0.750000 0.379383
O O11 0.120015 0.616762 0.446870
O O12 0.547366 0.750000 0.559677
O O13 0.435518 0.890635 0.543949
O O14 0.250000 0.849340 0.992321
O O15 0.399713 0.750000 0.983381
O O16 0.250000 0.133590 0.769646
O O17 0.379662 0.250000 0.745433
O O18 0.359229 0.093371 0.695963
O O19 0.012271 0.750000 0.856385
#
# Coordination Sequence:
#
# PCOD9570320 Si02
#       7
#    16  16  16  16  16  16  16
#     4  12  23  36  58  89 120 152 188 234 291 356
#     4   9  18  34  56  82 114 152 195 243 290 335
#     4   9  19  35  54  79 113 151 188 227 276 339
#     4  10  21  35  52  81 120 154 185 229 287 343
#     4   8  15  30  50  71 103 151 198 231 264 322
#     4  10  22  42  66  88 112 146 191 243 297 352
#     4  10  22  39  59  84 114 152 200 248 288 332
#
# _framework density 20.724881
#
# number of rings (size 3 to 8) (size 9 to 14) (size 15 to 20)
#    0.000    2.286    0.000    3.429    0.000    8.000 
#    0.000    4.286    0.000    1.286    0.000    6.000 
#    0.000    0.000    0.000    0.000    0.000    0.143 
#
# Total GULP energy -626058.006845 kJ/mol
# GULP energy per Si atom -5589.803633 kJ/mol
# Density = 2.067771 g / cm^3
# Si number density = 20.724881 Si / 1000 Ang^3
#
#
#
# Elastic Constant Matrix: (Units=GPa)
#
#
# Indices 1 2 3 4 5 6 
#
# 1 38.2689 10.2006 28.5472 0.0000 0.0000 0.0000
# 2 10.2006 38.2689 28.5472 0.0000 0.0000 0.0000
# 3 28.5472 28.5472 85.5009 0.0000 0.0000 0.0000
# 4 0.0000 0.0000 0.0000 20.2682 0.0000 0.0000
# 5 0.0000 0.0000 0.0000 0.0000 20.2682 0.0000
# 6 0.0000 0.0000 0.0000 0.0000 0.0000 21.7167
#
#
#
# Elastic Compliance Matrix: (Units=1/GPa)
#
#
# Indices 1 2 3 4 5 6 
#
# 1 0.034817 -0.000811 -0.011354 0.000000 0.000000 0.000000
# 2 -0.000811 0.034817 -0.011354 0.000000 0.000000 0.000000
# 3 -0.011354 -0.011354 0.019278 0.000000 0.000000 0.000000
# 4 0.000000 0.000000 0.000000 0.049338 0.000000 0.000000
# 5 0.000000 0.000000 0.000000 0.000000 0.049338 0.000000
# 6 0.000000 0.000000 0.000000 0.000000 0.000000 0.046048
#
#
# Mechanical properties :
#
#
# Convention : Reuss Voigt Hill
#
# Bulk Modulus (GPa) = 23.88145 32.95875 28.42010
# Shear Modulus (GPa) = 16.97043 18.76687 17.86865
#
# Velocity S-wave (km/s) = 2.86465 3.01246 2.93948
# Velocity P-wave (km/s) = 4.74233 5.29503 5.02628
#
# Compressibility (1/GPa) = 0.04187351
#
# Stress axis : x y z
#
# Youngs Moduli (GPa) = 28.72191 28.72191 51.87378
#
# Poissons Ratio (x) = 0.02329 0.58897
# Poissons Ratio (y) = 0.02329 0.58897
# Poissons Ratio (z) = 0.32611 0.32611
#
# Static dielectric constant tensor:
#      x y z
#    x 1.769840 0.000000 0.000000 
#    y 0.000000 1.769840 0.000000 
#    z 0.000000 0.000000 1.706610 
# 
# From -- ./inp_files/8981.got.cif
#   From: 2010.05.17/outbox.cif.g08.bks.cpg/sg137_5_cif.got.tgz:8981.got - 2010.05.20 13:01:12.
