data_PCOD9570185
_publ_section_title
;
Structure prediction by ZEFSAII (Michael W. Deem and Ramdas Pophale) SiO2 
 PCOD9570185
Probable space group: P 42/N M C
;
_chemical_formula_sum "Si O2"
_cell_formula_units_Z 48
_cell_length_a 9.206954
_cell_length_b 9.206954
_cell_length_c 32.285387
_cell_angle_alpha 90.000000
_cell_angle_beta 90.000000
_cell_angle_gamma 90.000000
_cell_volume 2736.767748
_symmetry_space_group_name_H-M "P 42/N M C"
_symmetry_group_IT_number 137
_space_group.IT_coordinate_system_code '2'
_symmetry_cell_setting 'tetragonal'
loop_
_space_group_symop_operation_xyz
x,y,z
1/2-y,x,1/2+z
1/2-x,1/2-y,z
y,1/2-x,1/2+z
1/2+x,-y,-z
-x,1/2+y,-z
1/2+y,1/2+x,1/2-z
-y,-x,1/2-z
-x,-y,-z
1/2+y,-x,1/2-z
1/2+x,1/2+y,-z
-y,1/2+x,1/2-z
1/2-x,y,z
x,1/2-y,z
1/2-y,1/2-x,1/2+z
y,x,1/2+z
loop_
_atom_site_type_symbol
_atom_site_label
_atom_site_fract_x
_atom_site_fract_y
_atom_site_fract_z
Si Si1 0.075163 0.579456 0.461754
Si Si2 0.572971 0.583450 0.622096
Si Si3 0.418163 0.572805 0.204290
O O1 0.250000 0.563990 0.465118
O O2 0.040834 0.750000 0.461915
O O3 0.029464 0.507579 0.418234
O O4 0.000000 0.500000 0.500000
O O5 0.750000 0.581868 0.622885
O O6 0.526125 0.750000 0.618586
O O7 0.524384 0.511671 0.665168
O O8 0.471717 0.528284 0.250000
O O9 0.250000 0.528924 0.198985
O O10 0.419160 0.750000 0.205008
#
# Coordination Sequence:
#
# PCOD9570185 Si02
#       3
#    16  16  16
#     4  10  20  33  50  72  98 128 162 201 245 292
#     4   9  16  26  42  65  92 121 154 193 235 280
#     4   8  13  22  38  60  84 110 143 184 228 274
#
# _framework density 17.538938000000002
#
# number of rings (size 3 to 8) (size 9 to 14) (size 15 to 20)
#    0.000    3.000    0.000    3.000    0.000    6.000 
#    0.000    0.000    0.000    2.000    0.000    4.667 
#    0.000    0.000    0.000    0.000    0.000    0.000 
#
# Total GULP energy -267472.726591 kJ/mol
# GULP energy per Si atom -5572.348471 kJ/mol
# Density = 1.749902 g / cm^3
# Si number density = 17.538938 Si / 1000 Ang^3
#
#
#
# Elastic Constant Matrix: (Units=GPa)
#
#
# Indices 1 2 3 4 5 6 
#
# 1 64.5395 34.8465 74.2542 0.0000 0.0000 0.0000
# 2 34.8465 64.5398 74.2544 0.0000 0.0000 0.0000
# 3 74.2542 74.2544 218.1810 0.0000 0.0000 0.0000
# 4 0.0000 0.0000 0.0000 26.4733 0.0000 0.0000
# 5 0.0000 0.0000 0.0000 0.0000 26.4731 0.0000
# 6 0.0000 0.0000 0.0000 0.0000 0.0000 13.8262
#
#
#
# Elastic Compliance Matrix: (Units=1/GPa)
#
#
# Indices 1 2 3 4 5 6 
#
# 1 0.027076 -0.006602 -0.006968 0.000000 0.000000 0.000000
# 2 -0.006602 0.027076 -0.006968 0.000000 0.000000 0.000000
# 3 -0.006968 -0.006968 0.009326 0.000000 0.000000 0.000000
# 4 0.000000 0.000000 0.000000 0.037774 0.000000 0.000000
# 5 0.000000 0.000000 0.000000 0.000000 0.037774 0.000000
# 6 0.000000 0.000000 0.000000 0.000000 0.000000 0.072326
#
#
# Mechanical properties :
#
#
# Convention : Reuss Voigt Hill
#
# Bulk Modulus (GPa) = 44.63921 79.33005 61.98463
# Shear Modulus (GPa) = 19.23857 24.28153 21.76005
#
# Velocity S-wave (km/s) = 3.31555 3.72484 3.52614
# Velocity P-wave (km/s) = 6.33750 7.98926 7.21083
#
# Compressibility (1/GPa) = 0.02240183
#
# Stress axis : x y z
#
# Youngs Moduli (GPa) = 36.93346 36.93368 107.22578
#
# Poissons Ratio (x) = 0.24384 0.74713
# Poissons Ratio (y) = 0.24384 0.74713
# Poissons Ratio (z) = 0.25735 0.25735
#
# Static dielectric constant tensor:
#      x y z
#    x 1.590600 0.000000 0.000000 
#    y 0.000000 1.590600 0.000000 
#    z 0.000000 0.000000 1.595150 
# 
# From -- ./inp_files/9949.got.cif
#   From: 2010.05.17/outbox.cif.g08.bks.cpg/sg137_5_cif.got.tgz:9949.got - 2010.05.20 13:01:12.
