data_PCOD9570925
_publ_section_title
;
Structure prediction by ZEFSAII (Michael W. Deem and Ramdas Pophale) SiO2 
 PCOD9570925
Probable space group: P 42/N C M
;
_chemical_formula_sum "Si O2"
_cell_formula_units_Z 56
_cell_length_a 17.468956
_cell_length_b 17.468956
_cell_length_c 8.729684
_cell_angle_alpha 90.000000
_cell_angle_beta 90.000000
_cell_angle_gamma 90.000000
_cell_volume 2663.988987
_symmetry_space_group_name_H-M "P 42/N C M"
_symmetry_group_IT_number 138
_space_group.IT_coordinate_system_code '2'
_symmetry_cell_setting 'tetragonal'
loop_
_space_group_symop_operation_xyz
x,y,z
1/2-y,x,1/2+z
1/2-x,1/2-y,z
y,1/2-x,1/2+z
1/2+x,-y,1/2-z
-x,1/2+y,1/2-z
1/2+y,1/2+x,-z
-y,-x,-z
-x,-y,-z
1/2+y,-x,1/2-z
1/2+x,1/2+y,-z
-y,1/2+x,1/2-z
1/2-x,y,1/2+z
x,1/2-y,1/2+z
1/2-y,1/2-x,z
y,x,z
loop_
_atom_site_type_symbol
_atom_site_label
_atom_site_fract_x
_atom_site_fract_y
_atom_site_fract_z
Si Si1 0.447290 0.834755 0.022803
Si Si2 0.184327 0.184327 0.615795
Si Si3 0.565210 0.934791 0.490283
Si Si4 0.915454 0.584547 0.138664
Si Si5 0.471538 0.296838 0.789484
O O1 0.481689 0.823523 0.856157
O O2 0.360206 0.860206 0.000000
O O3 0.496604 0.901264 0.100132
O O4 0.476640 0.766599 0.129399
O O5 0.250000 0.250000 0.582065
O O6 0.140277 0.140277 0.469647
O O7 0.114009 0.219209 0.718535
O O8 0.590956 0.909045 0.321126
O O9 0.537485 0.861393 0.583584
O O10 0.500000 0.000000 0.500000
#
# Coordination Sequence:
#
# PCOD9570925 Si02
#       5
#    16   8   8   8  16
#     4  11  22  41  65  93 132 169 219 277 322 392
#     4   9  21  43  60  90 134 173 220 276 336 394
#     4  11  21  41  70  98 130 167 217 280 335 402
#     4  10  21  38  62  92 128 173 222 263 327 399
#     4  10  23  40  63  98 125 171 226 264 339 403
#
# _framework density 21.021108000000002
#
# number of rings (size 3 to 8) (size 9 to 14) (size 15 to 20)
#    0.000    1.714    0.000    4.714    2.000    0.000 
#   20.571    2.857    0.000    6.857    0.000    0.000 
#    0.000    0.000    0.000    0.000    0.000    0.000 
#
# Total GULP energy -312084.948314 kJ/mol
# GULP energy per Si atom -5572.945506 kJ/mol
# Density = 2.097326 g / cm^3
# Si number density = 21.021108 Si / 1000 Ang^3
#
#
#
# Elastic Constant Matrix: (Units=GPa)
#
#
# Indices 1 2 3 4 5 6 
#
# 1 69.4903 48.3006 31.8110 0.0000 0.0000 0.0000
# 2 48.3006 69.4903 31.8110 0.0000 0.0000 0.0000
# 3 31.8110 31.8110 164.2202 0.0000 0.0000 0.0000
# 4 0.0000 0.0000 0.0000 17.9351 0.0000 0.0000
# 5 0.0000 0.0000 0.0000 0.0000 17.9351 0.0000
# 6 0.0000 0.0000 0.0000 0.0000 0.0000 47.1084
#
#
#
# Elastic Compliance Matrix: (Units=1/GPa)
#
#
# Indices 1 2 3 4 5 6 
#
# 1 0.028337 -0.018856 -0.001837 0.000000 0.000000 0.000000
# 2 -0.018856 0.028337 -0.001837 0.000000 0.000000 0.000000
# 3 -0.001837 -0.001837 0.006801 0.000000 0.000000 0.000000
# 4 0.000000 0.000000 0.000000 0.055757 0.000000 0.000000
# 5 0.000000 0.000000 0.000000 0.000000 0.055757 0.000000
# 6 0.000000 0.000000 0.000000 0.000000 0.000000 0.021228
#
#
# Mechanical properties :
#
#
# Convention : Reuss Voigt Hill
#
# Bulk Modulus (GPa) = 54.29611 58.56068 56.42840
# Shear Modulus (GPa) = 20.20913 29.34760 24.77836
#
# Velocity S-wave (km/s) = 3.10397 3.74050 3.43700
# Velocity P-wave (km/s) = 6.22347 6.82449 6.53089
#
# Compressibility (1/GPa) = 0.01841753
#
# Stress axis : x y z
#
# Youngs Moduli (GPa) = 35.28933 35.28933 147.03818
#
# Poissons Ratio (x) = 0.66540 0.27006
# Poissons Ratio (y) = 0.66540 0.27006
# Poissons Ratio (z) = 0.06482 0.06482
#
# Static dielectric constant tensor:
#      x y z
#    x 1.879430 0.000000 0.000000 
#    y 0.000000 1.879430 0.000000 
#    z 0.000000 0.000000 1.781700 
# 
# From -- ./inp_files/1220.got.cif
#   From: 2010.05.17/outbox.cif.g08.bks.cpg/sg138_1_cif.got.tgz:1220.got - 2010.05.20 13:08:53.
