data_PCOD9570397
_publ_section_title
;
Structure prediction by ZEFSAII (Michael W. Deem and Ramdas Pophale) SiO2 
 PCOD9570397
Probable space group: P 42/N M C
;
_chemical_formula_sum "Si O2"
_cell_formula_units_Z 70
_cell_length_a 11.496514
_cell_length_b 11.496514
_cell_length_c 30.639880
_cell_angle_alpha 90.000000
_cell_angle_beta 90.000000
_cell_angle_gamma 90.000000
_cell_volume 4049.667858
_symmetry_space_group_name_H-M "P 42/N M C"
_symmetry_group_IT_number 137
_space_group.IT_coordinate_system_code '2'
_symmetry_cell_setting 'tetragonal'
loop_
_space_group_symop_operation_xyz
x,y,z
1/2-y,x,1/2+z
1/2-x,1/2-y,z
y,1/2-x,1/2+z
1/2+x,-y,-z
-x,1/2+y,-z
1/2+y,1/2+x,1/2-z
-y,-x,1/2-z
-x,-y,-z
1/2+y,-x,1/2-z
1/2+x,1/2+y,-z
-y,1/2+x,1/2-z
1/2-x,y,z
x,1/2-y,z
1/2-y,1/2-x,1/2+z
y,x,1/2+z
loop_
_atom_site_type_symbol
_atom_site_label
_atom_site_fract_x
_atom_site_fract_y
_atom_site_fract_z
Si Si1 0.991717 0.610141 0.208400
Si Si2 0.250000 0.250000 0.462581
Si Si3 0.250000 0.750000 0.750000
Si Si4 0.610029 0.118337 0.617987
Si Si5 0.250000 0.518346 0.809169
Si Si6 0.750000 0.112169 0.091931
Si Si7 0.036508 0.062438 0.455448
O O1 0.985931 0.750000 0.212377
O O2 0.864221 0.556074 0.202095
O O3 0.054454 0.554454 0.250000
O O4 0.065044 0.580347 0.165049
O O5 0.146862 0.148102 0.461257
O O6 0.250000 0.635865 0.780517
O O7 0.750000 0.120523 0.615680
O O8 0.566400 0.250000 0.613715
O O9 0.565915 0.035629 0.580023
O O10 0.250000 0.550956 0.860482
O O11 0.750000 0.250000 0.097619
O O12 0.860679 0.067454 0.064736
O O13 0.000000 0.000000 0.500000
#
# Coordination Sequence:
#
# PCOD9570397 Si02
#       7
#    16   4   2  16   8   8  16
#     4  11  23  39  63  94 127 166 212 260 322 386
#     4  10  24  44  62  92 132 162 222 276 320 386
#     4  12  24  40  68  88 124 164 216 268 328 392
#     4  10  21  38  61  90 124 160 204 257 314 379
#     4  12  22  41  65  94 125 168 216 271 322 392
#     4  11  25  42  66  93 128 168 220 269 327 394
#     4  11  24  41  65  93 127 169 216 269 326 392
#
# _framework density 17.285368999999999
#
# number of rings (size 3 to 8) (size 9 to 14) (size 15 to 20)
#    0.000    1.143    5.143    1.029    4.800    1.143 
#    0.000    0.000    0.000    0.000    0.000    0.000 
#    0.000    0.000    0.000    0.000    0.000    0.000 
#
# Total GULP energy -389901.271053 kJ/mol
# GULP energy per Si atom -5570.018158 kJ/mol
# Density = 1.724603 g / cm^3
# Si number density = 17.285369 Si / 1000 Ang^3
#
#
#
# Elastic Constant Matrix: (Units=GPa)
#
#
# Indices 1 2 3 4 5 6 
#
# 1 145.4543 71.4249 81.5340 0.0000 0.0000 0.0000
# 2 71.4249 145.4543 81.5340 0.0000 0.0000 0.0000
# 3 81.5340 81.5340 176.7493 0.0000 0.0000 0.0000
# 4 0.0000 0.0000 0.0000 17.1681 0.0000 0.0000
# 5 0.0000 0.0000 0.0000 0.0000 17.1681 0.0000
# 6 0.0000 0.0000 0.0000 0.0000 0.0000 48.7808
#
#
#
# Elastic Compliance Matrix: (Units=1/GPa)
#
#
# Indices 1 2 3 4 5 6 
#
# 1 0.010284 -0.003224 -0.003256 0.000000 0.000000 0.000000
# 2 -0.003224 0.010284 -0.003256 0.000000 0.000000 0.000000
# 3 -0.003256 -0.003256 0.008662 0.000000 0.000000 0.000000
# 4 0.000000 0.000000 0.000000 0.058247 0.000000 0.000000
# 5 0.000000 0.000000 0.000000 0.000000 0.058247 0.000000
# 6 0.000000 0.000000 0.000000 0.000000 0.000000 0.020500
#
#
# Mechanical properties :
#
#
# Convention : Reuss Voigt Hill
#
# Bulk Modulus (GPa) = 102.51178 104.07153 103.29165
# Shear Modulus (GPa) = 26.46194 32.16775 29.31485
#
# Velocity S-wave (km/s) = 3.91690 4.31859 4.12264
# Velocity P-wave (km/s) = 8.93814 9.23068 9.08559
#
# Compressibility (1/GPa) = 0.00975498
#
# Stress axis : x y z
#
# Youngs Moduli (GPa) = 97.24087 97.24087 115.44518
#
# Poissons Ratio (x) = 0.31354 0.37594
# Poissons Ratio (y) = 0.31354 0.37594
# Poissons Ratio (z) = 0.31666 0.31666
#
# Static dielectric constant tensor:
#      x y z
#    x 1.571150 0.000000 0.000000 
#    y 0.000000 1.571150 0.000000 
#    z 0.000000 0.000000 1.571790 
# 
# From -- ./inp_files/9637.got.cif
#   From: 2010.05.17/outbox.cif.g08.bks.cpg/sg137_5_cif.got.tgz:9637.got - 2010.05.20 13:01:12.
