data_PCOD9570699
_publ_section_title
;
Structure prediction by ZEFSAII (Michael W. Deem and Ramdas Pophale) SiO2 
 PCOD9570699
Probable space group: P 42/N C M
;
_chemical_formula_sum "Si O2"
_cell_formula_units_Z 64
_cell_length_a 11.318695
_cell_length_b 11.318695
_cell_length_c 24.645718
_cell_angle_alpha 90.000000
_cell_angle_beta 90.000000
_cell_angle_gamma 90.000000
_cell_volume 3157.433334
_symmetry_space_group_name_H-M "P 42/N C M"
_symmetry_group_IT_number 138
_space_group.IT_coordinate_system_code '2'
_symmetry_cell_setting 'tetragonal'
loop_
_space_group_symop_operation_xyz
x,y,z
1/2-y,x,1/2+z
1/2-x,1/2-y,z
y,1/2-x,1/2+z
1/2+x,-y,1/2-z
-x,1/2+y,1/2-z
1/2+y,1/2+x,-z
-y,-x,-z
-x,-y,-z
1/2+y,-x,1/2-z
1/2+x,1/2+y,-z
-y,1/2+x,1/2-z
1/2-x,y,1/2+z
x,1/2-y,1/2+z
1/2-y,1/2-x,z
y,x,z
loop_
_atom_site_type_symbol
_atom_site_label
_atom_site_fract_x
_atom_site_fract_y
_atom_site_fract_z
Si Si1 0.511067 0.193663 0.019466
Si Si2 0.743688 0.441058 0.253892
Si Si3 0.649297 0.649297 0.178226
Si Si4 0.056431 0.249424 0.633136
Si Si5 0.852104 0.647897 0.552558
O O1 0.405701 0.094300 0.020796
O O2 0.525755 0.236493 0.081100
O O3 0.461828 0.295583 0.980043
O O4 0.627506 0.127506 0.000000
O O5 0.851914 0.363137 0.232587
O O6 0.700108 0.537714 0.211119
O O7 0.782688 0.498766 0.310315
O O8 0.750000 0.750000 0.178854
O O9 0.620911 0.620911 0.115443
O O10 0.154259 0.345742 0.617843
O O11 0.126827 0.126827 0.642556
O O12 0.750000 0.750000 0.552823
#
# Coordination Sequence:
#
# PCOD9570699 Si02
#       5
#    16  16   8  16   8
#     4   9  17  30  52  87 122 162 203 253 311 367
#     4  11  26  43  61  90 125 168 209 261 321 379
#     4  11  24  40  67  94 125 163 208 263 320 374
#     4  10  19  34  60  89 122 159 210 260 306 376
#     4   9  18  34  53  87 128 153 202 264 308 371
#
# _framework density 20.269627
#
# number of rings (size 3 to 8) (size 9 to 14) (size 15 to 20)
#    0.000    2.000    2.500    0.750    7.000    0.000 
#    0.000    0.000    0.000    3.000    0.000    0.000 
#    0.000    0.000    0.000    0.000    0.000    0.000 
#
# Total GULP energy -357460.096090 kJ/mol
# GULP energy per Si atom -5585.314001 kJ/mol
# Density = 2.022349 g / cm^3
# Si number density = 20.269627 Si / 1000 Ang^3
#
#
#
# Elastic Constant Matrix: (Units=GPa)
#
#
# Indices 1 2 3 4 5 6 
#
# 1 45.1867 16.3592 11.5326 0.0000 0.0000 0.0000
# 2 16.3592 45.1867 11.5326 0.0000 0.0000 0.0000
# 3 11.5326 11.5326 103.2872 0.0000 0.0000 0.0000
# 4 0.0000 0.0000 0.0000 13.5594 0.0000 0.0000
# 5 0.0000 0.0000 0.0000 0.0000 13.5594 0.0000
# 6 0.0000 0.0000 0.0000 0.0000 0.0000 24.3860
#
#
#
# Elastic Compliance Matrix: (Units=1/GPa)
#
#
# Indices 1 2 3 4 5 6 
#
# 1 0.025823 -0.008866 -0.001893 0.000000 0.000000 0.000000
# 2 -0.008866 0.025823 -0.001893 0.000000 0.000000 0.000000
# 3 -0.001893 -0.001893 0.010105 0.000000 0.000000 0.000000
# 4 0.000000 0.000000 0.000000 0.073749 0.000000 0.000000
# 5 0.000000 0.000000 0.000000 0.000000 0.073749 0.000000
# 6 0.000000 0.000000 0.000000 0.000000 0.000000 0.041007
#
#
# Mechanical properties :
#
#
# Convention : Reuss Voigt Hill
#
# Bulk Modulus (GPa) = 27.43772 30.27881 28.85827
# Shear Modulus (GPa) = 17.37853 20.58338 18.98095
#
# Velocity S-wave (km/s) = 2.93126 3.19011 3.06342
# Velocity P-wave (km/s) = 5.00221 5.34224 5.17502
#
# Compressibility (1/GPa) = 0.03644617
#
# Stress axis : x y z
#
# Youngs Moduli (GPa) = 38.72458 38.72458 98.96520
#
# Poissons Ratio (x) = 0.34332 0.18738
# Poissons Ratio (y) = 0.34332 0.18738
# Poissons Ratio (z) = 0.07332 0.07332
#
# Static dielectric constant tensor:
#      x y z
#    x 1.718980 0.000000 0.000000 
#    y 0.000000 1.718980 0.000000 
#    z 0.000000 0.000000 1.686740 
# 
# From -- ./inp_files/6788.got.cif
#   From: 2010.05.17/outbox.cif.g08.bks.cpg/sg138_4_cif.got.tgz:6788.got - 2010.05.20 13:08:53.
