data_PCOD9570986
_publ_section_title
;
Structure prediction by ZEFSAII (Michael W. Deem and Ramdas Pophale) SiO2 
 PCOD9570986
Probable space group: P 42/N C M
;
_chemical_formula_sum "Si O2"
_cell_formula_units_Z 64
_cell_length_a 11.897059
_cell_length_b 11.897059
_cell_length_c 21.576674
_cell_angle_alpha 90.000000
_cell_angle_beta 90.000000
_cell_angle_gamma 90.000000
_cell_volume 3053.962715
_symmetry_space_group_name_H-M "P 42/N C M"
_symmetry_group_IT_number 138
_space_group.IT_coordinate_system_code '2'
_symmetry_cell_setting 'tetragonal'
loop_
_space_group_symop_operation_xyz
x,y,z
1/2-y,x,1/2+z
1/2-x,1/2-y,z
y,1/2-x,1/2+z
1/2+x,-y,1/2-z
-x,1/2+y,1/2-z
1/2+y,1/2+x,-z
-y,-x,-z
-x,-y,-z
1/2+y,-x,1/2-z
1/2+x,1/2+y,-z
-y,1/2+x,1/2-z
1/2-x,y,1/2+z
x,1/2-y,1/2+z
1/2-y,1/2-x,z
y,x,z
loop_
_atom_site_type_symbol
_atom_site_label
_atom_site_fract_x
_atom_site_fract_y
_atom_site_fract_z
Si Si1 0.347557 0.152443 0.451567
Si Si2 0.306577 0.007393 0.724904
Si Si3 0.976612 0.168438 0.457490
Si Si4 0.156404 0.156404 0.812258
Si Si5 0.660099 0.349415 0.332699
O O1 0.250000 0.250000 0.454570
O O2 0.459895 0.215667 0.475576
O O3 0.379294 0.120706 0.380403
O O4 0.405039 0.094962 0.709936
O O5 0.218086 0.065858 0.770733
O O6 0.352766 0.905742 0.767246
O O7 0.236716 0.961231 0.666705
O O8 0.874119 0.125882 0.500000
O O9 0.928223 0.167232 0.387689
O O10 0.072802 0.072802 0.460217
O O11 0.250000 0.250000 0.825164
O O12 0.750000 0.250000 0.334373
#
# Coordination Sequence:
#
# PCOD9570986 Si02
#       5
#     8  16  16   8  16
#     4   9  16  34  64  92 112 155 215 250 304 387
#     4  11  22  37  58  89 127 162 199 249 311 372
#     4  10  22  41  65  89 120 162 208 262 313 368
#     4   9  18  32  58  89 116 155 205 245 289 375
#     4  12  23  39  59  90 123 159 200 252 309 370
#
# _framework density 20.956381
#
# number of rings (size 3 to 8) (size 9 to 14) (size 15 to 20)
#    0.000    1.500    5.000    0.750    3.500    0.500 
#    4.500    0.000    0.000    1.500    0.000    0.000 
#    0.000    0.000    0.000    0.000    0.000    0.000 
#
# Total GULP energy -356828.971177 kJ/mol
# GULP energy per Si atom -5575.452675 kJ/mol
# Density = 2.090868 g / cm^3
# Si number density = 20.956381 Si / 1000 Ang^3
#
#
#
# Elastic Constant Matrix: (Units=GPa)
#
#
# Indices 1 2 3 4 5 6 
#
# 1 83.2338 55.6757 12.5625 0.0000 0.0000 0.0000
# 2 55.6757 83.2336 12.5634 0.0000 0.0000 0.0000
# 3 12.5625 12.5634 24.8047 0.0000 0.0000 0.0000
# 4 0.0000 0.0000 0.0000 15.8187 0.0000 0.0000
# 5 0.0000 0.0000 0.0000 0.0000 15.8182 0.0000
# 6 0.0000 0.0000 0.0000 0.0000 0.0000 54.7803
#
#
#
# Elastic Compliance Matrix: (Units=1/GPa)
#
#
# Indices 1 2 3 4 5 6 
#
# 1 0.022106 -0.014181 -0.004013 0.000000 0.000000 0.000000
# 2 -0.014181 0.022106 -0.004015 0.000000 0.000000 0.000000
# 3 -0.004013 -0.004015 0.044381 0.000000 0.000000 0.000000
# 4 0.000000 0.000000 0.000000 0.063216 0.000000 0.000000
# 5 0.000000 0.000000 0.000000 0.000000 0.063218 0.000000
# 6 0.000000 0.000000 0.000000 0.000000 0.000000 0.018255
#
#
# Mechanical properties :
#
#
# Convention : Reuss Voigt Hill
#
# Bulk Modulus (GPa) = 22.63703 39.20835 30.92269
# Shear Modulus (GPa) = 17.09844 24.64815 20.87329
#
# Velocity S-wave (km/s) = 2.85951 3.43325 3.15943
# Velocity P-wave (km/s) = 4.66131 5.87081 5.30067
#
# Compressibility (1/GPa) = 0.04417541
#
# Stress axis : x y z
#
# Youngs Moduli (GPa) = 45.23691 45.23626 22.53237
#
# Poissons Ratio (x) = 0.64150 0.09042
# Poissons Ratio (y) = 0.64151 0.09046
# Poissons Ratio (z) = 0.18154 0.18160
#
# Static dielectric constant tensor:
#      x y z
#    x 1.795260 0.000000 0.000000 
#    y 0.000000 1.795270 0.000000 
#    z 0.000000 0.000000 1.752360 
# 
# From -- ./inp_files/6768.got.cif
#   From: 2010.05.17/outbox.cif.g08.bks.cpg/sg138_4_cif.got.tgz:6768.got - 2010.05.20 13:08:53.
