data_PCOD9570308
_publ_section_title
;
Structure prediction by ZEFSAII (Michael W. Deem and Ramdas Pophale) SiO2 
 PCOD9570308
Probable space group: P 42/N M C
;
_chemical_formula_sum "Si O2"
_cell_formula_units_Z 64
_cell_length_a 12.258854
_cell_length_b 12.258854
_cell_length_c 18.269238
_cell_angle_alpha 90.000000
_cell_angle_beta 90.000000
_cell_angle_gamma 90.000000
_cell_volume 2745.491977
_symmetry_space_group_name_H-M "P 42/N M C"
_symmetry_group_IT_number 137
_space_group.IT_coordinate_system_code '2'
_symmetry_cell_setting 'tetragonal'
loop_
_space_group_symop_operation_xyz
x,y,z
1/2-y,x,1/2+z
1/2-x,1/2-y,z
y,1/2-x,1/2+z
1/2+x,-y,-z
-x,1/2+y,-z
1/2+y,1/2+x,1/2-z
-y,-x,1/2-z
-x,-y,-z
1/2+y,-x,1/2-z
1/2+x,1/2+y,-z
-y,1/2+x,1/2-z
1/2-x,y,z
x,1/2-y,z
1/2-y,1/2-x,1/2+z
y,x,1/2+z
loop_
_atom_site_type_symbol
_atom_site_label
_atom_site_fract_x
_atom_site_fract_y
_atom_site_fract_z
Si Si1 0.637025 0.049087 0.034828
Si Si2 0.750000 0.623570 0.641236
Si Si3 0.875194 0.941640 0.258491
Si Si4 0.626923 0.250000 0.922836
Si Si5 0.121538 0.085465 0.583270
O O1 0.750000 0.055401 0.076439
O O2 0.631964 0.143665 0.973895
O O3 0.632170 0.939434 0.987351
O O4 0.535979 0.072250 0.085257
O O5 0.750000 0.750000 0.606979
O O6 0.857819 0.621946 0.691585
O O7 0.750000 0.498907 0.607161
O O8 0.750000 0.982226 0.266805
O O9 0.898926 0.875457 0.334438
O O10 0.963002 0.036999 0.250000
O O11 0.750000 0.250000 0.883238
O O12 0.250000 0.088171 0.569718
#
# Coordination Sequence:
#
# PCOD9570308 Si02
#       5
#    16   8  16   8  16
#     4  10  21  37  62  89 122 163 202 267 326 389
#     4  10  22  42  66  90 132 180 218 272 334 394
#     4  10  22  40  63  90 123 165 213 266 318 390
#     4  10  20  40  68  96 134 166 220 276 336 404
#     4  10  21  38  60  86 121 158 205 257 314 382
#
# _framework density 23.310938
#
# number of rings (size 3 to 8) (size 9 to 14) (size 15 to 20)
#    0.000    2.000    1.250    1.500    1.750    1.750 
#    2.250   10.000    0.000    0.000    0.000    0.000 
#    0.000    0.000    0.000    0.000    0.000    0.000 
#
# Total GULP energy -356883.795152 kJ/mol
# GULP energy per Si atom -5576.309299 kJ/mol
# Density = 2.325788 g / cm^3
# Si number density = 23.310938 Si / 1000 Ang^3
#
#
#
# Elastic Constant Matrix: (Units=GPa)
#
#
# Indices 1 2 3 4 5 6 
#
# 1 155.4147 24.9445 31.4087 0.0000 0.0000 0.0000
# 2 24.9445 155.4150 31.4086 0.0000 0.0000 0.0000
# 3 31.4087 31.4086 45.4775 0.0000 0.0000 0.0000
# 4 0.0000 0.0000 0.0000 31.0390 0.0000 0.0000
# 5 0.0000 0.0000 0.0000 0.0000 31.0385 0.0000
# 6 0.0000 0.0000 0.0000 0.0000 0.0000 -171.3047
#
#
#
# Elastic Compliance Matrix: (Units=1/GPa)
#
#
# Indices 1 2 3 4 5 6 
#
# 1 0.007483 -0.000182 -0.005042 0.000000 0.000000 0.000000
# 2 -0.000182 0.007483 -0.005042 0.000000 0.000000 0.000000
# 3 -0.005042 -0.005042 0.028953 0.000000 0.000000 0.000000
# 4 0.000000 0.000000 0.000000 0.032218 0.000000 0.000000
# 5 0.000000 0.000000 0.000000 0.000000 0.032218 0.000000
# 6 0.000000 0.000000 0.000000 0.000000 0.000000 -0.005838
#
#
# Mechanical properties :
#
#
# Convention : Reuss Voigt Hill
#
# Bulk Modulus (GPa) = 42.76012 59.09232 50.92622
# Shear Modulus (GPa) = 38.21329 -3.94243 17.13543
#
# Velocity S-wave (km/s) = 4.05320 -1.30189 2.71418
# Velocity P-wave (km/s) = 6.34727 4.81090 5.63172
#
# Compressibility (1/GPa) = 0.02338628
#
# Stress axis : x y z
#
# Youngs Moduli (GPa) = 133.64333 133.64384 34.53815
#
# Poissons Ratio (x) = 0.02432 0.17415
# Poissons Ratio (y) = 0.02432 0.17414
# Poissons Ratio (z) = 0.67385 0.67384
#
# Static dielectric constant tensor:
#      x y z
#    x 1.887140 0.000000 0.000000 
#    y 0.000000 1.887140 0.000000 
#    z 0.000000 0.000000 1.891720 
# 
# From -- ./inp_files/8612.got.cif
#   From: 2010.05.17/outbox.cif.g08.bks.cpg/sg137_5_cif.got.tgz:8612.got - 2010.05.20 13:01:12.
