data_PCOD9570586
_publ_section_title
;
Structure prediction by ZEFSAII (Michael W. Deem and Ramdas Pophale) SiO2 
 PCOD9570586
Probable space group: P 42/N C M
;
_chemical_formula_sum "Si O2"
_cell_formula_units_Z 112
_cell_length_a 17.374465
_cell_length_b 17.374465
_cell_length_c 22.086178
_cell_angle_alpha 90.000000
_cell_angle_beta 90.000000
_cell_angle_gamma 90.000000
_cell_volume 6667.199477
_symmetry_space_group_name_H-M "P 42/N C M"
_symmetry_group_IT_number 138
_space_group.IT_coordinate_system_code '2'
_symmetry_cell_setting 'tetragonal'
loop_
_space_group_symop_operation_xyz
x,y,z
1/2-y,x,1/2+z
1/2-x,1/2-y,z
y,1/2-x,1/2+z
1/2+x,-y,1/2-z
-x,1/2+y,1/2-z
1/2+y,1/2+x,-z
-y,-x,-z
-x,-y,-z
1/2+y,-x,1/2-z
1/2+x,1/2+y,-z
-y,1/2+x,1/2-z
1/2-x,y,1/2+z
x,1/2-y,1/2+z
1/2-y,1/2-x,z
y,x,z
loop_
_atom_site_type_symbol
_atom_site_label
_atom_site_fract_x
_atom_site_fract_y
_atom_site_fract_z
Si Si1 0.748948 0.874482 0.083767
Si Si2 0.245458 0.480641 0.306960
Si Si3 0.480065 0.147511 0.499291
Si Si4 0.376665 0.253172 0.691326
Si Si5 0.625792 0.227337 0.735155
Si Si6 0.973555 0.308530 0.627250
Si Si7 0.594103 0.468971 0.126618
O O1 0.679585 0.820415 0.062803
O O2 0.816160 0.816160 0.107296
O O3 0.722156 0.931592 0.136968
O O4 0.789774 0.923737 0.031586
O O5 0.228488 0.419748 0.254047
O O6 0.291417 0.550686 0.275962
O O7 0.169357 0.520438 0.333605
O O8 0.424799 0.075202 0.518990
O O9 0.524487 0.186242 0.554718
O O10 0.533412 0.118047 0.444233
O O11 0.316607 0.183394 0.700134
O O12 0.326330 0.326330 0.670748
O O13 0.444364 0.225121 0.647126
O O14 0.664377 0.307701 0.755603
O O15 0.593179 0.233077 0.666352
O O16 0.957949 0.397368 0.645002
O O17 0.546305 0.546305 0.132726
#
# Coordination Sequence:
#
# PCOD9570586 Si02
#       7
#    16  16  16  16  16  16  16
#     4   9  17  30  51  78 109 143 173 203 244 302
#     4  10  18  31  52  74  97 135 173 215 258 306
#     4   9  18  30  47  77 110 136 167 209 256 301
#     4  10  20  31  45  70 106 140 169 205 252 311
#     4  10  21  38  55  73  97 129 173 225 270 310
#     4  11  20  32  52  74  99 137 170 207 260 313
#     4  10  18  30  49  76 105 131 166 215 257 300
#
# _framework density 16.798656999999999
#
# number of rings (size 3 to 8) (size 9 to 14) (size 15 to 20)
#    0.000    2.143    1.429    4.286    0.000    2.857 
#    0.000    1.429    0.000    3.429    0.000    1.000 
#    0.000    0.000    0.000    0.000    0.000    0.000 
#
# Total GULP energy -623684.787618 kJ/mol
# GULP energy per Si atom -5568.614175 kJ/mol
# Density = 1.676042 g / cm^3
# Si number density = 16.798657 Si / 1000 Ang^3
#
#
#
# Elastic Constant Matrix: (Units=GPa)
#
#
# Indices 1 2 3 4 5 6 
#
# 1 77.6120 28.5865 26.8954 0.0000 0.0000 0.0000
# 2 28.5865 77.6120 26.8954 0.0000 0.0000 0.0000
# 3 26.8954 26.8954 58.0407 0.0000 0.0000 0.0000
# 4 0.0000 0.0000 0.0000 18.4490 0.0000 0.0000
# 5 0.0000 0.0000 0.0000 0.0000 18.4490 0.0000
# 6 0.0000 0.0000 0.0000 0.0000 0.0000 27.6782
#
#
#
# Elastic Compliance Matrix: (Units=1/GPa)
#
#
# Indices 1 2 3 4 5 6 
#
# 1 0.016351 -0.004047 -0.005702 0.000000 0.000000 0.000000
# 2 -0.004047 0.016351 -0.005702 0.000000 0.000000 0.000000
# 3 -0.005702 -0.005702 0.022514 0.000000 0.000000 0.000000
# 4 0.000000 0.000000 0.000000 0.054203 0.000000 0.000000
# 5 0.000000 0.000000 0.000000 0.000000 0.054203 0.000000
# 6 0.000000 0.000000 0.000000 0.000000 0.000000 0.036130
#
#
# Mechanical properties :
#
#
# Convention : Reuss Voigt Hill
#
# Bulk Modulus (GPa) = 41.12627 42.00217 41.56422
# Shear Modulus (GPa) = 20.94181 21.64107 21.29144
#
# Velocity S-wave (km/s) = 3.53460 3.59313 3.56399
# Velocity P-wave (km/s) = 6.41817 6.50167 6.46005
#
# Compressibility (1/GPa) = 0.02431536
#
# Stress axis : x y z
#
# Youngs Moduli (GPa) = 61.15856 61.15856 44.41779
#
# Poissons Ratio (x) = 0.24749 0.25326
# Poissons Ratio (y) = 0.24749 0.25326
# Poissons Ratio (z) = 0.34871 0.34871
#
# Static dielectric constant tensor:
#      x y z
#    x 1.572250 0.000000 0.000000 
#    y 0.000000 1.572250 0.000000 
#    z 0.000000 0.000000 1.591320 
# 
# From -- ./inp_files/6482.got.cif
#   From: 2010.05.17/outbox.cif.g08.bks.cpg/sg138_4_cif.got.tgz:6482.got - 2010.05.20 13:08:53.
