data_PCOD9570120
_publ_section_title
;
Structure prediction by ZEFSAII (Michael W. Deem and Ramdas Pophale) SiO2 
 PCOD9570120
Probable space group: P 42/N M C
;
_chemical_formula_sum "Si O2"
_cell_formula_units_Z 80
_cell_length_a 12.268581
_cell_length_b 12.268581
_cell_length_c 31.479184
_cell_angle_alpha 90.000000
_cell_angle_beta 90.000000
_cell_angle_gamma 90.000000
_cell_volume 4738.186328
_symmetry_space_group_name_H-M "P 42/N M C"
_symmetry_group_IT_number 137
_space_group.IT_coordinate_system_code '2'
_symmetry_cell_setting 'tetragonal'
loop_
_space_group_symop_operation_xyz
x,y,z
1/2-y,x,1/2+z
1/2-x,1/2-y,z
y,1/2-x,1/2+z
1/2+x,-y,-z
-x,1/2+y,-z
1/2+y,1/2+x,1/2-z
-y,-x,1/2-z
-x,-y,-z
1/2+y,-x,1/2-z
1/2+x,1/2+y,-z
-y,1/2+x,1/2-z
1/2-x,y,z
x,1/2-y,z
1/2-y,1/2-x,1/2+z
y,x,1/2+z
loop_
_atom_site_type_symbol
_atom_site_label
_atom_site_fract_x
_atom_site_fract_y
_atom_site_fract_z
Si Si1 0.126743 0.879521 0.989955
Si Si2 0.620578 0.546016 0.234152
Si Si3 0.882077 0.750000 0.289583
Si Si4 0.378160 0.381192 0.862810
Si Si5 0.750000 0.881783 0.889046
Si Si6 0.999874 0.961360 0.428504
O O1 0.250000 0.920861 0.982384
O O2 0.128031 0.750000 0.988710
O O3 0.043485 0.923107 0.954834
O O4 0.087513 0.918843 0.036152
O O5 0.561235 0.438766 0.250000
O O6 0.750000 0.535869 0.239326
O O7 0.580203 0.643814 0.264301
O O8 0.601360 0.576875 0.185107
O O9 0.750000 0.750000 0.286952
O O10 0.909544 0.750000 0.338963
O O11 0.250000 0.405683 0.873272
O O12 0.389322 0.250000 0.863861
O O13 0.464671 0.437540 0.894013
O O14 0.750000 0.750000 0.894045
O O15 0.640295 0.933283 0.909028
#
# Coordination Sequence:
#
# PCOD9570120 Si02
#       6
#    16  16   8  16   8  16
#     4  10  21  38  57  78 110 147 186 231 294 350
#     4  10  19  34  56  81 112 151 188 232 284 338
#     4   9  18  34  54  76 108 150 188 222 282 338
#     4  10  20  36  58  85 114 147 193 240 284 339
#     4  11  22  36  55  85 117 149 196 242 284 348
#     4  11  21  36  57  84 109 150 188 240 285 341
#
# _framework density 16.884098000000002
#
# number of rings (size 3 to 8) (size 9 to 14) (size 15 to 20)
#    0.000    1.800    2.000    3.000    0.000    0.200 
#    0.000    1.000    0.000    2.700    0.000    0.000 
#    0.000    0.000    0.000    0.000    0.000    0.000 
#
# Total GULP energy -446271.545229 kJ/mol
# GULP energy per Si atom -5578.394315 kJ/mol
# Density = 1.684567 g / cm^3
# Si number density = 16.884098 Si / 1000 Ang^3
#
#
#
# Elastic Constant Matrix: (Units=GPa)
#
#
# Indices 1 2 3 4 5 6 
#
# 1 96.4736 59.9722 70.3605 0.0000 0.0000 0.0000
# 2 59.9722 96.4793 70.3606 0.0000 0.0000 0.0000
# 3 70.3605 70.3606 128.9728 0.0000 0.0000 0.0000
# 4 0.0000 0.0000 0.0000 20.1545 0.0000 0.0000
# 5 0.0000 0.0000 0.0000 0.0000 20.1535 0.0000
# 6 0.0000 0.0000 0.0000 0.0000 0.0000 21.3244
#
#
#
# Elastic Compliance Matrix: (Units=1/GPa)
#
#
# Indices 1 2 3 4 5 6 
#
# 1 0.019973 -0.007422 -0.006847 0.000000 0.000000 0.000000
# 2 -0.007422 0.019971 -0.006846 0.000000 0.000000 0.000000
# 3 -0.006847 -0.006846 0.015224 0.000000 0.000000 0.000000
# 4 0.000000 0.000000 0.000000 0.049617 0.000000 0.000000
# 5 0.000000 0.000000 0.000000 0.000000 0.049619 0.000000
# 6 0.000000 0.000000 0.000000 0.000000 0.000000 0.046895
#
#
# Mechanical properties :
#
#
# Convention : Reuss Voigt Hill
#
# Bulk Modulus (GPa) = 77.29406 80.36803 78.83104
# Shear Modulus (GPa) = 20.17410 20.40864 20.29137
#
# Velocity S-wave (km/s) = 3.46042 3.48048 3.47046
# Velocity P-wave (km/s) = 7.86413 7.99092 7.92778
#
# Compressibility (1/GPa) = 0.01293760
#
# Stress axis : x y z
#
# Youngs Moduli (GPa) = 50.06716 50.07191 65.68551
#
# Poissons Ratio (x) = 0.37163 0.44977
# Poissons Ratio (y) = 0.37159 0.44970
# Poissons Ratio (z) = 0.34283 0.34281
#
# Static dielectric constant tensor:
#      x y z
#    x 1.555500 0.000000 0.000000 
#    y 0.000000 1.555500 0.000000 
#    z 0.000000 0.000000 1.551310 
# 
# From -- ./inp_files/10352.got.cif
#   From: 2010.05.17/outbox.cif.g08.bks.cpg/sg137_6_cif.got.tgz:10352.got - 2010.05.20 13:01:12.
