data_PCOD9570792
_publ_section_title
;
Structure prediction by ZEFSAII (Michael W. Deem and Ramdas Pophale) SiO2 
 PCOD9570792
Probable space group: P 42/N C M
;
_chemical_formula_sum "Si O2"
_cell_formula_units_Z 96
_cell_length_a 23.886985
_cell_length_b 23.886985
_cell_length_c 8.209873
_cell_angle_alpha 90.000000
_cell_angle_beta 90.000000
_cell_angle_gamma 90.000000
_cell_volume 4684.455445
_symmetry_space_group_name_H-M "P 42/N C M"
_symmetry_group_IT_number 138
_space_group.IT_coordinate_system_code '2'
_symmetry_cell_setting 'tetragonal'
loop_
_space_group_symop_operation_xyz
x,y,z
1/2-y,x,1/2+z
1/2-x,1/2-y,z
y,1/2-x,1/2+z
1/2+x,-y,1/2-z
-x,1/2+y,1/2-z
1/2+y,1/2+x,-z
-y,-x,-z
-x,-y,-z
1/2+y,-x,1/2-z
1/2+x,1/2+y,-z
-y,1/2+x,1/2-z
1/2-x,y,1/2+z
x,1/2-y,1/2+z
1/2-y,1/2-x,z
y,x,z
loop_
_atom_site_type_symbol
_atom_site_label
_atom_site_fract_x
_atom_site_fract_y
_atom_site_fract_z
Si Si1 0.915619 0.824389 0.063417
Si Si2 0.293596 0.117713 0.802677
Si Si3 0.878048 0.535472 0.064859
Si Si4 0.678336 0.300044 0.188808
Si Si5 0.906068 0.502445 0.693638
Si Si6 0.584070 0.380398 0.315813
O O1 0.874552 0.874552 0.111934
O O2 0.895184 0.770623 0.163468
O O3 0.976263 0.851704 0.094383
O O4 0.904771 0.810067 0.875394
O O5 0.319254 0.180747 0.815140
O O6 0.328387 0.079848 0.928772
O O7 0.932616 0.567385 0.134870
O O8 0.863695 0.480498 0.165236
O O9 0.892416 0.519035 0.881038
O O10 0.733469 0.322705 0.282082
O O11 0.623734 0.331802 0.251048
O O12 0.687821 0.312180 0.000000
O O13 0.961775 0.538226 0.646698
O O14 0.913223 0.435840 0.703020
O O15 0.603529 0.396472 0.500000
#
# Coordination Sequence:
#
# PCOD9570792 Si02
#       6
#    16  16  16  16  16  16
#     4  10  21  36  54  77 106 141 181 225 272 320
#     4  10  21  36  54  77 106 141 181 225 272 320
#     4   9  18  34  56  81 111 145 179 219 266 314
#     4  11  23  41  62  82 108 141 177 220 271 320
#     4   9  18  34  56  81 111 145 179 219 266 314
#     4  10  20  35  58  87 113 141 180 219 260 317
#
# _framework density 20.493310999999999
#
# number of rings (size 3 to 8) (size 9 to 14) (size 15 to 20)
#    0.000    2.167    0.000    3.500    0.000    7.000 
#    0.000    1.667    0.000    5.000    0.000    0.000 
#    0.000    0.000    0.000    0.000    0.000    0.000 
#
# Total GULP energy -535952.313494 kJ/mol
# GULP energy per Si atom -5582.836599 kJ/mol
# Density = 2.044667 g / cm^3
# Si number density = 20.493311 Si / 1000 Ang^3
#
#
#
# Elastic Constant Matrix: (Units=GPa)
#
#
# Indices 1 2 3 4 5 6 
#
# 1 58.3773 -20.9251 -1.6046 0.0000 0.0000 0.0000
# 2 -20.9251 58.3755 -1.6048 0.0000 0.0000 0.0000
# 3 -1.6046 -1.6048 36.0011 0.0000 0.0000 0.0000
# 4 0.0000 0.0000 0.0000 14.7947 0.0000 0.0000
# 5 0.0000 0.0000 0.0000 0.0000 14.7943 0.0000
# 6 0.0000 0.0000 0.0000 0.0000 0.0000 24.0758
#
#
#
# Elastic Compliance Matrix: (Units=1/GPa)
#
#
# Indices 1 2 3 4 5 6 
#
# 1 0.019707 0.007097 0.001195 0.000000 0.000000 0.000000
# 2 0.007097 0.019707 0.001195 0.000000 0.000000 0.000000
# 3 0.001195 0.001195 0.027883 0.000000 0.000000 0.000000
# 4 0.000000 0.000000 0.000000 0.067592 0.000000 0.000000
# 5 0.000000 0.000000 0.000000 0.000000 0.067594 0.000000
# 6 0.000000 0.000000 0.000000 0.000000 0.000000 0.041535
#
#
# Mechanical properties :
#
#
# Convention : Reuss Voigt Hill
#
# Bulk Modulus (GPa) = 11.59152 11.60942 11.60047
# Shear Modulus (GPa) = 19.70037 22.52552 21.11294
#
# Velocity S-wave (km/s) = 3.10386 3.31896 3.21321
# Velocity P-wave (km/s) = 4.30276 4.51272 4.40899
#
# Compressibility (1/GPa) = 0.08626993
#
# Stress axis : x y z
#
# Youngs Moduli (GPa) = 50.74442 50.74285 35.86354
#
# Poissons Ratio (x) = -0.36011 -0.04285
# Poissons Ratio (y) = -0.36012 -0.04285
# Poissons Ratio (z) = -0.06062 -0.06063
#
# Static dielectric constant tensor:
#      x y z
#    x 1.730560 0.000000 0.000000 
#    y 0.000000 1.730560 0.000000 
#    z 0.000000 0.000000 1.746390 
# 
# From -- ./inp_files/1754.got.cif
#   From: 2010.05.17/outbox.cif.g08.bks.cpg/sg138_1_cif.got.tgz:1754.got - 2010.05.20 13:08:53.
