data_PCOD9570233
_publ_section_title
;
Structure prediction by ZEFSAII (Michael W. Deem and Ramdas Pophale) SiO2 
 PCOD9570233
Probable space group: P 42/N M C
;
_chemical_formula_sum "Si O2"
_cell_formula_units_Z 64
_cell_length_a 14.317744
_cell_length_b 14.317744
_cell_length_c 17.594637
_cell_angle_alpha 90.000000
_cell_angle_beta 90.000000
_cell_angle_gamma 90.000000
_cell_volume 3606.861758
_symmetry_space_group_name_H-M "P 42/N M C"
_symmetry_group_IT_number 137
_space_group.IT_coordinate_system_code '2'
_symmetry_cell_setting 'tetragonal'
loop_
_space_group_symop_operation_xyz
x,y,z
1/2-y,x,1/2+z
1/2-x,1/2-y,z
y,1/2-x,1/2+z
1/2+x,-y,-z
-x,1/2+y,-z
1/2+y,1/2+x,1/2-z
-y,-x,1/2-z
-x,-y,-z
1/2+y,-x,1/2-z
1/2+x,1/2+y,-z
-y,1/2+x,1/2-z
1/2-x,y,z
x,1/2-y,z
1/2-y,1/2-x,1/2+z
y,x,1/2+z
loop_
_atom_site_type_symbol
_atom_site_label
_atom_site_fract_x
_atom_site_fract_y
_atom_site_fract_z
Si Si1 0.911572 0.358632 0.859071
Si Si2 0.538666 0.648809 0.274061
Si Si3 0.361673 0.959834 0.680652
Si Si4 0.862882 0.142279 0.472001
O O1 0.879157 0.250000 0.850927
O O2 0.852694 0.438194 0.816641
O O3 0.010391 0.363483 0.814657
O O4 0.908049 0.382064 0.947976
O O5 0.583057 0.750000 0.285155
O O6 0.596015 0.561979 0.304795
O O7 0.395714 0.895714 0.750000
O O8 0.250000 0.964608 0.679550
O O9 0.395710 0.914466 0.601536
O O10 0.750000 0.146704 0.466079
O O11 0.896515 0.250000 0.473483
#
# Coordination Sequence:
#
# PCOD9570233 Si02
#       4
#    16  16  16  16
#     4   9  17  33  56  81 111 138 173 224 275 322
#     4  10  20  35  54  82 113 144 180 219 274 339
#     4  11  22  38  56  77 107 145 189 232 273 321
#     4   9  18  32  54  84 111 139 179 228 277 320
#
# _framework density 17.743957000000002
#
# number of rings (size 3 to 8) (size 9 to 14) (size 15 to 20)
#    0.000    2.250    2.500    1.500    0.000    5.250 
#    0.000    5.000    0.000    0.000    0.000    7.000 
#    0.000    0.000    0.000    0.000    0.000    0.000 
#
# Total GULP energy -356450.930813 kJ/mol
# GULP energy per Si atom -5569.545794 kJ/mol
# Density = 1.770357 g / cm^3
# Si number density = 17.743957 Si / 1000 Ang^3
#
#
#
# Elastic Constant Matrix: (Units=GPa)
#
#
# Indices 1 2 3 4 5 6 
#
# 1 71.9090 31.6789 50.9087 0.0000 0.0000 0.0000
# 2 31.6789 71.9090 50.9087 0.0000 0.0000 0.0000
# 3 50.9087 50.9087 173.0360 0.0000 0.0000 0.0000
# 4 0.0000 0.0000 0.0000 19.7183 0.0000 0.0000
# 5 0.0000 0.0000 0.0000 0.0000 19.7183 0.0000
# 6 0.0000 0.0000 0.0000 0.0000 0.0000 20.5451
#
#
#
# Elastic Compliance Matrix: (Units=1/GPa)
#
#
# Indices 1 2 3 4 5 6 
#
# 1 0.019219 -0.005638 -0.003996 0.000000 0.000000 0.000000
# 2 -0.005638 0.019219 -0.003996 0.000000 0.000000 0.000000
# 3 -0.003996 -0.003996 0.008130 0.000000 0.000000 0.000000
# 4 0.000000 0.000000 0.000000 0.050714 0.000000 0.000000
# 5 0.000000 0.000000 0.000000 0.000000 0.050714 0.000000
# 6 0.000000 0.000000 0.000000 0.000000 0.000000 0.048673
#
#
# Mechanical properties :
#
#
# Convention : Reuss Voigt Hill
#
# Bulk Modulus (GPa) = 51.78757 64.87184 58.32971
# Shear Modulus (GPa) = 21.70467 24.22020 22.96243
#
# Velocity S-wave (km/s) = 3.50124 3.69858 3.60126
# Velocity P-wave (km/s) = 6.75236 7.40801 7.08777
#
# Compressibility (1/GPa) = 0.01930965
#
# Stress axis : x y z
#
# Youngs Moduli (GPa) = 52.03190 52.03190 122.99735
#
# Poissons Ratio (x) = 0.29336 0.49145
# Poissons Ratio (y) = 0.29336 0.49145
# Poissons Ratio (z) = 0.20790 0.20790
#
# Static dielectric constant tensor:
#      x y z
#    x 1.607680 0.000000 0.000000 
#    y 0.000000 1.607680 0.000000 
#    z 0.000000 0.000000 1.633830 
# 
# From -- ./inp_files/4702.got.cif
#   From: 2010.05.17/outbox.cif.g08.bks.cpg/sg137_3_cif.got.tgz:4702.got - 2010.05.20 13:01:12.
