data_PCOD9570426
_publ_section_title
;
Structure prediction by ZEFSAII (Michael W. Deem and Ramdas Pophale) SiO2 
 PCOD9570426
Probable space group: P 42/N M C
;
_chemical_formula_sum "Si O2"
_cell_formula_units_Z 96
_cell_length_a 25.842986
_cell_length_b 25.842986
_cell_length_c 8.075274
_cell_angle_alpha 90.000000
_cell_angle_beta 90.000000
_cell_angle_gamma 90.000000
_cell_volume 5393.151891
_symmetry_space_group_name_H-M "P 42/N M C"
_symmetry_group_IT_number 137
_space_group.IT_coordinate_system_code '2'
_symmetry_cell_setting 'tetragonal'
loop_
_space_group_symop_operation_xyz
x,y,z
1/2-y,x,1/2+z
1/2-x,1/2-y,z
y,1/2-x,1/2+z
1/2+x,-y,-z
-x,1/2+y,-z
1/2+y,1/2+x,1/2-z
-y,-x,1/2-z
-x,-y,-z
1/2+y,-x,1/2-z
1/2+x,1/2+y,-z
-y,1/2+x,1/2-z
1/2-x,y,z
x,1/2-y,z
1/2-y,1/2-x,1/2+z
y,x,1/2+z
loop_
_atom_site_type_symbol
_atom_site_label
_atom_site_fract_x
_atom_site_fract_y
_atom_site_fract_z
Si Si1 0.388335 0.192715 0.414283
Si Si2 0.809394 0.894807 0.476195
Si Si3 0.511041 0.189091 0.911801
Si Si4 0.117733 0.967297 0.719550
Si Si5 0.479604 0.038372 0.638998
Si Si6 0.344331 0.491536 0.056876
O O1 0.365508 0.250000 0.434098
O O2 0.348653 0.148657 0.465740
O O3 0.440281 0.188539 0.521538
O O4 0.402782 0.185633 0.221314
O O5 0.750000 0.879481 0.510133
O O6 0.819265 0.949276 0.564434
O O7 0.521714 0.250000 0.941748
O O8 0.521420 0.174752 0.720235
O O9 0.534881 0.152035 0.053209
O O10 0.083668 0.916333 0.750000
O O11 0.074119 0.013308 0.702909
O O12 0.151637 0.977979 0.883339
O O13 0.472733 0.097093 0.592767
O O14 0.530902 0.030902 0.750000
O O15 0.500000 0.000000 0.500000
#
# Coordination Sequence:
#
# PCOD9570426 Si02
#       6
#    16  16  16  16  16  16
#     4  11  23  38  56  77 102 145 197 249 310 357
#     4  10  22  39  55  75 105 140 192 259 310 354
#     4  11  24  40  59  83 116 157 199 241 292 354
#     4  11  23  38  58  86 118 154 192 245 291 353
#     4  11  20  34  52  83 118 149 192 240 295 351
#     4  12  23  35  58  79 115 152 194 237 297 355
#
# _framework density 17.800350999999999
#
# number of rings (size 3 to 8) (size 9 to 14) (size 15 to 20)
#    0.000    1.000    5.000    3.500    2.333    3.000 
#    0.000    1.667    0.000    0.000    0.000    0.000 
#    0.000    0.333    0.000    0.333    0.000    0.000 
#
# Total GULP energy -535669.008752 kJ/mol
# GULP energy per Si atom -5579.885508 kJ/mol
# Density = 1.775984 g / cm^3
# Si number density = 17.800351 Si / 1000 Ang^3
#
#
#
# Elastic Constant Matrix: (Units=GPa)
#
#
# Indices 1 2 3 4 5 6 
#
# 1 48.4653 24.0160 18.4738 0.0000 0.0000 0.0000
# 2 24.0160 48.4661 18.4735 0.0000 0.0000 0.0000
# 3 18.4738 18.4735 95.6024 0.0000 0.0000 0.0000
# 4 0.0000 0.0000 0.0000 22.9800 0.0000 0.0000
# 5 0.0000 0.0000 0.0000 0.0000 22.9792 0.0000
# 6 0.0000 0.0000 0.0000 0.0000 0.0000 16.7712
#
#
#
# Elastic Compliance Matrix: (Units=1/GPa)
#
#
# Indices 1 2 3 4 5 6 
#
# 1 0.028102 -0.012798 -0.002957 0.000000 0.000000 0.000000
# 2 -0.012798 0.028102 -0.002957 0.000000 0.000000 0.000000
# 3 -0.002957 -0.002957 0.011603 0.000000 0.000000 0.000000
# 4 0.000000 0.000000 0.000000 0.043516 0.000000 0.000000
# 5 0.000000 0.000000 0.000000 0.000000 0.043518 0.000000
# 6 0.000000 0.000000 0.000000 0.000000 0.000000 0.059626
#
#
# Mechanical properties :
#
#
# Convention : Reuss Voigt Hill
#
# Bulk Modulus (GPa) = 32.91432 34.94004 33.92718
# Shear Modulus (GPa) = 19.08253 21.31743 20.19998
#
# Velocity S-wave (km/s) = 3.27774 3.46437 3.37235
# Velocity P-wave (km/s) = 5.73199 5.97277 5.85362
#
# Compressibility (1/GPa) = 0.03038192
#
# Stress axis : x y z
#
# Youngs Moduli (GPa) = 35.58405 35.58482 86.18553
#
# Poissons Ratio (x) = 0.45542 0.25488
# Poissons Ratio (y) = 0.45541 0.25486
# Poissons Ratio (z) = 0.10524 0.10523
#
# Static dielectric constant tensor:
#      x y z
#    x 1.587420 0.000000 0.000000 
#    y 0.000000 1.587420 0.000000 
#    z 0.000000 0.000000 1.697510 
# 
# From -- ./inp_files/2126.got.cif
#   From: 2010.05.17/outbox.cif.g08.bks.cpg/sg137_2_cif.got.tgz:2126.got - 2010.05.20 13:01:12.
