data_PCOD9570517
_publ_section_title
;
Structure prediction by ZEFSAII (Michael W. Deem and Ramdas Pophale) SiO2 
 PCOD9570517
Probable space group: P 42/N M C
;
_chemical_formula_sum "Si O2"
_cell_formula_units_Z 60
_cell_length_a 10.687831
_cell_length_b 10.687831
_cell_length_c 26.480465
_cell_angle_alpha 90.000000
_cell_angle_beta 90.000000
_cell_angle_gamma 90.000000
_cell_volume 3024.856407
_symmetry_space_group_name_H-M "P 42/N M C"
_symmetry_group_IT_number 137
_space_group.IT_coordinate_system_code '2'
_symmetry_cell_setting 'tetragonal'
loop_
_space_group_symop_operation_xyz
x,y,z
1/2-y,x,1/2+z
1/2-x,1/2-y,z
y,1/2-x,1/2+z
1/2+x,-y,-z
-x,1/2+y,-z
1/2+y,1/2+x,1/2-z
-y,-x,1/2-z
-x,-y,-z
1/2+y,-x,1/2-z
1/2+x,1/2+y,-z
-y,1/2+x,1/2-z
1/2-x,y,z
x,1/2-y,z
1/2-y,1/2-x,1/2+z
y,x,1/2+z
loop_
_atom_site_type_symbol
_atom_site_label
_atom_site_fract_x
_atom_site_fract_y
_atom_site_fract_z
Si Si1 0.750000 0.395334 0.426839
Si Si2 0.015845 0.750000 0.385201
Si Si3 0.550234 0.250000 0.734016
Si Si4 0.946593 0.750000 0.014395
Si Si5 0.750000 0.895695 0.670736
Si Si6 0.750000 0.750000 0.425761
Si Si7 0.958890 0.525002 0.592664
O O1 0.750000 0.250000 0.414096
O O2 0.750000 0.418847 0.487323
O O3 0.608439 0.442828 0.408096
O O4 0.042909 0.750000 0.325975
O O5 0.058932 0.876093 0.411445
O O6 0.868023 0.750000 0.390724
O O7 0.630190 0.130190 0.750000
O O8 0.431311 0.250000 0.770448
O O9 0.920020 0.874629 0.046944
O O10 0.864744 0.750000 0.963996
O O11 0.750000 0.750000 0.663716
O O12 0.623112 0.942384 0.642535
#
# Coordination Sequence:
#
# PCOD9570517 Si02
#       7
#     8   8   8   8   8   4  16
#     4  12  25  41  62  92 133 174 222 267 327 398
#     4  12  23  43  67  95 138 166 220 280 337 390
#     4  11  23  42  70 101 127 162 222 281 337 389
#     4  11  26  38  64  96 130 175 225 269 331 390
#     4  11  24  44  67  96 134 173 219 268 337 404
#     4  12  26  42  66  92 144 176 220 278 326 404
#     4  11  25  42  65  97 127 179 221 276 329 397
#
# _framework density 19.835650999999999
#
# number of rings (size 3 to 8) (size 9 to 14) (size 15 to 20)
#    0.000    0.667    5.333    1.600    8.400    1.600 
#    0.000    0.000    0.000    0.000    0.000    0.000 
#    0.000    0.000    0.000    0.000    0.000    0.000 
#
# Total GULP energy -334160.612235 kJ/mol
# GULP energy per Si atom -5569.343537 kJ/mol
# Density = 1.979050 g / cm^3
# Si number density = 19.835651 Si / 1000 Ang^3
#
#
#
# Elastic Constant Matrix: (Units=GPa)
#
#
# Indices 1 2 3 4 5 6 
#
# 1 96.4134 45.4048 6.2992 0.0000 0.0000 0.0000
# 2 45.4048 96.4134 6.2992 0.0000 0.0000 0.0000
# 3 6.2992 6.2992 52.6229 0.0000 0.0000 0.0000
# 4 0.0000 0.0000 0.0000 6.9368 0.0000 0.0000
# 5 0.0000 0.0000 0.0000 0.0000 6.9368 0.0000
# 6 0.0000 0.0000 0.0000 0.0000 0.0000 3.5543
#
#
#
# Elastic Compliance Matrix: (Units=1/GPa)
#
#
# Indices 1 2 3 4 5 6 
#
# 1 0.013366 -0.006239 -0.000853 0.000000 0.000000 0.000000
# 2 -0.006239 0.013366 -0.000853 0.000000 0.000000 0.000000
# 3 -0.000853 -0.000853 0.019207 0.000000 0.000000 0.000000
# 4 0.000000 0.000000 0.000000 0.144158 0.000000 0.000000
# 5 0.000000 0.000000 0.000000 0.000000 0.144158 0.000000
# 6 0.000000 0.000000 0.000000 0.000000 0.000000 0.281351
#
#
# Mechanical properties :
#
#
# Convention : Reuss Voigt Hill
#
# Bulk Modulus (GPa) = 33.27903 40.16180 36.72041
# Shear Modulus (GPa) = 7.79408 15.98201 11.88805
#
# Velocity S-wave (km/s) = 1.98440 2.84160 2.45077
# Velocity P-wave (km/s) = 4.69726 5.57293 5.15373
#
# Compressibility (1/GPa) = 0.03004895
#
# Stress axis : x y z
#
# Youngs Moduli (GPa) = 74.81771 74.81771 52.06328
#
# Poissons Ratio (x) = 0.46677 0.04442
# Poissons Ratio (y) = 0.46677 0.04442
# Poissons Ratio (z) = 0.06383 0.06383
#
# Static dielectric constant tensor:
#      x y z
#    x -0.779470 0.000000 0.000000 
#    y 0.000000 -0.779470 0.000000 
#    z 0.000000 0.000000 1.663970 
# 
# From -- ./inp_files/8684.got.cif
#   From: 2010.05.17/outbox.cif.g08.bks.cpg/sg137_5_cif.got.tgz:8684.got - 2010.05.20 13:01:12.
