data_PCOD9570208
_publ_section_title
;
Structure prediction by ZEFSAII (Michael W. Deem and Ramdas Pophale) SiO2 
 PCOD9570208
Probable space group: P 42/N M C
;
_chemical_formula_sum "Si O2"
_cell_formula_units_Z 96
_cell_length_a 15.698950
_cell_length_b 15.698950
_cell_length_c 20.413126
_cell_angle_alpha 90.000000
_cell_angle_beta 90.000000
_cell_angle_gamma 90.000000
_cell_volume 5030.958429
_symmetry_space_group_name_H-M "P 42/N M C"
_symmetry_group_IT_number 137
_space_group.IT_coordinate_system_code '2'
_symmetry_cell_setting 'tetragonal'
loop_
_space_group_symop_operation_xyz
x,y,z
1/2-y,x,1/2+z
1/2-x,1/2-y,z
y,1/2-x,1/2+z
1/2+x,-y,-z
-x,1/2+y,-z
1/2+y,1/2+x,1/2-z
-y,-x,1/2-z
-x,-y,-z
1/2+y,-x,1/2-z
1/2+x,1/2+y,-z
-y,1/2+x,1/2-z
1/2-x,y,z
x,1/2-y,z
1/2-y,1/2-x,1/2+z
y,x,1/2+z
loop_
_atom_site_type_symbol
_atom_site_label
_atom_site_fract_x
_atom_site_fract_y
_atom_site_fract_z
Si Si1 0.580235 0.483098 0.546448
Si Si2 0.847973 0.433514 0.189937
Si Si3 0.965686 0.494438 0.816511
Si Si4 0.148789 0.157614 0.486898
Si Si5 0.650518 0.342693 0.452761
Si Si6 0.149673 0.350753 0.142838
O O1 0.500000 0.500000 0.500000
O O2 0.554274 0.447402 0.616501
O O3 0.619774 0.576638 0.553452
O O4 0.634044 0.416780 0.504356
O O5 0.868744 0.368744 0.250000
O O6 0.750000 0.465313 0.197931
O O7 0.854101 0.392673 0.117725
O O8 0.931312 0.493890 0.189007
O O9 0.944601 0.444601 0.750000
O O10 0.915647 0.584656 0.822630
O O11 0.250000 0.162874 0.481091
O O12 0.111464 0.250000 0.468058
O O13 0.132364 0.143097 0.564428
O O14 0.750000 0.340666 0.439602
O O15 0.622699 0.250000 0.479153
O O16 0.250000 0.363909 0.160245
O O17 0.130162 0.250000 0.153494
#
# Coordination Sequence:
#
# PCOD9570208 Si02
#       6
#    16  16  16  16  16  16
#     4  12  21  35  55  83 109 145 182 231 284 327
#     4  10  20  34  53  82 123 161 183 206 260 342
#     4  11  24  38  53  83 118 149 187 232 287 336
#     4   9  18  33  57  86 112 142 184 233 281 333
#     4  10  21  36  56  82 111 147 190 231 274 333
#     4   9  18  36  61  83 106 145 195 238 277 329
#
# _framework density 19.081849999999999
#
# number of rings (size 3 to 8) (size 9 to 14) (size 15 to 20)
#    0.000    1.833    3.333    2.000    0.000    7.500 
#    0.000    1.667    0.000    2.000    0.000    1.167 
#    0.000    0.000    0.000    0.000    0.000    0.000 
#
# Total GULP energy -534943.828785 kJ/mol
# GULP energy per Si atom -5572.331550 kJ/mol
# Density = 1.903842 g / cm^3
# Si number density = 19.081850 Si / 1000 Ang^3
#
#
#
# Elastic Constant Matrix: (Units=GPa)
#
#
# Indices 1 2 3 4 5 6 
#
# 1 47.2610 11.8615 14.2168 0.0000 0.0000 0.0000
# 2 11.8615 47.2610 14.2168 0.0000 0.0000 0.0000
# 3 14.2168 14.2168 85.1861 0.0000 0.0000 0.0000
# 4 0.0000 0.0000 0.0000 -61.2825 0.0000 0.0000
# 5 0.0000 0.0000 0.0000 0.0000 -61.2825 0.0000
# 6 0.0000 0.0000 0.0000 0.0000 0.0000 -37.0186
#
#
#
# Elastic Compliance Matrix: (Units=1/GPa)
#
#
# Indices 1 2 3 4 5 6 
#
# 1 0.023320 -0.004929 -0.003069 0.000000 0.000000 0.000000
# 2 -0.004929 0.023320 -0.003069 0.000000 0.000000 0.000000
# 3 -0.003069 -0.003069 0.012763 0.000000 0.000000 0.000000
# 4 0.000000 0.000000 0.000000 -0.016318 0.000000 0.000000
# 5 0.000000 0.000000 0.000000 0.000000 -0.016318 0.000000
# 6 0.000000 0.000000 0.000000 0.000000 0.000000 -0.027013
#
#
# Mechanical properties :
#
#
# Convention : Reuss Voigt Hill
#
# Bulk Modulus (GPa) = 26.83337 28.92202 27.87770
# Shear Modulus (GPa) = 145.72515 -22.62252 61.55132
#
# Velocity S-wave (km/s) = 8.74839 -3.44692 5.68564
# Velocity P-wave (km/s) = 10.77675 0.80743 7.59890
#
# Compressibility (1/GPa) = 0.03726703
#
# Stress axis : x y z
#
# Youngs Moduli (GPa) = 42.88249 42.88249 78.34880
#
# Poissons Ratio (x) = 0.21139 0.24046
# Poissons Ratio (y) = 0.21139 0.24046
# Poissons Ratio (z) = 0.13161 0.13161
#
# Static dielectric constant tensor:
#      x y z
#    x 1.683470 0.000000 0.000000 
#    y 0.000000 1.683470 0.000000 
#    z 0.000000 0.000000 1.674430 
# 
# From -- ./inp_files/7820.got.cif
#   From: 2010.05.17/outbox.cif.g08.bks.cpg/sg137_4_cif.got.tgz:7820.got - 2010.05.20 13:01:12.
