data_PCOD9570270
_publ_section_title
;
Structure prediction by ZEFSAII (Michael W. Deem and Ramdas Pophale) SiO2 
 PCOD9570270
Probable space group: P 42/N M C
;
_chemical_formula_sum "Si O2"
_cell_formula_units_Z 88
_cell_length_a 15.093427
_cell_length_b 15.093427
_cell_length_c 19.252767
_cell_angle_alpha 90.000000
_cell_angle_beta 90.000000
_cell_angle_gamma 90.000000
_cell_volume 4386.002473
_symmetry_space_group_name_H-M "P 42/N M C"
_symmetry_group_IT_number 137
_space_group.IT_coordinate_system_code '2'
_symmetry_cell_setting 'tetragonal'
loop_
_space_group_symop_operation_xyz
x,y,z
1/2-y,x,1/2+z
1/2-x,1/2-y,z
y,1/2-x,1/2+z
1/2+x,-y,-z
-x,1/2+y,-z
1/2+y,1/2+x,1/2-z
-y,-x,1/2-z
-x,-y,-z
1/2+y,-x,1/2-z
1/2+x,1/2+y,-z
-y,1/2+x,1/2-z
1/2-x,y,z
x,1/2-y,z
1/2-y,1/2-x,1/2+z
y,x,1/2+z
loop_
_atom_site_type_symbol
_atom_site_label
_atom_site_fract_x
_atom_site_fract_y
_atom_site_fract_z
Si Si1 0.348532 0.848532 0.750000
Si Si2 0.845747 0.007663 0.432938
Si Si3 0.916604 0.001636 0.152743
Si Si4 0.047674 0.851857 0.191611
Si Si5 0.921839 0.652573 0.511196
Si Si6 0.851727 0.383739 0.952565
O O1 0.352789 0.750000 0.783102
O O2 0.432367 0.858024 0.698980
O O3 0.750000 0.999079 0.398681
O O4 0.860747 0.926393 0.485295
O O5 0.928676 0.014010 0.381392
O O6 0.848733 0.095709 0.480355
O O7 0.865228 0.956359 0.089000
O O8 0.967510 0.922828 0.191790
O O9 0.116813 0.883188 0.250000
O O10 0.020099 0.750000 0.202579
O O11 0.094980 0.859414 0.116542
O O12 0.881777 0.750000 0.505836
O O13 0.010285 0.649075 0.463964
O O14 0.750000 0.354219 0.949541
#
# Coordination Sequence:
#
# PCOD9570270 Si02
#       6
#     8  16  16  16  16  16
#     4  11  24  42  68  96 121 156 200 248 307 366
#     4  11  21  36  60  90 123 157 197 242 299 359
#     4  11  21  41  61  90 124 160 195 249 305 357
#     4  12  24  39  61  87 118 159 207 251 303 360
#     4  10  20  36  60  87 118 158 200 239 289 353
#     4  10  20  37  59  85 121 155 191 248 305 349
#
# _framework density 20.063828000000001
#
# number of rings (size 3 to 8) (size 9 to 14) (size 15 to 20)
#    0.000    1.182    4.545    3.273    0.000    3.455 
#    0.000    0.000    0.000    1.636    0.000    0.000 
#    0.000    0.000    0.000    0.000    0.000    0.000 
#
# Total GULP energy -491294.110561 kJ/mol
# GULP energy per Si atom -5582.887620 kJ/mol
# Density = 2.001816 g / cm^3
# Si number density = 20.063828 Si / 1000 Ang^3
#
#
#
# Elastic Constant Matrix: (Units=GPa)
#
#
# Indices 1 2 3 4 5 6 
#
# 1 101.1413 52.3166 10.5631 0.0000 0.0000 0.0000
# 2 52.3166 101.1415 10.5634 0.0000 0.0000 0.0000
# 3 10.5631 10.5634 42.2551 0.0000 0.0000 0.0000
# 4 0.0000 0.0000 0.0000 4.9429 0.0000 0.0000
# 5 0.0000 0.0000 0.0000 0.0000 4.9431 0.0000
# 6 0.0000 0.0000 0.0000 0.0000 0.0000 7.8543
#
#
#
# Elastic Compliance Matrix: (Units=1/GPa)
#
#
# Indices 1 2 3 4 5 6 
#
# 1 0.013615 -0.006866 -0.001687 0.000000 0.000000 0.000000
# 2 -0.006866 0.013615 -0.001687 0.000000 0.000000 0.000000
# 3 -0.001687 -0.001687 0.024509 0.000000 0.000000 0.000000
# 4 0.000000 0.000000 0.000000 0.202311 0.000000 0.000000
# 5 0.000000 0.000000 0.000000 0.000000 0.202301 0.000000
# 6 0.000000 0.000000 0.000000 0.000000 0.000000 0.127320
#
#
# Mechanical properties :
#
#
# Convention : Reuss Voigt Hill
#
# Bulk Modulus (GPa) = 31.99150 43.49156 37.74153
# Shear Modulus (GPa) = 8.13574 14.95438 11.54506
#
# Velocity S-wave (km/s) = 2.01587 2.73305 2.40139
# Velocity P-wave (km/s) = 4.62577 5.62877 5.15174
#
# Compressibility (1/GPa) = 0.03125831
#
# Stress axis : x y z
#
# Youngs Moduli (GPa) = 73.44817 73.44817 40.80091
#
# Poissons Ratio (x) = 0.50432 0.06883
# Poissons Ratio (y) = 0.50432 0.06884
# Poissons Ratio (z) = 0.12391 0.12392
#
# Static dielectric constant tensor:
#      x y z
#    x 1.715670 0.000000 0.000000 
#    y 0.000000 1.715670 0.000000 
#    z 0.000000 0.000000 1.716090 
# 
# From -- ./inp_files/7706.got.cif
#   From: 2010.05.17/outbox.cif.g08.bks.cpg/sg137_4_cif.got.tgz:7706.got - 2010.05.20 13:01:12.
