data_PCOD9570193
_publ_section_title
;
Structure prediction by ZEFSAII (Michael W. Deem and Ramdas Pophale) SiO2 
 PCOD9570193
Probable space group: P 42/N M C
;
_chemical_formula_sum "Si O2"
_cell_formula_units_Z 112
_cell_length_a 14.995481
_cell_length_b 14.995481
_cell_length_c 25.408451
_cell_angle_alpha 90.000000
_cell_angle_beta 90.000000
_cell_angle_gamma 90.000000
_cell_volume 5713.457370
_symmetry_space_group_name_H-M "P 42/N M C"
_symmetry_group_IT_number 137
_space_group.IT_coordinate_system_code '2'
_symmetry_cell_setting 'tetragonal'
loop_
_space_group_symop_operation_xyz
x,y,z
1/2-y,x,1/2+z
1/2-x,1/2-y,z
y,1/2-x,1/2+z
1/2+x,-y,-z
-x,1/2+y,-z
1/2+y,1/2+x,1/2-z
-y,-x,1/2-z
-x,-y,-z
1/2+y,-x,1/2-z
1/2+x,1/2+y,-z
-y,1/2+x,1/2-z
1/2-x,y,z
x,1/2-y,z
1/2-y,1/2-x,1/2+z
y,x,1/2+z
loop_
_atom_site_type_symbol
_atom_site_label
_atom_site_fract_x
_atom_site_fract_y
_atom_site_fract_z
Si Si1 0.013164 0.354510 0.306425
Si Si2 0.352549 0.461815 0.379241
Si Si3 0.354543 0.986356 0.685532
Si Si4 0.407520 0.352394 0.477308
Si Si5 0.347106 0.856028 0.086136
Si Si6 0.151496 0.614452 0.960764
Si Si7 0.351180 0.045866 0.576570
O O1 0.012645 0.250000 0.319460
O O2 0.087101 0.406059 0.339603
O O3 0.918196 0.400686 0.317800
O O4 0.027092 0.364963 0.243634
O O5 0.250000 0.465720 0.361468
O O6 0.354521 0.412438 0.435830
O O7 0.389661 0.561980 0.387736
O O8 0.250000 0.962973 0.679511
O O9 0.378124 0.051695 0.637418
O O10 0.375873 0.250000 0.481217
O O11 0.507936 0.350225 0.455644
O O12 0.407862 0.401068 0.533736
O O13 0.250000 0.893868 0.101916
O O14 0.345648 0.750000 0.096776
O O15 0.353858 0.865681 0.023099
O O16 0.250000 0.645689 0.942446
O O17 0.060349 0.648166 0.935442
O O18 0.250000 0.078651 0.570035
#
# Coordination Sequence:
#
# PCOD9570193 Si02
#       7
#    16  16  16  16  16  16  16
#     4  10  21  39  61  85 115 151 190 242 299 351
#     4  11  22  36  59  87 116 157 201 243 289 344
#     4   9  21  39  60  84 110 146 193 244 302 351
#     4  11  23  35  50  78 115 154 192 229 280 344
#     4   9  18  33  53  82 118 152 189 235 290 345
#     4  10  20  33  52  80 113 149 187 231 282 342
#     4  11  21  34  53  77 109 147 183 228 282 343
#
# _framework density 19.602841000000002
#
# number of rings (size 3 to 8) (size 9 to 14) (size 15 to 20)
#    0.000    1.857    1.429    2.571    2.000    4.857 
#    0.000    3.571    0.000    6.000    0.000    0.000 
#    0.000    0.000    0.000    0.000    0.000    0.143 
#
# Total GULP energy -625199.627938 kJ/mol
# GULP energy per Si atom -5582.139535 kJ/mol
# Density = 1.955822 g / cm^3
# Si number density = 19.602841 Si / 1000 Ang^3
#
#
#
# Elastic Constant Matrix: (Units=GPa)
#
#
# Indices 1 2 3 4 5 6 
#
# 1 85.5705 26.2387 43.7245 0.0000 0.0000 0.0000
# 2 26.2387 85.5705 43.7245 0.0000 0.0000 0.0000
# 3 43.7245 43.7245 89.2164 0.0000 0.0000 0.0000
# 4 0.0000 0.0000 0.0000 23.5537 0.0000 0.0000
# 5 0.0000 0.0000 0.0000 0.0000 23.5537 0.0000
# 6 0.0000 0.0000 0.0000 0.0000 0.0000 17.3610
#
#
#
# Elastic Compliance Matrix: (Units=1/GPa)
#
#
# Indices 1 2 3 4 5 6 
#
# 1 0.015679 -0.001176 -0.007108 0.000000 0.000000 0.000000
# 2 -0.001176 0.015679 -0.007108 0.000000 0.000000 0.000000
# 3 -0.007108 -0.007108 0.018176 0.000000 0.000000 0.000000
# 4 0.000000 0.000000 0.000000 0.042456 0.000000 0.000000
# 5 0.000000 0.000000 0.000000 0.000000 0.042456 0.000000
# 6 0.000000 0.000000 0.000000 0.000000 0.000000 0.057600
#
#
# Mechanical properties :
#
#
# Convention : Reuss Voigt Hill
#
# Bulk Modulus (GPa) = 53.33222 54.19254 53.76238
# Shear Modulus (GPa) = 21.82654 22.67166 22.24910
#
# Velocity S-wave (km/s) = 3.34044 3.40450 3.37262
# Velocity P-wave (km/s) = 6.49180 6.56958 6.53081
#
# Compressibility (1/GPa) = 0.01875039
#
# Stress axis : x y z
#
# Youngs Moduli (GPa) = 63.78073 63.78073 55.01831
#
# Poissons Ratio (x) = 0.07498 0.39106
# Poissons Ratio (y) = 0.07498 0.39106
# Poissons Ratio (z) = 0.45335 0.45335
#
# Static dielectric constant tensor:
#      x y z
#    x 1.702840 0.000000 0.000000 
#    y 0.000000 1.702840 0.000000 
#    z 0.000000 0.000000 1.696450 
# 
# From -- ./inp_files/9771.got.cif
#   From: 2010.05.17/outbox.cif.g08.bks.cpg/sg137_5_cif.got.tgz:9771.got - 2010.05.20 13:01:12.
