data_PCOD9570698
_publ_section_title
;
Structure prediction by ZEFSAII (Michael W. Deem and Ramdas Pophale) SiO2 
 PCOD9570698
Probable space group: P 42/N C M
;
_chemical_formula_sum "Si O2"
_cell_formula_units_Z 96
_cell_length_a 24.333117
_cell_length_b 24.333117
_cell_length_c 6.944738
_cell_angle_alpha 90.000000
_cell_angle_beta 90.000000
_cell_angle_gamma 90.000000
_cell_volume 4111.983418
_symmetry_space_group_name_H-M "P 42/N C M"
_symmetry_group_IT_number 138
_space_group.IT_coordinate_system_code '2'
_symmetry_cell_setting 'tetragonal'
loop_
_space_group_symop_operation_xyz
x,y,z
1/2-y,x,1/2+z
1/2-x,1/2-y,z
y,1/2-x,1/2+z
1/2+x,-y,1/2-z
-x,1/2+y,1/2-z
1/2+y,1/2+x,-z
-y,-x,-z
-x,-y,-z
1/2+y,-x,1/2-z
1/2+x,1/2+y,-z
-y,1/2+x,1/2-z
1/2-x,y,1/2+z
x,1/2-y,1/2+z
1/2-y,1/2-x,z
y,x,z
loop_
_atom_site_type_symbol
_atom_site_label
_atom_site_fract_x
_atom_site_fract_y
_atom_site_fract_z
Si Si1 0.633756 0.866245 0.980107
Si Si2 0.448228 0.877905 0.771183
Si Si3 0.634246 0.037122 0.312051
Si Si4 0.916782 0.743729 0.048776
Si Si5 0.429361 0.429361 0.119402
Si Si6 0.951887 0.548114 0.808298
Si Si7 0.997554 0.257372 0.203120
Si Si8 0.841831 0.841831 0.058431
O O1 0.602028 0.818463 0.089950
O O2 0.591178 0.908823 0.892102
O O3 0.659245 0.840756 0.789255
O O4 0.390281 0.909182 0.791567
O O5 0.456317 0.874179 0.540497
O O6 0.490716 0.922996 0.854737
O O7 0.465291 0.815440 0.826566
O O8 0.601397 0.979541 0.273628
O O9 0.698596 0.032284 0.274732
O O10 0.932799 0.736159 0.794527
O O11 0.865574 0.783140 0.008358
O O12 0.985146 0.756966 0.042842
O O13 0.385600 0.385600 0.032232
O O14 0.454173 0.454173 0.923915
#
# Coordination Sequence:
#
# PCOD9570698 Si02
#       8
#     8  16  16  16   8   8  16   8
#     4  11  22  38  57  83 117 159 198 249 298 339
#     4  10  19  34  59  88 117 154 196 242 294 358
#     4  10  20  33  58  90 117 151 197 242 294 362
#     4  12  23  38  61  82 116 160 202 242 293 345
#     4   9  15  29  54  85 112 141 190 239 279 353
#     4   9  15  30  56  81 114 145 184 234 300 345
#     4  12  21  39  60  88 117 155 196 241 295 357
#     4  11  20  37  57  83 114 155 203 249 290 344
#
# _framework density 23.346398000000001
#
# number of rings (size 3 to 8) (size 9 to 14) (size 15 to 20)
#    0.000    1.333    6.667    1.500    0.000    3.667 
#    0.000    1.667    0.000    1.500    0.000    2.333 
#    0.000    0.000    0.000    0.000    0.000    0.000 
#
# Total GULP energy -535059.786035 kJ/mol
# GULP energy per Si atom -5573.539438 kJ/mol
# Density = 2.329326 g / cm^3
# Si number density = 23.346398 Si / 1000 Ang^3
#
#
#
# Elastic Constant Matrix: (Units=GPa)
#
#
# Indices 1 2 3 4 5 6 
#
# 1 112.8257 158.3557 20.6433 0.0000 0.0000 0.0000
# 2 158.3557 112.8257 20.6433 0.0000 0.0000 0.0000
# 3 20.6433 20.6433 132.5596 0.0000 0.0000 0.0000
# 4 0.0000 0.0000 0.0000 29.2512 0.0000 0.0000
# 5 0.0000 0.0000 0.0000 0.0000 29.2512 0.0000
# 6 0.0000 0.0000 0.0000 0.0000 0.0000 32.2239
#
#
#
# Elastic Compliance Matrix: (Units=1/GPa)
#
#
# Indices 1 2 3 4 5 6 
#
# 1 -0.009093 0.012870 -0.000588 0.000000 0.000000 0.000000
# 2 0.012870 -0.009093 -0.000588 0.000000 0.000000 0.000000
# 3 -0.000588 -0.000588 0.007727 0.000000 0.000000 0.000000
# 4 0.000000 0.000000 0.000000 0.034187 0.000000 0.000000
# 5 0.000000 0.000000 0.000000 0.000000 0.034187 0.000000
# 6 0.000000 0.000000 0.000000 0.000000 0.000000 0.031033
#
#
# Mechanical properties :
#
#
# Convention : Reuss Voigt Hill
#
# Bulk Modulus (GPa) = 77.34911 84.16617 80.75764
# Shear Modulus (GPa) = 71.56321 28.71651 50.13986
#
# Velocity S-wave (km/s) = 5.54250 3.51097 4.63930
# Velocity P-wave (km/s) = 8.61174 7.25018 7.96013
#
# Compressibility (1/GPa) = 0.01292840
#
# Stress axis : x y z
#
# Youngs Moduli (GPa) = -109.97219 -109.97219 129.41676
#
# Poissons Ratio (x) = 1.41538 0.07612
# Poissons Ratio (y) = 1.41538 0.07612
# Poissons Ratio (z) = -0.06469 -0.06469
#
# Static dielectric constant tensor:
#      x y z
#    x 1.813700 0.000000 0.000000 
#    y 0.000000 1.813700 0.000000 
#    z 0.000000 0.000000 2.532410 
# 
# From -- ./inp_files/1805.got.cif
#   From: 2010.05.17/outbox.cif.g08.bks.cpg/sg138_1_cif.got.tgz:1805.got - 2010.05.20 13:08:53.
