data_PCOD9570188
_publ_section_title
;
Structure prediction by ZEFSAII (Michael W. Deem and Ramdas Pophale) SiO2 
 PCOD9570188
Probable space group: P 42/N M C
;
_chemical_formula_sum "Si O2"
_cell_formula_units_Z 112
_cell_length_a 14.441385
_cell_length_b 14.441385
_cell_length_c 31.171140
_cell_angle_alpha 90.000000
_cell_angle_beta 90.000000
_cell_angle_gamma 90.000000
_cell_volume 6500.853485
_symmetry_space_group_name_H-M "P 42/N M C"
_symmetry_group_IT_number 137
_space_group.IT_coordinate_system_code '2'
_symmetry_cell_setting 'tetragonal'
loop_
_space_group_symop_operation_xyz
x,y,z
1/2-y,x,1/2+z
1/2-x,1/2-y,z
y,1/2-x,1/2+z
1/2+x,-y,-z
-x,1/2+y,-z
1/2+y,1/2+x,1/2-z
-y,-x,1/2-z
-x,-y,-z
1/2+y,-x,1/2-z
1/2+x,1/2+y,-z
-y,1/2+x,1/2-z
1/2-x,y,z
x,1/2-y,z
1/2-y,1/2-x,1/2+z
y,x,1/2+z
loop_
_atom_site_type_symbol
_atom_site_label
_atom_site_fract_x
_atom_site_fract_y
_atom_site_fract_z
Si Si1 0.641525 0.357837 0.086286
Si Si2 0.964984 0.640363 0.864314
Si Si3 0.965917 0.861708 0.536568
Si Si4 0.141614 0.998959 0.302669
Si Si5 0.361152 0.358896 0.047003
Si Si6 0.142014 0.361372 0.877082
Si Si7 0.982400 0.640977 0.296849
O O1 0.750000 0.370038 0.097112
O O2 0.626320 0.250000 0.075167
O O3 0.572350 0.380729 0.125234
O O4 0.619100 0.427229 0.047402
O O5 0.956708 0.750000 0.857272
O O6 0.910824 0.618186 0.908462
O O7 0.917677 0.587795 0.825481
O O8 0.956117 0.750000 0.534719
O O9 0.922477 0.895207 0.492192
O O10 0.908348 0.890418 0.578703
O O11 0.250000 0.979030 0.308816
O O12 0.081480 0.906207 0.305854
O O13 0.113323 0.075174 0.337780
O O14 0.130343 0.035788 0.254031
O O15 0.250000 0.369598 0.052110
O O16 0.378049 0.250000 0.037239
O O17 0.250000 0.387363 0.869484
O O18 0.139690 0.250000 0.881870
O O19 0.979734 0.750000 0.307136
#
# Coordination Sequence:
#
# PCOD9570188 Si02
#       7
#    16  16  16  16  16  16  16
#     4   9  18  32  48  67  93 127 168 208 243 289
#     4  10  20  33  51  75 101 131 166 204 250 299
#     4   9  16  27  46  69  94 128 164 199 243 289
#     4   9  19  34  51  73  99 127 161 200 242 291
#     4   9  17  29  45  69 100 128 158 200 249 301
#     4   9  16  27  46  73 101 125 153 195 245 292
#     4  10  20  34  52  72  96 127 163 202 243 292
#
# _framework density 17.228505999999999
#
# number of rings (size 3 to 8) (size 9 to 14) (size 15 to 20)
#    0.000    2.714    0.000    1.714    0.000    4.000 
#    0.000    2.857    0.000    1.714    0.000    2.000 
#    0.000    4.571    0.000    0.000    0.000    0.000 
#
# Total GULP energy -624232.010240 kJ/mol
# GULP energy per Si atom -5573.500091 kJ/mol
# Density = 1.718929 g / cm^3
# Si number density = 17.228506 Si / 1000 Ang^3
#
#
#
# Elastic Constant Matrix: (Units=GPa)
#
#
# Indices 1 2 3 4 5 6 
#
# 1 59.1977 25.2339 28.8489 0.0000 0.0000 0.0000
# 2 25.2339 59.1977 28.8489 0.0000 0.0000 0.0000
# 3 28.8489 28.8489 49.7946 0.0000 0.0000 0.0000
# 4 0.0000 0.0000 0.0000 22.5150 0.0000 0.0000
# 5 0.0000 0.0000 0.0000 0.0000 22.5150 0.0000
# 6 0.0000 0.0000 0.0000 0.0000 0.0000 19.8617
#
#
#
# Elastic Compliance Matrix: (Units=1/GPa)
#
#
# Indices 1 2 3 4 5 6 
#
# 1 0.024525 -0.004918 -0.011359 0.000000 0.000000 0.000000
# 2 -0.004918 0.024525 -0.011359 0.000000 0.000000 0.000000
# 3 -0.011359 -0.011359 0.033244 0.000000 0.000000 0.000000
# 4 0.000000 0.000000 0.000000 0.044415 0.000000 0.000000
# 5 0.000000 0.000000 0.000000 0.000000 0.044415 0.000000
# 6 0.000000 0.000000 0.000000 0.000000 0.000000 0.050348
#
#
# Mechanical properties :
#
#
# Convention : Reuss Voigt Hill
#
# Bulk Modulus (GPa) = 37.00854 37.11703 37.06279
# Shear Modulus (GPa) = 17.49771 18.66223 18.07997
#
# Velocity S-wave (km/s) = 3.19035 3.29480 3.24299
# Velocity P-wave (km/s) = 5.92442 6.00541 5.96505
#
# Compressibility (1/GPa) = 0.02702079
#
# Stress axis : x y z
#
# Youngs Moduli (GPa) = 40.77521 40.77521 30.08020
#
# Poissons Ratio (x) = 0.20055 0.34168
# Poissons Ratio (y) = 0.20055 0.34168
# Poissons Ratio (z) = 0.46317 0.46317
#
# Static dielectric constant tensor:
#      x y z
#    x 1.601640 0.000000 0.000000 
#    y 0.000000 1.601640 0.000000 
#    z 0.000000 0.000000 1.560220 
# 
# From -- ./inp_files/9828.got.cif
#   From: 2010.05.17/outbox.cif.g08.bks.cpg/sg137_5_cif.got.tgz:9828.got - 2010.05.20 13:01:12.
