data_PCOD9570231
_publ_section_title
;
Structure prediction by ZEFSAII (Michael W. Deem and Ramdas Pophale) SiO2 
 PCOD9570231
Probable space group: P 42/N M C
;
_chemical_formula_sum "Si O2"
_cell_formula_units_Z 112
_cell_length_a 15.094448
_cell_length_b 15.094448
_cell_length_c 30.203819
_cell_angle_alpha 90.000000
_cell_angle_beta 90.000000
_cell_angle_gamma 90.000000
_cell_volume 6881.709415
_symmetry_space_group_name_H-M "P 42/N M C"
_symmetry_group_IT_number 137
_space_group.IT_coordinate_system_code '2'
_symmetry_cell_setting 'tetragonal'
loop_
_space_group_symop_operation_xyz
x,y,z
1/2-y,x,1/2+z
1/2-x,1/2-y,z
y,1/2-x,1/2+z
1/2+x,-y,-z
-x,1/2+y,-z
1/2+y,1/2+x,1/2-z
-y,-x,1/2-z
-x,-y,-z
1/2+y,-x,1/2-z
1/2+x,1/2+y,-z
-y,1/2+x,1/2-z
1/2-x,y,z
x,1/2-y,z
1/2-y,1/2-x,1/2+z
y,x,1/2+z
loop_
_atom_site_type_symbol
_atom_site_label
_atom_site_fract_x
_atom_site_fract_y
_atom_site_fract_z
Si Si1 0.148050 0.649251 0.068708
Si Si2 0.149436 0.146808 0.560015
Si Si3 0.509166 0.856520 0.367178
Si Si4 0.904050 0.978277 0.518948
Si Si5 0.649577 0.857474 0.199345
Si Si6 0.356355 0.145525 0.402516
Si Si7 0.493886 0.857243 0.266364
O O1 0.250000 0.628890 0.054292
O O2 0.146512 0.750000 0.084326
O O3 0.124833 0.583484 0.108657
O O4 0.073068 0.638221 0.031470
O O5 0.250000 0.147314 0.576116
O O6 0.126421 0.250000 0.548371
O O7 0.142202 0.083158 0.517813
O O8 0.084672 0.114003 0.598681
O O9 0.518265 0.750000 0.364959
O O10 0.512936 0.886894 0.316777
O O11 0.903791 0.919132 0.563336
O O12 0.000000 0.000000 0.500000
O O13 0.750000 0.887143 0.210158
O O14 0.651559 0.750000 0.199542
O O15 0.629133 0.882486 0.148526
O O16 0.574770 0.883752 0.234145
O O17 0.250000 0.130482 0.406700
O O18 0.371569 0.250000 0.411978
O O19 0.405391 0.905391 0.250000
O O20 0.485233 0.750000 0.265248
#
# Coordination Sequence:
#
# PCOD9570231 Si02
#       7
#    16  16  16  16  16  16  16
#     4  10  21  36  51  67  96 138 176 207 239 288
#     4  10  20  35  54  75 101 129 163 211 259 302
#     4   9  19  35  49  70  99 130 171 207 240 290
#     4  12  22  31  50  74 101 133 164 209 258 299
#     4   8  16  32  52  73  97 126 162 207 256 299
#     4   9  18  33  53  76  98 122 162 212 257 303
#     4  10  21  33  50  74 104 137 170 207 244 293
#
# _framework density 16.275026
#
# number of rings (size 3 to 8) (size 9 to 14) (size 15 to 20)
#    0.000    2.286    1.429    2.571    2.000    3.000 
#    0.000    4.286    0.000    0.000    0.000    0.000 
#    0.000    0.286    0.000    0.000    0.000    0.000 
#
# Total GULP energy -624095.145276 kJ/mol
# GULP energy per Si atom -5572.278083 kJ/mol
# Density = 1.623798 g / cm^3
# Si number density = 16.275026 Si / 1000 Ang^3
#
#
#
# Elastic Constant Matrix: (Units=GPa)
#
#
# Indices 1 2 3 4 5 6 
#
# 1 75.9834 39.5044 56.3920 0.0000 0.0000 0.0000
# 2 39.5044 75.9834 56.3920 0.0000 0.0000 0.0000
# 3 56.3920 56.3920 116.7314 0.0000 0.0000 0.0000
# 4 0.0000 0.0000 0.0000 11.3474 0.0000 0.0000
# 5 0.0000 0.0000 0.0000 0.0000 11.3474 0.0000
# 6 0.0000 0.0000 0.0000 0.0000 0.0000 17.8181
#
#
#
# Elastic Compliance Matrix: (Units=1/GPa)
#
#
# Indices 1 2 3 4 5 6 
#
# 1 0.021903 -0.005510 -0.007919 0.000000 0.000000 0.000000
# 2 -0.005510 0.021903 -0.007919 0.000000 0.000000 0.000000
# 3 -0.007919 -0.007919 0.016218 0.000000 0.000000 0.000000
# 4 0.000000 0.000000 0.000000 0.088126 0.000000 0.000000
# 5 0.000000 0.000000 0.000000 0.000000 0.088126 0.000000
# 6 0.000000 0.000000 0.000000 0.000000 0.000000 0.056123
#
#
# Mechanical properties :
#
#
# Convention : Reuss Voigt Hill
#
# Bulk Modulus (GPa) = 57.71427 63.69721 60.70574
# Shear Modulus (GPa) = 14.66834 15.86326 15.26580
#
# Velocity S-wave (km/s) = 3.00539 3.12541 3.06598
# Velocity P-wave (km/s) = 6.89797 7.22822 7.06503
#
# Compressibility (1/GPa) = 0.01732674
#
# Stress axis : x y z
#
# Youngs Moduli (GPa) = 45.65616 45.65616 61.65972
#
# Poissons Ratio (x) = 0.25157 0.48829
# Poissons Ratio (y) = 0.25157 0.48829
# Poissons Ratio (z) = 0.36156 0.36156
#
# Static dielectric constant tensor:
#      x y z
#    x 1.559700 0.000000 0.000000 
#    y 0.000000 1.559700 0.000000 
#    z 0.000000 0.000000 1.548730 
# 
# From -- ./inp_files/9849.got.cif
#   From: 2010.05.17/outbox.cif.g08.bks.cpg/sg137_5_cif.got.tgz:9849.got - 2010.05.20 13:01:12.
