data_PCOD9570347
_publ_section_title
;
Structure prediction by ZEFSAII (Michael W. Deem and Ramdas Pophale) SiO2 
 PCOD9570347
Probable space group: P 42/N M C
;
_chemical_formula_sum "Si O2"
_cell_formula_units_Z 80
_cell_length_a 16.473734
_cell_length_b 16.473734
_cell_length_c 15.130333
_cell_angle_alpha 90.000000
_cell_angle_beta 90.000000
_cell_angle_gamma 90.000000
_cell_volume 4106.128958
_symmetry_space_group_name_H-M "P 42/N M C"
_symmetry_group_IT_number 137
_space_group.IT_coordinate_system_code '2'
_symmetry_cell_setting 'tetragonal'
loop_
_space_group_symop_operation_xyz
x,y,z
1/2-y,x,1/2+z
1/2-x,1/2-y,z
y,1/2-x,1/2+z
1/2+x,-y,-z
-x,1/2+y,-z
1/2+y,1/2+x,1/2-z
-y,-x,1/2-z
-x,-y,-z
1/2+y,-x,1/2-z
1/2+x,1/2+y,-z
-y,1/2+x,1/2-z
1/2-x,y,z
x,1/2-y,z
1/2-y,1/2-x,1/2+z
y,x,1/2+z
loop_
_atom_site_type_symbol
_atom_site_label
_atom_site_fract_x
_atom_site_fract_y
_atom_site_fract_z
Si Si1 0.405243 0.466386 0.275880
Si Si2 0.659290 0.938527 0.911314
Si Si3 0.023367 0.157797 0.976175
Si Si4 0.838905 0.451447 0.202719
Si Si5 0.608388 0.160425 0.496610
O O1 0.448366 0.551635 0.250000
O O2 0.350865 0.436709 0.194268
O O3 0.366127 0.469741 0.372750
O O4 0.477263 0.401251 0.280813
O O5 0.750000 0.908126 0.937324
O O6 0.583407 0.896982 0.962916
O O7 0.656298 0.033336 0.936346
O O8 0.049766 0.250000 0.988887
O O9 0.926989 0.151658 0.998436
O O10 0.871289 0.371289 0.250000
O O11 0.750000 0.473792 0.235189
O O12 0.837046 0.432111 0.099676
O O13 0.649325 0.250000 0.509005
#
# Coordination Sequence:
#
# PCOD9570347 Si02
#       5
#    16  16  16  16  16
#     4  11  21  38  65  89 121 162 213 255 315 384
#     4  11  23  41  63  89 126 169 211 259 313 375
#     4  12  24  40  64  96 128 163 212 264 316 383
#     4  10  21  36  59  89 120 161 207 259 314 376
#     4  10  21  40  64  87 122 166 206 255 318 379
#
# _framework density 19.483070999999999
#
# number of rings (size 3 to 8) (size 9 to 14) (size 15 to 20)
#    0.000    1.200    4.000    3.600    0.000    4.200 
#    0.000    2.000    0.000    3.600    0.000    0.000 
#    0.000    0.000    0.000    0.000    0.000    0.000 
#
# Total GULP energy -446023.789402 kJ/mol
# GULP energy per Si atom -5575.297368 kJ/mol
# Density = 1.943873 g / cm^3
# Si number density = 19.483071 Si / 1000 Ang^3
#
#
#
# Elastic Constant Matrix: (Units=GPa)
#
#
# Indices 1 2 3 4 5 6 
#
# 1 99.9095 11.5708 16.7767 0.0000 0.0000 0.0000
# 2 11.5708 99.9062 16.7795 0.0000 0.0000 0.0000
# 3 16.7767 16.7795 75.9088 0.0000 0.0000 0.0000
# 4 0.0000 0.0000 0.0000 3.3916 0.0000 0.0000
# 5 0.0000 0.0000 0.0000 0.0000 3.3939 0.0000
# 6 0.0000 0.0000 0.0000 0.0000 0.0000 2.2046
#
#
#
# Elastic Compliance Matrix: (Units=1/GPa)
#
#
# Indices 1 2 3 4 5 6 
#
# 1 0.010465 -0.000855 -0.002124 0.000000 0.000000 0.000000
# 2 -0.000855 0.010465 -0.002124 0.000000 0.000000 0.000000
# 3 -0.002124 -0.002124 0.014113 0.000000 0.000000 0.000000
# 4 0.000000 0.000000 0.000000 0.294844 0.000000 0.000000
# 5 0.000000 0.000000 0.000000 0.000000 0.294643 0.000000
# 6 0.000000 0.000000 0.000000 0.000000 0.000000 0.453599
#
#
# Mechanical properties :
#
#
# Convention : Reuss Voigt Hill
#
# Bulk Modulus (GPa) = 40.26430 40.66430 40.46430
# Shear Modulus (GPa) = 4.55949 17.17120 10.86534
#
# Velocity S-wave (km/s) = 1.53144 2.97196 2.36409
# Velocity P-wave (km/s) = 4.88244 5.71783 5.31657
#
# Compressibility (1/GPa) = 0.02483590
#
# Stress axis : x y z
#
# Youngs Moduli (GPa) = 95.55903 95.55457 70.85843
#
# Poissons Ratio (x) = 0.08173 0.15049
# Poissons Ratio (y) = 0.08173 0.15052
# Poissons Ratio (z) = 0.20295 0.20299
#
# Static dielectric constant tensor:
#      x y z
#    x 1.700910 0.000000 0.000000 
#    y 0.000000 1.700910 0.000000 
#    z 0.000000 0.000000 1.927520 
# 
# From -- ./inp_files/4970.got.cif
#   From: 2010.05.17/outbox.cif.g08.bks.cpg/sg137_3_cif.got.tgz:4970.got - 2010.05.20 13:01:12.
