data_PCOD9570884
_publ_section_title
;
Structure prediction by ZEFSAII (Michael W. Deem and Ramdas Pophale) SiO2 
 PCOD9570884
Probable space group: P 42/N C M
;
_chemical_formula_sum "Si O2"
_cell_formula_units_Z 128
_cell_length_a 21.943201
_cell_length_b 21.943201
_cell_length_c 11.715825
_cell_angle_alpha 90.000000
_cell_angle_beta 90.000000
_cell_angle_gamma 90.000000
_cell_volume 5641.217422
_symmetry_space_group_name_H-M "P 42/N C M"
_symmetry_group_IT_number 138
_space_group.IT_coordinate_system_code '2'
_symmetry_cell_setting 'tetragonal'
loop_
_space_group_symop_operation_xyz
x,y,z
1/2-y,x,1/2+z
1/2-x,1/2-y,z
y,1/2-x,1/2+z
1/2+x,-y,1/2-z
-x,1/2+y,1/2-z
1/2+y,1/2+x,-z
-y,-x,-z
-x,-y,-z
1/2+y,-x,1/2-z
1/2+x,1/2+y,-z
-y,1/2+x,1/2-z
1/2-x,y,1/2+z
x,1/2-y,1/2+z
1/2-y,1/2-x,z
y,x,z
loop_
_atom_site_type_symbol
_atom_site_label
_atom_site_fract_x
_atom_site_fract_y
_atom_site_fract_z
Si Si1 0.125573 0.722568 0.501063
Si Si2 0.699837 0.601922 0.397235
Si Si3 0.380759 0.522844 0.991704
Si Si4 0.631199 0.964062 0.082375
Si Si5 0.392576 0.887318 0.124034
Si Si6 0.314739 0.043985 0.682785
Si Si7 0.517254 0.613405 0.264386
Si Si8 0.591417 0.274122 0.244938
O O1 0.192172 0.692172 0.500000
O O2 0.075726 0.668985 0.490175
O O3 0.118156 0.753693 0.373444
O O4 0.108833 0.748395 0.628244
O O5 0.666766 0.666766 0.419521
O O6 0.686665 0.555643 0.501762
O O7 0.769406 0.595428 0.362734
O O8 0.661099 0.568528 0.299612
O O9 0.375456 0.497732 0.865901
O O10 0.446460 0.553541 0.000000
O O11 0.363127 0.474728 0.087180
O O12 0.572463 0.927538 0.037412
O O13 0.650272 0.939511 0.204262
O O14 0.617626 0.034887 0.096853
O O15 0.384157 0.843354 0.233263
O O16 0.378467 0.955966 0.161828
O O17 0.366747 0.866747 0.000000
O O18 0.277979 0.981520 0.721462
O O19 0.546307 0.546307 0.279300
#
# Coordination Sequence:
#
# PCOD9570884 Si02
#       8
#    16  16  16  16  16  16  16  16
#     4  10  21  40  59  83 118 149 203 269 315 369
#     4  10  22  37  57  88 119 156 209 264 313 372
#     4  10  21  36  55  87 123 158 202 248 304 384
#     4  10  21  37  57  87 121 157 202 252 308 374
#     4  11  21  34  57  88 125 163 206 246 308 385
#     4  10  22  36  62  86 122 165 204 260 316 379
#     4  11  22  35  55  84 125 164 193 245 312 385
#     4  10  23  35  61  92 113 162 212 258 318 383
#
# _framework density 22.690138000000001
#
# number of rings (size 3 to 8) (size 9 to 14) (size 15 to 20)
#    0.000    1.750    1.250    4.125    8.750    3.250 
#    0.000    0.000    0.000    3.375    0.000    2.625 
#    0.000    0.000    0.000    0.000    0.000    0.000 
#
# Total GULP energy -714269.091702 kJ/mol
# GULP energy per Si atom -5580.227279 kJ/mol
# Density = 2.263849 g / cm^3
# Si number density = 22.690138 Si / 1000 Ang^3
#
#
#
# Elastic Constant Matrix: (Units=GPa)
#
#
# Indices 1 2 3 4 5 6 
#
# 1 144.4391 -83.1681 21.2595 0.0000 0.0000 0.0000
# 2 -83.1681 144.4670 21.2820 0.0000 0.0000 0.0000
# 3 21.2595 21.2820 180.3635 0.0000 0.0000 0.0000
# 4 0.0000 0.0000 0.0000 22.5704 0.0000 0.0000
# 5 0.0000 0.0000 0.0000 0.0000 22.5713 0.0000
# 6 0.0000 0.0000 0.0000 0.0000 0.0000 21.5179
#
#
#
# Elastic Compliance Matrix: (Units=1/GPa)
#
#
# Indices 1 2 3 4 5 6 
#
# 1 0.011084 0.006689 -0.002096 0.000000 0.000000 0.000000
# 2 0.006689 0.011082 -0.002096 0.000000 0.000000 0.000000
# 3 -0.002096 -0.002096 0.006039 0.000000 0.000000 0.000000
# 4 0.000000 0.000000 0.000000 0.044306 0.000000 0.000000
# 5 0.000000 0.000000 0.000000 0.000000 0.044304 0.000000
# 6 0.000000 0.000000 0.000000 0.000000 0.000000 0.046473
#
#
# Mechanical properties :
#
#
# Convention : Reuss Voigt Hill
#
# Bulk Modulus (GPa) = 30.12111 43.11292 36.61702
# Shear Modulus (GPa) = 29.52323 47.32500 38.42411
#
# Velocity S-wave (km/s) = 3.61106 4.57191 4.11959
# Velocity P-wave (km/s) = 5.53986 6.84922 6.22904
#
# Compressibility (1/GPa) = 0.03319931
#
# Stress axis : x y z
#
# Youngs Moduli (GPa) = 90.22361 90.23792 165.59822
#
# Poissons Ratio (x) = -0.60364 0.34705
# Poissons Ratio (y) = -0.60354 0.34711
# Poissons Ratio (z) = 0.18909 0.18915
#
# Static dielectric constant tensor:
#      x y z
#    x 1.857170 0.000000 0.000000 
#    y 0.000000 1.857190 0.000000 
#    z 0.000000 0.000000 1.858020 
# 
# From -- ./inp_files/3345.got.cif
#   From: 2010.05.17/outbox.cif.g08.bks.cpg/sg138_2_cif.got.tgz:3345.got - 2010.05.20 13:08:53.
