data_PCOD9570358
_publ_section_title
;
Structure prediction by ZEFSAII (Michael W. Deem and Ramdas Pophale) SiO2 
 PCOD9570358
Probable space group: P 42/N M C
;
_chemical_formula_sum "Si O2"
_cell_formula_units_Z 96
_cell_length_a 19.870185
_cell_length_b 19.870185
_cell_length_c 12.954346
_cell_angle_alpha 90.000000
_cell_angle_beta 90.000000
_cell_angle_gamma 90.000000
_cell_volume 5114.689969
_symmetry_space_group_name_H-M "P 42/N M C"
_symmetry_group_IT_number 137
_space_group.IT_coordinate_system_code '2'
_symmetry_cell_setting 'tetragonal'
loop_
_space_group_symop_operation_xyz
x,y,z
1/2-y,x,1/2+z
1/2-x,1/2-y,z
y,1/2-x,1/2+z
1/2+x,-y,-z
-x,1/2+y,-z
1/2+y,1/2+x,1/2-z
-y,-x,1/2-z
-x,-y,-z
1/2+y,-x,1/2-z
1/2+x,1/2+y,-z
-y,1/2+x,1/2-z
1/2-x,y,z
x,1/2-y,z
1/2-y,1/2-x,1/2+z
y,x,1/2+z
loop_
_atom_site_type_symbol
_atom_site_label
_atom_site_fract_x
_atom_site_fract_y
_atom_site_fract_z
Si Si1 0.331900 0.072791 0.823884
Si Si2 0.668386 0.438299 0.782219
Si Si3 0.855097 0.325772 0.131395
Si Si4 0.670375 0.514594 0.392277
Si Si5 0.827080 0.039552 0.012896
Si Si6 0.830808 0.555244 0.617493
O O1 0.250000 0.078862 0.825869
O O2 0.354599 0.053045 0.708441
O O3 0.372618 0.138541 0.855336
O O4 0.353556 0.013131 0.902613
O O5 0.628959 0.371041 0.750000
O O6 0.750000 0.428553 0.782308
O O7 0.652258 0.497851 0.701446
O O8 0.644273 0.457938 0.897717
O O9 0.832330 0.332330 0.250000
O O10 0.838877 0.250000 0.094740
O O11 0.827471 0.386149 0.062536
O O12 0.935380 0.334934 0.127930
O O13 0.750000 0.529359 0.396706
O O14 0.642965 0.533775 0.504144
O O15 0.750000 0.018269 0.997910
O O16 0.750000 0.558618 0.615508
#
# Coordination Sequence:
#
# PCOD9570358 Si02
#       6
#    16  16  16  16  16  16
#     4  10  21  39  61  85 119 155 190 242 308 358
#     4  10  22  41  61  85 120 158 199 243 292 351
#     4  11  20  34  57  84 119 157 197 244 292 345
#     4   9  19  37  58  82 115 153 188 235 299 350
#     4  10  21  37  56  82 117 155 192 241 298 348
#     4  10  22  40  63  88 116 153 200 247 291 354
#
# _framework density 18.769466000000001
#
# number of rings (size 3 to 8) (size 9 to 14) (size 15 to 20)
#    0.000    2.000    1.667    1.500    2.333    3.667 
#    3.000    3.333    0.000    3.000    0.000    0.000 
#    0.000    0.000    0.000    0.000    0.000    0.000 
#
# Total GULP energy -535170.873646 kJ/mol
# GULP energy per Si atom -5574.696600 kJ/mol
# Density = 1.872675 g / cm^3
# Si number density = 18.769466 Si / 1000 Ang^3
#
#
#
# Elastic Constant Matrix: (Units=GPa)
#
#
# Indices 1 2 3 4 5 6 
#
# 1 50.9760 30.6366 38.9303 0.0000 0.0000 0.0000
# 2 30.6366 50.9760 38.9303 0.0000 0.0000 0.0000
# 3 38.9303 38.9303 156.3255 0.0000 0.0000 0.0000
# 4 0.0000 0.0000 0.0000 8.0225 0.0000 0.0000
# 5 0.0000 0.0000 0.0000 0.0000 8.0225 0.0000
# 6 0.0000 0.0000 0.0000 0.0000 0.0000 56.3455
#
#
#
# Elastic Compliance Matrix: (Units=1/GPa)
#
#
# Indices 1 2 3 4 5 6 
#
# 1 0.032618 -0.016547 -0.004002 0.000000 0.000000 0.000000
# 2 -0.016547 0.032618 -0.004002 0.000000 0.000000 0.000000
# 3 -0.004002 -0.004002 0.008390 0.000000 0.000000 0.000000
# 4 0.000000 0.000000 0.000000 0.124650 0.000000 0.000000
# 5 0.000000 0.000000 0.000000 0.000000 0.124650 0.000000
# 6 0.000000 0.000000 0.000000 0.000000 0.000000 0.017748
#
#
# Mechanical properties :
#
#
# Convention : Reuss Voigt Hill
#
# Bulk Modulus (GPa) = 40.77679 52.80800 46.79240
# Shear Modulus (GPa) = 12.56432 24.46344 18.51388
#
# Velocity S-wave (km/s) = 2.59009 3.61413 3.14408
# Velocity P-wave (km/s) = 5.54229 6.75367 6.17774
#
# Compressibility (1/GPa) = 0.02452375
#
# Stress axis : x y z
#
# Youngs Moduli (GPa) = 30.65757 30.65757 119.18493
#
# Poissons Ratio (x) = 0.50729 0.47701
# Poissons Ratio (y) = 0.50729 0.47701
# Poissons Ratio (z) = 0.12270 0.12270
#
# Static dielectric constant tensor:
#      x y z
#    x 1.644190 0.000000 0.000000 
#    y 0.000000 1.644190 0.000000 
#    z 0.000000 0.000000 1.684120 
# 
# From -- ./inp_files/3737.got.cif
#   From: 2010.05.17/outbox.cif.g08.bks.cpg/sg137_2_cif.got.tgz:3737.got - 2010.05.20 13:01:12.
