data_PCOD9570446
_publ_section_title
;
Structure prediction by ZEFSAII (Michael W. Deem and Ramdas Pophale) SiO2 
 PCOD9570446
Probable space group: P 42/N M C
;
_chemical_formula_sum "Si O2"
_cell_formula_units_Z 56
_cell_length_a 11.990506
_cell_length_b 11.990506
_cell_length_c 20.707614
_cell_angle_alpha 90.000000
_cell_angle_beta 90.000000
_cell_angle_gamma 90.000000
_cell_volume 2977.179928
_symmetry_space_group_name_H-M "P 42/N M C"
_symmetry_group_IT_number 137
_space_group.IT_coordinate_system_code '2'
_symmetry_cell_setting 'tetragonal'
loop_
_space_group_symop_operation_xyz
x,y,z
1/2-y,x,1/2+z
1/2-x,1/2-y,z
y,1/2-x,1/2+z
1/2+x,-y,-z
-x,1/2+y,-z
1/2+y,1/2+x,1/2-z
-y,-x,1/2-z
-x,-y,-z
1/2+y,-x,1/2-z
1/2+x,1/2+y,-z
-y,1/2+x,1/2-z
1/2-x,y,z
x,1/2-y,z
1/2-y,1/2-x,1/2+z
y,x,1/2+z
loop_
_atom_site_type_symbol
_atom_site_label
_atom_site_fract_x
_atom_site_fract_y
_atom_site_fract_z
Si Si1 0.003831 0.377880 0.808055
Si Si2 0.118128 0.750000 0.625113
Si Si3 0.116484 0.250000 0.122253
Si Si4 0.750000 0.558916 0.230078
Si Si5 0.488517 0.538788 0.926862
O O1 0.967757 0.250000 0.810811
O O2 0.136299 0.383362 0.793243
O O3 0.984266 0.442254 0.875009
O O4 0.942456 0.442456 0.750000
O O5 0.250000 0.750000 0.629468
O O6 0.077777 0.862205 0.589218
O O7 0.061207 0.750000 0.695730
O O8 0.250000 0.250000 0.129451
O O9 0.059807 0.250000 0.192949
O O10 0.071854 0.359069 0.086367
O O11 0.500000 0.500000 0.000000
#
# Coordination Sequence:
#
# PCOD9570446 Si02
#       5
#    16   8   8   8  16
#     4  11  23  41  65  94 129 170 218 269 322 389
#     4  10  22  44  70 102 136 168 223 281 336 388
#     4  12  24  43  71  94 129 175 218 267 332 408
#     4  10  22  42  66 101 130 166 215 273 333 393
#     4  11  26  44  66  97 132 175 218 269 331 393
#
# _framework density 18.809746000000001
#
# number of rings (size 3 to 8) (size 9 to 14) (size 15 to 20)
#    0.000    1.143    4.286    1.286    4.000    0.286 
#    2.571    0.000    0.000    0.000    0.000    0.000 
#    0.000    0.000    0.000    0.000    0.000    0.000 
#
# Total GULP energy -313103.961772 kJ/mol
# GULP energy per Si atom -5591.142175 kJ/mol
# Density = 1.876693 g / cm^3
# Si number density = 18.809746 Si / 1000 Ang^3
#
#
#
# Elastic Constant Matrix: (Units=GPa)
#
#
# Indices 1 2 3 4 5 6 
#
# 1 128.7716 66.6342 78.2330 0.0000 0.0000 0.0000
# 2 66.6342 128.7716 78.2330 0.0000 0.0000 0.0000
# 3 78.2330 78.2330 204.4384 0.0000 0.0000 0.0000
# 4 0.0000 0.0000 0.0000 16.2953 0.0000 0.0000
# 5 0.0000 0.0000 0.0000 0.0000 16.2953 0.0000
# 6 0.0000 0.0000 0.0000 0.0000 0.0000 5.1547
#
#
#
# Elastic Compliance Matrix: (Units=1/GPa)
#
#
# Indices 1 2 3 4 5 6 
#
# 1 0.011736 -0.004357 -0.002824 0.000000 0.000000 0.000000
# 2 -0.004357 0.011736 -0.002824 0.000000 0.000000 0.000000
# 3 -0.002824 -0.002824 0.007052 0.000000 0.000000 0.000000
# 4 0.000000 0.000000 0.000000 0.061367 0.000000 0.000000
# 5 0.000000 0.000000 0.000000 0.000000 0.061367 0.000000
# 6 0.000000 0.000000 0.000000 0.000000 0.000000 0.193998
#
#
# Mechanical properties :
#
#
# Convention : Reuss Voigt Hill
#
# Bulk Modulus (GPa) = 95.10069 100.90911 98.00490
# Shear Modulus (GPa) = 13.48540 23.47449 18.47994
#
# Velocity S-wave (km/s) = 2.68047 3.53653 3.13783
# Velocity P-wave (km/s) = 7.76202 8.39284 8.08359
#
# Compressibility (1/GPa) = 0.01051517
#
# Stress axis : x y z
#
# Youngs Moduli (GPa) = 85.20875 85.20875 141.79535
#
# Poissons Ratio (x) = 0.37129 0.40036
# Poissons Ratio (y) = 0.37129 0.40036
# Poissons Ratio (z) = 0.24059 0.24059
#
# Static dielectric constant tensor:
#      x y z
#    x 1.618530 0.000000 0.000000 
#    y 0.000000 1.618530 0.000000 
#    z 0.000000 0.000000 1.611290 
# 
# From -- ./inp_files/7249.got.cif
#   From: 2010.05.17/outbox.cif.g08.bks.cpg/sg137_4_cif.got.tgz:7249.got - 2010.05.20 13:01:12.
