data_PCOD9570255
_publ_section_title
;
Structure prediction by ZEFSAII (Michael W. Deem and Ramdas Pophale) SiO2 
 PCOD9570255
Probable space group: P 42/N M C
;
_chemical_formula_sum "Si O2"
_cell_formula_units_Z 64
_cell_length_a 14.680188
_cell_length_b 14.680188
_cell_length_c 13.775966
_cell_angle_alpha 90.000000
_cell_angle_beta 90.000000
_cell_angle_gamma 90.000000
_cell_volume 2968.829775
_symmetry_space_group_name_H-M "P 42/N M C"
_symmetry_group_IT_number 137
_space_group.IT_coordinate_system_code '2'
_symmetry_cell_setting 'tetragonal'
loop_
_space_group_symop_operation_xyz
x,y,z
1/2-y,x,1/2+z
1/2-x,1/2-y,z
y,1/2-x,1/2+z
1/2+x,-y,-z
-x,1/2+y,-z
1/2+y,1/2+x,1/2-z
-y,-x,1/2-z
-x,-y,-z
1/2+y,-x,1/2-z
1/2+x,1/2+y,-z
-y,1/2+x,1/2-z
1/2-x,y,z
x,1/2-y,z
1/2-y,1/2-x,1/2+z
y,x,1/2+z
loop_
_atom_site_type_symbol
_atom_site_label
_atom_site_fract_x
_atom_site_fract_y
_atom_site_fract_z
Si Si1 0.053167 0.854542 0.158886
Si Si2 0.921557 0.647737 0.673839
Si Si3 0.477810 0.893812 0.501852
Si Si4 0.850090 0.648995 0.376183
O O1 0.083715 0.916286 0.250000
O O2 0.071770 0.750000 0.180677
O O3 0.943997 0.867344 0.143882
O O4 0.110467 0.889422 0.065647
O O5 0.883361 0.750000 0.654675
O O6 0.014564 0.640572 0.611691
O O7 0.924150 0.640536 0.790416
O O8 0.565257 0.852282 0.447248
O O9 0.500000 0.000000 0.500000
O O10 0.750000 0.637388 0.422638
O O11 0.850328 0.750000 0.329123
#
# Coordination Sequence:
#
# PCOD9570255 Si02
#       4
#    16  16  16  16
#     4  11  23  40  62  90 128 170 213 258 308 374
#     4  10  21  38  64  92 119 157 204 264 330 379
#     4  10  22  37  57  86 129 164 200 246 310 373
#     4  10  20  35  59  91 122 153 197 257 323 380
#
# _framework density 21.557317000000001
#
# number of rings (size 3 to 8) (size 9 to 14) (size 15 to 20)
#    0.000    1.750    2.500    1.500    0.000    7.750 
#    0.000    2.500    0.000    0.000    0.000    0.000 
#    0.000    0.000    0.000    0.000    0.000    0.000 
#
# Total GULP energy -356415.940410 kJ/mol
# GULP energy per Si atom -5568.999069 kJ/mol
# Density = 2.150825 g / cm^3
# Si number density = 21.557317 Si / 1000 Ang^3
#
#
#
# Elastic Constant Matrix: (Units=GPa)
#
#
# Indices 1 2 3 4 5 6 
#
# 1 91.8713 34.4467 18.8898 0.0000 0.0000 0.0000
# 2 34.4467 91.8692 18.8903 0.0000 0.0000 0.0000
# 3 18.8898 18.8903 50.1477 0.0000 0.0000 0.0000
# 4 0.0000 0.0000 0.0000 23.3868 0.0000 0.0000
# 5 0.0000 0.0000 0.0000 0.0000 23.3868 0.0000
# 6 0.0000 0.0000 0.0000 0.0000 0.0000 16.7400
#
#
#
# Elastic Compliance Matrix: (Units=1/GPa)
#
#
# Indices 1 2 3 4 5 6 
#
# 1 0.013168 -0.004246 -0.003361 0.000000 0.000000 0.000000
# 2 -0.004246 0.013168 -0.003361 0.000000 0.000000 0.000000
# 3 -0.003361 -0.003361 0.022473 0.000000 0.000000 0.000000
# 4 0.000000 0.000000 0.000000 0.042759 0.000000 0.000000
# 5 0.000000 0.000000 0.000000 0.000000 0.042759 0.000000
# 6 0.000000 0.000000 0.000000 0.000000 0.000000 0.059737
#
#
# Mechanical properties :
#
#
# Convention : Reuss Voigt Hill
#
# Bulk Modulus (GPa) = 37.21122 42.03797 39.62460
# Shear Modulus (GPa) = 22.22637 23.48015 22.85326
#
# Velocity S-wave (km/s) = 3.21446 3.30388 3.25947
# Velocity P-wave (km/s) = 5.57458 5.83927 5.70846
#
# Compressibility (1/GPa) = 0.02687361
#
# Stress axis : x y z
#
# Youngs Moduli (GPa) = 75.94213 75.94001 44.49783
#
# Poissons Ratio (x) = 0.32247 0.14954
# Poissons Ratio (y) = 0.32248 0.14955
# Poissons Ratio (z) = 0.25521 0.25522
#
# Static dielectric constant tensor:
#      x y z
#    x 1.733770 0.000000 0.000000 
#    y 0.000000 1.733770 0.000000 
#    z 0.000000 0.000000 1.876290 
# 
# From -- ./inp_files/4703.got.cif
#   From: 2010.05.17/outbox.cif.g08.bks.cpg/sg137_3_cif.got.tgz:4703.got - 2010.05.20 13:01:12.
