data_PCOD9570287
_publ_section_title
;
Structure prediction by ZEFSAII (Michael W. Deem and Ramdas Pophale) SiO2 
 PCOD9570287
Probable space group: P 42/N M C
;
_chemical_formula_sum "Si O2"
_cell_formula_units_Z 112
_cell_length_a 13.952435
_cell_length_b 13.952435
_cell_length_c 27.434833
_cell_angle_alpha 90.000000
_cell_angle_beta 90.000000
_cell_angle_gamma 90.000000
_cell_volume 5340.751078
_symmetry_space_group_name_H-M "P 42/N M C"
_symmetry_group_IT_number 137
_space_group.IT_coordinate_system_code '2'
_symmetry_cell_setting 'tetragonal'
loop_
_space_group_symop_operation_xyz
x,y,z
1/2-y,x,1/2+z
1/2-x,1/2-y,z
y,1/2-x,1/2+z
1/2+x,-y,-z
-x,1/2+y,-z
1/2+y,1/2+x,1/2-z
-y,-x,1/2-z
-x,-y,-z
1/2+y,-x,1/2-z
1/2+x,1/2+y,-z
-y,1/2+x,1/2-z
1/2-x,y,z
x,1/2-y,z
1/2-y,1/2-x,1/2+z
y,x,1/2+z
loop_
_atom_site_type_symbol
_atom_site_label
_atom_site_fract_x
_atom_site_fract_y
_atom_site_fract_z
Si Si1 0.366944 0.140667 0.097155
Si Si2 0.864847 0.040061 0.064222
Si Si3 0.639290 0.975601 0.606981
Si Si4 0.364668 0.552905 0.045901
Si Si5 0.861914 0.644470 0.297834
Si Si6 0.634041 0.142281 0.162831
Si Si7 0.551513 0.546813 0.210979
O O1 0.250000 0.143675 0.099407
O O2 0.398844 0.250000 0.086823
O O3 0.399972 0.103589 0.150867
O O4 0.391355 0.057408 0.059306
O O5 0.750000 0.029948 0.064281
O O6 0.908600 0.937727 0.079232
O O7 0.888702 0.116061 0.106613
O O8 0.892665 0.071034 0.010017
O O9 0.750000 0.947268 0.601429
O O10 0.608299 0.971482 0.663596
O O11 0.620285 0.079042 0.583058
O O12 0.250000 0.562657 0.050748
O O13 0.750000 0.653530 0.308315
O O14 0.906206 0.750000 0.293129
O O15 0.871268 0.594115 0.246405
O O16 0.750000 0.139590 0.168211
O O17 0.601216 0.250000 0.175316
O O18 0.589077 0.057437 0.194507
O O19 0.465862 0.534139 0.250000
#
# Coordination Sequence:
#
# PCOD9570287 Si02
#       7
#    16  16  16  16  16  16  16
#     4   8  15  29  52  84 117 147 185 236 289 337
#     4   9  20  39  62  87 115 151 193 234 283 344
#     4  11  24  40  58  85 119 153 195 243 291 341
#     4  10  20  37  61  87 118 154 193 236 281 337
#     4   9  17  31  52  76 103 139 184 232 282 336
#     4   9  19  36  56  80 112 146 182 229 285 349
#     4  11  22  36  54  78 109 147 190 236 286 341
#
# _framework density 20.970834
#
# number of rings (size 3 to 8) (size 9 to 14) (size 15 to 20)
#    0.000    2.429    0.000    3.000    0.000    3.429 
#    0.000    8.571    0.000    0.000    0.000    0.000 
#    0.000    0.000    0.000    0.000    0.000    0.000 
#
# Total GULP energy -625203.640802 kJ/mol
# GULP energy per Si atom -5582.175364 kJ/mol
# Density = 2.092310 g / cm^3
# Si number density = 20.970834 Si / 1000 Ang^3
#
#
#
# Elastic Constant Matrix: (Units=GPa)
#
#
# Indices 1 2 3 4 5 6 
#
# 1 63.7814 1.7641 7.8842 0.0000 0.0000 0.0000
# 2 1.7641 63.7815 7.8849 0.0000 0.0000 0.0000
# 3 7.8842 7.8849 101.8513 0.0000 0.0000 0.0000
# 4 0.0000 0.0000 0.0000 15.0233 0.0000 0.0000
# 5 0.0000 0.0000 0.0000 0.0000 15.0229 0.0000
# 6 0.0000 0.0000 0.0000 0.0000 0.0000 24.8497
#
#
#
# Elastic Compliance Matrix: (Units=1/GPa)
#
#
# Indices 1 2 3 4 5 6 
#
# 1 0.015835 -0.000289 -0.001203 0.000000 0.000000 0.000000
# 2 -0.000289 0.015835 -0.001204 0.000000 0.000000 0.000000
# 3 -0.001203 -0.001204 0.010005 0.000000 0.000000 0.000000
# 4 0.000000 0.000000 0.000000 0.066563 0.000000 0.000000
# 5 0.000000 0.000000 0.000000 0.000000 0.066565 0.000000
# 6 0.000000 0.000000 0.000000 0.000000 0.000000 0.040242
#
#
# Mechanical properties :
#
#
# Convention : Reuss Voigt Hill
#
# Bulk Modulus (GPa) = 27.56119 29.38674 28.47397
# Shear Modulus (GPa) = 21.50242 25.10458 23.30350
#
# Velocity S-wave (km/s) = 3.20558 3.46369 3.33713
# Velocity P-wave (km/s) = 5.18384 5.48086 5.33441
#
# Compressibility (1/GPa) = 0.03628290
#
# Stress axis : x y z
#
# Youngs Moduli (GPa) = 63.15004 63.15000 99.95437
#
# Poissons Ratio (x) = 0.01826 0.12029
# Poissons Ratio (y) = 0.01826 0.12030
# Poissons Ratio (z) = 0.07600 0.07600
#
# Static dielectric constant tensor:
#      x y z
#    x 1.816740 0.000000 0.000000 
#    y 0.000000 1.816740 0.000000 
#    z 0.000000 0.000000 1.753590 
# 
# From -- ./inp_files/9007.got.cif
#   From: 2010.05.17/outbox.cif.g08.bks.cpg/sg137_5_cif.got.tgz:9007.got - 2010.05.20 13:01:12.
