data_PCOD9570871
_publ_section_title
;
Structure prediction by ZEFSAII (Michael W. Deem and Ramdas Pophale) SiO2 
 PCOD9570871
Probable space group: P 42/N C M
;
_chemical_formula_sum "Si O2"
_cell_formula_units_Z 64
_cell_length_a 10.278636
_cell_length_b 10.278636
_cell_length_c 27.030512
_cell_angle_alpha 90.000000
_cell_angle_beta 90.000000
_cell_angle_gamma 90.000000
_cell_volume 2855.783270
_symmetry_space_group_name_H-M "P 42/N C M"
_symmetry_group_IT_number 138
_space_group.IT_coordinate_system_code '2'
_symmetry_cell_setting 'tetragonal'
loop_
_space_group_symop_operation_xyz
x,y,z
1/2-y,x,1/2+z
1/2-x,1/2-y,z
y,1/2-x,1/2+z
1/2+x,-y,1/2-z
-x,1/2+y,1/2-z
1/2+y,1/2+x,-z
-y,-x,-z
-x,-y,-z
1/2+y,-x,1/2-z
1/2+x,1/2+y,-z
-y,1/2+x,1/2-z
1/2-x,y,1/2+z
x,1/2-y,1/2+z
1/2-y,1/2-x,z
y,x,z
loop_
_atom_site_type_symbol
_atom_site_label
_atom_site_fract_x
_atom_site_fract_y
_atom_site_fract_z
Si Si1 0.956273 0.751651 0.414791
Si Si2 0.574396 0.147429 0.380131
Si Si3 0.206234 0.998463 0.478506
Si Si4 0.846669 0.431571 0.732321
O O1 0.842820 0.657180 0.395916
O O2 0.896502 0.896502 0.413917
O O3 0.084089 0.717826 0.384746
O O4 0.982443 0.711183 0.471772
O O5 0.550801 0.234908 0.427873
O O6 0.554905 0.197351 0.324998
O O7 0.468718 0.031283 0.385725
O O8 0.103882 0.896119 0.500000
O O9 0.133713 0.133713 0.468609
O O10 0.919312 0.290837 0.738450
O O11 0.949390 0.550611 0.743469
#
# Coordination Sequence:
#
# PCOD9570871 Si02
#       4
#    16  16  16  16
#     4   9  18  33  53  79 112 148 186 229 278 342
#     4  10  21  38  60  84 114 159 208 253 311 381
#     4  10  21  34  51  82 120 155 192 235 289 358
#     4  10  24  45  68  96 129 168 220 282 343 401
#
# _framework density 22.410663
#
# number of rings (size 3 to 8) (size 9 to 14) (size 15 to 20)
#    0.000    2.250    0.000    1.500    0.000   12.000 
#    0.000    7.500    0.000    0.000    0.000    0.000 
#    0.000    0.000    0.000    0.000    0.000    0.000 
#
# Total GULP energy -356711.830062 kJ/mol
# GULP energy per Si atom -5573.622345 kJ/mol
# Density = 2.235966 g / cm^3
# Si number density = 22.410663 Si / 1000 Ang^3
#
#
#
# Elastic Constant Matrix: (Units=GPa)
#
#
# Indices 1 2 3 4 5 6 
#
# 1 36.7296 11.3198 9.2581 0.0000 0.0000 0.0000
# 2 11.3198 36.7276 9.2566 0.0000 0.0000 0.0000
# 3 9.2581 9.2566 82.9254 0.0000 0.0000 0.0000
# 4 0.0000 0.0000 0.0000 20.0354 0.0000 0.0000
# 5 0.0000 0.0000 0.0000 0.0000 20.0351 0.0000
# 6 0.0000 0.0000 0.0000 0.0000 0.0000 32.7542
#
#
#
# Elastic Compliance Matrix: (Units=1/GPa)
#
#
# Indices 1 2 3 4 5 6 
#
# 1 0.030551 -0.008804 -0.002428 0.000000 0.000000 0.000000
# 2 -0.008804 0.030553 -0.002428 0.000000 0.000000 0.000000
# 3 -0.002428 -0.002428 0.012601 0.000000 0.000000 0.000000
# 4 0.000000 0.000000 0.000000 0.049912 0.000000 0.000000
# 5 0.000000 0.000000 0.000000 0.000000 0.049912 0.000000
# 6 0.000000 0.000000 0.000000 0.000000 0.000000 0.030530
#
#
# Mechanical properties :
#
#
# Convention : Reuss Voigt Hill
#
# Bulk Modulus (GPa) = 21.55842 24.00573 22.78207
# Shear Modulus (GPa) = 20.25592 23.00149 21.62871
#
# Velocity S-wave (km/s) = 3.00967 3.20717 3.10999
# Velocity P-wave (km/s) = 4.66027 4.94465 4.80456
#
# Compressibility (1/GPa) = 0.04638559
#
# Stress axis : x y z
#
# Youngs Moduli (GPa) = 32.73172 32.73016 79.35821
#
# Poissons Ratio (x) = 0.28816 0.19269
# Poissons Ratio (y) = 0.28818 0.19265
# Poissons Ratio (z) = 0.07948 0.07945
#
# Static dielectric constant tensor:
#      x y z
#    x 1.945990 0.000000 0.000000 
#    y 0.000000 1.946000 0.000000 
#    z 0.000000 0.000000 1.804550 
# 
# From -- ./inp_files/6741.got.cif
#   From: 2010.05.17/outbox.cif.g08.bks.cpg/sg138_4_cif.got.tgz:6741.got - 2010.05.20 13:08:53.
