data_PCOD9570605
_publ_section_title
;
Structure prediction by ZEFSAII (Michael W. Deem and Ramdas Pophale) SiO2 
 PCOD9570605
Probable space group: P 42/N C M
;
_chemical_formula_sum "Si O2"
_cell_formula_units_Z 88
_cell_length_a 15.586919
_cell_length_b 15.586919
_cell_length_c 21.775546
_cell_angle_alpha 90.000000
_cell_angle_beta 90.000000
_cell_angle_gamma 90.000000
_cell_volume 5290.413408
_symmetry_space_group_name_H-M "P 42/N C M"
_symmetry_group_IT_number 138
_space_group.IT_coordinate_system_code '2'
_symmetry_cell_setting 'tetragonal'
loop_
_space_group_symop_operation_xyz
x,y,z
1/2-y,x,1/2+z
1/2-x,1/2-y,z
y,1/2-x,1/2+z
1/2+x,-y,1/2-z
-x,1/2+y,1/2-z
1/2+y,1/2+x,-z
-y,-x,-z
-x,-y,-z
1/2+y,-x,1/2-z
1/2+x,1/2+y,-z
-y,1/2+x,1/2-z
1/2-x,y,1/2+z
x,1/2-y,1/2+z
1/2-y,1/2-x,z
y,x,z
loop_
_atom_site_type_symbol
_atom_site_label
_atom_site_fract_x
_atom_site_fract_y
_atom_site_fract_z
Si Si1 0.391982 0.891982 0.500000
Si Si2 0.410305 0.948345 0.855109
Si Si3 0.510418 0.127657 0.625652
Si Si4 0.828496 0.130323 0.762021
Si Si5 0.698409 0.436822 0.526689
Si Si6 0.547059 0.813697 0.909275
O O1 0.452855 0.900977 0.440812
O O2 0.295642 0.906229 0.476146
O O3 0.371799 0.928450 0.789333
O O4 0.335976 0.954491 0.905708
O O5 0.474733 0.871324 0.875102
O O6 0.466533 0.033468 0.856099
O O7 0.588338 0.149389 0.672236
O O8 0.459429 0.217049 0.615246
O O9 0.446463 0.053538 0.648735
O O10 0.726763 0.136379 0.748379
O O11 0.638398 0.361603 0.500000
O O12 0.687342 0.516799 0.480417
O O13 0.636635 0.863366 0.902258
#
# Coordination Sequence:
#
# PCOD9570605 Si02
#       6
#     8  16  16  16  16  16
#     4  10  20  34  52  78 110 139 179 216 260 314
#     4  10  18  32  52  76 106 137 171 212 261 312
#     4  11  22  37  54  76 105 143 182 216 261 313
#     4  11  22  36  54  77 107 136 173 216 271 322
#     4   9  17  29  51  81 107 136 167 211 263 314
#     4   9  18  33  52  76 103 133 173 216 257 304
#
# _framework density 16.633862000000001
#
# number of rings (size 3 to 8) (size 9 to 14) (size 15 to 20)
#    0.000    2.000    1.818    2.727    0.000    2.545 
#    0.000    0.000    0.000    0.000    0.000    0.000 
#    0.000   10.182    0.000    0.000    0.000    0.000 
#
# Total GULP energy -490729.849302 kJ/mol
# GULP energy per Si atom -5576.475560 kJ/mol
# Density = 1.659600 g / cm^3
# Si number density = 16.633862 Si / 1000 Ang^3
#
#
#
# Elastic Constant Matrix: (Units=GPa)
#
#
# Indices 1 2 3 4 5 6 
#
# 1 67.4928 58.7422 35.8998 0.0000 0.0000 0.0000
# 2 58.7422 67.4933 35.8998 0.0000 0.0000 0.0000
# 3 35.8998 35.8998 87.6757 0.0000 0.0000 0.0000
# 4 0.0000 0.0000 0.0000 21.4280 0.0000 0.0000
# 5 0.0000 0.0000 0.0000 0.0000 21.4278 0.0000
# 6 0.0000 0.0000 0.0000 0.0000 0.0000 25.7320
#
#
#
# Elastic Compliance Matrix: (Units=1/GPa)
#
#
# Indices 1 2 3 4 5 6 
#
# 1 0.062301 -0.051974 -0.004229 0.000000 0.000000 0.000000
# 2 -0.051974 0.062300 -0.004228 0.000000 0.000000 0.000000
# 3 -0.004229 -0.004228 0.014868 0.000000 0.000000 0.000000
# 4 0.000000 0.000000 0.000000 0.046668 0.000000 0.000000
# 5 0.000000 0.000000 0.000000 0.000000 0.046668 0.000000
# 6 0.000000 0.000000 0.000000 0.000000 0.000000 0.038862
#
#
# Mechanical properties :
#
#
# Convention : Reuss Voigt Hill
#
# Bulk Modulus (GPa) = 53.73955 53.74950 53.74453
# Shear Modulus (GPa) = 12.53977 19.85890 16.19933
#
# Velocity S-wave (km/s) = 2.74865 3.45901 3.12409
# Velocity P-wave (km/s) = 6.51543 6.95244 6.73748
#
# Compressibility (1/GPa) = 0.01860827
#
# Stress axis : x y z
#
# Youngs Moduli (GPa) = 16.05118 16.05133 67.25668
#
# Poissons Ratio (x) = 0.83425 0.28440
# Poissons Ratio (y) = 0.83424 0.28438
# Poissons Ratio (z) = 0.06787 0.06787
#
# Static dielectric constant tensor:
#      x y z
#    x 1.543940 0.000000 0.000000 
#    y 0.000000 1.543940 0.000000 
#    z 0.000000 0.000000 1.554130 
# 
# From -- ./inp_files/6131.got.cif
#   From: 2010.05.17/outbox.cif.g08.bks.cpg/sg138_4_cif.got.tgz:6131.got - 2010.05.20 13:08:53.
