data_PCOD9570738
_publ_section_title
;
Structure prediction by ZEFSAII (Michael W. Deem and Ramdas Pophale) SiO2 
 PCOD9570738
Probable space group: P 42/N C M
;
_chemical_formula_sum "Si O2"
_cell_formula_units_Z 128
_cell_length_a 18.439061
_cell_length_b 18.439061
_cell_length_c 20.362392
_cell_angle_alpha 90.000000
_cell_angle_beta 90.000000
_cell_angle_gamma 90.000000
_cell_volume 6923.192318
_symmetry_space_group_name_H-M "P 42/N C M"
_symmetry_group_IT_number 138
_space_group.IT_coordinate_system_code '2'
_symmetry_cell_setting 'tetragonal'
loop_
_space_group_symop_operation_xyz
x,y,z
1/2-y,x,1/2+z
1/2-x,1/2-y,z
y,1/2-x,1/2+z
1/2+x,-y,1/2-z
-x,1/2+y,1/2-z
1/2+y,1/2+x,-z
-y,-x,-z
-x,-y,-z
1/2+y,-x,1/2-z
1/2+x,1/2+y,-z
-y,1/2+x,1/2-z
1/2-x,y,1/2+z
x,1/2-y,1/2+z
1/2-y,1/2-x,z
y,x,z
loop_
_atom_site_type_symbol
_atom_site_label
_atom_site_fract_x
_atom_site_fract_y
_atom_site_fract_z
Si Si1 0.600274 0.475872 0.941401
Si Si2 0.785440 0.591047 0.483685
Si Si3 0.528033 0.096745 0.324382
Si Si4 0.965477 0.089593 0.295069
Si Si5 0.577638 0.047456 0.927607
Si Si6 0.817019 0.567027 0.870990
Si Si7 0.710236 0.586606 0.133542
Si Si8 0.422216 0.197099 0.740641
O O1 0.539286 0.539286 0.939981
O O2 0.673626 0.518251 0.958132
O O3 0.589623 0.432128 0.874092
O O4 0.577202 0.422799 0.000000
O O5 0.844556 0.655444 0.481631
O O6 0.721785 0.604529 0.432926
O O7 0.761083 0.582779 0.559150
O O8 0.558677 0.098275 0.250829
O O9 0.488238 0.168763 0.348746
O O10 0.465177 0.034824 0.325792
O O11 0.944197 0.102882 0.370002
O O12 0.004525 0.154950 0.258513
O O13 0.026465 0.026465 0.297093
O O14 0.515268 0.984733 0.930646
O O15 0.648467 0.006206 0.900331
O O16 0.580985 0.080985 0.000000
O O17 0.883439 0.616562 0.846202
O O18 0.757946 0.563528 0.813629
O O19 0.649423 0.649423 0.134267
O O20 0.766933 0.602473 0.190833
O O21 0.361607 0.138394 0.718137
#
# Coordination Sequence:
#
# PCOD9570738 Si02
#       8
#    16  16  16  16  16  16  16  16
#     4   9  14  25  45  69  99 134 166 214 276 316
#     4  10  20  32  48  76 109 143 182 217 257 317
#     4   9  15  27  48  71  96 127 164 214 274 318
#     4   9  18  32  52  75  98 129 172 225 277 314
#     4   9  19  36  57  77  99 135 182 231 281 318
#     4  11  23  37  54  75 108 151 186 219 256 316
#     4  10  20  32  48  71 102 140 179 216 255 311
#     4  11  23  36  51  73 106 145 182 221 263 315
#
# _framework density 18.488581
#
# number of rings (size 3 to 8) (size 9 to 14) (size 15 to 20)
#    0.000    2.250    1.250    2.250    1.750    6.250 
#    0.000    1.250    0.000    0.000    0.000    0.000 
#    0.000   23.500    0.000    0.000    0.000    0.000 
#
# Total GULP energy -713748.825881 kJ/mol
# GULP energy per Si atom -5576.162702 kJ/mol
# Density = 1.844650 g / cm^3
# Si number density = 18.488581 Si / 1000 Ang^3
#
#
#
# Elastic Constant Matrix: (Units=GPa)
#
#
# Indices 1 2 3 4 5 6 
#
# 1 25.9118 35.0674 28.4655 0.0000 0.0000 0.0000
# 2 35.0674 25.9119 28.4654 0.0000 0.0000 0.0000
# 3 28.4655 28.4654 135.7133 0.0000 0.0000 0.0000
# 4 0.0000 0.0000 0.0000 21.7384 0.0000 0.0000
# 5 0.0000 0.0000 0.0000 0.0000 21.7387 0.0000
# 6 0.0000 0.0000 0.0000 0.0000 0.0000 13.7446
#
#
#
# Elastic Compliance Matrix: (Units=1/GPa)
#
#
# Indices 1 2 3 4 5 6 
#
# 1 -0.044416 0.064808 -0.004277 0.000000 0.000000 0.000000
# 2 0.064808 -0.044415 -0.004277 0.000000 0.000000 0.000000
# 3 -0.004277 -0.004277 0.009163 0.000000 0.000000 0.000000
# 4 0.000000 0.000000 0.000000 0.046001 0.000000 0.000000
# 5 0.000000 0.000000 0.000000 0.000000 0.046001 0.000000
# 6 0.000000 0.000000 0.000000 0.000000 0.000000 0.072756
#
#
# Mechanical properties :
#
#
# Convention : Reuss Voigt Hill
#
# Bulk Modulus (GPa) = 30.45212 41.28151 35.86681
# Shear Modulus (GPa) = -303.56850 17.81360 -142.87745
#
# Velocity S-wave (km/s) = -12.82766 3.10738 -8.80037
# Velocity P-wave (km/s) = 14.24402 5.93726 9.15535
#
# Compressibility (1/GPa) = 0.03283844
#
# Stress axis : x y z
#
# Youngs Moduli (GPa) = -22.51457 -22.51475 109.13766
#
# Poissons Ratio (x) = 1.45913 0.46679
# Poissons Ratio (y) = 1.45912 0.46682
# Poissons Ratio (z) = -0.09630 -0.09630
#
# Static dielectric constant tensor:
#      x y z
#    x 1.645690 0.000000 0.000000 
#    y 0.000000 1.645690 0.000000 
#    z 0.000000 0.000000 1.671690 
# 
# From -- ./inp_files/5488.got.cif
#   From: 2010.05.17/outbox.cif.g08.bks.cpg/sg138_3_cif.got.tgz:5488.got - 2010.05.20 13:08:53.
