data_PCOD9570348
_publ_section_title
;
Structure prediction by ZEFSAII (Michael W. Deem and Ramdas Pophale) SiO2 
 PCOD9570348
Probable space group: P 42/N M C
;
_chemical_formula_sum "Si O2"
_cell_formula_units_Z 96
_cell_length_a 14.666717
_cell_length_b 14.666717
_cell_length_c 21.830057
_cell_angle_alpha 90.000000
_cell_angle_beta 90.000000
_cell_angle_gamma 90.000000
_cell_volume 4695.920048
_symmetry_space_group_name_H-M "P 42/N M C"
_symmetry_group_IT_number 137
_space_group.IT_coordinate_system_code '2'
_symmetry_cell_setting 'tetragonal'
loop_
_space_group_symop_operation_xyz
x,y,z
1/2-y,x,1/2+z
1/2-x,1/2-y,z
y,1/2-x,1/2+z
1/2+x,-y,-z
-x,1/2+y,-z
1/2+y,1/2+x,1/2-z
-y,-x,1/2-z
-x,-y,-z
1/2+y,-x,1/2-z
1/2+x,1/2+y,-z
-y,1/2+x,1/2-z
1/2-x,y,z
x,1/2-y,z
1/2-y,1/2-x,1/2+z
y,x,1/2+z
loop_
_atom_site_type_symbol
_atom_site_label
_atom_site_fract_x
_atom_site_fract_y
_atom_site_fract_z
Si Si1 0.145387 0.145333 0.491924
Si Si2 0.976760 0.413118 0.414323
Si Si3 0.357253 0.852865 0.025756
Si Si4 0.506717 0.646898 0.251597
Si Si5 0.882074 0.975310 0.890413
Si Si6 0.146400 0.508877 0.783911
O O1 0.250000 0.112921 0.493160
O O2 0.145511 0.250000 0.469923
O O3 0.074415 0.092664 0.448624
O O4 0.098841 0.146782 0.559034
O O5 0.901313 0.400939 0.466804
O O6 0.970816 0.347969 0.356437
O O7 0.964437 0.510728 0.384752
O O8 0.250000 0.848180 0.012252
O O9 0.390236 0.750000 0.037573
O O10 0.366088 0.924329 0.081217
O O11 0.413459 0.586542 0.250000
O O12 0.497942 0.750000 0.225877
O O13 0.532009 0.655926 0.323076
O O14 0.586230 0.583868 0.222568
O O15 0.088278 0.588278 0.750000
O O16 0.250000 0.500110 0.759713
#
# Coordination Sequence:
#
# PCOD9570348 Si02
#       6
#    16  16  16  16  16  16
#     4  10  21  36  59  93 126 160 203 251 310 378
#     4  11  21  39  62  86 125 166 204 258 314 372
#     4  10  21  36  59  93 126 160 203 251 310 378
#     4  11  24  45  67  93 127 169 220 271 324 380
#     4  11  21  39  62  86 125 166 204 258 314 372
#     4  11  24  45  67  93 127 169 220 271 324 380
#
# _framework density 20.443277999999999
#
# number of rings (size 3 to 8) (size 9 to 14) (size 15 to 20)
#    0.000    1.333    3.333    6.000    0.000    6.000 
#    0.000    0.000    0.000    0.000    0.000    0.000 
#    0.000    0.000    0.000    0.000    0.000    0.000 
#
# Total GULP energy -535752.784042 kJ/mol
# GULP energy per Si atom -5580.758167 kJ/mol
# Density = 2.039675 g / cm^3
# Si number density = 20.443278 Si / 1000 Ang^3
#
#
#
# Elastic Constant Matrix: (Units=GPa)
#
#
# Indices 1 2 3 4 5 6 
#
# 1 102.7651 24.9740 -16.0521 0.0000 0.0000 0.0000
# 2 24.9740 102.7684 -16.0492 0.0000 0.0000 0.0000
# 3 -16.0521 -16.0492 60.9290 0.0000 0.0000 0.0000
# 4 0.0000 0.0000 0.0000 5.9853 0.0000 0.0000
# 5 0.0000 0.0000 0.0000 0.0000 5.9799 0.0000
# 6 0.0000 0.0000 0.0000 0.0000 0.0000 19.4249
#
#
#
# Elastic Compliance Matrix: (Units=1/GPa)
#
#
# Indices 1 2 3 4 5 6 
#
# 1 0.010619 -0.002236 0.002209 0.000000 0.000000 0.000000
# 2 -0.002236 0.010619 0.002208 0.000000 0.000000 0.000000
# 3 0.002209 0.002208 0.017576 0.000000 0.000000 0.000000
# 4 0.000000 0.000000 0.000000 0.167076 0.000000 0.000000
# 5 0.000000 0.000000 0.000000 0.000000 0.167227 0.000000
# 6 0.000000 0.000000 0.000000 0.000000 0.000000 0.051480
#
#
# Mechanical properties :
#
#
# Convention : Reuss Voigt Hill
#
# Bulk Modulus (GPa) = 23.16075 28.02311 25.59193
# Shear Modulus (GPa) = 11.50412 24.51735 18.01073
#
# Velocity S-wave (km/s) = 2.37477 3.46683 2.97140
# Velocity P-wave (km/s) = 4.34434 5.45552 4.93133
#
# Compressibility (1/GPa) = 0.04317649
#
# Stress axis : x y z
#
# Youngs Moduli (GPa) = 94.16854 94.17316 56.89550
#
# Poissons Ratio (x) = 0.21054 -0.12567
# Poissons Ratio (y) = 0.21053 -0.12563
# Poissons Ratio (z) = -0.20800 -0.20794
#
# Static dielectric constant tensor:
#      x y z
#    x 1.761730 0.000000 0.000000 
#    y 0.000000 1.761730 0.000000 
#    z 0.000000 0.000000 1.721430 
# 
# From -- ./inp_files/7808.got.cif
#   From: 2010.05.17/outbox.cif.g08.bks.cpg/sg137_4_cif.got.tgz:7808.got - 2010.05.20 13:01:12.
