data_PCOD9570918
_publ_section_title
;
Structure prediction by ZEFSAII (Michael W. Deem and Ramdas Pophale) SiO2 
 PCOD9570918
Probable space group: P 42/N C M
;
_chemical_formula_sum "Si O2"
_cell_formula_units_Z 96
_cell_length_a 18.323621
_cell_length_b 18.323621
_cell_length_c 14.382462
_cell_angle_alpha 90.000000
_cell_angle_beta 90.000000
_cell_angle_gamma 90.000000
_cell_volume 4828.984774
_symmetry_space_group_name_H-M "P 42/N C M"
_symmetry_group_IT_number 138
_space_group.IT_coordinate_system_code '2'
_symmetry_cell_setting 'tetragonal'
loop_
_space_group_symop_operation_xyz
x,y,z
1/2-y,x,1/2+z
1/2-x,1/2-y,z
y,1/2-x,1/2+z
1/2+x,-y,1/2-z
-x,1/2+y,1/2-z
1/2+y,1/2+x,-z
-y,-x,-z
-x,-y,-z
1/2+y,-x,1/2-z
1/2+x,1/2+y,-z
-y,1/2+x,1/2-z
1/2-x,y,1/2+z
x,1/2-y,1/2+z
1/2-y,1/2-x,z
y,x,z
loop_
_atom_site_type_symbol
_atom_site_label
_atom_site_fract_x
_atom_site_fract_y
_atom_site_fract_z
Si Si1 0.690684 0.142391 0.251320
Si Si2 0.700825 0.400289 0.548801
Si Si3 0.332708 0.044976 0.280462
Si Si4 0.249278 0.369914 0.925072
Si Si5 0.161773 0.460711 0.068094
Si Si6 0.586478 0.128452 0.408183
O O1 0.655092 0.222863 0.240816
O O2 0.676215 0.099562 0.156409
O O3 0.655747 0.109573 0.343776
O O4 0.674011 0.325990 0.500000
O O5 0.664153 0.465378 0.491052
O O6 0.788452 0.404811 0.553706
O O7 0.386458 0.113543 0.272636
O O8 0.265803 0.072467 0.343707
O O9 0.317392 0.023080 0.174723
O O10 0.370933 0.981527 0.338933
O O11 0.185984 0.314017 0.895698
O O12 0.321312 0.321312 0.942413
O O13 0.221630 0.409663 0.017571
O O14 0.085821 0.414180 0.064932
O O15 0.580146 0.080146 0.500000
#
# Coordination Sequence:
#
# PCOD9570918 Si02
#       6
#    16  16  16  16  16  16
#     4   9  19  35  55  80 111 145 190 241 288 335
#     4  11  21  36  57  85 112 152 192 240 286 338
#     4  10  21  38  58  84 118 153 186 227 283 342
#     4   9  18  36  62  91 118 145 183 231 283 341
#     4  10  21  38  60  87 119 152 188 231 283 342
#     4  11  22  37  57  84 112 153 193 239 285 337
#
# _framework density 19.879956
#
# number of rings (size 3 to 8) (size 9 to 14) (size 15 to 20)
#    0.000    2.000    1.667    2.000    0.000    4.333 
#    0.000    4.167    0.000    0.000    0.000    0.000 
#    0.000    0.000    0.000    0.000    0.000    0.000 
#
# Total GULP energy -535902.493384 kJ/mol
# GULP energy per Si atom -5582.317639 kJ/mol
# Density = 1.983471 g / cm^3
# Si number density = 19.879956 Si / 1000 Ang^3
#
#
#
# Elastic Constant Matrix: (Units=GPa)
#
#
# Indices 1 2 3 4 5 6 
#
# 1 40.3851 -1.3360 37.5673 0.0000 0.0000 0.0000
# 2 -1.3360 40.3874 37.5670 0.0000 0.0000 0.0000
# 3 37.5673 37.5670 191.3574 0.0000 0.0000 0.0000
# 4 0.0000 0.0000 0.0000 30.6237 0.0000 0.0000
# 5 0.0000 0.0000 0.0000 0.0000 30.6236 0.0000
# 6 0.0000 0.0000 0.0000 0.0000 0.0000 10.0802
#
#
#
# Elastic Compliance Matrix: (Units=1/GPa)
#
#
# Indices 1 2 3 4 5 6 
#
# 1 0.032561 0.008592 -0.008079 0.000000 0.000000 0.000000
# 2 0.008592 0.032559 -0.008079 0.000000 0.000000 0.000000
# 3 -0.008079 -0.008079 0.008398 0.000000 0.000000 0.000000
# 4 0.000000 0.000000 0.000000 0.032654 0.000000 0.000000
# 5 0.000000 0.000000 0.000000 0.000000 0.032655 0.000000
# 6 0.000000 0.000000 0.000000 0.000000 0.000000 0.099204
#
#
# Mechanical properties :
#
#
# Convention : Reuss Voigt Hill
#
# Bulk Modulus (GPa) = 17.12716 46.63628 31.88172
# Shear Modulus (GPa) = 18.34017 27.48760 22.91389
#
# Velocity S-wave (km/s) = 3.04064 3.72247 3.39870
# Velocity P-wave (km/s) = 4.57835 6.47963 5.61012
#
# Compressibility (1/GPa) = 0.05838680
#
# Stress axis : x y z
#
# Youngs Moduli (GPa) = 30.71119 30.71338 119.07641
#
# Poissons Ratio (x) = -0.26390 0.96205
# Poissons Ratio (y) = -0.26388 0.96199
# Poissons Ratio (z) = 0.24812 0.24813
#
# Static dielectric constant tensor:
#      x y z
#    x 1.721540 0.000000 0.000000 
#    y 0.000000 1.721540 0.000000 
#    z 0.000000 0.000000 1.704030 
# 
# From -- ./inp_files/3146.got.cif
#   From: 2010.05.17/outbox.cif.g08.bks.cpg/sg138_2_cif.got.tgz:3146.got - 2010.05.20 13:08:53.
