data_PCOD9570851
_publ_section_title
;
Structure prediction by ZEFSAII (Michael W. Deem and Ramdas Pophale) SiO2 
 PCOD9570851
Probable space group: P 42/N C M
;
_chemical_formula_sum "Si O2"
_cell_formula_units_Z 80
_cell_length_a 17.968431
_cell_length_b 17.968431
_cell_length_c 14.379946
_cell_angle_alpha 90.000000
_cell_angle_beta 90.000000
_cell_angle_gamma 90.000000
_cell_volume 4642.774257
_symmetry_space_group_name_H-M "P 42/N C M"
_symmetry_group_IT_number 138
_space_group.IT_coordinate_system_code '2'
_symmetry_cell_setting 'tetragonal'
loop_
_space_group_symop_operation_xyz
x,y,z
1/2-y,x,1/2+z
1/2-x,1/2-y,z
y,1/2-x,1/2+z
1/2+x,-y,1/2-z
-x,1/2+y,1/2-z
1/2+y,1/2+x,-z
-y,-x,-z
-x,-y,-z
1/2+y,-x,1/2-z
1/2+x,1/2+y,-z
-y,1/2+x,1/2-z
1/2-x,y,1/2+z
x,1/2-y,1/2+z
1/2-y,1/2-x,z
y,x,z
loop_
_atom_site_type_symbol
_atom_site_label
_atom_site_fract_x
_atom_site_fract_y
_atom_site_fract_z
Si Si1 0.188432 0.188432 0.137966
Si Si2 0.811225 0.688776 0.136240
Si Si3 0.485531 0.611785 0.748285
Si Si4 0.985902 0.637765 0.770827
Si Si5 0.741160 0.975364 0.111120
Si Si6 0.273765 0.019180 0.594590
O O1 0.250000 0.250000 0.115287
O O2 0.183984 0.183984 0.250845
O O3 0.107787 0.211251 0.100901
O O4 0.750000 0.750000 0.113657
O O5 0.786219 0.609311 0.099101
O O6 0.559987 0.559987 0.744981
O O7 0.416870 0.555726 0.740322
O O8 0.486372 0.672198 0.665054
O O9 0.485068 0.659585 0.843424
O O10 0.913305 0.586696 0.785189
O O11 0.975422 0.688752 0.680123
O O12 0.995720 0.695842 0.854136
O O13 0.765892 0.005694 0.011490
#
# Coordination Sequence:
#
# PCOD9570851 Si02
#       6
#     8   8  16  16  16  16
#     4  11  20  32  52  76 118 152 180 215 274 344
#     4  11  20  32  52  76 118 152 180 215 274 344
#     4  10  20  40  56  77 116 155 186 232 277 328
#     4  10  22  37  57  80 113 153 194 227 275 334
#     4  11  22  35  55  84 113 147 186 230 280 332
#     4  11  22  35  55  84 113 147 186 230 280 332
#
# _framework density 17.231078
#
# number of rings (size 3 to 8) (size 9 to 14) (size 15 to 20)
#    0.000    1.400    6.000    1.200    5.600    1.600 
#    0.000    4.000    0.000    9.600    0.000   11.200 
#    0.000    0.000    0.000    0.000    0.000    0.000 
#
# Total GULP energy -446706.219824 kJ/mol
# GULP energy per Si atom -5583.827748 kJ/mol
# Density = 1.719186 g / cm^3
# Si number density = 17.231078 Si / 1000 Ang^3
#
#
#
# Elastic Constant Matrix: (Units=GPa)
#
#
# Indices 1 2 3 4 5 6 
#
# 1 53.5979 9.5539 -24.4930 0.0000 0.0000 0.0000
# 2 9.5539 53.5979 -24.4930 0.0000 0.0000 0.0000
# 3 -24.4930 -24.4930 50.5906 0.0000 0.0000 0.0000
# 4 0.0000 0.0000 0.0000 2.2210 0.0000 0.0000
# 5 0.0000 0.0000 0.0000 0.0000 2.2210 0.0000
# 6 0.0000 0.0000 0.0000 0.0000 0.0000 33.3693
#
#
#
# Elastic Compliance Matrix: (Units=1/GPa)
#
#
# Indices 1 2 3 4 5 6 
#
# 1 0.024031 0.001327 0.012277 0.000000 0.000000 0.000000
# 2 0.001327 0.024031 0.012277 0.000000 0.000000 0.000000
# 3 0.012277 0.012277 0.031654 0.000000 0.000000 0.000000
# 4 0.000000 0.000000 0.000000 0.450248 0.000000 0.000000
# 5 0.000000 0.000000 0.000000 0.000000 0.450248 0.000000
# 6 0.000000 0.000000 0.000000 0.000000 0.000000 0.029968
#
#
# Mechanical properties :
#
#
# Convention : Reuss Voigt Hill
#
# Bulk Modulus (GPa) = 7.60596 8.76916 8.18756
# Shear Modulus (GPa) = 4.98880 20.71016 12.84948
#
# Velocity S-wave (km/s) = 1.70339 3.47061 2.73374
# Velocity P-wave (km/s) = 2.87965 4.60005 3.83750
#
# Compressibility (1/GPa) = 0.13147591
#
# Stress axis : x y z
#
# Youngs Moduli (GPa) = 41.61269 41.61269 31.59179
#
# Poissons Ratio (x) = -0.05520 -0.38784
# Poissons Ratio (y) = -0.05520 -0.38784
# Poissons Ratio (z) = -0.51087 -0.51087
#
# Static dielectric constant tensor:
#      x y z
#    x 1.565640 0.000000 0.000000 
#    y 0.000000 1.565640 0.000000 
#    z 0.000000 0.000000 1.621360 
# 
# From -- ./inp_files/4137.got.cif
#   From: 2010.05.17/outbox.cif.g08.bks.cpg/sg138_3_cif.got.tgz:4137.got - 2010.05.20 13:08:53.
