data_PCOD9570436
_publ_section_title
;
Structure prediction by ZEFSAII (Michael W. Deem and Ramdas Pophale) SiO2 
 PCOD9570436
Probable space group: P 42/N M C
;
_chemical_formula_sum "Si O2"
_cell_formula_units_Z 64
_cell_length_a 12.140463
_cell_length_b 12.140463
_cell_length_c 24.491564
_cell_angle_alpha 90.000000
_cell_angle_beta 90.000000
_cell_angle_gamma 90.000000
_cell_volume 3609.832236
_symmetry_space_group_name_H-M "P 42/N M C"
_symmetry_group_IT_number 137
_space_group.IT_coordinate_system_code '2'
_symmetry_cell_setting 'tetragonal'
loop_
_space_group_symop_operation_xyz
x,y,z
1/2-y,x,1/2+z
1/2-x,1/2-y,z
y,1/2-x,1/2+z
1/2+x,-y,-z
-x,1/2+y,-z
1/2+y,1/2+x,1/2-z
-y,-x,1/2-z
-x,-y,-z
1/2+y,-x,1/2-z
1/2+x,1/2+y,-z
-y,1/2+x,1/2-z
1/2-x,y,z
x,1/2-y,z
1/2-y,1/2-x,1/2+z
y,x,1/2+z
loop_
_atom_site_type_symbol
_atom_site_label
_atom_site_fract_x
_atom_site_fract_y
_atom_site_fract_z
Si Si1 0.250000 0.380731 0.629674
Si Si2 0.474861 0.018582 0.091039
Si Si3 0.991143 0.616497 0.201933
Si Si4 0.620508 0.375206 0.007715
Si Si5 0.750000 0.617020 0.246564
O O1 0.250000 0.250000 0.632512
O O2 0.365318 0.414647 0.602441
O O3 0.250000 0.426734 0.691574
O O4 0.482796 0.947067 0.145833
O O5 0.419202 0.943434 0.044700
O O6 0.586830 0.059185 0.062200
O O7 0.001663 0.750000 0.197249
O O8 0.864620 0.588158 0.217670
O O9 0.069689 0.569689 0.250000
O O10 0.750000 0.367227 0.004903
O O11 0.574167 0.250000 0.007979
O O12 0.750000 0.750000 0.249384
#
# Coordination Sequence:
#
# PCOD9570436 Si02
#       5
#     8  16  16  16   8
#     4  11  20  36  61  87 117 159 196 233 288 353
#     4  11  22  38  61  87 118 154 198 243 291 357
#     4  11  23  39  61  89 121 154 196 242 296 355
#     4  10  22  40  60  84 117 155 196 248 300 343
#     4   9  20  38  58  84 118 156 188 233 292 353
#
# _framework density 17.729355000000002
#
# number of rings (size 3 to 8) (size 9 to 14) (size 15 to 20)
#    0.000    1.500    3.750    1.500    1.750    1.250 
#    0.000    0.000    0.000    1.875    0.000    0.000 
#    0.000    0.000    0.000    0.000    0.000    0.000 
#
# Total GULP energy -356705.410461 kJ/mol
# GULP energy per Si atom -5573.522038 kJ/mol
# Density = 1.768900 g / cm^3
# Si number density = 17.729355 Si / 1000 Ang^3
#
#
#
# Elastic Constant Matrix: (Units=GPa)
#
#
# Indices 1 2 3 4 5 6 
#
# 1 108.6919 42.3639 47.0450 0.0000 0.0000 0.0000
# 2 42.3639 108.6919 47.0450 0.0000 0.0000 0.0000
# 3 47.0450 47.0450 116.2611 0.0000 0.0000 0.0000
# 4 0.0000 0.0000 0.0000 17.8053 0.0000 0.0000
# 5 0.0000 0.0000 0.0000 0.0000 17.8053 0.0000
# 6 0.0000 0.0000 0.0000 0.0000 0.0000 24.7332
#
#
#
# Elastic Compliance Matrix: (Units=1/GPa)
#
#
# Indices 1 2 3 4 5 6 
#
# 1 0.011964 -0.003113 -0.003582 0.000000 0.000000 0.000000
# 2 -0.003113 0.011964 -0.003582 0.000000 0.000000 0.000000
# 3 -0.003582 -0.003582 0.011500 0.000000 0.000000 0.000000
# 4 0.000000 0.000000 0.000000 0.056163 0.000000 0.000000
# 5 0.000000 0.000000 0.000000 0.000000 0.056163 0.000000
# 6 0.000000 0.000000 0.000000 0.000000 0.000000 0.040431
#
#
# Mechanical properties :
#
#
# Convention : Reuss Voigt Hill
#
# Bulk Modulus (GPa) = 67.22408 67.39475 67.30942
# Shear Modulus (GPa) = 23.39780 25.21483 24.30631
#
# Velocity S-wave (km/s) = 3.63674 3.77531 3.70667
# Velocity P-wave (km/s) = 7.45879 7.55642 7.50777
#
# Compressibility (1/GPa) = 0.01487562
#
# Stress axis : x y z
#
# Youngs Moduli (GPa) = 83.58573 83.58573 86.95756
#
# Poissons Ratio (x) = 0.26019 0.31144
# Poissons Ratio (y) = 0.26019 0.31144
# Poissons Ratio (z) = 0.29937 0.29937
#
# Static dielectric constant tensor:
#      x y z
#    x 1.604930 0.000000 0.000000 
#    y 0.000000 1.604930 0.000000 
#    z 0.000000 0.000000 1.605140 
# 
# From -- ./inp_files/8573.got.cif
#   From: 2010.05.17/outbox.cif.g08.bks.cpg/sg137_5_cif.got.tgz:8573.got - 2010.05.20 13:01:12.
