data_PCOD9570043
_publ_section_title
;
Structure prediction by ZEFSAII (Michael W. Deem and Ramdas Pophale) SiO2 
 PCOD9570043
Probable space group: P 42/N M C
;
_chemical_formula_sum "Si O2"
_cell_formula_units_Z 112
_cell_length_a 14.589009
_cell_length_b 14.589009
_cell_length_c 30.121238
_cell_angle_alpha 90.000000
_cell_angle_beta 90.000000
_cell_angle_gamma 90.000000
_cell_volume 6410.979705
_symmetry_space_group_name_H-M "P 42/N M C"
_symmetry_group_IT_number 137
_space_group.IT_coordinate_system_code '2'
_symmetry_cell_setting 'tetragonal'
loop_
_space_group_symop_operation_xyz
x,y,z
1/2-y,x,1/2+z
1/2-x,1/2-y,z
y,1/2-x,1/2+z
1/2+x,-y,-z
-x,1/2+y,-z
1/2+y,1/2+x,1/2-z
-y,-x,1/2-z
-x,-y,-z
1/2+y,-x,1/2-z
1/2+x,1/2+y,-z
-y,1/2+x,1/2-z
1/2-x,y,z
x,1/2-y,z
1/2-y,1/2-x,1/2+z
y,x,1/2+z
loop_
_atom_site_type_symbol
_atom_site_label
_atom_site_fract_x
_atom_site_fract_y
_atom_site_fract_z
Si Si1 0.356569 0.445481 0.304164
Si Si2 0.863097 0.750000 0.963986
Si Si3 0.355087 0.395966 0.210038
Si Si4 0.030458 0.403664 0.979921
Si Si5 0.750000 0.638429 0.359758
Si Si6 0.859687 0.859307 0.604330
Si Si7 0.352730 0.901366 0.172082
Si Si8 0.648034 0.144465 0.927133
O O1 0.250000 0.418613 0.303821
O O2 0.398306 0.403439 0.259097
O O3 0.393587 0.403859 0.349793
O O4 0.357925 0.556135 0.306853
O O5 0.750000 0.750000 0.970167
O O6 0.886032 0.750000 0.911514
O O7 0.912261 0.837715 0.987000
O O8 0.250000 0.362720 0.215847
O O9 0.394233 0.335270 0.170271
O O10 0.350255 0.498734 0.192885
O O11 0.095402 0.410889 0.936875
O O12 0.934291 0.363823 0.961469
O O13 0.000000 0.500000 0.000000
O O14 0.750000 0.750000 0.361564
O O15 0.750000 0.880886 0.598669
O O16 0.868206 0.750000 0.605318
O O17 0.250000 0.860401 0.178827
O O18 0.367083 0.908662 0.118939
O O19 0.750000 0.120806 0.944650
O O20 0.649895 0.250000 0.912285
#
# Coordination Sequence:
#
# PCOD9570043 Si02
#       8
#    16   8  16  16   8  16  16  16
#     4  10  19  31  53  80 108 146 185 231 288 341
#     4  11  24  42  65  89 119 161 206 258 313 365
#     4   9  19  33  49  74 108 141 185 232 278 340
#     4  12  24  38  59  86 116 151 198 249 308 372
#     4   9  20  36  54  75 107 145 191 242 284 347
#     4  10  20  36  57  82 115 149 191 248 302 359
#     4  10  19  31  49  75 110 149 189 228 281 351
#     4  10  20  36  56  77 109 151 191 236 288 361
#
# _framework density 17.470030000000001
#
# number of rings (size 3 to 8) (size 9 to 14) (size 15 to 20)
#    0.000    1.857    2.857    1.286    3.000    2.000 
#    0.000    0.714    0.000    5.143    0.000    0.000 
#    0.000    0.000    0.000    0.000    0.714    0.000 
#
# Total GULP energy -623530.179955 kJ/mol
# GULP energy per Si atom -5567.233750 kJ/mol
# Density = 1.743027 g / cm^3
# Si number density = 17.470030 Si / 1000 Ang^3
#
#
#
# Elastic Constant Matrix: (Units=GPa)
#
#
# Indices 1 2 3 4 5 6 
#
# 1 65.3411 20.2146 53.0296 0.0000 0.0000 0.0000
# 2 20.2146 65.3411 53.0296 0.0000 0.0000 0.0000
# 3 53.0296 53.0296 165.3923 0.0000 0.0000 0.0000
# 4 0.0000 0.0000 0.0000 15.4937 0.0000 0.0000
# 5 0.0000 0.0000 0.0000 0.0000 15.4937 0.0000
# 6 0.0000 0.0000 0.0000 0.0000 0.0000 8.4922
#
#
#
# Elastic Compliance Matrix: (Units=1/GPa)
#
#
# Indices 1 2 3 4 5 6 
#
# 1 0.020779 -0.001381 -0.006220 0.000000 0.000000 0.000000
# 2 -0.001381 0.020779 -0.006220 0.000000 0.000000 0.000000
# 3 -0.006220 -0.006220 0.010035 0.000000 0.000000 0.000000
# 4 0.000000 0.000000 0.000000 0.064542 0.000000 0.000000
# 5 0.000000 0.000000 0.000000 0.000000 0.064542 0.000000
# 6 0.000000 0.000000 0.000000 0.000000 0.000000 0.117755
#
#
# Mechanical properties :
#
#
# Convention : Reuss Voigt Hill
#
# Bulk Modulus (GPa) = 41.74860 60.95800 51.35330
# Shear Modulus (GPa) = 14.96747 19.21596 17.09172
#
# Velocity S-wave (km/s) = 2.93021 3.32013 3.13124
# Velocity P-wave (km/s) = 5.94956 7.04743 6.52164
#
# Compressibility (1/GPa) = 0.02395290
#
# Stress axis : x y z
#
# Youngs Moduli (GPa) = 48.12485 48.12485 99.65418
#
# Poissons Ratio (x) = 0.06644 0.61983
# Poissons Ratio (y) = 0.06644 0.61983
# Poissons Ratio (z) = 0.29932 0.29932
#
# Static dielectric constant tensor:
#      x y z
#    x 1.612130 0.000000 0.000000 
#    y 0.000000 1.612130 0.000000 
#    z 0.000000 0.000000 1.648930 
# 
# From -- ./inp_files/9876.got.cif
#   From: 2010.05.17/outbox.cif.g08.bks.cpg/sg137_5_cif.got.tgz:9876.got - 2010.05.20 13:01:12.
