data_PCOD9570963
_publ_section_title
;
Structure prediction by ZEFSAII (Michael W. Deem and Ramdas Pophale) SiO2 
 PCOD9570963
Probable space group: P 42/N C M
;
_chemical_formula_sum "Si O2"
_cell_formula_units_Z 80
_cell_length_a 26.914497
_cell_length_b 26.914497
_cell_length_c 4.942690
_cell_angle_alpha 90.000000
_cell_angle_beta 90.000000
_cell_angle_gamma 90.000000
_cell_volume 3580.435944
_symmetry_space_group_name_H-M "P 42/N C M"
_symmetry_group_IT_number 138
_space_group.IT_coordinate_system_code '2'
_symmetry_cell_setting 'tetragonal'
loop_
_space_group_symop_operation_xyz
x,y,z
1/2-y,x,1/2+z
1/2-x,1/2-y,z
y,1/2-x,1/2+z
1/2+x,-y,1/2-z
-x,1/2+y,1/2-z
1/2+y,1/2+x,-z
-y,-x,-z
-x,-y,-z
1/2+y,-x,1/2-z
1/2+x,1/2+y,-z
-y,1/2+x,1/2-z
1/2-x,y,1/2+z
x,1/2-y,1/2+z
1/2-y,1/2-x,z
y,x,z
loop_
_atom_site_type_symbol
_atom_site_label
_atom_site_fract_x
_atom_site_fract_y
_atom_site_fract_z
Si Si1 0.635706 0.068135 0.341194
Si Si2 0.217570 0.642994 0.567704
Si Si3 0.995929 0.280809 0.355562
Si Si4 0.521690 0.901692 0.021420
Si Si5 0.646716 0.928778 0.521771
O O1 0.588111 0.088111 0.500000
O O2 0.669807 0.116574 0.293976
O O3 0.674776 0.037094 0.524596
O O4 0.614365 0.033545 0.103674
O O5 0.198972 0.698972 0.500000
O O6 0.238431 0.629346 0.273291
O O7 0.986620 0.233441 0.547357
O O8 0.052576 0.298807 0.403033
O O9 0.542675 0.957326 0.074958
O O10 0.555003 0.866627 0.218064
O O11 0.537094 0.887593 0.719125
O O12 0.626881 0.873120 0.563879
#
# Coordination Sequence:
#
# PCOD9570963 Si02
#       5
#    16  16  16  16  16
#     4  10  22  38  56  80 112 148 186 231 280 330
#     4  11  24  41  60  81 105 137 181 235 295 350
#     4  11  21  36  57  81 109 143 184 226 272 328
#     4   9  18  34  55  79 108 145 186 223 265 322
#     4   9  18  34  55  80 111 144 180 226 275 326
#
# _framework density 22.343648999999999
#
# number of rings (size 3 to 8) (size 9 to 14) (size 15 to 20)
#    0.000    2.000    0.000    4.200    0.000    4.800 
#    0.000   15.000    0.000   10.800    0.000    0.000 
#    0.000    2.400    0.000    0.000    0.000    0.000 
#
# Total GULP energy -445865.818367 kJ/mol
# GULP energy per Si atom -5573.322730 kJ/mol
# Density = 2.229279 g / cm^3
# Si number density = 22.343649 Si / 1000 Ang^3
#
#
#
# Elastic Constant Matrix: (Units=GPa)
#
#
# Indices 1 2 3 4 5 6 
#
# 1 33.8592 48.9158 14.5926 0.0000 0.0000 0.0000
# 2 48.9158 33.8592 14.5926 0.0000 0.0000 0.0000
# 3 14.5926 14.5926 71.6250 0.0000 0.0000 0.0000
# 4 0.0000 0.0000 0.0000 24.1582 0.0000 0.0000
# 5 0.0000 0.0000 0.0000 0.0000 24.1582 0.0000
# 6 0.0000 0.0000 0.0000 0.0000 0.0000 50.7699
#
#
#
# Elastic Compliance Matrix: (Units=1/GPa)
#
#
# Indices 1 2 3 4 5 6 
#
# 1 -0.026700 0.039716 -0.002652 0.000000 0.000000 0.000000
# 2 0.039716 -0.026700 -0.002652 0.000000 0.000000 0.000000
# 3 -0.002652 -0.002652 0.015042 0.000000 0.000000 0.000000
# 4 0.000000 0.000000 0.000000 0.041394 0.000000 0.000000
# 5 0.000000 0.000000 0.000000 0.000000 0.041394 0.000000
# 6 0.000000 0.000000 0.000000 0.000000 0.000000 0.019697
#
#
# Mechanical properties :
#
#
# Convention : Reuss Voigt Hill
#
# Bulk Modulus (GPa) = 32.82267 32.83838 32.83053
# Shear Modulus (GPa) = 916.19434 23.90009 470.04721
#
# Velocity S-wave (km/s) = 20.27158 3.27411 14.51993
# Velocity P-wave (km/s) = 23.71999 5.38720 17.19971
#
# Compressibility (1/GPa) = 0.03046674
#
# Stress axis : x y z
#
# Youngs Moduli (GPa) = -37.45317 -37.45317 66.47992
#
# Poissons Ratio (x) = 1.48749 0.17629
# Poissons Ratio (y) = 1.48749 0.17629
# Poissons Ratio (z) = -0.09932 -0.09932
#
# Static dielectric constant tensor:
#      x y z
#    x 1.920940 0.000000 0.000000 
#    y 0.000000 1.920940 0.000000 
#    z 0.000000 0.000000 1.811770 
# 
# From -- ./inp_files/463.got.cif
#   From: 2010.05.17/outbox.cif.g08.bks.cpg/sg138_1_cif.got.tgz:463.got - 2010.05.20 13:08:53.
