data_PCOD9570777
_publ_section_title
;
Structure prediction by ZEFSAII (Michael W. Deem and Ramdas Pophale) SiO2 
 PCOD9570777
Probable space group: P 42/N C M
;
_chemical_formula_sum "Si O2"
_cell_formula_units_Z 96
_cell_length_a 24.158442
_cell_length_b 24.158442
_cell_length_c 9.604989
_cell_angle_alpha 90.000000
_cell_angle_beta 90.000000
_cell_angle_gamma 90.000000
_cell_volume 5605.762802
_symmetry_space_group_name_H-M "P 42/N C M"
_symmetry_group_IT_number 138
_space_group.IT_coordinate_system_code '2'
_symmetry_cell_setting 'tetragonal'
loop_
_space_group_symop_operation_xyz
x,y,z
1/2-y,x,1/2+z
1/2-x,1/2-y,z
y,1/2-x,1/2+z
1/2+x,-y,1/2-z
-x,1/2+y,1/2-z
1/2+y,1/2+x,-z
-y,-x,-z
-x,-y,-z
1/2+y,-x,1/2-z
1/2+x,1/2+y,-z
-y,1/2+x,1/2-z
1/2-x,y,1/2+z
x,1/2-y,1/2+z
1/2-y,1/2-x,z
y,x,z
loop_
_atom_site_type_symbol
_atom_site_label
_atom_site_fract_x
_atom_site_fract_y
_atom_site_fract_z
Si Si1 0.688344 0.811657 0.471835
Si Si2 0.805559 0.395960 0.666169
Si Si3 0.817849 0.817849 0.477494
Si Si4 0.368961 0.131040 0.764631
Si Si5 0.305674 0.602859 0.165097
Si Si6 0.370847 0.129154 0.285466
Si Si7 0.473673 0.306181 0.163135
Si Si8 0.693272 0.524555 0.170104
O O1 0.752255 0.825590 0.499160
O O2 0.672958 0.827043 0.314906
O O3 0.650088 0.849913 0.565291
O O4 0.855440 0.354923 0.702606
O O5 0.795151 0.391398 0.500405
O O6 0.749757 0.383375 0.750282
O O7 0.819740 0.460142 0.694403
O O8 0.855558 0.855558 0.576181
O O9 0.835233 0.835233 0.323213
O O10 0.351348 0.069765 0.718144
O O11 0.319934 0.538207 0.190559
O O12 0.354421 0.065351 0.276988
O O13 0.461614 0.249280 0.245732
O O14 0.467646 0.298446 0.996374
#
# Coordination Sequence:
#
# PCOD9570777 Si02
#       8
#     8  16   8   8  16   8  16  16
#     4  11  20  36  48  70  99 132 178 226 279 314
#     4   9  19  36  58  84 112 140 173 214 262 318
#     4  11  24  32  48  70 101 136 176 228 281 316
#     4  12  22  33  51  73 102 141 180 221 265 316
#     4   9  19  36  58  84 112 140 173 214 262 318
#     4  12  22  33  51  73 102 141 180 221 265 316
#     4  10  20  35  54  76 104 141 182 222 263 314
#     4  10  20  35  54  76 104 141 182 222 263 314
#
# _framework density 17.125233999999999
#
# number of rings (size 3 to 8) (size 9 to 14) (size 15 to 20)
#    0.000    1.833    1.667    3.000    2.333    2.333 
#    0.000    2.500    0.000    4.000    0.000    1.167 
#    0.000    0.000    0.000    0.000    0.000    0.000 
#
# Total GULP energy -535655.059447 kJ/mol
# GULP energy per Si atom -5579.740203 kJ/mol
# Density = 1.708626 g / cm^3
# Si number density = 17.125234 Si / 1000 Ang^3
#
#
#
# Elastic Constant Matrix: (Units=GPa)
#
#
# Indices 1 2 3 4 5 6 
#
# 1 113.8382 92.6193 35.0404 0.0000 0.0000 0.0000
# 2 92.6193 113.8382 35.0404 0.0000 0.0000 0.0000
# 3 35.0404 35.0404 31.9683 0.0000 0.0000 0.0000
# 4 0.0000 0.0000 0.0000 23.2054 0.0000 0.0000
# 5 0.0000 0.0000 0.0000 0.0000 23.2054 0.0000
# 6 0.0000 0.0000 0.0000 0.0000 0.0000 33.9518
#
#
#
# Elastic Compliance Matrix: (Units=1/GPa)
#
#
# Indices 1 2 3 4 5 6 
#
# 1 0.027421 -0.019707 -0.008455 0.000000 0.000000 0.000000
# 2 -0.019707 0.027421 -0.008455 0.000000 0.000000 0.000000
# 3 -0.008455 -0.008455 0.049816 0.000000 0.000000 0.000000
# 4 0.000000 0.000000 0.000000 0.043093 0.000000 0.000000
# 5 0.000000 0.000000 0.000000 0.000000 0.043093 0.000000
# 6 0.000000 0.000000 0.000000 0.000000 0.000000 0.029454
#
#
# Mechanical properties :
#
#
# Convention : Reuss Voigt Hill
#
# Bulk Modulus (GPa) = 31.82334 65.00498 48.41416
# Shear Modulus (GPa) = 16.44707 22.53548 19.49128
#
# Velocity S-wave (km/s) = 3.10239 3.63150 3.37732
# Velocity P-wave (km/s) = 5.60858 7.45820 6.59852
#
# Compressibility (1/GPa) = 0.03142348
#
# Stress axis : x y z
#
# Youngs Moduli (GPa) = 36.46884 36.46884 20.07399
#
# Poissons Ratio (x) = 0.71870 0.16972
# Poissons Ratio (y) = 0.71870 0.16972
# Poissons Ratio (z) = 0.30834 0.30834
#
# Static dielectric constant tensor:
#      x y z
#    x 1.568790 0.000000 0.000000 
#    y 0.000000 1.568790 0.000000 
#    z 0.000000 0.000000 1.575270 
# 
# From -- ./inp_files/1787.got.cif
#   From: 2010.05.17/outbox.cif.g08.bks.cpg/sg138_1_cif.got.tgz:1787.got - 2010.05.20 13:08:53.
