data_PCOD9570248
_publ_section_title
;
Structure prediction by ZEFSAII (Michael W. Deem and Ramdas Pophale) SiO2 
 PCOD9570248
Probable space group: P 42/N M C
;
_chemical_formula_sum "Si O2"
_cell_formula_units_Z 112
_cell_length_a 14.221437
_cell_length_b 14.221437
_cell_length_c 27.010467
_cell_angle_alpha 90.000000
_cell_angle_beta 90.000000
_cell_angle_gamma 90.000000
_cell_volume 5462.847242
_symmetry_space_group_name_H-M "P 42/N M C"
_symmetry_group_IT_number 137
_space_group.IT_coordinate_system_code '2'
_symmetry_cell_setting 'tetragonal'
loop_
_space_group_symop_operation_xyz
x,y,z
1/2-y,x,1/2+z
1/2-x,1/2-y,z
y,1/2-x,1/2+z
1/2+x,-y,-z
-x,1/2+y,-z
1/2+y,1/2+x,1/2-z
-y,-x,1/2-z
-x,-y,-z
1/2+y,-x,1/2-z
1/2+x,1/2+y,-z
-y,1/2+x,1/2-z
1/2-x,y,z
x,1/2-y,z
1/2-y,1/2-x,1/2+z
y,x,1/2+z
loop_
_atom_site_type_symbol
_atom_site_label
_atom_site_fract_x
_atom_site_fract_y
_atom_site_fract_z
Si Si1 0.547961 0.453673 0.196735
Si Si2 0.956597 0.365105 0.500546
Si Si3 0.855196 0.136436 0.599007
Si Si4 0.363372 0.142673 0.840852
Si Si5 0.135409 0.353080 0.956970
Si Si6 0.361995 0.858677 0.602590
Si Si7 0.139736 0.545264 0.203608
O O1 0.583205 0.416795 0.250000
O O2 0.586147 0.560040 0.188536
O O3 0.581878 0.397700 0.149001
O O4 0.435120 0.460775 0.201643
O O5 0.954996 0.250000 0.502222
O O6 0.912796 0.398968 0.551827
O O7 0.901124 0.390359 0.450580
O O8 0.063314 0.395958 0.492047
O O9 0.750000 0.098444 0.597647
O O10 0.850179 0.250000 0.593933
O O11 0.900627 0.120960 0.652156
O O12 0.250000 0.134556 0.836179
O O13 0.389260 0.250000 0.826782
O O14 0.387054 0.130018 0.899173
O O15 0.250000 0.351930 0.958374
O O16 0.101718 0.250000 0.971695
O O17 0.250000 0.859109 0.600699
O O18 0.394696 0.750000 0.609865
O O19 0.110264 0.610264 0.250000
O O20 0.250000 0.520953 0.206245
#
# Coordination Sequence:
#
# PCOD9570248 Si02
#       7
#    16  16  16  16  16  16  16
#     4  11  23  36  55  81 112 147 192 245 295 353
#     4   9  15  27  51  82 118 153 191 237 288 347
#     4   9  17  30  52  83 114 148 190 235 289 352
#     4   9  17  32  55  81 109 141 182 236 296 352
#     4   8  13  23  45  76 109 146 186 229 280 339
#     4  10  20  35  57  85 119 159 195 231 287 353
#     4  10  22  40  61  83 110 148 194 251 308 352
#
# _framework density 20.502127999999999
#
# number of rings (size 3 to 8) (size 9 to 14) (size 15 to 20)
#    0.000    2.571    1.429    2.143    0.000    6.429 
#    0.000    1.429    0.000    1.286    0.000    2.000 
#    0.000    0.000    0.000    0.000    0.000    0.000 
#
# Total GULP energy -625646.844988 kJ/mol
# GULP energy per Si atom -5586.132545 kJ/mol
# Density = 2.045546 g / cm^3
# Si number density = 20.502128 Si / 1000 Ang^3
#
#
#
# Elastic Constant Matrix: (Units=GPa)
#
#
# Indices 1 2 3 4 5 6 
#
# 1 56.3290 21.5778 44.5042 0.0000 0.0000 0.0000
# 2 21.5778 56.3292 44.5042 0.0000 0.0000 0.0000
# 3 44.5042 44.5042 165.4419 0.0000 0.0000 0.0000
# 4 0.0000 0.0000 0.0000 26.8554 0.0000 0.0000
# 5 0.0000 0.0000 0.0000 0.0000 26.8553 0.0000
# 6 0.0000 0.0000 0.0000 0.0000 0.0000 15.6620
#
#
#
# Elastic Compliance Matrix: (Units=1/GPa)
#
#
# Indices 1 2 3 4 5 6 
#
# 1 0.023654 -0.005122 -0.004985 0.000000 0.000000 0.000000
# 2 -0.005122 0.023653 -0.004985 0.000000 0.000000 0.000000
# 3 -0.004985 -0.004985 0.008726 0.000000 0.000000 0.000000
# 4 0.000000 0.000000 0.000000 0.037236 0.000000 0.000000
# 5 0.000000 0.000000 0.000000 0.000000 0.037237 0.000000
# 6 0.000000 0.000000 0.000000 0.000000 0.000000 0.063849
#
#
# Mechanical properties :
#
#
# Convention : Reuss Voigt Hill
#
# Bulk Modulus (GPa) = 38.68644 55.47473 47.08059
# Shear Modulus (GPa) = 21.44489 25.04215 23.24352
#
# Velocity S-wave (km/s) = 3.23768 3.49870 3.37072
# Velocity P-wave (km/s) = 5.73473 6.59075 6.17759
#
# Compressibility (1/GPa) = 0.02584885
#
# Stress axis : x y z
#
# Youngs Moduli (GPa) = 42.27700 42.27712 114.59601
#
# Poissons Ratio (x) = 0.21656 0.57125
# Poissons Ratio (y) = 0.21656 0.57125
# Poissons Ratio (z) = 0.21075 0.21075
#
# Static dielectric constant tensor:
#      x y z
#    x 1.755410 0.000000 0.000000 
#    y 0.000000 1.755410 0.000000 
#    z 0.000000 0.000000 1.712490 
# 
# From -- ./inp_files/8996.got.cif
#   From: 2010.05.17/outbox.cif.g08.bks.cpg/sg137_5_cif.got.tgz:8996.got - 2010.05.20 13:01:12.
