data_PCOD9570863
_publ_section_title
;
Structure prediction by ZEFSAII (Michael W. Deem and Ramdas Pophale) SiO2 
 PCOD9570863
Probable space group: P 42/N C M
;
_chemical_formula_sum "Si O2"
_cell_formula_units_Z 96
_cell_length_a 20.258304
_cell_length_b 20.258304
_cell_length_c 15.659073
_cell_angle_alpha 90.000000
_cell_angle_beta 90.000000
_cell_angle_gamma 90.000000
_cell_volume 6426.466036
_symmetry_space_group_name_H-M "P 42/N C M"
_symmetry_group_IT_number 138
_space_group.IT_coordinate_system_code '2'
_symmetry_cell_setting 'tetragonal'
loop_
_space_group_symop_operation_xyz
x,y,z
1/2-y,x,1/2+z
1/2-x,1/2-y,z
y,1/2-x,1/2+z
1/2+x,-y,1/2-z
-x,1/2+y,1/2-z
1/2+y,1/2+x,-z
-y,-x,-z
-x,-y,-z
1/2+y,-x,1/2-z
1/2+x,1/2+y,-z
-y,1/2+x,1/2-z
1/2-x,y,1/2+z
x,1/2-y,1/2+z
1/2-y,1/2-x,z
y,x,z
loop_
_atom_site_type_symbol
_atom_site_label
_atom_site_fract_x
_atom_site_fract_y
_atom_site_fract_z
Si Si1 0.945690 0.251696 0.909097
Si Si2 0.393689 0.854840 0.713764
Si Si3 0.108364 0.694697 0.437545
Si Si4 0.419634 0.525470 0.633683
Si Si5 0.979837 0.873458 0.542159
Si Si6 0.308068 0.696004 0.359065
O O1 0.938095 0.200758 0.831575
O O2 0.873700 0.289259 0.903379
O O3 0.003815 0.304754 0.911817
O O4 0.949505 0.209578 0.996360
O O5 0.357940 0.897434 0.639234
O O6 0.436446 0.890311 0.785765
O O7 0.332641 0.821734 0.764391
O O8 0.164739 0.664739 0.500000
O O9 0.131487 0.764992 0.401586
O O10 0.461968 0.461968 0.661090
O O11 0.470347 0.575201 0.587387
O O12 0.371182 0.501644 0.557591
O O13 0.908019 0.908019 0.547430
O O14 0.250000 0.750000 0.364501
#
# Coordination Sequence:
#
# PCOD9570863 Si02
#       6
#    16  16  16  16  16  16
#     4  11  21  28  42  60  91 121 153 195 225 270
#     4  11  21  28  42  62  91 120 159 191 225 277
#     4  10  21  27  34  54  87 122 148 181 218 262
#     4   9  18  33  48  62  82 118 164 202 229 258
#     4   9  18  33  48  61  81 118 167 206 231 259
#     4  12  20  26  34  55  88 129 156 179 217 255
#
# _framework density 14.938226
#
# number of rings (size 3 to 8) (size 9 to 14) (size 15 to 20)
#    0.000    1.667    5.000    3.500    4.667    0.000 
#    0.000    0.000    0.000    4.500    0.000    0.000 
#    0.000    0.667    0.000    3.667    0.000    0.000 
#
# Total GULP energy -534509.954380 kJ/mol
# GULP energy per Si atom -5567.812025 kJ/mol
# Density = 1.490423 g / cm^3
# Si number density = 14.938226 Si / 1000 Ang^3
#
#
#
# Elastic Constant Matrix: (Units=GPa)
#
#
# Indices 1 2 3 4 5 6 
#
# 1 44.5594 30.8421 30.3065 0.0000 0.0000 0.0000
# 2 30.8421 44.5594 30.3065 0.0000 0.0000 0.0000
# 3 30.3065 30.3065 93.9589 0.0000 0.0000 0.0000
# 4 0.0000 0.0000 0.0000 18.1208 0.0000 0.0000
# 5 0.0000 0.0000 0.0000 0.0000 18.1208 0.0000
# 6 0.0000 0.0000 0.0000 0.0000 0.0000 22.9563
#
#
#
# Elastic Compliance Matrix: (Units=1/GPa)
#
#
# Indices 1 2 3 4 5 6 
#
# 1 0.045403 -0.027498 -0.005775 0.000000 0.000000 0.000000
# 2 -0.027498 0.045403 -0.005775 0.000000 0.000000 0.000000
# 3 -0.005775 -0.005775 0.014369 0.000000 0.000000 0.000000
# 4 0.000000 0.000000 0.000000 0.055185 0.000000 0.000000
# 5 0.000000 0.000000 0.000000 0.000000 0.055185 0.000000
# 6 0.000000 0.000000 0.000000 0.000000 0.000000 0.043561
#
#
# Mechanical properties :
#
#
# Convention : Reuss Voigt Hill
#
# Bulk Modulus (GPa) = 36.93118 40.66532 38.79825
# Shear Modulus (GPa) = 14.44134 17.94776 16.19455
#
# Velocity S-wave (km/s) = 3.11261 3.46998 3.29614
# Velocity P-wave (km/s) = 6.13955 6.58299 6.36513
#
# Compressibility (1/GPa) = 0.02707739
#
# Stress axis : x y z
#
# Youngs Moduli (GPa) = 22.02505 22.02505 69.59640
#
# Poissons Ratio (x) = 0.60564 0.40194
# Poissons Ratio (y) = 0.60564 0.40194
# Poissons Ratio (z) = 0.12720 0.12720
#
# Static dielectric constant tensor:
#      x y z
#    x 1.513580 0.000000 0.000000 
#    y 0.000000 1.513580 0.000000 
#    z 0.000000 0.000000 1.555850 
# 
# From -- ./inp_files/5377.got.cif
#   From: 2010.05.17/outbox.cif.g08.bks.cpg/sg138_3_cif.got.tgz:5377.got - 2010.05.20 13:08:53.
