data_PCOD9570907
_publ_section_title
;
Structure prediction by ZEFSAII (Michael W. Deem and Ramdas Pophale) SiO2 
 PCOD9570907
Probable space group: P 42/N C M
;
_chemical_formula_sum "Si O2"
_cell_formula_units_Z 96
_cell_length_a 20.487633
_cell_length_b 20.487633
_cell_length_c 13.860988
_cell_angle_alpha 90.000000
_cell_angle_beta 90.000000
_cell_angle_gamma 90.000000
_cell_volume 5818.054155
_symmetry_space_group_name_H-M "P 42/N C M"
_symmetry_group_IT_number 138
_space_group.IT_coordinate_system_code '2'
_symmetry_cell_setting 'tetragonal'
loop_
_space_group_symop_operation_xyz
x,y,z
1/2-y,x,1/2+z
1/2-x,1/2-y,z
y,1/2-x,1/2+z
1/2+x,-y,1/2-z
-x,1/2+y,1/2-z
1/2+y,1/2+x,-z
-y,-x,-z
-x,-y,-z
1/2+y,-x,1/2-z
1/2+x,1/2+y,-z
-y,1/2+x,1/2-z
1/2-x,y,1/2+z
x,1/2-y,1/2+z
1/2-y,1/2-x,z
y,x,z
loop_
_atom_site_type_symbol
_atom_site_label
_atom_site_fract_x
_atom_site_fract_y
_atom_site_fract_z
Si Si1 0.346966 0.705911 0.756151
Si Si2 0.332853 0.057770 0.844120
Si Si3 0.189155 0.585282 0.541775
Si Si4 0.828950 0.081334 0.566015
Si Si5 0.642847 0.749915 0.518587
Si Si6 0.055741 0.165384 0.116989
O O1 0.278928 0.670280 0.776232
O O2 0.388385 0.707367 0.852578
O O3 0.382477 0.671585 0.668383
O O4 0.395756 0.104244 0.848851
O O5 0.321493 0.043393 0.730722
O O6 0.342916 0.993588 0.908251
O O7 0.274000 0.098214 0.893118
O O8 0.134249 0.634249 0.500000
O O9 0.256225 0.585720 0.480307
O O10 0.162837 0.511932 0.558329
O O11 0.881554 0.118447 0.500000
O O12 0.691763 0.808238 0.547401
O O13 0.688961 0.688961 0.489735
O O14 0.598788 0.777311 0.431784
O O15 0.099757 0.099757 0.109605
#
# Coordination Sequence:
#
# PCOD9570907 Si02
#       6
#    16  16  16  16  16  16
#     4  11  22  36  55  82 114 139 181 234 274 320
#     4  10  21  37  58  82 110 146 185 223 270 330
#     4  12  23  36  57  83 110 145 185 227 276 321
#     4  12  23  36  57  83 110 145 185 227 276 321
#     4   9  18  34  58  88 115 138 174 226 277 326
#     4  10  21  37  58  82 110 146 185 223 270 330
#
# _framework density 16.500363
#
# number of rings (size 3 to 8) (size 9 to 14) (size 15 to 20)
#    0.000    1.333    6.667    0.000    0.000    1.667 
#    0.000    3.333    0.000    0.000    0.000    0.000 
#    0.000    0.000    0.000    0.000    0.000    0.000 
#
# Total GULP energy -535269.823525 kJ/mol
# GULP energy per Si atom -5575.727328 kJ/mol
# Density = 1.646281 g / cm^3
# Si number density = 16.500363 Si / 1000 Ang^3
#
#
#
# Elastic Constant Matrix: (Units=GPa)
#
#
# Indices 1 2 3 4 5 6 
#
# 1 81.7429 39.2010 30.6884 0.0000 0.0000 0.0000
# 2 39.2010 81.7468 30.6899 0.0000 0.0000 0.0000
# 3 30.6884 30.6899 75.2247 0.0000 0.0000 0.0000
# 4 0.0000 0.0000 0.0000 29.9301 0.0000 0.0000
# 5 0.0000 0.0000 0.0000 0.0000 29.9304 0.0000
# 6 0.0000 0.0000 0.0000 0.0000 0.0000 13.9413
#
#
#
# Elastic Compliance Matrix: (Units=1/GPa)
#
#
# Indices 1 2 3 4 5 6 
#
# 1 0.016966 -0.006539 -0.004254 0.000000 0.000000 0.000000
# 2 -0.006539 0.016966 -0.004254 0.000000 0.000000 0.000000
# 3 -0.004254 -0.004254 0.016764 0.000000 0.000000 0.000000
# 4 0.000000 0.000000 0.000000 0.033411 0.000000 0.000000
# 5 0.000000 0.000000 0.000000 0.000000 0.033411 0.000000
# 6 0.000000 0.000000 0.000000 0.000000 0.000000 0.071729
#
#
# Mechanical properties :
#
#
# Convention : Reuss Voigt Hill
#
# Bulk Modulus (GPa) = 48.53696 48.87479 48.70587
# Shear Modulus (GPa) = 22.10347 23.96937 23.03642
#
# Velocity S-wave (km/s) = 3.66399 3.81551 3.74052
# Velocity P-wave (km/s) = 6.88326 7.00682 6.94532
#
# Compressibility (1/GPa) = 0.02060286
#
# Stress axis : x y z
#
# Youngs Moduli (GPa) = 58.94010 58.94236 59.65040
#
# Poissons Ratio (x) = 0.38543 0.25374
# Poissons Ratio (y) = 0.38542 0.25375
# Poissons Ratio (z) = 0.25071 0.25074
#
# Static dielectric constant tensor:
#      x y z
#    x 1.556110 0.000000 0.000000 
#    y 0.000000 1.556110 0.000000 
#    z 0.000000 0.000000 1.547300 
# 
# From -- ./inp_files/3122.got.cif
#   From: 2010.05.17/outbox.cif.g08.bks.cpg/sg138_2_cif.got.tgz:3122.got - 2010.05.20 13:08:53.
