data_PCOD9570031
_publ_section_title
;
Structure prediction by ZEFSAII (Michael W. Deem and Ramdas Pophale) SiO2 
 PCOD9570031
Probable space group: P 42/N M C
;
_chemical_formula_sum "Si O2"
_cell_formula_units_Z 112
_cell_length_a 14.149912
_cell_length_b 14.149912
_cell_length_c 24.679194
_cell_angle_alpha 90.000000
_cell_angle_beta 90.000000
_cell_angle_gamma 90.000000
_cell_volume 4941.268460
_symmetry_space_group_name_H-M "P 42/N M C"
_symmetry_group_IT_number 137
_space_group.IT_coordinate_system_code '2'
_symmetry_cell_setting 'tetragonal'
loop_
_space_group_symop_operation_xyz
x,y,z
1/2-y,x,1/2+z
1/2-x,1/2-y,z
y,1/2-x,1/2+z
1/2+x,-y,-z
-x,1/2+y,-z
1/2+y,1/2+x,1/2-z
-y,-x,1/2-z
-x,-y,-z
1/2+y,-x,1/2-z
1/2+x,1/2+y,-z
-y,1/2+x,1/2-z
1/2-x,y,z
x,1/2-y,z
1/2-y,1/2-x,1/2+z
y,x,1/2+z
loop_
_atom_site_type_symbol
_atom_site_label
_atom_site_fract_x
_atom_site_fract_y
_atom_site_fract_z
Si Si1 0.639789 0.971026 0.381642
Si Si2 0.641061 0.361258 0.597118
Si Si3 0.494407 0.140475 0.819692
Si Si4 0.360620 0.143546 0.923089
Si Si5 0.642831 0.134610 0.187857
Si Si6 0.136720 0.471207 0.026056
Si Si7 0.644610 0.636010 0.269665
O O1 0.750000 0.985238 0.395611
O O2 0.587536 0.924329 0.431425
O O3 0.635891 0.900550 0.330408
O O4 0.600420 0.069119 0.356982
O O5 0.750000 0.391467 0.589496
O O6 0.639598 0.250000 0.607166
O O7 0.599921 0.413843 0.650160
O O8 0.579312 0.379369 0.543734
O O9 0.518530 0.250000 0.806063
O O10 0.418637 0.139872 0.868187
O O11 0.440177 0.100405 0.768164
O O12 0.250000 0.133592 0.911003
O O13 0.373886 0.250000 0.946770
O O14 0.388014 0.063936 0.966286
O O15 0.614214 0.114214 0.250000
O O16 0.750000 0.102729 0.178186
O O17 0.642421 0.250000 0.185662
O O18 0.250000 0.452539 0.032865
O O19 0.750000 0.606197 0.250162
O O20 0.642911 0.750000 0.268140
#
# Coordination Sequence:
#
# PCOD9570031 Si02
#       7
#    16  16  16  16  16  16  16
#     4  10  19  30  49  78 109 140 170 203 252 312
#     4   9  19  36  55  73  96 132 178 222 262 302
#     4   9  17  31  52  75 100 132 169 209 252 300
#     4   9  17  30  51  80 110 135 159 194 248 314
#     4   8  15  29  47  66  93 134 179 213 241 284
#     4  10  20  33  51  76 105 137 171 209 257 311
#     4   9  17  29  47  75 109 138 165 204 257 313
#
# _framework density 22.666243000000001
#
# number of rings (size 3 to 8) (size 9 to 14) (size 15 to 20)
#    0.000    2.857    0.000    1.714    0.000    4.857 
#    0.000    0.000    0.000    4.286    0.000   11.000 
#    0.000    6.857    0.000    0.000    0.000    0.000 
#
# Total GULP energy -625907.656416 kJ/mol
# GULP energy per Si atom -5588.461218 kJ/mol
# Density = 2.261465 g / cm^3
# Si number density = 22.666243 Si / 1000 Ang^3
#
#
#
# Elastic Constant Matrix: (Units=GPa)
#
#
# Indices 1 2 3 4 5 6 
#
# 1 69.0530 13.4587 5.4441 0.0000 0.0000 0.0000
# 2 13.4587 69.0530 5.4441 0.0000 0.0000 0.0000
# 3 5.4441 5.4441 31.5915 0.0000 0.0000 0.0000
# 4 0.0000 0.0000 0.0000 25.7983 0.0000 0.0000
# 5 0.0000 0.0000 0.0000 0.0000 25.7983 0.0000
# 6 0.0000 0.0000 0.0000 0.0000 0.0000 16.9776
#
#
#
# Elastic Compliance Matrix: (Units=1/GPa)
#
#
# Indices 1 2 3 4 5 6 
#
# 1 0.015194 -0.002793 -0.002137 0.000000 0.000000 0.000000
# 2 -0.002793 0.015194 -0.002137 0.000000 0.000000 0.000000
# 3 -0.002137 -0.002137 0.032391 0.000000 0.000000 0.000000
# 4 0.000000 0.000000 0.000000 0.038762 0.000000 0.000000
# 5 0.000000 0.000000 0.000000 0.000000 0.038762 0.000000
# 6 0.000000 0.000000 0.000000 0.000000 0.000000 0.058901
#
#
# Mechanical properties :
#
#
# Convention : Reuss Voigt Hill
#
# Bulk Modulus (GPa) = 20.55702 24.26569 22.41135
# Shear Modulus (GPa) = 21.78130 23.40487 22.59309
#
# Velocity S-wave (km/s) = 3.10329 3.21688 3.16060
# Velocity P-wave (km/s) = 4.68292 4.95243 4.81956
#
# Compressibility (1/GPa) = 0.04864519
#
# Stress axis : x y z
#
# Youngs Moduli (GPa) = 65.81334 65.81334 30.87315
#
# Poissons Ratio (x) = 0.18382 0.06598
# Poissons Ratio (y) = 0.18382 0.06598
# Poissons Ratio (z) = 0.14065 0.14065
#
# Static dielectric constant tensor:
#      x y z
#    x 1.883620 0.000000 0.000000 
#    y 0.000000 1.883620 0.000000 
#    z 0.000000 0.000000 1.776280 
# 
# From -- ./inp_files/9001.got.cif
#   From: 2010.05.17/outbox.cif.g08.bks.cpg/sg137_5_cif.got.tgz:9001.got - 2010.05.20 13:01:12.
