data_PCOD9570850
_publ_section_title
;
Structure prediction by ZEFSAII (Michael W. Deem and Ramdas Pophale) SiO2 
 PCOD9570850
Probable space group: P 42/N C M
;
_chemical_formula_sum "Si O2"
_cell_formula_units_Z 112
_cell_length_a 13.685951
_cell_length_b 13.685951
_cell_length_c 27.496936
_cell_angle_alpha 90.000000
_cell_angle_beta 90.000000
_cell_angle_gamma 90.000000
_cell_volume 5150.320603
_symmetry_space_group_name_H-M "P 42/N C M"
_symmetry_group_IT_number 138
_space_group.IT_coordinate_system_code '2'
_symmetry_cell_setting 'tetragonal'
loop_
_space_group_symop_operation_xyz
x,y,z
1/2-y,x,1/2+z
1/2-x,1/2-y,z
y,1/2-x,1/2+z
1/2+x,-y,1/2-z
-x,1/2+y,1/2-z
1/2+y,1/2+x,-z
-y,-x,-z
-x,-y,-z
1/2+y,-x,1/2-z
1/2+x,1/2+y,-z
-y,1/2+x,1/2-z
1/2-x,y,1/2+z
x,1/2-y,1/2+z
1/2-y,1/2-x,z
y,x,z
loop_
_atom_site_type_symbol
_atom_site_label
_atom_site_fract_x
_atom_site_fract_y
_atom_site_fract_z
Si Si1 0.547168 0.383209 0.252458
Si Si2 0.981470 0.358442 0.538481
Si Si3 0.997730 0.660221 0.010803
Si Si4 0.530110 0.368537 0.655048
Si Si5 0.781674 0.361192 0.094370
Si Si6 0.243317 0.407814 0.220884
Si Si7 0.934212 0.095004 0.857716
O O1 0.466910 0.466910 0.259800
O O2 0.621861 0.407358 0.294762
O O3 0.489916 0.281621 0.257150
O O4 0.574433 0.391597 0.195881
O O5 0.899701 0.399701 0.500000
O O6 0.004517 0.245056 0.529460
O O7 0.950281 0.382894 0.593784
O O8 0.077286 0.422715 0.527402
O O9 0.052362 0.713607 0.055099
O O10 0.894188 0.605813 0.019248
O O11 0.074197 0.574197 0.000000
O O12 0.465732 0.465732 0.644695
O O13 0.609558 0.350083 0.614865
O O14 0.453111 0.285033 0.668975
O O15 0.750000 0.250000 0.079224
O O16 0.708236 0.407960 0.133682
O O17 0.146475 0.353526 0.239218
O O18 0.328003 0.328003 0.215362
O O19 0.042125 0.042125 0.858031
#
# Coordination Sequence:
#
# PCOD9570850 Si02
#       7
#    16  16  16  16  16  16  16
#     4   9  19  36  56  84 121 159 200 256 318 373
#     4  10  20  39  67  96 125 163 211 264 321 383
#     4  11  25  42  64  94 129 169 211 265 330 399
#     4  10  22  39  58  84 126 167 205 268 333 383
#     4  12  24  39  62  93 123 168 217 267 323 394
#     4   9  18  35  58  81 109 156 211 257 311 378
#     4  10  21  38  62  91 123 163 215 264 315 382
#
# _framework density 21.746219
#
# number of rings (size 3 to 8) (size 9 to 14) (size 15 to 20)
#    0.000    1.857    1.429    2.143    2.000    0.286 
#    0.000    2.143    0.000    3.857    0.000    0.000 
#    0.000    0.000    0.000    0.000    0.000    0.000 
#
# Total GULP energy -624272.238519 kJ/mol
# GULP energy per Si atom -5573.859272 kJ/mol
# Density = 2.169672 g / cm^3
# Si number density = 21.746219 Si / 1000 Ang^3
#
#
#
# Elastic Constant Matrix: (Units=GPa)
#
#
# Indices 1 2 3 4 5 6 
#
# 1 85.6624 43.9001 13.1879 0.0000 0.0000 0.0000
# 2 43.9001 85.6624 13.1879 0.0000 0.0000 0.0000
# 3 13.1879 13.1879 58.4717 0.0000 0.0000 0.0000
# 4 0.0000 0.0000 0.0000 20.4794 0.0000 0.0000
# 5 0.0000 0.0000 0.0000 0.0000 20.4794 0.0000
# 6 0.0000 0.0000 0.0000 0.0000 0.0000 28.3831
#
#
#
# Elastic Compliance Matrix: (Units=1/GPa)
#
#
# Indices 1 2 3 4 5 6 
#
# 1 0.016017 -0.007928 -0.001825 0.000000 0.000000 0.000000
# 2 -0.007928 0.016017 -0.001825 0.000000 0.000000 0.000000
# 3 -0.001825 -0.001825 0.017925 0.000000 0.000000 0.000000
# 4 0.000000 0.000000 0.000000 0.048830 0.000000 0.000000
# 5 0.000000 0.000000 0.000000 0.000000 0.048830 0.000000
# 6 0.000000 0.000000 0.000000 0.000000 0.000000 0.035232
#
#
# Mechanical properties :
#
#
# Convention : Reuss Voigt Hill
#
# Bulk Modulus (GPa) = 37.30443 41.14980 39.22712
# Shear Modulus (GPa) = 23.26224 24.50309 23.88267
#
# Velocity S-wave (km/s) = 3.27420 3.36039 3.31757
# Velocity P-wave (km/s) = 5.61119 5.83267 5.72301
#
# Compressibility (1/GPa) = 0.02680647
#
# Stress axis : x y z
#
# Youngs Moduli (GPa) = 62.43227 62.43227 55.78692
#
# Poissons Ratio (x) = 0.49494 0.10179
# Poissons Ratio (y) = 0.49494 0.10179
# Poissons Ratio (z) = 0.11391 0.11391
#
# Static dielectric constant tensor:
#      x y z
#    x 1.842320 0.000000 0.000000 
#    y 0.000000 1.842320 0.000000 
#    z 0.000000 0.000000 1.844300 
# 
# From -- ./inp_files/7606.got.cif
#   From: 2010.05.17/outbox.cif.g08.bks.cpg/sg138_4_cif.got.tgz:7606.got - 2010.05.20 13:08:53.
