data_PCOD9570587
_publ_section_title
;
Structure prediction by ZEFSAII (Michael W. Deem and Ramdas Pophale) SiO2 
 PCOD9570587
Probable space group: P 42/N C M
;
_chemical_formula_sum "Si O2"
_cell_formula_units_Z 96
_cell_length_a 13.949097
_cell_length_b 13.949097
_cell_length_c 31.244239
_cell_angle_alpha 90.000000
_cell_angle_beta 90.000000
_cell_angle_gamma 90.000000
_cell_volume 6079.419887
_symmetry_space_group_name_H-M "P 42/N C M"
_symmetry_group_IT_number 138
_space_group.IT_coordinate_system_code '2'
_symmetry_cell_setting 'tetragonal'
loop_
_space_group_symop_operation_xyz
x,y,z
1/2-y,x,1/2+z
1/2-x,1/2-y,z
y,1/2-x,1/2+z
1/2+x,-y,1/2-z
-x,1/2+y,1/2-z
1/2+y,1/2+x,-z
-y,-x,-z
-x,-y,-z
1/2+y,-x,1/2-z
1/2+x,1/2+y,-z
-y,1/2+x,1/2-z
1/2-x,y,1/2+z
x,1/2-y,1/2+z
1/2-y,1/2-x,z
y,x,z
loop_
_atom_site_type_symbol
_atom_site_label
_atom_site_fract_x
_atom_site_fract_y
_atom_site_fract_z
Si Si1 0.800483 0.352106 0.048469
Si Si2 0.374779 0.849855 0.202132
Si Si3 0.001692 0.345700 0.623369
Si Si4 0.534747 0.122810 0.117849
Si Si5 0.869380 0.357390 0.703049
Si Si6 0.106438 0.545342 0.452330
O O1 0.750000 0.250000 0.059995
O O2 0.885409 0.373114 0.080989
O O3 0.719089 0.433881 0.051483
O O4 0.838030 0.338030 0.000000
O O5 0.406011 0.913433 0.162308
O O6 0.258402 0.856487 0.203452
O O7 0.398709 0.737438 0.195938
O O8 0.406029 0.882734 0.249455
O O9 0.003649 0.231248 0.622829
O O10 0.940448 0.379338 0.664548
O O11 0.946843 0.386278 0.581742
O O12 0.104847 0.395154 0.624569
O O13 0.450731 0.049270 0.107806
O O14 0.078345 0.578345 0.500000
O O15 0.060355 0.439646 0.446042
#
# Coordination Sequence:
#
# PCOD9570587 Si02
#       6
#    16  16  16  16  16  16
#     4  11  19  34  55  76  98 130 167 207 247 293
#     4   8  15  27  46  69  97 120 158 205 257 292
#     4  10  19  30  46  68  96 131 166 202 248 298
#     4  11  22  32  47  71 101 135 166 203 249 296
#     4   8  14  27  47  71  91 123 159 209 251 293
#     4  10  18  30  51  79 102 121 156 206 254 292
#
# _framework density 15.790981
#
# number of rings (size 3 to 8) (size 9 to 14) (size 15 to 20)
#    0.000    2.333    3.333    2.000    2.333    1.333 
#    0.000    0.000    0.000    0.500    0.000    0.000 
#    0.000    0.000    0.000    0.000    0.000    0.000 
#
# Total GULP energy -534840.602661 kJ/mol
# GULP energy per Si atom -5571.256278 kJ/mol
# Density = 1.575504 g / cm^3
# Si number density = 15.790981 Si / 1000 Ang^3
#
#
#
# Elastic Constant Matrix: (Units=GPa)
#
#
# Indices 1 2 3 4 5 6 
#
# 1 78.9385 58.4113 52.5483 0.0000 0.0000 0.0000
# 2 58.4113 78.9385 52.5483 0.0000 0.0000 0.0000
# 3 52.5483 52.5483 114.8714 0.0000 0.0000 0.0000
# 4 0.0000 0.0000 0.0000 -4.9597 0.0000 0.0000
# 5 0.0000 0.0000 0.0000 0.0000 -4.9597 0.0000
# 6 0.0000 0.0000 0.0000 0.0000 0.0000 24.1845
#
#
#
# Elastic Compliance Matrix: (Units=1/GPa)
#
#
# Indices 1 2 3 4 5 6 
#
# 1 0.029959 -0.018757 -0.005124 0.000000 0.000000 0.000000
# 2 -0.018757 0.029959 -0.005124 0.000000 0.000000 0.000000
# 3 -0.005124 -0.005124 0.013394 0.000000 0.000000 0.000000
# 4 0.000000 0.000000 0.000000 -0.201626 0.000000 0.000000
# 5 0.000000 0.000000 0.000000 0.000000 -0.201626 0.000000
# 6 0.000000 0.000000 0.000000 0.000000 0.000000 0.041349
#
#
# Mechanical properties :
#
#
# Convention : Reuss Voigt Hill
#
# Bulk Modulus (GPa) = 65.35982 66.64047 66.00014
# Shear Modulus (GPa) = -22.17488 10.13572 -6.01958
#
# Velocity S-wave (km/s) = -3.75143 2.53626 -1.95456
# Velocity P-wave (km/s) = 4.76615 7.13232 6.06573
#
# Compressibility (1/GPa) = 0.01529992
#
# Stress axis : x y z
#
# Youngs Moduli (GPa) = 33.37915 33.37915 74.66274
#
# Poissons Ratio (x) = 0.62610 0.38259
# Poissons Ratio (y) = 0.62610 0.38259
# Poissons Ratio (z) = 0.17104 0.17104
#
# Static dielectric constant tensor:
#      x y z
#    x 1.517030 0.000000 0.000000 
#    y 0.000000 1.517030 0.000000 
#    z 0.000000 0.000000 1.548300 
# 
# From -- ./inp_files/8198.got.cif
#   From: 2010.05.17/outbox.cif.g08.bks.cpg/sg138_5_cif.got.tgz:8198.got - 2010.05.20 13:08:53.
