data_PCOD9570978
_publ_section_title
;
Structure prediction by ZEFSAII (Michael W. Deem and Ramdas Pophale) SiO2 
 PCOD9570978
Probable space group: P 42/N C M
;
_chemical_formula_sum "Si O2"
_cell_formula_units_Z 64
_cell_length_a 11.208771
_cell_length_b 11.208771
_cell_length_c 21.595399
_cell_angle_alpha 90.000000
_cell_angle_beta 90.000000
_cell_angle_gamma 90.000000
_cell_volume 2713.171369
_symmetry_space_group_name_H-M "P 42/N C M"
_symmetry_group_IT_number 138
_space_group.IT_coordinate_system_code '2'
_symmetry_cell_setting 'tetragonal'
loop_
_space_group_symop_operation_xyz
x,y,z
1/2-y,x,1/2+z
1/2-x,1/2-y,z
y,1/2-x,1/2+z
1/2+x,-y,1/2-z
-x,1/2+y,1/2-z
1/2+y,1/2+x,-z
-y,-x,-z
-x,-y,-z
1/2+y,-x,1/2-z
1/2+x,1/2+y,-z
-y,1/2+x,1/2-z
1/2-x,y,1/2+z
x,1/2-y,1/2+z
1/2-y,1/2-x,z
y,x,z
loop_
_atom_site_type_symbol
_atom_site_label
_atom_site_fract_x
_atom_site_fract_y
_atom_site_fract_z
Si Si1 0.754292 0.554403 0.243512
Si Si2 0.219826 0.611011 0.866928
Si Si3 0.299318 0.002096 0.988853
Si Si4 0.975070 0.783225 0.377992
O O1 0.858286 0.641715 0.219561
O O2 0.634053 0.634053 0.245994
O O3 0.740662 0.445014 0.197446
O O4 0.786683 0.518190 0.313845
O O5 0.250000 0.750000 0.873662
O O6 0.264250 0.533939 0.925412
O O7 0.076134 0.615314 0.869774
O O8 0.377479 0.122522 0.981404
O O9 0.228464 0.007921 0.053787
O O10 0.395061 0.895061 0.000000
O O11 0.848082 0.848082 0.379977
#
# Coordination Sequence:
#
# PCOD9570978 Si02
#       4
#    16  16  16  16
#     4  10  22  40  60  86 123 164 204 253 308 364
#     4  11  22  34  56  89 121 153 202 248 307 362
#     4   8  15  32  55  80 111 153 200 248 301 361
#     4   9  19  35  57  82 112 155 206 252 302 361
#
# _framework density 23.588630999999999
#
# number of rings (size 3 to 8) (size 9 to 14) (size 15 to 20)
#    0.000    2.500    0.000    3.750    3.500    4.500 
#    0.000    1.250    0.000    4.500    0.000   19.250 
#    0.000    2.000    0.000    0.000    0.000    0.000 
#
# Total GULP energy -357108.258278 kJ/mol
# GULP energy per Si atom -5579.816536 kJ/mol
# Density = 2.353494 g / cm^3
# Si number density = 23.588631 Si / 1000 Ang^3
#
#
#
# Elastic Constant Matrix: (Units=GPa)
#
#
# Indices 1 2 3 4 5 6 
#
# 1 31.8935 38.4938 47.0772 0.0000 0.0000 0.0000
# 2 38.4938 31.8935 47.0772 0.0000 0.0000 0.0000
# 3 47.0772 47.0772 227.7512 0.0000 0.0000 0.0000
# 4 0.0000 0.0000 0.0000 30.2650 0.0000 0.0000
# 5 0.0000 0.0000 0.0000 0.0000 30.2650 0.0000
# 6 0.0000 0.0000 0.0000 0.0000 0.0000 26.1588
#
#
#
# Elastic Compliance Matrix: (Units=1/GPa)
#
#
# Indices 1 2 3 4 5 6 
#
# 1 -0.065936 0.085572 -0.004059 0.000000 0.000000 0.000000
# 2 0.085572 -0.065936 -0.004059 0.000000 0.000000 0.000000
# 3 -0.004059 -0.004059 0.006069 0.000000 0.000000 0.000000
# 4 0.000000 0.000000 0.000000 0.033041 0.000000 0.000000
# 5 0.000000 0.000000 0.000000 0.000000 0.033041 0.000000
# 6 0.000000 0.000000 0.000000 0.000000 0.000000 0.038228
#
#
# Mechanical properties :
#
#
# Convention : Reuss Voigt Hill
#
# Bulk Modulus (GPa) = 34.35700 61.87053 48.11377
# Shear Modulus (GPa) = -29.99422 27.93044 -1.03189
#
# Velocity S-wave (km/s) = -3.56975 3.44476 -0.66212
# Velocity P-wave (km/s) = 1.54731 6.48904 4.45609
#
# Compressibility (1/GPa) = 0.02910615
#
# Stress axis : x y z
#
# Youngs Moduli (GPa) = -15.16627 -15.16627 164.77778
#
# Poissons Ratio (x) = 1.29781 0.66883
# Poissons Ratio (y) = 1.29781 0.66883
# Poissons Ratio (z) = -0.06156 -0.06156
#
# Static dielectric constant tensor:
#      x y z
#    x 1.940280 0.000000 0.000000 
#    y 0.000000 1.940280 0.000000 
#    z 0.000000 0.000000 1.971150 
# 
# From -- ./inp_files/5862.got.cif
#   From: 2010.05.17/outbox.cif.g08.bks.cpg/sg138_3_cif.got.tgz:5862.got - 2010.05.20 13:08:53.
