data_PCOD9570614
_publ_section_title
;
Structure prediction by ZEFSAII (Michael W. Deem and Ramdas Pophale) SiO2 
 PCOD9570614
Probable space group: P 42/N C M
;
_chemical_formula_sum "Si O2"
_cell_formula_units_Z 128
_cell_length_a 23.873881
_cell_length_b 23.873881
_cell_length_c 12.150362
_cell_angle_alpha 90.000000
_cell_angle_beta 90.000000
_cell_angle_gamma 90.000000
_cell_volume 6925.246983
_symmetry_space_group_name_H-M "P 42/N C M"
_symmetry_group_IT_number 138
_space_group.IT_coordinate_system_code '2'
_symmetry_cell_setting 'tetragonal'
loop_
_space_group_symop_operation_xyz
x,y,z
1/2-y,x,1/2+z
1/2-x,1/2-y,z
y,1/2-x,1/2+z
1/2+x,-y,1/2-z
-x,1/2+y,1/2-z
1/2+y,1/2+x,-z
-y,-x,-z
-x,-y,-z
1/2+y,-x,1/2-z
1/2+x,1/2+y,-z
-y,1/2+x,1/2-z
1/2-x,y,1/2+z
x,1/2-y,1/2+z
1/2-y,1/2-x,z
y,x,z
loop_
_atom_site_type_symbol
_atom_site_label
_atom_site_fract_x
_atom_site_fract_y
_atom_site_fract_z
Si Si1 0.348493 0.654934 0.297168
Si Si2 0.033354 0.700076 0.456385
Si Si3 0.159260 0.768592 0.917324
Si Si4 0.917865 0.669733 0.103692
Si Si5 0.185071 0.531946 0.298853
Si Si6 0.819052 0.463357 0.213816
Si Si7 0.207309 0.056199 0.624112
Si Si8 0.156914 0.250581 0.268383
O O1 0.305442 0.660632 0.194822
O O2 0.333882 0.704523 0.380850
O O3 0.411298 0.660379 0.250713
O O4 0.342463 0.592189 0.342225
O O5 0.096332 0.724826 0.465197
O O6 0.022030 0.671107 0.573195
O O7 0.035091 0.664646 0.343253
O O8 0.986536 0.747380 0.431142
O O9 0.203706 0.796295 0.000000
O O10 0.881378 0.618623 0.146008
O O11 0.881842 0.725290 0.134254
O O12 0.977953 0.668514 0.159178
O O13 0.925752 0.667633 0.973957
O O14 0.251990 0.541868 0.292603
O O15 0.176879 0.478447 0.220641
O O16 0.236001 0.111360 0.674690
O O17 0.194528 0.305473 0.293822
O O18 0.201874 0.201874 0.238994
#
# Coordination Sequence:
#
# PCOD9570614 Si02
#       8
#    16  16  16  16  16  16  16  16
#     4  11  21  38  57  87 118 159 206 254 313 368
#     4  10  18  34  59  84 113 159 205 245 299 364
#     4  11  22  37  56  82 127 160 199 261 315 368
#     4  11  22  39  63  89 121 163 202 244 305 379
#     4  11  19  36  58  84 116 154 213 249 299 362
#     4  10  21  37  59  84 119 157 209 250 301 370
#     4  11  19  36  60  87 123 160 203 246 294 373
#     4  10  21  37  60  95 131 158 191 245 314 380
#
# _framework density 18.483096
#
# number of rings (size 3 to 8) (size 9 to 14) (size 15 to 20)
#    0.000    1.375    8.750    0.375    0.000    0.750 
#    0.000   10.000    0.000    3.000    0.000    0.875 
#    0.000    0.000    0.000    0.000    0.000    0.000 
#
# Total GULP energy -714034.093962 kJ/mol
# GULP energy per Si atom -5578.391359 kJ/mol
# Density = 1.844103 g / cm^3
# Si number density = 18.483096 Si / 1000 Ang^3
#
#
#
# Elastic Constant Matrix: (Units=GPa)
#
#
# Indices 1 2 3 4 5 6 
#
# 1 110.9314 45.9685 38.2045 0.0000 0.0000 0.0000
# 2 45.9685 110.9321 38.2044 0.0000 0.0000 0.0000
# 3 38.2045 38.2044 97.8841 0.0000 0.0000 0.0000
# 4 0.0000 0.0000 0.0000 17.7306 0.0000 0.0000
# 5 0.0000 0.0000 0.0000 0.0000 17.7304 0.0000
# 6 0.0000 0.0000 0.0000 0.0000 0.0000 7.5813
#
#
#
# Elastic Compliance Matrix: (Units=1/GPa)
#
#
# Indices 1 2 3 4 5 6 
#
# 1 0.011631 -0.003762 -0.003071 0.000000 0.000000 0.000000
# 2 -0.003762 0.011631 -0.003071 0.000000 0.000000 0.000000
# 3 -0.003071 -0.003071 0.012614 0.000000 0.000000 0.000000
# 4 0.000000 0.000000 0.000000 0.056400 0.000000 0.000000
# 5 0.000000 0.000000 0.000000 0.000000 0.056400 0.000000
# 6 0.000000 0.000000 0.000000 0.000000 0.000000 0.131904
#
#
# Mechanical properties :
#
#
# Convention : Reuss Voigt Hill
#
# Bulk Modulus (GPa) = 62.24088 62.72249 62.48169
# Shear Modulus (GPa) = 16.35348 21.76646 19.05997
#
# Velocity S-wave (km/s) = 2.97775 3.43540 3.21473
# Velocity P-wave (km/s) = 6.75058 7.05299 6.90344
#
# Compressibility (1/GPa) = 0.01606661
#
# Stress axis : x y z
#
# Youngs Moduli (GPa) = 85.97484 85.97557 79.27882
#
# Poissons Ratio (x) = 0.32344 0.24350
# Poissons Ratio (y) = 0.32344 0.24349
# Poissons Ratio (z) = 0.26406 0.26406
#
# Static dielectric constant tensor:
#      x y z
#    x 1.640740 0.000000 0.000000 
#    y 0.000000 1.640740 0.000000 
#    z 0.000000 0.000000 1.692680 
# 
# From -- ./inp_files/3359.got.cif
#   From: 2010.05.17/outbox.cif.g08.bks.cpg/sg138_2_cif.got.tgz:3359.got - 2010.05.20 13:08:53.
