data_PCOD9570739
_publ_section_title
;
Structure prediction by ZEFSAII (Michael W. Deem and Ramdas Pophale) SiO2 
 PCOD9570739
Probable space group: P 42/N C M
;
_chemical_formula_sum "Si O2"
_cell_formula_units_Z 72
_cell_length_a 16.236741
_cell_length_b 16.236741
_cell_length_c 17.025356
_cell_angle_alpha 90.000000
_cell_angle_beta 90.000000
_cell_angle_gamma 90.000000
_cell_volume 4488.424538
_symmetry_space_group_name_H-M "P 42/N C M"
_symmetry_group_IT_number 138
_space_group.IT_coordinate_system_code '2'
_symmetry_cell_setting 'tetragonal'
loop_
_space_group_symop_operation_xyz
x,y,z
1/2-y,x,1/2+z
1/2-x,1/2-y,z
y,1/2-x,1/2+z
1/2+x,-y,1/2-z
-x,1/2+y,1/2-z
1/2+y,1/2+x,-z
-y,-x,-z
-x,-y,-z
1/2+y,-x,1/2-z
1/2+x,1/2+y,-z
-y,1/2+x,1/2-z
1/2-x,y,1/2+z
x,1/2-y,1/2+z
1/2-y,1/2-x,z
y,x,z
loop_
_atom_site_type_symbol
_atom_site_label
_atom_site_fract_x
_atom_site_fract_y
_atom_site_fract_z
Si Si1 0.825743 0.538650 0.888526
Si Si2 0.070934 0.801366 0.536677
Si Si3 0.616530 0.116530 0.500000
Si Si4 0.001641 0.138462 0.147354
Si Si5 0.409814 0.953698 0.816312
O O1 0.874810 0.625191 0.884817
O O2 0.732850 0.531358 0.857524
O O3 0.881225 0.472953 0.840405
O O4 0.818712 0.505576 0.978128
O O5 0.144018 0.855983 0.500000
O O6 0.100497 0.707561 0.534333
O O7 0.050724 0.835215 0.622493
O O8 0.612495 0.051986 0.428454
O O9 0.951184 0.121170 0.227145
O O10 0.080791 0.080791 0.149610
O O11 0.462530 0.037471 0.827102
#
# Coordination Sequence:
#
# PCOD9570739 Si02
#       5
#    16  16   8  16  16
#     4   9  18  33  53  75  97 130 168 208 253 295
#     4   9  17  31  52  74 103 128 165 206 251 295
#     4  10  20  32  50  72 106 138 166 200 252 304
#     4  10  21  34  50  74 102 136 171 206 250 300
#     4   9  18  32  52  76 100 129 170 210 249 297
#
# _framework density 16.041263000000001
#
# number of rings (size 3 to 8) (size 9 to 14) (size 15 to 20)
#    0.000    2.667    0.000    1.333    3.111    3.111 
#    0.000    0.000    0.000    0.000    0.000    3.111 
#    0.000    0.000    0.000    0.000    0.000    0.000 
#
# Total GULP energy -401007.546844 kJ/mol
# GULP energy per Si atom -5569.549262 kJ/mol
# Density = 1.600475 g / cm^3
# Si number density = 16.041263 Si / 1000 Ang^3
#
#
#
# Elastic Constant Matrix: (Units=GPa)
#
#
# Indices 1 2 3 4 5 6 
#
# 1 82.3000 52.3510 58.3450 0.0000 0.0000 0.0000
# 2 52.3510 82.2997 58.3449 0.0000 0.0000 0.0000
# 3 58.3450 58.3449 125.6761 0.0000 0.0000 0.0000
# 4 0.0000 0.0000 0.0000 21.5165 0.0000 0.0000
# 5 0.0000 0.0000 0.0000 0.0000 21.5160 0.0000
# 6 0.0000 0.0000 0.0000 0.0000 0.0000 12.9501
#
#
#
# Elastic Compliance Matrix: (Units=1/GPa)
#
#
# Indices 1 2 3 4 5 6 
#
# 1 0.022908 -0.010482 -0.005769 0.000000 0.000000 0.000000
# 2 -0.010482 0.022908 -0.005769 0.000000 0.000000 0.000000
# 3 -0.005769 -0.005769 0.013313 0.000000 0.000000 0.000000
# 4 0.000000 0.000000 0.000000 0.046476 0.000000 0.000000
# 5 0.000000 0.000000 0.000000 0.000000 0.046477 0.000000
# 6 0.000000 0.000000 0.000000 0.000000 0.000000 0.077219
#
#
# Mechanical properties :
#
#
# Convention : Reuss Voigt Hill
#
# Bulk Modulus (GPa) = 66.26856 69.81749 68.04303
# Shear Modulus (GPa) = 17.96166 19.27884 18.62025
#
# Velocity S-wave (km/s) = 3.34985 3.47050 3.41071
# Velocity P-wave (km/s) = 7.50753 7.72511 7.61710
#
# Compressibility (1/GPa) = 0.01509011
#
# Stress axis : x y z
#
# Youngs Moduli (GPa) = 43.65290 43.65275 75.11368
#
# Poissons Ratio (x) = 0.45758 0.43331
# Poissons Ratio (y) = 0.45758 0.43331
# Poissons Ratio (z) = 0.25182 0.25182
#
# Static dielectric constant tensor:
#      x y z
#    x 1.520460 0.000000 0.000000 
#    y 0.000000 1.520460 0.000000 
#    z 0.000000 0.000000 1.530730 
# 
# From -- ./inp_files/5028.got.cif
#   From: 2010.05.17/outbox.cif.g08.bks.cpg/sg138_3_cif.got.tgz:5028.got - 2010.05.20 13:08:53.
