data_PCOD9570045
_publ_section_title
;
Structure prediction by ZEFSAII (Michael W. Deem and Ramdas Pophale) SiO2 
 PCOD9570045
Probable space group: P 42/N M C
;
_chemical_formula_sum "Si O2"
_cell_formula_units_Z 56
_cell_length_a 18.748865
_cell_length_b 18.748865
_cell_length_c 7.445350
_cell_angle_alpha 90.000000
_cell_angle_beta 90.000000
_cell_angle_gamma 90.000000
_cell_volume 2617.188976
_symmetry_space_group_name_H-M "P 42/N M C"
_symmetry_group_IT_number 137
_space_group.IT_coordinate_system_code '2'
_symmetry_cell_setting 'tetragonal'
loop_
_space_group_symop_operation_xyz
x,y,z
1/2-y,x,1/2+z
1/2-x,1/2-y,z
y,1/2-x,1/2+z
1/2+x,-y,-z
-x,1/2+y,-z
1/2+y,1/2+x,1/2-z
-y,-x,1/2-z
-x,-y,-z
1/2+y,-x,1/2-z
1/2+x,1/2+y,-z
-y,1/2+x,1/2-z
1/2-x,y,z
x,1/2-y,z
1/2-y,1/2-x,1/2+z
y,x,1/2+z
loop_
_atom_site_type_symbol
_atom_site_label
_atom_site_fract_x
_atom_site_fract_y
_atom_site_fract_z
Si Si1 0.334507 0.462649 0.358532
Si Si2 0.938765 0.332745 0.552802
Si Si3 0.566315 0.831176 0.734461
Si Si4 0.834901 0.165100 0.250000
O O1 0.250000 0.454921 0.322891
O O2 0.374928 0.391069 0.298919
O O3 0.343940 0.468891 0.571418
O O4 0.360868 0.529045 0.239240
O O5 0.918918 0.250000 0.588951
O O6 0.874534 0.361116 0.430002
O O7 0.006420 0.335170 0.418302
O O8 0.595298 0.750000 0.734239
O O9 0.750000 0.152604 0.267710
#
# Coordination Sequence:
#
# PCOD9570045 Si02
#       4
#    16  16  16   8
#     4  10  19  31  50  74 106 147 183 214 250 294
#     4   9  18  34  53  76 106 136 169 214 265 309
#     4  10  19  31  50  74 106 147 183 214 250 294
#     4   9  18  36  64  86  98 124 168 216 270 329
#
# _framework density 21.397000999999999
#
# number of rings (size 3 to 8) (size 9 to 14) (size 15 to 20)
#    0.000    2.429    2.857    0.000    0.000    0.571 
#    0.000    5.714    0.000    5.143    0.000   16.000 
#    0.000    0.000    0.000    0.000    0.000    0.000 
#
# Total GULP energy -312545.908758 kJ/mol
# GULP energy per Si atom -5581.176942 kJ/mol
# Density = 2.134830 g / cm^3
# Si number density = 21.397001 Si / 1000 Ang^3
#
#
#
# Elastic Constant Matrix: (Units=GPa)
#
#
# Indices 1 2 3 4 5 6 
#
# 1 48.5816 36.7590 6.2564 0.0000 0.0000 0.0000
# 2 36.7590 48.5836 6.2565 0.0000 0.0000 0.0000
# 3 6.2564 6.2565 91.4504 0.0000 0.0000 0.0000
# 4 0.0000 0.0000 0.0000 22.3818 0.0000 0.0000
# 5 0.0000 0.0000 0.0000 0.0000 22.3821 0.0000
# 6 0.0000 0.0000 0.0000 0.0000 0.0000 26.9775
#
#
#
# Elastic Compliance Matrix: (Units=1/GPa)
#
#
# Indices 1 2 3 4 5 6 
#
# 1 0.048207 -0.036370 -0.000810 0.000000 0.000000 0.000000
# 2 -0.036370 0.048206 -0.000810 0.000000 0.000000 0.000000
# 3 -0.000810 -0.000810 0.011046 0.000000 0.000000 0.000000
# 4 0.000000 0.000000 0.000000 0.044679 0.000000 0.000000
# 5 0.000000 0.000000 0.000000 0.000000 0.044678 0.000000
# 6 0.000000 0.000000 0.000000 0.000000 0.000000 0.037068
#
#
# Mechanical properties :
#
#
# Convention : Reuss Voigt Hill
#
# Bulk Modulus (GPa) = 31.76690 31.90660 31.83675
# Shear Modulus (GPa) = 15.60760 23.63787 19.62274
#
# Velocity S-wave (km/s) = 2.70373 3.32735 3.03162
# Velocity P-wave (km/s) = 4.96241 5.45030 5.21207
#
# Compressibility (1/GPa) = 0.03147931
#
# Stress axis : x y z
#
# Youngs Moduli (GPa) = 20.74368 20.74451 90.53312
#
# Poissons Ratio (x) = 0.75448 0.07331
# Poissons Ratio (y) = 0.75445 0.07331
# Poissons Ratio (z) = 0.01680 0.01680
#
# Static dielectric constant tensor:
#      x y z
#    x 1.766950 0.000000 0.000000 
#    y 0.000000 1.766940 0.000000 
#    z 0.000000 0.000000 1.799390 
# 
# From -- ./inp_files/1500.got.cif
#   From: 2010.05.17/outbox.cif.g08.bks.cpg/sg137_1_cif.got.tgz:1500.got - 2010.05.20 13:01:12.
