data_PCOD9570988
_publ_section_title
;
Structure prediction by ZEFSAII (Michael W. Deem and Ramdas Pophale) SiO2 
 PCOD9570988
Probable space group: P 42/N C M
;
_chemical_formula_sum "Si O2"
_cell_formula_units_Z 88
_cell_length_a 11.282284
_cell_length_b 11.282284
_cell_length_c 34.634623
_cell_angle_alpha 90.000000
_cell_angle_beta 90.000000
_cell_angle_gamma 90.000000
_cell_volume 4408.638815
_symmetry_space_group_name_H-M "P 42/N C M"
_symmetry_group_IT_number 138
_space_group.IT_coordinate_system_code '2'
_symmetry_cell_setting 'tetragonal'
loop_
_space_group_symop_operation_xyz
x,y,z
1/2-y,x,1/2+z
1/2-x,1/2-y,z
y,1/2-x,1/2+z
1/2+x,-y,1/2-z
-x,1/2+y,1/2-z
1/2+y,1/2+x,-z
-y,-x,-z
-x,-y,-z
1/2+y,-x,1/2-z
1/2+x,1/2+y,-z
-y,1/2+x,1/2-z
1/2-x,y,1/2+z
x,1/2-y,1/2+z
1/2-y,1/2-x,z
y,x,z
loop_
_atom_site_type_symbol
_atom_site_label
_atom_site_fract_x
_atom_site_fract_y
_atom_site_fract_z
Si Si1 0.849775 0.650226 0.524467
Si Si2 0.788244 0.385545 0.399186
Si Si3 0.851058 0.648943 0.690632
Si Si4 0.515361 0.312343 0.521567
Si Si5 0.248113 0.056946 0.167546
Si Si6 0.947349 0.272434 0.250823
Si Si7 0.431664 0.431664 0.894099
O O1 0.750000 0.750000 0.519734
O O2 0.796733 0.535087 0.503455
O O3 0.870309 0.629692 0.569368
O O4 0.750000 0.250000 0.401002
O O5 0.733213 0.450825 0.436222
O O6 0.742194 0.444238 0.359707
O O7 0.929242 0.403724 0.398365
O O8 0.750000 0.750000 0.691468
O O9 0.804302 0.533213 0.713764
O O10 0.885381 0.614620 0.647087
O O11 0.625314 0.374687 0.500000
O O12 0.412604 0.412604 0.524452
O O13 0.349516 0.150485 0.157207
O O14 0.123031 0.123031 0.161177
O O15 0.260250 0.024154 0.212174
O O16 0.875158 0.150236 0.255601
#
# Coordination Sequence:
#
# PCOD9570988 Si02
#       7
#     8  16   8  16  16  16   8
#     4  10  22  41  68  94 132 180 227 275 339 409
#     4  12  26  42  67  99 138 177 227 288 352 409
#     4  12  27  47  73 100 139 183 231 283 354 421
#     4  10  22  43  68  98 133 180 233 285 345 415
#     4  11  24  44  68  96 130 174 230 284 340 403
#     4  11  26  45  72 102 135 176 225 284 347 416
#     4  12  26  44  64 101 142 180 230 286 347 426
#
# _framework density 19.960811
#
# number of rings (size 3 to 8) (size 9 to 14) (size 15 to 20)
#    0.000    0.909    1.818    4.091    7.636    3.273 
#    0.000    1.818    0.000    0.000    0.000    0.000 
#    0.000    0.000    0.000    0.000    0.000    0.000 
#
# Total GULP energy -492410.872162 kJ/mol
# GULP energy per Si atom -5595.578093 kJ/mol
# Density = 1.991538 g / cm^3
# Si number density = 19.960811 Si / 1000 Ang^3
#
#
#
# Elastic Constant Matrix: (Units=GPa)
#
#
# Indices 1 2 3 4 5 6 
#
# 1 89.0980 63.8019 38.7812 0.0000 0.0000 0.0000
# 2 63.8019 89.0985 38.7816 0.0000 0.0000 0.0000
# 3 38.7812 38.7816 137.3917 0.0000 0.0000 0.0000
# 4 0.0000 0.0000 0.0000 3.8610 0.0000 0.0000
# 5 0.0000 0.0000 0.0000 0.0000 3.8893 0.0000
# 6 0.0000 0.0000 0.0000 0.0000 0.0000 25.7500
#
#
#
# Elastic Compliance Matrix: (Units=1/GPa)
#
#
# Indices 1 2 3 4 5 6 
#
# 1 0.023582 -0.015949 -0.002155 0.000000 0.000000 0.000000
# 2 -0.015949 0.023582 -0.002155 0.000000 0.000000 0.000000
# 3 -0.002155 -0.002155 0.008495 0.000000 0.000000 0.000000
# 4 0.000000 0.000000 0.000000 0.259003 0.000000 0.000000
# 5 0.000000 0.000000 0.000000 0.000000 0.257118 0.000000
# 6 0.000000 0.000000 0.000000 0.000000 0.000000 0.038835
#
#
# Mechanical properties :
#
#
# Convention : Reuss Voigt Hill
#
# Bulk Modulus (GPa) = 66.03814 66.47974 66.25894
# Shear Modulus (GPa) = 7.61987 18.31495 12.96741
#
# Velocity S-wave (km/s) = 1.95594 3.03239 2.55158
# Velocity P-wave (km/s) = 6.18520 6.75559 6.47667
#
# Compressibility (1/GPa) = 0.01514277
#
# Stress axis : x y z
#
# Youngs Moduli (GPa) = 42.40473 42.40485 117.71873
#
# Poissons Ratio (x) = 0.67632 0.25363
# Poissons Ratio (y) = 0.67631 0.25365
# Poissons Ratio (z) = 0.09136 0.09137
#
# Static dielectric constant tensor:
#      x y z
#    x 1.220780 0.000000 0.000000 
#    y 0.000000 1.218450 0.000000 
#    z 0.000000 0.000000 1.650710 
# 
# From -- ./inp_files/8128.got.cif
#   From: 2010.05.17/outbox.cif.g08.bks.cpg/sg138_5_cif.got.tgz:8128.got - 2010.05.20 13:08:53.
