data_PCOD9570591
_publ_section_title
;
Structure prediction by ZEFSAII (Michael W. Deem and Ramdas Pophale) SiO2 
 PCOD9570591
Probable space group: P 42/N C M
;
_chemical_formula_sum "Si O2"
_cell_formula_units_Z 112
_cell_length_a 16.844751
_cell_length_b 16.844751
_cell_length_c 23.891008
_cell_angle_alpha 90.000000
_cell_angle_beta 90.000000
_cell_angle_gamma 90.000000
_cell_volume 6778.969266
_symmetry_space_group_name_H-M "P 42/N C M"
_symmetry_group_IT_number 138
_space_group.IT_coordinate_system_code '2'
_symmetry_cell_setting 'tetragonal'
loop_
_space_group_symop_operation_xyz
x,y,z
1/2-y,x,1/2+z
1/2-x,1/2-y,z
y,1/2-x,1/2+z
1/2+x,-y,1/2-z
-x,1/2+y,1/2-z
1/2+y,1/2+x,-z
-y,-x,-z
-x,-y,-z
1/2+y,-x,1/2-z
1/2+x,1/2+y,-z
-y,1/2+x,1/2-z
1/2-x,y,1/2+z
x,1/2-y,1/2+z
1/2-y,1/2-x,z
y,x,z
loop_
_atom_site_type_symbol
_atom_site_label
_atom_site_fract_x
_atom_site_fract_y
_atom_site_fract_z
Si Si1 0.348857 0.480138 0.967161
Si Si2 0.248529 0.379258 0.384318
Si Si3 0.080580 0.555833 0.239436
Si Si4 0.826186 0.959043 0.908059
Si Si5 0.809465 0.555832 0.822513
Si Si6 0.951961 0.816376 0.723163
Si Si7 0.081826 0.949304 0.863112
O O1 0.431310 0.431310 0.974353
O O2 0.285121 0.422215 0.938612
O O3 0.365523 0.545427 0.919238
O O4 0.322859 0.497377 0.030109
O O5 0.177805 0.322196 0.362543
O O6 0.322205 0.322205 0.397236
O O7 0.273509 0.439544 0.336108
O O8 0.140764 0.523399 0.192961
O O9 0.119022 0.558202 0.301575
O O10 0.010946 0.489055 0.242440
O O11 0.035464 0.637886 0.227549
O O12 0.876563 0.876563 0.911407
O O13 0.741678 0.947718 0.879037
O O14 0.879312 0.018057 0.870443
O O15 0.870931 0.629070 0.822519
O O16 0.745796 0.562910 0.772511
O O17 0.883368 0.883368 0.727042
O O18 0.031511 0.031511 0.862784
#
# Coordination Sequence:
#
# PCOD9570591 Si02
#       7
#    16  16  16  16  16  16  16
#     4   9  17  28  45  69  98 132 167 200 241 290
#     4   9  17  28  44  69  97 124 159 200 242 297
#     4   9  18  31  48  70  99 131 164 206 249 295
#     4  10  19  30  45  70 102 132 161 200 248 302
#     4  11  21  31  47  73 102 132 164 201 255 315
#     4  10  18  31  49  70  98 130 165 205 253 303
#     4   9  15  28  47  68  94 126 168 207 239 285
#
# _framework density 16.521685999999999
#
# number of rings (size 3 to 8) (size 9 to 14) (size 15 to 20)
#    0.000    2.429    1.429    2.143    0.000    6.286 
#    0.000    1.429    0.000    1.286    0.000    4.000 
#    0.000    2.571    0.000    0.000    0.000    0.000 
#
# Total GULP energy -623800.519260 kJ/mol
# GULP energy per Si atom -5569.647493 kJ/mol
# Density = 1.648408 g / cm^3
# Si number density = 16.521686 Si / 1000 Ang^3
#
#
#
# Elastic Constant Matrix: (Units=GPa)
#
#
# Indices 1 2 3 4 5 6 
#
# 1 40.4036 29.3566 22.4212 0.0000 0.0000 0.0000
# 2 29.3566 40.4036 22.4212 0.0000 0.0000 0.0000
# 3 22.4212 22.4212 67.1583 0.0000 0.0000 0.0000
# 4 0.0000 0.0000 0.0000 19.4902 0.0000 0.0000
# 5 0.0000 0.0000 0.0000 0.0000 19.4902 0.0000
# 6 0.0000 0.0000 0.0000 0.0000 0.0000 18.6748
#
#
#
# Elastic Compliance Matrix: (Units=1/GPa)
#
#
# Indices 1 2 3 4 5 6 
#
# 1 0.054387 -0.036135 -0.006093 0.000000 0.000000 0.000000
# 2 -0.036135 0.054387 -0.006093 0.000000 0.000000 0.000000
# 3 -0.006093 -0.006093 0.018959 0.000000 0.000000 0.000000
# 4 0.000000 0.000000 0.000000 0.051308 0.000000 0.000000
# 5 0.000000 0.000000 0.000000 0.000000 0.051308 0.000000
# 6 0.000000 0.000000 0.000000 0.000000 0.000000 0.053548
#
#
# Mechanical properties :
#
#
# Convention : Reuss Voigt Hill
#
# Bulk Modulus (GPa) = 32.16621 32.92928 32.54775
# Shear Modulus (GPa) = 12.79086 16.44882 14.61984
#
# Velocity S-wave (km/s) = 2.78544 3.15872 2.97793
# Velocity P-wave (km/s) = 5.46409 5.76867 5.61844
#
# Compressibility (1/GPa) = 0.03108852
#
# Stress axis : x y z
#
# Youngs Moduli (GPa) = 18.38670 18.38670 52.74585
#
# Poissons Ratio (x) = 0.66441 0.32140
# Poissons Ratio (y) = 0.66441 0.32140
# Poissons Ratio (z) = 0.11204 0.11204
#
# Static dielectric constant tensor:
#      x y z
#    x 1.560950 0.000000 0.000000 
#    y 0.000000 1.560950 0.000000 
#    z 0.000000 0.000000 1.575770 
# 
# From -- ./inp_files/6475.got.cif
#   From: 2010.05.17/outbox.cif.g08.bks.cpg/sg138_4_cif.got.tgz:6475.got - 2010.05.20 13:08:53.
