data_PCOD9570350
_publ_section_title
;
Structure prediction by ZEFSAII (Michael W. Deem and Ramdas Pophale) SiO2 
 PCOD9570350
Probable space group: P 42/N M C
;
_chemical_formula_sum "Si O2"
_cell_formula_units_Z 96
_cell_length_a 19.778543
_cell_length_b 19.778543
_cell_length_c 12.507416
_cell_angle_alpha 90.000000
_cell_angle_beta 90.000000
_cell_angle_gamma 90.000000
_cell_volume 4892.785611
_symmetry_space_group_name_H-M "P 42/N M C"
_symmetry_group_IT_number 137
_space_group.IT_coordinate_system_code '2'
_symmetry_cell_setting 'tetragonal'
loop_
_space_group_symop_operation_xyz
x,y,z
1/2-y,x,1/2+z
1/2-x,1/2-y,z
y,1/2-x,1/2+z
1/2+x,-y,-z
-x,1/2+y,-z
1/2+y,1/2+x,1/2-z
-y,-x,1/2-z
-x,-y,-z
1/2+y,-x,1/2-z
1/2+x,1/2+y,-z
-y,1/2+x,1/2-z
1/2-x,y,z
x,1/2-y,z
1/2-y,1/2-x,1/2+z
y,x,1/2+z
loop_
_atom_site_type_symbol
_atom_site_label
_atom_site_fract_x
_atom_site_fract_y
_atom_site_fract_z
Si Si1 0.670748 0.541456 0.236370
Si Si2 0.457935 0.592443 0.915138
Si Si3 0.545352 0.037109 0.873462
Si Si4 0.327306 0.172444 0.136639
Si Si5 0.826453 0.172938 0.121318
Si Si6 0.036498 0.170358 0.512015
O O1 0.750000 0.528249 0.243905
O O2 0.637209 0.495572 0.326763
O O3 0.657764 0.618639 0.271137
O O4 0.653674 0.530382 0.113141
O O5 0.485930 0.518632 0.882780
O O6 0.380792 0.617203 0.909787
O O7 0.474786 0.595339 0.041802
O O8 0.554758 0.054758 0.750000
O O9 0.614812 0.004336 0.919580
O O10 0.250000 0.168457 0.175028
O O11 0.338795 0.250000 0.099380
O O12 0.335823 0.115019 0.047420
O O13 0.825582 0.174419 0.250000
O O14 0.750000 0.157442 0.085122
O O15 0.843800 0.250000 0.086224
O O16 0.017658 0.250000 0.528651
#
# Coordination Sequence:
#
# PCOD9570350 Si02
#       6
#    16  16  16  16  16  16
#     4  10  21  36  60  91 120 154 204 257 312 369
#     4  11  23  37  61  87 122 159 199 253 307 367
#     4  11  26  41  58  86 124 165 208 249 300 374
#     4   9  18  34  56  84 122 164 203 248 304 368
#     4   9  19  36  60  91 121 149 191 253 318 368
#     4  10  22  40  61  87 121 160 204 252 308 374
#
# _framework density 19.620725
#
# number of rings (size 3 to 8) (size 9 to 14) (size 15 to 20)
#    0.000    2.000    1.667    1.500    7.000    1.333 
#    0.000    5.000    0.000    0.000    0.000    1.167 
#    0.000    0.000    0.000    0.000    0.000    0.000 
#
# Total GULP energy -535407.308604 kJ/mol
# GULP energy per Si atom -5577.159465 kJ/mol
# Density = 1.957607 g / cm^3
# Si number density = 19.620725 Si / 1000 Ang^3
#
#
#
# Elastic Constant Matrix: (Units=GPa)
#
#
# Indices 1 2 3 4 5 6 
#
# 1 104.7590 71.8826 64.0631 0.0000 0.0000 0.0000
# 2 71.8826 104.7590 64.0631 0.0000 0.0000 0.0000
# 3 64.0631 64.0631 162.1153 0.0000 0.0000 0.0000
# 4 0.0000 0.0000 0.0000 30.1177 0.0000 0.0000
# 5 0.0000 0.0000 0.0000 0.0000 30.1176 0.0000
# 6 0.0000 0.0000 0.0000 0.0000 0.0000 26.3151
#
#
#
# Elastic Compliance Matrix: (Units=1/GPa)
#
#
# Indices 1 2 3 4 5 6 
#
# 1 0.019176 -0.011241 -0.003136 0.000000 0.000000 0.000000
# 2 -0.011241 0.019176 -0.003136 0.000000 0.000000 0.000000
# 3 -0.003136 -0.003136 0.008647 0.000000 0.000000 0.000000
# 4 0.000000 0.000000 0.000000 0.033203 0.000000 0.000000
# 5 0.000000 0.000000 0.000000 0.000000 0.033203 0.000000
# 6 0.000000 0.000000 0.000000 0.000000 0.000000 0.038001
#
#
# Mechanical properties :
#
#
# Convention : Reuss Voigt Hill
#
# Bulk Modulus (GPa) = 83.50978 85.73900 84.62439
# Shear Modulus (GPa) = 26.25724 28.75172 27.50448
#
# Velocity S-wave (km/s) = 3.66216 3.83217 3.74813
# Velocity P-wave (km/s) = 7.78051 7.96077 7.87115
#
# Compressibility (1/GPa) = 0.01197465
#
# Stress axis : x y z
#
# Youngs Moduli (GPa) = 52.14739 52.14741 115.64741
#
# Poissons Ratio (x) = 0.58616 0.36267
# Poissons Ratio (y) = 0.58616 0.36267
# Poissons Ratio (z) = 0.16354 0.16354
#
# Static dielectric constant tensor:
#      x y z
#    x 1.736610 0.000000 0.000000 
#    y 0.000000 1.736610 0.000000 
#    z 0.000000 0.000000 1.674930 
# 
# From -- ./inp_files/3782.got.cif
#   From: 2010.05.17/outbox.cif.g08.bks.cpg/sg137_2_cif.got.tgz:3782.got - 2010.05.20 13:01:12.
