data_PCOD9570459
_publ_section_title
;
Structure prediction by ZEFSAII (Michael W. Deem and Ramdas Pophale) SiO2 
 PCOD9570459
Probable space group: P 42/N M C
;
_chemical_formula_sum "Si O2"
_cell_formula_units_Z 96
_cell_length_a 22.203685
_cell_length_b 22.203685
_cell_length_c 9.399425
_cell_angle_alpha 90.000000
_cell_angle_beta 90.000000
_cell_angle_gamma 90.000000
_cell_volume 4633.950622
_symmetry_space_group_name_H-M "P 42/N M C"
_symmetry_group_IT_number 137
_space_group.IT_coordinate_system_code '2'
_symmetry_cell_setting 'tetragonal'
loop_
_space_group_symop_operation_xyz
x,y,z
1/2-y,x,1/2+z
1/2-x,1/2-y,z
y,1/2-x,1/2+z
1/2+x,-y,-z
-x,1/2+y,-z
1/2+y,1/2+x,1/2-z
-y,-x,1/2-z
-x,-y,-z
1/2+y,-x,1/2-z
1/2+x,1/2+y,-z
-y,1/2+x,1/2-z
1/2-x,y,z
x,1/2-y,z
1/2-y,1/2-x,1/2+z
y,x,1/2+z
loop_
_atom_site_type_symbol
_atom_site_label
_atom_site_fract_x
_atom_site_fract_y
_atom_site_fract_z
Si Si1 0.109253 0.016418 0.472348
Si Si2 0.320399 0.546085 0.690322
Si Si3 0.681485 0.022148 0.809072
Si Si4 0.679956 0.816936 0.725297
Si Si5 0.110881 0.914222 0.967199
Si Si6 0.651500 0.907221 0.974666
O O1 0.142618 0.001490 0.324312
O O2 0.081972 0.082266 0.480367
O O3 0.158740 0.011796 0.599744
O O4 0.066823 0.958715 0.504498
O O5 0.250000 0.548216 0.715067
O O6 0.345870 0.599751 0.588200
O O7 0.357750 0.552285 0.835540
O O8 0.750000 0.034787 0.765909
O O9 0.680779 0.969611 0.928126
O O10 0.648901 0.076685 0.890890
O O11 0.750000 0.829331 0.683262
O O12 0.679233 0.750000 0.789103
O O13 0.658285 0.866157 0.835752
O O14 0.633239 0.819067 0.596312
#
# Coordination Sequence:
#
# PCOD9570459 Si02
#       6
#    16  16  16  16  16  16
#     4  10  23  42  61  95 131 169 214 265 326 388
#     4   9  19  39  67  97 127 164 211 259 318 391
#     4  12  24  41  66  96 128 170 224 271 322 396
#     4  11  24  42  61  85 124 169 218 276 332 383
#     4   9  22  40  63  99 129 171 207 263 329 382
#     4  12  25  40  63  93 126 170 218 275 323 390
#
# _framework density 20.716664999999999
#
# number of rings (size 3 to 8) (size 9 to 14) (size 15 to 20)
#    1.000    0.500    1.667    3.500    2.333    4.000 
#    0.000    0.000    0.000    8.500    0.000    0.000 
#    0.000    0.000    0.000    0.000    0.000    0.000 
#
# Total GULP energy -535318.465780 kJ/mol
# GULP energy per Si atom -5576.234019 kJ/mol
# Density = 2.066951 g / cm^3
# Si number density = 20.716665 Si / 1000 Ang^3
#
#
#
# Elastic Constant Matrix: (Units=GPa)
#
#
# Indices 1 2 3 4 5 6 
#
# 1 75.6976 27.6966 16.7337 0.0000 0.0000 0.0000
# 2 27.6966 75.6976 16.7337 0.0000 0.0000 0.0000
# 3 16.7337 16.7337 51.0904 0.0000 0.0000 0.0000
# 4 0.0000 0.0000 0.0000 144.1755 0.0000 0.0000
# 5 0.0000 0.0000 0.0000 0.0000 144.1755 0.0000
# 6 0.0000 0.0000 0.0000 0.0000 0.0000 27.5032
#
#
#
# Elastic Compliance Matrix: (Units=1/GPa)
#
#
# Indices 1 2 3 4 5 6 
#
# 1 0.015826 -0.005007 -0.003543 0.000000 0.000000 0.000000
# 2 -0.005007 0.015826 -0.003543 0.000000 0.000000 0.000000
# 3 -0.003543 -0.003543 0.021894 0.000000 0.000000 0.000000
# 4 0.000000 0.000000 0.000000 0.006936 0.000000 0.000000
# 5 0.000000 0.000000 0.000000 0.000000 0.006936 0.000000
# 6 0.000000 0.000000 0.000000 0.000000 0.000000 0.036359
#
#
# Mechanical properties :
#
#
# Convention : Reuss Voigt Hill
#
# Bulk Modulus (GPa) = 34.06241 36.09042 35.07642
# Shear Modulus (GPa) = 36.29731 72.59230 54.44481
#
# Velocity S-wave (km/s) = 4.19033 5.92593 5.13203
# Velocity P-wave (km/s) = 6.31582 8.01754 7.21701
#
# Compressibility (1/GPa) = 0.02935787
#
# Stress axis : x y z
#
# Youngs Moduli (GPa) = 63.18801 63.18801 45.67387
#
# Poissons Ratio (x) = 0.31639 0.16184
# Poissons Ratio (y) = 0.31639 0.16184
# Poissons Ratio (z) = 0.22390 0.22390
#
# Static dielectric constant tensor:
#      x y z
#    x 1.734970 0.000000 0.000000 
#    y 0.000000 1.734970 0.000000 
#    z 0.000000 0.000000 1.771350 
# 
# From -- ./inp_files/2139.got.cif
#   From: 2010.05.17/outbox.cif.g08.bks.cpg/sg137_2_cif.got.tgz:2139.got - 2010.05.20 13:01:12.
