data_PCOD9570323
_publ_section_title
;
Structure prediction by ZEFSAII (Michael W. Deem and Ramdas Pophale) SiO2 
 PCOD9570323
Probable space group: P 42/N M C
;
_chemical_formula_sum "Si O2"
_cell_formula_units_Z 80
_cell_length_a 14.263739
_cell_length_b 14.263739
_cell_length_c 20.331447
_cell_angle_alpha 90.000000
_cell_angle_beta 90.000000
_cell_angle_gamma 90.000000
_cell_volume 4136.519306
_symmetry_space_group_name_H-M "P 42/N M C"
_symmetry_group_IT_number 137
_space_group.IT_coordinate_system_code '2'
_symmetry_cell_setting 'tetragonal'
loop_
_space_group_symop_operation_xyz
x,y,z
1/2-y,x,1/2+z
1/2-x,1/2-y,z
y,1/2-x,1/2+z
1/2+x,-y,-z
-x,1/2+y,-z
1/2+y,1/2+x,1/2-z
-y,-x,1/2-z
-x,-y,-z
1/2+y,-x,1/2-z
1/2+x,1/2+y,-z
-y,1/2+x,1/2-z
1/2-x,y,z
x,1/2-y,z
1/2-y,1/2-x,1/2+z
y,x,1/2+z
loop_
_atom_site_type_symbol
_atom_site_label
_atom_site_fract_x
_atom_site_fract_y
_atom_site_fract_z
Si Si1 0.859858 0.138204 0.932388
Si Si2 0.356826 0.063467 0.885183
Si Si3 0.953434 0.522180 0.858445
Si Si4 0.639591 0.958032 0.486409
Si Si5 0.642870 0.855868 0.754856
O O1 0.750000 0.116079 0.944978
O O2 0.866398 0.250000 0.919818
O O3 0.934100 0.117277 0.991334
O O4 0.901689 0.076579 0.872729
O O5 0.250000 0.030251 0.891878
O O6 0.393956 0.108902 0.952267
O O7 0.360497 0.134999 0.823857
O O8 0.434868 0.988642 0.863861
O O9 0.920301 0.569374 0.791851
O O10 0.927616 0.586451 0.921034
O O11 0.750000 0.951541 0.476668
O O12 0.750000 0.870186 0.775117
O O13 0.613914 0.750000 0.773634
#
# Coordination Sequence:
#
# PCOD9570323 Si02
#       5
#    16  16  16  16  16
#     4   9  18  33  52  75 106 141 174 213 267 331
#     4  10  21  37  56  78 109 150 188 220 265 327
#     4  11  21  35  56  83 111 139 179 230 277 318
#     4  10  21  35  54  81 109 138 178 227 272 319
#     4  10  21  37  57  81 110 144 181 225 278 329
#
# _framework density 19.339931
#
# number of rings (size 3 to 8) (size 9 to 14) (size 15 to 20)
#    0.000    2.000    0.000    4.800    0.000    6.000 
#    0.000    0.000    0.000    3.000    0.000   16.800 
#    0.000    0.000    0.000    0.000    0.000    0.000 
#
# Total GULP energy -446393.381840 kJ/mol
# GULP energy per Si atom -5579.917273 kJ/mol
# Density = 1.929591 g / cm^3
# Si number density = 19.339931 Si / 1000 Ang^3
#
#
#
# Elastic Constant Matrix: (Units=GPa)
#
#
# Indices 1 2 3 4 5 6 
#
# 1 71.4823 17.0398 24.6888 0.0000 0.0000 0.0000
# 2 17.0398 71.4823 24.6888 0.0000 0.0000 0.0000
# 3 24.6888 24.6888 62.0930 0.0000 0.0000 0.0000
# 4 0.0000 0.0000 0.0000 18.2460 0.0000 0.0000
# 5 0.0000 0.0000 0.0000 0.0000 18.2460 0.0000
# 6 0.0000 0.0000 0.0000 0.0000 0.0000 24.2586
#
#
#
# Elastic Compliance Matrix: (Units=1/GPa)
#
#
# Indices 1 2 3 4 5 6 
#
# 1 0.016442 -0.001926 -0.005772 0.000000 0.000000 0.000000
# 2 -0.001926 0.016442 -0.005772 0.000000 0.000000 0.000000
# 3 -0.005772 -0.005772 0.020695 0.000000 0.000000 0.000000
# 4 0.000000 0.000000 0.000000 0.054807 0.000000 0.000000
# 5 0.000000 0.000000 0.000000 0.000000 0.054807 0.000000
# 6 0.000000 0.000000 0.000000 0.000000 0.000000 0.041222
#
#
# Mechanical properties :
#
#
# Convention : Reuss Voigt Hill
#
# Bulk Modulus (GPa) = 37.53768 37.54359 37.54064
# Shear Modulus (GPa) = 20.81312 21.39281 21.10297
#
# Velocity S-wave (km/s) = 3.28407 3.32949 3.30686
# Velocity P-wave (km/s) = 5.81650 5.85109 5.83382
#
# Compressibility (1/GPa) = 0.02663990
#
# Stress axis : x y z
#
# Youngs Moduli (GPa) = 60.81968 60.81968 48.32158
#
# Poissons Ratio (x) = 0.11714 0.27890
# Poissons Ratio (y) = 0.11714 0.27890
# Poissons Ratio (z) = 0.35104 0.35104
#
# Static dielectric constant tensor:
#      x y z
#    x 1.686090 0.000000 0.000000 
#    y 0.000000 1.686090 0.000000 
#    z 0.000000 0.000000 1.663970 
# 
# From -- ./inp_files/7579.got.cif
#   From: 2010.05.17/outbox.cif.g08.bks.cpg/sg137_4_cif.got.tgz:7579.got - 2010.05.20 13:01:12.
