data_PCOD9570612
_publ_section_title
;
Structure prediction by ZEFSAII (Michael W. Deem and Ramdas Pophale) SiO2 
 PCOD9570612
Probable space group: P 42/N C M
;
_chemical_formula_sum "Si O2"
_cell_formula_units_Z 96
_cell_length_a 16.312010
_cell_length_b 16.312010
_cell_length_c 19.841290
_cell_angle_alpha 90.000000
_cell_angle_beta 90.000000
_cell_angle_gamma 90.000000
_cell_volume 5279.403583
_symmetry_space_group_name_H-M "P 42/N C M"
_symmetry_group_IT_number 138
_space_group.IT_coordinate_system_code '2'
_symmetry_cell_setting 'tetragonal'
loop_
_space_group_symop_operation_xyz
x,y,z
1/2-y,x,1/2+z
1/2-x,1/2-y,z
y,1/2-x,1/2+z
1/2+x,-y,1/2-z
-x,1/2+y,1/2-z
1/2+y,1/2+x,-z
-y,-x,-z
-x,-y,-z
1/2+y,-x,1/2-z
1/2+x,1/2+y,-z
-y,1/2+x,1/2-z
1/2-x,y,1/2+z
x,1/2-y,1/2+z
1/2-y,1/2-x,z
y,x,z
loop_
_atom_site_type_symbol
_atom_site_label
_atom_site_fract_x
_atom_site_fract_y
_atom_site_fract_z
Si Si1 0.028103 0.748019 0.371339
Si Si2 0.623934 0.140538 0.312411
Si Si3 0.688241 0.948392 0.733581
Si Si4 0.887376 0.749990 0.481874
Si Si5 0.137174 0.822394 0.655519
Si Si6 0.683217 0.949419 0.122040
O O1 0.064017 0.658800 0.353055
O O2 0.109980 0.804204 0.377856
O O3 0.980940 0.782476 0.305801
O O4 0.964798 0.748360 0.432276
O O5 0.526531 0.147869 0.304521
O O6 0.658365 0.135235 0.235988
O O7 0.655836 0.225344 0.345700
O O8 0.624465 0.875536 0.740128
O O9 0.765922 0.924896 0.688352
O O10 0.831490 0.668511 0.477956
O O11 0.826057 0.826057 0.465595
O O12 0.920618 0.765620 0.557136
O O13 0.046332 0.830726 0.625550
O O14 0.597883 0.902118 0.120376
#
# Coordination Sequence:
#
# PCOD9570612 Si02
#       6
#    16  16  16  16  16  16
#     4  11  21  35  59  88 116 154 194 239 300 350
#     4  10  18  34  57  86 118 151 180 233 295 346
#     4  10  21  35  55  87 117 146 195 249 289 343
#     4  10  23  42  59  79 117 163 201 245 300 347
#     4  10  19  34  60  90 117 148 189 239 291 350
#     4  10  21  39  61  83 111 154 201 241 294 354
#
# _framework density 18.183872000000001
#
# number of rings (size 3 to 8) (size 9 to 14) (size 15 to 20)
#    0.000    1.833    5.000    1.500    0.000    6.333 
#    0.000    5.000    0.000    9.000    0.000    0.000 
#    0.000    0.000    0.000    0.000    0.000    0.000 
#
# Total GULP energy -535563.652656 kJ/mol
# GULP energy per Si atom -5578.788049 kJ/mol
# Density = 1.814248 g / cm^3
# Si number density = 18.183872 Si / 1000 Ang^3
#
#
#
# Elastic Constant Matrix: (Units=GPa)
#
#
# Indices 1 2 3 4 5 6 
#
# 1 74.3692 30.1881 33.5560 0.0000 0.0000 0.0000
# 2 30.1881 74.3692 33.5560 0.0000 0.0000 0.0000
# 3 33.5560 33.5560 38.6871 0.0000 0.0000 0.0000
# 4 0.0000 0.0000 0.0000 29.1344 0.0000 0.0000
# 5 0.0000 0.0000 0.0000 0.0000 29.1344 0.0000
# 6 0.0000 0.0000 0.0000 0.0000 0.0000 20.9799
#
#
#
# Elastic Compliance Matrix: (Units=1/GPa)
#
#
# Indices 1 2 3 4 5 6 
#
# 1 0.022105 -0.000529 -0.018715 0.000000 0.000000 0.000000
# 2 -0.000529 0.022105 -0.018715 0.000000 0.000000 0.000000
# 3 -0.018715 -0.018715 0.058314 0.000000 0.000000 0.000000
# 4 0.000000 0.000000 0.000000 0.034324 0.000000 0.000000
# 5 0.000000 0.000000 0.000000 0.000000 0.034324 0.000000
# 6 0.000000 0.000000 0.000000 0.000000 0.000000 0.047665
#
#
# Mechanical properties :
#
#
# Convention : Reuss Voigt Hill
#
# Bulk Modulus (GPa) = 37.58337 42.44729 40.01533
# Shear Modulus (GPa) = 16.46784 21.85812 19.16298
#
# Velocity S-wave (km/s) = 3.01263 3.47084 3.24982
# Velocity P-wave (km/s) = 5.72841 6.28143 6.01128
#
# Compressibility (1/GPa) = 0.02660751
#
# Stress axis : x y z
#
# Youngs Moduli (GPa) = 45.23795 45.23795 17.14866
#
# Poissons Ratio (x) = 0.02392 0.32093
# Poissons Ratio (y) = 0.02392 0.32093
# Poissons Ratio (z) = 0.84662 0.84662
#
# Static dielectric constant tensor:
#      x y z
#    x 1.629300 0.000000 0.000000 
#    y 0.000000 1.629300 0.000000 
#    z 0.000000 0.000000 1.601650 
# 
# From -- ./inp_files/6269.got.cif
#   From: 2010.05.17/outbox.cif.g08.bks.cpg/sg138_4_cif.got.tgz:6269.got - 2010.05.20 13:08:53.
