data_PCOD9570491
_publ_section_title
;
Structure prediction by ZEFSAII (Michael W. Deem and Ramdas Pophale) SiO2 
 PCOD9570491
Probable space group: P 42/N M C
;
_chemical_formula_sum "Si O2"
_cell_formula_units_Z 72
_cell_length_a 25.348840
_cell_length_b 25.348840
_cell_length_c 5.902839
_cell_angle_alpha 90.000000
_cell_angle_beta 90.000000
_cell_angle_gamma 90.000000
_cell_volume 3792.950005
_symmetry_space_group_name_H-M "P 42/N M C"
_symmetry_group_IT_number 137
_space_group.IT_coordinate_system_code '2'
_symmetry_cell_setting 'tetragonal'
loop_
_space_group_symop_operation_xyz
x,y,z
1/2-y,x,1/2+z
1/2-x,1/2-y,z
y,1/2-x,1/2+z
1/2+x,-y,-z
-x,1/2+y,-z
1/2+y,1/2+x,1/2-z
-y,-x,1/2-z
-x,-y,-z
1/2+y,-x,1/2-z
1/2+x,1/2+y,-z
-y,1/2+x,1/2-z
1/2-x,y,z
x,1/2-y,z
1/2-y,1/2-x,1/2+z
y,x,1/2+z
loop_
_atom_site_type_symbol
_atom_site_label
_atom_site_fract_x
_atom_site_fract_y
_atom_site_fract_z
Si Si1 0.692987 0.394963 0.742697
Si Si2 0.311434 0.000521 0.970093
Si Si3 0.944037 0.130309 0.111995
Si Si4 0.037601 0.537601 0.250000
Si Si5 0.564599 0.902716 0.348360
O O1 0.647148 0.352853 0.750000
O O2 0.750000 0.369973 0.760849
O O3 0.683394 0.424017 0.505707
O O4 0.688637 0.441449 0.925690
O O5 0.250000 0.015091 0.931271
O O6 0.350786 0.993740 0.756827
O O7 0.344608 0.037897 0.135786
O O8 0.897090 0.102911 0.250000
O O9 0.956521 0.085306 0.929109
O O10 0.051287 0.480981 0.143856
O O11 0.593489 0.909838 0.594928
#
# Coordination Sequence:
#
# PCOD9570491 Si02
#       5
#    16  16  16   8  16
#     4  11  21  36  55  76 104 146 202 262 308 352
#     4  11  24  40  61  84 112 161 206 245 300 367
#     4  12  18  36  59  79 116 150 208 250 293 352
#     4  12  22  36  56  88 121 162 194 244 301 376
#     4  12  25  40  60  90 128 161 199 247 304 365
#
# _framework density 18.982586999999999
#
# number of rings (size 3 to 8) (size 9 to 14) (size 15 to 20)
#    0.000    0.444    7.778    2.667    0.000    0.222 
#    0.000    0.000    0.000    0.000    0.000    0.000 
#    0.000    2.667    0.000    0.000    0.000    0.000 
#
# Total GULP energy -401462.245076 kJ/mol
# GULP energy per Si atom -5575.864515 kJ/mol
# Density = 1.893938 g / cm^3
# Si number density = 18.982587 Si / 1000 Ang^3
#
#
#
# Elastic Constant Matrix: (Units=GPa)
#
#
# Indices 1 2 3 4 5 6 
#
# 1 63.9026 22.0453 26.5772 0.0000 0.0000 0.0000
# 2 22.0453 63.9025 26.5766 0.0000 0.0000 0.0000
# 3 26.5772 26.5766 98.2123 0.0000 0.0000 0.0000
# 4 0.0000 0.0000 0.0000 15.8620 0.0000 0.0000
# 5 0.0000 0.0000 0.0000 0.0000 15.8616 0.0000
# 6 0.0000 0.0000 0.0000 0.0000 0.0000 19.5845
#
#
#
# Elastic Compliance Matrix: (Units=1/GPa)
#
#
# Indices 1 2 3 4 5 6 
#
# 1 0.018932 -0.004959 -0.003781 0.000000 0.000000 0.000000
# 2 -0.004959 0.018932 -0.003781 0.000000 0.000000 0.000000
# 3 -0.003781 -0.003781 0.012229 0.000000 0.000000 0.000000
# 4 0.000000 0.000000 0.000000 0.063044 0.000000 0.000000
# 5 0.000000 0.000000 0.000000 0.000000 0.063045 0.000000
# 6 0.000000 0.000000 0.000000 0.000000 0.000000 0.051061
#
#
# Mechanical properties :
#
#
# Convention : Reuss Voigt Hill
#
# Bulk Modulus (GPa) = 39.91978 41.82394 40.87186
# Shear Modulus (GPa) = 19.18390 20.31617 19.75004
#
# Velocity S-wave (km/s) = 3.18245 3.27502 3.22907
# Velocity P-wave (km/s) = 5.88042 6.03172 5.95655
#
# Compressibility (1/GPa) = 0.02505024
#
# Stress axis : x y z
#
# Youngs Moduli (GPa) = 52.82027 52.82039 81.77602
#
# Poissons Ratio (x) = 0.26192 0.30923
# Poissons Ratio (y) = 0.26192 0.30921
# Poissons Ratio (z) = 0.19973 0.19973
#
# Static dielectric constant tensor:
#      x y z
#    x 1.668090 0.000000 0.000000 
#    y 0.000000 1.668090 0.000000 
#    z 0.000000 0.000000 1.830930 
# 
# From -- ./inp_files/528.got.cif
#   From: 2010.05.17/outbox.cif.g08.bks.cpg/sg137_1_cif.got.tgz:528.got - 2010.05.20 13:01:12.
