data_PCOD9570623
_publ_section_title
;
Structure prediction by ZEFSAII (Michael W. Deem and Ramdas Pophale) SiO2 
 PCOD9570623
Probable space group: P 42/N C M
;
_chemical_formula_sum "Si O2"
_cell_formula_units_Z 72
_cell_length_a 15.435095
_cell_length_b 15.435095
_cell_length_c 14.237312
_cell_angle_alpha 90.000000
_cell_angle_beta 90.000000
_cell_angle_gamma 90.000000
_cell_volume 3391.927930
_symmetry_space_group_name_H-M "P 42/N C M"
_symmetry_group_IT_number 138
_space_group.IT_coordinate_system_code '2'
_symmetry_cell_setting 'tetragonal'
loop_
_space_group_symop_operation_xyz
x,y,z
1/2-y,x,1/2+z
1/2-x,1/2-y,z
y,1/2-x,1/2+z
1/2+x,-y,1/2-z
-x,1/2+y,1/2-z
1/2+y,1/2+x,-z
-y,-x,-z
-x,-y,-z
1/2+y,-x,1/2-z
1/2+x,1/2+y,-z
-y,1/2+x,1/2-z
1/2-x,y,1/2+z
x,1/2-y,1/2+z
1/2-y,1/2-x,z
y,x,z
loop_
_atom_site_type_symbol
_atom_site_label
_atom_site_fract_x
_atom_site_fract_y
_atom_site_fract_z
Si Si1 0.085355 0.551777 0.792968
Si Si2 0.602338 0.102338 0.000000
Si Si3 0.704426 0.060656 0.495750
Si Si4 0.821898 0.678103 0.653425
Si Si5 0.575390 0.924611 0.484264
Si Si6 0.503482 0.224874 0.288047
O O1 0.087564 0.546554 0.906744
O O2 0.183593 0.543452 0.758267
O O3 0.041475 0.641524 0.763608
O O4 0.025453 0.474548 0.755526
O O5 0.700144 0.086201 0.964899
O O6 0.643850 0.143850 0.500000
O O7 0.714100 0.030760 0.603408
O O8 0.653627 0.982680 0.443550
O O9 0.750000 0.750000 0.624200
O O10 0.874000 0.626001 0.570294
O O11 0.776873 0.600957 0.712316
O O12 0.500000 0.000000 0.500000
#
# Coordination Sequence:
#
# PCOD9570623 Si02
#       6
#    16   8  16   8   8  16
#     4  11  23  42  62  90 125 164 212 261 326 385
#     4  10  22  36  60  86 122 163 203 254 318 383
#     4   9  18  34  55  85 119 161 202 253 314 371
#     4  10  18  36  62  91 121 166 221 262 319 394
#     4   8  16  32  56  86 121 156 207 260 319 380
#     4  10  22  37  61  91 122 166 209 266 319 389
#
# _framework density 21.226866000000001
#
# number of rings (size 3 to 8) (size 9 to 14) (size 15 to 20)
#    0.000    2.222    1.111    1.333    3.111    0.444 
#    0.000    1.111    2.444    0.000    0.000    0.000 
#    0.000    0.000    0.000    0.000    0.000    0.000 
#
# Total GULP energy -401229.734730 kJ/mol
# GULP energy per Si atom -5572.635205 kJ/mol
# Density = 2.117855 g / cm^3
# Si number density = 21.226866 Si / 1000 Ang^3
#
#
#
# Elastic Constant Matrix: (Units=GPa)
#
#
# Indices 1 2 3 4 5 6 
#
# 1 136.3430 75.8894 2.7225 0.0000 0.0000 0.0000
# 2 75.8894 136.3430 2.7225 0.0000 0.0000 0.0000
# 3 2.7225 2.7225 43.9267 0.0000 0.0000 0.0000
# 4 0.0000 0.0000 0.0000 25.3988 0.0000 0.0000
# 5 0.0000 0.0000 0.0000 0.0000 25.3988 0.0000
# 6 0.0000 0.0000 0.0000 0.0000 0.0000 37.4671
#
#
#
# Elastic Compliance Matrix: (Units=1/GPa)
#
#
# Indices 1 2 3 4 5 6 
#
# 1 0.010630 -0.005911 -0.000292 0.000000 0.000000 0.000000
# 2 -0.005911 0.010630 -0.000292 0.000000 0.000000 0.000000
# 3 -0.000292 -0.000292 0.022801 0.000000 0.000000 0.000000
# 4 0.000000 0.000000 0.000000 0.039372 0.000000 0.000000
# 5 0.000000 0.000000 0.000000 0.000000 0.039372 0.000000
# 6 0.000000 0.000000 0.000000 0.000000 0.000000 0.026690
#
#
# Mechanical properties :
#
#
# Convention : Reuss Voigt Hill
#
# Bulk Modulus (GPa) = 32.18529 53.25351 42.71940
# Shear Modulus (GPa) = 28.92757 33.33813 31.13285
#
# Velocity S-wave (km/s) = 3.69559 3.96733 3.83387
# Velocity P-wave (km/s) = 5.77973 6.79180 6.30610
#
# Compressibility (1/GPa) = 0.03107009
#
# Stress axis : x y z
#
# Youngs Moduli (GPa) = 94.06915 94.06915 43.85687
#
# Poissons Ratio (x) = 0.55606 0.01283
# Poissons Ratio (y) = 0.55606 0.01283
# Poissons Ratio (z) = 0.02752 0.02752
#
# Static dielectric constant tensor:
#      x y z
#    x 1.779230 0.000000 0.000000 
#    y 0.000000 1.779230 0.000000 
#    z 0.000000 0.000000 1.861120 
# 
# From -- ./inp_files/5054.got.cif
#   From: 2010.05.17/outbox.cif.g08.bks.cpg/sg138_3_cif.got.tgz:5054.got - 2010.05.20 13:08:53.
