data_PCOD9570618
_publ_section_title
;
Structure prediction by ZEFSAII (Michael W. Deem and Ramdas Pophale) SiO2 
 PCOD9570618
Probable space group: P 42/N C M
;
_chemical_formula_sum "Si O2"
_cell_formula_units_Z 72
_cell_length_a 14.712283
_cell_length_b 14.712283
_cell_length_c 17.817392
_cell_angle_alpha 90.000000
_cell_angle_beta 90.000000
_cell_angle_gamma 90.000000
_cell_volume 3856.597146
_symmetry_space_group_name_H-M "P 42/N C M"
_symmetry_group_IT_number 138
_space_group.IT_coordinate_system_code '2'
_symmetry_cell_setting 'tetragonal'
loop_
_space_group_symop_operation_xyz
x,y,z
1/2-y,x,1/2+z
1/2-x,1/2-y,z
y,1/2-x,1/2+z
1/2+x,-y,1/2-z
-x,1/2+y,1/2-z
1/2+y,1/2+x,-z
-y,-x,-z
-x,-y,-z
1/2+y,-x,1/2-z
1/2+x,1/2+y,-z
-y,1/2+x,1/2-z
1/2-x,y,1/2+z
x,1/2-y,1/2+z
1/2-y,1/2-x,z
y,x,z
loop_
_atom_site_type_symbol
_atom_site_label
_atom_site_fract_x
_atom_site_fract_y
_atom_site_fract_z
Si Si1 0.179583 0.320418 0.324297
Si Si2 0.479111 0.020890 0.912383
Si Si3 0.887549 0.612452 0.826247
Si Si4 0.232948 0.019461 0.416696
Si Si5 0.790343 0.944426 0.912919
Si Si6 0.565237 0.416157 0.909624
O O1 0.250000 0.250000 0.286632
O O2 0.124417 0.375584 0.262020
O O3 0.236492 0.388470 0.375999
O O4 0.498909 0.127965 0.900421
O O5 0.540192 0.959809 0.857748
O O6 0.500000 0.000000 0.000000
O O7 0.789780 0.585501 0.859226
O O8 0.247181 0.032587 0.506082
O O9 0.310439 0.947383 0.391805
O O10 0.864298 0.864298 0.923829
O O11 0.847043 0.029998 0.880813
O O12 0.475045 0.475045 0.890728
O O13 0.575121 0.424880 0.000000
#
# Coordination Sequence:
#
# PCOD9570618 Si02
#       6
#     8   8   8  16  16  16
#     4  12  24  40  61  95 120 155 210 266 323 383
#     4  12  24  40  64  90 126 172 215 264 325 365
#     4  12  26  41  54  92 133 158 207 271 312 377
#     4  11  19  37  64  90 123 161 211 251 312 384
#     4  10  18  34  64  92 123 160 201 263 317 358
#     4   8  15  29  55  93 120 149 200 252 302 358
#
# _framework density 18.669307
#
# number of rings (size 3 to 8) (size 9 to 14) (size 15 to 20)
#    0.000    1.556    5.556    2.333    0.000    0.000 
#    4.000    1.111    0.000    0.000    0.000    0.000 
#    0.000    0.000    0.000    0.000    0.000    0.000 
#
# Total GULP energy -401730.750311 kJ/mol
# GULP energy per Si atom -5579.593754 kJ/mol
# Density = 1.862682 g / cm^3
# Si number density = 18.669307 Si / 1000 Ang^3
#
#
#
# Elastic Constant Matrix: (Units=GPa)
#
#
# Indices 1 2 3 4 5 6 
#
# 1 80.8310 65.0846 7.5724 0.0000 0.0000 0.0000
# 2 65.0846 80.8307 7.5725 0.0000 0.0000 0.0000
# 3 7.5724 7.5725 41.0378 0.0000 0.0000 0.0000
# 4 0.0000 0.0000 0.0000 16.2597 0.0000 0.0000
# 5 0.0000 0.0000 0.0000 0.0000 16.2597 0.0000
# 6 0.0000 0.0000 0.0000 0.0000 0.0000 38.6414
#
#
#
# Elastic Compliance Matrix: (Units=1/GPa)
#
#
# Indices 1 2 3 4 5 6 
#
# 1 0.035247 -0.028260 -0.001289 0.000000 0.000000 0.000000
# 2 -0.028260 0.035247 -0.001289 0.000000 0.000000 0.000000
# 3 -0.001289 -0.001289 0.024844 0.000000 0.000000 0.000000
# 4 0.000000 0.000000 0.000000 0.061502 0.000000 0.000000
# 5 0.000000 0.000000 0.000000 0.000000 0.061502 0.000000
# 6 0.000000 0.000000 0.000000 0.000000 0.000000 0.025879
#
#
# Mechanical properties :
#
#
# Convention : Reuss Voigt Hill
#
# Bulk Modulus (GPa) = 29.70829 40.35094 35.02962
# Shear Modulus (GPa) = 15.76701 22.39682 19.08192
#
# Velocity S-wave (km/s) = 2.90925 3.46737 3.20050
# Velocity P-wave (km/s) = 5.21847 6.13927 5.69750
#
# Compressibility (1/GPa) = 0.03366063
#
# Stress axis : x y z
#
# Youngs Moduli (GPa) = 28.37119 28.37106 40.25188
#
# Poissons Ratio (x) = 0.80177 0.05189
# Poissons Ratio (y) = 0.80177 0.05190
# Poissons Ratio (z) = 0.03658 0.03658
#
# Static dielectric constant tensor:
#      x y z
#    x 1.660650 0.000000 0.000000 
#    y 0.000000 1.660650 0.000000 
#    z 0.000000 0.000000 1.618410 
# 
# From -- ./inp_files/5053.got.cif
#   From: 2010.05.17/outbox.cif.g08.bks.cpg/sg138_3_cif.got.tgz:5053.got - 2010.05.20 13:08:53.
