data_PCOD9570804
_publ_section_title
;
Structure prediction by ZEFSAII (Michael W. Deem and Ramdas Pophale) SiO2 
 PCOD9570804
Probable space group: P 42/N C M
;
_chemical_formula_sum "Si O2"
_cell_formula_units_Z 64
_cell_length_a 12.427890
_cell_length_b 12.427890
_cell_length_c 24.061341
_cell_angle_alpha 90.000000
_cell_angle_beta 90.000000
_cell_angle_gamma 90.000000
_cell_volume 3716.333064
_symmetry_space_group_name_H-M "P 42/N C M"
_symmetry_group_IT_number 138
_space_group.IT_coordinate_system_code '2'
_symmetry_cell_setting 'tetragonal'
loop_
_space_group_symop_operation_xyz
x,y,z
1/2-y,x,1/2+z
1/2-x,1/2-y,z
y,1/2-x,1/2+z
1/2+x,-y,1/2-z
-x,1/2+y,1/2-z
1/2+y,1/2+x,-z
-y,-x,-z
-x,-y,-z
1/2+y,-x,1/2-z
1/2+x,1/2+y,-z
-y,1/2+x,1/2-z
1/2-x,y,1/2+z
x,1/2-y,1/2+z
1/2-y,1/2-x,z
y,x,z
loop_
_atom_site_type_symbol
_atom_site_label
_atom_site_fract_x
_atom_site_fract_y
_atom_site_fract_z
Si Si1 0.325317 0.857065 0.938372
Si Si2 0.569139 0.749318 0.119178
Si Si3 0.264852 0.621013 0.671480
Si Si4 0.632139 0.455604 0.214593
O O1 0.250000 0.750000 0.941163
O O2 0.402056 0.826468 0.886020
O O3 0.265133 0.967050 0.921220
O O4 0.371877 0.871877 0.000000
O O5 0.646122 0.853879 0.119531
O O6 0.647066 0.647066 0.106510
O O7 0.514467 0.725016 0.178844
O O8 0.250000 0.750000 0.674793
O O9 0.141795 0.584267 0.677634
O O10 0.326097 0.585782 0.726549
O O11 0.541415 0.541415 0.225087
#
# Coordination Sequence:
#
# PCOD9570804 Si02
#       4
#    16  16  16  16
#     4  10  20  36  57  82 110 148 194 235 270 328
#     4  10  21  37  57  83 115 149 185 231 286 337
#     4  11  18  35  52  76 113 141 181 227 275 333
#     4  11  20  32  55  82 108 143 181 226 282 334
#
# _framework density 17.221278000000002
#
# number of rings (size 3 to 8) (size 9 to 14) (size 15 to 20)
#    0.000    1.500    7.500    0.000    0.000    4.500 
#    0.000    3.750    0.000    0.000    0.000    3.500 
#    0.000    0.000    0.000    0.000    0.000    0.000 
#
# Total GULP energy -356281.679025 kJ/mol
# GULP energy per Si atom -5566.901235 kJ/mol
# Density = 1.718208 g / cm^3
# Si number density = 17.221278 Si / 1000 Ang^3
#
#
#
# Elastic Constant Matrix: (Units=GPa)
#
#
# Indices 1 2 3 4 5 6 
#
# 1 82.6669 30.5843 53.0684 0.0000 0.0000 0.0000
# 2 30.5843 82.6669 53.0684 0.0000 0.0000 0.0000
# 3 53.0684 53.0684 156.5676 0.0000 0.0000 0.0000
# 4 0.0000 0.0000 0.0000 10.1755 0.0000 0.0000
# 5 0.0000 0.0000 0.0000 0.0000 10.1755 0.0000
# 6 0.0000 0.0000 0.0000 0.0000 0.0000 17.1672
#
#
#
# Elastic Compliance Matrix: (Units=1/GPa)
#
#
# Indices 1 2 3 4 5 6 
#
# 1 0.016070 -0.003130 -0.004386 0.000000 0.000000 0.000000
# 2 -0.003130 0.016070 -0.004386 0.000000 0.000000 0.000000
# 3 -0.004386 -0.004386 0.009360 0.000000 0.000000 0.000000
# 4 0.000000 0.000000 0.000000 0.098275 0.000000 0.000000
# 5 0.000000 0.000000 0.000000 0.000000 0.098275 0.000000
# 6 0.000000 0.000000 0.000000 0.000000 0.000000 0.058251
#
#
# Mechanical properties :
#
#
# Convention : Reuss Voigt Hill
#
# Bulk Modulus (GPa) = 56.50742 66.14932 61.32837
# Shear Modulus (GPa) = 15.33718 19.84901 17.59310
#
# Velocity S-wave (km/s) = 2.98752 3.39866 3.19970
# Velocity P-wave (km/s) = 6.69210 7.34139 7.02425
#
# Compressibility (1/GPa) = 0.01769679
#
# Stress axis : x y z
#
# Youngs Moduli (GPa) = 62.22612 62.22612 106.83292
#
# Poissons Ratio (x) = 0.19476 0.46859
# Poissons Ratio (y) = 0.19476 0.46859
# Poissons Ratio (z) = 0.27294 0.27294
#
# Static dielectric constant tensor:
#      x y z
#    x 1.631130 0.000000 0.000000 
#    y 0.000000 1.631130 0.000000 
#    z 0.000000 0.000000 1.615910 
# 
# From -- ./inp_files/6738.got.cif
#   From: 2010.05.17/outbox.cif.g08.bks.cpg/sg138_4_cif.got.tgz:6738.got - 2010.05.20 13:08:53.
