data_PCOD9570629
_publ_section_title
;
Structure prediction by ZEFSAII (Michael W. Deem and Ramdas Pophale) SiO2 
 PCOD9570629
Probable space group: P 42/N C M
;
_chemical_formula_sum "Si O2"
_cell_formula_units_Z 100
_cell_length_a 31.757346
_cell_length_b 31.757346
_cell_length_c 7.512020
_cell_angle_alpha 90.000000
_cell_angle_beta 90.000000
_cell_angle_gamma 90.000000
_cell_volume 7576.090206
_symmetry_space_group_name_H-M "P 42/N C M"
_symmetry_group_IT_number 138
_space_group.IT_coordinate_system_code '2'
_symmetry_cell_setting 'tetragonal'
loop_
_space_group_symop_operation_xyz
x,y,z
1/2-y,x,1/2+z
1/2-x,1/2-y,z
y,1/2-x,1/2+z
1/2+x,-y,1/2-z
-x,1/2+y,1/2-z
1/2+y,1/2+x,-z
-y,-x,-z
-x,-y,-z
1/2+y,-x,1/2-z
1/2+x,1/2+y,-z
-y,1/2+x,1/2-z
1/2-x,y,1/2+z
x,1/2-y,1/2+z
1/2-y,1/2-x,z
y,x,z
loop_
_atom_site_type_symbol
_atom_site_label
_atom_site_fract_x
_atom_site_fract_y
_atom_site_fract_z
Si Si1 0.088184 0.297709 0.287936
Si Si2 0.316200 0.316200 0.219587
Si Si3 0.569847 0.497723 0.500034
Si Si4 0.046115 0.382512 0.289399
Si Si5 0.683800 0.816200 0.719661
Si Si6 0.382514 0.046113 0.710525
Si Si7 0.750000 0.750000 0.250039
Si Si8 0.702289 0.588184 0.788002
O O1 0.058948 0.335917 0.224798
O O2 0.136221 0.305018 0.227936
O O3 0.074861 0.249999 0.249971
O O4 0.089670 0.302906 0.499966
O O5 0.284287 0.284287 0.311919
O O6 0.363779 0.305019 0.271994
O O7 0.311913 0.311913 0.999963
O O8 0.547414 0.452587 0.500000
O O9 0.532168 0.532168 0.500042
O O10 0.597416 0.509178 0.327408
O O11 0.597414 0.509174 0.672673
O O12 0.087233 0.412768 0.268120
O O13 0.036197 0.382003 0.499961
O O14 0.715713 0.784288 0.811995
O O15 0.412772 0.087229 0.731808
O O16 0.335920 0.058947 0.775130
#
# Coordination Sequence:
#
# PCOD9570629 Si02
#       8
#    16   8  16  16   8  16   4  16
#     4  10  19  30  41  55  73 101 137 171 208 254
#     4  10  19  29  37  48  69  94 130 172 218 258
#     4   9  18  30  46  68  84  96 124 160 203 264
#     4   9  17  30  45  59  81 107 129 161 207 255
#     4  10  19  29  37  48  69  94 130 172 218 258
#     4   9  17  30  45  59  81 107 129 161 207 255
#     4  12  18  28  36  50  68  92 130 188 226 236
#     4  10  19  30  41  55  73 101 137 171 208 254
#
# _framework density 13.19942
#
# number of rings (size 3 to 8) (size 9 to 14) (size 15 to 20)
#    0.000    2.400    3.200    0.240    2.240    0.640 
#    0.000    4.000    0.000    0.000    0.000    0.000 
#    0.000    0.000    0.000    0.000    0.000    0.000 
#
# Total GULP energy -557013.565924 kJ/mol
# GULP energy per Si atom -5570.135659 kJ/mol
# Density = 1.316938 g / cm^3
# Si number density = 13.199420 Si / 1000 Ang^3
#
#
#
# Elastic Constant Matrix: (Units=GPa)
#
#
# Indices 1 2 3 4 5 6 
#
# 1 74.5735 58.7446 30.6336 0.0000 0.0000 0.0000
# 2 58.7446 74.5756 30.6342 0.0000 0.0000 0.0000
# 3 30.6336 30.6342 58.6828 0.0000 0.0000 0.0000
# 4 0.0000 0.0000 0.0000 18.2740 0.0000 0.0000
# 5 0.0000 0.0000 0.0000 0.0000 18.2742 0.0000
# 6 0.0000 0.0000 0.0000 0.0000 0.0000 28.4389
#
#
#
# Elastic Compliance Matrix: (Units=1/GPa)
#
#
# Indices 1 2 3 4 5 6 
#
# 1 0.036520 -0.026652 -0.005151 0.000000 0.000000 0.000000
# 2 -0.026652 0.036519 -0.005151 0.000000 0.000000 0.000000
# 3 -0.005151 -0.005151 0.022419 0.000000 0.000000 0.000000
# 4 0.000000 0.000000 0.000000 0.054722 0.000000 0.000000
# 5 0.000000 0.000000 0.000000 0.000000 0.054722 0.000000
# 6 0.000000 0.000000 0.000000 0.000000 0.000000 0.035163
#
#
# Mechanical properties :
#
#
# Convention : Reuss Voigt Hill
#
# Bulk Modulus (GPa) = 46.40429 49.76184 48.08307
# Shear Modulus (GPa) = 15.56865 18.85207 17.21036
#
# Velocity S-wave (km/s) = 3.43810 3.78332 3.61484
# Velocity P-wave (km/s) = 7.14096 7.54099 7.34370
#
# Compressibility (1/GPa) = 0.02154973
#
# Stress axis : x y z
#
# Youngs Moduli (GPa) = 27.38207 27.38281 44.60481
#
# Poissons Ratio (x) = 0.72979 0.22978
# Poissons Ratio (y) = 0.72978 0.22978
# Poissons Ratio (z) = 0.14106 0.14106
#
# Static dielectric constant tensor:
#      x y z
#    x 1.425670 0.000000 0.000000 
#    y 0.000000 1.425660 0.000000 
#    z 0.000000 0.000000 1.507990 
# 
# From -- ./inp_files/1955.got.cif
#   From: 2010.05.17/outbox.cif.g08.bks.cpg/sg138_1_cif.got.tgz:1955.got - 2010.05.20 13:08:53.
