data_PCOD9570525
_publ_section_title
;
Structure prediction by ZEFSAII (Michael W. Deem and Ramdas Pophale) SiO2 
 PCOD9570525
Probable space group: P 42/N M C
;
_chemical_formula_sum "Si O2"
_cell_formula_units_Z 48
_cell_length_a 9.218828
_cell_length_b 9.218828
_cell_length_c 26.547153
_cell_angle_alpha 90.000000
_cell_angle_beta 90.000000
_cell_angle_gamma 90.000000
_cell_volume 2256.157309
_symmetry_space_group_name_H-M "P 42/N M C"
_symmetry_group_IT_number 137
_space_group.IT_coordinate_system_code '2'
_symmetry_cell_setting 'tetragonal'
loop_
_space_group_symop_operation_xyz
x,y,z
1/2-y,x,1/2+z
1/2-x,1/2-y,z
y,1/2-x,1/2+z
1/2+x,-y,-z
-x,1/2+y,-z
1/2+y,1/2+x,1/2-z
-y,-x,1/2-z
-x,-y,-z
1/2+y,-x,1/2-z
1/2+x,1/2+y,-z
-y,1/2+x,1/2-z
1/2-x,y,z
x,1/2-y,z
1/2-y,1/2-x,1/2+z
y,x,1/2+z
loop_
_atom_site_type_symbol
_atom_site_label
_atom_site_fract_x
_atom_site_fract_y
_atom_site_fract_z
Si Si1 0.409715 0.416952 0.288880
Si Si2 0.965036 0.425235 0.609868
Si Si3 0.250000 0.574068 0.577793
Si Si4 0.072229 0.250000 0.967642
O O1 0.529464 0.470537 0.250000
O O2 0.250000 0.422994 0.264057
O O3 0.432715 0.250000 0.305379
O O4 0.405005 0.523739 0.336503
O O5 0.965783 0.250000 0.604276
O O6 0.117147 0.504964 0.607171
O O7 0.881742 0.503910 0.564031
O O8 0.250000 0.750000 0.574790
O O9 0.250000 0.498912 0.522640
O O10 0.250000 0.250000 0.968856
#
# Coordination Sequence:
#
# PCOD9570525 Si02
#       4
#    16  16   8   8
#     4  11  25  45  70  99 134 177 228 284 350 420
#     4  12  25  44  70 101 139 181 235 290 355 423
#     4  12  26  44  68 100 142 188 236 290 355 420
#     4  12  24  44  70 102 142 186 236 290 349 422
#
# _framework density 21.275110999999999
#
# number of rings (size 3 to 8) (size 9 to 14) (size 15 to 20)
#    0.000    0.333    1.667    8.000    2.333    2.000 
#    0.000    0.000    0.000    0.000    0.000    0.000 
#    0.000    0.000    0.000    0.000    0.000    0.000 
#
# Total GULP energy -268025.504487 kJ/mol
# GULP energy per Si atom -5583.864677 kJ/mol
# Density = 2.122669 g / cm^3
# Si number density = 21.275111 Si / 1000 Ang^3
#
#
#
# Elastic Constant Matrix: (Units=GPa)
#
#
# Indices 1 2 3 4 5 6 
#
# 1 196.3335 46.5149 22.7419 0.0000 0.0000 0.0000
# 2 46.5149 196.3355 22.7431 0.0000 0.0000 0.0000
# 3 22.7419 22.7431 59.6503 0.0000 0.0000 0.0000
# 4 0.0000 0.0000 0.0000 28.3504 0.0000 0.0000
# 5 0.0000 0.0000 0.0000 0.0000 28.3494 0.0000
# 6 0.0000 0.0000 0.0000 0.0000 0.0000 13.4436
#
#
#
# Elastic Compliance Matrix: (Units=1/GPa)
#
#
# Indices 1 2 3 4 5 6 
#
# 1 0.005555 -0.001120 -0.001691 0.000000 0.000000 0.000000
# 2 -0.001120 0.005555 -0.001691 0.000000 0.000000 0.000000
# 3 -0.001691 -0.001691 0.018054 0.000000 0.000000 0.000000
# 4 0.000000 0.000000 0.000000 0.035273 0.000000 0.000000
# 5 0.000000 0.000000 0.000000 0.000000 0.035274 0.000000
# 6 0.000000 0.000000 0.000000 0.000000 0.000000 0.074385
#
#
# Mechanical properties :
#
#
# Convention : Reuss Voigt Hill
#
# Bulk Modulus (GPa) = 49.60395 70.70214 60.15304
# Shear Modulus (GPa) = 26.34108 38.04996 32.19552
#
# Velocity S-wave (km/s) = 3.52251 4.23362 3.89433
# Velocity P-wave (km/s) = 6.31745 7.56324 6.96824
#
# Compressibility (1/GPa) = 0.02015969
#
# Stress axis : x y z
#
# Youngs Moduli (GPa) = 180.03150 180.03248 55.39067
#
# Poissons Ratio (x) = 0.20166 0.09365
# Poissons Ratio (y) = 0.20166 0.09365
# Poissons Ratio (z) = 0.30437 0.30439
#
# Static dielectric constant tensor:
#      x y z
#    x 1.510650 0.000000 0.000000 
#    y 0.000000 1.510650 0.000000 
#    z 0.000000 0.000000 1.744250 
# 
# From -- ./inp_files/10054.got.cif
#   From: 2010.05.17/outbox.cif.g08.bks.cpg/sg137_6_cif.got.tgz:10054.got - 2010.05.20 13:01:12.
