data_PCOD9570084
_publ_section_title
;
Structure prediction by ZEFSAII (Michael W. Deem and Ramdas Pophale) SiO2 
 PCOD9570084
Probable space group: P 42/N M C
;
_chemical_formula_sum "Si O2"
_cell_formula_units_Z 112
_cell_length_a 14.122794
_cell_length_b 14.122794
_cell_length_c 29.589270
_cell_angle_alpha 90.000000
_cell_angle_beta 90.000000
_cell_angle_gamma 90.000000
_cell_volume 5901.677853
_symmetry_space_group_name_H-M "P 42/N M C"
_symmetry_group_IT_number 137
_space_group.IT_coordinate_system_code '2'
_symmetry_cell_setting 'tetragonal'
loop_
_space_group_symop_operation_xyz
x,y,z
1/2-y,x,1/2+z
1/2-x,1/2-y,z
y,1/2-x,1/2+z
1/2+x,-y,-z
-x,1/2+y,-z
1/2+y,1/2+x,1/2-z
-y,-x,1/2-z
-x,-y,-z
1/2+y,-x,1/2-z
1/2+x,1/2+y,-z
-y,1/2+x,1/2-z
1/2-x,y,z
x,1/2-y,z
1/2-y,1/2-x,1/2+z
y,x,1/2+z
loop_
_atom_site_type_symbol
_atom_site_label
_atom_site_fract_x
_atom_site_fract_y
_atom_site_fract_z
Si Si1 0.493581 0.138543 0.731838
Si Si2 0.354204 0.033668 0.568867
Si Si3 0.136296 0.137685 0.819328
Si Si4 0.354133 0.389449 0.471105
Si Si5 0.856657 0.397128 0.566793
Si Si6 0.478072 0.536152 0.359453
Si Si7 0.068275 0.652382 0.526207
O O1 0.589802 0.089802 0.750000
O O2 0.504355 0.250000 0.724125
O O3 0.409779 0.126728 0.769027
O O4 0.479349 0.081456 0.685688
O O5 0.250000 0.040533 0.589558
O O6 0.371503 0.933132 0.545054
O O7 0.357067 0.103434 0.525773
O O8 0.438516 0.038347 0.604047
O O9 0.250000 0.117120 0.821280
O O10 0.124696 0.250000 0.831608
O O11 0.066393 0.070525 0.849037
O O12 0.250000 0.349445 0.458855
O O13 0.354296 0.493088 0.448728
O O14 0.458167 0.351557 0.459593
O O15 0.750000 0.360310 0.564392
O O16 0.897906 0.398289 0.617106
O O17 0.922062 0.352270 0.528155
O O18 0.110131 0.750000 0.542759
#
# Coordination Sequence:
#
# PCOD9570084 Si02
#       7
#    16  16  16  16  16  16  16
#     4   9  20  37  58  82 110 143 174 212 265 333
#     4  10  20  35  53  72 103 144 184 221 262 316
#     4   9  19  37  59  82 108 137 172 217 269 327
#     4   9  17  34  54  70  96 143 186 216 259 311
#     4  10  19  33  52  73 104 140 180 223 265 315
#     4  11  19  34  57  84 109 137 179 222 279 319
#     4  11  20  33  51  72 105 148 188 224 268 322
#
# _framework density 18.977654999999999
#
# number of rings (size 3 to 8) (size 9 to 14) (size 15 to 20)
#    0.000    2.143    2.857    2.571    0.000    3.857 
#    0.000    0.000    0.000    0.000    0.000    0.000 
#    0.000    0.000    0.000    0.000    0.000    0.000 
#
# Total GULP energy -623483.231231 kJ/mol
# GULP energy per Si atom -5566.814565 kJ/mol
# Density = 1.893446 g / cm^3
# Si number density = 18.977655 Si / 1000 Ang^3
#
#
#
# Elastic Constant Matrix: (Units=GPa)
#
#
# Indices 1 2 3 4 5 6 
#
# 1 68.9085 -0.4920 1.0035 0.0000 0.0000 0.0000
# 2 -0.4920 68.9085 1.0035 0.0000 0.0000 0.0000
# 3 1.0035 1.0035 59.4082 0.0000 0.0000 0.0000
# 4 0.0000 0.0000 0.0000 219.1132 0.0000 0.0000
# 5 0.0000 0.0000 0.0000 0.0000 219.1132 0.0000
# 6 0.0000 0.0000 0.0000 0.0000 0.0000 -183.5882
#
#
#
# Elastic Compliance Matrix: (Units=1/GPa)
#
#
# Indices 1 2 3 4 5 6 
#
# 1 0.014516 0.000107 -0.000247 0.000000 0.000000 0.000000
# 2 0.000107 0.014516 -0.000247 0.000000 0.000000 0.000000
# 3 -0.000247 -0.000247 0.016841 0.000000 0.000000 0.000000
# 4 0.000000 0.000000 0.000000 0.004564 0.000000 0.000000
# 5 0.000000 0.000000 0.000000 0.000000 0.004564 0.000000
# 6 0.000000 0.000000 0.000000 0.000000 0.000000 -0.005447
#
#
# Mechanical properties :
#
#
# Convention : Reuss Voigt Hill
#
# Bulk Modulus (GPa) = 22.17285 22.25057 22.21171
# Shear Modulus (GPa) = 76.49766 63.97500 70.23633
#
# Velocity S-wave (km/s) = 6.35585 5.81239 6.09019
# Velocity P-wave (km/s) = 8.09762 7.53626 7.82198
#
# Compressibility (1/GPa) = 0.04510020
#
# Stress axis : x y z
#
# Youngs Moduli (GPa) = 68.88778 68.88778 59.37873
#
# Poissons Ratio (x) = -0.00739 0.01467
# Poissons Ratio (y) = -0.00739 0.01467
# Poissons Ratio (z) = 0.01702 0.01702
#
# Static dielectric constant tensor:
#      x y z
#    x 1.634970 0.000000 0.000000 
#    y 0.000000 1.634970 0.000000 
#    z 0.000000 0.000000 1.698350 
# 
# From -- ./inp_files/9840.got.cif
#   From: 2010.05.17/outbox.cif.g08.bks.cpg/sg137_5_cif.got.tgz:9840.got - 2010.05.20 13:01:12.
