data_PCOD9570633
_publ_section_title
;
Structure prediction by ZEFSAII (Michael W. Deem and Ramdas Pophale) SiO2 
 PCOD9570633
Probable space group: P 42/N C M
;
_chemical_formula_sum "Si O2"
_cell_formula_units_Z 128
_cell_length_a 17.402189
_cell_length_b 17.402189
_cell_length_c 24.970830
_cell_angle_alpha 90.000000
_cell_angle_beta 90.000000
_cell_angle_gamma 90.000000
_cell_volume 7562.070818
_symmetry_space_group_name_H-M "P 42/N C M"
_symmetry_group_IT_number 138
_space_group.IT_coordinate_system_code '2'
_symmetry_cell_setting 'tetragonal'
loop_
_space_group_symop_operation_xyz
x,y,z
1/2-y,x,1/2+z
1/2-x,1/2-y,z
y,1/2-x,1/2+z
1/2+x,-y,1/2-z
-x,1/2+y,1/2-z
1/2+y,1/2+x,-z
-y,-x,-z
-x,-y,-z
1/2+y,-x,1/2-z
1/2+x,1/2+y,-z
-y,1/2+x,1/2-z
1/2-x,y,1/2+z
x,1/2-y,1/2+z
1/2-y,1/2-x,z
y,x,z
loop_
_atom_site_type_symbol
_atom_site_label
_atom_site_fract_x
_atom_site_fract_y
_atom_site_fract_z
Si Si1 0.034839 0.802712 0.992772
Si Si2 0.253797 0.374551 0.527502
Si Si3 0.940045 0.431002 0.418959
Si Si4 0.447663 0.174743 0.127195
Si Si5 0.414386 0.856607 0.950113
Si Si6 0.729198 0.426476 0.293878
Si Si7 0.893221 0.142113 0.810408
Si Si8 0.211170 0.673312 0.871106
O O1 0.056287 0.853895 0.044208
O O2 0.029789 0.863045 0.943122
O O3 0.086751 0.731656 0.972571
O O4 0.952089 0.765463 0.003056
O O5 0.184006 0.315995 0.523666
O O6 0.330096 0.330096 0.508991
O O7 0.269490 0.398856 0.588918
O O8 0.932543 0.409553 0.356439
O O9 0.012568 0.487433 0.428523
O O10 0.390951 0.109050 0.148475
O O11 0.511261 0.138030 0.087173
O O12 0.497590 0.218898 0.170786
O O13 0.337734 0.869885 0.915622
O O14 0.412952 0.912952 0.000000
O O15 0.677767 0.435702 0.240885
O O16 0.818540 0.403564 0.287965
O O17 0.697374 0.352826 0.327209
O O18 0.868172 0.218784 0.842504
O O19 0.250000 0.750000 0.894758
#
# Coordination Sequence:
#
# PCOD9570633 Si02
#       8
#    16  16  16  16  16  16  16  16
#     4  10  19  34  48  72 106 134 162 201 247 302
#     4   9  16  29  52  76  96 125 169 214 250 286
#     4  11  22  33  49  71 104 141 163 193 247 310
#     4   9  19  33  47  69  99 128 160 201 247 292
#     4  10  19  30  47  72  97 129 163 198 243 291
#     4  10  19  31  50  71  94 125 158 203 249 282
#     4  11  19  32  50  74  95 125 169 202 243 290
#     4   9  17  28  44  69  95 120 153 197 242 279
#
# _framework density 16.926580000000001
#
# number of rings (size 3 to 8) (size 9 to 14) (size 15 to 20)
#    0.000    2.125    1.250    5.250    0.000    2.000 
#    0.000    0.000    0.000    0.000    0.000    0.875 
#    0.000    2.000    0.000    0.000    0.000    0.000 
#
# Total GULP energy -712851.586543 kJ/mol
# GULP energy per Si atom -5569.153020 kJ/mol
# Density = 1.688805 g / cm^3
# Si number density = 16.926580 Si / 1000 Ang^3
#
#
#
# Elastic Constant Matrix: (Units=GPa)
#
#
# Indices 1 2 3 4 5 6 
#
# 1 28.8535 2.7163 -3.1152 0.0000 0.0000 0.0000
# 2 2.7163 28.8535 -3.1152 0.0000 0.0000 0.0000
# 3 -3.1152 -3.1152 48.3641 0.0000 0.0000 0.0000
# 4 0.0000 0.0000 0.0000 14.7462 0.0000 0.0000
# 5 0.0000 0.0000 0.0000 0.0000 14.7462 0.0000
# 6 0.0000 0.0000 0.0000 0.0000 0.0000 18.6362
#
#
#
# Elastic Compliance Matrix: (Units=1/GPa)
#
#
# Indices 1 2 3 4 5 6 
#
# 1 0.035172 -0.003088 0.002067 0.000000 0.000000 0.000000
# 2 -0.003088 0.035172 0.002067 0.000000 0.000000 0.000000
# 3 0.002067 0.002067 0.020943 0.000000 0.000000 0.000000
# 4 0.000000 0.000000 0.000000 0.067814 0.000000 0.000000
# 5 0.000000 0.000000 0.000000 0.000000 0.067814 0.000000
# 6 0.000000 0.000000 0.000000 0.000000 0.000000 0.053659
#
#
# Mechanical properties :
#
#
# Convention : Reuss Voigt Hill
#
# Bulk Modulus (GPa) = 10.70935 11.00477 10.85706
# Shear Modulus (GPa) = 16.14946 16.93141 16.54044
#
# Velocity S-wave (km/s) = 3.09218 3.16616 3.12939
# Velocity P-wave (km/s) = 4.36915 4.45889 4.41425
#
# Compressibility (1/GPa) = 0.09337633
#
# Stress axis : x y z
#
# Youngs Moduli (GPa) = 28.43200 28.43200 47.74934
#
# Poissons Ratio (x) = 0.08780 -0.09868
# Poissons Ratio (y) = 0.08780 -0.09868
# Poissons Ratio (z) = -0.05876 -0.05876
#
# Static dielectric constant tensor:
#      x y z
#    x 1.575140 0.000000 0.000000 
#    y 0.000000 1.575140 0.000000 
#    z 0.000000 0.000000 1.593710 
# 
# From -- ./inp_files/7200.got.cif
#   From: 2010.05.17/outbox.cif.g08.bks.cpg/sg138_4_cif.got.tgz:7200.got - 2010.05.20 13:08:53.
