data_PCOD9570029
_publ_section_title
;
Structure prediction by ZEFSAII (Michael W. Deem and Ramdas Pophale) SiO2 
 PCOD9570029
Probable space group: P 42/N M C
;
_chemical_formula_sum "Si O2"
_cell_formula_units_Z 128
_cell_length_a 18.664414
_cell_length_b 18.664414
_cell_length_c 22.874726
_cell_angle_alpha 90.000000
_cell_angle_beta 90.000000
_cell_angle_gamma 90.000000
_cell_volume 7968.647555
_symmetry_space_group_name_H-M "P 42/N M C"
_symmetry_group_IT_number 137
_space_group.IT_coordinate_system_code '2'
_symmetry_cell_setting 'tetragonal'
loop_
_space_group_symop_operation_xyz
x,y,z
1/2-y,x,1/2+z
1/2-x,1/2-y,z
y,1/2-x,1/2+z
1/2+x,-y,-z
-x,1/2+y,-z
1/2+y,1/2+x,1/2-z
-y,-x,1/2-z
-x,-y,-z
1/2+y,-x,1/2-z
1/2+x,1/2+y,-z
-y,1/2+x,1/2-z
1/2-x,y,z
x,1/2-y,z
1/2-y,1/2-x,1/2+z
y,x,1/2+z
loop_
_atom_site_type_symbol
_atom_site_label
_atom_site_fract_x
_atom_site_fract_y
_atom_site_fract_z
Si Si1 0.946080 0.834364 0.066774
Si Si2 0.166393 0.444605 0.197304
Si Si3 0.404272 0.831550 0.359151
Si Si4 0.166066 0.576626 0.006977
Si Si5 0.526771 0.336231 0.815455
Si Si6 0.833601 0.047175 0.452995
Si Si7 0.164278 0.409504 0.618546
Si Si8 0.408667 0.334927 0.507569
O O1 0.929549 0.750000 0.071579
O O2 0.983369 0.857941 0.126481
O O3 0.875833 0.876918 0.048209
O O4 0.001013 0.842556 0.012677
O O5 0.250000 0.421880 0.202061
O O6 0.164283 0.510295 0.151259
O O7 0.143726 0.481702 0.258086
O O8 0.117708 0.380371 0.174056
O O9 0.382973 0.750000 0.342840
O O10 0.389895 0.842543 0.427981
O O11 0.368129 0.893879 0.321749
O O12 0.250000 0.581983 0.991939
O O13 0.147194 0.492771 0.012057
O O14 0.115287 0.616268 0.961279
O O15 0.533186 0.250000 0.814727
O O16 0.750000 0.067538 0.448968
O O17 0.850113 0.991717 0.400761
O O18 0.250000 0.400855 0.624206
O O19 0.134979 0.362654 0.563981
O O20 0.401492 0.250000 0.503592
#
# Coordination Sequence:
#
# PCOD9570029 Si02
#       8
#    16  16  16  16  16  16  16  16
#     4   9  18  31  46  67  95 129 166 201 247 298
#     4  10  20  34  49  69  97 127 164 211 252 291
#     4  10  19  32  49  70  99 133 171 210 243 288
#     4  10  19  30  48  74 103 133 164 203 249 296
#     4  10  20  34  50  69  99 135 171 211 247 289
#     4   9  18  32  48  71 101 129 163 203 242 297
#     4  10  20  33  52  74  95 124 164 211 258 300
#     4  10  19  31  47  71  99 127 164 207 250 300
#
# _framework density 16.062951000000002
#
# number of rings (size 3 to 8) (size 9 to 14) (size 15 to 20)
#    0.000    2.250    2.500    1.875    0.000    5.250 
#    0.000    1.875    0.000    4.500    0.000    0.000 
#    0.000    0.000    0.000    0.000    0.000   10.000 
#
# Total GULP energy -713574.556060 kJ/mol
# GULP energy per Si atom -5574.801219 kJ/mol
# Density = 1.602639 g / cm^3
# Si number density = 16.062951 Si / 1000 Ang^3
#
#
#
# Elastic Constant Matrix: (Units=GPa)
#
#
# Indices 1 2 3 4 5 6 
#
# 1 76.2789 58.6618 42.2621 0.0000 0.0000 0.0000
# 2 58.6618 76.2789 42.2621 0.0000 0.0000 0.0000
# 3 42.2621 42.2621 65.5741 0.0000 0.0000 0.0000
# 4 0.0000 0.0000 0.0000 24.9530 0.0000 0.0000
# 5 0.0000 0.0000 0.0000 0.0000 24.9530 0.0000
# 6 0.0000 0.0000 0.0000 0.0000 0.0000 32.6759
#
#
#
# Elastic Compliance Matrix: (Units=1/GPa)
#
#
# Indices 1 2 3 4 5 6 
#
# 1 0.034595 -0.022168 -0.008010 0.000000 0.000000 0.000000
# 2 -0.022168 0.034595 -0.008010 0.000000 0.000000 0.000000
# 3 -0.008010 -0.008010 0.025574 0.000000 0.000000 0.000000
# 4 0.000000 0.000000 0.000000 0.040075 0.000000 0.000000
# 5 0.000000 0.000000 0.000000 0.000000 0.040075 0.000000
# 6 0.000000 0.000000 0.000000 0.000000 0.000000 0.030604
#
#
# Mechanical properties :
#
#
# Convention : Reuss Voigt Hill
#
# Bulk Modulus (GPa) = 54.37360 56.05596 55.21478
# Shear Modulus (GPa) = 17.35970 21.51276 19.43623
#
# Velocity S-wave (km/s) = 3.29101 3.66359 3.48228
# Velocity P-wave (km/s) = 6.95448 7.27112 7.11456
#
# Compressibility (1/GPa) = 0.01839128
#
# Stress axis : x y z
#
# Youngs Moduli (GPa) = 28.90557 28.90557 39.10195
#
# Poissons Ratio (x) = 0.64077 0.31319
# Poissons Ratio (y) = 0.64077 0.31319
# Poissons Ratio (z) = 0.23152 0.23152
#
# Static dielectric constant tensor:
#      x y z
#    x 1.536640 0.000000 0.000000 
#    y 0.000000 1.536640 0.000000 
#    z 0.000000 0.000000 1.546490 
# 
# From -- ./inp_files/9177.got.cif
#   From: 2010.05.17/outbox.cif.g08.bks.cpg/sg137_5_cif.got.tgz:9177.got - 2010.05.20 13:01:12.
