data_PCOD9570465
_publ_section_title
;
Structure prediction by ZEFSAII (Michael W. Deem and Ramdas Pophale) SiO2 
 PCOD9570465
Probable space group: P 42/N M C
;
_chemical_formula_sum "Si O2"
_cell_formula_units_Z 96
_cell_length_a 22.851224
_cell_length_b 22.851224
_cell_length_c 8.939791
_cell_angle_alpha 90.000000
_cell_angle_beta 90.000000
_cell_angle_gamma 90.000000
_cell_volume 4668.166103
_symmetry_space_group_name_H-M "P 42/N M C"
_symmetry_group_IT_number 137
_space_group.IT_coordinate_system_code '2'
_symmetry_cell_setting 'tetragonal'
loop_
_space_group_symop_operation_xyz
x,y,z
1/2-y,x,1/2+z
1/2-x,1/2-y,z
y,1/2-x,1/2+z
1/2+x,-y,-z
-x,1/2+y,-z
1/2+y,1/2+x,1/2-z
-y,-x,1/2-z
-x,-y,-z
1/2+y,-x,1/2-z
1/2+x,1/2+y,-z
-y,1/2+x,1/2-z
1/2-x,y,z
x,1/2-y,z
1/2-y,1/2-x,1/2+z
y,x,1/2+z
loop_
_atom_site_type_symbol
_atom_site_label
_atom_site_fract_x
_atom_site_fract_y
_atom_site_fract_z
Si Si1 0.180342 0.985155 0.428838
Si Si2 0.319635 0.584276 0.718731
Si Si3 0.601300 0.971347 0.828324
Si Si4 0.685511 0.811907 0.705189
Si Si5 0.086416 0.994728 0.851314
Si Si6 0.606991 0.851149 0.951677
O O1 0.250000 0.993248 0.403189
O O2 0.172739 0.931079 0.541737
O O3 0.143933 0.990254 0.274712
O O4 0.154482 0.038529 0.527455
O O5 0.357260 0.642740 0.750000
O O6 0.250000 0.588853 0.747630
O O7 0.348712 0.530897 0.816509
O O8 0.556547 0.936624 0.717459
O O9 0.629375 0.916821 0.919146
O O10 0.574301 0.006618 0.969613
O O11 0.750000 0.816459 0.774421
O O12 0.684058 0.750000 0.621944
O O13 0.633414 0.813255 0.820649
O O14 0.675062 0.865773 0.599616
O O15 0.048748 0.951253 0.750000
#
# Coordination Sequence:
#
# PCOD9570465 Si02
#       6
#    16  16  16  16  16  16
#     4  11  23  40  63  92 134 179 222 279 335 391
#     4  10  23  45  71 101 133 168 213 266 336 413
#     4  12  22  39  61  95 130 173 223 264 330 389
#     4  11  23  36  50  72 109 166 230 283 327 373
#     4  11  22  40  64  94 130 168 214 265 321 395
#     4  12  21  36  54  79 118 162 222 272 330 381
#
# _framework density 20.564819
#
# number of rings (size 3 to 8) (size 9 to 14) (size 15 to 20)
#    0.000    0.833    5.000    2.500    0.000    4.167 
#    0.000    0.000    0.000    0.000    0.000    0.000 
#    0.000    5.333    0.000    0.000    0.000    0.000 
#
# Total GULP energy -535135.562690 kJ/mol
# GULP energy per Si atom -5574.328778 kJ/mol
# Density = 2.051801 g / cm^3
# Si number density = 20.564819 Si / 1000 Ang^3
#
#
#
# Elastic Constant Matrix: (Units=GPa)
#
#
# Indices 1 2 3 4 5 6 
#
# 1 90.1581 35.3266 42.9129 0.0000 0.0000 0.0000
# 2 35.3266 90.1579 42.9121 0.0000 0.0000 0.0000
# 3 42.9129 42.9121 131.2902 0.0000 0.0000 0.0000
# 4 0.0000 0.0000 0.0000 30.4928 0.0000 0.0000
# 5 0.0000 0.0000 0.0000 0.0000 30.4934 0.0000
# 6 0.0000 0.0000 0.0000 0.0000 0.0000 29.8501
#
#
#
# Elastic Compliance Matrix: (Units=1/GPa)
#
#
# Indices 1 2 3 4 5 6 
#
# 1 0.014251 -0.003987 -0.003355 0.000000 0.000000 0.000000
# 2 -0.003987 0.014251 -0.003355 0.000000 0.000000 0.000000
# 3 -0.003355 -0.003355 0.009810 0.000000 0.000000 0.000000
# 4 0.000000 0.000000 0.000000 0.032795 0.000000 0.000000
# 5 0.000000 0.000000 0.000000 0.000000 0.032794 0.000000
# 6 0.000000 0.000000 0.000000 0.000000 0.000000 0.033501
#
#
# Mechanical properties :
#
#
# Convention : Reuss Voigt Hill
#
# Bulk Modulus (GPa) = 59.10835 61.54549 60.32692
# Shear Modulus (GPa) = 30.40762 30.86423 30.63592
#
# Velocity S-wave (km/s) = 3.84946 3.87825 3.86388
# Velocity P-wave (km/s) = 6.96869 7.07439 7.02174
#
# Compressibility (1/GPa) = 0.01691808
#
# Stress axis : x y z
#
# Youngs Moduli (GPa) = 70.17222 70.17251 101.94019
#
# Poissons Ratio (x) = 0.27978 0.34198
# Poissons Ratio (y) = 0.27978 0.34197
# Poissons Ratio (z) = 0.23541 0.23540
#
# Static dielectric constant tensor:
#      x y z
#    x 1.789920 0.000000 0.000000 
#    y 0.000000 1.789920 0.000000 
#    z 0.000000 0.000000 1.803370 
# 
# From -- ./inp_files/2140.got.cif
#   From: 2010.05.17/outbox.cif.g08.bks.cpg/sg137_2_cif.got.tgz:2140.got - 2010.05.20 13:01:12.
