data_PCOD9570054
_publ_section_title
;
Structure prediction by ZEFSAII (Michael W. Deem and Ramdas Pophale) SiO2 
 PCOD9570054
Probable space group: P 42/N M C
;
_chemical_formula_sum "Si O2"
_cell_formula_units_Z 112
_cell_length_a 13.522588
_cell_length_b 13.522588
_cell_length_c 34.701598
_cell_angle_alpha 90.000000
_cell_angle_beta 90.000000
_cell_angle_gamma 90.000000
_cell_volume 6345.547613
_symmetry_space_group_name_H-M "P 42/N M C"
_symmetry_group_IT_number 137
_space_group.IT_coordinate_system_code '2'
_symmetry_cell_setting 'tetragonal'
loop_
_space_group_symop_operation_xyz
x,y,z
1/2-y,x,1/2+z
1/2-x,1/2-y,z
y,1/2-x,1/2+z
1/2+x,-y,-z
-x,1/2+y,-z
1/2+y,1/2+x,1/2-z
-y,-x,1/2-z
-x,-y,-z
1/2+y,-x,1/2-z
1/2+x,1/2+y,-z
-y,1/2+x,1/2-z
1/2-x,y,z
x,1/2-y,z
1/2-y,1/2-x,1/2+z
y,x,1/2+z
loop_
_atom_site_type_symbol
_atom_site_label
_atom_site_fract_x
_atom_site_fract_y
_atom_site_fract_z
Si Si1 0.137551 0.133229 0.514145
Si Si2 0.551738 0.865175 0.070006
Si Si3 0.135799 0.513699 0.870954
Si Si4 0.369210 0.141928 0.806625
Si Si5 0.047221 0.365029 0.143494
Si Si6 0.488284 0.863914 0.415867
Si Si7 0.978566 0.633734 0.765724
O O1 0.250000 0.115726 0.528269
O O2 0.131032 0.250000 0.503938
O O3 0.122815 0.070445 0.475523
O O4 0.058654 0.113915 0.547361
O O5 0.571416 0.750000 0.079465
O O6 0.622031 0.941551 0.092606
O O7 0.442014 0.899377 0.082130
O O8 0.250000 0.541041 0.865879
O O9 0.100228 0.444934 0.835312
O O10 0.062428 0.606237 0.871820
O O11 0.250000 0.145904 0.810497
O O12 0.409143 0.250000 0.816632
O O13 0.390840 0.111893 0.762838
O O14 0.071012 0.250000 0.136046
O O15 0.046267 0.380885 0.189553
O O16 0.116770 0.441792 0.121076
O O17 0.457168 0.750000 0.417369
O O18 0.068993 0.568993 0.750000
O O19 0.001453 0.750000 0.760662
#
# Coordination Sequence:
#
# PCOD9570054 Si02
#       7
#    16  16  16  16  16  16  16
#     4   9  17  31  53  79 105 134 170 214 264 318
#     4  10  20  33  52  78 104 134 176 222 264 306
#     4  10  19  32  50  74 104 133 164 206 257 314
#     4   9  17  29  46  68  94 126 161 200 248 297
#     4  10  21  34  51  75 103 136 173 212 254 308
#     4  10  21  36  53  74 104 142 181 220 262 305
#     4  10  19  32  49  72 102 132 165 205 251 308
#
# _framework density 17.650171
#
# number of rings (size 3 to 8) (size 9 to 14) (size 15 to 20)
#    0.000    2.286    1.429    1.714    0.000    3.571 
#    0.000    2.857    0.000    0.000    0.000    4.000 
#    0.000    0.286    0.000    0.000    0.000    0.000 
#
# Total GULP energy -624304.863354 kJ/mol
# GULP energy per Si atom -5574.150566 kJ/mol
# Density = 1.761000 g / cm^3
# Si number density = 17.650171 Si / 1000 Ang^3
#
#
#
# Elastic Constant Matrix: (Units=GPa)
#
#
# Indices 1 2 3 4 5 6 
#
# 1 26.9468 -9.0119 -2.7447 0.0000 0.0000 0.0000
# 2 -9.0119 26.9468 -2.7447 0.0000 0.0000 0.0000
# 3 -2.7447 -2.7447 56.8262 0.0000 0.0000 0.0000
# 4 0.0000 0.0000 0.0000 20.3344 0.0000 0.0000
# 5 0.0000 0.0000 0.0000 0.0000 20.3344 0.0000
# 6 0.0000 0.0000 0.0000 0.0000 0.0000 8.9934
#
#
#
# Elastic Compliance Matrix: (Units=1/GPa)
#
#
# Indices 1 2 3 4 5 6 
#
# 1 0.042202 0.014392 0.002733 0.000000 0.000000 0.000000
# 2 0.014392 0.042202 0.002733 0.000000 0.000000 0.000000
# 3 0.002733 0.002733 0.017862 0.000000 0.000000 0.000000
# 4 0.000000 0.000000 0.000000 0.049178 0.000000 0.000000
# 5 0.000000 0.000000 0.000000 0.000000 0.049178 0.000000
# 6 0.000000 0.000000 0.000000 0.000000 0.000000 0.111193
#
#
# Mechanical properties :
#
#
# Convention : Reuss Voigt Hill
#
# Bulk Modulus (GPa) = 7.04312 9.07973 8.06142
# Shear Modulus (GPa) = 15.65323 18.28051 16.96687
#
# Velocity S-wave (km/s) = 2.98125 3.22174 3.10383
# Velocity P-wave (km/s) = 3.98115 4.35832 4.17399
#
# Compressibility (1/GPa) = 0.14198246
#
# Stress axis : x y z
#
# Youngs Moduli (GPa) = 23.69576 23.69576 55.98619
#
# Poissons Ratio (x) = -0.34103 -0.15303
# Poissons Ratio (y) = -0.34103 -0.15303
# Poissons Ratio (z) = -0.06477 -0.06477
#
# Static dielectric constant tensor:
#      x y z
#    x 1.593780 0.000000 0.000000 
#    y 0.000000 1.593780 0.000000 
#    z 0.000000 0.000000 1.622830 
# 
# From -- ./inp_files/10720.got.cif
#   From: 2010.05.17/outbox.cif.g08.bks.cpg/sg137_6_cif.got.tgz:10720.got - 2010.05.20 13:01:12.
