data_PCOD9570949
_publ_section_title
;
Structure prediction by ZEFSAII (Michael W. Deem and Ramdas Pophale) SiO2 
 PCOD9570949
Probable space group: P 42/N C M
;
_chemical_formula_sum "Si O2"
_cell_formula_units_Z 56
_cell_length_a 10.581388
_cell_length_b 10.581388
_cell_length_c 23.228190
_cell_angle_alpha 90.000000
_cell_angle_beta 90.000000
_cell_angle_gamma 90.000000
_cell_volume 2600.762226
_symmetry_space_group_name_H-M "P 42/N C M"
_symmetry_group_IT_number 138
_space_group.IT_coordinate_system_code '2'
_symmetry_cell_setting 'tetragonal'
loop_
_space_group_symop_operation_xyz
x,y,z
1/2-y,x,1/2+z
1/2-x,1/2-y,z
y,1/2-x,1/2+z
1/2+x,-y,1/2-z
-x,1/2+y,1/2-z
1/2+y,1/2+x,-z
-y,-x,-z
-x,-y,-z
1/2+y,-x,1/2-z
1/2+x,1/2+y,-z
-y,1/2+x,1/2-z
1/2-x,y,1/2+z
x,1/2-y,1/2+z
1/2-y,1/2-x,z
y,x,z
loop_
_atom_site_type_symbol
_atom_site_label
_atom_site_fract_x
_atom_site_fract_y
_atom_site_fract_z
Si Si1 0.105688 0.737756 0.168129
Si Si2 0.355317 0.355317 0.774935
Si Si3 0.358906 0.358906 0.529603
Si Si4 0.441947 0.058053 0.156684
Si Si5 0.976708 0.315946 0.455484
O O1 0.250000 0.750000 0.188232
O O2 0.078488 0.589655 0.166919
O O3 0.096339 0.784610 0.102260
O O4 0.993237 0.811453 0.201556
O O5 0.250000 0.250000 0.791359
O O6 0.366676 0.366676 0.706010
O O7 0.250000 0.250000 0.535762
O O8 0.401389 0.401389 0.592717
O O9 0.470143 0.301269 0.491148
O O10 0.893406 0.393406 0.500000
O O11 0.097216 0.402785 0.439001
#
# Coordination Sequence:
#
# PCOD9570949 Si02
#       5
#    16   8   8   8  16
#     4  12  27  46  76 109 146 195 257 309 370 448
#     4  12  29  53  77 100 153 205 252 313 382 440
#     4  10  22  41  69 104 148 184 242 303 363 450
#     4  12  28  45  73 110 141 199 251 309 375 442
#     4  10  21  41  68 104 147 194 235 297 377 439
#
# _framework density 21.532147999999999
#
# number of rings (size 3 to 8) (size 9 to 14) (size 15 to 20)
#    0.000    0.857    2.857    3.000    4.000    5.143 
#    2.571    0.000    0.000    0.000    0.000    0.000 
#    0.000    0.000    0.000    0.000    0.000    0.000 
#
# Total GULP energy -313398.406383 kJ/mol
# GULP energy per Si atom -5596.400114 kJ/mol
# Density = 2.148314 g / cm^3
# Si number density = 21.532148 Si / 1000 Ang^3
#
#
#
# Elastic Constant Matrix: (Units=GPa)
#
#
# Indices 1 2 3 4 5 6 
#
# 1 113.1921 39.2920 34.3260 0.0000 0.0000 0.0000
# 2 39.2920 113.1921 34.3260 0.0000 0.0000 0.0000
# 3 34.3260 34.3260 143.6235 0.0000 0.0000 0.0000
# 4 0.0000 0.0000 0.0000 -20.5491 0.0000 0.0000
# 5 0.0000 0.0000 0.0000 0.0000 -20.5491 0.0000
# 6 0.0000 0.0000 0.0000 0.0000 0.0000 20.7296
#
#
#
# Elastic Compliance Matrix: (Units=1/GPa)
#
#
# Indices 1 2 3 4 5 6 
#
# 1 0.010440 -0.003091 -0.001756 0.000000 0.000000 0.000000
# 2 -0.003091 0.010440 -0.001756 0.000000 0.000000 0.000000
# 3 -0.001756 -0.001756 0.007802 0.000000 0.000000 0.000000
# 4 0.000000 0.000000 0.000000 -0.048664 0.000000 0.000000
# 5 0.000000 0.000000 0.000000 0.000000 -0.048664 0.000000
# 6 0.000000 0.000000 0.000000 0.000000 0.000000 0.048240
#
#
# Mechanical properties :
#
#
# Convention : Reuss Voigt Hill
#
# Bulk Modulus (GPa) = 64.62303 65.09953 64.86128
# Shear Modulus (GPa) = -2452.99102 13.39719 -1219.79691
#
# Velocity S-wave (km/s) = -33.78899 2.49709 -23.82709
# Velocity P-wave (km/s) = 38.62879 6.21395 26.95895
#
# Compressibility (1/GPa) = 0.01547436
#
# Stress axis : x y z
#
# Youngs Moduli (GPa) = 95.78268 95.78268 128.16913
#
# Poissons Ratio (x) = 0.29611 0.22511
# Poissons Ratio (y) = 0.29611 0.22511
# Poissons Ratio (z) = 0.16823 0.16823
#
# Static dielectric constant tensor:
#      x y z
#    x 1.748640 0.000000 0.000000 
#    y 0.000000 1.748640 0.000000 
#    z 0.000000 0.000000 1.742440 
# 
# From -- ./inp_files/5774.got.cif
#   From: 2010.05.17/outbox.cif.g08.bks.cpg/sg138_3_cif.got.tgz:5774.got - 2010.05.20 13:08:53.
