data_PCOD9570562
_publ_section_title
;
Structure prediction by ZEFSAII (Michael W. Deem and Ramdas Pophale) SiO2 
 PCOD9570562
Probable space group: P 42/N C M
;
_chemical_formula_sum "Si O2"
_cell_formula_units_Z 96
_cell_length_a 15.319278
_cell_length_b 15.319278
_cell_length_c 22.899567
_cell_angle_alpha 90.000000
_cell_angle_beta 90.000000
_cell_angle_gamma 90.000000
_cell_volume 5374.076760
_symmetry_space_group_name_H-M "P 42/N C M"
_symmetry_group_IT_number 138
_space_group.IT_coordinate_system_code '2'
_symmetry_cell_setting 'tetragonal'
loop_
_space_group_symop_operation_xyz
x,y,z
1/2-y,x,1/2+z
1/2-x,1/2-y,z
y,1/2-x,1/2+z
1/2+x,-y,1/2-z
-x,1/2+y,1/2-z
1/2+y,1/2+x,-z
-y,-x,-z
-x,-y,-z
1/2+y,-x,1/2-z
1/2+x,1/2+y,-z
-y,1/2+x,1/2-z
1/2-x,y,1/2+z
x,1/2-y,1/2+z
1/2-y,1/2-x,z
y,x,z
loop_
_atom_site_type_symbol
_atom_site_label
_atom_site_fract_x
_atom_site_fract_y
_atom_site_fract_z
Si Si1 0.200400 0.442129 0.414010
Si Si2 0.166865 0.690372 0.930526
Si Si3 0.184573 0.619058 0.745703
Si Si4 0.560561 0.428163 0.141320
Si Si5 0.866805 0.488337 0.140908
Si Si6 0.455876 0.674130 0.968395
O O1 0.148323 0.351678 0.410763
O O2 0.142920 0.513819 0.378705
O O3 0.294727 0.445311 0.385082
O O4 0.198297 0.476781 0.481019
O O5 0.250000 0.750000 0.909068
O O6 0.150017 0.598823 0.898871
O O7 0.078838 0.745588 0.930770
O O8 0.178634 0.678634 0.000000
O O9 0.138156 0.712350 0.757919
O O10 0.147696 0.588236 0.684037
O O11 0.158626 0.548621 0.795115
O O12 0.492347 0.492347 0.171754
O O13 0.519081 0.393342 0.081402
O O14 0.959929 0.540072 0.139665
O O15 0.372696 0.627305 0.000000
#
# Coordination Sequence:
#
# PCOD9570562 Si02
#       6
#    16  16  16  16  16  16
#     4  10  20  36  56  80 113 153 196 237 288 357
#     4  11  19  34  59  85 119 156 191 238 293 349
#     4  11  23  38  60  84 112 151 197 247 300 353
#     4  10  19  34  56  83 114 142 187 247 298 343
#     4  12  25  39  57  87 122 158 200 243 299 358
#     4  10  17  31  56  88 113 146 188 236 294 349
#
# _framework density 17.863534000000001
#
# number of rings (size 3 to 8) (size 9 to 14) (size 15 to 20)
#    0.000    1.333    5.000    3.000    2.333    2.667 
#    0.000    0.000    0.000    0.000    0.000    0.000 
#    0.000    8.000    0.000    0.000    0.000    0.000 
#
# Total GULP energy -534850.989736 kJ/mol
# GULP energy per Si atom -5571.364476 kJ/mol
# Density = 1.782288 g / cm^3
# Si number density = 17.863534 Si / 1000 Ang^3
#
#
#
# Elastic Constant Matrix: (Units=GPa)
#
#
# Indices 1 2 3 4 5 6 
#
# 1 71.3414 65.6282 36.7216 0.0000 0.0000 0.0000
# 2 65.6282 71.3405 36.7205 0.0000 0.0000 0.0000
# 3 36.7216 36.7205 82.3409 0.0000 0.0000 0.0000
# 4 0.0000 0.0000 0.0000 10.9359 0.0000 0.0000
# 5 0.0000 0.0000 0.0000 0.0000 10.9360 0.0000
# 6 0.0000 0.0000 0.0000 0.0000 0.0000 34.2025
#
#
#
# Elastic Compliance Matrix: (Units=1/GPa)
#
#
# Indices 1 2 3 4 5 6 
#
# 1 0.092322 -0.082727 -0.004280 0.000000 0.000000 0.000000
# 2 -0.082727 0.092322 -0.004278 0.000000 0.000000 0.000000
# 3 -0.004280 -0.004278 0.015961 0.000000 0.000000 0.000000
# 4 0.000000 0.000000 0.000000 0.091442 0.000000 0.000000
# 5 0.000000 0.000000 0.000000 0.000000 0.091442 0.000000
# 6 0.000000 0.000000 0.000000 0.000000 0.000000 0.029238
#
#
# Mechanical properties :
#
#
# Convention : Reuss Voigt Hill
#
# Bulk Modulus (GPa) = 55.44660 55.90703 55.67681
# Shear Modulus (GPa) = 8.31521 16.94504 12.63012
#
# Velocity S-wave (km/s) = 2.15985 3.08325 2.66190
# Velocity P-wave (km/s) = 6.10953 6.63626 6.37833
#
# Compressibility (1/GPa) = 0.01803537
#
# Stress axis : x y z
#
# Youngs Moduli (GPa) = 10.83165 10.83167 62.65130
#
# Poissons Ratio (x) = 0.89607 0.26817
# Poissons Ratio (y) = 0.89607 0.26802
# Poissons Ratio (z) = 0.04636 0.04634
#
# Static dielectric constant tensor:
#      x y z
#    x 1.677740 0.000000 0.000000 
#    y 0.000000 1.677740 0.000000 
#    z 0.000000 0.000000 1.621290 
# 
# From -- ./inp_files/6266.got.cif
#   From: 2010.05.17/outbox.cif.g08.bks.cpg/sg138_4_cif.got.tgz:6266.got - 2010.05.20 13:08:53.
