data_PCOD9570680
_publ_section_title
;
Structure prediction by ZEFSAII (Michael W. Deem and Ramdas Pophale) SiO2 
 PCOD9570680
Probable space group: P 42/N C M
;
_chemical_formula_sum "Si O2"
_cell_formula_units_Z 96
_cell_length_a 21.671999
_cell_length_b 21.671999
_cell_length_c 9.135595
_cell_angle_alpha 90.000000
_cell_angle_beta 90.000000
_cell_angle_gamma 90.000000
_cell_volume 4290.765521
_symmetry_space_group_name_H-M "P 42/N C M"
_symmetry_group_IT_number 138
_space_group.IT_coordinate_system_code '2'
_symmetry_cell_setting 'tetragonal'
loop_
_space_group_symop_operation_xyz
x,y,z
1/2-y,x,1/2+z
1/2-x,1/2-y,z
y,1/2-x,1/2+z
1/2+x,-y,1/2-z
-x,1/2+y,1/2-z
1/2+y,1/2+x,-z
-y,-x,-z
-x,-y,-z
1/2+y,-x,1/2-z
1/2+x,1/2+y,-z
-y,1/2+x,1/2-z
1/2-x,y,1/2+z
x,1/2-y,1/2+z
1/2-y,1/2-x,z
y,x,z
loop_
_atom_site_type_symbol
_atom_site_label
_atom_site_fract_x
_atom_site_fract_y
_atom_site_fract_z
Si Si1 0.980656 0.845525 0.632440
Si Si2 0.387180 0.212717 0.638675
Si Si3 0.933077 0.116881 0.135717
Si Si4 0.503331 0.287910 0.932931
Si Si5 0.654987 0.937451 0.812234
Si Si6 0.184184 0.687350 0.674106
O O1 0.922898 0.822301 0.729789
O O2 0.018988 0.782493 0.601207
O O3 0.958793 0.864547 0.473282
O O4 0.020107 0.891969 0.731288
O O5 0.322254 0.177747 0.615987
O O6 0.433964 0.207991 0.501475
O O7 0.391661 0.285668 0.672304
O O8 0.864788 0.132358 0.190954
O O9 0.930660 0.069341 0.000000
O O10 0.954945 0.179812 0.053261
O O11 0.495504 0.323658 0.781729
O O12 0.599343 0.900658 0.740179
O O13 0.194840 0.694840 0.500000
O O14 0.167331 0.752389 0.747313
#
# Coordination Sequence:
#
# PCOD9570680 Si02
#       6
#    16  16  16  16  16  16
#     4   9  19  35  54  79 112 148 193 234 276 335
#     4   9  17  32  55  83 118 153 182 225 282 349
#     4  10  22  37  58  80 106 148 196 234 275 334
#     4   9  19  36  54  80 114 149 193 231 278 343
#     4  10  19  33  57  85 114 151 188 235 291 339
#     4  10  21  38  55  83 121 151 176 213 288 360
#
# _framework density 22.373631
#
# number of rings (size 3 to 8) (size 9 to 14) (size 15 to 20)
#    0.000    2.500    0.000    3.000    4.667    0.333 
#    0.000    0.833    0.000   25.000    0.000    0.000 
#    0.000    0.000    0.000    0.000    0.000    0.000 
#
# Total GULP energy -535634.608363 kJ/mol
# GULP energy per Si atom -5579.527170 kJ/mol
# Density = 2.232271 g / cm^3
# Si number density = 22.373631 Si / 1000 Ang^3
#
#
#
# Elastic Constant Matrix: (Units=GPa)
#
#
# Indices 1 2 3 4 5 6 
#
# 1 34.7870 30.6835 4.2853 0.0000 0.0000 0.0000
# 2 30.6835 34.7876 4.2852 0.0000 0.0000 0.0000
# 3 4.2853 4.2852 83.9309 0.0000 0.0000 0.0000
# 4 0.0000 0.0000 0.0000 22.5741 0.0000 0.0000
# 5 0.0000 0.0000 0.0000 0.0000 22.5739 0.0000
# 6 0.0000 0.0000 0.0000 0.0000 0.0000 10.2703
#
#
#
# Elastic Compliance Matrix: (Units=1/GPa)
#
#
# Indices 1 2 3 4 5 6 
#
# 1 0.129529 -0.114151 -0.000785 0.000000 0.000000 0.000000
# 2 -0.114151 0.129527 -0.000785 0.000000 0.000000 0.000000
# 3 -0.000785 -0.000785 0.011995 0.000000 0.000000 0.000000
# 4 0.000000 0.000000 0.000000 0.044299 0.000000 0.000000
# 5 0.000000 0.000000 0.000000 0.000000 0.044299 0.000000
# 6 0.000000 0.000000 0.000000 0.000000 0.000000 0.097368
#
#
# Mechanical properties :
#
#
# Convention : Reuss Voigt Hill
#
# Bulk Modulus (GPa) = 25.24749 25.77927 25.51338
# Shear Modulus (GPa) = 7.12595 18.70042 12.91318
#
# Velocity S-wave (km/s) = 1.78659 2.89420 2.40502
# Velocity P-wave (km/s) = 3.94523 4.76610 4.37496
#
# Compressibility (1/GPa) = 0.03960790
#
# Stress axis : x y z
#
# Youngs Moduli (GPa) = 7.72029 7.72043 83.36990
#
# Poissons Ratio (x) = 0.88129 0.06546
# Poissons Ratio (y) = 0.88128 0.06544
# Poissons Ratio (z) = 0.00606 0.00606
#
# Static dielectric constant tensor:
#      x y z
#    x 1.850290 0.000000 0.000000 
#    y 0.000000 1.850290 0.000000 
#    z 0.000000 0.000000 1.836310 
# 
# From -- ./inp_files/1751.got.cif
#   From: 2010.05.17/outbox.cif.g08.bks.cpg/sg138_1_cif.got.tgz:1751.got - 2010.05.20 13:08:53.
