data_PCOD9570835
_publ_section_title
;
Structure prediction by ZEFSAII (Michael W. Deem and Ramdas Pophale) SiO2 
 PCOD9570835
Probable space group: P 42/N C M
;
_chemical_formula_sum "Si O2"
_cell_formula_units_Z 116
_cell_length_a 17.988760
_cell_length_b 17.988760
_cell_length_c 14.932020
_cell_angle_alpha 90.000000
_cell_angle_beta 90.000000
_cell_angle_gamma 90.000000
_cell_volume 4831.934274
_symmetry_space_group_name_H-M "P 42/N C M"
_symmetry_group_IT_number 138
_space_group.IT_coordinate_system_code '2'
_symmetry_cell_setting 'tetragonal'
loop_
_space_group_symop_operation_xyz
x,y,z
1/2-y,x,1/2+z
1/2-x,1/2-y,z
y,1/2-x,1/2+z
1/2+x,-y,1/2-z
-x,1/2+y,1/2-z
1/2+y,1/2+x,-z
-y,-x,-z
-x,-y,-z
1/2+y,-x,1/2-z
1/2+x,1/2+y,-z
-y,1/2+x,1/2-z
1/2-x,y,1/2+z
x,1/2-y,1/2+z
1/2-y,1/2-x,z
y,x,z
loop_
_atom_site_type_symbol
_atom_site_label
_atom_site_fract_x
_atom_site_fract_y
_atom_site_fract_z
Si Si1 0.586818 0.466272 0.328868
Si Si2 0.011924 0.597765 0.627447
Si Si3 0.250000 0.250000 0.910000
Si Si4 0.870305 0.747818 0.874741
Si Si5 0.672901 0.158977 0.596094
Si Si6 0.303426 0.563643 0.392142
Si Si7 0.588527 0.737893 0.166652
Si Si8 0.033421 0.743380 0.904583
O O1 0.531235 0.531235 0.359681
O O2 0.573545 0.455380 0.223573
O O3 0.578946 0.389226 0.379147
O O4 0.673056 0.484557 0.341978
O O5 0.078044 0.637177 0.577633
O O6 0.971563 0.528438 0.584749
O O7 0.949715 0.658688 0.649672
O O8 0.250133 0.157732 0.898828
O O9 0.832323 0.667678 0.900326
O O10 0.807885 0.807885 0.899409
O O11 0.878797 0.746011 0.766584
O O12 0.949868 0.775385 0.912297
O O13 0.692865 0.192865 0.500000
O O14 0.749482 0.131359 0.643207
O O15 0.603825 0.208824 0.631408
O O16 0.289662 0.483683 0.346530
O O17 0.285041 0.555242 0.497008
#
# Coordination Sequence:
#
# PCOD9570835 Si02
#       8
#    16  16   4  16  16  16  16  16
#     4  11  24  39  64  94 127 166 209 261 328 384
#     4  10  20  37  62  91 125 164 208 259 315 370
#     4  12  20  36  68  90 120 182 210 246 328 380
#     4  11  21  38  60  92 126 166 208 259 314 381
#     4   9  22  42  62  88 122 163 215 266 319 374
#     4  10  25  43  61  92 126 163 212 270 318 387
#     4  11  20  39  62  90 125 162 211 257 311 378
#     4  11  23  43  65  88 126 169 210 265 322 383
#
# _framework density 24.006948000000001
#
# number of rings (size 3 to 8) (size 9 to 14) (size 15 to 20)
#    0.000    1.517    3.448    0.828    2.897    3.034 
#    1.241    3.448    0.000    1.655    0.000    0.000 
#    0.000    0.000    0.000    0.000    0.000    0.000 
#
# Total GULP energy -646451.496577 kJ/mol
# GULP energy per Si atom -5572.857729 kJ/mol
# Density = 2.395231 g / cm^3
# Si number density = 24.006948 Si / 1000 Ang^3
#
#
#
# Elastic Constant Matrix: (Units=GPa)
#
#
# Indices 1 2 3 4 5 6 
#
# 1 116.4063 78.6382 13.4831 0.0000 0.0000 0.0000
# 2 78.6382 116.4063 13.4831 0.0000 0.0000 0.0000
# 3 13.4831 13.4831 43.8414 0.0000 0.0000 0.0000
# 4 0.0000 0.0000 0.0000 30.7737 0.0000 0.0000
# 5 0.0000 0.0000 0.0000 0.0000 30.7737 0.0000
# 6 0.0000 0.0000 0.0000 0.0000 0.0000 57.1494
#
#
#
# Elastic Compliance Matrix: (Units=1/GPa)
#
#
# Indices 1 2 3 4 5 6 
#
# 1 0.015916 -0.010561 -0.001647 0.000000 0.000000 0.000000
# 2 -0.010561 0.015916 -0.001647 0.000000 0.000000 0.000000
# 3 -0.001647 -0.001647 0.023822 0.000000 0.000000 0.000000
# 4 0.000000 0.000000 0.000000 0.032495 0.000000 0.000000
# 5 0.000000 0.000000 0.000000 0.000000 0.032495 0.000000
# 6 0.000000 0.000000 0.000000 0.000000 0.000000 0.017498
#
#
# Mechanical properties :
#
#
# Convention : Reuss Voigt Hill
#
# Bulk Modulus (GPa) = 35.78501 54.20695 44.99598
# Shear Modulus (GPa) = 28.54408 35.14268 31.84338
#
# Velocity S-wave (km/s) = 3.45192 3.83019 3.64596
# Velocity P-wave (km/s) = 5.55213 6.49532 6.04215
#
# Compressibility (1/GPa) = 0.02794466
#
# Stress axis : x y z
#
# Youngs Moduli (GPa) = 62.82973 62.82973 41.97724
#
# Poissons Ratio (x) = 0.66356 0.06913
# Poissons Ratio (y) = 0.66356 0.06913
# Poissons Ratio (z) = 0.10347 0.10347
#
# Static dielectric constant tensor:
#      x y z
#    x 2.004260 0.000000 0.000000 
#    y 0.000000 2.004260 0.000000 
#    z 0.000000 0.000000 1.965720 
# 
# From -- ./inp_files/5352.got.cif
#   From: 2010.05.17/outbox.cif.g08.bks.cpg/sg138_3_cif.got.tgz:5352.got - 2010.05.20 13:08:53.
