data_PCOD9570521
_publ_section_title
;
Structure prediction by ZEFSAII (Michael W. Deem and Ramdas Pophale) SiO2 
 PCOD9570521
Probable space group: P 42/N M C
;
_chemical_formula_sum "Si O2"
_cell_formula_units_Z 96
_cell_length_a 13.440294
_cell_length_b 13.440294
_cell_length_c 21.807644
_cell_angle_alpha 90.000000
_cell_angle_beta 90.000000
_cell_angle_gamma 90.000000
_cell_volume 3939.365585
_symmetry_space_group_name_H-M "P 42/N M C"
_symmetry_group_IT_number 137
_space_group.IT_coordinate_system_code '2'
_symmetry_cell_setting 'tetragonal'
loop_
_space_group_symop_operation_xyz
x,y,z
1/2-y,x,1/2+z
1/2-x,1/2-y,z
y,1/2-x,1/2+z
1/2+x,-y,-z
-x,1/2+y,-z
1/2+y,1/2+x,1/2-z
-y,-x,1/2-z
-x,-y,-z
1/2+y,-x,1/2-z
1/2+x,1/2+y,-z
-y,1/2+x,1/2-z
1/2-x,y,z
x,1/2-y,z
1/2-y,1/2-x,1/2+z
y,x,1/2+z
loop_
_atom_site_type_symbol
_atom_site_label
_atom_site_fract_x
_atom_site_fract_y
_atom_site_fract_z
Si Si1 0.435991 0.365584 0.684225
Si Si2 0.071363 0.636391 0.854019
Si Si3 0.867605 0.360400 0.876321
Si Si4 0.869253 0.639160 0.550005
Si Si5 0.445096 0.870097 0.989969
Si Si6 0.132896 0.429517 0.812973
O O1 0.418289 0.250000 0.666081
O O2 0.368214 0.451205 0.653585
O O3 0.547303 0.397785 0.665355
O O4 0.420388 0.377145 0.756588
O O5 0.104264 0.750000 0.842671
O O6 0.115570 0.548397 0.812870
O O7 0.096658 0.602974 0.923785
O O8 0.750000 0.352765 0.866780
O O9 0.910510 0.250000 0.864290
O O10 0.885792 0.386820 0.947505
O O11 0.750000 0.643809 0.543546
O O12 0.909540 0.750000 0.540497
O O13 0.907866 0.556965 0.502952
O O14 0.890011 0.605315 0.619600
O O15 0.451992 0.750000 0.985184
O O16 0.250000 0.409351 0.805757
#
# Coordination Sequence:
#
# PCOD9570521 Si02
#       6
#    16  16  16  16  16  16
#     4  11  24  42  66  94 125 164 209 261 320 377
#     4  11  25  43  63  92 128 167 212 261 317 378
#     4   9  19  38  66  99 132 166 204 248 305 376
#     4   9  18  34  59  90 122 160 206 256 312 372
#     4   9  19  37  61  90 129 168 203 254 312 370
#     4  11  24  42  64  90 122 164 218 271 315 368
#
# _framework density 24.369406000000001
#
# number of rings (size 3 to 8) (size 9 to 14) (size 15 to 20)
#    0.000    2.000    0.000    2.500    0.000    6.333 
#    0.000   11.667    0.000    3.000    0.000    4.667 
#    0.000    0.000    0.000    0.000    0.000    0.000 
#
# Total GULP energy -537143.866774 kJ/mol
# GULP energy per Si atom -5595.248612 kJ/mol
# Density = 2.431394 g / cm^3
# Si number density = 24.369406 Si / 1000 Ang^3
#
#
#
# Elastic Constant Matrix: (Units=GPa)
#
#
# Indices 1 2 3 4 5 6 
#
# 1 70.4190 7.0610 1.9588 0.0000 0.0000 0.0000
# 2 7.0610 70.4190 1.9588 0.0000 0.0000 0.0000
# 3 1.9588 1.9588 60.4623 0.0000 0.0000 0.0000
# 4 0.0000 0.0000 0.0000 30.9036 0.0000 0.0000
# 5 0.0000 0.0000 0.0000 0.0000 30.9036 0.0000
# 6 0.0000 0.0000 0.0000 0.0000 0.0000 28.5709
#
#
#
# Elastic Compliance Matrix: (Units=1/GPa)
#
#
# Indices 1 2 3 4 5 6 
#
# 1 0.014356 -0.001428 -0.000419 0.000000 0.000000 0.000000
# 2 -0.001428 0.014356 -0.000419 0.000000 0.000000 0.000000
# 3 -0.000419 -0.000419 0.016566 0.000000 0.000000 0.000000
# 4 0.000000 0.000000 0.000000 0.032359 0.000000 0.000000
# 5 0.000000 0.000000 0.000000 0.000000 0.032359 0.000000
# 6 0.000000 0.000000 0.000000 0.000000 0.000000 0.035001
#
#
# Mechanical properties :
#
#
# Convention : Reuss Voigt Hill
#
# Bulk Modulus (GPa) = 24.54194 24.80637 24.67416
# Shear Modulus (GPa) = 30.65442 30.76372 30.70907
#
# Velocity S-wave (km/s) = 3.55054 3.55687 3.55371
# Velocity P-wave (km/s) = 5.18663 5.20287 5.19476
#
# Compressibility (1/GPa) = 0.04074658
#
# Stress axis : x y z
#
# Youngs Moduli (GPa) = 69.65958 69.65958 60.36324
#
# Poissons Ratio (x) = 0.09946 0.02528
# Poissons Ratio (y) = 0.09946 0.02528
# Poissons Ratio (z) = 0.02917 0.02917
#
# Static dielectric constant tensor:
#      x y z
#    x 1.974970 0.000000 0.000000 
#    y 0.000000 1.974970 0.000000 
#    z 0.000000 0.000000 1.895580 
# 
# From -- ./inp_files/7823.got.cif
#   From: 2010.05.17/outbox.cif.g08.bks.cpg/sg137_4_cif.got.tgz:7823.got - 2010.05.20 13:01:12.
