data_PCOD9570247
_publ_section_title
;
Structure prediction by ZEFSAII (Michael W. Deem and Ramdas Pophale) SiO2 
 PCOD9570247
Probable space group: P 42/N M C
;
_chemical_formula_sum "Si O2"
_cell_formula_units_Z 96
_cell_length_a 16.331623
_cell_length_b 16.331623
_cell_length_c 19.686032
_cell_angle_alpha 90.000000
_cell_angle_beta 90.000000
_cell_angle_gamma 90.000000
_cell_volume 5250.696052
_symmetry_space_group_name_H-M "P 42/N M C"
_symmetry_group_IT_number 137
_space_group.IT_coordinate_system_code '2'
_symmetry_cell_setting 'tetragonal'
loop_
_space_group_symop_operation_xyz
x,y,z
1/2-y,x,1/2+z
1/2-x,1/2-y,z
y,1/2-x,1/2+z
1/2+x,-y,-z
-x,1/2+y,-z
1/2+y,1/2+x,1/2-z
-y,-x,1/2-z
-x,-y,-z
1/2+y,-x,1/2-z
1/2+x,1/2+y,-z
-y,1/2+x,1/2-z
1/2-x,y,z
x,1/2-y,z
1/2-y,1/2-x,1/2+z
y,x,1/2+z
loop_
_atom_site_type_symbol
_atom_site_label
_atom_site_fract_x
_atom_site_fract_y
_atom_site_fract_z
Si Si1 0.345267 0.601033 0.176850
Si Si2 0.475447 0.045823 0.183026
Si Si3 0.156415 0.349166 0.397745
Si Si4 0.987797 0.425245 0.449575
Si Si5 0.840861 0.652301 0.760303
Si Si6 0.847513 0.338166 0.971315
O O1 0.355694 0.644307 0.250000
O O2 0.250000 0.576391 0.170503
O O3 0.409068 0.526879 0.175923
O O4 0.366866 0.651436 0.108916
O O5 0.536320 0.045385 0.120210
O O6 0.416372 0.122611 0.195183
O O7 0.527541 0.027541 0.250000
O O8 0.250000 0.372766 0.419655
O O9 0.153402 0.250000 0.400285
O O10 0.148576 0.375290 0.318324
O O11 0.076691 0.383683 0.436269
O O12 0.916962 0.372718 0.485293
O O13 0.000000 0.500000 0.500000
O O14 0.750000 0.623911 0.782944
O O15 0.839241 0.750000 0.759056
O O16 0.750000 0.334260 0.975465
O O17 0.881893 0.250000 0.994794
#
# Coordination Sequence:
#
# PCOD9570247 Si02
#       6
#    16  16  16  16  16  16
#     4  10  20  35  57  84 115 149 188 231 279 345
#     4  11  21  36  55  84 116 148 186 232 290 345
#     4   9  19  38  63  86 111 150 198 243 289 348
#     4  12  23  38  56  87 121 154 194 237 292 351
#     4   9  18  35  60  87 113 145 189 240 292 347
#     4  10  22  40  60  82 114 158 200 240 289 344
#
# _framework density 18.283290999999998
#
# number of rings (size 3 to 8) (size 9 to 14) (size 15 to 20)
#    0.000    1.833    3.333    2.500    0.000    2.167 
#    0.000    0.000    0.000    2.000    0.000    1.167 
#    0.000    0.000    0.000    0.000    0.000    0.000 
#
# Total GULP energy -535026.171222 kJ/mol
# GULP energy per Si atom -5573.189284 kJ/mol
# Density = 1.824168 g / cm^3
# Si number density = 18.283291 Si / 1000 Ang^3
#
#
#
# Elastic Constant Matrix: (Units=GPa)
#
#
# Indices 1 2 3 4 5 6 
#
# 1 77.8633 43.6894 44.7630 0.0000 0.0000 0.0000
# 2 43.6894 77.8631 44.7630 0.0000 0.0000 0.0000
# 3 44.7630 44.7630 101.4346 0.0000 0.0000 0.0000
# 4 0.0000 0.0000 0.0000 26.5132 0.0000 0.0000
# 5 0.0000 0.0000 0.0000 0.0000 26.5128 0.0000
# 6 0.0000 0.0000 0.0000 0.0000 0.0000 28.0532
#
#
#
# Elastic Compliance Matrix: (Units=1/GPa)
#
#
# Indices 1 2 3 4 5 6 
#
# 1 0.020725 -0.008537 -0.005379 0.000000 0.000000 0.000000
# 2 -0.008537 0.020725 -0.005379 0.000000 0.000000 0.000000
# 3 -0.005379 -0.005379 0.014606 0.000000 0.000000 0.000000
# 4 0.000000 0.000000 0.000000 0.037717 0.000000 0.000000
# 5 0.000000 0.000000 0.000000 0.000000 0.037718 0.000000
# 6 0.000000 0.000000 0.000000 0.000000 0.000000 0.035647
#
#
# Mechanical properties :
#
#
# Convention : Reuss Voigt Hill
#
# Bulk Modulus (GPa) = 57.24838 58.17685 57.71261
# Shear Modulus (GPa) = 23.63517 24.47887 24.05702
#
# Velocity S-wave (km/s) = 3.59934 3.66302 3.63132
# Velocity P-wave (km/s) = 6.97521 7.05543 7.01543
#
# Compressibility (1/GPa) = 0.01746774
#
# Stress axis : x y z
#
# Youngs Moduli (GPa) = 48.25018 48.25005 68.46573
#
# Poissons Ratio (x) = 0.41191 0.36826
# Poissons Ratio (y) = 0.41191 0.36826
# Poissons Ratio (z) = 0.25953 0.25953
#
# Static dielectric constant tensor:
#      x y z
#    x 1.655250 0.000000 0.000000 
#    y 0.000000 1.655240 0.000000 
#    z 0.000000 0.000000 1.549350 
# 
# From -- ./inp_files/7842.got.cif
#   From: 2010.05.17/outbox.cif.g08.bks.cpg/sg137_4_cif.got.tgz:7842.got - 2010.05.20 13:01:12.
