data_PCOD9570136
_publ_section_title
;
Structure prediction by ZEFSAII (Michael W. Deem and Ramdas Pophale) SiO2 
 PCOD9570136
Probable space group: P 42/N M C
;
_chemical_formula_sum "Si O2"
_cell_formula_units_Z 44
_cell_length_a 17.331061
_cell_length_b 17.331061
_cell_length_c 8.723554
_cell_angle_alpha 90.000000
_cell_angle_beta 90.000000
_cell_angle_gamma 90.000000
_cell_volume 2620.256189
_symmetry_space_group_name_H-M "P 42/N M C"
_symmetry_group_IT_number 137
_space_group.IT_coordinate_system_code '2'
_symmetry_cell_setting 'tetragonal'
loop_
_space_group_symop_operation_xyz
x,y,z
1/2-y,x,1/2+z
1/2-x,1/2-y,z
y,1/2-x,1/2+z
1/2+x,-y,-z
-x,1/2+y,-z
1/2+y,1/2+x,1/2-z
-y,-x,1/2-z
-x,-y,-z
1/2+y,-x,1/2-z
1/2+x,1/2+y,-z
-y,1/2+x,1/2-z
1/2-x,y,z
x,1/2-y,z
1/2-y,1/2-x,1/2+z
y,x,1/2+z
loop_
_atom_site_type_symbol
_atom_site_label
_atom_site_fract_x
_atom_site_fract_y
_atom_site_fract_z
Si Si1 0.620147 0.487654 0.954525
Si Si2 0.473049 0.973049 0.750000
Si Si3 0.160573 0.839428 0.250000
Si Si4 0.250000 0.116520 0.053089
Si Si5 0.750000 0.750000 0.696913
O O1 0.547571 0.519675 0.858295
O O2 0.647332 0.407537 0.875020
O O3 0.679419 0.557572 0.947067
O O4 0.596917 0.472902 0.130596
O O5 0.250000 0.847400 0.305216
O O6 0.250000 0.173796 0.198054
O O7 0.250000 0.174012 0.908625
#
# Coordination Sequence:
#
# PCOD9570136 Si02
#       5
#    16   8   8   8   4
#     4  10  19  36  59  80 114 147 185 225 283 327
#     4   9  20  35  56  86 108 145 188 229 262 342
#     4  10  20  37  56  80 108 147 192 234 276 330
#     4  11  20  38  55  84 110 154 169 234 272 339
#     4  10  24  34  56  86 120 134 192 218 280 338
#
# _framework density 16.792251
#
# number of rings (size 3 to 8) (size 9 to 14) (size 15 to 20)
#    0.000    2.000    1.818    2.182    0.000    0.000 
#    3.273    0.000    0.000    2.182    0.000    0.000 
#    0.000    0.000    0.000    0.000    0.000    0.000 
#
# Total GULP energy -245050.540622 kJ/mol
# GULP energy per Si atom -5569.330469 kJ/mol
# Density = 1.675403 g / cm^3
# Si number density = 16.792251 Si / 1000 Ang^3
#
#
#
# Elastic Constant Matrix: (Units=GPa)
#
#
# Indices 1 2 3 4 5 6 
#
# 1 123.1198 69.5871 61.8420 0.0000 0.0000 0.0000
# 2 69.5871 123.1182 61.8421 0.0000 0.0000 0.0000
# 3 61.8420 61.8421 123.0916 0.0000 0.0000 0.0000
# 4 0.0000 0.0000 0.0000 15.8046 0.0000 0.0000
# 5 0.0000 0.0000 0.0000 0.0000 15.8043 0.0000
# 6 0.0000 0.0000 0.0000 0.0000 0.0000 30.8187
#
#
#
# Elastic Compliance Matrix: (Units=1/GPa)
#
#
# Indices 1 2 3 4 5 6 
#
# 1 0.013170 -0.005511 -0.003848 0.000000 0.000000 0.000000
# 2 -0.005511 0.013170 -0.003848 0.000000 0.000000 0.000000
# 3 -0.003848 -0.003848 0.011990 0.000000 0.000000 0.000000
# 4 0.000000 0.000000 0.000000 0.063273 0.000000 0.000000
# 5 0.000000 0.000000 0.000000 0.000000 0.063274 0.000000
# 6 0.000000 0.000000 0.000000 0.000000 0.000000 0.032448
#
#
# Mechanical properties :
#
#
# Convention : Reuss Voigt Hill
#
# Bulk Modulus (GPa) = 83.91568 83.98578 83.95073
# Shear Modulus (GPa) = 21.95775 24.22272 23.09023
#
# Velocity S-wave (km/s) = 3.62001 3.80214 3.71219
# Velocity P-wave (km/s) = 8.21913 8.33056 8.27503
#
# Compressibility (1/GPa) = 0.01191672
#
# Stress axis : x y z
#
# Youngs Moduli (GPa) = 75.93251 75.93115 83.39962
#
# Poissons Ratio (x) = 0.41844 0.32091
# Poissons Ratio (y) = 0.41845 0.32092
# Poissons Ratio (z) = 0.29218 0.29218
#
# Static dielectric constant tensor:
#      x y z
#    x 1.566330 0.000000 0.000000 
#    y 0.000000 1.566330 0.000000 
#    z 0.000000 0.000000 1.555220 
# 
# From -- ./inp_files/1363.got.cif
#   From: 2010.05.17/outbox.cif.g08.bks.cpg/sg137_1_cif.got.tgz:1363.got - 2010.05.20 13:01:12.
