data_PCOD9570545
_publ_section_title
;
Structure prediction by ZEFSAII (Michael W. Deem and Ramdas Pophale) SiO2 
 PCOD9570545
Probable space group: P 42/N M C
;
_chemical_formula_sum "Si O2"
_cell_formula_units_Z 96
_cell_length_a 15.000000
_cell_length_b 15.000000
_cell_length_c 21.000000
_cell_angle_alpha 90.000000
_cell_angle_beta 90.000000
_cell_angle_gamma 90.000000
_cell_volume 4725.000000
_symmetry_space_group_name_H-M "P 42/N M C"
_symmetry_group_IT_number 137
_space_group.IT_coordinate_system_code '2'
_symmetry_cell_setting 'tetragonal'
loop_
_space_group_symop_operation_xyz
x,y,z
1/2-y,x,1/2+z
1/2-x,1/2-y,z
y,1/2-x,1/2+z
1/2+x,-y,-z
-x,1/2+y,-z
1/2+y,1/2+x,1/2-z
-y,-x,1/2-z
-x,-y,-z
1/2+y,-x,1/2-z
1/2+x,1/2+y,-z
-y,1/2+x,1/2-z
1/2-x,y,z
x,1/2-y,z
1/2-y,1/2-x,1/2+z
y,x,1/2+z
loop_
_atom_site_type_symbol
_atom_site_label
_atom_site_fract_x
_atom_site_fract_y
_atom_site_fract_z
Si Si1 0.407318 0.352263 0.450797
Si Si2 0.150018 0.871273 0.143174
Si Si3 0.346684 0.463755 0.569749
Si Si4 0.554603 0.850640 0.175097
Si Si5 0.851060 0.573700 0.819359
Si Si6 0.151118 0.887685 0.990977
O O1 0.375962 0.250000 0.443173
O O2 0.355930 0.407766 0.504553
O O3 0.405441 0.404928 0.383908
O O4 0.506527 0.348613 0.479603
O O5 0.250000 0.834865 0.157018
O O6 0.053329 0.843980 0.170533
O O7 0.158369 0.969483 0.170135
O O8 0.139730 0.867821 0.066144
O O9 0.250000 0.450197 0.597104
O O10 0.404900 0.422263 0.625800
O O11 0.356790 0.566369 0.549299
O O12 0.588882 0.750000 0.166084
O O13 0.585505 0.879816 0.245727
O O14 0.750000 0.612907 0.829050
O O15 0.250000 0.854597 0.972399
#
# Coordination Sequence:
#
# PCOD9570545 Si02
#       6
#    16  16  16  16  16  16
#     4  11  22  38  60  85 117 160 208 253 298 357
#     4  10  19  36  60  85 117 159 202 245 299 366
#     4  12  23  37  61  89 118 156 202 251 308 370
#     4  11  23  37  56  88 125 160 200 251 307 362
#     4  10  22  39  57  82 119 162 205 249 297 358
#     4  10  21  38  62  88 118 153 196 252 305 361
#
# _framework density 20.317460000000001
#
# number of rings (size 3 to 8) (size 9 to 14) (size 15 to 20)
#    0.000    1.333    3.333    3.000    0.000    3.667 
#    0.000    3.333    0.000    3.000    0.000    0.000 
#    0.000    2.667    0.000    0.000    0.000    0.167 
#
# Total GULP energy -534699.730641 kJ/mol
# GULP energy per Si atom -5569.788861 kJ/mol
# Density = 2.027122 g / cm^3
# Si number density = 20.317460 Si / 1000 Ang^3
#
#
#
# Elastic Constant Matrix: (Units=GPa)
#
#
# Indices 1 2 3 4 5 6 
#
# 1 78.7939 18.2021 23.2155 0.0000 0.0000 0.0000
# 2 18.2021 78.7939 23.2155 0.0000 0.0000 0.0000
# 3 23.2155 23.2155 114.4108 0.0000 0.0000 0.0000
# 4 0.0000 0.0000 0.0000 23.1206 0.0000 0.0000
# 5 0.0000 0.0000 0.0000 0.0000 23.1206 0.0000
# 6 0.0000 0.0000 0.0000 0.0000 0.0000 8.6139
#
#
#
# Elastic Compliance Matrix: (Units=1/GPa)
#
#
# Indices 1 2 3 4 5 6 
#
# 1 0.013961 -0.002543 -0.002317 0.000000 0.000000 0.000000
# 2 -0.002543 0.013961 -0.002317 0.000000 0.000000 0.000000
# 3 -0.002317 -0.002317 0.009681 0.000000 0.000000 0.000000
# 4 0.000000 0.000000 0.000000 0.043251 0.000000 0.000000
# 5 0.000000 0.000000 0.000000 0.000000 0.043251 0.000000
# 6 0.000000 0.000000 0.000000 0.000000 0.000000 0.116092
#
#
# Mechanical properties :
#
#
# Convention : Reuss Voigt Hill
#
# Bulk Modulus (GPa) = 43.01021 44.58498 43.79760
# Shear Modulus (GPa) = 19.06203 24.79538 21.92870
#
# Velocity S-wave (km/s) = 3.06634 3.49721 3.28884
# Velocity P-wave (km/s) = 5.80962 6.18863 6.00211
#
# Compressibility (1/GPa) = 0.02325029
#
# Stress axis : x y z
#
# Youngs Moduli (GPa) = 71.62622 71.62622 103.29772
#
# Poissons Ratio (x) = 0.18211 0.23935
# Poissons Ratio (y) = 0.18211 0.23935
# Poissons Ratio (z) = 0.16596 0.16596
#
# Static dielectric constant tensor:
#      x y z
#    x 1.727080 0.000000 0.000000 
#    y 0.000000 1.727080 0.000000 
#    z 0.000000 0.000000 1.688580 
# 
# From -- ./inp_files/7832.got.cif
#   From: 2010.05.17/outbox.ucp.g08.bks.cvg/sg137_4_cif.got.tgz:7832.got - 2010.06.11 11:41:14.
