data_PCOD9570174
_publ_section_title
;
Structure prediction by ZEFSAII (Michael W. Deem and Ramdas Pophale) SiO2 
 PCOD9570174
Probable space group: P 42/N M C
;
_chemical_formula_sum "Si O2"
_cell_formula_units_Z 96
_cell_length_a 15.712651
_cell_length_b 15.712651
_cell_length_c 23.025249
_cell_angle_alpha 90.000000
_cell_angle_beta 90.000000
_cell_angle_gamma 90.000000
_cell_volume 5684.643893
_symmetry_space_group_name_H-M "P 42/N M C"
_symmetry_group_IT_number 137
_space_group.IT_coordinate_system_code '2'
_symmetry_cell_setting 'tetragonal'
loop_
_space_group_symop_operation_xyz
x,y,z
1/2-y,x,1/2+z
1/2-x,1/2-y,z
y,1/2-x,1/2+z
1/2+x,-y,-z
-x,1/2+y,-z
1/2+y,1/2+x,1/2-z
-y,-x,1/2-z
-x,-y,-z
1/2+y,-x,1/2-z
1/2+x,1/2+y,-z
-y,1/2+x,1/2-z
1/2-x,y,z
x,1/2-y,z
1/2-y,1/2-x,1/2+z
y,x,1/2+z
loop_
_atom_site_type_symbol
_atom_site_label
_atom_site_fract_x
_atom_site_fract_y
_atom_site_fract_z
Si Si1 0.009188 0.595253 0.900205
Si Si2 0.345421 0.582930 0.480032
Si Si3 0.351836 0.343867 0.796080
Si Si4 0.089101 0.084386 0.416418
Si Si5 0.985961 0.150989 0.229676
Si Si6 0.530059 0.843691 0.463352
O O1 0.055736 0.504052 0.893985
O O2 0.007808 0.643076 0.839717
O O3 0.915812 0.571168 0.923484
O O4 0.054936 0.644893 0.952669
O O5 0.250000 0.616048 0.469504
O O6 0.362369 0.498193 0.441660
O O7 0.428125 0.640750 0.467495
O O8 0.250000 0.341827 0.790366
O O9 0.384964 0.250000 0.779008
O O10 0.374452 0.361675 0.863175
O O11 0.380187 0.425071 0.758212
O O12 0.069031 0.142673 0.472259
O O13 0.909000 0.091001 0.250000
O O14 0.972590 0.250000 0.246239
O O15 0.548181 0.750000 0.441847
#
# Coordination Sequence:
#
# PCOD9570174 Si02
#       6
#    16  16  16  16  16  16
#     4   9  18  33  51  70  98 138 176 208 252 310
#     4   9  17  29  48  74 101 132 170 207 249 307
#     4  10  20  32  50  76 101 130 172 220 263 305
#     4   9  16  31  51  70  98 134 169 207 253 309
#     4  11  22  37  56  76 106 142 178 220 265 314
#     4   9  18  30  49  75 103 135 167 206 260 313
#
# _framework density 16.887601
#
# number of rings (size 3 to 8) (size 9 to 14) (size 15 to 20)
#    0.000    2.500    1.667    3.500    0.000    1.167 
#    0.000    0.000    0.000   11.500    0.000    0.000 
#    0.000    0.333    0.000    0.000    0.000    0.000 
#
# Total GULP energy -534877.051389 kJ/mol
# GULP energy per Si atom -5571.635952 kJ/mol
# Density = 1.684916 g / cm^3
# Si number density = 16.887601 Si / 1000 Ang^3
#
#
#
# Elastic Constant Matrix: (Units=GPa)
#
#
# Indices 1 2 3 4 5 6 
#
# 1 61.3250 23.6392 8.3609 0.0000 0.0000 0.0000
# 2 23.6392 61.3245 8.3605 0.0000 0.0000 0.0000
# 3 8.3609 8.3605 49.1581 0.0000 0.0000 0.0000
# 4 0.0000 0.0000 0.0000 13.2470 0.0000 0.0000
# 5 0.0000 0.0000 0.0000 0.0000 13.2474 0.0000
# 6 0.0000 0.0000 0.0000 0.0000 0.0000 9.5657
#
#
#
# Elastic Compliance Matrix: (Units=1/GPa)
#
#
# Indices 1 2 3 4 5 6 
#
# 1 0.019356 -0.007179 -0.002071 0.000000 0.000000 0.000000
# 2 -0.007179 0.019356 -0.002071 0.000000 0.000000 0.000000
# 3 -0.002071 -0.002071 0.021047 0.000000 0.000000 0.000000
# 4 0.000000 0.000000 0.000000 0.075489 0.000000 0.000000
# 5 0.000000 0.000000 0.000000 0.000000 0.075487 0.000000
# 6 0.000000 0.000000 0.000000 0.000000 0.000000 0.104540
#
#
# Mechanical properties :
#
#
# Convention : Reuss Voigt Hill
#
# Bulk Modulus (GPa) = 26.94163 28.05875 27.50019
# Shear Modulus (GPa) = 14.27389 15.97515 15.12452
#
# Velocity S-wave (km/s) = 2.91044 3.07900 2.99590
# Velocity P-wave (km/s) = 5.22325 5.41215 5.31854
#
# Compressibility (1/GPa) = 0.03711728
#
# Stress axis : x y z
#
# Youngs Moduli (GPa) = 51.66287 51.66248 47.51266
#
# Poissons Ratio (x) = 0.37089 0.09841
# Poissons Ratio (y) = 0.37089 0.09840
# Poissons Ratio (z) = 0.10700 0.10699
#
# Static dielectric constant tensor:
#      x y z
#    x 1.576280 0.000000 0.000000 
#    y 0.000000 1.576280 0.000000 
#    z 0.000000 0.000000 1.550340 
# 
# From -- ./inp_files/7802.got.cif
#   From: 2010.05.17/outbox.cif.g08.bks.cpg/sg137_4_cif.got.tgz:7802.got - 2010.05.20 13:01:12.
