data_PCOD9570157
_publ_section_title
;
Structure prediction by ZEFSAII (Michael W. Deem and Ramdas Pophale) SiO2 
 PCOD9570157
Probable space group: P 42/N M C
;
_chemical_formula_sum "Si O2"
_cell_formula_units_Z 112
_cell_length_a 15.337248
_cell_length_b 15.337248
_cell_length_c 24.469973
_cell_angle_alpha 90.000000
_cell_angle_beta 90.000000
_cell_angle_gamma 90.000000
_cell_volume 5756.100531
_symmetry_space_group_name_H-M "P 42/N M C"
_symmetry_group_IT_number 137
_space_group.IT_coordinate_system_code '2'
_symmetry_cell_setting 'tetragonal'
loop_
_space_group_symop_operation_xyz
x,y,z
1/2-y,x,1/2+z
1/2-x,1/2-y,z
y,1/2-x,1/2+z
1/2+x,-y,-z
-x,1/2+y,-z
1/2+y,1/2+x,1/2-z
-y,-x,1/2-z
-x,-y,-z
1/2+y,-x,1/2-z
1/2+x,1/2+y,-z
-y,1/2+x,1/2-z
1/2-x,y,z
x,1/2-y,z
1/2-y,1/2-x,1/2+z
y,x,1/2+z
loop_
_atom_site_type_symbol
_atom_site_label
_atom_site_fract_x
_atom_site_fract_y
_atom_site_fract_z
Si Si1 0.652982 0.472380 0.216845
Si Si2 0.427852 0.652850 0.588504
Si Si3 0.482128 0.348458 0.647736
Si Si4 0.035001 0.348133 0.082728
Si Si5 0.573944 0.561803 0.526935
Si Si6 0.349249 0.556722 0.377873
Si Si7 0.933966 0.652479 0.227885
O O1 0.581484 0.418517 0.250000
O O2 0.750000 0.450675 0.236961
O O3 0.647960 0.448733 0.152937
O O4 0.633926 0.574485 0.223073
O O5 0.392933 0.750000 0.576457
O O6 0.367832 0.568605 0.576555
O O7 0.517907 0.637504 0.555327
O O8 0.454882 0.250000 0.633015
O O9 0.417586 0.420902 0.623143
O O10 0.578015 0.368925 0.625192
O O11 0.480118 0.355218 0.713296
O O12 0.047425 0.250000 0.102157
O O13 0.080471 0.363567 0.023913
O O14 0.500000 0.500000 0.500000
O O15 0.624434 0.508280 0.573295
O O16 0.250000 0.586981 0.384303
O O17 0.356207 0.502415 0.321473
O O18 0.895596 0.750000 0.224577
#
# Coordination Sequence:
#
# PCOD9570157 Si02
#       7
#    16  16  16  16  16  16  16
#     4  11  22  37  59  87 123 162 203 247 300 358
#     4  10  21  38  63  91 122 161 201 250 308 362
#     4  11  23  39  59  90 125 160 203 249 303 368
#     4  11  23  41  64  89 123 164 204 252 304 359
#     4  10  19  39  62  88 118 156 200 249 297 356
#     4  11  20  37  64  89 117 157 200 248 308 364
#     4  10  21  37  62  88 118 159 201 248 307 371
#
# _framework density 19.457618
#
# number of rings (size 3 to 8) (size 9 to 14) (size 15 to 20)
#    0.000    1.429    4.286    2.571    0.000    4.143 
#    0.000    2.857    0.000    5.571    0.000    0.000 
#    0.000    0.000    0.000    0.000    0.000    0.000 
#
# Total GULP energy -625133.719460 kJ/mol
# GULP energy per Si atom -5581.551067 kJ/mol
# Density = 1.941333 g / cm^3
# Si number density = 19.457618 Si / 1000 Ang^3
#
#
#
# Elastic Constant Matrix: (Units=GPa)
#
#
# Indices 1 2 3 4 5 6 
#
# 1 93.0179 31.3859 18.0397 0.0000 0.0000 0.0000
# 2 31.3859 93.0171 18.0400 0.0000 0.0000 0.0000
# 3 18.0397 18.0400 75.6199 0.0000 0.0000 0.0000
# 4 0.0000 0.0000 0.0000 15.2839 0.0000 0.0000
# 5 0.0000 0.0000 0.0000 0.0000 15.2835 0.0000
# 6 0.0000 0.0000 0.0000 0.0000 0.0000 10.0970
#
#
#
# Elastic Compliance Matrix: (Units=1/GPa)
#
#
# Indices 1 2 3 4 5 6 
#
# 1 0.012431 -0.003795 -0.002060 0.000000 0.000000 0.000000
# 2 -0.003795 0.012431 -0.002060 0.000000 0.000000 0.000000
# 3 -0.002060 -0.002060 0.014207 0.000000 0.000000 0.000000
# 4 0.000000 0.000000 0.000000 0.065428 0.000000 0.000000
# 5 0.000000 0.000000 0.000000 0.000000 0.065430 0.000000
# 6 0.000000 0.000000 0.000000 0.000000 0.000000 0.099039
#
#
# Mechanical properties :
#
#
# Convention : Reuss Voigt Hill
#
# Bulk Modulus (GPa) = 43.03292 44.06513 43.54903
# Shear Modulus (GPa) = 17.09154 21.07882 19.08518
#
# Velocity S-wave (km/s) = 2.96699 3.29495 3.13526
# Velocity P-wave (km/s) = 5.82251 6.09684 5.96126
#
# Compressibility (1/GPa) = 0.02323802
#
# Stress axis : x y z
#
# Youngs Moduli (GPa) = 80.44674 80.44591 70.38789
#
# Poissons Ratio (x) = 0.30528 0.14501
# Poissons Ratio (y) = 0.30528 0.14501
# Poissons Ratio (z) = 0.16573 0.16574
#
# Static dielectric constant tensor:
#      x y z
#    x 1.688080 0.000000 0.000000 
#    y 0.000000 1.688080 0.000000 
#    z 0.000000 0.000000 1.686610 
# 
# From -- ./inp_files/9005.got.cif
#   From: 2010.05.17/outbox.cif.g08.bks.cpg/sg137_5_cif.got.tgz:9005.got - 2010.05.20 13:01:12.
