data_PCOD9570511
_publ_section_title
;
Structure prediction by ZEFSAII (Michael W. Deem and Ramdas Pophale) SiO2 
 PCOD9570511
Probable space group: P 42/N M C
;
_chemical_formula_sum "Si O2"
_cell_formula_units_Z 112
_cell_length_a 15.555413
_cell_length_b 15.555413
_cell_length_c 24.156210
_cell_angle_alpha 90.000000
_cell_angle_beta 90.000000
_cell_angle_gamma 90.000000
_cell_volume 5845.099237
_symmetry_space_group_name_H-M "P 42/N M C"
_symmetry_group_IT_number 137
_space_group.IT_coordinate_system_code '2'
_symmetry_cell_setting 'tetragonal'
loop_
_space_group_symop_operation_xyz
x,y,z
1/2-y,x,1/2+z
1/2-x,1/2-y,z
y,1/2-x,1/2+z
1/2+x,-y,-z
-x,1/2+y,-z
1/2+y,1/2+x,1/2-z
-y,-x,1/2-z
-x,-y,-z
1/2+y,-x,1/2-z
1/2+x,1/2+y,-z
-y,1/2+x,1/2-z
1/2-x,y,z
x,1/2-y,z
1/2-y,1/2-x,1/2+z
y,x,1/2+z
loop_
_atom_site_type_symbol
_atom_site_label
_atom_site_fract_x
_atom_site_fract_y
_atom_site_fract_z
Si Si1 0.147171 0.151777 0.934367
Si Si2 0.652418 0.847582 0.750000
Si Si3 0.651777 0.647171 0.434367
Si Si4 0.978278 0.903942 0.343786
Si Si5 0.851800 0.154015 0.188202
Si Si6 0.403943 0.478278 0.843786
Si Si7 0.345985 0.851800 0.311798
O O1 0.250000 0.143828 0.924254
O O2 0.122553 0.250000 0.919614
O O3 0.100301 0.080393 0.898205
O O4 0.133303 0.141176 1.000000
O O5 0.750000 0.855489 0.727292
O O6 0.644510 0.750000 0.772708
O O7 0.640469 0.919857 0.796775
O O8 0.580143 0.859531 0.703225
O O9 0.750000 0.622553 0.419614
O O10 0.643828 0.750000 0.424254
O O11 0.580393 0.600302 0.398205
O O12 0.073761 0.866249 0.351760
O O13 1.000000 1.000000 0.326217
O O14 0.877253 0.122747 0.250000
O O15 0.750000 0.164245 0.192258
O O16 0.888518 0.250000 0.176282
O O17 0.866248 0.073761 0.148240
O O18 0.377253 0.877253 0.250000
O O19 0.250000 0.888518 0.323718
O O20 0.335755 0.750000 0.307742
#
# Coordination Sequence:
#
# PCOD9570511 Si02
#       7
#    16  16  16  16  16  16  16
#     4   9  19  38  62  82 102 137 187 240 292 343
#     4  11  23  38  58  84 115 151 192 242 294 335
#     4   9  19  38  62  82 102 137 187 240 292 343
#     4  12  23  33  52  82 116 147 177 224 281 344
#     4   9  18  33  51  70  99 143 188 222 257 316
#     4  12  23  33  52  82 116 147 177 224 281 344
#     4   9  18  33  51  70  99 143 188 222 257 316
#
# _framework density 19.161349999999999
#
# number of rings (size 3 to 8) (size 9 to 14) (size 15 to 20)
#    0.000    1.857    0.000    7.286    0.000    7.429 
#    0.000    0.000    0.000    0.857    0.000    4.000 
#    0.000    0.000    0.000    0.000    0.000    0.000 
#
# Total GULP energy -624325.905894 kJ/mol
# GULP energy per Si atom -5574.338445 kJ/mol
# Density = 1.911774 g / cm^3
# Si number density = 19.161350 Si / 1000 Ang^3
#
#
#
# Elastic Constant Matrix: (Units=GPa)
#
#
# Indices 1 2 3 4 5 6 
#
# 1 107.4341 38.9527 31.4451 0.0000 0.0000 0.0000
# 2 38.9527 107.4341 31.4450 0.0000 0.0000 0.0000
# 3 31.4451 31.4450 45.9506 0.0000 0.0000 0.0000
# 4 0.0000 0.0000 0.0000 -10.8342 0.0000 0.0000
# 5 0.0000 0.0000 0.0000 0.0000 -10.8327 0.0000
# 6 0.0000 0.0000 0.0000 0.0000 0.0000 27.4992
#
#
#
# Elastic Compliance Matrix: (Units=1/GPa)
#
#
# Indices 1 2 3 4 5 6 
#
# 1 0.012139 -0.002463 -0.006621 0.000000 0.000000 0.000000
# 2 -0.002463 0.012139 -0.006621 0.000000 0.000000 0.000000
# 3 -0.006621 -0.006621 0.030825 0.000000 0.000000 0.000000
# 4 0.000000 0.000000 0.000000 -0.092301 0.000000 0.000000
# 5 0.000000 0.000000 0.000000 0.000000 -0.092313 0.000000
# 6 0.000000 0.000000 0.000000 0.000000 0.000000 0.036365
#
#
# Mechanical properties :
#
#
# Convention : Reuss Voigt Hill
#
# Bulk Modulus (GPa) = 42.21022 51.61161 46.91091
# Shear Modulus (GPa) = -92.87412 11.76486 -40.55463
#
# Velocity S-wave (km/s) = -6.96956 2.48057 -4.60551
# Velocity P-wave (km/s) = 6.53373 5.93279 1.93541
#
# Compressibility (1/GPa) = 0.02369095
#
# Stress axis : x y z
#
# Youngs Moduli (GPa) = 82.37773 82.37783 32.44127
#
# Poissons Ratio (x) = 0.20292 0.21481
# Poissons Ratio (y) = 0.20292 0.21481
# Poissons Ratio (z) = 0.54546 0.54546
#
# Static dielectric constant tensor:
#      x y z
#    x 1.528450 0.000000 0.000000 
#    y 0.000000 1.528490 0.000000 
#    z 0.000000 0.000000 1.674020 
# 
# From -- ./inp_files/8921.got.cif
#   From: 2010.05.17/outbox.cif.g08.bks.cpg/sg137_5_cif.got.tgz:8921.got - 2010.05.20 13:01:12.
