data_PCOD9570153
_publ_section_title
;
Structure prediction by ZEFSAII (Michael W. Deem and Ramdas Pophale) SiO2 
 PCOD9570153
Probable space group: P 42/N M C
;
_chemical_formula_sum "Si O2"
_cell_formula_units_Z 112
_cell_length_a 32.068287
_cell_length_b 32.068287
_cell_length_c 5.574662
_cell_angle_alpha 90.000000
_cell_angle_beta 90.000000
_cell_angle_gamma 90.000000
_cell_volume 5732.843208
_symmetry_space_group_name_H-M "P 42/N M C"
_symmetry_group_IT_number 137
_space_group.IT_coordinate_system_code '2'
_symmetry_cell_setting 'tetragonal'
loop_
_space_group_symop_operation_xyz
x,y,z
1/2-y,x,1/2+z
1/2-x,1/2-y,z
y,1/2-x,1/2+z
1/2+x,-y,-z
-x,1/2+y,-z
1/2+y,1/2+x,1/2-z
-y,-x,1/2-z
-x,-y,-z
1/2+y,-x,1/2-z
1/2+x,1/2+y,-z
-y,1/2+x,1/2-z
1/2-x,y,z
x,1/2-y,z
1/2-y,1/2-x,1/2+z
y,x,1/2+z
loop_
_atom_site_type_symbol
_atom_site_label
_atom_site_fract_x
_atom_site_fract_y
_atom_site_fract_z
Si Si1 0.103344 0.866415 0.996117
Si Si2 0.878862 0.852423 0.811939
Si Si3 0.576895 0.941872 0.722612
Si Si4 0.439822 0.955033 0.995034
Si Si5 0.954695 0.798307 0.756887
Si Si6 0.960778 0.202035 0.927317
Si Si7 0.642198 0.997538 0.900873
O O1 0.128482 0.871519 0.750000
O O2 0.070492 0.905184 0.002696
O O3 0.128111 0.871890 0.250000
O O4 0.077127 0.824214 0.968753
O O5 0.857830 0.849709 0.547287
O O6 0.905454 0.895426 0.775950
O O7 0.911536 0.815305 0.865286
O O8 0.549767 0.943501 0.483385
O O9 0.616306 0.972574 0.698410
O O10 0.463491 0.963491 0.750000
O O11 0.461951 0.961951 0.250000
O O12 0.394534 0.976719 0.975354
O O13 0.950896 0.750000 0.678146
O O14 0.964087 0.832023 0.550653
O O15 0.995832 0.800323 0.924057
O O16 0.950883 0.250000 0.890621
O O17 0.970861 0.176997 0.686267
#
# Coordination Sequence:
#
# PCOD9570153 Si02
#       7
#    16  16  16  16  16  16  16
#     4  10  19  38  56  76 107 155 194 224 269 348
#     4  10  19  38  56  76 107 155 193 223 270 351
#     4  10  20  34  55  78 100 151 198 233 274 337
#     4  10  20  34  54  77  99 147 197 231 270 331
#     4  11  23  35  55  89 121 147 183 240 301 351
#     4  11  23  36  55  89 121 149 184 239 300 349
#     4  12  21  35  60  78 117 152 196 234 293 352
#
# _framework density 19.536553000000001
#
# number of rings (size 3 to 8) (size 9 to 14) (size 15 to 20)
#    0.000    1.429    5.714    3.857    0.000    0.000 
#    0.000    0.000    0.000    2.571    0.000    0.000 
#    0.000    3.429    0.000    0.000    0.000    0.000 
#
# Total GULP energy -624671.202457 kJ/mol
# GULP energy per Si atom -5577.421451 kJ/mol
# Density = 1.949209 g / cm^3
# Si number density = 19.536553 Si / 1000 Ang^3
#
#
#
# Elastic Constant Matrix: (Units=GPa)
#
#
# Indices 1 2 3 4 5 6 
#
# 1 70.8895 40.1503 13.4049 0.0000 0.0000 0.0000
# 2 40.1503 70.8896 13.4055 0.0000 0.0000 0.0000
# 3 13.4049 13.4055 124.0887 0.0000 0.0000 0.0000
# 4 0.0000 0.0000 0.0000 12.1356 0.0000 0.0000
# 5 0.0000 0.0000 0.0000 0.0000 12.1356 0.0000
# 6 0.0000 0.0000 0.0000 0.0000 0.0000 11.2632
#
#
#
# Elastic Compliance Matrix: (Units=1/GPa)
#
#
# Indices 1 2 3 4 5 6 
#
# 1 0.020889 -0.011642 -0.000999 0.000000 0.000000 0.000000
# 2 -0.011642 0.020889 -0.000999 0.000000 0.000000 0.000000
# 3 -0.000999 -0.000999 0.008275 0.000000 0.000000 0.000000
# 4 0.000000 0.000000 0.000000 0.082402 0.000000 0.000000
# 5 0.000000 0.000000 0.000000 0.000000 0.082402 0.000000
# 6 0.000000 0.000000 0.000000 0.000000 0.000000 0.088785
#
#
# Mechanical properties :
#
#
# Convention : Reuss Voigt Hill
#
# Bulk Modulus (GPa) = 43.91212 44.42102 44.16657
# Shear Modulus (GPa) = 14.77045 20.36735 17.56890
#
# Velocity S-wave (km/s) = 2.75260 3.23232 3.00206
# Velocity P-wave (km/s) = 5.71210 6.05948 5.88835
#
# Compressibility (1/GPa) = 0.02277275
#
# Stress axis : x y z
#
# Youngs Moduli (GPa) = 47.87135 47.87133 120.85207
#
# Poissons Ratio (x) = 0.55733 0.12071
# Poissons Ratio (y) = 0.55734 0.12074
# Poissons Ratio (z) = 0.04782 0.04782
#
# Static dielectric constant tensor:
#      x y z
#    x 1.703630 0.000000 0.000000 
#    y 0.000000 1.703640 0.000000 
#    z 0.000000 0.000000 1.859030 
# 
# From -- ./inp_files/676.got.cif
#   From: 2010.05.17/outbox.cif.g08.bks.cpg/sg137_1_cif.got.tgz:676.got - 2010.05.20 13:01:12.
