data_PCOD9570008
_publ_section_title
;
Structure prediction by ZEFSAII (Michael W. Deem and Ramdas Pophale) SiO2 
 PCOD9570008
Probable space group: P 42/N M C
;
_chemical_formula_sum "Si O2"
_cell_formula_units_Z 92
_cell_length_a 15.689050
_cell_length_b 15.689050
_cell_length_c 20.188708
_cell_angle_alpha 90.000000
_cell_angle_beta 90.000000
_cell_angle_gamma 90.000000
_cell_volume 4969.375572
_symmetry_space_group_name_H-M "P 42/N M C"
_symmetry_group_IT_number 137
_space_group.IT_coordinate_system_code '2'
_symmetry_cell_setting 'tetragonal'
loop_
_space_group_symop_operation_xyz
x,y,z
1/2-y,x,1/2+z
1/2-x,1/2-y,z
y,1/2-x,1/2+z
1/2+x,-y,-z
-x,1/2+y,-z
1/2+y,1/2+x,1/2-z
-y,-x,1/2-z
-x,-y,-z
1/2+y,-x,1/2-z
1/2+x,1/2+y,-z
-y,1/2+x,1/2-z
1/2-x,y,z
x,1/2-y,z
1/2-y,1/2-x,1/2+z
y,x,1/2+z
loop_
_atom_site_type_symbol
_atom_site_label
_atom_site_fract_x
_atom_site_fract_y
_atom_site_fract_z
Si Si1 0.653822 0.487745 0.252510
Si Si2 0.930774 0.250000 0.965884
Si Si3 0.039127 0.083925 0.642940
Si Si4 0.750000 0.250000 0.906539
Si Si5 0.250000 0.000046 0.316426
Si Si6 0.427590 0.750000 0.323295
Si Si7 0.043620 0.092814 0.003611
Si Si8 0.581404 0.916581 0.140079
O O1 0.597942 0.402059 0.250000
O O2 0.750000 0.473358 0.274124
O O3 0.604893 0.553458 0.300926
O O4 0.649505 0.528551 0.179390
O O5 0.830281 0.250000 0.956362
O O6 0.957905 0.250000 0.888602
O O7 0.972216 0.166683 0.999426
O O8 0.089577 0.090997 0.573622
O O9 0.982802 0.167051 0.656791
O O10 0.971796 0.005790 0.639868
O O11 0.750000 0.335615 0.859934
O O12 0.332941 0.058984 0.317882
O O13 0.250000 0.931378 0.257274
O O14 0.098934 0.103829 0.936731
O O15 0.000000 0.000000 0.000000
#
# Coordination Sequence:
#
# PCOD9570008 Si02
#       8
#    16   8  16   4   8   8  16  16
#     4  10  21  38  62  85 111 147 196 250 301 355
#     4  10  22  35  58  83 119 158 196 234 296 364
#     4  10  21  36  59  81 114 157 196 241 297 354
#     4  12  24  33  52  96 130 152 193 246 290 348
#     4  10  18  33  56  84 120 160 192 226 286 362
#     4  12  22  35  56  92 129 155 193 246 293 370
#     4   9  18  36  58  76 108 156 197 234 289 356
#     4   9  18  36  56  80 111 157 196 235 289 358
#
# _framework density 18.513392
#
# number of rings (size 3 to 8) (size 9 to 14) (size 15 to 20)
#    0.000    2.087    1.739    3.130    1.217    2.609 
#    1.565    1.739   15.304    0.000    0.000    0.000 
#    0.000    0.000    0.000    0.000    0.000    0.000 
#
# Total GULP energy -512648.190642 kJ/mol
# GULP energy per Si atom -5572.262942 kJ/mol
# Density = 1.847125 g / cm^3
# Si number density = 18.513392 Si / 1000 Ang^3
#
#
#
# Elastic Constant Matrix: (Units=GPa)
#
#
# Indices 1 2 3 4 5 6 
#
# 1 105.7625 43.8055 35.0546 0.0000 0.0000 0.0000
# 2 43.8055 105.7627 35.0548 0.0000 0.0000 0.0000
# 3 35.0546 35.0548 95.8170 0.0000 0.0000 0.0000
# 4 0.0000 0.0000 0.0000 16.2646 0.0000 0.0000
# 5 0.0000 0.0000 0.0000 0.0000 16.2645 0.0000
# 6 0.0000 0.0000 0.0000 0.0000 0.0000 11.9686
#
#
#
# Elastic Compliance Matrix: (Units=1/GPa)
#
#
# Indices 1 2 3 4 5 6 
#
# 1 0.012105 -0.004035 -0.002952 0.000000 0.000000 0.000000
# 2 -0.004035 0.012105 -0.002952 0.000000 0.000000 0.000000
# 3 -0.002952 -0.002952 0.012597 0.000000 0.000000 0.000000
# 4 0.000000 0.000000 0.000000 0.061483 0.000000 0.000000
# 5 0.000000 0.000000 0.000000 0.000000 0.061484 0.000000
# 6 0.000000 0.000000 0.000000 0.000000 0.000000 0.083552
#
#
# Mechanical properties :
#
#
# Convention : Reuss Voigt Hill
#
# Bulk Modulus (GPa) = 59.07706 59.46355 59.27030
# Shear Modulus (GPa) = 18.59792 21.79471 20.19631
#
# Velocity S-wave (km/s) = 3.17293 3.43482 3.30647
# Velocity P-wave (km/s) = 6.73818 6.92239 6.83091
#
# Compressibility (1/GPa) = 0.01692705
#
# Stress axis : x y z
#
# Youngs Moduli (GPa) = 82.61037 82.61050 79.38533
#
# Poissons Ratio (x) = 0.33335 0.23437
# Poissons Ratio (y) = 0.33335 0.23437
# Poissons Ratio (z) = 0.24389 0.24390
#
# Static dielectric constant tensor:
#      x y z
#    x 1.638500 0.000000 0.000000 
#    y 0.000000 1.638500 0.000000 
#    z 0.000000 0.000000 1.705500 
# 
# From -- ./inp_files/7933.got.cif
#   From: 2010.05.17/outbox.cif.g08.bks.cpg/sg137_4_cif.got.tgz:7933.got - 2010.05.20 13:01:12.
