data_PCOD9570330
_publ_section_title
;
Structure prediction by ZEFSAII (Michael W. Deem and Ramdas Pophale) SiO2 
 PCOD9570330
Probable space group: P 42/N M C
;
_chemical_formula_sum "Si O2"
_cell_formula_units_Z 80
_cell_length_a 14.510661
_cell_length_b 14.510661
_cell_length_c 20.631232
_cell_angle_alpha 90.000000
_cell_angle_beta 90.000000
_cell_angle_gamma 90.000000
_cell_volume 4344.097410
_symmetry_space_group_name_H-M "P 42/N M C"
_symmetry_group_IT_number 137
_space_group.IT_coordinate_system_code '2'
_symmetry_cell_setting 'tetragonal'
loop_
_space_group_symop_operation_xyz
x,y,z
1/2-y,x,1/2+z
1/2-x,1/2-y,z
y,1/2-x,1/2+z
1/2+x,-y,-z
-x,1/2+y,-z
1/2+y,1/2+x,1/2-z
-y,-x,1/2-z
-x,-y,-z
1/2+y,-x,1/2-z
1/2+x,1/2+y,-z
-y,1/2+x,1/2-z
1/2-x,y,z
x,1/2-y,z
1/2-y,1/2-x,1/2+z
y,x,1/2+z
loop_
_atom_site_type_symbol
_atom_site_label
_atom_site_fract_x
_atom_site_fract_y
_atom_site_fract_z
Si Si1 0.531315 0.955601 0.612377
Si Si2 0.139947 0.857191 0.826816
Si Si3 0.048433 0.145183 0.621153
Si Si4 0.858670 0.851437 0.006939
Si Si5 0.357940 0.010851 0.263670
O O1 0.431279 0.916087 0.631717
O O2 0.572354 0.909432 0.549011
O O3 0.523425 0.065425 0.604128
O O4 0.597788 0.940215 0.674240
O O5 0.124565 0.875436 0.750000
O O6 0.250000 0.867456 0.838103
O O7 0.115991 0.750000 0.839557
O O8 0.013270 0.250000 0.613531
O O9 0.129609 0.133188 0.569642
O O10 0.069642 0.133215 0.697274
O O11 0.750000 0.855392 0.022237
O O12 0.894148 0.750000 0.023265
O O13 0.419105 0.919105 0.250000
O O14 0.250000 0.990971 0.273715
#
# Coordination Sequence:
#
# PCOD9570330 Si02
#       5
#    16  16  16  16  16
#     4  11  19  33  56  81 105 135 176 226 269 307
#     4   9  18  32  50  75 106 137 171 214 269 330
#     4   9  19  35  52  72 102 139 174 209 255 313
#     4  10  21  36  53  75 105 140 176 216 266 319
#     4   9  18  32  52  78 106 137 175 217 259 310
#
# _framework density 18.415794000000002
#
# number of rings (size 3 to 8) (size 9 to 14) (size 15 to 20)
#    0.000    2.400    0.000    4.200    0.000    1.000 
#    0.000    2.000    0.000    7.800    0.000   11.200 
#    0.000    0.000    0.000    0.000    0.000    0.000 
#
# Total GULP energy -445840.075164 kJ/mol
# GULP energy per Si atom -5573.000940 kJ/mol
# Density = 1.837388 g / cm^3
# Si number density = 18.415794 Si / 1000 Ang^3
#
#
#
# Elastic Constant Matrix: (Units=GPa)
#
#
# Indices 1 2 3 4 5 6 
#
# 1 65.0922 32.4311 39.8113 0.0000 0.0000 0.0000
# 2 32.4311 65.0922 39.8114 0.0000 0.0000 0.0000
# 3 39.8113 39.8114 74.6087 0.0000 0.0000 0.0000
# 4 0.0000 0.0000 0.0000 22.0697 0.0000 0.0000
# 5 0.0000 0.0000 0.0000 0.0000 22.0697 0.0000
# 6 0.0000 0.0000 0.0000 0.0000 0.0000 13.6599
#
#
#
# Elastic Compliance Matrix: (Units=1/GPa)
#
#
# Indices 1 2 3 4 5 6 
#
# 1 0.024394 -0.006224 -0.009695 0.000000 0.000000 0.000000
# 2 -0.006224 0.024394 -0.009695 0.000000 0.000000 0.000000
# 3 -0.009695 -0.009695 0.023750 0.000000 0.000000 0.000000
# 4 0.000000 0.000000 0.000000 0.045311 0.000000 0.000000
# 5 0.000000 0.000000 0.000000 0.000000 0.045311 0.000000
# 6 0.000000 0.000000 0.000000 0.000000 0.000000 0.073207
#
#
# Mechanical properties :
#
#
# Convention : Reuss Voigt Hill
#
# Bulk Modulus (GPa) = 46.93052 47.65564 47.29308
# Shear Modulus (GPa) = 16.96650 17.74249 17.35449
#
# Velocity S-wave (km/s) = 3.03859 3.10730 3.07314
# Velocity P-wave (km/s) = 6.15222 6.22957 6.19102
#
# Compressibility (1/GPa) = 0.02130810
#
# Stress axis : x y z
#
# Youngs Moduli (GPa) = 40.99435 40.99434 42.10482
#
# Poissons Ratio (x) = 0.25514 0.40822
# Poissons Ratio (y) = 0.25514 0.40822
# Poissons Ratio (z) = 0.39746 0.39746
#
# Static dielectric constant tensor:
#      x y z
#    x 1.627860 0.000000 0.000000 
#    y 0.000000 1.627860 0.000000 
#    z 0.000000 0.000000 1.650850 
# 
# From -- ./inp_files/7611.got.cif
#   From: 2010.05.17/outbox.cif.g08.bks.cpg/sg137_4_cif.got.tgz:7611.got - 2010.05.20 13:01:12.
