data_PCOD9570312
_publ_section_title
;
Structure prediction by ZEFSAII (Michael W. Deem and Ramdas Pophale) SiO2 
 PCOD9570312
Probable space group: P 42/N M C
;
_chemical_formula_sum "Si O2"
_cell_formula_units_Z 112
_cell_length_a 13.754201
_cell_length_b 13.754201
_cell_length_c 36.094565
_cell_angle_alpha 90.000000
_cell_angle_beta 90.000000
_cell_angle_gamma 90.000000
_cell_volume 6828.299247
_symmetry_space_group_name_H-M "P 42/N M C"
_symmetry_group_IT_number 137
_space_group.IT_coordinate_system_code '2'
_symmetry_cell_setting 'tetragonal'
loop_
_space_group_symop_operation_xyz
x,y,z
1/2-y,x,1/2+z
1/2-x,1/2-y,z
y,1/2-x,1/2+z
1/2+x,-y,-z
-x,1/2+y,-z
1/2+y,1/2+x,1/2-z
-y,-x,1/2-z
-x,-y,-z
1/2+y,-x,1/2-z
1/2+x,1/2+y,-z
-y,1/2+x,1/2-z
1/2-x,y,z
x,1/2-y,z
1/2-y,1/2-x,1/2+z
y,x,1/2+z
loop_
_atom_site_type_symbol
_atom_site_label
_atom_site_fract_x
_atom_site_fract_y
_atom_site_fract_z
Si Si1 0.996192 0.504131 0.658990
Si Si2 0.362093 0.866004 0.706422
Si Si3 0.633811 0.858644 0.015123
Si Si4 0.636552 0.360973 0.705551
Si Si5 0.001661 0.861993 0.452523
Si Si6 0.135695 0.016439 0.412456
Si Si7 0.137584 0.139227 0.617272
O O1 0.928707 0.440708 0.686006
O O2 0.927872 0.534937 0.624351
O O3 0.055896 0.585718 0.681009
O O4 0.078122 0.432722 0.642840
O O5 0.383607 0.883607 0.750000
O O6 0.250000 0.899480 0.698981
O O7 0.362641 0.750000 0.701236
O O8 0.750000 0.857364 0.011571
O O9 0.597953 0.750000 0.003623
O O10 0.602751 0.871308 0.057603
O O11 0.600610 0.948282 0.989590
O O12 0.630626 0.369375 0.750000
O O13 0.750000 0.372840 0.695288
O O14 0.608008 0.250000 0.695333
O O15 0.033678 0.750000 0.457770
O O16 0.087188 0.925993 0.434732
O O17 0.915119 0.862118 0.422346
O O18 0.250000 0.999850 0.404010
O O19 0.250000 0.112572 0.613960
O O20 0.131407 0.250000 0.631358
#
# Coordination Sequence:
#
# PCOD9570312 Si02
#       7
#    16  16  16  16  16  16  16
#     4  11  19  30  49  72  97 128 160 192 237 294
#     4   9  19  36  56  76  96 121 159 206 252 296
#     4   9  17  31  50  68  88 119 160 203 243 283
#     4   9  18  32  49  69  94 126 163 198 231 276
#     4   9  17  30  49  68  88 122 164 201 237 278
#     4  10  21  32  44  69 102 131 159 194 236 284
#     4   9  17  28  43  68  97 119 147 192 242 287
#
# _framework density 16.402327
#
# number of rings (size 3 to 8) (size 9 to 14) (size 15 to 20)
#    0.000    2.571    0.000    3.429    0.000    3.143 
#    0.000    0.000    0.000    2.143    0.000    8.000 
#    0.000    0.000    0.000    0.000    0.000    0.000 
#
# Total GULP energy -623790.814641 kJ/mol
# GULP energy per Si atom -5569.560845 kJ/mol
# Density = 1.636499 g / cm^3
# Si number density = 16.402327 Si / 1000 Ang^3
#
#
#
# Elastic Constant Matrix: (Units=GPa)
#
#
# Indices 1 2 3 4 5 6 
#
# 1 69.4144 38.6858 42.5914 0.0000 0.0000 0.0000
# 2 38.6858 69.4143 42.5914 0.0000 0.0000 0.0000
# 3 42.5914 42.5914 72.8518 0.0000 0.0000 0.0000
# 4 0.0000 0.0000 0.0000 23.4237 0.0000 0.0000
# 5 0.0000 0.0000 0.0000 0.0000 23.4237 0.0000
# 6 0.0000 0.0000 0.0000 0.0000 0.0000 26.3370
#
#
#
# Elastic Compliance Matrix: (Units=1/GPa)
#
#
# Indices 1 2 3 4 5 6 
#
# 1 0.024848 -0.007695 -0.010028 0.000000 0.000000 0.000000
# 2 -0.007695 0.024848 -0.010028 0.000000 0.000000 0.000000
# 3 -0.010028 -0.010028 0.025452 0.000000 0.000000 0.000000
# 4 0.000000 0.000000 0.000000 0.042692 0.000000 0.000000
# 5 0.000000 0.000000 0.000000 0.000000 0.042692 0.000000
# 6 0.000000 0.000000 0.000000 0.000000 0.000000 0.037969
#
#
# Mechanical properties :
#
#
# Convention : Reuss Voigt Hill
#
# Bulk Modulus (GPa) = 50.90280 51.04641 50.97460
# Shear Modulus (GPa) = 19.19006 20.49100 19.84053
#
# Velocity S-wave (km/s) = 3.42418 3.53834 3.48173
# Velocity P-wave (km/s) = 6.83627 6.91969 6.87811
#
# Compressibility (1/GPa) = 0.01964529
#
# Stress axis : x y z
#
# Youngs Moduli (GPa) = 40.24488 40.24477 39.28986
#
# Poissons Ratio (x) = 0.30969 0.39400
# Poissons Ratio (y) = 0.30969 0.39400
# Poissons Ratio (z) = 0.40358 0.40358
#
# Static dielectric constant tensor:
#      x y z
#    x 1.548540 0.000000 0.000000 
#    y 0.000000 1.548540 0.000000 
#    z 0.000000 0.000000 1.553750 
# 
# From -- ./inp_files/10703.got.cif
#   From: 2010.05.17/outbox.cif.g08.bks.cpg/sg137_6_cif.got.tgz:10703.got - 2010.05.20 13:01:12.
