data_PCOD9570235
_publ_section_title
;
Structure prediction by ZEFSAII (Michael W. Deem and Ramdas Pophale) SiO2 
 PCOD9570235
Probable space group: P 42/N M C
;
_chemical_formula_sum "Si O2"
_cell_formula_units_Z 40
_cell_length_a 7.771812
_cell_length_b 7.771812
_cell_length_c 33.880558
_cell_angle_alpha 90.000000
_cell_angle_beta 90.000000
_cell_angle_gamma 90.000000
_cell_volume 2046.421676
_symmetry_space_group_name_H-M "P 42/N M C"
_symmetry_group_IT_number 137
_space_group.IT_coordinate_system_code '2'
_symmetry_cell_setting 'tetragonal'
loop_
_space_group_symop_operation_xyz
x,y,z
1/2-y,x,1/2+z
1/2-x,1/2-y,z
y,1/2-x,1/2+z
1/2+x,-y,-z
-x,1/2+y,-z
1/2+y,1/2+x,1/2-z
-y,-x,1/2-z
-x,-y,-z
1/2+y,-x,1/2-z
1/2+x,1/2+y,-z
-y,1/2+x,1/2-z
1/2-x,y,z
x,1/2-y,z
1/2-y,1/2-x,1/2+z
y,x,1/2+z
loop_
_atom_site_type_symbol
_atom_site_label
_atom_site_fract_x
_atom_site_fract_y
_atom_site_fract_z
Si Si1 0.750000 0.454897 0.901985
Si Si2 0.545437 0.454564 0.250000
Si Si3 0.957551 0.942217 0.544360
Si Si4 0.750000 0.544164 0.810789
O O1 0.750000 0.250000 0.908656
O O2 0.581252 0.523710 0.924291
O O3 0.750000 0.481993 0.855457
O O4 0.750000 0.479404 0.241672
O O5 0.495286 0.579128 0.286179
O O6 0.750000 0.936624 0.547361
O O7 0.024043 0.750000 0.551231
O O8 0.000000 0.000000 0.500000
O O9 0.750000 0.750000 0.812395
#
# Coordination Sequence:
#
# PCOD9570235 Si02
#       4
#     8   8  16   8
#     4  10  22  36  52  84 118 146 192 246 280 351
#     4   9  20  39  60  86 120 151 190 247 296 358
#     4  10  20  35  55  79 111 151 193 237 290 345
#     4  10  22  38  60  88 114 152 198 231 301 364
#
# _framework density 19.546312
#
# number of rings (size 3 to 8) (size 9 to 14) (size 15 to 20)
#    0.000    2.200    2.000    0.000    2.800    3.200 
#    0.000    0.000    0.000    0.000    0.000    0.000 
#    0.000    0.000    0.000    0.000    0.000    0.000 
#
# Total GULP energy -223235.805470 kJ/mol
# GULP energy per Si atom -5580.895137 kJ/mol
# Density = 1.950182 g / cm^3
# Si number density = 19.546312 Si / 1000 Ang^3
#
#
#
# Elastic Constant Matrix: (Units=GPa)
#
#
# Indices 1 2 3 4 5 6 
#
# 1 98.6583 43.5833 67.0643 0.0000 0.0000 0.0000
# 2 43.5833 98.6574 67.0644 0.0000 0.0000 0.0000
# 3 67.0643 67.0644 174.7130 0.0000 0.0000 0.0000
# 4 0.0000 0.0000 0.0000 31.9284 0.0000 0.0000
# 5 0.0000 0.0000 0.0000 0.0000 31.9281 0.0000
# 6 0.0000 0.0000 0.0000 0.0000 0.0000 12.4765
#
#
#
# Elastic Compliance Matrix: (Units=1/GPa)
#
#
# Indices 1 2 3 4 5 6 
#
# 1 0.014588 -0.003569 -0.004230 0.000000 0.000000 0.000000
# 2 -0.003569 0.014588 -0.004230 0.000000 0.000000 0.000000
# 3 -0.004230 -0.004230 0.008971 0.000000 0.000000 0.000000
# 4 0.000000 0.000000 0.000000 0.031320 0.000000 0.000000
# 5 0.000000 0.000000 0.000000 0.000000 0.031320 0.000000
# 6 0.000000 0.000000 0.000000 0.000000 0.000000 0.080151
#
#
# Mechanical properties :
#
#
# Convention : Reuss Voigt Hill
#
# Bulk Modulus (GPa) = 70.97328 80.82808 75.90068
# Shear Modulus (GPa) = 23.84461 28.22105 26.03283
#
# Velocity S-wave (km/s) = 3.49650 3.80386 3.65342
# Velocity P-wave (km/s) = 7.25878 7.79323 7.53074
#
# Compressibility (1/GPa) = 0.01408981
#
# Stress axis : x y z
#
# Youngs Moduli (GPa) = 68.55036 68.54934 111.47349
#
# Poissons Ratio (x) = 0.24467 0.47148
# Poissons Ratio (y) = 0.24468 0.47149
# Poissons Ratio (z) = 0.28993 0.28994
#
# Static dielectric constant tensor:
#      x y z
#    x 1.708640 0.000000 0.000000 
#    y 0.000000 1.708640 0.000000 
#    z 0.000000 0.000000 1.634020 
# 
# From -- ./inp_files/9340.got.cif
#   From: 2010.05.17/outbox.cif.g08.bks.cpg/sg137_5_cif.got.tgz:9340.got - 2010.05.20 13:01:12.
