data_PCOD9570768
_publ_section_title
;
Structure prediction by ZEFSAII (Michael W. Deem and Ramdas Pophale) SiO2 
 PCOD9570768
Probable space group: P 42/N C M
;
_chemical_formula_sum "Si O2"
_cell_formula_units_Z 84
_cell_length_a 10.728805
_cell_length_b 10.728805
_cell_length_c 31.163143
_cell_angle_alpha 90.000000
_cell_angle_beta 90.000000
_cell_angle_gamma 90.000000
_cell_volume 3587.103902
_symmetry_space_group_name_H-M "P 42/N C M"
_symmetry_group_IT_number 138
_space_group.IT_coordinate_system_code '2'
_symmetry_cell_setting 'tetragonal'
loop_
_space_group_symop_operation_xyz
x,y,z
1/2-y,x,1/2+z
1/2-x,1/2-y,z
y,1/2-x,1/2+z
1/2+x,-y,1/2-z
-x,1/2+y,1/2-z
1/2+y,1/2+x,-z
-y,-x,-z
-x,-y,-z
1/2+y,-x,1/2-z
1/2+x,1/2+y,-z
-y,1/2+x,1/2-z
1/2-x,y,1/2+z
x,1/2-y,1/2+z
1/2-y,1/2-x,z
y,x,z
loop_
_atom_site_type_symbol
_atom_site_label
_atom_site_fract_x
_atom_site_fract_y
_atom_site_fract_z
Si Si1 0.759633 0.558005 0.173711
Si Si2 0.132329 0.581614 0.392372
Si Si3 0.500000 0.000000 0.000000
Si Si4 0.453972 0.260316 0.640965
Si Si5 0.757394 0.047428 0.261414
Si Si6 0.994999 0.294724 0.482565
O O1 0.896209 0.603791 0.161317
O O2 0.661719 0.661719 0.158302
O O3 0.713241 0.434385 0.150774
O O4 0.749107 0.554480 0.224560
O O5 0.214631 0.540779 0.432206
O O6 0.016860 0.483141 0.392876
O O7 0.064711 0.714286 0.389784
O O8 0.500512 0.843739 0.999135
O O9 0.346586 0.153415 0.640966
O O10 0.387554 0.387554 0.628009
O O11 0.501589 0.267657 0.690148
O O12 0.633942 0.127583 0.252316
O O13 0.122535 0.377465 0.487524
O O14 0.884580 0.384580 0.500000
#
# Coordination Sequence:
#
# PCOD9570768 Si02
#       6
#    16  16   4  16  16  16
#     4  10  20  34  58  88 117 159 213 272 341 415
#     4   9  19  39  66  95 130 171 223 290 354 429
#     4  12  24  44  76 116 148 188 240 304 364 448
#     4  10  20  36  61  90 121 169 231 293 356 427
#     4  11  22  35  51  76 121 175 226 280 341 415
#     4  10  23  46  76 108 148 195 240 295 372 449
#
# _framework density 23.417217999999998
#
# number of rings (size 3 to 8) (size 9 to 14) (size 15 to 20)
#    0.000    1.905    1.905    1.714    1.333    3.810 
#    1.714    3.810    0.000    0.000    0.000    0.000 
#    0.000    0.000    0.000    0.000    0.000    0.000 
#
# Total GULP energy -467909.342172 kJ/mol
# GULP energy per Si atom -5570.349312 kJ/mol
# Density = 2.336392 g / cm^3
# Si number density = 23.417218 Si / 1000 Ang^3
#
#
#
# Elastic Constant Matrix: (Units=GPa)
#
#
# Indices 1 2 3 4 5 6 
#
# 1 111.9366 67.9030 6.1515 0.0000 0.0000 0.0000
# 2 67.9030 111.9366 6.1515 0.0000 0.0000 0.0000
# 3 6.1515 6.1515 25.4551 0.0000 0.0000 0.0000
# 4 0.0000 0.0000 0.0000 11.9352 0.0000 0.0000
# 5 0.0000 0.0000 0.0000 0.0000 11.9352 0.0000
# 6 0.0000 0.0000 0.0000 0.0000 0.0000 202.1753
#
#
#
# Elastic Compliance Matrix: (Units=1/GPa)
#
#
# Indices 1 2 3 4 5 6 
#
# 1 0.014182 -0.008528 -0.001366 0.000000 0.000000 0.000000
# 2 -0.008528 0.014182 -0.001366 0.000000 0.000000 0.000000
# 3 -0.001366 -0.001366 0.039945 0.000000 0.000000 0.000000
# 4 0.000000 0.000000 0.000000 0.083786 0.000000 0.000000
# 5 0.000000 0.000000 0.000000 0.000000 0.083786 0.000000
# 6 0.000000 0.000000 0.000000 0.000000 0.000000 0.004946
#
#
# Mechanical properties :
#
#
# Convention : Reuss Voigt Hill
#
# Bulk Modulus (GPa) = 21.83984 45.52668 33.68326
# Shear Modulus (GPa) = 17.94619 56.48396 37.21508
#
# Velocity S-wave (km/s) = 2.77134 4.91661 3.99083
# Velocity P-wave (km/s) = 4.42573 7.19128 5.97083
#
# Compressibility (1/GPa) = 0.04578788
#
# Stress axis : x y z
#
# Youngs Moduli (GPa) = 70.51206 70.51206 25.03425
#
# Poissons Ratio (x) = 0.60133 0.03421
# Poissons Ratio (y) = 0.60133 0.03421
# Poissons Ratio (z) = 0.09634 0.09634
#
# Static dielectric constant tensor:
#      x y z
#    x 1.999860 0.000000 0.000000 
#    y 0.000000 1.999860 0.000000 
#    z 0.000000 0.000000 1.925260 
# 
# From -- ./inp_files/8089.got.cif
#   From: 2010.05.17/outbox.cif.g08.bks.cpg/sg138_5_cif.got.tgz:8089.got - 2010.05.20 13:08:53.
