data_PCOD9570615
_publ_section_title
;
Structure prediction by ZEFSAII (Michael W. Deem and Ramdas Pophale) SiO2 
 PCOD9570615
Probable space group: P 42/N C M
;
_chemical_formula_sum "Si O2"
_cell_formula_units_Z 68
_cell_length_a 10.402379
_cell_length_b 10.402379
_cell_length_c 32.336866
_cell_angle_alpha 90.000000
_cell_angle_beta 90.000000
_cell_angle_gamma 90.000000
_cell_volume 3499.155741
_symmetry_space_group_name_H-M "P 42/N C M"
_symmetry_group_IT_number 138
_space_group.IT_coordinate_system_code '2'
_symmetry_cell_setting 'tetragonal'
loop_
_space_group_symop_operation_xyz
x,y,z
1/2-y,x,1/2+z
1/2-x,1/2-y,z
y,1/2-x,1/2+z
1/2+x,-y,1/2-z
-x,1/2+y,1/2-z
1/2+y,1/2+x,-z
-y,-x,-z
-x,-y,-z
1/2+y,-x,1/2-z
1/2+x,1/2+y,-z
-y,1/2+x,1/2-z
1/2-x,y,1/2+z
x,1/2-y,1/2+z
1/2-y,1/2-x,z
y,x,z
loop_
_atom_site_type_symbol
_atom_site_label
_atom_site_fract_x
_atom_site_fract_y
_atom_site_fract_z
Si Si1 0.035516 0.244531 0.770315
Si Si2 0.922948 0.356826 0.186320
Si Si3 0.750243 0.455049 0.486729
Si Si4 0.250000 0.250000 0.988688
Si Si5 0.965156 0.755872 0.891976
O O1 0.141908 0.358093 0.766476
O O2 0.115183 0.115183 0.780406
O O3 0.929582 0.290749 0.803171
O O4 0.966172 0.224451 0.726365
O O5 0.030258 0.469743 0.183124
O O6 0.936063 0.276710 0.144529
O O7 0.872789 0.372789 0.500000
O O8 0.626572 0.373429 0.500000
O O9 0.749940 0.592702 0.507755
O O10 0.753979 0.475083 0.437345
O O11 0.854888 0.645113 0.891833
O O12 0.888527 0.888527 0.884691
#
# Coordination Sequence:
#
# PCOD9570615 Si02
#       5
#    16  16  16   4  16
#     4   9  17  32  52  80 115 148 183 231 289 348
#     4   9  18  31  54  83 112 150 195 238 288 353
#     4  11  23  39  63  97 130 164 212 266 316 384
#     4  12  20  40  68  92 124 172 210 252 332 372
#     4  10  18  34  61  90 118 153 201 252 301 358
#
# _framework density 19.433260000000001
#
# number of rings (size 3 to 8) (size 9 to 14) (size 15 to 20)
#    0.000    2.118    2.353    1.412    0.000    3.294 
#    0.000    4.706    2.588    0.000    0.000    0.000 
#    0.000    0.471    0.000    0.000    0.000    0.000 
#
# Total GULP energy -378597.467696 kJ/mol
# GULP energy per Si atom -5567.609819 kJ/mol
# Density = 1.938903 g / cm^3
# Si number density = 19.433260 Si / 1000 Ang^3
#
#
#
# Elastic Constant Matrix: (Units=GPa)
#
#
# Indices 1 2 3 4 5 6 
#
# 1 100.5440 52.5626 16.7781 0.0000 0.0000 0.0000
# 2 52.5626 100.5444 16.7797 0.0000 0.0000 0.0000
# 3 16.7781 16.7797 49.2426 0.0000 0.0000 0.0000
# 4 0.0000 0.0000 0.0000 23.1472 0.0000 0.0000
# 5 0.0000 0.0000 0.0000 0.0000 23.1475 0.0000
# 6 0.0000 0.0000 0.0000 0.0000 0.0000 16.0491
#
#
#
# Elastic Compliance Matrix: (Units=1/GPa)
#
#
# Indices 1 2 3 4 5 6 
#
# 1 0.013950 -0.006891 -0.002405 0.000000 0.000000 0.000000
# 2 -0.006891 0.013950 -0.002405 0.000000 0.000000 0.000000
# 3 -0.002405 -0.002405 0.021947 0.000000 0.000000 0.000000
# 4 0.000000 0.000000 0.000000 0.043202 0.000000 0.000000
# 5 0.000000 0.000000 0.000000 0.000000 0.043201 0.000000
# 6 0.000000 0.000000 0.000000 0.000000 0.000000 0.062309
#
#
# Mechanical properties :
#
#
# Convention : Reuss Voigt Hill
#
# Bulk Modulus (GPa) = 37.81685 46.95242 42.38463
# Shear Modulus (GPa) = 21.66605 23.41615 22.54110
#
# Velocity S-wave (km/s) = 3.34263 3.47501 3.40946
# Velocity P-wave (km/s) = 5.86512 6.34935 6.11203
#
# Compressibility (1/GPa) = 0.02644324
#
# Stress axis : x y z
#
# Youngs Moduli (GPa) = 71.68521 71.68477 45.56505
#
# Poissons Ratio (x) = 0.49401 0.10957
# Poissons Ratio (y) = 0.49401 0.10961
# Poissons Ratio (z) = 0.17239 0.17244
#
# Static dielectric constant tensor:
#      x y z
#    x 1.687370 0.000000 0.000000 
#    y 0.000000 1.687380 0.000000 
#    z 0.000000 0.000000 1.658450 
# 
# From -- ./inp_files/7803.got.cif
#   From: 2010.05.17/outbox.cif.g08.bks.cpg/sg138_4_cif.got.tgz:7803.got - 2010.05.20 13:08:53.
