data_PCOD9570550
_publ_section_title
;
Structure prediction by ZEFSAII (Michael W. Deem and Ramdas Pophale) SiO2 
 PCOD9570550
Probable space group: P 42/N M C
;
_chemical_formula_sum "Si O2"
_cell_formula_units_Z 112
_cell_length_a 15.000000
_cell_length_b 15.000000
_cell_length_c 24.000000
_cell_angle_alpha 90.000000
_cell_angle_beta 90.000000
_cell_angle_gamma 90.000000
_cell_volume 5400.000000
_symmetry_space_group_name_H-M "P 42/N M C"
_symmetry_group_IT_number 137
_space_group.IT_coordinate_system_code '2'
_symmetry_cell_setting 'tetragonal'
loop_
_space_group_symop_operation_xyz
x,y,z
1/2-y,x,1/2+z
1/2-x,1/2-y,z
y,1/2-x,1/2+z
1/2+x,-y,-z
-x,1/2+y,-z
1/2+y,1/2+x,1/2-z
-y,-x,1/2-z
-x,-y,-z
1/2+y,-x,1/2-z
1/2+x,1/2+y,-z
-y,1/2+x,1/2-z
1/2-x,y,z
x,1/2-y,z
1/2-y,1/2-x,1/2+z
y,x,1/2+z
loop_
_atom_site_type_symbol
_atom_site_label
_atom_site_fract_x
_atom_site_fract_y
_atom_site_fract_z
Si Si1 0.648398 0.496463 0.236164
Si Si2 0.105083 0.853016 0.584604
Si Si3 0.592974 0.897900 0.545976
Si Si4 0.154984 0.146027 0.336903
Si Si5 0.152023 0.897613 0.462572
Si Si6 0.154081 0.025534 0.640161
Si Si7 0.655321 0.538706 0.925682
O O1 0.586567 0.413434 0.250000
O O2 0.750000 0.470755 0.221390
O O3 0.609110 0.564962 0.190803
O O4 0.652486 0.547068 0.295074
O O5 0.102443 0.750000 0.600893
O O6 0.154501 0.863073 0.525804
O O7 0.006936 0.888418 0.569484
O O8 0.145349 0.919890 0.629463
O O9 0.649506 0.858639 0.596397
O O10 0.585442 0.851615 0.486236
O O11 0.625955 0.998127 0.536089
O O12 0.250000 0.106101 0.319089
O O13 0.154276 0.250000 0.320615
O O14 0.250000 0.885313 0.437204
O O15 0.067288 0.851988 0.434074
O O16 0.250000 0.053651 0.616122
O O17 0.075207 0.074444 0.609469
O O18 0.750000 0.561841 0.899768
#
# Coordination Sequence:
#
# PCOD9570550 Si02
#       7
#    16  16  16  16  16  16  16
#     4  10  23  41  63  87 117 156 198 250 303 355
#     4  11  21  36  59  85 122 163 199 241 297 359
#     4  11  19  36  58  87 121 157 193 245 296 353
#     4  10  21  37  59  88 118 152 201 253 302 356
#     4  11  21  35  57  85 123 163 200 243 294 356
#     4  11  23  40  59  87 121 157 203 249 300 363
#     4  11  23  39  59  88 125 163 200 243 298 359
#
# _framework density 20.740741
#
# number of rings (size 3 to 8) (size 9 to 14) (size 15 to 20)
#    0.000    1.286    2.857    5.143    0.000    5.286 
#    0.000    2.857    0.000    0.000    0.000    0.000 
#    0.000    0.286    0.000    0.000    0.000    0.000 
#
# Total GULP energy -624654.975891 kJ/mol
# GULP energy per Si atom -5577.276570 kJ/mol
# Density = 2.069353 g / cm^3
# Si number density = 20.740741 Si / 1000 Ang^3
#
#
#
# Elastic Constant Matrix: (Units=GPa)
#
#
# Indices 1 2 3 4 5 6 
#
# 1 95.9605 20.8104 49.1281 0.0000 0.0000 0.0000
# 2 20.8104 95.9608 49.1280 0.0000 0.0000 0.0000
# 3 49.1281 49.1280 51.9917 0.0000 0.0000 0.0000
# 4 0.0000 0.0000 0.0000 -9.6372 0.0000 0.0000
# 5 0.0000 0.0000 0.0000 0.0000 -9.6338 0.0000
# 6 0.0000 0.0000 0.0000 0.0000 0.0000 15.1818
#
#
#
# Elastic Compliance Matrix: (Units=1/GPa)
#
#
# Indices 1 2 3 4 5 6 
#
# 1 0.027551 0.014244 -0.039493 0.000000 0.000000 0.000000
# 2 0.014244 0.027551 -0.039493 0.000000 0.000000 0.000000
# 3 -0.039493 -0.039493 0.093869 0.000000 0.000000 0.000000
# 4 0.000000 0.000000 0.000000 -0.103764 0.000000 0.000000
# 5 0.000000 0.000000 0.000000 0.000000 -0.103802 0.000000
# 6 0.000000 0.000000 0.000000 0.000000 0.000000 0.065868
#
#
# Mechanical properties :
#
#
# Convention : Reuss Voigt Hill
#
# Bulk Modulus (GPa) = 51.31515 53.56067 52.43791
# Shear Modulus (GPa) = 34.90374 7.50525 21.20450
#
# Velocity S-wave (km/s) = 4.10672 1.90433 3.20090
# Velocity P-wave (km/s) = 6.87617 5.54213 6.24488
#
# Compressibility (1/GPa) = 0.01948742
#
# Stress axis : x y z
#
# Youngs Moduli (GPa) = 36.29662 36.29698 10.65316
#
# Poissons Ratio (x) = -0.51701 0.42072
# Poissons Ratio (y) = -0.51701 0.42072
# Poissons Ratio (z) = 1.43346 1.43346
#
# Static dielectric constant tensor:
#      x y z
#    x 1.799050 0.000000 0.000000 
#    y 0.000000 1.799050 0.000000 
#    z 0.000000 0.000000 1.736500 
# 
# From -- ./inp_files/8979.got.cif
#   From: 2010.05.17/outbox.ucp.g08.bks.cvg/sg137_5_cif.got.tgz:8979.got - 2010.06.11 11:41:14.
