data_PCOD9570167
_publ_section_title
;
Structure prediction by ZEFSAII (Michael W. Deem and Ramdas Pophale) SiO2 
 PCOD9570167
Probable space group: P 42/N M C
;
_chemical_formula_sum "Si O2"
_cell_formula_units_Z 72
_cell_length_a 14.747365
_cell_length_b 14.747365
_cell_length_c 16.342731
_cell_angle_alpha 90.000000
_cell_angle_beta 90.000000
_cell_angle_gamma 90.000000
_cell_volume 3554.295165
_symmetry_space_group_name_H-M "P 42/N M C"
_symmetry_group_IT_number 137
_space_group.IT_coordinate_system_code '2'
_symmetry_cell_setting 'tetragonal'
loop_
_space_group_symop_operation_xyz
x,y,z
1/2-y,x,1/2+z
1/2-x,1/2-y,z
y,1/2-x,1/2+z
1/2+x,-y,-z
-x,1/2+y,-z
1/2+y,1/2+x,1/2-z
-y,-x,1/2-z
-x,-y,-z
1/2+y,-x,1/2-z
1/2+x,1/2+y,-z
-y,1/2+x,1/2-z
1/2-x,y,z
x,1/2-y,z
1/2-y,1/2-x,1/2+z
y,x,1/2+z
loop_
_atom_site_type_symbol
_atom_site_label
_atom_site_fract_x
_atom_site_fract_y
_atom_site_fract_z
Si Si1 0.858662 0.948920 0.948540
Si Si2 0.002514 0.250000 0.896500
Si Si3 0.596253 0.147631 0.336091
Si Si4 0.750000 0.854049 0.456409
Si Si5 0.555478 0.524101 0.618160
Si Si6 0.750000 0.358420 0.464910
O O1 0.750000 0.970412 0.954640
O O2 0.866557 0.846461 0.912291
O O3 0.911721 0.944003 0.036008
O O4 0.923434 0.018130 0.900693
O O5 0.014460 0.156862 0.849282
O O6 0.078536 0.250000 0.967500
O O7 0.910338 0.250000 0.949826
O O8 0.647551 0.147551 0.250000
O O9 0.566789 0.250000 0.354737
O O10 0.513118 0.080401 0.327895
O O11 0.662394 0.116970 0.409837
O O12 0.750000 0.750000 0.486486
O O13 0.750000 0.250000 0.474335
#
# Coordination Sequence:
#
# PCOD9570167 Si02
#       6
#    16   8  16   8  16   8
#     4   9  16  29  48  77 110 138 176 222 287 338
#     4  10  20  34  48  80 110 144 181 233 283 326
#     4  11  21  36  56  82 112 150 189 227 276 344
#     4   8  14  24  42  66 102 138 164 203 265 332
#     4  10  20  31  51  76 107 146 185 232 278 328
#     4  10  20  32  56  86 122 144 173 228 284 342
#
# _framework density 20.257180999999999
#
# number of rings (size 3 to 8) (size 9 to 14) (size 15 to 20)
#    0.000    2.222    1.111    4.667    0.000    3.556 
#    0.000    0.000    2.444    0.000    0.000    0.000 
#    0.000    0.000    0.000    0.000    0.000    0.000 
#
# Total GULP energy -401160.035823 kJ/mol
# GULP energy per Si atom -5571.667164 kJ/mol
# Density = 2.021108 g / cm^3
# Si number density = 20.257181 Si / 1000 Ang^3
#
#
#
# Elastic Constant Matrix: (Units=GPa)
#
#
# Indices 1 2 3 4 5 6 
#
# 1 135.8302 67.5584 7.1714 0.0000 0.0000 0.0000
# 2 67.5584 135.8302 7.1714 0.0000 0.0000 0.0000
# 3 7.1714 7.1714 10.7252 0.0000 0.0000 0.0000
# 4 0.0000 0.0000 0.0000 13.1512 0.0000 0.0000
# 5 0.0000 0.0000 0.0000 0.0000 13.1512 0.0000
# 6 0.0000 0.0000 0.0000 0.0000 0.0000 28.7247
#
#
#
# Elastic Compliance Matrix: (Units=1/GPa)
#
#
# Indices 1 2 3 4 5 6 
#
# 1 0.009904 -0.004744 -0.003450 0.000000 0.000000 0.000000
# 2 -0.004744 0.009904 -0.003450 0.000000 0.000000 0.000000
# 3 -0.003450 -0.003450 0.097852 0.000000 0.000000 0.000000
# 4 0.000000 0.000000 0.000000 0.076039 0.000000 0.000000
# 5 0.000000 0.000000 0.000000 0.000000 0.076039 0.000000
# 6 0.000000 0.000000 0.000000 0.000000 0.000000 0.034813
#
#
# Mechanical properties :
#
#
# Convention : Reuss Voigt Hill
#
# Bulk Modulus (GPa) = 10.59648 49.57649 30.08648
# Shear Modulus (GPa) = 13.91613 24.37105 19.14359
#
# Velocity S-wave (km/s) = 2.62386 3.47231 3.07746
# Velocity P-wave (km/s) = 3.79761 6.37202 5.24521
#
# Compressibility (1/GPa) = 0.09437099
#
# Stress axis : x y z
#
# Youngs Moduli (GPa) = 100.97268 100.97268 10.21952
#
# Poissons Ratio (x) = 0.47898 0.03526
# Poissons Ratio (y) = 0.47898 0.03526
# Poissons Ratio (z) = 0.34838 0.34838
#
# Static dielectric constant tensor:
#      x y z
#    x 1.753410 0.000000 0.000000 
#    y 0.000000 1.753410 0.000000 
#    z 0.000000 0.000000 1.688950 
# 
# From -- ./inp_files/6275.got.cif
#   From: 2010.05.17/outbox.cif.g08.bks.cpg/sg137_4_cif.got.tgz:6275.got - 2010.05.20 13:01:12.
