data_PCOD9570736
_publ_section_title
;
Structure prediction by ZEFSAII (Michael W. Deem and Ramdas Pophale) SiO2 
 PCOD9570736
Probable space group: P 42/N C M
;
_chemical_formula_sum "Si O2"
_cell_formula_units_Z 80
_cell_length_a 20.193816
_cell_length_b 20.193816
_cell_length_c 12.801113
_cell_angle_alpha 90.000000
_cell_angle_beta 90.000000
_cell_angle_gamma 90.000000
_cell_volume 5220.168490
_symmetry_space_group_name_H-M "P 42/N C M"
_symmetry_group_IT_number 138
_space_group.IT_coordinate_system_code '2'
_symmetry_cell_setting 'tetragonal'
loop_
_space_group_symop_operation_xyz
x,y,z
1/2-y,x,1/2+z
1/2-x,1/2-y,z
y,1/2-x,1/2+z
1/2+x,-y,1/2-z
-x,1/2+y,1/2-z
1/2+y,1/2+x,-z
-y,-x,-z
-x,-y,-z
1/2+y,-x,1/2-z
1/2+x,1/2+y,-z
-y,1/2+x,1/2-z
1/2-x,y,1/2+z
x,1/2-y,1/2+z
1/2-y,1/2-x,z
y,x,z
loop_
_atom_site_type_symbol
_atom_site_label
_atom_site_fract_x
_atom_site_fract_y
_atom_site_fract_z
Si Si1 0.103238 0.989886 0.559363
Si Si2 0.183630 0.071500 0.395092
Si Si3 0.410453 0.975346 0.295205
Si Si4 0.868296 0.981827 0.820203
Si Si5 0.669682 0.943076 0.543699
O O1 0.073557 0.926444 0.500000
O O2 0.119961 0.974717 0.679062
O O3 0.158059 0.024639 0.488741
O O4 0.043158 0.043158 0.563316
O O5 0.137107 0.137107 0.394883
O O6 0.170847 0.033755 0.285850
O O7 0.260601 0.083331 0.414607
O O8 0.448244 0.906617 0.317400
O O9 0.468216 0.031785 0.295841
O O10 0.358637 0.999125 0.381634
O O11 0.926850 0.926850 0.822532
O O12 0.827215 0.970312 0.925496
O O13 0.615904 0.884097 0.545441
#
# Coordination Sequence:
#
# PCOD9570736 Si02
#       5
#    16  16  16  16  16
#     4   9  15  27  47  69  89 116 154 198 246 283
#     4  10  20  32  47  67  99 134 163 196 229 276
#     4   9  16  29  50  70  90 117 156 206 254 286
#     4   9  17  32  49  67  91 122 158 205 257 282
#     4  10  21  32  46  69  98 134 167 192 229 284
#
# _framework density 15.325176000000001
#
# number of rings (size 3 to 8) (size 9 to 14) (size 15 to 20)
#    0.000    2.600    2.000    0.600    2.800    2.800 
#    0.000    0.000    0.000    3.600    0.000    0.000 
#    0.000   10.400    0.000    0.000    0.000    0.000 
#
# Total GULP energy -445474.745771 kJ/mol
# GULP energy per Si atom -5568.434322 kJ/mol
# Density = 1.529030 g / cm^3
# Si number density = 15.325176 Si / 1000 Ang^3
#
#
#
# Elastic Constant Matrix: (Units=GPa)
#
#
# Indices 1 2 3 4 5 6 
#
# 1 39.0324 42.7201 43.5043 0.0000 0.0000 0.0000
# 2 42.7201 39.0325 43.5039 0.0000 0.0000 0.0000
# 3 43.5043 43.5039 116.6421 0.0000 0.0000 0.0000
# 4 0.0000 0.0000 0.0000 14.5451 0.0000 0.0000
# 5 0.0000 0.0000 0.0000 0.0000 14.5451 0.0000
# 6 0.0000 0.0000 0.0000 0.0000 0.0000 8.2588
#
#
#
# Elastic Compliance Matrix: (Units=1/GPa)
#
#
# Indices 1 2 3 4 5 6 
#
# 1 -0.125449 0.145731 -0.007564 0.000000 0.000000 0.000000
# 2 0.145731 -0.125447 -0.007566 0.000000 0.000000 0.000000
# 3 -0.007564 -0.007566 0.014216 0.000000 0.000000 0.000000
# 4 0.000000 0.000000 0.000000 0.068752 0.000000 0.000000
# 5 0.000000 0.000000 0.000000 0.000000 0.068752 0.000000
# 6 0.000000 0.000000 0.000000 0.000000 0.000000 0.121083
#
#
# Mechanical properties :
#
#
# Convention : Reuss Voigt Hill
#
# Bulk Modulus (GPa) = 40.77832 50.46261 45.62047
# Shear Modulus (GPa) = -21.63375 11.80170 -4.91602
#
# Velocity S-wave (km/s) = -3.76127 2.77805 -1.79298
# Velocity P-wave (km/s) = 2.79350 6.57948 5.05436
#
# Compressibility (1/GPa) = 0.02452283
#
# Stress axis : x y z
#
# Youngs Moduli (GPa) = -7.97136 -7.97152 70.34119
#
# Poissons Ratio (x) = 1.16170 0.53208
# Poissons Ratio (y) = 1.16168 0.53221
# Poissons Ratio (z) = -0.06030 -0.06031
#
# Static dielectric constant tensor:
#      x y z
#    x 1.494070 0.000000 0.000000 
#    y 0.000000 1.494070 0.000000 
#    z 0.000000 0.000000 1.529470 
# 
# From -- ./inp_files/4110.got.cif
#   From: 2010.05.17/outbox.cif.g08.bks.cpg/sg138_3_cif.got.tgz:4110.got - 2010.05.20 13:08:53.
