data_PCOD9570180
_publ_section_title
;
Structure prediction by ZEFSAII (Michael W. Deem and Ramdas Pophale) SiO2 
 PCOD9570180
Probable space group: P 42/N M C
;
_chemical_formula_sum "Si O2"
_cell_formula_units_Z 112
_cell_length_a 15.144740
_cell_length_b 15.144740
_cell_length_c 24.664936
_cell_angle_alpha 90.000000
_cell_angle_beta 90.000000
_cell_angle_gamma 90.000000
_cell_volume 5657.227407
_symmetry_space_group_name_H-M "P 42/N M C"
_symmetry_group_IT_number 137
_space_group.IT_coordinate_system_code '2'
_symmetry_cell_setting 'tetragonal'
loop_
_space_group_symop_operation_xyz
x,y,z
1/2-y,x,1/2+z
1/2-x,1/2-y,z
y,1/2-x,1/2+z
1/2+x,-y,-z
-x,1/2+y,-z
1/2+y,1/2+x,1/2-z
-y,-x,1/2-z
-x,-y,-z
1/2+y,-x,1/2-z
1/2+x,1/2+y,-z
-y,1/2+x,1/2-z
1/2-x,y,z
x,1/2-y,z
1/2-y,1/2-x,1/2+z
y,x,1/2+z
loop_
_atom_site_type_symbol
_atom_site_label
_atom_site_fract_x
_atom_site_fract_y
_atom_site_fract_z
Si Si1 0.494123 0.148958 0.409363
Si Si2 0.526661 0.906991 0.475040
Si Si3 0.144727 0.843058 0.079329
Si Si4 0.504933 0.148133 0.103419
Si Si5 0.917236 0.961523 0.281009
Si Si6 0.851522 0.088904 0.806748
Si Si7 0.356136 0.149216 0.821641
O O1 0.515585 0.250000 0.394107
O O2 0.456992 0.148934 0.470805
O O3 0.418142 0.113378 0.368822
O O4 0.581307 0.087824 0.405322
O O5 0.436571 0.878006 0.446338
O O6 0.605301 0.926049 0.432918
O O7 0.500000 0.000000 0.500000
O O8 0.250000 0.837551 0.074549
O O9 0.107255 0.750000 0.057073
O O10 0.122494 0.851229 0.142686
O O11 0.521934 0.250000 0.088446
O O12 0.481210 0.142274 0.167131
O O13 0.879186 0.895529 0.235763
O O14 0.005140 0.915124 0.304222
O O15 0.950392 0.049609 0.250000
O O16 0.861721 0.138280 0.750000
O O17 0.750000 0.061025 0.814325
O O18 0.250000 0.153511 0.826416
O O19 0.390350 0.250000 0.825505
#
# Coordination Sequence:
#
# PCOD9570180 Si02
#       7
#    16  16  16  16  16  16  16
#     4  10  22  42  66  91 124 162 208 270 323 372
#     4  10  22  39  58  86 119 156 201 253 307 367
#     4  10  20  36  59  85 118 156 193 240 300 369
#     4  11  23  41  63  91 126 168 213 261 323 387
#     4  11  20  37  60  87 125 165 205 257 318 374
#     4  10  20  32  53  84 122 158 194 239 298 371
#     4  10  21  38  62  91 121 159 209 260 319 387
#
# _framework density 19.797682999999999
#
# number of rings (size 3 to 8) (size 9 to 14) (size 15 to 20)
#    0.000    1.714    2.857    1.714    0.000    3.857 
#    0.000    6.429    0.000    3.857    0.000    0.000 
#    0.000    0.000    0.000    0.000    0.000    0.000 
#
# Total GULP energy -624627.542627 kJ/mol
# GULP energy per Si atom -5577.031631 kJ/mol
# Density = 1.975262 g / cm^3
# Si number density = 19.797683 Si / 1000 Ang^3
#
#
#
# Elastic Constant Matrix: (Units=GPa)
#
#
# Indices 1 2 3 4 5 6 
#
# 1 97.8587 33.1544 40.8239 0.0000 0.0000 0.0000
# 2 33.1544 97.8577 40.8241 0.0000 0.0000 0.0000
# 3 40.8239 40.8241 118.5415 0.0000 0.0000 0.0000
# 4 0.0000 0.0000 0.0000 -6.7485 0.0000 0.0000
# 5 0.0000 0.0000 0.0000 0.0000 -6.7480 0.0000
# 6 0.0000 0.0000 0.0000 0.0000 0.0000 26.4103
#
#
#
# Elastic Compliance Matrix: (Units=1/GPa)
#
#
# Indices 1 2 3 4 5 6 
#
# 1 0.012587 -0.002868 -0.003347 0.000000 0.000000 0.000000
# 2 -0.002868 0.012587 -0.003347 0.000000 0.000000 0.000000
# 3 -0.003347 -0.003347 0.010741 0.000000 0.000000 0.000000
# 4 0.000000 0.000000 0.000000 -0.148182 0.000000 0.000000
# 5 0.000000 0.000000 0.000000 0.000000 -0.148192 0.000000
# 6 0.000000 0.000000 0.000000 0.000000 0.000000 0.037864
#
#
# Mechanical properties :
#
#
# Convention : Reuss Voigt Hill
#
# Bulk Modulus (GPa) = 59.55691 60.42918 59.99304
# Shear Modulus (GPa) = -25.26857 15.87980 -4.69438
#
# Velocity S-wave (km/s) = -3.57647 2.83522 -1.54153
# Velocity P-wave (km/s) = 3.61846 6.42710 5.21540
#
# Compressibility (1/GPa) = 0.01679066
#
# Stress axis : x y z
#
# Youngs Moduli (GPa) = 79.44832 79.44720 93.09970
#
# Poissons Ratio (x) = 0.22787 0.31160
# Poissons Ratio (y) = 0.22787 0.31161
# Poissons Ratio (z) = 0.26591 0.26591
#
# Static dielectric constant tensor:
#      x y z
#    x 1.728350 0.000000 0.000000 
#    y 0.000000 1.728350 0.000000 
#    z 0.000000 0.000000 1.877670 
# 
# From -- ./inp_files/8992.got.cif
#   From: 2010.05.17/outbox.cif.g08.bks.cpg/sg137_5_cif.got.tgz:8992.got - 2010.05.20 13:01:12.
