data_PCOD9570130
_publ_section_title
;
Structure prediction by ZEFSAII (Michael W. Deem and Ramdas Pophale) SiO2 
 PCOD9570130
Probable space group: P 42/N M C
;
_chemical_formula_sum "Si O2"
_cell_formula_units_Z 96
_cell_length_a 16.247952
_cell_length_b 16.247952
_cell_length_c 18.897633
_cell_angle_alpha 90.000000
_cell_angle_beta 90.000000
_cell_angle_gamma 90.000000
_cell_volume 4988.898467
_symmetry_space_group_name_H-M "P 42/N M C"
_symmetry_group_IT_number 137
_space_group.IT_coordinate_system_code '2'
_symmetry_cell_setting 'tetragonal'
loop_
_space_group_symop_operation_xyz
x,y,z
1/2-y,x,1/2+z
1/2-x,1/2-y,z
y,1/2-x,1/2+z
1/2+x,-y,-z
-x,1/2+y,-z
1/2+y,1/2+x,1/2-z
-y,-x,1/2-z
-x,-y,-z
1/2+y,-x,1/2-z
1/2+x,1/2+y,-z
-y,1/2+x,1/2-z
1/2-x,y,z
x,1/2-y,z
1/2-y,1/2-x,1/2+z
y,x,1/2+z
loop_
_atom_site_type_symbol
_atom_site_label
_atom_site_fract_x
_atom_site_fract_y
_atom_site_fract_z
Si Si1 0.654830 0.985366 0.603817
Si Si2 0.412658 0.656588 0.645470
Si Si3 0.659241 0.506729 0.292501
Si Si4 0.021056 0.095010 0.482530
Si Si5 0.572155 0.341048 0.603646
Si Si6 0.458285 0.155834 0.729383
O O1 0.750000 0.977636 0.589116
O O2 0.606071 0.917607 0.558476
O O3 0.640261 0.971299 0.687444
O O4 0.627278 0.079420 0.587941
O O5 0.376760 0.750000 0.644342
O O6 0.356985 0.577212 0.663605
O O7 0.477118 0.656042 0.710745
O O8 0.458123 0.636016 0.572756
O O9 0.750000 0.537536 0.308959
O O10 0.595136 0.580355 0.300785
O O11 0.008681 0.145676 0.554267
O O12 0.000000 0.000000 0.500000
O O13 0.607115 0.250000 0.589615
O O14 0.542090 0.344837 0.684414
O O15 0.424872 0.250000 0.721878
#
# Coordination Sequence:
#
# PCOD9570130 Si02
#       6
#    16  16  16  16  16  16
#     4  10  20  35  59  85 111 146 190 240 286 347
#     4  10  20  34  55  81 113 152 198 245 294 357
#     4  10  20  34  56  82 110 150 195 250 305 347
#     4  10  19  35  57  81 112 151 194 233 283 360
#     4  10  21  35  56  83 113 149 183 229 291 351
#     4  10  20  36  58  86 116 150 197 245 292 354
#
# _framework density 19.242726000000001
#
# number of rings (size 3 to 8) (size 9 to 14) (size 15 to 20)
#    0.000    2.000    1.667    3.000    2.333    1.000 
#    0.000    9.167    0.000   10.000    0.000    0.000 
#    0.000    0.000    0.000    0.000    0.000    0.000 
#
# Total GULP energy -534675.317739 kJ/mol
# GULP energy per Si atom -5569.534560 kJ/mol
# Density = 1.919893 g / cm^3
# Si number density = 19.242726 Si / 1000 Ang^3
#
#
#
# Elastic Constant Matrix: (Units=GPa)
#
#
# Indices 1 2 3 4 5 6 
#
# 1 56.4543 16.5576 9.5962 0.0000 0.0000 0.0000
# 2 16.5576 56.4543 9.5962 0.0000 0.0000 0.0000
# 3 9.5962 9.5962 65.5157 0.0000 0.0000 0.0000
# 4 0.0000 0.0000 0.0000 17.6254 0.0000 0.0000
# 5 0.0000 0.0000 0.0000 0.0000 17.6254 0.0000
# 6 0.0000 0.0000 0.0000 0.0000 0.0000 8.8113
#
#
#
# Elastic Compliance Matrix: (Units=1/GPa)
#
#
# Indices 1 2 3 4 5 6 
#
# 1 0.019655 -0.005410 -0.002086 0.000000 0.000000 0.000000
# 2 -0.005410 0.019655 -0.002086 0.000000 0.000000 0.000000
# 3 -0.002086 -0.002086 0.015875 0.000000 0.000000 0.000000
# 4 0.000000 0.000000 0.000000 0.056736 0.000000 0.000000
# 5 0.000000 0.000000 0.000000 0.000000 0.056736 0.000000
# 6 0.000000 0.000000 0.000000 0.000000 0.000000 0.113491
#
#
# Mechanical properties :
#
#
# Convention : Reuss Voigt Hill
#
# Bulk Modulus (GPa) = 27.76344 27.76936 27.76640
# Shear Modulus (GPa) = 15.95815 18.32404 17.14110
#
# Velocity S-wave (km/s) = 2.88290 3.08922 2.98784
# Velocity P-wave (km/s) = 5.05379 5.21409 5.13457
#
# Compressibility (1/GPa) = 0.03601859
#
# Stress axis : x y z
#
# Youngs Moduli (GPa) = 50.87823 50.87823 62.99323
#
# Poissons Ratio (x) = 0.27525 0.13143
# Poissons Ratio (y) = 0.27525 0.13143
# Poissons Ratio (z) = 0.10616 0.10616
#
# Static dielectric constant tensor:
#      x y z
#    x 1.673570 0.000000 0.000000 
#    y 0.000000 1.673570 0.000000 
#    z 0.000000 0.000000 1.710380 
# 
# From -- ./inp_files/7860.got.cif
#   From: 2010.05.17/outbox.cif.g08.bks.cpg/sg137_4_cif.got.tgz:7860.got - 2010.05.20 13:01:12.
