data_PCOD9570315
_publ_section_title
;
Structure prediction by ZEFSAII (Michael W. Deem and Ramdas Pophale) SiO2 
 PCOD9570315
Probable space group: P 42/N M C
;
_chemical_formula_sum "Si O2"
_cell_formula_units_Z 112
_cell_length_a 13.203279
_cell_length_b 13.203279
_cell_length_c 27.182619
_cell_angle_alpha 90.000000
_cell_angle_beta 90.000000
_cell_angle_gamma 90.000000
_cell_volume 4738.652907
_symmetry_space_group_name_H-M "P 42/N M C"
_symmetry_group_IT_number 137
_space_group.IT_coordinate_system_code '2'
_symmetry_cell_setting 'tetragonal'
loop_
_space_group_symop_operation_xyz
x,y,z
1/2-y,x,1/2+z
1/2-x,1/2-y,z
y,1/2-x,1/2+z
1/2+x,-y,-z
-x,1/2+y,-z
1/2+y,1/2+x,1/2-z
-y,-x,1/2-z
-x,-y,-z
1/2+y,-x,1/2-z
1/2+x,1/2+y,-z
-y,1/2+x,1/2-z
1/2-x,y,z
x,1/2-y,z
1/2-y,1/2-x,1/2+z
y,x,1/2+z
loop_
_atom_site_type_symbol
_atom_site_label
_atom_site_fract_x
_atom_site_fract_y
_atom_site_fract_z
Si Si1 0.061578 0.420577 0.347604
Si Si2 0.575708 0.870555 0.045528
Si Si3 0.865765 0.962442 0.256852
Si Si4 0.639959 0.127312 0.991181
Si Si5 0.924715 0.368309 0.101334
Si Si6 0.627876 0.643340 0.439140
Si Si7 0.552107 0.132873 0.697597
O O1 0.105032 0.387817 0.400015
O O2 0.090663 0.368237 0.296883
O O3 0.083502 0.540847 0.338791
O O4 0.942521 0.395491 0.355434
O O5 0.577083 0.750000 0.041768
O O6 0.459385 0.905754 0.038198
O O7 0.632385 0.906810 0.996126
O O8 0.750000 0.980164 0.272278
O O9 0.933148 0.891110 0.292074
O O10 0.936771 0.063230 0.250000
O O11 0.750000 0.097456 0.972457
O O12 0.636559 0.250000 0.989521
O O13 0.627471 0.104940 0.049300
O O14 0.909132 0.250000 0.110786
O O15 0.042551 0.391961 0.090940
O O16 0.750000 0.645104 0.441522
O O17 0.594127 0.750000 0.417400
O O18 0.607731 0.107731 0.750000
O O19 0.569741 0.250000 0.683998
#
# Coordination Sequence:
#
# PCOD9570315 Si02
#       7
#    16  16  16  16  16  16  16
#     4  10  21  33  52  82 110 132 170 219 271 324
#     4   9  18  32  47  68 103 139 172 219 268 303
#     4   9  21  41  61  82 110 140 173 217 270 332
#     4   8  15  29  47  66  95 140 186 220 254 300
#     4   9  18  32  47  68 103 139 172 219 268 303
#     4   8  15  29  47  66  95 140 186 220 254 300
#     4   9  21  41  61  82 110 140 173 217 270 332
#
# _framework density 23.63541
#
# number of rings (size 3 to 8) (size 9 to 14) (size 15 to 20)
#    0.000    3.429    0.000    1.714    0.000    9.714 
#    0.000    1.429    0.000    0.000    0.000    0.000 
#    0.000    0.000    0.000    0.000    0.000    0.000 
#
# Total GULP energy -625023.840030 kJ/mol
# GULP energy per Si atom -5580.570000 kJ/mol
# Density = 2.358161 g / cm^3
# Si number density = 23.635410 Si / 1000 Ang^3
#
#
#
# Elastic Constant Matrix: (Units=GPa)
#
#
# Indices 1 2 3 4 5 6 
#
# 1 69.3152 0.0314 -17.5310 0.0000 0.0000 0.0000
# 2 0.0314 69.3145 -17.5312 0.0000 0.0000 0.0000
# 3 -17.5310 -17.5312 61.9997 0.0000 0.0000 0.0000
# 4 0.0000 0.0000 0.0000 -9.9851 0.0000 0.0000
# 5 0.0000 0.0000 0.0000 0.0000 -9.9852 0.0000
# 6 0.0000 0.0000 0.0000 0.0000 0.0000 5.3597
#
#
#
# Elastic Compliance Matrix: (Units=1/GPa)
#
#
# Indices 1 2 3 4 5 6 
#
# 1 0.015630 0.001196 0.004758 0.000000 0.000000 0.000000
# 2 0.001196 0.015630 0.004758 0.000000 0.000000 0.000000
# 3 0.004758 0.004758 0.018820 0.000000 0.000000 0.000000
# 4 0.000000 0.000000 0.000000 -0.100149 0.000000 0.000000
# 5 0.000000 0.000000 0.000000 0.000000 -0.100148 0.000000
# 6 0.000000 0.000000 0.000000 0.000000 0.000000 0.186579
#
#
# Mechanical properties :
#
#
# Convention : Reuss Voigt Hill
#
# Bulk Modulus (GPa) = 13.98553 14.50753 14.24653
# Shear Modulus (GPa) = 128.96214 12.78856 70.87535
#
# Velocity S-wave (km/s) = 7.39470 2.32863 5.48197
# Velocity P-wave (km/s) = 8.87912 3.65806 6.79044
#
# Compressibility (1/GPa) = 0.07150249
#
# Stress axis : x y z
#
# Youngs Moduli (GPa) = 63.98114 63.98037 53.13578
#
# Poissons Ratio (x) = -0.07654 -0.25280
# Poissons Ratio (y) = -0.07654 -0.25281
# Poissons Ratio (z) = -0.30440 -0.30440
#
# Static dielectric constant tensor:
#      x y z
#    x 1.958880 0.000000 0.000000 
#    y 0.000000 1.958880 0.000000 
#    z 0.000000 0.000000 1.887430 
# 
# From -- ./inp_files/10660.got.cif
#   From: 2010.05.17/outbox.cif.g08.bks.cpg/sg137_6_cif.got.tgz:10660.got - 2010.05.20 13:01:12.
