data_PCOD9570541
_publ_section_title
;
Structure prediction by ZEFSAII (Michael W. Deem and Ramdas Pophale) SiO2 
 PCOD9570541
Probable space group: P 42/N M C
;
_chemical_formula_sum "Si O2"
_cell_formula_units_Z 128
_cell_length_a 18.000000
_cell_length_b 18.000000
_cell_length_c 24.000000
_cell_angle_alpha 90.000000
_cell_angle_beta 90.000000
_cell_angle_gamma 90.000000
_cell_volume 7776.000000
_symmetry_space_group_name_H-M "P 42/N M C"
_symmetry_group_IT_number 137
_space_group.IT_coordinate_system_code '2'
_symmetry_cell_setting 'tetragonal'
loop_
_space_group_symop_operation_xyz
x,y,z
1/2-y,x,1/2+z
1/2-x,1/2-y,z
y,1/2-x,1/2+z
1/2+x,-y,-z
-x,1/2+y,-z
1/2+y,1/2+x,1/2-z
-y,-x,1/2-z
-x,-y,-z
1/2+y,-x,1/2-z
1/2+x,1/2+y,-z
-y,1/2+x,1/2-z
1/2-x,y,z
x,1/2-y,z
1/2-y,1/2-x,1/2+z
y,x,1/2+z
loop_
_atom_site_type_symbol
_atom_site_label
_atom_site_fract_x
_atom_site_fract_y
_atom_site_fract_z
Si Si1 0.939588 0.968308 0.582857
Si Si2 0.585899 0.569809 0.406538
Si Si3 0.333720 0.465299 0.992535
Si Si4 0.671319 0.016889 0.486036
Si Si5 0.331841 0.638377 0.023618
Si Si6 0.004490 0.835268 0.186016
Si Si7 0.164918 0.460685 0.188958
Si Si8 0.333835 0.632115 0.154570
O O1 0.958911 0.886077 0.561457
O O2 0.889993 0.976478 0.637895
O O3 0.892594 0.999446 0.530656
O O4 0.012653 0.018061 0.590173
O O5 0.578560 0.631450 0.455244
O O6 0.652424 0.518293 0.427009
O O7 0.588232 0.609430 0.347325
O O8 0.250000 0.441361 0.981137
O O9 0.333101 0.550256 0.013106
O O10 0.750000 0.987975 0.507312
O O11 0.672081 0.105055 0.485867
O O12 0.250000 0.665422 0.010883
O O13 0.345436 0.651935 0.089484
O O14 0.983968 0.750000 0.173791
O O15 0.973190 0.855505 0.246699
O O16 0.094715 0.838632 0.187282
O O17 0.250000 0.433925 0.186115
O O18 0.164161 0.542840 0.160979
O O19 0.250000 0.655870 0.170853
#
# Coordination Sequence:
#
# PCOD9570541 Si02
#       8
#    16  16  16  16  16  16  16  16
#     4  11  19  31  49  72  98 130 162 199 244 284
#     4  11  18  32  52  71  94 131 168 205 245 280
#     4  10  17  29  50  72  93 122 161 202 242 290
#     4  11  20  31  47  72 102 130 160 206 249 292
#     4  10  17  28  46  71 103 139 165 189 234 292
#     4  11  21  31  46  70 101 134 167 205 241 283
#     4  10  19  31  49  70  94 129 171 207 242 283
#     4  10  18  28  44  67 101 140 173 198 227 279
#
# _framework density 16.460905
#
# number of rings (size 3 to 8) (size 9 to 14) (size 15 to 20)
#    0.000    1.500    6.250    1.875    0.000    0.500 
#    0.000    1.250    0.000   15.750    0.000    1.750 
#    0.000    0.000    0.000    0.000    0.250    0.000 
#
# Total GULP energy -713523.802397 kJ/mol
# GULP energy per Si atom -5574.404706 kJ/mol
# Density = 1.642344 g / cm^3
# Si number density = 16.460905 Si / 1000 Ang^3
#
#
#
# Elastic Constant Matrix: (Units=GPa)
#
#
# Indices 1 2 3 4 5 6 
#
# 1 51.2733 15.2817 29.5461 0.0000 0.0000 0.0000
# 2 15.2817 51.2733 29.5461 0.0000 0.0000 0.0000
# 3 29.5461 29.5461 84.3136 0.0000 0.0000 0.0000
# 4 0.0000 0.0000 0.0000 -0.1849 0.0000 0.0000
# 5 0.0000 0.0000 0.0000 0.0000 -0.1849 0.0000
# 6 0.0000 0.0000 0.0000 0.0000 0.0000 1.2112
#
#
#
# Elastic Compliance Matrix: (Units=1/GPa)
#
#
# Indices 1 2 3 4 5 6 
#
# 1 0.024798 -0.002986 -0.007643 0.000000 0.000000 0.000000
# 2 -0.002986 0.024798 -0.007643 0.000000 0.000000 0.000000
# 3 -0.007643 -0.007643 0.017217 0.000000 0.000000 0.000000
# 4 0.000000 0.000000 0.000000 -5.409769 0.000000 0.000000
# 5 0.000000 0.000000 0.000000 0.000000 -5.409769 0.000000
# 6 0.000000 0.000000 0.000000 0.000000 0.000000 0.825629
#
#
# Mechanical properties :
#
#
# Convention : Reuss Voigt Hill
#
# Bulk Modulus (GPa) = 33.03948 37.28977 35.16463
# Shear Modulus (GPa) = -0.50605 7.66739 3.58067
#
# Velocity S-wave (km/s) = -0.55506 2.16057 1.47648
# Velocity P-wave (km/s) = 4.43895 5.37836 4.93108
#
# Compressibility (1/GPa) = 0.03026682
#
# Stress axis : x y z
#
# Youngs Moduli (GPa) = 40.32604 40.32604 58.08050
#
# Poissons Ratio (x) = 0.12043 0.44394
# Poissons Ratio (y) = 0.12043 0.44394
# Poissons Ratio (z) = 0.30823 0.30823
#
# Static dielectric constant tensor:
#      x y z
#    x 1.613140 0.000000 0.000000 
#    y 0.000000 1.613140 0.000000 
#    z 0.000000 0.000000 1.535640 
# 
# From -- ./inp_files/9161.got.cif
#   From: 2010.05.17/outbox.ucp.g08.bks.cvg/sg137_5_cif.got.tgz:9161.got - 2010.06.11 11:41:14.
