data_PCOD9570817
_publ_section_title
;
Structure prediction by ZEFSAII (Michael W. Deem and Ramdas Pophale) SiO2 
 PCOD9570817
Probable space group: P 42/N C M
;
_chemical_formula_sum "Si O2"
_cell_formula_units_Z 112
_cell_length_a 14.649894
_cell_length_b 14.649894
_cell_length_c 20.660483
_cell_angle_alpha 90.000000
_cell_angle_beta 90.000000
_cell_angle_gamma 90.000000
_cell_volume 4434.140346
_symmetry_space_group_name_H-M "P 42/N C M"
_symmetry_group_IT_number 138
_space_group.IT_coordinate_system_code '2'
_symmetry_cell_setting 'tetragonal'
loop_
_space_group_symop_operation_xyz
x,y,z
1/2-y,x,1/2+z
1/2-x,1/2-y,z
y,1/2-x,1/2+z
1/2+x,-y,1/2-z
-x,1/2+y,1/2-z
1/2+y,1/2+x,-z
-y,-x,-z
-x,-y,-z
1/2+y,-x,1/2-z
1/2+x,1/2+y,-z
-y,1/2+x,1/2-z
1/2-x,y,1/2+z
x,1/2-y,1/2+z
1/2-y,1/2-x,z
y,x,z
loop_
_atom_site_type_symbol
_atom_site_label
_atom_site_fract_x
_atom_site_fract_y
_atom_site_fract_z
Si Si1 0.448113 0.200421 0.107782
Si Si2 0.534812 0.380881 0.940687
Si Si3 0.660129 0.208302 0.126897
Si Si4 0.893919 0.745480 0.031501
Si Si5 0.365165 0.505080 0.322710
Si Si6 0.062393 0.213435 0.755823
Si Si7 0.883394 0.115014 0.800854
O O1 0.400176 0.099825 0.108016
O O2 0.557396 0.206664 0.097859
O O3 0.404040 0.250282 0.046662
O O4 0.427192 0.238069 0.179816
O O5 0.451541 0.451541 0.950251
O O6 0.580062 0.403383 0.872666
O O7 0.602774 0.397227 0.000000
O O8 0.489927 0.280774 0.942026
O O9 0.750000 0.250000 0.090762
O O10 0.666924 0.101989 0.147826
O O11 0.845000 0.216772 0.185110
O O12 0.855368 0.644633 0.045777
O O13 0.816911 0.816911 0.051928
O O14 0.457170 0.457170 0.347525
O O15 0.286740 0.430107 0.312843
O O16 0.379158 0.530382 0.246971
O O17 0.132396 0.132396 0.768266
O O18 0.960303 0.175465 0.766200
#
# Coordination Sequence:
#
# PCOD9570817 Si02
#       7
#    16  16  16  16  16  16  16
#     4  10  20  36  61  94 130 164 210 272 331 395
#     4  10  21  36  58  92 129 169 221 273 321 382
#     4  12  24  39  62  93 125 170 219 266 326 402
#     4   9  19  38  64  93 128 173 221 268 326 397
#     4  12  24  39  62  93 132 178 220 270 335 406
#     4  11  23  39  59  92 132 173 217 268 335 409
#     4  12  22  38  63  92 132 171 214 272 327 389
#
# _framework density 25.258561
#
# number of rings (size 3 to 8) (size 9 to 14) (size 15 to 20)
#    0.000    1.143    4.286    2.571    0.000    0.857 
#    0.000    2.143    0.000    5.571    0.000    2.000 
#    0.000    0.000    0.000    0.000    0.000    0.000 
#
# Total GULP energy -625260.943888 kJ/mol
# GULP energy per Si atom -5582.686999 kJ/mol
# Density = 2.520107 g / cm^3
# Si number density = 25.258561 Si / 1000 Ang^3
#
#
#
# Elastic Constant Matrix: (Units=GPa)
#
#
# Indices 1 2 3 4 5 6 
#
# 1 101.6843 76.6827 15.2788 0.0000 0.0000 0.0000
# 2 76.6827 101.6848 15.2791 0.0000 0.0000 0.0000
# 3 15.2788 15.2791 94.5710 0.0000 0.0000 0.0000
# 4 0.0000 0.0000 0.0000 26.2335 0.0000 0.0000
# 5 0.0000 0.0000 0.0000 0.0000 26.2334 0.0000
# 6 0.0000 0.0000 0.0000 0.0000 0.0000 57.1852
#
#
#
# Elastic Compliance Matrix: (Units=1/GPa)
#
#
# Indices 1 2 3 4 5 6 
#
# 1 0.022882 -0.017116 -0.000932 0.000000 0.000000 0.000000
# 2 -0.017116 0.022882 -0.000932 0.000000 0.000000 0.000000
# 3 -0.000932 -0.000932 0.010875 0.000000 0.000000 0.000000
# 4 0.000000 0.000000 0.000000 0.038119 0.000000 0.000000
# 5 0.000000 0.000000 0.000000 0.000000 0.038119 0.000000
# 6 0.000000 0.000000 0.000000 0.000000 0.000000 0.017487
#
#
# Mechanical properties :
#
#
# Convention : Reuss Voigt Hill
#
# Bulk Modulus (GPa) = 53.53076 56.93570 55.23323
# Shear Modulus (GPa) = 25.70059 34.64371 30.17215
#
# Velocity S-wave (km/s) = 3.19329 3.70748 3.45995
# Velocity P-wave (km/s) = 5.90214 6.39666 6.15437
#
# Compressibility (1/GPa) = 0.01868085
#
# Stress axis : x y z
#
# Youngs Moduli (GPa) = 43.70324 43.70340 91.95343
#
# Poissons Ratio (x) = 0.74801 0.08565
# Poissons Ratio (y) = 0.74801 0.08566
# Poissons Ratio (z) = 0.04071 0.04071
#
# Static dielectric constant tensor:
#      x y z
#    x 2.109070 0.000000 0.000000 
#    y 0.000000 2.109060 0.000000 
#    z 0.000000 0.000000 1.990650 
# 
# From -- ./inp_files/7058.got.cif
#   From: 2010.05.17/outbox.cif.g08.bks.cpg/sg138_4_cif.got.tgz:7058.got - 2010.05.20 13:08:53.
