data_PCOD9570720
_publ_section_title
;
Structure prediction by ZEFSAII (Michael W. Deem and Ramdas Pophale) SiO2 
 PCOD9570720
Probable space group: P 42/N C M
;
_chemical_formula_sum "Si O2"
_cell_formula_units_Z 96
_cell_length_a 20.213217
_cell_length_b 20.213217
_cell_length_c 10.030944
_cell_angle_alpha 90.000000
_cell_angle_beta 90.000000
_cell_angle_gamma 90.000000
_cell_volume 4098.384333
_symmetry_space_group_name_H-M "P 42/N C M"
_symmetry_group_IT_number 138
_space_group.IT_coordinate_system_code '2'
_symmetry_cell_setting 'tetragonal'
loop_
_space_group_symop_operation_xyz
x,y,z
1/2-y,x,1/2+z
1/2-x,1/2-y,z
y,1/2-x,1/2+z
1/2+x,-y,1/2-z
-x,1/2+y,1/2-z
1/2+y,1/2+x,-z
-y,-x,-z
-x,-y,-z
1/2+y,-x,1/2-z
1/2+x,1/2+y,-z
-y,1/2+x,1/2-z
1/2-x,y,1/2+z
x,1/2-y,1/2+z
1/2-y,1/2-x,z
y,x,z
loop_
_atom_site_type_symbol
_atom_site_label
_atom_site_fract_x
_atom_site_fract_y
_atom_site_fract_z
Si Si1 0.933867 0.220335 0.487516
Si Si2 0.959725 0.540276 0.882054
Si Si3 0.738572 0.951964 0.216719
Si Si4 0.128478 0.371523 0.298505
Si Si5 0.907759 0.390579 0.176464
Si Si6 0.076154 0.076154 0.044674
Si Si7 0.896251 0.896251 0.648790
Si Si8 0.047197 0.845996 0.919696
O O1 0.902376 0.163106 0.395746
O O2 0.938138 0.178582 0.626216
O O3 0.903579 0.290859 0.520169
O O4 0.996038 0.248088 0.403280
O O5 0.923686 0.576315 0.760391
O O6 0.942825 0.463422 0.867182
O O7 0.928363 0.571638 0.017029
O O8 0.801182 0.904340 0.246416
O O9 0.680997 0.907871 0.154170
O O10 0.701442 0.995192 0.332805
O O11 0.124543 0.375457 0.460001
O O12 0.890876 0.406927 0.326483
O O13 0.077793 0.077793 0.206770
O O14 0.003993 0.104346 0.009094
#
# Coordination Sequence:
#
# PCOD9570720 Si02
#       8
#    16   8  16   8  16   8   8  16
#     4  10  19  36  62  88 127 167 222 279 348 418
#     4  12  23  41  66 108 137 171 240 309 344 410
#     4  10  21  37  58  89 131 186 228 277 340 401
#     4  12  24  37  66  92 145 186 226 280 359 422
#     4  10  22  36  64  98 125 172 230 295 347 414
#     4  10  21  38  62  92 134 188 207 276 349 411
#     4  10  22  37  65  91 133 184 243 289 320 409
#     4  10  20  39  62  91 135 177 222 283 357 416
#
# _framework density 23.423863999999998
#
# number of rings (size 3 to 8) (size 9 to 14) (size 15 to 20)
#    0.000    1.667    3.333    1.500    2.333    3.667 
#    0.000    2.500    0.000    2.500    0.000    7.000 
#    0.000    0.000    0.000    0.000    0.000    0.000 
#
# Total GULP energy -534452.234128 kJ/mol
# GULP energy per Si atom -5567.210772 kJ/mol
# Density = 2.337055 g / cm^3
# Si number density = 23.423864 Si / 1000 Ang^3
#
#
#
# Elastic Constant Matrix: (Units=GPa)
#
#
# Indices 1 2 3 4 5 6 
#
# 1 101.9252 64.5197 31.2575 0.0000 0.0000 0.0000
# 2 64.5197 101.9252 31.2575 0.0000 0.0000 0.0000
# 3 31.2575 31.2575 55.5533 0.0000 0.0000 0.0000
# 4 0.0000 0.0000 0.0000 42.8999 0.0000 0.0000
# 5 0.0000 0.0000 0.0000 0.0000 42.8999 0.0000
# 6 0.0000 0.0000 0.0000 0.0000 0.0000 42.1519
#
#
#
# Elastic Compliance Matrix: (Units=1/GPa)
#
#
# Indices 1 2 3 4 5 6 
#
# 1 0.017176 -0.009558 -0.004286 0.000000 0.000000 0.000000
# 2 -0.009558 0.017176 -0.004286 0.000000 0.000000 0.000000
# 3 -0.004286 -0.004286 0.022824 0.000000 0.000000 0.000000
# 4 0.000000 0.000000 0.000000 0.023310 0.000000 0.000000
# 5 0.000000 0.000000 0.000000 0.000000 0.023310 0.000000
# 6 0.000000 0.000000 0.000000 0.000000 0.000000 0.023724
#
#
# Mechanical properties :
#
#
# Convention : Reuss Voigt Hill
#
# Bulk Modulus (GPa) = 47.81297 57.05258 52.43278
# Shear Modulus (GPa) = 29.28212 34.41494 31.84853
#
# Velocity S-wave (km/s) = 3.53951 3.83721 3.69136
# Velocity P-wave (km/s) = 6.09594 6.63639 6.37190
#
# Compressibility (1/GPa) = 0.02091483
#
# Stress axis : x y z
#
# Youngs Moduli (GPa) = 58.22094 58.22094 43.81330
#
# Poissons Ratio (x) = 0.55648 0.18780
# Poissons Ratio (y) = 0.55648 0.18780
# Poissons Ratio (z) = 0.24955 0.24955
#
# Static dielectric constant tensor:
#      x y z
#    x 2.376800 0.000000 0.000000 
#    y 0.000000 2.376800 0.000000 
#    z 0.000000 0.000000 2.033690 
# 
# From -- ./inp_files/3194.got.cif
#   From: 2010.05.17/outbox.cif.g08.bks.cpg/sg138_2_cif.got.tgz:3194.got - 2010.05.20 13:08:53.
