data_PCOD9570249
_publ_section_title
;
Structure prediction by ZEFSAII (Michael W. Deem and Ramdas Pophale) SiO2 
 PCOD9570249
Probable space group: P 42/N M C
;
_chemical_formula_sum "Si O2"
_cell_formula_units_Z 112
_cell_length_a 15.174095
_cell_length_b 15.174095
_cell_length_c 24.945151
_cell_angle_alpha 90.000000
_cell_angle_beta 90.000000
_cell_angle_gamma 90.000000
_cell_volume 5743.699821
_symmetry_space_group_name_H-M "P 42/N M C"
_symmetry_group_IT_number 137
_space_group.IT_coordinate_system_code '2'
_symmetry_cell_setting 'tetragonal'
loop_
_space_group_symop_operation_xyz
x,y,z
1/2-y,x,1/2+z
1/2-x,1/2-y,z
y,1/2-x,1/2+z
1/2+x,-y,-z
-x,1/2+y,-z
1/2+y,1/2+x,1/2-z
-y,-x,1/2-z
-x,-y,-z
1/2+y,-x,1/2-z
1/2+x,1/2+y,-z
-y,1/2+x,1/2-z
1/2-x,y,z
x,1/2-y,z
1/2-y,1/2-x,1/2+z
y,x,1/2+z
loop_
_atom_site_type_symbol
_atom_site_label
_atom_site_fract_x
_atom_site_fract_y
_atom_site_fract_z
Si Si1 0.600486 0.648028 0.364452
Si Si2 0.347406 0.471687 0.935650
Si Si3 0.406592 0.153898 0.022622
Si Si4 0.356678 0.150336 0.253770
Si Si5 0.649820 0.386288 0.491087
Si Si6 0.540607 0.851559 0.142493
Si Si7 0.892060 0.346646 0.614006
O O1 0.630687 0.750000 0.367879
O O2 0.643316 0.597447 0.413746
O O3 0.624111 0.612838 0.305722
O O4 0.496003 0.647815 0.374027
O O5 0.250000 0.457195 0.912854
O O6 0.361040 0.574442 0.948702
O O7 0.419028 0.421960 0.899212
O O8 0.354698 0.422986 0.993085
O O9 0.371402 0.250000 0.007216
O O10 0.507852 0.148103 0.005186
O O11 0.250000 0.150883 0.251184
O O12 0.385317 0.250000 0.267113
O O13 0.377704 0.080376 0.299896
O O14 0.750000 0.359841 0.477343
O O15 0.626260 0.351682 0.550290
O O16 0.569131 0.750000 0.130196
O O17 0.434926 0.852710 0.139649
O O18 0.861075 0.250000 0.632985
#
# Coordination Sequence:
#
# PCOD9570249 Si02
#       7
#    16  16  16  16  16  16  16
#     4  10  20  35  57  86 118 154 200 250 299 355
#     4  12  23  36  57  87 121 156 196 248 304 364
#     4  11  21  34  56  86 120 155 193 244 303 361
#     4   9  19  37  59  83 117 159 197 237 294 366
#     4  11  23  40  58  80 117 163 206 247 301 371
#     4  11  23  39  59  87 122 162 204 248 304 370
#     4  11  22  38  59  83 116 158 205 254 302 354
#
# _framework density 19.499625999999999
#
# number of rings (size 3 to 8) (size 9 to 14) (size 15 to 20)
#    0.000    1.286    2.857    3.857    0.000    5.714 
#    0.000    0.000    0.000    0.857    0.000    8.000 
#    0.000    1.143    0.000    8.857    0.000    0.000 
#
# Total GULP energy -625429.163852 kJ/mol
# GULP energy per Si atom -5584.188963 kJ/mol
# Density = 1.945524 g / cm^3
# Si number density = 19.499626 Si / 1000 Ang^3
#
#
#
# Elastic Constant Matrix: (Units=GPa)
#
#
# Indices 1 2 3 4 5 6 
#
# 1 114.7849 24.2932 34.4576 0.0000 0.0000 0.0000
# 2 24.2932 114.7849 34.4576 0.0000 0.0000 0.0000
# 3 34.4576 34.4576 104.6573 0.0000 0.0000 0.0000
# 4 0.0000 0.0000 0.0000 24.4464 0.0000 0.0000
# 5 0.0000 0.0000 0.0000 0.0000 24.4464 0.0000
# 6 0.0000 0.0000 0.0000 0.0000 0.0000 11.4775
#
#
#
# Elastic Compliance Matrix: (Units=1/GPa)
#
#
# Indices 1 2 3 4 5 6 
#
# 1 0.009821 -0.001229 -0.002829 0.000000 0.000000 0.000000
# 2 -0.001229 0.009821 -0.002829 0.000000 0.000000 0.000000
# 3 -0.002829 -0.002829 0.011418 0.000000 0.000000 0.000000
# 4 0.000000 0.000000 0.000000 0.040906 0.000000 0.000000
# 5 0.000000 0.000000 0.000000 0.000000 0.040906 0.000000
# 6 0.000000 0.000000 0.000000 0.000000 0.000000 0.087127
#
#
# Mechanical properties :
#
#
# Convention : Reuss Voigt Hill
#
# Bulk Modulus (GPa) = 57.84931 57.84931 57.84931
# Shear Modulus (GPa) = 22.77540 28.14197 25.45869
#
# Velocity S-wave (km/s) = 3.42130 3.80308 3.61723
# Velocity P-wave (km/s) = 6.73337 7.00113 6.86856
#
# Compressibility (1/GPa) = 0.01728629
#
# Stress axis : x y z
#
# Youngs Moduli (GPa) = 101.81922 101.81922 87.58311
#
# Poissons Ratio (x) = 0.12518 0.24776
# Poissons Ratio (y) = 0.12518 0.24776
# Poissons Ratio (z) = 0.28803 0.28803
#
# Static dielectric constant tensor:
#      x y z
#    x 1.705790 0.000000 0.000000 
#    y 0.000000 1.705790 0.000000 
#    z 0.000000 0.000000 1.673850 
# 
# From -- ./inp_files/8940.got.cif
#   From: 2010.05.17/outbox.cif.g08.bks.cpg/sg137_5_cif.got.tgz:8940.got - 2010.05.20 13:01:12.
