data_PCOD9570419
_publ_section_title
;
Structure prediction by ZEFSAII (Michael W. Deem and Ramdas Pophale) SiO2 
 PCOD9570419
Probable space group: P 42/N M C
;
_chemical_formula_sum "Si O2"
_cell_formula_units_Z 96
_cell_length_a 23.074433
_cell_length_b 23.074433
_cell_length_c 10.007251
_cell_angle_alpha 90.000000
_cell_angle_beta 90.000000
_cell_angle_gamma 90.000000
_cell_volume 5328.155229
_symmetry_space_group_name_H-M "P 42/N M C"
_symmetry_group_IT_number 137
_space_group.IT_coordinate_system_code '2'
_symmetry_cell_setting 'tetragonal'
loop_
_space_group_symop_operation_xyz
x,y,z
1/2-y,x,1/2+z
1/2-x,1/2-y,z
y,1/2-x,1/2+z
1/2+x,-y,-z
-x,1/2+y,-z
1/2+y,1/2+x,1/2-z
-y,-x,1/2-z
-x,-y,-z
1/2+y,-x,1/2-z
1/2+x,1/2+y,-z
-y,1/2+x,1/2-z
1/2-x,y,z
x,1/2-y,z
1/2-y,1/2-x,1/2+z
y,x,1/2+z
loop_
_atom_site_type_symbol
_atom_site_label
_atom_site_fract_x
_atom_site_fract_y
_atom_site_fract_z
Si Si1 0.591783 0.641455 0.894142
Si Si2 0.485415 0.037544 0.628657
Si Si3 0.181479 0.096330 0.900139
Si Si4 0.461002 0.819334 0.620594
Si Si5 0.182746 0.533633 0.571185
Si Si6 0.099231 0.889054 0.395630
O O1 0.566073 0.577063 0.870754
O O2 0.611649 0.667590 0.753324
O O3 0.535860 0.677501 0.942095
O O4 0.642568 0.634030 0.000801
O O5 0.535650 0.085353 0.637490
O O6 0.493484 0.993484 0.750000
O O7 0.500000 0.000000 0.500000
O O8 0.250000 0.101300 0.925872
O O9 0.164434 0.027879 0.913348
O O10 0.459278 0.750000 0.619159
O O11 0.451437 0.836302 0.775999
O O12 0.415979 0.843082 0.511803
O O13 0.250000 0.550718 0.554221
O O14 0.140604 0.564004 0.466093
O O15 0.126028 0.873972 0.250000
#
# Coordination Sequence:
#
# PCOD9570419 Si02
#       6
#    16  16  16  16  16  16
#     4  11  20  36  60  81 117 152 188 241 289 345
#     4  11  21  30  49  85 118 148 179 226 289 348
#     4  10  22  38  59  85 113 151 195 239 293 349
#     4   9  19  37  57  81 114 155 196 234 282 343
#     4  10  22  37  57  82 112 154 198 237 285 345
#     4  11  22  33  52  85 122 150 186 232 294 350
#
# _framework density 18.017492000000001
#
# number of rings (size 3 to 8) (size 9 to 14) (size 15 to 20)
#    0.000    1.667    3.333    3.000    4.667    0.667 
#    0.000    3.333    0.000    4.500    0.000    3.500 
#    0.000    0.000    0.000    0.000    0.000    0.000 
#
# Total GULP energy -535424.593828 kJ/mol
# GULP energy per Si atom -5577.339519 kJ/mol
# Density = 1.797648 g / cm^3
# Si number density = 18.017492 Si / 1000 Ang^3
#
#
#
# Elastic Constant Matrix: (Units=GPa)
#
#
# Indices 1 2 3 4 5 6 
#
# 1 46.7408 9.2289 31.5021 0.0000 0.0000 0.0000
# 2 9.2289 46.7413 31.5026 0.0000 0.0000 0.0000
# 3 31.5021 31.5026 130.5592 0.0000 0.0000 0.0000
# 4 0.0000 0.0000 0.0000 24.3106 0.0000 0.0000
# 5 0.0000 0.0000 0.0000 0.0000 24.3105 0.0000
# 6 0.0000 0.0000 0.0000 0.0000 0.0000 7.6980
#
#
#
# Elastic Compliance Matrix: (Units=1/GPa)
#
#
# Indices 1 2 3 4 5 6 
#
# 1 0.025594 -0.001064 -0.005919 0.000000 0.000000 0.000000
# 2 -0.001064 0.025594 -0.005919 0.000000 0.000000 0.000000
# 3 -0.005919 -0.005919 0.010516 0.000000 0.000000 0.000000
# 4 0.000000 0.000000 0.000000 0.041134 0.000000 0.000000
# 5 0.000000 0.000000 0.000000 0.000000 0.041135 0.000000
# 6 0.000000 0.000000 0.000000 0.000000 0.000000 0.129903
#
#
# Mechanical properties :
#
#
# Convention : Reuss Voigt Hill
#
# Bulk Modulus (GPa) = 27.85550 40.94539 34.40045
# Shear Modulus (GPa) = 16.04392 21.38434 18.71413
#
# Velocity S-wave (km/s) = 2.98730 3.44883 3.22633
# Velocity P-wave (km/s) = 5.23378 6.21562 5.74571
#
# Compressibility (1/GPa) = 0.03589956
#
# Stress axis : x y z
#
# Youngs Moduli (GPa) = 39.07211 39.07237 95.09736
#
# Poissons Ratio (x) = 0.04159 0.56284
# Poissons Ratio (y) = 0.04159 0.56285
# Poissons Ratio (z) = 0.23125 0.23125
#
# Static dielectric constant tensor:
#      x y z
#    x 1.603240 0.000000 0.000000 
#    y 0.000000 1.603240 0.000000 
#    z 0.000000 0.000000 1.659310 
# 
# From -- ./inp_files/2156.got.cif
#   From: 2010.05.17/outbox.cif.g08.bks.cpg/sg137_2_cif.got.tgz:2156.got - 2010.05.20 13:01:12.
