data_PCOD9570062
_publ_section_title
;
Structure prediction by ZEFSAII (Michael W. Deem and Ramdas Pophale) SiO2 
 PCOD9570062
Probable space group: P 42/N M C
;
_chemical_formula_sum "Si O2"
_cell_formula_units_Z 96
_cell_length_a 21.489209
_cell_length_b 21.489209
_cell_length_c 13.083008
_cell_angle_alpha 90.000000
_cell_angle_beta 90.000000
_cell_angle_gamma 90.000000
_cell_volume 6041.551286
_symmetry_space_group_name_H-M "P 42/N M C"
_symmetry_group_IT_number 137
_space_group.IT_coordinate_system_code '2'
_symmetry_cell_setting 'tetragonal'
loop_
_space_group_symop_operation_xyz
x,y,z
1/2-y,x,1/2+z
1/2-x,1/2-y,z
y,1/2-x,1/2+z
1/2+x,-y,-z
-x,1/2+y,-z
1/2+y,1/2+x,1/2-z
-y,-x,1/2-z
-x,-y,-z
1/2+y,-x,1/2-z
1/2+x,1/2+y,-z
-y,1/2+x,1/2-z
1/2-x,y,z
x,1/2-y,z
1/2-y,1/2-x,1/2+z
y,x,1/2+z
loop_
_atom_site_type_symbol
_atom_site_label
_atom_site_fract_x
_atom_site_fract_y
_atom_site_fract_z
Si Si1 0.678767 0.954415 0.396838
Si Si2 0.680562 0.417939 0.527282
Si Si3 0.585206 0.940623 0.007450
Si Si4 0.555246 0.045176 0.629174
Si Si5 0.007117 0.324270 0.334002
Si Si6 0.863789 0.177166 0.360496
O O1 0.750000 0.930014 0.399730
O O2 0.624935 0.913995 0.448683
O O3 0.661096 0.970110 0.280263
O O4 0.679142 0.019465 0.458615
O O5 0.750000 0.413455 0.573566
O O6 0.621693 0.423153 0.602580
O O7 0.669485 0.362181 0.447841
O O8 0.523746 0.942623 0.079497
O O9 0.643097 0.951687 0.080934
O O10 0.578915 0.997986 0.928322
O O11 0.544001 0.044001 0.750000
O O12 0.008178 0.250000 0.343446
O O13 0.935521 0.344731 0.349673
O O14 0.833234 0.166767 0.250000
O O15 0.863149 0.250000 0.384986
#
# Coordination Sequence:
#
# PCOD9570062 Si02
#       6
#    16  16  16  16  16  16
#     4   9  18  32  52  75 101 129 157 200 258 309
#     4  10  19  33  47  66 100 136 170 210 250 290
#     4  10  19  32  53  76  99 131 162 208 257 311
#     4  10  20  32  49  74  98 129 175 215 253 296
#     4  10  19  32  51  78 107 131 162 208 256 300
#     4  11  20  30  48  73 103 137 173 211 253 299
#
# _framework density 15.88996
#
# number of rings (size 3 to 8) (size 9 to 14) (size 15 to 20)
#    0.000    2.000    3.333    1.500    0.000    1.833 
#    0.000    1.667    0.000    3.500    0.000    2.333 
#    0.000    0.000    0.000    0.000    0.000    0.000 
#
# Total GULP energy -535329.876854 kJ/mol
# GULP energy per Si atom -5576.352884 kJ/mol
# Density = 1.585379 g / cm^3
# Si number density = 15.889960 Si / 1000 Ang^3
#
#
#
# Elastic Constant Matrix: (Units=GPa)
#
#
# Indices 1 2 3 4 5 6 
#
# 1 44.5844 27.6540 27.5837 0.0000 0.0000 0.0000
# 2 27.6540 44.5823 27.5833 0.0000 0.0000 0.0000
# 3 27.5837 27.5833 85.1780 0.0000 0.0000 0.0000
# 4 0.0000 0.0000 0.0000 24.5561 0.0000 0.0000
# 5 0.0000 0.0000 0.0000 0.0000 24.5560 0.0000
# 6 0.0000 0.0000 0.0000 0.0000 0.0000 20.3950
#
#
#
# Elastic Compliance Matrix: (Units=1/GPa)
#
#
# Indices 1 2 3 4 5 6 
#
# 1 0.038729 -0.020339 -0.005956 0.000000 0.000000 0.000000
# 2 -0.020339 0.038731 -0.005956 0.000000 0.000000 0.000000
# 3 -0.005956 -0.005956 0.015598 0.000000 0.000000 0.000000
# 4 0.000000 0.000000 0.000000 0.040723 0.000000 0.000000
# 5 0.000000 0.000000 0.000000 0.000000 0.040723 0.000000
# 6 0.000000 0.000000 0.000000 0.000000 0.000000 0.049032
#
#
# Mechanical properties :
#
#
# Convention : Reuss Voigt Hill
#
# Bulk Modulus (GPa) = 35.01704 37.77629 36.39667
# Shear Modulus (GPa) = 16.80356 20.00300 18.40328
#
# Velocity S-wave (km/s) = 3.25544 3.55187 3.40688
# Velocity P-wave (km/s) = 6.01794 6.37545 6.19927
#
# Compressibility (1/GPa) = 0.02855752
#
# Stress axis : x y z
#
# Youngs Moduli (GPa) = 25.82023 25.81886 64.11275
#
# Poissons Ratio (x) = 0.52512 0.38183
# Poissons Ratio (y) = 0.52515 0.38186
# Poissons Ratio (z) = 0.15378 0.15378
#
# Static dielectric constant tensor:
#      x y z
#    x 1.537160 0.000000 0.000000 
#    y 0.000000 1.537160 0.000000 
#    z 0.000000 0.000000 1.503500 
# 
# From -- ./inp_files/3744.got.cif
#   From: 2010.05.17/outbox.cif.g08.bks.cpg/sg137_2_cif.got.tgz:3744.got - 2010.05.20 13:01:12.
