data_PCOD9570962
_publ_section_title
;
Structure prediction by ZEFSAII (Michael W. Deem and Ramdas Pophale) SiO2 
 PCOD9570962
Probable space group: P 42/N C M
;
_chemical_formula_sum "Si O2"
_cell_formula_units_Z 80
_cell_length_a 27.516341
_cell_length_b 27.516341
_cell_length_c 4.873476
_cell_angle_alpha 90.000000
_cell_angle_beta 90.000000
_cell_angle_gamma 90.000000
_cell_volume 3689.947587
_symmetry_space_group_name_H-M "P 42/N C M"
_symmetry_group_IT_number 138
_space_group.IT_coordinate_system_code '2'
_symmetry_cell_setting 'tetragonal'
loop_
_space_group_symop_operation_xyz
x,y,z
1/2-y,x,1/2+z
1/2-x,1/2-y,z
y,1/2-x,1/2+z
1/2+x,-y,1/2-z
-x,1/2+y,1/2-z
1/2+y,1/2+x,-z
-y,-x,-z
-x,-y,-z
1/2+y,-x,1/2-z
1/2+x,1/2+y,-z
-y,1/2+x,1/2-z
1/2-x,y,1/2+z
x,1/2-y,1/2+z
1/2-y,1/2-x,z
y,x,z
loop_
_atom_site_type_symbol
_atom_site_label
_atom_site_fract_x
_atom_site_fract_y
_atom_site_fract_z
Si Si1 0.497262 0.281861 0.030795
Si Si2 0.860836 0.782793 0.603188
Si Si3 0.977624 0.095455 0.430235
Si Si4 0.070363 0.642698 0.572808
Si Si5 0.355996 0.431334 0.699955
O O1 0.490465 0.234553 0.841211
O O2 0.551087 0.303872 0.990551
O O3 0.460907 0.322393 0.911899
O O4 0.865559 0.764755 0.913219
O O5 0.809227 0.809227 0.563877
O O6 0.900587 0.820984 0.499303
O O7 0.958448 0.041553 0.500000
O O8 0.942681 0.129886 0.615999
O O9 0.030568 0.111664 0.525608
O O10 0.964620 0.108619 0.118925
O O11 0.124009 0.624009 0.500000
O O12 0.392696 0.392696 0.836364
#
# Coordination Sequence:
#
# PCOD9570962 Si02
#       5
#    16  16  16  16  16
#     4  11  21  36  57  81 109 143 184 225 269 324
#     4  11  24  41  60  81 105 137 181 235 294 346
#     4   9  18  34  55  79 108 144 183 220 263 320
#     4   9  18  34  55  80 111 143 177 223 272 320
#     4  10  22  38  56  80 112 148 186 230 277 326
#
# _framework density 21.680523999999998
#
# number of rings (size 3 to 8) (size 9 to 14) (size 15 to 20)
#    0.000    2.000    0.000    4.200    0.000    4.800 
#    0.000   15.000    0.000   16.200    0.000    0.000 
#    0.000    2.400    0.000    0.000    0.000    0.000 
#
# Total GULP energy -447308.008936 kJ/mol
# GULP energy per Si atom -5591.350112 kJ/mol
# Density = 2.163118 g / cm^3
# Si number density = 21.680524 Si / 1000 Ang^3
#
#
#
# Elastic Constant Matrix: (Units=GPa)
#
#
# Indices 1 2 3 4 5 6 
#
# 1 63.2596 65.0738 6.9403 0.0000 0.0000 0.0000
# 2 65.0738 63.2612 6.9392 0.0000 0.0000 0.0000
# 3 6.9403 6.9392 62.6667 0.0000 0.0000 0.0000
# 4 0.0000 0.0000 0.0000 22.5277 0.0000 0.0000
# 5 0.0000 0.0000 0.0000 0.0000 22.5270 0.0000
# 6 0.0000 0.0000 0.0000 0.0000 0.0000 55.6603
#
#
#
# Elastic Compliance Matrix: (Units=1/GPa)
#
#
# Indices 1 2 3 4 5 6 
#
# 1 -0.271780 0.279662 -0.000868 0.000000 0.000000 0.000000
# 2 0.279662 -0.271771 -0.000879 0.000000 0.000000 0.000000
# 3 -0.000868 -0.000879 0.016151 0.000000 0.000000 0.000000
# 4 0.000000 0.000000 0.000000 0.044390 0.000000 0.000000
# 5 0.000000 0.000000 0.000000 0.000000 0.044391 0.000000
# 6 0.000000 0.000000 0.000000 0.000000 0.000000 0.017966
#
#
# Mechanical properties :
#
#
# Convention : Reuss Voigt Hill
#
# Bulk Modulus (GPa) = 35.17337 38.56603 36.86970
# Shear Modulus (GPa) = -5.17060 27.49196 11.16068
#
# Velocity S-wave (km/s) = -1.54599 3.56483 2.27134
# Velocity P-wave (km/s) = 3.61551 5.89669 4.89096
#
# Compressibility (1/GPa) = 0.02843060
#
# Stress axis : x y z
#
# Youngs Moduli (GPa) = -3.67945 -3.67957 61.91620
#
# Poissons Ratio (x) = 1.02903 0.05374
# Poissons Ratio (y) = 1.02900 0.05441
# Poissons Ratio (z) = -0.00319 -0.00323
#
# Static dielectric constant tensor:
#      x y z
#    x 1.819220 0.000000 0.000000 
#    y 0.000000 1.819210 0.000000 
#    z 0.000000 0.000000 1.762090 
# 
# From -- ./inp_files/461.got.cif
#   From: 2010.05.17/outbox.cif.g08.bks.cpg/sg138_1_cif.got.tgz:461.got - 2010.05.20 13:08:53.
