data_PCOD9570812
_publ_section_title
;
Structure prediction by ZEFSAII (Michael W. Deem and Ramdas Pophale) SiO2 
 PCOD9570812
Probable space group: P 42/N C M
;
_chemical_formula_sum "Si O2"
_cell_formula_units_Z 96
_cell_length_a 14.674341
_cell_length_b 14.674341
_cell_length_c 24.677858
_cell_angle_alpha 90.000000
_cell_angle_beta 90.000000
_cell_angle_gamma 90.000000
_cell_volume 5314.038233
_symmetry_space_group_name_H-M "P 42/N C M"
_symmetry_group_IT_number 138
_space_group.IT_coordinate_system_code '2'
_symmetry_cell_setting 'tetragonal'
loop_
_space_group_symop_operation_xyz
x,y,z
1/2-y,x,1/2+z
1/2-x,1/2-y,z
y,1/2-x,1/2+z
1/2+x,-y,1/2-z
-x,1/2+y,1/2-z
1/2+y,1/2+x,-z
-y,-x,-z
-x,-y,-z
1/2+y,-x,1/2-z
1/2+x,1/2+y,-z
-y,1/2+x,1/2-z
1/2-x,y,1/2+z
x,1/2-y,1/2+z
1/2-y,1/2-x,z
y,x,z
loop_
_atom_site_type_symbol
_atom_site_label
_atom_site_fract_x
_atom_site_fract_y
_atom_site_fract_z
Si Si1 0.828460 0.828460 0.912075
Si Si2 0.327352 0.327352 0.960285
Si Si3 0.891308 0.304232 0.746522
Si Si4 0.021335 0.742675 0.365384
Si Si5 0.757868 0.386857 0.475276
Si Si6 0.467454 0.187178 0.948912
Si Si7 0.058173 0.907557 0.647588
O O1 0.750000 0.750000 0.907996
O O2 0.846560 0.846560 0.976223
O O3 0.922746 0.792541 0.885166
O O4 0.250000 0.250000 0.961389
O O5 0.412242 0.277956 0.932226
O O6 0.860734 0.201800 0.761112
O O7 0.949349 0.301771 0.691588
O O8 0.937982 0.347771 0.798611
O O9 0.098662 0.727152 0.411617
O O10 0.030810 0.851626 0.357348
O O11 0.853762 0.353762 0.500000
O O12 0.685956 0.314045 0.500000
O O13 0.715949 0.481291 0.496667
O O14 0.394889 0.105112 0.957598
O O15 0.541350 0.154996 0.905155
O O16 0.972171 0.972171 0.650248
#
# Coordination Sequence:
#
# PCOD9570812 Si02
#       7
#     8   8  16  16  16  16  16
#     4  11  22  36  58  86 122 154 186 236 298 359
#     4   9  18  34  56  84 118 154 188 225 289 349
#     4   9  21  38  62  84 111 151 194 239 292 350
#     4  11  22  38  59  86 116 155 193 241 298 350
#     4  11  23  35  57  89 122 149 190 248 297 345
#     4  10  20  36  59  85 114 152 191 234 284 348
#     4  10  21  37  62  87 114 149 202 247 280 342
#
# _framework density 18.065358
#
# number of rings (size 3 to 8) (size 9 to 14) (size 15 to 20)
#    0.000    1.833    3.333    0.500    3.500    2.333 
#    0.000    1.667    9.167    0.000    0.000    0.000 
#    0.000    0.000    0.000    0.000    0.000    0.000 
#
# Total GULP energy -534736.721977 kJ/mol
# GULP energy per Si atom -5570.174187 kJ/mol
# Density = 1.802424 g / cm^3
# Si number density = 18.065358 Si / 1000 Ang^3
#
#
#
# Elastic Constant Matrix: (Units=GPa)
#
#
# Indices 1 2 3 4 5 6 
#
# 1 46.6398 42.4773 32.9835 0.0000 0.0000 0.0000
# 2 42.4773 46.6393 32.9834 0.0000 0.0000 0.0000
# 3 32.9835 32.9834 90.7062 0.0000 0.0000 0.0000
# 4 0.0000 0.0000 0.0000 28.7052 0.0000 0.0000
# 5 0.0000 0.0000 0.0000 0.0000 28.7052 0.0000
# 6 0.0000 0.0000 0.0000 0.0000 0.0000 29.1108
#
#
#
# Elastic Compliance Matrix: (Units=1/GPa)
#
#
# Indices 1 2 3 4 5 6 
#
# 1 0.127804 -0.112451 -0.005583 0.000000 0.000000 0.000000
# 2 -0.112451 0.127806 -0.005583 0.000000 0.000000 0.000000
# 3 -0.005583 -0.005583 0.015085 0.000000 0.000000 0.000000
# 4 0.000000 0.000000 0.000000 0.034837 0.000000 0.000000
# 5 0.000000 0.000000 0.000000 0.000000 0.034837 0.000000
# 6 0.000000 0.000000 0.000000 0.000000 0.000000 0.034352
#
#
# Mechanical properties :
#
#
# Convention : Reuss Voigt Hill
#
# Bulk Modulus (GPa) = 42.62503 44.54153 43.58328
# Shear Modulus (GPa) = 7.93933 22.34031 15.13982
#
# Velocity S-wave (km/s) = 2.09865 3.52040 2.89806
# Velocity P-wave (km/s) = 5.43310 6.42134 5.94778
#
# Compressibility (1/GPa) = 0.02346039
#
# Stress axis : x y z
#
# Youngs Moduli (GPa) = 7.82446 7.82435 66.29093
#
# Poissons Ratio (x) = 0.87986 0.37010
# Poissons Ratio (y) = 0.87987 0.37013
# Poissons Ratio (z) = 0.04368 0.04369
#
# Static dielectric constant tensor:
#      x y z
#    x 1.644830 0.000000 0.000000 
#    y 0.000000 1.644830 0.000000 
#    z 0.000000 0.000000 1.616720 
# 
# From -- ./inp_files/6306.got.cif
#   From: 2010.05.17/outbox.cif.g08.bks.cpg/sg138_4_cif.got.tgz:6306.got - 2010.05.20 13:08:53.
