data_PCOD9570428
_publ_section_title
;
Structure prediction by ZEFSAII (Michael W. Deem and Ramdas Pophale) SiO2 
 PCOD9570428
Probable space group: P 42/N M C
;
_chemical_formula_sum "Si O2"
_cell_formula_units_Z 64
_cell_length_a 19.173478
_cell_length_b 19.173478
_cell_length_c 9.342546
_cell_angle_alpha 90.000000
_cell_angle_beta 90.000000
_cell_angle_gamma 90.000000
_cell_volume 3434.527862
_symmetry_space_group_name_H-M "P 42/N M C"
_symmetry_group_IT_number 137
_space_group.IT_coordinate_system_code '2'
_symmetry_cell_setting 'tetragonal'
loop_
_space_group_symop_operation_xyz
x,y,z
1/2-y,x,1/2+z
1/2-x,1/2-y,z
y,1/2-x,1/2+z
1/2+x,-y,-z
-x,1/2+y,-z
1/2+y,1/2+x,1/2-z
-y,-x,1/2-z
-x,-y,-z
1/2+y,-x,1/2-z
1/2+x,1/2+y,-z
-y,1/2+x,1/2-z
1/2-x,y,z
x,1/2-y,z
1/2-y,1/2-x,1/2+z
y,x,1/2+z
loop_
_atom_site_type_symbol
_atom_site_label
_atom_site_fract_x
_atom_site_fract_y
_atom_site_fract_z
Si Si1 0.328671 0.437077 0.425004
Si Si2 0.173202 0.084573 0.751463
Si Si3 0.058887 0.952248 0.420993
Si Si4 0.073838 0.667841 0.645074
O O1 0.250000 0.444578 0.373471
O O2 0.328411 0.403960 0.582413
O O3 0.373680 0.388320 0.323749
O O4 0.367194 0.510226 0.440737
O O5 0.250000 0.105301 0.806755
O O6 0.164967 0.002338 0.781054
O O7 0.047160 0.952841 0.250000
O O8 0.063765 0.877564 0.499709
O O9 0.000000 0.000000 0.500000
O O10 0.128795 0.628795 0.750000
O O11 0.090774 0.750000 0.622681
#
# Coordination Sequence:
#
# PCOD9570428 Si02
#       4
#    16  16  16  16
#     4  11  23  39  61  91 126 164 209 263 317 381
#     4  10  22  39  60  89 125 166 210 256 316 390
#     4  12  23  39  64  95 132 172 217 265 327 389
#     4  11  23  42  67  95 127 166 217 272 333 399
#
# _framework density 18.634295000000002
#
# number of rings (size 3 to 8) (size 9 to 14) (size 15 to 20)
#    0.000    1.000    5.000    2.250    0.000    2.750 
#    0.000    2.500    0.000    0.000    0.000    1.750 
#    0.000    0.000    0.000    0.000    0.000    0.000 
#
# Total GULP energy -357305.336716 kJ/mol
# GULP energy per Si atom -5582.895886 kJ/mol
# Density = 1.859188 g / cm^3
# Si number density = 18.634295 Si / 1000 Ang^3
#
#
#
# Elastic Constant Matrix: (Units=GPa)
#
#
# Indices 1 2 3 4 5 6 
#
# 1 103.8230 49.2406 31.1322 0.0000 0.0000 0.0000
# 2 49.2406 103.8226 31.1319 0.0000 0.0000 0.0000
# 3 31.1322 31.1319 106.5503 0.0000 0.0000 0.0000
# 4 0.0000 0.0000 0.0000 23.4713 0.0000 0.0000
# 5 0.0000 0.0000 0.0000 0.0000 23.4712 0.0000
# 6 0.0000 0.0000 0.0000 0.0000 0.0000 17.0452
#
#
#
# Elastic Compliance Matrix: (Units=1/GPa)
#
#
# Indices 1 2 3 4 5 6 
#
# 1 0.012868 -0.005453 -0.002166 0.000000 0.000000 0.000000
# 2 -0.005453 0.012868 -0.002166 0.000000 0.000000 0.000000
# 3 -0.002166 -0.002166 0.010651 0.000000 0.000000 0.000000
# 4 0.000000 0.000000 0.000000 0.042605 0.000000 0.000000
# 5 0.000000 0.000000 0.000000 0.000000 0.042605 0.000000
# 6 0.000000 0.000000 0.000000 0.000000 0.000000 0.058668
#
#
# Mechanical properties :
#
#
# Convention : Reuss Voigt Hill
#
# Bulk Modulus (GPa) = 59.47191 59.68948 59.58070
# Shear Modulus (GPa) = 24.33779 26.31028 25.32403
#
# Velocity S-wave (km/s) = 3.61789 3.76164 3.69046
# Velocity P-wave (km/s) = 7.03113 7.13920 7.08537
#
# Compressibility (1/GPa) = 0.01681466
#
# Stress axis : x y z
#
# Youngs Moduli (GPa) = 77.71377 77.71359 93.88616
#
# Poissons Ratio (x) = 0.42379 0.20340
# Poissons Ratio (y) = 0.42379 0.20339
# Poissons Ratio (z) = 0.16836 0.16836
#
# Static dielectric constant tensor:
#      x y z
#    x 1.731610 0.000000 0.000000 
#    y 0.000000 1.731540 0.000000 
#    z 0.000000 0.000000 1.675900 
# 
# From -- ./inp_files/1782.got.cif
#   From: 2010.05.17/outbox.cif.g08.bks.cpg/sg137_1_cif.got.tgz:1782.got - 2010.05.20 13:01:12.
