data_PCOD9570100
_publ_section_title
;
Structure prediction by ZEFSAII (Michael W. Deem and Ramdas Pophale) SiO2 
 PCOD9570100
Probable space group: P 42/N M C
;
_chemical_formula_sum "Si O2"
_cell_formula_units_Z 112
_cell_length_a 15.406970
_cell_length_b 15.406970
_cell_length_c 24.298667
_cell_angle_alpha 90.000000
_cell_angle_beta 90.000000
_cell_angle_gamma 90.000000
_cell_volume 5767.889387
_symmetry_space_group_name_H-M "P 42/N M C"
_symmetry_group_IT_number 137
_space_group.IT_coordinate_system_code '2'
_symmetry_cell_setting 'tetragonal'
loop_
_space_group_symop_operation_xyz
x,y,z
1/2-y,x,1/2+z
1/2-x,1/2-y,z
y,1/2-x,1/2+z
1/2+x,-y,-z
-x,1/2+y,-z
1/2+y,1/2+x,1/2-z
-y,-x,1/2-z
-x,-y,-z
1/2+y,-x,1/2-z
1/2+x,1/2+y,-z
-y,1/2+x,1/2-z
1/2-x,y,z
x,1/2-y,z
1/2-y,1/2-x,1/2+z
y,x,1/2+z
loop_
_atom_site_type_symbol
_atom_site_label
_atom_site_fract_x
_atom_site_fract_y
_atom_site_fract_z
Si Si1 0.607805 0.520533 0.695885
Si Si2 0.150877 0.509509 0.520724
Si Si3 0.649328 0.448532 0.204605
Si Si4 0.400688 0.344778 0.915886
Si Si5 0.346248 0.541055 0.922909
Si Si6 0.349772 0.349090 0.601943
Si Si7 0.489144 0.845366 0.318206
O O1 0.528426 0.583937 0.711694
O O2 0.656435 0.567199 0.646647
O O3 0.656003 0.504462 0.752764
O O4 0.571543 0.428707 0.673395
O O5 0.250000 0.538476 0.532723
O O6 0.146238 0.481586 0.457445
O O7 0.081942 0.580539 0.538968
O O8 0.135885 0.421158 0.555488
O O9 0.622162 0.377839 0.250000
O O10 0.750000 0.473000 0.211958
O O11 0.639062 0.425131 0.139872
O O12 0.359762 0.250000 0.929047
O O13 0.350743 0.435961 0.921789
O O14 0.250000 0.567194 0.940502
O O15 0.250000 0.358577 0.621746
O O16 0.358519 0.250000 0.580629
O O17 0.420560 0.360164 0.649689
O O18 0.455535 0.750000 0.335401
#
# Coordination Sequence:
#
# PCOD9570100 Si02
#       7
#    16  16  16  16  16  16  16
#     4  10  20  37  54  81 111 144 185 235 286 339
#     4  10  21  37  59  85 114 153 193 236 287 340
#     4  10  20  35  54  80 114 152 189 229 278 341
#     4  10  21  38  60  83 112 152 196 240 291 348
#     4  10  22  38  57  85 119 154 195 240 286 343
#     4   9  18  32  52  82 113 140 182 235 282 332
#     4  10  19  33  56  80 105 143 183 225 288 342
#
# _framework density 19.417846999999998
#
# number of rings (size 3 to 8) (size 9 to 14) (size 15 to 20)
#    0.000    2.143    1.429    2.571    0.000    2.429 
#    0.000    5.000    0.000   10.714    0.000    0.000 
#    0.000    0.000    0.000    0.000    0.000    0.000 
#
# Total GULP energy -624389.582238 kJ/mol
# GULP energy per Si atom -5574.906984 kJ/mol
# Density = 1.937365 g / cm^3
# Si number density = 19.417847 Si / 1000 Ang^3
#
#
#
# Elastic Constant Matrix: (Units=GPa)
#
#
# Indices 1 2 3 4 5 6 
#
# 1 61.5268 24.5759 16.1165 0.0000 0.0000 0.0000
# 2 24.5759 61.5271 16.1173 0.0000 0.0000 0.0000
# 3 16.1165 16.1173 48.8026 0.0000 0.0000 0.0000
# 4 0.0000 0.0000 0.0000 12.2734 0.0000 0.0000
# 5 0.0000 0.0000 0.0000 0.0000 12.2731 0.0000
# 6 0.0000 0.0000 0.0000 0.0000 0.0000 16.0349
#
#
#
# Elastic Compliance Matrix: (Units=1/GPa)
#
#
# Indices 1 2 3 4 5 6 
#
# 1 0.020158 -0.006905 -0.004376 0.000000 0.000000 0.000000
# 2 -0.006905 0.020158 -0.004377 0.000000 0.000000 0.000000
# 3 -0.004376 -0.004377 0.023381 0.000000 0.000000 0.000000
# 4 0.000000 0.000000 0.000000 0.081477 0.000000 0.000000
# 5 0.000000 0.000000 0.000000 0.000000 0.081479 0.000000
# 6 0.000000 0.000000 0.000000 0.000000 0.000000 0.062364
#
#
# Mechanical properties :
#
#
# Convention : Reuss Voigt Hill
#
# Bulk Modulus (GPa) = 30.88327 31.71956 31.30142
# Shear Modulus (GPa) = 15.09998 15.78608 15.44303
#
# Velocity S-wave (km/s) = 2.79163 2.85435 2.82317
# Velocity P-wave (km/s) = 5.13128 5.21860 5.17513
#
# Compressibility (1/GPa) = 0.03237999
#
# Stress axis : x y z
#
# Youngs Moduli (GPa) = 49.60908 49.60884 42.76901
#
# Poissons Ratio (x) = 0.34256 0.18717
# Poissons Ratio (y) = 0.34256 0.18719
# Poissons Ratio (z) = 0.21711 0.21713
#
# Static dielectric constant tensor:
#      x y z
#    x 1.679690 0.000000 0.000000 
#    y 0.000000 1.679690 0.000000 
#    z 0.000000 0.000000 1.680490 
# 
# From -- ./inp_files/9787.got.cif
#   From: 2010.05.17/outbox.cif.g08.bks.cpg/sg137_5_cif.got.tgz:9787.got - 2010.05.20 13:01:12.
