data_PCOD9570882
_publ_section_title
;
Structure prediction by ZEFSAII (Michael W. Deem and Ramdas Pophale) SiO2 
 PCOD9570882
Probable space group: P 42/N C M
;
_chemical_formula_sum "Si O2"
_cell_formula_units_Z 96
_cell_length_a 17.713694
_cell_length_b 17.713694
_cell_length_c 18.207047
_cell_angle_alpha 90.000000
_cell_angle_beta 90.000000
_cell_angle_gamma 90.000000
_cell_volume 5712.915355
_symmetry_space_group_name_H-M "P 42/N C M"
_symmetry_group_IT_number 138
_space_group.IT_coordinate_system_code '2'
_symmetry_cell_setting 'tetragonal'
loop_
_space_group_symop_operation_xyz
x,y,z
1/2-y,x,1/2+z
1/2-x,1/2-y,z
y,1/2-x,1/2+z
1/2+x,-y,1/2-z
-x,1/2+y,1/2-z
1/2+y,1/2+x,-z
-y,-x,-z
-x,-y,-z
1/2+y,-x,1/2-z
1/2+x,1/2+y,-z
-y,1/2+x,1/2-z
1/2-x,y,1/2+z
x,1/2-y,1/2+z
1/2-y,1/2-x,z
y,x,z
loop_
_atom_site_type_symbol
_atom_site_label
_atom_site_fract_x
_atom_site_fract_y
_atom_site_fract_z
Si Si1 0.185155 0.808033 0.089087
Si Si2 0.484586 0.142176 0.784159
Si Si3 0.003147 0.375150 0.502800
Si Si4 0.484580 0.611779 0.295614
Si Si5 0.295696 0.982593 0.356154
Si Si6 0.272383 0.972727 0.635822
O O1 0.250000 0.750000 0.108279
O O2 0.103576 0.783408 0.117621
O O3 0.207686 0.884722 0.129540
O O4 0.185041 0.814959 0.000000
O O5 0.482646 0.214305 0.837852
O O6 0.493858 0.179557 0.703530
O O7 0.411806 0.088195 0.787773
O O8 0.557063 0.088474 0.800303
O O9 0.066490 0.433511 0.526911
O O10 0.926057 0.426057 0.500000
O O11 0.018585 0.342108 0.422675
O O12 0.001809 0.306545 0.559546
O O13 0.557465 0.557465 0.303789
O O14 0.484114 0.651865 0.215875
O O15 0.483788 0.683262 0.350792
#
# Coordination Sequence:
#
# PCOD9570882 Si02
#       6
#    16  16  16  16  16  16
#     4  11  20  32  52  84 120 147 170 218 285 347
#     4  10  21  36  54  78 110 147 185 225 270 330
#     4  11  20  34  59  86 109 137 184 234 278 326
#     4  10  21  36  54  78 110 147 185 225 270 330
#     4  11  19  35  56  81 110 143 184 228 278 328
#     4  11  19  35  56  81 110 143 184 228 278 328
#
# _framework density 16.804030000000001
#
# number of rings (size 3 to 8) (size 9 to 14) (size 15 to 20)
#    0.000    1.333    5.000    2.000    0.000    2.667 
#    0.000    0.833    0.000   20.000    0.000    0.000 
#    0.000    0.000    0.000    0.000    0.000    0.000 
#
# Total GULP energy -535322.964315 kJ/mol
# GULP energy per Si atom -5576.280878 kJ/mol
# Density = 1.676578 g / cm^3
# Si number density = 16.804030 Si / 1000 Ang^3
#
#
#
# Elastic Constant Matrix: (Units=GPa)
#
#
# Indices 1 2 3 4 5 6 
#
# 1 68.8745 21.8078 7.2319 0.0000 0.0000 0.0000
# 2 21.8078 68.8747 7.2326 0.0000 0.0000 0.0000
# 3 7.2319 7.2326 58.0211 0.0000 0.0000 0.0000
# 4 0.0000 0.0000 0.0000 21.2601 0.0000 0.0000
# 5 0.0000 0.0000 0.0000 0.0000 21.2605 0.0000
# 6 0.0000 0.0000 0.0000 0.0000 0.0000 32.9393
#
#
#
# Elastic Compliance Matrix: (Units=1/GPa)
#
#
# Indices 1 2 3 4 5 6 
#
# 1 0.016249 -0.004998 -0.001402 0.000000 0.000000 0.000000
# 2 -0.004998 0.016249 -0.001403 0.000000 0.000000 0.000000
# 3 -0.001402 -0.001403 0.017585 0.000000 0.000000 0.000000
# 4 0.000000 0.000000 0.000000 0.047036 0.000000 0.000000
# 5 0.000000 0.000000 0.000000 0.000000 0.047036 0.000000
# 6 0.000000 0.000000 0.000000 0.000000 0.000000 0.030359
#
#
# Mechanical properties :
#
#
# Convention : Reuss Voigt Hill
#
# Bulk Modulus (GPa) = 29.00458 29.81280 29.40869
# Shear Modulus (GPa) = 24.80026 25.72517 25.26272
#
# Velocity S-wave (km/s) = 3.84585 3.91691 3.88154
# Velocity P-wave (km/s) = 6.08430 6.18354 6.13412
#
# Compressibility (1/GPa) = 0.03447731
#
# Stress axis : x y z
#
# Youngs Moduli (GPa) = 61.54300 61.54304 56.86750
#
# Poissons Ratio (x) = 0.30757 0.07975
# Poissons Ratio (y) = 0.30757 0.07976
# Poissons Ratio (z) = 0.08630 0.08632
#
# Static dielectric constant tensor:
#      x y z
#    x 1.559050 0.000000 0.000000 
#    y 0.000000 1.559050 0.000000 
#    z 0.000000 0.000000 1.584170 
# 
# From -- ./inp_files/5193.got.cif
#   From: 2010.05.17/outbox.cif.g08.bks.cpg/sg138_3_cif.got.tgz:5193.got - 2010.05.20 13:08:53.
