data_PCOD9570933
_publ_section_title
;
Structure prediction by ZEFSAII (Michael W. Deem and Ramdas Pophale) SiO2 
 PCOD9570933
Probable space group: P 42/N C M
;
_chemical_formula_sum "Si O2"
_cell_formula_units_Z 96
_cell_length_a 14.008344
_cell_length_b 14.008344
_cell_length_c 22.634008
_cell_angle_alpha 90.000000
_cell_angle_beta 90.000000
_cell_angle_gamma 90.000000
_cell_volume 4441.555172
_symmetry_space_group_name_H-M "P 42/N C M"
_symmetry_group_IT_number 138
_space_group.IT_coordinate_system_code '2'
_symmetry_cell_setting 'tetragonal'
loop_
_space_group_symop_operation_xyz
x,y,z
1/2-y,x,1/2+z
1/2-x,1/2-y,z
y,1/2-x,1/2+z
1/2+x,-y,1/2-z
-x,1/2+y,1/2-z
1/2+y,1/2+x,-z
-y,-x,-z
-x,-y,-z
1/2+y,-x,1/2-z
1/2+x,1/2+y,-z
-y,1/2+x,1/2-z
1/2-x,y,1/2+z
x,1/2-y,1/2+z
1/2-y,1/2-x,z
y,x,z
loop_
_atom_site_type_symbol
_atom_site_label
_atom_site_fract_x
_atom_site_fract_y
_atom_site_fract_z
Si Si1 0.058488 0.207783 0.413679
Si Si2 0.152037 0.002168 0.018314
Si Si3 0.054784 0.897078 0.208953
Si Si4 0.223704 0.861719 0.117484
Si Si5 0.577769 0.074801 0.837574
Si Si6 0.600123 0.748545 0.717706
O O1 0.138034 0.138034 0.440795
O O2 0.100852 0.252135 0.353936
O O3 0.025074 0.283290 0.461454
O O4 0.976353 0.141347 0.385000
O O5 0.208854 0.935230 0.063704
O O6 0.067463 0.932538 0.000000
O O7 0.099897 0.099897 0.040204
O O8 0.129626 0.868907 0.158645
O O9 0.101449 0.938338 0.268857
O O10 0.998849 0.802008 0.230110
O O11 0.975390 0.975390 0.188589
O O12 0.250000 0.750000 0.103557
O O13 0.312639 0.907021 0.151242
O O14 0.529885 0.970116 0.843967
O O15 0.677533 0.822468 0.742287
O O16 0.644299 0.644299 0.732904
#
# Coordination Sequence:
#
# PCOD9570933 Si02
#       6
#    16  16  16  16  16  16
#     4  10  21  39  65  95 126 170 225 278 331 399
#     4  11  24  43  65  94 134 175 219 281 345 398
#     4  10  22  41  64  94 134 175 217 275 343 404
#     4  12  26  40  66  99 132 172 229 273 334 411
#     4  10  24  42  61  91 133 174 219 278 340 402
#     4   9  17  32  58  91 123 160 213 270 326 395
#
# _framework density 21.614051
#
# number of rings (size 3 to 8) (size 9 to 14) (size 15 to 20)
#    0.000    1.667    0.000    4.000    4.667    6.667 
#    0.000    2.500    0.000    2.500    0.000    0.000 
#    0.000    0.000    0.000    0.000    0.000    0.000 
#
# Total GULP energy -535084.198281 kJ/mol
# GULP energy per Si atom -5573.793732 kJ/mol
# Density = 2.156486 g / cm^3
# Si number density = 21.614051 Si / 1000 Ang^3
#
#
#
# Elastic Constant Matrix: (Units=GPa)
#
#
# Indices 1 2 3 4 5 6 
#
# 1 125.8263 31.9920 24.6006 0.0000 0.0000 0.0000
# 2 31.9920 125.8226 24.5994 0.0000 0.0000 0.0000
# 3 24.6006 24.5994 50.3581 0.0000 0.0000 0.0000
# 4 0.0000 0.0000 0.0000 28.6624 0.0000 0.0000
# 5 0.0000 0.0000 0.0000 0.0000 28.6647 0.0000
# 6 0.0000 0.0000 0.0000 0.0000 0.0000 45.2349
#
#
#
# Elastic Compliance Matrix: (Units=1/GPa)
#
#
# Indices 1 2 3 4 5 6 
#
# 1 0.009066 -0.001591 -0.003652 0.000000 0.000000 0.000000
# 2 -0.001591 0.009066 -0.003651 0.000000 0.000000 0.000000
# 3 -0.003652 -0.003651 0.023425 0.000000 0.000000 0.000000
# 4 0.000000 0.000000 0.000000 0.034889 0.000000 0.000000
# 5 0.000000 0.000000 0.000000 0.000000 0.034886 0.000000
# 6 0.000000 0.000000 0.000000 0.000000 0.000000 0.022107
#
#
# Mechanical properties :
#
#
# Convention : Reuss Voigt Hill
#
# Bulk Modulus (GPa) = 42.07145 51.59899 46.83522
# Shear Modulus (GPa) = 31.41679 35.23340 33.32510
#
# Velocity S-wave (km/s) = 3.81666 4.04185 3.93087
# Velocity P-wave (km/s) = 6.23936 6.76068 6.50525
#
# Compressibility (1/GPa) = 0.02376909
#
# Stress axis : x y z
#
# Youngs Moduli (GPa) = 110.30262 110.30019 42.68894
#
# Poissons Ratio (x) = 0.17551 0.15588
# Poissons Ratio (y) = 0.17552 0.15587
# Poissons Ratio (z) = 0.40277 0.40275
#
# Static dielectric constant tensor:
#      x y z
#    x 1.874690 0.000000 0.000000 
#    y 0.000000 1.874690 0.000000 
#    z 0.000000 0.000000 1.788230 
# 
# From -- ./inp_files/6234.got.cif
#   From: 2010.05.17/outbox.cif.g08.bks.cpg/sg138_4_cif.got.tgz:6234.got - 2010.05.20 13:08:53.
