data_PCOD9570226
_publ_section_title
;
Structure prediction by ZEFSAII (Michael W. Deem and Ramdas Pophale) SiO2 
 PCOD9570226
Probable space group: P 42/N M C
;
_chemical_formula_sum "Si O2"
_cell_formula_units_Z 48
_cell_length_a 12.528536
_cell_length_b 12.528536
_cell_length_c 13.807840
_cell_angle_alpha 90.000000
_cell_angle_beta 90.000000
_cell_angle_gamma 90.000000
_cell_volume 2167.336757
_symmetry_space_group_name_H-M "P 42/N M C"
_symmetry_group_IT_number 137
_space_group.IT_coordinate_system_code '2'
_symmetry_cell_setting 'tetragonal'
loop_
_space_group_symop_operation_xyz
x,y,z
1/2-y,x,1/2+z
1/2-x,1/2-y,z
y,1/2-x,1/2+z
1/2+x,-y,-z
-x,1/2+y,-z
1/2+y,1/2+x,1/2-z
-y,-x,1/2-z
-x,-y,-z
1/2+y,-x,1/2-z
1/2+x,1/2+y,-z
-y,1/2+x,1/2-z
1/2-x,y,z
x,1/2-y,z
1/2-y,1/2-x,1/2+z
y,x,1/2+z
loop_
_atom_site_type_symbol
_atom_site_label
_atom_site_fract_x
_atom_site_fract_y
_atom_site_fract_z
Si Si1 0.046360 0.074475 0.386408
Si Si2 0.376025 0.250000 0.020542
Si Si3 0.626823 0.122289 0.955789
Si Si4 0.750000 0.880801 0.259694
O O1 0.143226 0.097917 0.461787
O O2 0.071293 0.147116 0.295033
O O3 0.937783 0.104258 0.442098
O O4 0.062271 0.947930 0.378033
O O5 0.250000 0.250000 0.030620
O O6 0.416896 0.250000 0.129612
O O7 0.750000 0.106429 0.931868
O O8 0.607413 0.250000 0.960440
O O9 0.750000 0.750000 0.250548
#
# Coordination Sequence:
#
# PCOD9570226 Si02
#       4
#    16   8  16   8
#     4  11  19  38  60  83 126 155 198 249 292 347
#     4  11  20  34  61  93 119 152 199 250 301 347
#     4  10  20  34  62  87 117 171 197 230 302 352
#     4  11  20  34  61  93 119 152 199 250 301 347
#
# _framework density 22.146998
#
# number of rings (size 3 to 8) (size 9 to 14) (size 15 to 20)
#    0.000    1.333    6.667    0.000    0.000    0.000 
#    0.000    6.667    0.000    8.000    0.000   14.000 
#    0.000    0.000    0.000    0.000    0.000    0.000 
#
# Total GULP energy -268278.652408 kJ/mol
# GULP energy per Si atom -5589.138592 kJ/mol
# Density = 2.209659 g / cm^3
# Si number density = 22.146998 Si / 1000 Ang^3
#
#
#
# Elastic Constant Matrix: (Units=GPa)
#
#
# Indices 1 2 3 4 5 6 
#
# 1 96.1519 25.8225 10.6462 0.0000 0.0000 0.0000
# 2 25.8225 96.1519 10.6462 0.0000 0.0000 0.0000
# 3 10.6462 10.6462 93.4138 0.0000 0.0000 0.0000
# 4 0.0000 0.0000 0.0000 3.5473 0.0000 0.0000
# 5 0.0000 0.0000 0.0000 0.0000 3.5473 0.0000
# 6 0.0000 0.0000 0.0000 0.0000 0.0000 25.5486
#
#
#
# Elastic Compliance Matrix: (Units=1/GPa)
#
#
# Indices 1 2 3 4 5 6 
#
# 1 0.011292 -0.002927 -0.000953 0.000000 0.000000 0.000000
# 2 -0.002927 0.011292 -0.000953 0.000000 0.000000 0.000000
# 3 -0.000953 -0.000953 0.010922 0.000000 0.000000 0.000000
# 4 0.000000 0.000000 0.000000 0.281905 0.000000 0.000000
# 5 0.000000 0.000000 0.000000 0.000000 0.281905 0.000000
# 6 0.000000 0.000000 0.000000 0.000000 0.000000 0.039141
#
#
# Mechanical properties :
#
#
# Convention : Reuss Voigt Hill
#
# Bulk Modulus (GPa) = 41.94848 42.21636 42.08242
# Shear Modulus (GPa) = 7.64443 22.43549 15.03996
#
# Velocity S-wave (km/s) = 1.85988 3.18626 2.60878
# Velocity P-wave (km/s) = 4.85739 5.71311 5.30254
#
# Compressibility (1/GPa) = 0.02383877
#
# Stress axis : x y z
#
# Youngs Moduli (GPa) = 88.55958 88.55958 91.55537
#
# Poissons Ratio (x) = 0.25921 0.08728
# Poissons Ratio (y) = 0.25921 0.08728
# Poissons Ratio (z) = 0.08443 0.08443
#
# Static dielectric constant tensor:
#      x y z
#    x 1.889390 0.000000 0.000000 
#    y 0.000000 1.889390 0.000000 
#    z 0.000000 0.000000 1.797610 
# 
# From -- ./inp_files/4450.got.cif
#   From: 2010.05.17/outbox.cif.g08.bks.cpg/sg137_3_cif.got.tgz:4450.got - 2010.05.20 13:01:12.
