data_PCOD9570956
_publ_section_title
;
Structure prediction by ZEFSAII (Michael W. Deem and Ramdas Pophale) SiO2 
 PCOD9570956
Probable space group: P 42/N C M
;
_chemical_formula_sum "Si O2"
_cell_formula_units_Z 56
_cell_length_a 18.791266
_cell_length_b 18.791266
_cell_length_c 9.637009
_cell_angle_alpha 90.000000
_cell_angle_beta 90.000000
_cell_angle_gamma 90.000000
_cell_volume 3402.940418
_symmetry_space_group_name_H-M "P 42/N C M"
_symmetry_group_IT_number 138
_space_group.IT_coordinate_system_code '2'
_symmetry_cell_setting 'tetragonal'
loop_
_space_group_symop_operation_xyz
x,y,z
1/2-y,x,1/2+z
1/2-x,1/2-y,z
y,1/2-x,1/2+z
1/2+x,-y,1/2-z
-x,1/2+y,1/2-z
1/2+y,1/2+x,-z
-y,-x,-z
-x,-y,-z
1/2+y,-x,1/2-z
1/2+x,1/2+y,-z
-y,1/2+x,1/2-z
1/2-x,y,1/2+z
x,1/2-y,1/2+z
1/2-y,1/2-x,z
y,x,z
loop_
_atom_site_type_symbol
_atom_site_label
_atom_site_fract_x
_atom_site_fract_y
_atom_site_fract_z
Si Si1 0.843816 0.960990 0.202192
Si Si2 0.303198 0.303198 0.115770
Si Si3 0.503407 0.503407 0.166257
Si Si4 0.397781 0.102220 0.820665
Si Si5 0.061574 0.228606 0.510668
O O1 0.882493 0.882493 0.195963
O O2 0.794466 0.964377 0.337466
O O3 0.794828 0.974128 0.068463
O O4 0.914040 0.009762 0.208411
O O5 0.250000 0.250000 0.193795
O O6 0.351397 0.351397 0.214236
O O7 0.255415 0.357392 0.028437
O O8 0.449809 0.449809 0.238398
O O9 0.500000 0.500000 0.000000
O O10 0.341667 0.060614 0.916585
#
# Coordination Sequence:
#
# PCOD9570956 Si02
#       5
#    16   8   8   8  16
#     4  10  22  36  54  77 114 159 205 241 292 356
#     4  12  22  30  47  86 128 153 192 222 295 337
#     4  10  23  43  54  75 113 174 204 242 306 366
#     4  12  23  33  57  76 119 164 197 243 285 357
#     4  12  21  33  52  86 111 159 199 249 282 347
#
# _framework density 16.456357000000001
#
# number of rings (size 3 to 8) (size 9 to 14) (size 15 to 20)
#    0.857    0.000    7.143    1.714    2.000    2.286 
#    0.000    0.000    0.000    0.000    0.000    0.000 
#    0.000    1.143   10.286    0.000    0.000    0.000 
#
# Total GULP energy -312076.577577 kJ/mol
# GULP energy per Si atom -5572.796028 kJ/mol
# Density = 1.641890 g / cm^3
# Si number density = 16.456357 Si / 1000 Ang^3
#
#
#
# Elastic Constant Matrix: (Units=GPa)
#
#
# Indices 1 2 3 4 5 6 
#
# 1 47.1404 45.6934 32.3326 0.0000 0.0000 0.0000
# 2 45.6934 47.1404 32.3326 0.0000 0.0000 0.0000
# 3 32.3326 32.3326 76.2596 0.0000 0.0000 0.0000
# 4 0.0000 0.0000 0.0000 26.1014 0.0000 0.0000
# 5 0.0000 0.0000 0.0000 0.0000 26.1014 0.0000
# 6 0.0000 0.0000 0.0000 0.0000 0.0000 44.9608
#
#
#
# Elastic Compliance Matrix: (Units=1/GPa)
#
#
# Indices 1 2 3 4 5 6 
#
# 1 0.353208 -0.337921 -0.006481 0.000000 0.000000 0.000000
# 2 -0.337921 0.353208 -0.006481 0.000000 0.000000 0.000000
# 3 -0.006481 -0.006481 0.018609 0.000000 0.000000 0.000000
# 4 0.000000 0.000000 0.000000 0.038312 0.000000 0.000000
# 5 0.000000 0.000000 0.000000 0.000000 0.038312 0.000000
# 6 0.000000 0.000000 0.000000 0.000000 0.000000 0.022242
#
#
# Mechanical properties :
#
#
# Convention : Reuss Voigt Hill
#
# Bulk Modulus (GPa) = 42.99743 43.47306 43.23524
# Shear Modulus (GPa) = 3.26071 23.44482 13.35276
#
# Velocity S-wave (km/s) = 1.40916 3.77857 2.85161
# Velocity P-wave (km/s) = 5.36959 6.74621 6.09688
#
# Compressibility (1/GPa) = 0.02325720
#
# Stress axis : x y z
#
# Youngs Moduli (GPa) = 2.83119 2.83119 53.73774
#
# Poissons Ratio (x) = 0.95672 0.34828
# Poissons Ratio (y) = 0.95672 0.34828
# Poissons Ratio (z) = 0.01835 0.01835
#
# Static dielectric constant tensor:
#      x y z
#    x 1.560280 0.000000 0.000000 
#    y 0.000000 1.560280 0.000000 
#    z 0.000000 0.000000 1.602160 
# 
# From -- ./inp_files/1343.got.cif
#   From: 2010.05.17/outbox.cif.g08.bks.cpg/sg138_1_cif.got.tgz:1343.got - 2010.05.20 13:08:53.
