data_PCOD9570800
_publ_section_title
;
Structure prediction by ZEFSAII (Michael W. Deem and Ramdas Pophale) SiO2 
 PCOD9570800
Probable space group: P 42/N C M
;
_chemical_formula_sum "Si O2"
_cell_formula_units_Z 96
_cell_length_a 15.828138
_cell_length_b 15.828138
_cell_length_c 19.157345
_cell_angle_alpha 90.000000
_cell_angle_beta 90.000000
_cell_angle_gamma 90.000000
_cell_volume 4799.488734
_symmetry_space_group_name_H-M "P 42/N C M"
_symmetry_group_IT_number 138
_space_group.IT_coordinate_system_code '2'
_symmetry_cell_setting 'tetragonal'
loop_
_space_group_symop_operation_xyz
x,y,z
1/2-y,x,1/2+z
1/2-x,1/2-y,z
y,1/2-x,1/2+z
1/2+x,-y,1/2-z
-x,1/2+y,1/2-z
1/2+y,1/2+x,-z
-y,-x,-z
-x,-y,-z
1/2+y,-x,1/2-z
1/2+x,1/2+y,-z
-y,1/2+x,1/2-z
1/2-x,y,1/2+z
x,1/2-y,1/2+z
1/2-y,1/2-x,z
y,x,z
loop_
_atom_site_type_symbol
_atom_site_label
_atom_site_fract_x
_atom_site_fract_y
_atom_site_fract_z
Si Si1 0.210037 0.077467 0.422419
Si Si2 0.545705 0.403953 0.724641
Si Si3 0.996963 0.358537 0.516514
Si Si4 0.141189 0.494712 0.673278
Si Si5 0.571455 0.065258 0.076773
Si Si6 0.726094 0.906763 0.732275
O O1 0.158624 0.158624 0.453309
O O2 0.246708 0.103674 0.347499
O O3 0.281864 0.031591 0.468544
O O4 0.138832 0.007560 0.406814
O O5 0.489480 0.489480 0.714411
O O6 0.622571 0.427516 0.775168
O O7 0.568853 0.377516 0.645746
O O8 0.485548 0.337822 0.762077
O O9 0.910261 0.410261 0.500000
O O10 0.071165 0.428836 0.511429
O O11 0.987819 0.326276 0.596023
O O12 0.051001 0.449000 0.660979
O O13 0.199474 0.431353 0.716179
O O14 0.478788 0.021213 0.068168
O O15 0.597153 0.097153 0.000000
O O16 0.675184 0.824817 0.755946
#
# Coordination Sequence:
#
# PCOD9570800 Si02
#       6
#    16  16  16  16  16  16
#     4  11  22  37  59  89 121 153 196 254 315 361
#     4   9  18  35  56  79 109 150 198 241 289 357
#     4  10  22  39  58  81 115 162 206 240 292 370
#     4  10  20  36  55  80 114 149 190 239 288 350
#     4   9  18  33  55  82 113 148 193 249 301 357
#     4  11  22  34  56  87 118 153 192 240 304 367
#
# _framework density 20.002130999999999
#
# number of rings (size 3 to 8) (size 9 to 14) (size 15 to 20)
#    0.000    2.000    1.667    2.000    2.333    5.667 
#    0.000    1.667    0.000    1.000    0.000    0.000 
#    0.000    0.000    0.000    0.000    0.000    0.000 
#
# Total GULP energy -534851.506849 kJ/mol
# GULP energy per Si atom -5571.369863 kJ/mol
# Density = 1.995660 g / cm^3
# Si number density = 20.002131 Si / 1000 Ang^3
#
#
#
# Elastic Constant Matrix: (Units=GPa)
#
#
# Indices 1 2 3 4 5 6 
#
# 1 70.3212 23.9127 31.3813 0.0000 0.0000 0.0000
# 2 23.9127 70.3212 31.3813 0.0000 0.0000 0.0000
# 3 31.3813 31.3813 127.0562 0.0000 0.0000 0.0000
# 4 0.0000 0.0000 0.0000 16.7082 0.0000 0.0000
# 5 0.0000 0.0000 0.0000 0.0000 16.7082 0.0000
# 6 0.0000 0.0000 0.0000 0.0000 0.0000 37.4578
#
#
#
# Elastic Compliance Matrix: (Units=1/GPa)
#
#
# Indices 1 2 3 4 5 6 
#
# 1 0.017125 -0.004423 -0.003137 0.000000 0.000000 0.000000
# 2 -0.004423 0.017125 -0.003137 0.000000 0.000000 0.000000
# 3 -0.003137 -0.003137 0.009420 0.000000 0.000000 0.000000
# 4 0.000000 0.000000 0.000000 0.059851 0.000000 0.000000
# 5 0.000000 0.000000 0.000000 0.000000 0.059851 0.000000
# 6 0.000000 0.000000 0.000000 0.000000 0.000000 0.026697
#
#
# Mechanical properties :
#
#
# Convention : Reuss Voigt Hill
#
# Bulk Modulus (GPa) = 44.89445 49.00546 46.94996
# Shear Modulus (GPa) = 22.84281 26.24307 24.54294
#
# Velocity S-wave (km/s) = 3.38304 3.62610 3.50668
# Velocity P-wave (km/s) = 6.14439 6.48728 6.31816
#
# Compressibility (1/GPa) = 0.02227447
#
# Stress axis : x y z
#
# Youngs Moduli (GPa) = 58.39581 58.39581 106.15539
#
# Poissons Ratio (x) = 0.25830 0.33301
# Poissons Ratio (y) = 0.25830 0.33301
# Poissons Ratio (z) = 0.18319 0.18319
#
# Static dielectric constant tensor:
#      x y z
#    x 1.731560 0.000000 0.000000 
#    y 0.000000 1.731560 0.000000 
#    z 0.000000 0.000000 1.760900 
# 
# From -- ./inp_files/6223.got.cif
#   From: 2010.05.17/outbox.cif.g08.bks.cpg/sg138_4_cif.got.tgz:6223.got - 2010.05.20 13:08:53.
