data_PCOD9570788
_publ_section_title
;
Structure prediction by ZEFSAII (Michael W. Deem and Ramdas Pophale) SiO2 
 PCOD9570788
Probable space group: P 42/N C M
;
_chemical_formula_sum "Si O2"
_cell_formula_units_Z 96
_cell_length_a 14.021201
_cell_length_b 14.021201
_cell_length_c 26.730839
_cell_angle_alpha 90.000000
_cell_angle_beta 90.000000
_cell_angle_gamma 90.000000
_cell_volume 5255.124634
_symmetry_space_group_name_H-M "P 42/N C M"
_symmetry_group_IT_number 138
_space_group.IT_coordinate_system_code '2'
_symmetry_cell_setting 'tetragonal'
loop_
_space_group_symop_operation_xyz
x,y,z
1/2-y,x,1/2+z
1/2-x,1/2-y,z
y,1/2-x,1/2+z
1/2+x,-y,1/2-z
-x,1/2+y,1/2-z
1/2+y,1/2+x,-z
-y,-x,-z
-x,-y,-z
1/2+y,-x,1/2-z
1/2+x,1/2+y,-z
-y,1/2+x,1/2-z
1/2-x,y,1/2+z
x,1/2-y,1/2+z
1/2-y,1/2-x,z
y,x,z
loop_
_atom_site_type_symbol
_atom_site_label
_atom_site_fract_x
_atom_site_fract_y
_atom_site_fract_z
Si Si1 0.414677 0.578321 0.556955
Si Si2 0.224445 0.438757 0.914929
Si Si3 0.479076 0.184154 0.144086
Si Si4 0.332481 0.167520 0.496300
Si Si5 0.668421 0.668421 0.888462
Si Si6 0.732791 0.096842 0.759927
Si Si7 0.253689 0.094227 0.302356
O O1 0.393831 0.606169 0.500000
O O2 0.496602 0.496602 0.554711
O O3 0.461825 0.669612 0.582865
O O4 0.334280 0.531680 0.591239
O O5 0.143497 0.356504 0.917697
O O6 0.289705 0.418181 0.962981
O O7 0.271219 0.424837 0.861125
O O8 0.403877 0.096124 0.151747
O O9 0.418568 0.281259 0.139668
O O10 0.555824 0.192342 0.187982
O O11 0.250000 0.250000 0.497800
O O12 0.355441 0.144560 0.553683
O O13 0.750000 0.750000 0.891038
O O14 0.656710 0.169529 0.735597
O O15 0.751429 0.004295 0.726301
O O16 0.338930 0.161071 0.282500
O O17 0.157372 0.157372 0.298266
#
# Coordination Sequence:
#
# PCOD9570788 Si02
#       7
#    16  16  16   8   8  16  16
#     4   9  16  26  45  76 113 149 185 226 274 327
#     4   9  15  25  44  73 109 143 179 223 274 323
#     4  10  20  36  55  82 116 148 190 236 289 349
#     4   9  14  24  44  75 117 151 179 221 278 343
#     4   9  18  30  50  79 115 151 180 221 286 348
#     4  11  25  42  58  79 108 149 198 241 291 346
#     4  10  20  35  57  86 114 144 186 237 291 344
#
# _framework density 18.267882
#
# number of rings (size 3 to 8) (size 9 to 14) (size 15 to 20)
#    0.000    2.333    0.833    2.500    1.167    6.667 
#    0.000    0.000    0.000    0.000    0.000   18.667 
#    0.000    0.000    0.000    0.000    0.000    0.000 
#
# Total GULP energy -535090.701382 kJ/mol
# GULP energy per Si atom -5573.861473 kJ/mol
# Density = 1.822630 g / cm^3
# Si number density = 18.267882 Si / 1000 Ang^3
#
#
#
# Elastic Constant Matrix: (Units=GPa)
#
#
# Indices 1 2 3 4 5 6 
#
# 1 68.8997 32.1137 22.1571 0.0000 0.0000 0.0000
# 2 32.1137 68.8997 22.1571 0.0000 0.0000 0.0000
# 3 22.1571 22.1571 70.1461 0.0000 0.0000 0.0000
# 4 0.0000 0.0000 0.0000 6.0616 0.0000 0.0000
# 5 0.0000 0.0000 0.0000 0.0000 6.0616 0.0000
# 6 0.0000 0.0000 0.0000 0.0000 0.0000 22.6029
#
#
#
# Elastic Compliance Matrix: (Units=1/GPa)
#
#
# Indices 1 2 3 4 5 6 
#
# 1 0.019338 -0.007846 -0.003630 0.000000 0.000000 0.000000
# 2 -0.007846 0.019338 -0.003630 0.000000 0.000000 0.000000
# 3 -0.003630 -0.003630 0.016549 0.000000 0.000000 0.000000
# 4 0.000000 0.000000 0.000000 0.164973 0.000000 0.000000
# 5 0.000000 0.000000 0.000000 0.000000 0.164973 0.000000
# 6 0.000000 0.000000 0.000000 0.000000 0.000000 0.044242
#
#
# Mechanical properties :
#
#
# Convention : Reuss Voigt Hill
#
# Bulk Modulus (GPa) = 39.97862 40.08904 40.03383
# Shear Modulus (GPa) = 10.68457 15.71305 13.19881
#
# Velocity S-wave (km/s) = 2.42106 2.93601 2.69088
# Velocity P-wave (km/s) = 5.45413 5.78673 5.62289
#
# Compressibility (1/GPa) = 0.02501337
#
# Stress axis : x y z
#
# Youngs Moduli (GPa) = 51.71101 51.71102 60.42585
#
# Poissons Ratio (x) = 0.40573 0.21935
# Poissons Ratio (y) = 0.40573 0.21935
# Poissons Ratio (z) = 0.18771 0.18771
#
# Static dielectric constant tensor:
#      x y z
#    x 1.628550 0.000000 0.000000 
#    y 0.000000 1.628550 0.000000 
#    z 0.000000 0.000000 1.644140 
# 
# From -- ./inp_files/7541.got.cif
#   From: 2010.05.17/outbox.cif.g08.bks.cpg/sg138_4_cif.got.tgz:7541.got - 2010.05.20 13:08:53.
