data_PCOD9570121
_publ_section_title
;
Structure prediction by ZEFSAII (Michael W. Deem and Ramdas Pophale) SiO2 
 PCOD9570121
Probable space group: P 42/N M C
;
_chemical_formula_sum "Si O2"
_cell_formula_units_Z 112
_cell_length_a 14.673547
_cell_length_b 14.673547
_cell_length_c 27.037900
_cell_angle_alpha 90.000000
_cell_angle_beta 90.000000
_cell_angle_gamma 90.000000
_cell_volume 5821.610864
_symmetry_space_group_name_H-M "P 42/N M C"
_symmetry_group_IT_number 137
_space_group.IT_coordinate_system_code '2'
_symmetry_cell_setting 'tetragonal'
loop_
_space_group_symop_operation_xyz
x,y,z
1/2-y,x,1/2+z
1/2-x,1/2-y,z
y,1/2-x,1/2+z
1/2+x,-y,-z
-x,1/2+y,-z
1/2+y,1/2+x,1/2-z
-y,-x,1/2-z
-x,-y,-z
1/2+y,-x,1/2-z
1/2+x,1/2+y,-z
-y,1/2+x,1/2-z
1/2-x,y,z
x,1/2-y,z
1/2-y,1/2-x,1/2+z
y,x,1/2+z
loop_
_atom_site_type_symbol
_atom_site_label
_atom_site_fract_x
_atom_site_fract_y
_atom_site_fract_z
Si Si1 0.066476 0.475805 0.455326
Si Si2 0.356054 0.150652 0.798752
Si Si3 0.518857 0.144269 0.371699
Si Si4 0.355731 0.348988 0.033014
Si Si5 0.646867 0.582149 0.807258
Si Si6 0.446689 0.645589 0.797031
Si Si7 0.145578 0.529330 0.099514
O O1 0.141481 0.417304 0.484143
O O2 0.000000 0.500000 0.500000
O O3 0.007740 0.413508 0.418902
O O4 0.090887 0.566861 0.424592
O O5 0.250000 0.145009 0.780146
O O6 0.364425 0.250000 0.823479
O O7 0.423769 0.148911 0.752279
O O8 0.368963 0.066418 0.834456
O O9 0.526322 0.250000 0.383771
O O10 0.607625 0.109937 0.343179
O O11 0.250000 0.354159 0.017616
O O12 0.372083 0.250000 0.056482
O O13 0.367842 0.431060 0.072025
O O14 0.750000 0.618213 0.820353
O O15 0.552774 0.637244 0.812572
O O16 0.635053 0.494108 0.842372
O O17 0.417044 0.582957 0.750000
O O18 0.426523 0.750000 0.784055
O O19 0.250000 0.558815 0.090448
#
# Coordination Sequence:
#
# PCOD9570121 Si02
#       7
#    16  16  16  16  16  16  16
#     4  10  20  36  54  77 104 140 184 236 289 337
#     4   9  18  32  52  80 112 143 178 224 277 328
#     4  11  22  37  55  78 112 155 195 232 278 339
#     4   9  18  32  52  79 106 134 176 232 294 351
#     4  10  19  34  56  83 112 145 186 235 284 325
#     4  12  24  38  56  82 119 160 196 229 270 338
#     4   9  18  33  53  77 106 142 182 228 282 340
#
# _framework density 19.238661
#
# number of rings (size 3 to 8) (size 9 to 14) (size 15 to 20)
#    0.000    2.000    2.857    1.286    0.000    4.143 
#    0.000    5.714    0.000    0.429    0.000    0.000 
#    0.000    2.000    0.000    0.000    0.000    0.000 
#
# Total GULP energy -623577.178198 kJ/mol
# GULP energy per Si atom -5567.653377 kJ/mol
# Density = 1.919487 g / cm^3
# Si number density = 19.238661 Si / 1000 Ang^3
#
#
#
# Elastic Constant Matrix: (Units=GPa)
#
#
# Indices 1 2 3 4 5 6 
#
# 1 67.5759 14.1762 16.4354 0.0000 0.0000 0.0000
# 2 14.1762 67.5763 16.4351 0.0000 0.0000 0.0000
# 3 16.4354 16.4351 68.4727 0.0000 0.0000 0.0000
# 4 0.0000 0.0000 0.0000 18.3819 0.0000 0.0000
# 5 0.0000 0.0000 0.0000 0.0000 18.3819 0.0000
# 6 0.0000 0.0000 0.0000 0.0000 0.0000 14.5854
#
#
#
# Elastic Compliance Matrix: (Units=1/GPa)
#
#
# Indices 1 2 3 4 5 6 
#
# 1 0.016133 -0.002594 -0.003250 0.000000 0.000000 0.000000
# 2 -0.002594 0.016133 -0.003250 0.000000 0.000000 0.000000
# 3 -0.003250 -0.003250 0.016164 0.000000 0.000000 0.000000
# 4 0.000000 0.000000 0.000000 0.054401 0.000000 0.000000
# 5 0.000000 0.000000 0.000000 0.000000 0.054401 0.000000
# 6 0.000000 0.000000 0.000000 0.000000 0.000000 0.068562
#
#
# Mechanical properties :
#
#
# Convention : Reuss Voigt Hill
#
# Bulk Modulus (GPa) = 33.06532 33.07979 33.07256
# Shear Modulus (GPa) = 19.68030 20.70841 20.19435
#
# Velocity S-wave (km/s) = 3.20184 3.28441 3.24338
# Velocity P-wave (km/s) = 5.55817 5.62271 5.59053
#
# Compressibility (1/GPa) = 0.03024317
#
# Stress axis : x y z
#
# Youngs Moduli (GPa) = 61.98581 61.98644 61.86451
#
# Poissons Ratio (x) = 0.16079 0.20104
# Poissons Ratio (y) = 0.16079 0.20103
# Poissons Ratio (z) = 0.20144 0.20143
#
# Static dielectric constant tensor:
#      x y z
#    x 1.697750 0.000000 0.000000 
#    y 0.000000 1.697750 0.000000 
#    z 0.000000 0.000000 1.687910 
# 
# From -- ./inp_files/9782.got.cif
#   From: 2010.05.17/outbox.cif.g08.bks.cpg/sg137_5_cif.got.tgz:9782.got - 2010.05.20 13:01:12.
