data_PCOD9570701
_publ_section_title
;
Structure prediction by ZEFSAII (Michael W. Deem and Ramdas Pophale) SiO2 
 PCOD9570701
Probable space group: P 42/N C M
;
_chemical_formula_sum "Si O2"
_cell_formula_units_Z 96
_cell_length_a 21.456198
_cell_length_b 21.456198
_cell_length_c 8.823857
_cell_angle_alpha 90.000000
_cell_angle_beta 90.000000
_cell_angle_gamma 90.000000
_cell_volume 4062.225217
_symmetry_space_group_name_H-M "P 42/N C M"
_symmetry_group_IT_number 138
_space_group.IT_coordinate_system_code '2'
_symmetry_cell_setting 'tetragonal'
loop_
_space_group_symop_operation_xyz
x,y,z
1/2-y,x,1/2+z
1/2-x,1/2-y,z
y,1/2-x,1/2+z
1/2+x,-y,1/2-z
-x,1/2+y,1/2-z
1/2+y,1/2+x,-z
-y,-x,-z
-x,-y,-z
1/2+y,-x,1/2-z
1/2+x,1/2+y,-z
-y,1/2+x,1/2-z
1/2-x,y,1/2+z
x,1/2-y,1/2+z
1/2-y,1/2-x,z
y,x,z
loop_
_atom_site_type_symbol
_atom_site_label
_atom_site_fract_x
_atom_site_fract_y
_atom_site_fract_z
Si Si1 0.820085 0.182641 0.316329
Si Si2 0.716614 0.491260 0.947416
Si Si3 0.346086 0.438128 0.291259
Si Si4 0.650795 0.519757 0.379376
Si Si5 0.071755 0.880514 0.148744
Si Si6 0.612986 0.713916 0.151141
O O1 0.818890 0.181111 0.500000
O O2 0.751385 0.166723 0.250295
O O3 0.868210 0.134438 0.241283
O O4 0.679117 0.501612 0.793920
O O5 0.787781 0.477288 0.910419
O O6 0.684925 0.447083 0.067846
O O7 0.710810 0.561360 0.018268
O O8 0.401749 0.401749 0.210880
O O9 0.368644 0.459927 0.455508
O O10 0.287504 0.390347 0.311717
O O11 0.605302 0.482323 0.269557
O O12 0.677827 0.579059 0.288833
O O13 0.076571 0.923430 0.000000
O O14 0.677840 0.677840 0.120125
#
# Coordination Sequence:
#
# PCOD9570701 Si02
#       6
#    16  16  16  16  16  16
#     4  11  24  42  61  92 133 165 191 232 310 385
#     4   9  20  37  57  84 122 159 210 252 306 372
#     4  10  19  34  60  90 121 163 205 255 319 381
#     4   9  20  36  55  83 119 161 205 254 303 374
#     4  11  24  39  62  87 116 161 212 260 305 361
#     4   9  17  33  56  86 125 163 197 246 309 379
#
# _framework density 23.632369000000001
#
# number of rings (size 3 to 8) (size 9 to 14) (size 15 to 20)
#    0.000    2.167    0.000    4.000    4.667    1.667 
#    0.000    0.000    0.000   25.000    0.000    0.000 
#    0.000    0.000    0.000    0.000    0.000    0.000 
#
# Total GULP energy -536008.109313 kJ/mol
# GULP energy per Si atom -5583.417805 kJ/mol
# Density = 2.357858 g / cm^3
# Si number density = 23.632369 Si / 1000 Ang^3
#
#
#
# Elastic Constant Matrix: (Units=GPa)
#
#
# Indices 1 2 3 4 5 6 
#
# 1 44.3250 43.6140 18.3411 0.0000 0.0000 0.0000
# 2 43.6140 44.3237 18.3407 0.0000 0.0000 0.0000
# 3 18.3411 18.3407 130.5367 0.0000 0.0000 0.0000
# 4 0.0000 0.0000 0.0000 20.2667 0.0000 0.0000
# 5 0.0000 0.0000 0.0000 0.0000 20.2667 0.0000
# 6 0.0000 0.0000 0.0000 0.0000 0.0000 10.3052
#
#
#
# Elastic Compliance Matrix: (Units=1/GPa)
#
#
# Indices 1 2 3 4 5 6 
#
# 1 0.709968 -0.697898 -0.001698 0.000000 0.000000 0.000000
# 2 -0.697898 0.709988 -0.001697 0.000000 0.000000 0.000000
# 3 -0.001698 -0.001697 0.008138 0.000000 0.000000 0.000000
# 4 0.000000 0.000000 0.000000 0.049342 0.000000 0.000000
# 5 0.000000 0.000000 0.000000 0.000000 0.049342 0.000000
# 6 0.000000 0.000000 0.000000 0.000000 0.000000 0.097038
#
#
# Mechanical properties :
#
#
# Convention : Reuss Voigt Hill
#
# Bulk Modulus (GPa) = 39.20361 42.19743 40.70052
# Shear Modulus (GPa) = 1.64750 19.42702 10.53726
#
# Velocity S-wave (km/s) = 0.83585 2.87025 2.11388
# Velocity P-wave (km/s) = 4.19005 5.37392 4.81848
#
# Compressibility (1/GPa) = 0.02550785
#
# Stress axis : x y z
#
# Youngs Moduli (GPa) = 1.40851 1.40847 122.88616
#
# Poissons Ratio (x) = 0.98297 0.20863
# Poissons Ratio (y) = 0.98300 0.20850
# Poissons Ratio (z) = 0.00239 0.00239
#
# Static dielectric constant tensor:
#      x y z
#    x 1.929370 0.000000 0.000000 
#    y 0.000000 1.929360 0.000000 
#    z 0.000000 0.000000 1.920270 
# 
# From -- ./inp_files/1748.got.cif
#   From: 2010.05.17/outbox.cif.g08.bks.cpg/sg138_1_cif.got.tgz:1748.got - 2010.05.20 13:08:53.
