data_PCOD9570245
_publ_section_title
;
Structure prediction by ZEFSAII (Michael W. Deem and Ramdas Pophale) SiO2 
 PCOD9570245
Probable space group: P 42/N M C
;
_chemical_formula_sum "Si O2"
_cell_formula_units_Z 64
_cell_length_a 15.026172
_cell_length_b 15.026172
_cell_length_c 15.315546
_cell_angle_alpha 90.000000
_cell_angle_beta 90.000000
_cell_angle_gamma 90.000000
_cell_volume 3458.033495
_symmetry_space_group_name_H-M "P 42/N M C"
_symmetry_group_IT_number 137
_space_group.IT_coordinate_system_code '2'
_symmetry_cell_setting 'tetragonal'
loop_
_space_group_symop_operation_xyz
x,y,z
1/2-y,x,1/2+z
1/2-x,1/2-y,z
y,1/2-x,1/2+z
1/2+x,-y,-z
-x,1/2+y,-z
1/2+y,1/2+x,1/2-z
-y,-x,1/2-z
-x,-y,-z
1/2+y,-x,1/2-z
1/2+x,1/2+y,-z
-y,1/2+x,1/2-z
1/2-x,y,z
x,1/2-y,z
1/2-y,1/2-x,1/2+z
y,x,1/2+z
loop_
_atom_site_type_symbol
_atom_site_label
_atom_site_fract_x
_atom_site_fract_y
_atom_site_fract_z
Si Si1 0.645999 0.478905 0.141802
Si Si2 0.145819 0.482269 0.664092
Si Si3 0.857953 0.350724 0.849037
Si Si4 0.643897 0.974971 0.949890
O O1 0.750000 0.451150 0.138914
O O2 0.578940 0.396298 0.145153
O O3 0.632603 0.532241 0.231792
O O4 0.627254 0.531938 0.053092
O O5 0.250000 0.481397 0.645800
O O6 0.094436 0.410596 0.606811
O O7 0.880294 0.380294 0.750000
O O8 0.750000 0.346022 0.850326
O O9 0.890981 0.250000 0.865097
O O10 0.884144 0.426157 0.917414
O O11 0.750000 0.966231 0.935107
#
# Coordination Sequence:
#
# PCOD9570245 Si02
#       4
#    16  16  16  16
#     4   9  20  38  58  79 107 142 186 235 278 319
#     4  10  21  37  57  81 111 148 186 228 271 322
#     4   8  15  28  47  76 110 139 172 217 270 325
#     4  10  20  35  57  83 112 148 180 220 275 330
#
# _framework density 18.507629000000001
#
# number of rings (size 3 to 8) (size 9 to 14) (size 15 to 20)
#    0.000    2.750    0.000    1.500    3.500    2.000 
#    0.000    6.250    0.000    4.500    0.000    0.000 
#    0.000    0.000    0.000    0.000    0.000    0.000 
#
# Total GULP energy -356887.455334 kJ/mol
# GULP energy per Si atom -5576.366490 kJ/mol
# Density = 1.846551 g / cm^3
# Si number density = 18.507629 Si / 1000 Ang^3
#
#
#
# Elastic Constant Matrix: (Units=GPa)
#
#
# Indices 1 2 3 4 5 6 
#
# 1 62.0465 66.0563 74.4647 0.0000 0.0000 0.0000
# 2 66.0563 62.0465 74.4647 0.0000 0.0000 0.0000
# 3 74.4647 74.4647 151.3900 0.0000 0.0000 0.0000
# 4 0.0000 0.0000 0.0000 22.0094 0.0000 0.0000
# 5 0.0000 0.0000 0.0000 0.0000 22.0094 0.0000
# 6 0.0000 0.0000 0.0000 0.0000 0.0000 7.3781
#
#
#
# Elastic Compliance Matrix: (Units=1/GPa)
#
#
# Indices 1 2 3 4 5 6 
#
# 1 -0.115580 0.133812 -0.008968 0.000000 0.000000 0.000000
# 2 0.133812 -0.115580 -0.008968 0.000000 0.000000 0.000000
# 3 -0.008968 -0.008968 0.015428 0.000000 0.000000 0.000000
# 4 0.000000 0.000000 0.000000 0.045435 0.000000 0.000000
# 5 0.000000 0.000000 0.000000 0.000000 0.045435 0.000000
# 6 0.000000 0.000000 0.000000 0.000000 0.000000 0.135536
#
#
# Mechanical properties :
#
#
# Convention : Reuss Voigt Hill
#
# Bulk Modulus (GPa) = 62.42103 78.38382 70.40243
# Shear Modulus (GPa) = -23.17630 14.31254 -4.43188
#
# Velocity S-wave (km/s) = -3.54256 2.78390 -1.54914
# Velocity P-wave (km/s) = 4.13127 7.26482 5.90953
#
# Compressibility (1/GPa) = 0.01602024
#
# Stress axis : x y z
#
# Youngs Moduli (GPa) = -8.65204 -8.65204 64.81895
#
# Poissons Ratio (x) = 1.15774 0.58129
# Poissons Ratio (y) = 1.15774 0.58129
# Poissons Ratio (z) = -0.07759 -0.07759
#
# Static dielectric constant tensor:
#      x y z
#    x 1.622200 0.000000 0.000000 
#    y 0.000000 1.622200 0.000000 
#    z 0.000000 0.000000 1.674900 
# 
# From -- ./inp_files/4696.got.cif
#   From: 2010.05.17/outbox.cif.g08.bks.cpg/sg137_3_cif.got.tgz:4696.got - 2010.05.20 13:01:12.
