data_PCOD9570273
_publ_section_title
;
Structure prediction by ZEFSAII (Michael W. Deem and Ramdas Pophale) SiO2 
 PCOD9570273
Probable space group: P 42/N M C
;
_chemical_formula_sum "Si O2"
_cell_formula_units_Z 112
_cell_length_a 15.075130
_cell_length_b 15.075130
_cell_length_c 25.572018
_cell_angle_alpha 90.000000
_cell_angle_beta 90.000000
_cell_angle_gamma 90.000000
_cell_volume 5811.485163
_symmetry_space_group_name_H-M "P 42/N M C"
_symmetry_group_IT_number 137
_space_group.IT_coordinate_system_code '2'
_symmetry_cell_setting 'tetragonal'
loop_
_space_group_symop_operation_xyz
x,y,z
1/2-y,x,1/2+z
1/2-x,1/2-y,z
y,1/2-x,1/2+z
1/2+x,-y,-z
-x,1/2+y,-z
1/2+y,1/2+x,1/2-z
-y,-x,1/2-z
-x,-y,-z
1/2+y,-x,1/2-z
1/2+x,1/2+y,-z
-y,1/2+x,1/2-z
1/2-x,y,z
x,1/2-y,z
1/2-y,1/2-x,1/2+z
y,x,1/2+z
loop_
_atom_site_type_symbol
_atom_site_label
_atom_site_fract_x
_atom_site_fract_y
_atom_site_fract_z
Si Si1 0.453245 0.655708 0.972655
Si Si2 0.650781 0.498044 0.066312
Si Si3 0.356405 0.004628 0.254163
Si Si4 0.521592 0.644794 0.359426
Si Si5 0.646178 0.645386 0.653807
Si Si6 0.849469 0.616053 0.967053
Si Si7 0.356976 0.651387 0.084149
O O1 0.424080 0.750000 0.950231
O O2 0.423819 0.576566 0.934940
O O3 0.558034 0.659186 0.982559
O O4 0.404429 0.644922 0.028273
O O5 0.750000 0.463202 0.078463
O O6 0.632910 0.579762 0.105116
O O7 0.654040 0.534230 0.007076
O O8 0.414774 0.914774 0.250000
O O9 0.250000 0.986045 0.256394
O O10 0.381356 0.050043 0.198339
O O11 0.374793 0.074064 0.300848
O O12 0.507015 0.750000 0.355566
O O13 0.588475 0.634949 0.407178
O O14 0.426333 0.608727 0.378393
O O15 0.750000 0.633603 0.638687
O O16 0.637314 0.750000 0.670173
O O17 0.750000 0.655664 0.971172
O O18 0.250000 0.643203 0.076591
O O19 0.374128 0.750000 0.105802
#
# Coordination Sequence:
#
# PCOD9570273 Si02
#       7
#    16  16  16  16  16  16  16
#     4  11  22  33  52  84 120 158 193 230 282 348
#     4  10  20  36  61  88 116 150 187 241 296 341
#     4  10  22  37  58  86 115 151 192 241 292 341
#     4   9  18  34  53  75 106 147 189 229 278 334
#     4   9  20  40  64  88 112 146 196 245 294 349
#     4  10  21  36  53  77 113 153 192 232 280 337
#     4   9  17  30  50  79 115 152 189 227 276 343
#
# _framework density 19.272182999999998
#
# number of rings (size 3 to 8) (size 9 to 14) (size 15 to 20)
#    0.000    2.286    1.429    0.857    2.000    2.429 
#    0.000    6.429    0.000    2.571    0.000    0.000 
#    0.000    0.000    0.000    0.000    0.000    0.000 
#
# Total GULP energy -623742.868140 kJ/mol
# GULP energy per Si atom -5569.132751 kJ/mol
# Density = 1.922832 g / cm^3
# Si number density = 19.272183 Si / 1000 Ang^3
#
#
#
# Elastic Constant Matrix: (Units=GPa)
#
#
# Indices 1 2 3 4 5 6 
#
# 1 76.0397 38.0890 13.0505 0.0000 0.0000 0.0000
# 2 38.0890 76.0397 13.0505 0.0000 0.0000 0.0000
# 3 13.0505 13.0505 48.5232 0.0000 0.0000 0.0000
# 4 0.0000 0.0000 0.0000 17.9379 0.0000 0.0000
# 5 0.0000 0.0000 0.0000 0.0000 17.9379 0.0000
# 6 0.0000 0.0000 0.0000 0.0000 0.0000 -22.7769
#
#
#
# Elastic Compliance Matrix: (Units=1/GPa)
#
#
# Indices 1 2 3 4 5 6 
#
# 1 0.017843 -0.008507 -0.002511 0.000000 0.000000 0.000000
# 2 -0.008507 0.017843 -0.002511 0.000000 0.000000 0.000000
# 3 -0.002511 -0.002511 0.021959 0.000000 0.000000 0.000000
# 4 0.000000 0.000000 0.000000 0.055748 0.000000 0.000000
# 5 0.000000 0.000000 0.000000 0.000000 0.055748 0.000000
# 6 0.000000 0.000000 0.000000 0.000000 0.000000 -0.043904
#
#
# Mechanical properties :
#
#
# Convention : Reuss Voigt Hill
#
# Bulk Modulus (GPa) = 32.69269 36.55362 34.62316
# Shear Modulus (GPa) = 30.77094 11.71396 21.24245
#
# Velocity S-wave (km/s) = 4.00015 2.46807 3.32359
# Velocity P-wave (km/s) = 6.19156 5.20865 5.72125
#
# Compressibility (1/GPa) = 0.03058787
#
# Stress axis : x y z
#
# Youngs Moduli (GPa) = 56.04395 56.04395 45.53858
#
# Poissons Ratio (x) = 0.47676 0.11435
# Poissons Ratio (y) = 0.47676 0.11435
# Poissons Ratio (z) = 0.14073 0.14073
#
# Static dielectric constant tensor:
#      x y z
#    x 1.670190 0.000000 0.000000 
#    y 0.000000 1.670190 0.000000 
#    z 0.000000 0.000000 1.685390 
# 
# From -- ./inp_files/9842.got.cif
#   From: 2010.05.17/outbox.cif.g08.bks.cpg/sg137_5_cif.got.tgz:9842.got - 2010.05.20 13:01:12.
