data_PCOD9570279
_publ_section_title
;
Structure prediction by ZEFSAII (Michael W. Deem and Ramdas Pophale) SiO2 
 PCOD9570279
Probable space group: P 42/N M C
;
_chemical_formula_sum "Si O2"
_cell_formula_units_Z 96
_cell_length_a 16.113880
_cell_length_b 16.113880
_cell_length_c 19.310870
_cell_angle_alpha 90.000000
_cell_angle_beta 90.000000
_cell_angle_gamma 90.000000
_cell_volume 5014.205056
_symmetry_space_group_name_H-M "P 42/N M C"
_symmetry_group_IT_number 137
_space_group.IT_coordinate_system_code '2'
_symmetry_cell_setting 'tetragonal'
loop_
_space_group_symop_operation_xyz
x,y,z
1/2-y,x,1/2+z
1/2-x,1/2-y,z
y,1/2-x,1/2+z
1/2+x,-y,-z
-x,1/2+y,-z
1/2+y,1/2+x,1/2-z
-y,-x,1/2-z
-x,-y,-z
1/2+y,-x,1/2-z
1/2+x,1/2+y,-z
-y,1/2+x,1/2-z
1/2-x,y,z
x,1/2-y,z
1/2-y,1/2-x,1/2+z
y,x,1/2+z
loop_
_atom_site_type_symbol
_atom_site_label
_atom_site_fract_x
_atom_site_fract_y
_atom_site_fract_z
Si Si1 0.102312 0.159454 0.956829
Si Si2 0.444282 0.653465 0.806637
Si Si3 0.657292 0.997811 0.970412
Si Si4 0.978045 0.592474 0.321568
Si Si5 0.492172 0.841293 0.178730
Si Si6 0.071617 0.658511 0.968487
O O1 0.143949 0.250000 0.962325
O O2 0.061395 0.152995 0.880858
O O3 0.025269 0.160040 0.010918
O O4 0.151658 0.077051 0.974963
O O5 0.378068 0.621933 0.750000
O O6 0.467631 0.750000 0.793380
O O7 0.519500 0.587279 0.805416
O O8 0.413894 0.650165 0.886422
O O9 0.750000 0.028753 0.963929
O O10 0.629718 0.961760 0.896574
O O11 0.604566 0.076883 0.993897
O O12 0.973397 0.653733 0.256597
O O13 0.074146 0.561037 0.326706
O O14 0.451279 0.750000 0.168985
O O15 0.104587 0.750000 0.990301
#
# Coordination Sequence:
#
# PCOD9570279 Si02
#       6
#    16  16  16  16  16  16
#     4  10  20  38  62  84 112 155 204 248 295 357
#     4  11  23  40  64  90 119 162 208 255 308 367
#     4  12  24  36  59  93 126 157 197 250 310 370
#     4  11  21  38  60  91 125 158 200 248 303 369
#     4  10  20  36  63  87 114 157 201 244 297 358
#     4  10  21  39  62  87 117 157 204 250 299 359
#
# _framework density 19.145606000000001
#
# number of rings (size 3 to 8) (size 9 to 14) (size 15 to 20)
#    0.000    1.333    5.000    2.000    0.000    1.500 
#    0.000    1.667    0.000   10.500    0.000    0.000 
#    0.000    0.000    0.000    0.000    0.000    0.000 
#
# Total GULP energy -534915.391698 kJ/mol
# GULP energy per Si atom -5572.035330 kJ/mol
# Density = 1.910203 g / cm^3
# Si number density = 19.145606 Si / 1000 Ang^3
#
#
#
# Elastic Constant Matrix: (Units=GPa)
#
#
# Indices 1 2 3 4 5 6 
#
# 1 49.2011 5.5958 3.2374 0.0000 0.0000 0.0000
# 2 5.5958 49.2026 3.2369 0.0000 0.0000 0.0000
# 3 3.2374 3.2369 105.6397 0.0000 0.0000 0.0000
# 4 0.0000 0.0000 0.0000 -81.6825 0.0000 0.0000
# 5 0.0000 0.0000 0.0000 0.0000 -81.6862 0.0000
# 6 0.0000 0.0000 0.0000 0.0000 0.0000 -19.8546
#
#
#
# Elastic Compliance Matrix: (Units=1/GPa)
#
#
# Indices 1 2 3 4 5 6 
#
# 1 0.020624 -0.002309 -0.000561 0.000000 0.000000 0.000000
# 2 -0.002309 0.020624 -0.000561 0.000000 0.000000 0.000000
# 3 -0.000561 -0.000561 0.009501 0.000000 0.000000 0.000000
# 4 0.000000 0.000000 0.000000 -0.012243 0.000000 0.000000
# 5 0.000000 0.000000 0.000000 0.000000 -0.012242 0.000000
# 6 0.000000 0.000000 0.000000 0.000000 0.000000 -0.050366
#
#
# Mechanical properties :
#
#
# Convention : Reuss Voigt Hill
#
# Bulk Modulus (GPa) = 22.78626 25.35374 24.07000
# Shear Modulus (GPa) = -1914.80684 -23.84645 -969.32664
#
# Velocity S-wave (km/s) = -31.65912 -3.53304 -22.52534
# Velocity P-wave (km/s) = 36.39330 1.83624 25.76669
#
# Compressibility (1/GPa) = 0.04388610
#
# Stress axis : x y z
#
# Youngs Moduli (GPa) = 48.48662 48.48810 105.25723
#
# Poissons Ratio (x) = 0.11194 0.05908
# Poissons Ratio (y) = 0.11194 0.05907
# Poissons Ratio (z) = 0.02722 0.02721
#
# Static dielectric constant tensor:
#      x y z
#    x 1.701000 0.000000 0.000000 
#    y 0.000000 1.701000 0.000000 
#    z 0.000000 0.000000 1.687830 
# 
# From -- ./inp_files/7817.got.cif
#   From: 2010.05.17/outbox.cif.g08.bks.cpg/sg137_4_cif.got.tgz:7817.got - 2010.05.20 13:01:12.
