data_PCOD9570981
_publ_section_title
;
Structure prediction by ZEFSAII (Michael W. Deem and Ramdas Pophale) SiO2 
 PCOD9570981
Probable space group: P 42/N C M
;
_chemical_formula_sum "Si O2"
_cell_formula_units_Z 128
_cell_length_a 24.122065
_cell_length_b 24.122065
_cell_length_c 11.608590
_cell_angle_alpha 90.000000
_cell_angle_beta 90.000000
_cell_angle_gamma 90.000000
_cell_volume 6754.736928
_symmetry_space_group_name_H-M "P 42/N C M"
_symmetry_group_IT_number 138
_space_group.IT_coordinate_system_code '2'
_symmetry_cell_setting 'tetragonal'
loop_
_space_group_symop_operation_xyz
x,y,z
1/2-y,x,1/2+z
1/2-x,1/2-y,z
y,1/2-x,1/2+z
1/2+x,-y,1/2-z
-x,1/2+y,1/2-z
1/2+y,1/2+x,-z
-y,-x,-z
-x,-y,-z
1/2+y,-x,1/2-z
1/2+x,1/2+y,-z
-y,1/2+x,1/2-z
1/2-x,y,1/2+z
x,1/2-y,1/2+z
1/2-y,1/2-x,z
y,x,z
loop_
_atom_site_type_symbol
_atom_site_label
_atom_site_fract_x
_atom_site_fract_y
_atom_site_fract_z
Si Si1 0.096038 0.762885 0.210978
Si Si2 0.673186 0.582492 0.403447
Si Si3 0.343482 0.561690 0.980309
Si Si4 0.637148 0.951999 0.157022
Si Si5 0.442365 0.936919 0.130794
Si Si6 0.274316 0.011161 0.664345
Si Si7 0.523613 0.607085 0.200561
Si Si8 0.652639 0.346907 0.368664
O O1 0.091879 0.794242 0.089286
O O2 0.116095 0.701086 0.187458
O O3 0.139019 0.794599 0.292181
O O4 0.036705 0.762678 0.275068
O O5 0.645696 0.645696 0.406137
O O6 0.651049 0.555315 0.521872
O O7 0.736769 0.559054 0.396279
O O8 0.647153 0.555484 0.288829
O O9 0.366052 0.516242 0.891517
O O10 0.392722 0.607279 0.000000
O O11 0.315711 0.525790 0.083512
O O12 0.600649 0.899352 0.192566
O O13 0.690716 0.959679 0.235148
O O14 0.600592 0.006957 0.170757
O O15 0.385925 0.901300 0.129329
O O16 0.430677 0.986118 0.216773
O O17 0.454292 0.954292 0.000000
O O18 0.569256 0.569256 0.139609
O O19 0.667190 0.332811 0.500000
#
# Coordination Sequence:
#
# PCOD9570981 Si02
#       8
#    16  16  16  16  16  16  16  16
#     4  12  23  43  61  87 116 162 218 263 315 366
#     4  10  22  40  63  94 124 160 216 269 314 376
#     4  12  25  40  60  92 130 170 210 253 318 399
#     4  11  23  38  62  98 127 158 208 257 309 378
#     4  11  19  34  59  90 125 161 202 252 314 375
#     4  12  23  40  68  90 128 173 204 262 320 379
#     4  11  22  38  59  90 129 165 202 251 318 392
#     4  11  24  39  62  86 113 157 215 269 310 365
#
# _framework density 18.949665
#
# number of rings (size 3 to 8) (size 9 to 14) (size 15 to 20)
#    0.000    0.750    5.000    3.375    1.750    1.500 
#    0.000    0.625    0.000    0.375    0.000    1.750 
#    0.000    0.000    0.000    0.000    0.000    0.000 
#
# Total GULP energy -714119.263501 kJ/mol
# GULP energy per Si atom -5579.056746 kJ/mol
# Density = 1.890654 g / cm^3
# Si number density = 18.949665 Si / 1000 Ang^3
#
#
#
# Elastic Constant Matrix: (Units=GPa)
#
#
# Indices 1 2 3 4 5 6 
#
# 1 24.7424 45.3585 21.2953 0.0000 0.0000 0.0000
# 2 45.3585 24.7385 21.2953 0.0000 0.0000 0.0000
# 3 21.2953 21.2953 63.3219 0.0000 0.0000 0.0000
# 4 0.0000 0.0000 0.0000 25.3616 0.0000 0.0000
# 5 0.0000 0.0000 0.0000 0.0000 25.3617 0.0000
# 6 0.0000 0.0000 0.0000 0.0000 0.0000 39.1452
#
#
#
# Elastic Compliance Matrix: (Units=1/GPa)
#
#
# Indices 1 2 3 4 5 6 
#
# 1 -0.015284 0.033215 -0.006030 0.000000 0.000000 0.000000
# 2 0.033215 -0.015288 -0.006029 0.000000 0.000000 0.000000
# 3 -0.006030 -0.006029 0.019848 0.000000 0.000000 0.000000
# 4 0.000000 0.000000 0.000000 0.039430 0.000000 0.000000
# 5 0.000000 0.000000 0.000000 0.000000 0.039430 0.000000
# 6 0.000000 0.000000 0.000000 0.000000 0.000000 0.025546
#
#
# Mechanical properties :
#
#
# Convention : Reuss Voigt Hill
#
# Bulk Modulus (GPa) = 31.65806 32.07791 31.86798
# Shear Modulus (GPa) = 80.77810 19.63063 50.20436
#
# Velocity S-wave (km/s) = 6.53607 3.22209 5.15277
# Velocity P-wave (km/s) = 8.58505 5.55042 7.22877
#
# Compressibility (1/GPa) = 0.03158754
#
# Stress axis : x y z
#
# Youngs Moduli (GPa) = -65.42621 -65.41167 50.38331
#
# Poissons Ratio (x) = 2.17265 0.30382
# Poissons Ratio (y) = 2.17313 0.30376
# Poissons Ratio (z) = -0.39453 -0.39437
#
# Static dielectric constant tensor:
#      x y z
#    x 1.671720 0.000000 0.000000 
#    y 0.000000 1.671720 0.000000 
#    z 0.000000 0.000000 1.688550 
# 
# From -- ./inp_files/3346.got.cif
#   From: 2010.05.17/outbox.cif.g08.bks.cpg/sg138_2_cif.got.tgz:3346.got - 2010.05.20 13:08:53.
