data_PCOD9570999
_publ_section_title
;
Structure prediction by ZEFSAII (Michael W. Deem and Ramdas Pophale) SiO2 
 PCOD9570999
Probable space group: P 42/N C M
;
_chemical_formula_sum "Si O2"
_cell_formula_units_Z 72
_cell_length_a 11.043408
_cell_length_b 11.043408
_cell_length_c 29.783195
_cell_angle_alpha 90.000000
_cell_angle_beta 90.000000
_cell_angle_gamma 90.000000
_cell_volume 3632.264951
_symmetry_space_group_name_H-M "P 42/N C M"
_symmetry_group_IT_number 138
_space_group.IT_coordinate_system_code '2'
_symmetry_cell_setting 'tetragonal'
loop_
_space_group_symop_operation_xyz
x,y,z
1/2-y,x,1/2+z
1/2-x,1/2-y,z
y,1/2-x,1/2+z
1/2+x,-y,1/2-z
-x,1/2+y,1/2-z
1/2+y,1/2+x,-z
-y,-x,-z
-x,-y,-z
1/2+y,-x,1/2-z
1/2+x,1/2+y,-z
-y,1/2+x,1/2-z
1/2-x,y,1/2+z
x,1/2-y,1/2+z
1/2-y,1/2-x,z
y,x,z
loop_
_atom_site_type_symbol
_atom_site_label
_atom_site_fract_x
_atom_site_fract_y
_atom_site_fract_z
Si Si1 0.566472 0.933529 0.038821
Si Si2 0.270516 0.893058 0.358443
Si Si3 0.653582 0.846419 0.798859
Si Si4 0.506534 0.993466 0.135516
Si Si5 0.436033 0.791433 0.737002
Si Si6 0.460112 0.664586 0.041236
O O1 0.531772 0.791832 0.036180
O O2 0.504962 0.995039 0.082108
O O3 0.500000 0.000000 0.000000
O O4 0.250000 0.750000 0.351412
O O5 0.338743 0.941649 0.314113
O O6 0.327564 0.905759 0.408118
O O7 0.145191 0.968409 0.355853
O O8 0.750000 0.750000 0.816137
O O9 0.582548 0.917453 0.837985
O O10 0.556367 0.785602 0.765712
O O11 0.376617 0.658818 0.737172
O O12 0.557428 0.557428 0.040921
O O13 0.366764 0.633237 0.000000
#
# Coordination Sequence:
#
# PCOD9570999 Si02
#       6
#     8  16   8   8  16  16
#     4  10  23  41  74  94 121 178 211 262 326 393
#     4  11  22  40  67  92 121 172 217 259 322 387
#     4  12  26  38  65  98 135 172 215 271 324 382
#     4  10  22  43  62  91 129 161 221 262 310 390
#     4  11  22  43  65  90 130 171 214 264 317 381
#     4  10  24  43  65  98 134 159 211 275 326 388
#
# _framework density 19.822344000000001
#
# number of rings (size 3 to 8) (size 9 to 14) (size 15 to 20)
#    0.000    1.333    4.444    0.333   10.889    0.000 
#    0.000    2.222    0.000    0.000    0.000    0.000 
#    0.000    0.000    0.000    0.000    0.000    0.000 
#
# Total GULP energy -401301.831985 kJ/mol
# GULP energy per Si atom -5573.636555 kJ/mol
# Density = 1.977723 g / cm^3
# Si number density = 19.822344 Si / 1000 Ang^3
#
#
#
# Elastic Constant Matrix: (Units=GPa)
#
#
# Indices 1 2 3 4 5 6 
#
# 1 71.4008 17.0336 43.3720 0.0000 0.0000 0.0000
# 2 17.0336 71.4001 43.3721 0.0000 0.0000 0.0000
# 3 43.3720 43.3721 187.9441 0.0000 0.0000 0.0000
# 4 0.0000 0.0000 0.0000 17.6909 0.0000 0.0000
# 5 0.0000 0.0000 0.0000 0.0000 17.6909 0.0000
# 6 0.0000 0.0000 0.0000 0.0000 0.0000 22.5858
#
#
#
# Elastic Compliance Matrix: (Units=1/GPa)
#
#
# Indices 1 2 3 4 5 6 
#
# 1 0.016505 -0.001889 -0.003373 0.000000 0.000000 0.000000
# 2 -0.001889 0.016505 -0.003373 0.000000 0.000000 0.000000
# 3 -0.003373 -0.003373 0.006878 0.000000 0.000000 0.000000
# 4 0.000000 0.000000 0.000000 0.056526 0.000000 0.000000
# 5 0.000000 0.000000 0.000000 0.000000 0.056526 0.000000
# 6 0.000000 0.000000 0.000000 0.000000 0.000000 0.044276
#
#
# Mechanical properties :
#
#
# Convention : Reuss Voigt Hill
#
# Bulk Modulus (GPa) = 44.21210 59.81115 52.01162
# Shear Modulus (GPa) = 22.52005 26.72467 24.62236
#
# Velocity S-wave (km/s) = 3.37426 3.67578 3.52824
# Velocity P-wave (km/s) = 6.12645 6.94653 6.54934
#
# Compressibility (1/GPa) = 0.02261824
#
# Stress axis : x y z
#
# Youngs Moduli (GPa) = 60.58803 60.58727 145.40078
#
# Poissons Ratio (x) = 0.11442 0.49044
# Poissons Ratio (y) = 0.11442 0.49045
# Poissons Ratio (z) = 0.20437 0.20437
#
# Static dielectric constant tensor:
#      x y z
#    x 1.765580 0.000000 0.000000 
#    y 0.000000 1.765580 0.000000 
#    z 0.000000 0.000000 1.968800 
# 
# From -- ./inp_files/7431.got.cif
#   From: 2010.05.17/outbox.cif.g08.bks.cpg/sg138_4_cif.got.tgz:7431.got - 2010.05.20 13:08:53.
