data_PCOD9570892
_publ_section_title
;
Structure prediction by ZEFSAII (Michael W. Deem and Ramdas Pophale) SiO2 
 PCOD9570892
Probable space group: P 42/N C M
;
_chemical_formula_sum "Si O2"
_cell_formula_units_Z 128
_cell_length_a 20.045263
_cell_length_b 20.045263
_cell_length_c 18.449315
_cell_angle_alpha 90.000000
_cell_angle_beta 90.000000
_cell_angle_gamma 90.000000
_cell_volume 7413.166652
_symmetry_space_group_name_H-M "P 42/N C M"
_symmetry_group_IT_number 138
_space_group.IT_coordinate_system_code '2'
_symmetry_cell_setting 'tetragonal'
loop_
_space_group_symop_operation_xyz
x,y,z
1/2-y,x,1/2+z
1/2-x,1/2-y,z
y,1/2-x,1/2+z
1/2+x,-y,1/2-z
-x,1/2+y,1/2-z
1/2+y,1/2+x,-z
-y,-x,-z
-x,-y,-z
1/2+y,-x,1/2-z
1/2+x,1/2+y,-z
-y,1/2+x,1/2-z
1/2-x,y,1/2+z
x,1/2-y,1/2+z
1/2-y,1/2-x,z
y,x,z
loop_
_atom_site_type_symbol
_atom_site_label
_atom_site_fract_x
_atom_site_fract_y
_atom_site_fract_z
Si Si1 0.807186 0.103536 0.906479
Si Si2 0.094997 0.510668 0.684843
Si Si3 0.511986 0.097099 0.203130
Si Si4 0.755761 0.140967 0.267997
Si Si5 0.121186 0.917105 0.417907
Si Si6 0.549642 0.654901 0.668566
Si Si7 0.503092 0.289532 0.807336
Si Si8 0.407119 0.776821 0.567863
O O1 0.856120 0.049685 0.868860
O O2 0.748782 0.121267 0.851320
O O3 0.845828 0.173567 0.917483
O O4 0.781027 0.078285 0.982828
O O5 0.052047 0.564631 0.729434
O O6 0.133280 0.474671 0.750988
O O7 0.043594 0.456407 0.651956
O O8 0.565585 0.109485 0.139388
O O9 0.481229 0.160778 0.243977
O O10 0.456399 0.043602 0.179083
O O11 0.688869 0.182503 0.249689
O O12 0.758322 0.072104 0.224873
O O13 0.095076 0.904925 0.500000
O O14 0.198774 0.892450 0.414792
O O15 0.130710 0.993747 0.389351
O O16 0.617647 0.617647 0.652447
O O17 0.550461 0.733923 0.673468
O O18 0.532546 0.309393 0.885765
#
# Coordination Sequence:
#
# PCOD9570892 Si02
#       8
#    16  16  16  16  16  16  16  16
#     4  11  20  36  47  72 112 145 190 232 270 327
#     4   9  16  31  54  76 100 134 181 230 274 324
#     4  10  21  36  59  82 101 138 190 238 287 339
#     4  11  22  31  51  72  99 147 190 217 263 326
#     4  10  22  35  52  76 111 147 188 231 275 321
#     4   9  19  33  54  80 102 136 182 226 279 333
#     4  11  20  36  56  75 107 142 180 233 276 333
#     4  10  23  33  48  73 108 149 180 224 273 320
#
# _framework density 17.266575
#
# number of rings (size 3 to 8) (size 9 to 14) (size 15 to 20)
#    0.000    1.875    3.750    1.125    5.250    1.000 
#    0.000    2.500    0.000    0.375    0.000    0.000 
#    0.000    0.000    0.000    2.750    0.000    0.000 
#
# Total GULP energy -712946.769264 kJ/mol
# GULP energy per Si atom -5569.896635 kJ/mol
# Density = 1.722728 g / cm^3
# Si number density = 17.266575 Si / 1000 Ang^3
#
#
#
# Elastic Constant Matrix: (Units=GPa)
#
#
# Indices 1 2 3 4 5 6 
#
# 1 51.6046 36.7325 26.3956 0.0000 0.0000 0.0000
# 2 36.7325 51.6047 26.3959 0.0000 0.0000 0.0000
# 3 26.3956 26.3959 108.0404 0.0000 0.0000 0.0000
# 4 0.0000 0.0000 0.0000 17.8804 0.0000 0.0000
# 5 0.0000 0.0000 0.0000 0.0000 17.8807 0.0000
# 6 0.0000 0.0000 0.0000 0.0000 0.0000 23.2516
#
#
#
# Elastic Compliance Matrix: (Units=1/GPa)
#
#
# Indices 1 2 3 4 5 6 
#
# 1 0.040248 -0.026992 -0.003238 0.000000 0.000000 0.000000
# 2 -0.026992 0.040248 -0.003239 0.000000 0.000000 0.000000
# 3 -0.003238 -0.003239 0.010838 0.000000 0.000000 0.000000
# 4 0.000000 0.000000 0.000000 0.055927 0.000000 0.000000
# 5 0.000000 0.000000 0.000000 0.000000 0.055926 0.000000
# 6 0.000000 0.000000 0.000000 0.000000 0.000000 0.043008
#
#
# Mechanical properties :
#
#
# Convention : Reuss Voigt Hill
#
# Bulk Modulus (GPa) = 40.99131 43.36639 42.17885
# Shear Modulus (GPa) = 15.56348 19.91758 17.74053
#
# Velocity S-wave (km/s) = 3.00553 3.40006 3.20886
# Velocity P-wave (km/s) = 5.98633 6.37057 6.18143
#
# Compressibility (1/GPa) = 0.02439542
#
# Stress axis : x y z
#
# Youngs Moduli (GPa) = 24.84615 24.84612 92.26594
#
# Poissons Ratio (x) = 0.67065 0.29880
# Poissons Ratio (y) = 0.67065 0.29882
# Poissons Ratio (z) = 0.08046 0.08047
#
# Static dielectric constant tensor:
#      x y z
#    x 1.622250 0.000000 0.000000 
#    y 0.000000 1.622250 0.000000 
#    z 0.000000 0.000000 1.639580 
# 
# From -- ./inp_files/5457.got.cif
#   From: 2010.05.17/outbox.cif.g08.bks.cpg/sg138_3_cif.got.tgz:5457.got - 2010.05.20 13:08:53.
