data_PCOD9570223
_publ_section_title
;
Structure prediction by ZEFSAII (Michael W. Deem and Ramdas Pophale) SiO2 
 PCOD9570223
Probable space group: P 42/N M C
;
_chemical_formula_sum "Si O2"
_cell_formula_units_Z 80
_cell_length_a 11.725457
_cell_length_b 11.725457
_cell_length_c 32.566362
_cell_angle_alpha 90.000000
_cell_angle_beta 90.000000
_cell_angle_gamma 90.000000
_cell_volume 4477.429979
_symmetry_space_group_name_H-M "P 42/N M C"
_symmetry_group_IT_number 137
_space_group.IT_coordinate_system_code '2'
_symmetry_cell_setting 'tetragonal'
loop_
_space_group_symop_operation_xyz
x,y,z
1/2-y,x,1/2+z
1/2-x,1/2-y,z
y,1/2-x,1/2+z
1/2+x,-y,-z
-x,1/2+y,-z
1/2+y,1/2+x,1/2-z
-y,-x,1/2-z
-x,-y,-z
1/2+y,-x,1/2-z
1/2+x,1/2+y,-z
-y,1/2+x,1/2-z
1/2-x,y,z
x,1/2-y,z
1/2-y,1/2-x,1/2+z
y,x,1/2+z
loop_
_atom_site_type_symbol
_atom_site_label
_atom_site_fract_x
_atom_site_fract_y
_atom_site_fract_z
Si Si1 0.750000 0.617375 0.675102
Si Si2 0.041296 0.957928 0.068380
Si Si3 0.619285 0.998437 0.214000
Si Si4 0.375582 0.375281 0.501887
Si Si5 0.615263 0.115038 0.126216
Si Si6 0.880338 0.250000 0.878139
O O1 0.750000 0.750000 0.656485
O O2 0.633946 0.611321 0.701265
O O3 0.750000 0.500952 0.647689
O O4 0.107635 0.863835 0.094408
O O5 0.116126 0.037614 0.039231
O O6 0.963266 0.037677 0.097246
O O7 0.961745 0.896893 0.034792
O O8 0.750000 0.021418 0.227167
O O9 0.535344 0.035344 0.250000
O O10 0.598034 0.071917 0.172832
O O11 0.250000 0.395291 0.519096
O O12 0.382144 0.250000 0.483430
O O13 0.750000 0.097529 0.116625
O O14 0.591263 0.250000 0.122371
O O15 0.750000 0.250000 0.859602
#
# Coordination Sequence:
#
# PCOD9570223 Si02
#       6
#     8  16  16  16  16   8
#     4  10  22  42  66  90 120 166 210 250 296 372
#     4  11  21  37  56  82 116 157 194 247 301 362
#     4  10  20  37  61  89 121 156 197 245 300 358
#     4  10  21  36  56  80 109 150 199 247 297 358
#     4  10  20  34  57  88 118 152 199 253 305 357
#     4  12  24  40  62  90 122 162 206 254 308 362
#
# _framework density 17.867391999999999
#
# number of rings (size 3 to 8) (size 9 to 14) (size 15 to 20)
#    0.000    1.600    3.000    2.400    0.000    1.800 
#    1.800    0.000    0.000    0.000    0.000    0.000 
#    0.000    0.000    0.000    0.000    0.000    0.000 
#
# Total GULP energy -445863.444447 kJ/mol
# GULP energy per Si atom -5573.293056 kJ/mol
# Density = 1.782672 g / cm^3
# Si number density = 17.867392 Si / 1000 Ang^3
#
#
#
# Elastic Constant Matrix: (Units=GPa)
#
#
# Indices 1 2 3 4 5 6 
#
# 1 96.2997 39.9088 25.8678 0.0000 0.0000 0.0000
# 2 39.9088 96.2997 25.8678 0.0000 0.0000 0.0000
# 3 25.8678 25.8678 41.5259 0.0000 0.0000 0.0000
# 4 0.0000 0.0000 0.0000 39.8181 0.0000 0.0000
# 5 0.0000 0.0000 0.0000 0.0000 39.8181 0.0000
# 6 0.0000 0.0000 0.0000 0.0000 0.0000 50.8253
#
#
#
# Elastic Compliance Matrix: (Units=1/GPa)
#
#
# Indices 1 2 3 4 5 6 
#
# 1 0.013675 -0.004058 -0.005991 0.000000 0.000000 0.000000
# 2 -0.004058 0.013675 -0.005991 0.000000 0.000000 0.000000
# 3 -0.005991 -0.005991 0.031545 0.000000 0.000000 0.000000
# 4 0.000000 0.000000 0.000000 0.025114 0.000000 0.000000
# 5 0.000000 0.000000 0.000000 0.000000 0.025114 0.000000
# 6 0.000000 0.000000 0.000000 0.000000 0.000000 0.019675
#
#
# Mechanical properties :
#
#
# Convention : Reuss Voigt Hill
#
# Bulk Modulus (GPa) = 37.29102 46.37933 41.83517
# Shear Modulus (GPa) = 29.44337 35.59102 32.51720
#
# Velocity S-wave (km/s) = 4.06382 4.46797 4.27068
# Velocity P-wave (km/s) = 6.55254 7.25472 6.91255
#
# Compressibility (1/GPa) = 0.02681611
#
# Stress axis : x y z
#
# Youngs Moduli (GPa) = 73.12479 73.12479 31.70064
#
# Poissons Ratio (x) = 0.29675 0.18991
# Poissons Ratio (y) = 0.29675 0.18991
# Poissons Ratio (z) = 0.43808 0.43808
#
# Static dielectric constant tensor:
#      x y z
#    x 1.624510 0.000000 0.000000 
#    y 0.000000 1.624510 0.000000 
#    z 0.000000 0.000000 1.580810 
# 
# From -- ./inp_files/10338.got.cif
#   From: 2010.05.17/outbox.cif.g08.bks.cpg/sg137_6_cif.got.tgz:10338.got - 2010.05.20 13:01:12.
