data_PCOD9570405
_publ_section_title
;
Structure prediction by ZEFSAII (Michael W. Deem and Ramdas Pophale) SiO2 
 PCOD9570405
Probable space group: P 42/N M C
;
_chemical_formula_sum "Si O2"
_cell_formula_units_Z 96
_cell_length_a 14.282636
_cell_length_b 14.282636
_cell_length_c 24.704212
_cell_angle_alpha 90.000000
_cell_angle_beta 90.000000
_cell_angle_gamma 90.000000
_cell_volume 5039.503392
_symmetry_space_group_name_H-M "P 42/N M C"
_symmetry_group_IT_number 137
_space_group.IT_coordinate_system_code '2'
_symmetry_cell_setting 'tetragonal'
loop_
_space_group_symop_operation_xyz
x,y,z
1/2-y,x,1/2+z
1/2-x,1/2-y,z
y,1/2-x,1/2+z
1/2+x,-y,-z
-x,1/2+y,-z
1/2+y,1/2+x,1/2-z
-y,-x,1/2-z
-x,-y,-z
1/2+y,-x,1/2-z
1/2+x,1/2+y,-z
-y,1/2+x,1/2-z
1/2-x,y,z
x,1/2-y,z
1/2-y,1/2-x,1/2+z
y,x,1/2+z
loop_
_atom_site_type_symbol
_atom_site_label
_atom_site_fract_x
_atom_site_fract_y
_atom_site_fract_z
Si Si1 0.139493 0.463977 0.459097
Si Si2 0.993888 0.142457 0.386613
Si Si3 0.361360 0.475028 0.585565
Si Si4 0.958731 0.640206 0.323265
Si Si5 0.641347 0.358392 0.884916
Si Si6 0.858730 0.993883 0.239633
O O1 0.250000 0.442813 0.453689
O O2 0.076156 0.392806 0.425597
O O3 0.115415 0.462508 0.522347
O O4 0.124434 0.566849 0.432681
O O5 0.968836 0.250000 0.397348
O O6 0.025524 0.134732 0.324224
O O7 0.908214 0.071565 0.395122
O O8 0.250000 0.477581 0.591355
O O9 0.404346 0.394054 0.622937
O O10 0.945359 0.750000 0.313741
O O11 0.918324 0.579060 0.274639
O O12 0.067690 0.622120 0.337281
O O13 0.750000 0.372401 0.901872
O O14 0.631231 0.250000 0.868024
O O15 0.750000 0.990879 0.255884
O O16 0.905077 0.094924 0.250000
#
# Coordination Sequence:
#
# PCOD9570405 Si02
#       6
#    16  16  16  16  16  16
#     4  10  21  39  62  89 125 162 200 252 308 365
#     4  11  24  40  62  89 121 162 207 252 305 364
#     4  11  23  40  62  90 125 161 204 254 307 366
#     4  11  23  40  65  92 123 163 206 257 312 367
#     4   9  18  35  62  94 125 161 205 250 304 368
#     4  11  23  41  63  88 121 161 208 257 308 363
#
# _framework density 19.049495
#
# number of rings (size 3 to 8) (size 9 to 14) (size 15 to 20)
#    0.000    1.500    3.333    1.000    0.000    4.167 
#    0.000    7.500    0.000    0.000    0.000    4.667 
#    0.000    0.000    0.000    0.000    0.000    0.000 
#
# Total GULP energy -536357.906802 kJ/mol
# GULP energy per Si atom -5587.061529 kJ/mol
# Density = 1.900614 g / cm^3
# Si number density = 19.049495 Si / 1000 Ang^3
#
#
#
# Elastic Constant Matrix: (Units=GPa)
#
#
# Indices 1 2 3 4 5 6 
#
# 1 68.2358 24.9159 31.1815 0.0000 0.0000 0.0000
# 2 24.9159 68.2316 31.1812 0.0000 0.0000 0.0000
# 3 31.1815 31.1812 82.9384 0.0000 0.0000 0.0000
# 4 0.0000 0.0000 0.0000 16.4075 0.0000 0.0000
# 5 0.0000 0.0000 0.0000 0.0000 16.4073 0.0000
# 6 0.0000 0.0000 0.0000 0.0000 0.0000 6.2758
#
#
#
# Elastic Compliance Matrix: (Units=1/GPa)
#
#
# Indices 1 2 3 4 5 6 
#
# 1 0.018715 -0.004369 -0.005393 0.000000 0.000000 0.000000
# 2 -0.004369 0.018716 -0.005394 0.000000 0.000000 0.000000
# 3 -0.005393 -0.005394 0.016113 0.000000 0.000000 0.000000
# 4 0.000000 0.000000 0.000000 0.060948 0.000000 0.000000
# 5 0.000000 0.000000 0.000000 0.000000 0.060949 0.000000
# 6 0.000000 0.000000 0.000000 0.000000 0.000000 0.159343
#
#
# Mechanical properties :
#
#
# Convention : Reuss Voigt Hill
#
# Bulk Modulus (GPa) = 43.04604 43.77367 43.40985
# Shear Modulus (GPa) = 13.41057 16.62661 15.01859
#
# Velocity S-wave (km/s) = 2.65615 2.95754 2.81089
# Velocity P-wave (km/s) = 5.66152 5.88995 5.77687
#
# Compressibility (1/GPa) = 0.02323094
#
# Stress axis : x y z
#
# Youngs Moduli (GPa) = 53.43271 53.42896 62.06289
#
# Poissons Ratio (x) = 0.23345 0.33473
# Poissons Ratio (y) = 0.23347 0.33476
# Poissons Ratio (z) = 0.28819 0.28819
#
# Static dielectric constant tensor:
#      x y z
#    x 1.657080 0.000000 0.000000 
#    y 0.000000 1.657080 0.000000 
#    z 0.000000 0.000000 1.652220 
# 
# From -- ./inp_files/7822.got.cif
#   From: 2010.05.17/outbox.cif.g08.bks.cpg/sg137_4_cif.got.tgz:7822.got - 2010.05.20 13:01:12.
