data_PCOD9570547
_publ_section_title
;
Structure prediction by ZEFSAII (Michael W. Deem and Ramdas Pophale) SiO2 
 PCOD9570547
Probable space group: P 42/N M C
;
_chemical_formula_sum "Si O2"
_cell_formula_units_Z 112
_cell_length_a 15.000000
_cell_length_b 15.000000
_cell_length_c 24.000000
_cell_angle_alpha 90.000000
_cell_angle_beta 90.000000
_cell_angle_gamma 90.000000
_cell_volume 5400.000000
_symmetry_space_group_name_H-M "P 42/N M C"
_symmetry_group_IT_number 137
_space_group.IT_coordinate_system_code '2'
_symmetry_cell_setting 'tetragonal'
loop_
_space_group_symop_operation_xyz
x,y,z
1/2-y,x,1/2+z
1/2-x,1/2-y,z
y,1/2-x,1/2+z
1/2+x,-y,-z
-x,1/2+y,-z
1/2+y,1/2+x,1/2-z
-y,-x,1/2-z
-x,-y,-z
1/2+y,-x,1/2-z
1/2+x,1/2+y,-z
-y,1/2+x,1/2-z
1/2-x,y,z
x,1/2-y,z
1/2-y,1/2-x,1/2+z
y,x,1/2+z
loop_
_atom_site_type_symbol
_atom_site_label
_atom_site_fract_x
_atom_site_fract_y
_atom_site_fract_z
Si Si1 0.943498 0.996365 0.839233
Si Si2 0.605021 0.651525 0.523331
Si Si3 0.905207 0.853143 0.147084
Si Si4 0.646695 0.347026 0.886450
Si Si5 0.107785 0.646934 0.508772
Si Si6 0.479243 0.153908 0.071457
Si Si7 0.353088 0.150232 0.230475
O O1 0.951702 0.929112 0.890950
O O2 0.918370 0.928649 0.789915
O O3 0.866695 0.069025 0.847234
O O4 0.025298 0.066041 0.842220
O O5 0.633560 0.750000 0.504801
O O6 0.626945 0.639757 0.588102
O O7 0.498872 0.644527 0.514166
O O8 0.647904 0.576801 0.485201
O O9 0.937827 0.750000 0.143519
O O10 0.847617 0.854771 0.202761
O O11 0.750000 0.342823 0.898029
O O12 0.620604 0.250000 0.864293
O O13 0.607828 0.365311 0.948060
O O14 0.135891 0.750000 0.514833
O O15 0.145890 0.582490 0.555390
O O16 0.462326 0.250000 0.097668
O O17 0.250000 0.130393 0.213285
O O18 0.375239 0.250000 0.210581
#
# Coordination Sequence:
#
# PCOD9570547 Si02
#       7
#    16  16  16  16  16  16  16
#     4  12  22  39  59  89 124 160 200 255 306 376
#     4  11  22  39  62  91 127 166 207 257 312 365
#     4  11  23  40  64  89 119 160 206 258 313 370
#     4  10  20  34  56  85 121 167 209 246 298 362
#     4  10  20  38  59  82 119 166 208 251 301 357
#     4  12  24  37  58  89 126 165 202 248 307 371
#     4  10  23  43  65  88 116 157 207 260 319 377
#
# _framework density 20.740741
#
# number of rings (size 3 to 8) (size 9 to 14) (size 15 to 20)
#    0.000    1.143    2.857    4.286    0.000    3.143 
#    0.000    0.000    0.000    0.000    0.000    6.000 
#    0.000    2.286    0.000    0.000    0.000    0.000 
#
# Total GULP energy -624223.992336 kJ/mol
# GULP energy per Si atom -5573.428503 kJ/mol
# Density = 2.069353 g / cm^3
# Si number density = 20.740741 Si / 1000 Ang^3
#
#
#
# Elastic Constant Matrix: (Units=GPa)
#
#
# Indices 1 2 3 4 5 6 
#
# 1 125.8519 35.3507 17.3819 0.0000 0.0000 0.0000
# 2 35.3507 125.8519 17.3819 0.0000 0.0000 0.0000
# 3 17.3819 17.3819 39.9403 0.0000 0.0000 0.0000
# 4 0.0000 0.0000 0.0000 14.8811 0.0000 0.0000
# 5 0.0000 0.0000 0.0000 0.0000 14.8811 0.0000
# 6 0.0000 0.0000 0.0000 0.0000 0.0000 2.2842
#
#
#
# Elastic Compliance Matrix: (Units=1/GPa)
#
#
# Indices 1 2 3 4 5 6 
#
# 1 0.008948 -0.002102 -0.002979 0.000000 0.000000 0.000000
# 2 -0.002102 0.008948 -0.002979 0.000000 0.000000 0.000000
# 3 -0.002979 -0.002979 0.027631 0.000000 0.000000 0.000000
# 4 0.000000 0.000000 0.000000 0.067200 0.000000 0.000000
# 5 0.000000 0.000000 0.000000 0.000000 0.067200 0.000000
# 6 0.000000 0.000000 0.000000 0.000000 0.000000 0.437799
#
#
# Mechanical properties :
#
#
# Convention : Reuss Voigt Hill
#
# Bulk Modulus (GPa) = 34.00776 47.98590 40.99683
# Shear Modulus (GPa) = 7.76824 21.17789 14.47307
#
# Velocity S-wave (km/s) = 1.93740 3.19890 2.64447
# Velocity P-wave (km/s) = 4.63000 6.06879 5.39755
#
# Compressibility (1/GPa) = 0.02940505
#
# Stress axis : x y z
#
# Youngs Moduli (GPa) = 111.76029 111.76029 36.19186
#
# Poissons Ratio (x) = 0.23490 0.10783
# Poissons Ratio (y) = 0.23490 0.10783
# Poissons Ratio (z) = 0.33297 0.33297
#
# Static dielectric constant tensor:
#      x y z
#    x 1.783430 0.000000 0.000000 
#    y 0.000000 1.783430 0.000000 
#    z 0.000000 0.000000 1.753750 
# 
# From -- ./inp_files/9003.got.cif
#   From: 2010.05.17/outbox.ucp.g08.bks.cvg/sg137_5_cif.got.tgz:9003.got - 2010.06.11 11:41:14.
