data_PCOD9570862
_publ_section_title
;
Structure prediction by ZEFSAII (Michael W. Deem and Ramdas Pophale) SiO2 
 PCOD9570862
Probable space group: P 42/N C M
;
_chemical_formula_sum "Si O2"
_cell_formula_units_Z 88
_cell_length_a 11.951361
_cell_length_b 11.951361
_cell_length_c 27.431323
_cell_angle_alpha 90.000000
_cell_angle_beta 90.000000
_cell_angle_gamma 90.000000
_cell_volume 3918.153837
_symmetry_space_group_name_H-M "P 42/N C M"
_symmetry_group_IT_number 138
_space_group.IT_coordinate_system_code '2'
_symmetry_cell_setting 'tetragonal'
loop_
_space_group_symop_operation_xyz
x,y,z
1/2-y,x,1/2+z
1/2-x,1/2-y,z
y,1/2-x,1/2+z
1/2+x,-y,1/2-z
-x,1/2+y,1/2-z
1/2+y,1/2+x,-z
-y,-x,-z
-x,-y,-z
1/2+y,-x,1/2-z
1/2+x,1/2+y,-z
-y,1/2+x,1/2-z
1/2-x,y,1/2+z
x,1/2-y,1/2+z
1/2-y,1/2-x,z
y,x,z
loop_
_atom_site_type_symbol
_atom_site_label
_atom_site_fract_x
_atom_site_fract_y
_atom_site_fract_z
Si Si1 0.664172 0.835829 0.612564
Si Si2 0.572355 0.243919 0.018815
Si Si3 0.454389 0.221585 0.797178
Si Si4 0.000767 0.499234 0.596288
Si Si5 0.842037 0.842037 0.973576
Si Si6 0.211853 0.878885 0.129017
Si Si7 0.640353 0.470412 0.291093
O O1 0.750000 0.750000 0.587828
O O2 0.586347 0.764550 0.650154
O O3 0.589175 0.910826 0.577046
O O4 0.444495 0.267750 0.004528
O O5 0.581761 0.237719 0.077388
O O6 0.631952 0.131952 0.000000
O O7 0.652589 0.347412 0.000000
O O8 0.346134 0.153867 0.776624
O O9 0.498669 0.320375 0.763000
O O10 0.553943 0.131570 0.796566
O O11 0.079122 0.420879 0.562668
O O12 0.084726 0.580502 0.624735
O O13 0.750000 0.750000 0.955540
O O14 0.250000 0.750000 0.133249
O O15 0.255527 0.940114 0.176445
O O16 0.577888 0.577888 0.311962
#
# Coordination Sequence:
#
# PCOD9570862 Si02
#       7
#     8  16  16   8   8  16  16
#     4  10  20  42  65  89 127 177 228 281 332 379
#     4  10  20  43  73  98 130 180 225 280 345 407
#     4  10  23  40  61  88 124 172 224 277 321 389
#     4  10  24  39  67  98 137 179 219 277 339 396
#     4  10  23  41  68 109 148 182 226 278 337 423
#     4  11  23  40  64  99 129 165 221 270 337 402
#     4  11  25  39  58  88 127 167 218 269 327 391
#
# _framework density 22.459558000000001
#
# number of rings (size 3 to 8) (size 9 to 14) (size 15 to 20)
#    0.000    1.636    2.727    1.364    6.364    3.273 
#    0.000    0.000    0.000    8.727    0.000    0.000 
#    0.000    0.000    0.000    0.000    0.000    0.000 
#
# Total GULP energy -490528.950366 kJ/mol
# GULP energy per Si atom -5574.192618 kJ/mol
# Density = 2.240844 g / cm^3
# Si number density = 22.459558 Si / 1000 Ang^3
#
#
#
# Elastic Constant Matrix: (Units=GPa)
#
#
# Indices 1 2 3 4 5 6 
#
# 1 132.6362 62.5894 9.5232 0.0000 0.0000 0.0000
# 2 62.5894 132.6363 9.5229 0.0000 0.0000 0.0000
# 3 9.5232 9.5229 38.7161 0.0000 0.0000 0.0000
# 4 0.0000 0.0000 0.0000 6.7864 0.0000 0.0000
# 5 0.0000 0.0000 0.0000 0.0000 6.7869 0.0000
# 6 0.0000 0.0000 0.0000 0.0000 0.0000 36.0337
#
#
#
# Elastic Compliance Matrix: (Units=1/GPa)
#
#
# Indices 1 2 3 4 5 6 
#
# 1 0.009762 -0.004514 -0.001291 0.000000 0.000000 0.000000
# 2 -0.004514 0.009762 -0.001291 0.000000 0.000000 0.000000
# 3 -0.001291 -0.001291 0.026464 0.000000 0.000000 0.000000
# 4 0.000000 0.000000 0.000000 0.147353 0.000000 0.000000
# 5 0.000000 0.000000 0.000000 0.000000 0.147342 0.000000
# 6 0.000000 0.000000 0.000000 0.000000 0.000000 0.027752
#
#
# Mechanical properties :
#
#
# Convention : Reuss Voigt Hill
#
# Bulk Modulus (GPa) = 31.44962 51.91775 41.68368
# Shear Modulus (GPa) = 12.71534 24.74494 18.73014
#
# Velocity S-wave (km/s) = 2.38196 3.32287 2.89095
# Velocity P-wave (km/s) = 4.64738 6.15534 5.45373
#
# Compressibility (1/GPa) = 0.03179689
#
# Stress axis : x y z
#
# Youngs Moduli (GPa) = 102.43594 102.43608 37.78701
#
# Poissons Ratio (x) = 0.46239 0.04878
# Poissons Ratio (y) = 0.46239 0.04878
# Poissons Ratio (z) = 0.13224 0.13223
#
# Static dielectric constant tensor:
#      x y z
#    x 1.873210 0.000000 0.000000 
#    y 0.000000 1.873210 0.000000 
#    z 0.000000 0.000000 1.830870 
# 
# From -- ./inp_files/8138.got.cif
#   From: 2010.05.17/outbox.cif.g08.bks.cpg/sg138_5_cif.got.tgz:8138.got - 2010.05.20 13:08:53.
