data_PCOD9570378
_publ_section_title
;
Structure prediction by ZEFSAII (Michael W. Deem and Ramdas Pophale) SiO2 
 PCOD9570378
Probable space group: P 42/N M C
;
_chemical_formula_sum "Si O2"
_cell_formula_units_Z 112
_cell_length_a 16.439529
_cell_length_b 16.439529
_cell_length_c 19.801411
_cell_angle_alpha 90.000000
_cell_angle_beta 90.000000
_cell_angle_gamma 90.000000
_cell_volume 5351.491986
_symmetry_space_group_name_H-M "P 42/N M C"
_symmetry_group_IT_number 137
_space_group.IT_coordinate_system_code '2'
_symmetry_cell_setting 'tetragonal'
loop_
_space_group_symop_operation_xyz
x,y,z
1/2-y,x,1/2+z
1/2-x,1/2-y,z
y,1/2-x,1/2+z
1/2+x,-y,-z
-x,1/2+y,-z
1/2+y,1/2+x,1/2-z
-y,-x,1/2-z
-x,-y,-z
1/2+y,-x,1/2-z
1/2+x,1/2+y,-z
-y,1/2+x,1/2-z
1/2-x,y,z
x,1/2-y,z
1/2-y,1/2-x,1/2+z
y,x,1/2+z
loop_
_atom_site_type_symbol
_atom_site_label
_atom_site_fract_x
_atom_site_fract_y
_atom_site_fract_z
Si Si1 0.848698 0.341500 0.065995
Si Si2 0.096245 0.842818 0.417336
Si Si3 0.935009 0.574430 0.255911
Si Si4 0.508107 0.842640 0.134200
Si Si5 0.937970 0.345023 0.308068
Si Si6 0.842297 0.906106 0.895394
Si Si7 0.156538 0.154090 0.957918
O O1 0.750000 0.340019 0.069334
O O2 0.877828 0.250000 0.080987
O O3 0.879510 0.406489 0.120551
O O4 0.866239 0.366935 0.989808
O O5 0.124060 0.750000 0.399259
O O6 0.999268 0.839472 0.420481
O O7 0.117395 0.919131 0.370503
O O8 0.962404 0.650352 0.211253
O O9 0.865130 0.528608 0.214455
O O10 0.907140 0.599144 0.330479
O O11 0.008876 0.508876 0.250000
O O12 0.496800 0.750000 0.113119
O O13 0.580626 0.878372 0.086612
O O14 0.881464 0.381464 0.250000
O O15 0.926810 0.250000 0.310351
O O16 0.750000 0.882352 0.874909
O O17 0.863706 0.856342 0.962677
O O18 0.250000 0.120342 0.947449
O O19 0.161708 0.250000 0.942165
#
# Coordination Sequence:
#
# PCOD9570378 Si02
#       7
#    16  16  16  16  16  16  16
#     4   9  18  34  56  85 122 158 195 245 304 370
#     4  10  21  37  62  93 120 156 204 255 316 381
#     4  11  23  40  56  85 123 161 206 253 300 371
#     4  11  23  39  64  90 122 163 202 258 319 370
#     4  10  22  37  58  86 121 163 203 249 304 372
#     4  10  21  40  65  87 120 166 207 258 318 371
#     4   9  21  41  63  91 123 160 210 260 310 375
#
# _framework density 20.928742
#
# number of rings (size 3 to 8) (size 9 to 14) (size 15 to 20)
#    0.000    2.000    1.429    1.286    2.000    5.571 
#    0.000    1.429    0.000    4.286    0.000    0.000 
#    0.000    0.000    0.000    0.000    0.000    0.000 
#
# Total GULP energy -624259.693077 kJ/mol
# GULP energy per Si atom -5573.747260 kJ/mol
# Density = 2.088111 g / cm^3
# Si number density = 20.928742 Si / 1000 Ang^3
#
#
#
# Elastic Constant Matrix: (Units=GPa)
#
#
# Indices 1 2 3 4 5 6 
#
# 1 25.2347 22.7592 2.2994 0.0000 0.0000 0.0000
# 2 22.7592 25.2347 2.2994 0.0000 0.0000 0.0000
# 3 2.2994 2.2994 41.6057 0.0000 0.0000 0.0000
# 4 0.0000 0.0000 0.0000 24.9277 0.0000 0.0000
# 5 0.0000 0.0000 0.0000 0.0000 24.9277 0.0000
# 6 0.0000 0.0000 0.0000 0.0000 0.0000 20.1656
#
#
#
# Elastic Compliance Matrix: (Units=1/GPa)
#
#
# Indices 1 2 3 4 5 6 
#
# 1 0.212459 -0.191512 -0.001158 0.000000 0.000000 0.000000
# 2 -0.191512 0.212459 -0.001158 0.000000 0.000000 0.000000
# 3 -0.001158 -0.001158 0.024163 0.000000 0.000000 0.000000
# 4 0.000000 0.000000 0.000000 0.040116 0.000000 0.000000
# 5 0.000000 0.000000 0.000000 0.000000 0.040116 0.000000
# 6 0.000000 0.000000 0.000000 0.000000 0.000000 0.049589
#
#
# Mechanical properties :
#
#
# Convention : Reuss Voigt Hill
#
# Bulk Modulus (GPa) = 16.27965 16.31010 16.29488
# Shear Modulus (GPa) = 5.06568 18.31867 11.69218
#
# Velocity S-wave (km/s) = 1.55747 2.96174 2.36618
# Velocity P-wave (km/s) = 3.32111 4.41655 3.90741
#
# Compressibility (1/GPa) = 0.06142637
#
# Stress axis : x y z
#
# Youngs Moduli (GPa) = 4.70679 4.70679 41.38538
#
# Poissons Ratio (x) = 0.90141 0.04791
# Poissons Ratio (y) = 0.90141 0.04791
# Poissons Ratio (z) = 0.00545 0.00545
#
# Static dielectric constant tensor:
#      x y z
#    x 1.815550 0.000000 0.000000 
#    y 0.000000 1.815550 0.000000 
#    z 0.000000 0.000000 1.784220 
# 
# From -- ./inp_files/8091.got.cif
#   From: 2010.05.17/outbox.cif.g08.bks.cpg/sg137_5_cif.got.tgz:8091.got - 2010.05.20 13:01:12.
