data_PCOD9570334
_publ_section_title
;
Structure prediction by ZEFSAII (Michael W. Deem and Ramdas Pophale) SiO2 
 PCOD9570334
Probable space group: P 42/N M C
;
_chemical_formula_sum "Si O2"
_cell_formula_units_Z 112
_cell_length_a 15.502993
_cell_length_b 15.502993
_cell_length_c 24.479200
_cell_angle_alpha 90.000000
_cell_angle_beta 90.000000
_cell_angle_gamma 90.000000
_cell_volume 5883.399273
_symmetry_space_group_name_H-M "P 42/N M C"
_symmetry_group_IT_number 137
_space_group.IT_coordinate_system_code '2'
_symmetry_cell_setting 'tetragonal'
loop_
_space_group_symop_operation_xyz
x,y,z
1/2-y,x,1/2+z
1/2-x,1/2-y,z
y,1/2-x,1/2+z
1/2+x,-y,-z
-x,1/2+y,-z
1/2+y,1/2+x,1/2-z
-y,-x,1/2-z
-x,-y,-z
1/2+y,-x,1/2-z
1/2+x,1/2+y,-z
-y,1/2+x,1/2-z
1/2-x,y,z
x,1/2-y,z
1/2-y,1/2-x,1/2+z
y,x,1/2+z
loop_
_atom_site_type_symbol
_atom_site_label
_atom_site_fract_x
_atom_site_fract_y
_atom_site_fract_z
Si Si1 0.850455 0.648445 0.707870
Si Si2 0.344657 0.853758 0.583535
Si Si3 0.157436 0.538162 0.471912
Si Si4 0.651650 0.472558 0.908341
Si Si5 0.982883 0.650087 0.618066
Si Si6 0.850859 0.016794 0.778625
Si Si7 0.653410 0.892529 0.002856
O O1 0.750000 0.644126 0.691765
O O2 0.866770 0.750000 0.721463
O O3 0.908399 0.616809 0.657001
O O4 0.865409 0.579924 0.755757
O O5 0.250000 0.866962 0.607402
O O6 0.354765 0.750000 0.573926
O O7 0.348973 0.904345 0.526596
O O8 0.421813 0.887414 0.621277
O O9 0.250000 0.555136 0.445579
O O10 0.084494 0.574195 0.432338
O O11 0.154237 0.437711 0.488589
O O12 0.750000 0.436163 0.917103
O O13 0.639660 0.483950 0.844037
O O14 0.650136 0.558629 0.945177
O O15 0.989797 0.750000 0.634244
O O16 0.957988 0.649703 0.554346
O O17 0.915812 0.084188 0.750000
O O18 0.750000 0.038896 0.766506
O O19 0.750000 0.851463 0.007171
#
# Coordination Sequence:
#
# PCOD9570334 Si02
#       7
#    16  16  16  16  16  16  16
#     4   9  19  37  61  87 112 143 193 245 286 338
#     4   9  17  30  49  80 119 152 186 224 271 340
#     4  11  22  33  53  83 114 151 187 226 281 345
#     4  10  21  39  59  81 111 149 192 237 285 341
#     4   9  17  31  55  83 111 146 180 229 291 336
#     4  10  23  40  60  85 114 155 201 242 288 335
#     4  10  21  36  54  80 114 147 182 226 284 348
#
# _framework density 19.036614
#
# number of rings (size 3 to 8) (size 9 to 14) (size 15 to 20)
#    0.000    2.286    1.429    0.857    2.000    2.429 
#    0.000    3.571    0.000    3.429    0.000    0.000 
#    0.000    0.000    0.000   11.857    0.000    0.000 
#
# Total GULP energy -623546.531444 kJ/mol
# GULP energy per Si atom -5567.379745 kJ/mol
# Density = 1.899329 g / cm^3
# Si number density = 19.036614 Si / 1000 Ang^3
#
#
#
# Elastic Constant Matrix: (Units=GPa)
#
#
# Indices 1 2 3 4 5 6 
#
# 1 94.9500 51.2884 41.6286 0.0000 0.0000 0.0000
# 2 51.2884 94.9488 41.6290 0.0000 0.0000 0.0000
# 3 41.6286 41.6290 78.2302 0.0000 0.0000 0.0000
# 4 0.0000 0.0000 0.0000 18.3476 0.0000 0.0000
# 5 0.0000 0.0000 0.0000 0.0000 18.3476 0.0000
# 6 0.0000 0.0000 0.0000 0.0000 0.0000 16.7518
#
#
#
# Elastic Compliance Matrix: (Units=1/GPa)
#
#
# Indices 1 2 3 4 5 6 
#
# 1 0.016357 -0.006547 -0.005220 0.000000 0.000000 0.000000
# 2 -0.006547 0.016357 -0.005221 0.000000 0.000000 0.000000
# 3 -0.005220 -0.005221 0.018339 0.000000 0.000000 0.000000
# 4 0.000000 0.000000 0.000000 0.054503 0.000000 0.000000
# 5 0.000000 0.000000 0.000000 0.000000 0.054503 0.000000
# 6 0.000000 0.000000 0.000000 0.000000 0.000000 0.059695
#
#
# Mechanical properties :
#
#
# Convention : Reuss Voigt Hill
#
# Bulk Modulus (GPa) = 58.55577 59.69123 59.12350
# Shear Modulus (GPa) = 19.27369 19.59495 19.43432
#
# Velocity S-wave (km/s) = 3.18536 3.21180 3.19861
# Velocity P-wave (km/s) = 6.65996 6.72148 6.69079
#
# Compressibility (1/GPa) = 0.01707774
#
# Stress axis : x y z
#
# Youngs Moduli (GPa) = 61.13651 61.13519 54.52972
#
# Poissons Ratio (x) = 0.40024 0.28466
# Poissons Ratio (y) = 0.40024 0.28467
# Poissons Ratio (z) = 0.31915 0.31916
#
# Static dielectric constant tensor:
#      x y z
#    x 1.710740 0.000000 0.000000 
#    y 0.000000 1.710740 0.000000 
#    z 0.000000 0.000000 1.626610 
# 
# From -- ./inp_files/8991.got.cif
#   From: 2010.05.17/outbox.cif.g08.bks.cpg/sg137_5_cif.got.tgz:8991.got - 2010.05.20 13:01:12.
