data_PCOD9570704
_publ_section_title
;
Structure prediction by ZEFSAII (Michael W. Deem and Ramdas Pophale) SiO2 
 PCOD9570704
Probable space group: P 42/N C M
;
_chemical_formula_sum "Si O2"
_cell_formula_units_Z 84
_cell_length_a 12.889257
_cell_length_b 12.889257
_cell_length_c 27.288234
_cell_angle_alpha 90.000000
_cell_angle_beta 90.000000
_cell_angle_gamma 90.000000
_cell_volume 4533.474706
_symmetry_space_group_name_H-M "P 42/N C M"
_symmetry_group_IT_number 138
_space_group.IT_coordinate_system_code '2'
_symmetry_cell_setting 'tetragonal'
loop_
_space_group_symop_operation_xyz
x,y,z
1/2-y,x,1/2+z
1/2-x,1/2-y,z
y,1/2-x,1/2+z
1/2+x,-y,1/2-z
-x,1/2+y,1/2-z
1/2+y,1/2+x,-z
-y,-x,-z
-x,-y,-z
1/2+y,-x,1/2-z
1/2+x,1/2+y,-z
-y,1/2+x,1/2-z
1/2-x,y,1/2+z
x,1/2-y,1/2+z
1/2-y,1/2-x,z
y,x,z
loop_
_atom_site_type_symbol
_atom_site_label
_atom_site_fract_x
_atom_site_fract_y
_atom_site_fract_z
Si Si1 0.491933 0.008068 0.824843
Si Si2 0.699000 0.449183 0.562553
Si Si3 0.163011 0.336990 0.991770
Si Si4 0.546542 0.953459 0.923561
Si Si5 0.623912 0.133855 0.253248
Si Si6 0.170337 0.009518 0.844508
Si Si7 0.750000 0.250000 0.500000
Si Si8 0.829652 0.670349 0.158911
O O1 0.555725 0.944275 0.865015
O O2 0.424721 0.935691 0.789422
O O3 0.415559 0.084442 0.856630
O O4 0.706930 0.563058 0.537829
O O5 0.574670 0.429687 0.565003
O O6 0.759609 0.455549 0.614284
O O7 0.746824 0.354530 0.532205
O O8 0.250000 0.250000 0.997691
O O9 0.117810 0.382191 0.042671
O O10 0.612257 0.254928 0.240325
O O11 0.565562 0.121811 0.304672
O O12 0.247269 0.092193 0.817186
O O13 0.079619 0.079619 0.867556
O O14 0.750000 0.750000 0.130050
#
# Coordination Sequence:
#
# PCOD9570704 Si02
#       8
#     8  16   8   8  16  16   4   8
#     4  12  21  40  66  90 124 164 204 254 305 364
#     4  11  21  40  65  97 118 160 210 261 314 367
#     4  11  22  42  68  92 124 158 212 263 311 374
#     4  11  20  40  68  90 120 164 215 253 306 379
#     4  11  23  38  59  90 125 165 204 249 305 370
#     4  11  21  37  62  92 122 157 206 259 308 360
#     4  12  24  38  66  92 134 158 198 268 312 378
#     4  10  19  34  62  91 115 150 204 266 299 340
#
# _framework density 18.528835000000001
#
# number of rings (size 3 to 8) (size 9 to 14) (size 15 to 20)
#    0.000    0.952    6.667    1.714    0.000    3.810 
#    0.000    1.905    4.190    0.000    0.000    0.000 
#    0.000    0.000    0.000    0.000    0.000    0.000 
#
# Total GULP energy -467806.198819 kJ/mol
# GULP energy per Si atom -5569.121415 kJ/mol
# Density = 1.848666 g / cm^3
# Si number density = 18.528835 Si / 1000 Ang^3
#
#
#
# Elastic Constant Matrix: (Units=GPa)
#
#
# Indices 1 2 3 4 5 6 
#
# 1 81.6726 64.4188 50.1547 0.0000 0.0000 0.0000
# 2 64.4188 81.6726 50.1547 0.0000 0.0000 0.0000
# 3 50.1547 50.1547 100.9407 0.0000 0.0000 0.0000
# 4 0.0000 0.0000 0.0000 29.1131 0.0000 0.0000
# 5 0.0000 0.0000 0.0000 0.0000 29.1131 0.0000
# 6 0.0000 0.0000 0.0000 0.0000 0.0000 37.4526
#
#
#
# Elastic Compliance Matrix: (Units=1/GPa)
#
#
# Indices 1 2 3 4 5 6 
#
# 1 0.034174 -0.023784 -0.005162 0.000000 0.000000 0.000000
# 2 -0.023784 0.034174 -0.005162 0.000000 0.000000 0.000000
# 3 -0.005162 -0.005162 0.015037 0.000000 0.000000 0.000000
# 4 0.000000 0.000000 0.000000 0.034349 0.000000 0.000000
# 5 0.000000 0.000000 0.000000 0.000000 0.034349 0.000000
# 6 0.000000 0.000000 0.000000 0.000000 0.000000 0.026700
#
#
# Mechanical properties :
#
#
# Convention : Reuss Voigt Hill
#
# Bulk Modulus (GPa) = 65.93360 65.97137 65.95248
# Shear Modulus (GPa) = 19.83686 25.77294 22.80490
#
# Velocity S-wave (km/s) = 3.27554 3.73361 3.51205
# Velocity P-wave (km/s) = 7.06874 7.36671 7.21927
#
# Compressibility (1/GPa) = 0.01516677
#
# Stress axis : x y z
#
# Youngs Moduli (GPa) = 29.26211 29.26211 66.50345
#
# Poissons Ratio (x) = 0.69598 0.34331
# Poissons Ratio (y) = 0.69598 0.34331
# Poissons Ratio (z) = 0.15106 0.15106
#
# Static dielectric constant tensor:
#      x y z
#    x 1.659180 0.000000 0.000000 
#    y 0.000000 1.659180 0.000000 
#    z 0.000000 0.000000 1.648560 
# 
# From -- ./inp_files/8157.got.cif
#   From: 2010.05.17/outbox.cif.g08.bks.cpg/sg138_5_cif.got.tgz:8157.got - 2010.05.20 13:08:53.
