data_PCOD9570559
_publ_section_title
;
Structure prediction by ZEFSAII (Michael W. Deem and Ramdas Pophale) SiO2 
 PCOD9570559
Probable space group: P 42/N C M
;
_chemical_formula_sum "Si O2"
_cell_formula_units_Z 72
_cell_length_a 11.690969
_cell_length_b 11.690969
_cell_length_c 28.396805
_cell_angle_alpha 90.000000
_cell_angle_beta 90.000000
_cell_angle_gamma 90.000000
_cell_volume 3881.239986
_symmetry_space_group_name_H-M "P 42/N C M"
_symmetry_group_IT_number 138
_space_group.IT_coordinate_system_code '2'
_symmetry_cell_setting 'tetragonal'
loop_
_space_group_symop_operation_xyz
x,y,z
1/2-y,x,1/2+z
1/2-x,1/2-y,z
y,1/2-x,1/2+z
1/2+x,-y,1/2-z
-x,1/2+y,1/2-z
1/2+y,1/2+x,-z
-y,-x,-z
-x,-y,-z
1/2+y,-x,1/2-z
1/2+x,1/2+y,-z
-y,1/2+x,1/2-z
1/2-x,y,1/2+z
x,1/2-y,1/2+z
1/2-y,1/2-x,z
y,x,z
loop_
_atom_site_type_symbol
_atom_site_label
_atom_site_fract_x
_atom_site_fract_y
_atom_site_fract_z
Si Si1 0.046373 0.453628 0.625184
Si Si2 0.225000 0.929342 0.268534
Si Si3 0.593707 0.906294 0.481493
Si Si4 0.427020 0.760977 0.019545
Si Si5 0.114236 0.721840 0.627070
Si Si6 0.344009 0.344009 0.216629
O O1 0.089246 0.410755 0.574559
O O2 0.078322 0.588080 0.628254
O O3 0.107609 0.392392 0.668091
O O4 0.343901 0.871872 0.251698
O O5 0.222957 0.933520 0.325100
O O6 0.208682 0.051926 0.246047
O O7 0.546978 0.786452 0.500695
O O8 0.500000 0.000000 0.500000
O O9 0.426194 0.763450 0.075929
O O10 0.380342 0.880342 0.000000
O O11 0.333319 0.666682 0.000000
O O12 0.250000 0.750000 0.628647
O O13 0.250000 0.250000 0.207286
#
# Coordination Sequence:
#
# PCOD9570559 Si02
#       6
#     8  16   8  16  16   8
#     4  12  20  34  60  80 120 151 198 248 296 359
#     4  11  23  42  64  87 119 155 204 256 300 367
#     4  10  16  28  46  84 111 144 189 239 290 343
#     4  10  16  26  46  80 122 140 182 245 289 348
#     4  12  19  32  56  88 115 154 194 244 304 353
#     4  12  28  42  60  88 124 160 204 257 316 362
#
# _framework density 18.550774000000001
#
# number of rings (size 3 to 8) (size 9 to 14) (size 15 to 20)
#    0.000    0.889   11.111    0.000    3.111    0.000 
#    0.000    0.000    0.000    0.000    2.889    0.778 
#    0.000    0.889    0.000    0.000    0.000    0.000 
#
# Total GULP energy -401739.581537 kJ/mol
# GULP energy per Si atom -5579.716410 kJ/mol
# Density = 1.850855 g / cm^3
# Si number density = 18.550774 Si / 1000 Ang^3
#
#
#
# Elastic Constant Matrix: (Units=GPa)
#
#
# Indices 1 2 3 4 5 6 
#
# 1 51.6583 61.3325 29.2925 0.0000 0.0000 0.0000
# 2 61.3325 51.6586 29.2931 0.0000 0.0000 0.0000
# 3 29.2925 29.2931 200.3380 0.0000 0.0000 0.0000
# 4 0.0000 0.0000 0.0000 -2.1205 0.0000 0.0000
# 5 0.0000 0.0000 0.0000 0.0000 -2.1156 0.0000
# 6 0.0000 0.0000 0.0000 0.0000 0.0000 32.1226
#
#
#
# Elastic Compliance Matrix: (Units=1/GPa)
#
#
# Indices 1 2 3 4 5 6 
#
# 1 -0.046897 0.056473 -0.001400 0.000000 0.000000 0.000000
# 2 0.056473 -0.046897 -0.001400 0.000000 0.000000 0.000000
# 3 -0.001400 -0.001400 0.005401 0.000000 0.000000 0.000000
# 4 0.000000 0.000000 0.000000 -0.471584 0.000000 0.000000
# 5 0.000000 0.000000 0.000000 0.000000 -0.472669 0.000000
# 6 0.000000 0.000000 0.000000 0.000000 0.000000 0.031131
#
#
# Mechanical properties :
#
#
# Convention : Reuss Voigt Hill
#
# Bulk Modulus (GPa) = 52.76286 60.38792 56.57539
# Shear Modulus (GPa) = -4.53497 17.82641 6.64572
#
# Velocity S-wave (km/s) = -1.56523 3.10329 1.89479
# Velocity P-wave (km/s) = 5.02370 6.74270 5.94565
#
# Compressibility (1/GPa) = 0.01895272
#
# Stress axis : x y z
#
# Youngs Moduli (GPa) = -21.32346 -21.32349 185.14965
#
# Poissons Ratio (x) = 1.20420 0.25928
# Poissons Ratio (y) = 1.20420 0.25922
# Poissons Ratio (z) = -0.02986 -0.02985
#
# Static dielectric constant tensor:
#      x y z
#    x 1.651730 0.000000 0.000000 
#    y 0.000000 1.651730 0.000000 
#    z 0.000000 0.000000 1.654630 
# 
# From -- ./inp_files/7454.got.cif
#   From: 2010.05.17/outbox.cif.g08.bks.cpg/sg138_4_cif.got.tgz:7454.got - 2010.05.20 13:08:53.
