data_PCOD9570534
_publ_section_title
;
Structure prediction by ZEFSAII (Michael W. Deem and Ramdas Pophale) SiO2 
 PCOD9570534
Probable space group: P 42/N M C
;
_chemical_formula_sum "Si O2"
_cell_formula_units_Z 58
_cell_length_a 17.784090
_cell_length_b 17.784090
_cell_length_c 8.090620
_cell_angle_alpha 90.000000
_cell_angle_beta 90.000000
_cell_angle_gamma 90.000000
_cell_volume 2558.851594
_symmetry_space_group_name_H-M "P 42/N M C"
_symmetry_group_IT_number 137
_space_group.IT_coordinate_system_code '2'
_symmetry_cell_setting 'tetragonal'
loop_
_space_group_symop_operation_xyz
x,y,z
1/2-y,x,1/2+z
1/2-x,1/2-y,z
y,1/2-x,1/2+z
1/2+x,-y,-z
-x,1/2+y,-z
1/2+y,1/2+x,1/2-z
-y,-x,1/2-z
-x,-y,-z
1/2+y,-x,1/2-z
1/2+x,1/2+y,-z
-y,1/2+x,1/2-z
1/2-x,y,z
x,1/2-y,z
1/2-y,1/2-x,1/2+z
y,x,1/2+z
loop_
_atom_site_type_symbol
_atom_site_label
_atom_site_fract_x
_atom_site_fract_y
_atom_site_fract_z
Si Si1 0.385536 0.501239 0.830027
Si Si2 0.250000 0.902488 0.965993
Si Si3 0.082106 0.139862 0.007740
Si Si4 0.331403 0.250000 0.569040
Si Si5 0.750000 0.509664 0.736005
Si Si6 0.250000 0.750000 0.750000
O O1 0.451870 0.548131 0.750000
O O2 0.323729 0.557598 0.895846
O O3 0.348673 0.446477 0.692859
O O4 0.414989 0.448261 0.974077
O O5 0.250000 0.820451 0.879447
O O6 0.250000 0.932469 0.158854
O O7 0.167745 0.168159 0.982679
O O8 0.023634 0.178909 0.883648
O O9 0.250000 0.250000 0.661719
O O10 0.414356 0.250000 0.652132
#
# Coordination Sequence:
#
# PCOD9570534 Si02
#       6
#    16   8  16   8   8   2
#     4  12  24  43  71  98 139 189 242 303 377 438
#     4  12  25  49  75 102 134 185 259 322 389 449
#     4  12  24  42  67 109 154 196 239 291 349 449
#     4  12  24  36  65 105 159 205 233 258 337 449
#     4  12  25  42  69 111 157 189 243 297 352 444
#     4  12  28  56  88  94 124 192 266 344 412 440
#
# _framework density 22.666418
#
# number of rings (size 3 to 8) (size 9 to 14) (size 15 to 20)
#    0.000    0.000    8.276    1.655    1.931    0.000 
#    0.000    0.000    0.000    3.310    0.000    0.000 
#    0.000    0.000    0.000    0.000    0.000    0.000 
#
# Total GULP energy -323867.167338 kJ/mol
# GULP energy per Si atom -5583.916678 kJ/mol
# Density = 2.261483 g / cm^3
# Si number density = 22.666418 Si / 1000 Ang^3
#
#
#
# Elastic Constant Matrix: (Units=GPa)
#
#
# Indices 1 2 3 4 5 6 
#
# 1 76.7963 28.8095 15.5134 0.0000 0.0000 0.0000
# 2 28.8095 76.7909 15.5120 0.0000 0.0000 0.0000
# 3 15.5134 15.5120 80.1465 0.0000 0.0000 0.0000
# 4 0.0000 0.0000 0.0000 33.0241 0.0000 0.0000
# 5 0.0000 0.0000 0.0000 0.0000 33.0347 0.0000
# 6 0.0000 0.0000 0.0000 0.0000 0.0000 40.0192
#
#
#
# Elastic Compliance Matrix: (Units=1/GPa)
#
#
# Indices 1 2 3 4 5 6 
#
# 1 0.015440 -0.005400 -0.001943 0.000000 0.000000 0.000000
# 2 -0.005400 0.015441 -0.001943 0.000000 0.000000 0.000000
# 3 -0.001943 -0.001943 0.013229 0.000000 0.000000 0.000000
# 4 0.000000 0.000000 0.000000 0.030281 0.000000 0.000000
# 5 0.000000 0.000000 0.000000 0.000000 0.030271 0.000000
# 6 0.000000 0.000000 0.000000 0.000000 0.000000 0.024988
#
#
# Mechanical properties :
#
#
# Convention : Reuss Voigt Hill
#
# Bulk Modulus (GPa) = 39.15924 39.26704 39.21314
# Shear Modulus (GPa) = 31.90085 32.80887 32.35486
#
# Velocity S-wave (km/s) = 3.75561 3.80869 3.78224
# Velocity P-wave (km/s) = 6.00999 6.05830 6.03419
#
# Compressibility (1/GPa) = 0.02553676
#
# Stress axis : x y z
#
# Youngs Moduli (GPa) = 64.76769 64.76345 75.58899
#
# Poissons Ratio (x) = 0.34972 0.14690
# Poissons Ratio (y) = 0.34974 0.14689
# Poissons Ratio (z) = 0.12587 0.12585
#
# Static dielectric constant tensor:
#      x y z
#    x 1.866260 0.000000 0.000000 
#    y 0.000000 1.866230 0.000000 
#    z 0.000000 0.000000 1.893310 
# 
# From -- ./inp_files/1599.got.cif
#   From: 2010.05.17/outbox.cif.g08.bks.cpg/sg137_1_cif.got.tgz:1599.got - 2010.05.20 13:01:12.
