data_PCOD9570802
_publ_section_title
;
Structure prediction by ZEFSAII (Michael W. Deem and Ramdas Pophale) SiO2 
 PCOD9570802
Probable space group: P 42/N C M
;
_chemical_formula_sum "Si O2"
_cell_formula_units_Z 112
_cell_length_a 14.914645
_cell_length_b 14.914645
_cell_length_c 26.661079
_cell_angle_alpha 90.000000
_cell_angle_beta 90.000000
_cell_angle_gamma 90.000000
_cell_volume 5930.667322
_symmetry_space_group_name_H-M "P 42/N C M"
_symmetry_group_IT_number 138
_space_group.IT_coordinate_system_code '2'
_symmetry_cell_setting 'tetragonal'
loop_
_space_group_symop_operation_xyz
x,y,z
1/2-y,x,1/2+z
1/2-x,1/2-y,z
y,1/2-x,1/2+z
1/2+x,-y,1/2-z
-x,1/2+y,1/2-z
1/2+y,1/2+x,-z
-y,-x,-z
-x,-y,-z
1/2+y,-x,1/2-z
1/2+x,1/2+y,-z
-y,1/2+x,1/2-z
1/2-x,y,1/2+z
x,1/2-y,1/2+z
1/2-y,1/2-x,z
y,x,z
loop_
_atom_site_type_symbol
_atom_site_label
_atom_site_fract_x
_atom_site_fract_y
_atom_site_fract_z
Si Si1 0.126905 0.524341 0.249913
Si Si2 0.100708 0.253439 0.989974
Si Si3 0.256669 0.397307 0.199860
Si Si4 0.314299 0.035587 0.097708
Si Si5 0.870227 0.162247 0.850171
Si Si6 0.364941 0.841312 0.847286
Si Si7 0.464100 0.616272 0.049419
O O1 0.219357 0.470009 0.238713
O O2 0.129540 0.574687 0.302305
O O3 0.119112 0.590855 0.202822
O O4 0.047456 0.452545 0.248629
O O5 0.156479 0.343522 0.974119
O O6 0.176681 0.176681 0.995566
O O7 0.022636 0.207772 0.956799
O O8 0.057231 0.272291 0.044238
O O9 0.182584 0.317417 0.200209
O O10 0.351736 0.351736 0.210263
O O11 0.251320 0.439360 0.144105
O O12 0.398501 0.101500 0.103712
O O13 0.347486 0.935142 0.107247
O O14 0.765391 0.147665 0.839844
O O15 0.883029 0.268762 0.856524
O O16 0.902865 0.117972 0.901503
O O17 0.536339 0.536339 0.053790
O O18 0.405396 0.594605 0.000000
#
# Coordination Sequence:
#
# PCOD9570802 Si02
#       7
#    16  16  16  16  16  16  16
#     4  10  20  36  57  80 108 137 172 220 268 320
#     4   9  17  31  53  80 110 145 181 223 283 342
#     4   8  14  26  46  74 105 133 163 206 261 317
#     4   9  16  30  53  79 107 136 174 225 275 319
#     4  11  22  38  57  76 105 147 186 216 263 323
#     4  10  21  37  55  78 107 141 178 217 261 320
#     4  10  21  38  59  83 110 139 183 238 277 315
#
# _framework density 18.884889000000001
#
# number of rings (size 3 to 8) (size 9 to 14) (size 15 to 20)
#    0.000    2.429    0.000    3.857    0.000    2.857 
#    0.000   17.857    0.000    5.143    0.000    0.000 
#    0.000    0.000    0.000    0.000    0.000    0.000 
#
# Total GULP energy -624700.814479 kJ/mol
# GULP energy per Si atom -5577.685844 kJ/mol
# Density = 1.884191 g / cm^3
# Si number density = 18.884889 Si / 1000 Ang^3
#
#
#
# Elastic Constant Matrix: (Units=GPa)
#
#
# Indices 1 2 3 4 5 6 
#
# 1 54.9147 5.5317 17.0968 0.0000 0.0000 0.0000
# 2 5.5317 54.9140 17.0964 0.0000 0.0000 0.0000
# 3 17.0968 17.0964 47.4867 0.0000 0.0000 0.0000
# 4 0.0000 0.0000 0.0000 18.5867 0.0000 0.0000
# 5 0.0000 0.0000 0.0000 0.0000 18.5867 0.0000
# 6 0.0000 0.0000 0.0000 0.0000 0.0000 18.1772
#
#
#
# Elastic Compliance Matrix: (Units=1/GPa)
#
#
# Indices 1 2 3 4 5 6 
#
# 1 0.020512 0.000262 -0.007480 0.000000 0.000000 0.000000
# 2 0.000262 0.020512 -0.007479 0.000000 0.000000 0.000000
# 3 -0.007480 -0.007479 0.026444 0.000000 0.000000 0.000000
# 4 0.000000 0.000000 0.000000 0.053802 0.000000 0.000000
# 5 0.000000 0.000000 0.000000 0.000000 0.053802 0.000000
# 6 0.000000 0.000000 0.000000 0.000000 0.000000 0.055014
#
#
# Mechanical properties :
#
#
# Convention : Reuss Voigt Hill
#
# Bulk Modulus (GPa) = 26.26354 26.30725 26.28539
# Shear Modulus (GPa) = 18.37074 18.90949 18.64012
#
# Velocity S-wave (km/s) = 3.12232 3.16777 3.14513
# Velocity P-wave (km/s) = 5.18998 5.22879 5.20942
#
# Compressibility (1/GPa) = 0.03807560
#
# Stress axis : x y z
#
# Youngs Moduli (GPa) = 48.75122 48.75082 37.81544
#
# Poissons Ratio (x) = -0.01279 0.28284
# Poissons Ratio (y) = -0.01279 0.28284
# Poissons Ratio (z) = 0.36464 0.36463
#
# Static dielectric constant tensor:
#      x y z
#    x 1.672520 0.000000 0.000000 
#    y 0.000000 1.672520 0.000000 
#    z 0.000000 0.000000 1.615540 
# 
# From -- ./inp_files/7095.got.cif
#   From: 2010.05.17/outbox.cif.g08.bks.cpg/sg138_4_cif.got.tgz:7095.got - 2010.05.20 13:08:53.
