data_PCOD9570061
_publ_section_title
;
Structure prediction by ZEFSAII (Michael W. Deem and Ramdas Pophale) SiO2 
 PCOD9570061
Probable space group: P 42/N M C
;
_chemical_formula_sum "Si O2"
_cell_formula_units_Z 112
_cell_length_a 14.576823
_cell_length_b 14.576823
_cell_length_c 25.086725
_cell_angle_alpha 90.000000
_cell_angle_beta 90.000000
_cell_angle_gamma 90.000000
_cell_volume 5330.521874
_symmetry_space_group_name_H-M "P 42/N M C"
_symmetry_group_IT_number 137
_space_group.IT_coordinate_system_code '2'
_symmetry_cell_setting 'tetragonal'
loop_
_space_group_symop_operation_xyz
x,y,z
1/2-y,x,1/2+z
1/2-x,1/2-y,z
y,1/2-x,1/2+z
1/2+x,-y,-z
-x,1/2+y,-z
1/2+y,1/2+x,1/2-z
-y,-x,1/2-z
-x,-y,-z
1/2+y,-x,1/2-z
1/2+x,1/2+y,-z
-y,1/2+x,1/2-z
1/2-x,y,z
x,1/2-y,z
1/2-y,1/2-x,1/2+z
y,x,1/2+z
loop_
_atom_site_type_symbol
_atom_site_label
_atom_site_fract_x
_atom_site_fract_y
_atom_site_fract_z
Si Si1 0.652434 0.646733 0.553556
Si Si2 0.356569 0.855122 0.314985
Si Si3 0.449153 0.643361 0.602680
Si Si4 0.024104 0.477695 0.310571
Si Si5 0.642359 0.860935 0.873025
Si Si6 0.487757 0.406746 0.032707
Si Si7 0.640741 0.852172 0.752086
O O1 0.750000 0.642118 0.583868
O O2 0.649562 0.750000 0.528813
O O3 0.556770 0.639510 0.584703
O O4 0.653915 0.566850 0.509732
O O5 0.359950 0.859950 0.250000
O O6 0.250000 0.871770 0.330048
O O7 0.380413 0.750000 0.329608
O O8 0.428093 0.931118 0.334483
O O9 0.424251 0.750000 0.609169
O O10 0.452425 0.580684 0.655296
O O11 0.389681 0.587693 0.558771
O O12 0.111029 0.412759 0.297035
O O13 0.990783 0.490783 0.250000
O O14 0.750000 0.881905 0.879491
O O15 0.631966 0.750000 0.878444
O O16 0.581072 0.909470 0.917123
O O17 0.614237 0.883710 0.812041
O O18 0.500000 0.500000 0.000000
O O19 0.750000 0.848465 0.754462
O O20 0.603131 0.750000 0.744772
#
# Coordination Sequence:
#
# PCOD9570061 Si02
#       7
#    16  16  16  16  16  16  16
#     4   9  18  34  58  86 110 132 165 215 279 350
#     4   8  15  28  44  64  94 133 176 219 261 312
#     4  10  22  37  51  75 111 147 184 229 282 332
#     4  11  20  31  50  74 104 147 193 228 266 320
#     4   9  17  31  54  84 112 134 168 228 294 346
#     4  10  19  32  51  75 103 138 176 214 265 336
#     4   9  18  31  48  74 105 134 171 224 280 330
#
# _framework density 21.011077
#
# number of rings (size 3 to 8) (size 9 to 14) (size 15 to 20)
#    0.000    2.571    0.000    3.857    0.000    3.429 
#    0.000    2.857    0.000    2.571    0.000    0.000 
#    0.000    4.857    0.000    0.000    0.000    0.000 
#
# Total GULP energy -623939.932038 kJ/mol
# GULP energy per Si atom -5570.892250 kJ/mol
# Density = 2.096326 g / cm^3
# Si number density = 21.011077 Si / 1000 Ang^3
#
#
#
# Elastic Constant Matrix: (Units=GPa)
#
#
# Indices 1 2 3 4 5 6 
#
# 1 82.9439 20.5527 18.4955 0.0000 0.0000 0.0000
# 2 20.5527 82.9439 18.4955 0.0000 0.0000 0.0000
# 3 18.4955 18.4955 41.2157 0.0000 0.0000 0.0000
# 4 0.0000 0.0000 0.0000 20.3764 0.0000 0.0000
# 5 0.0000 0.0000 0.0000 0.0000 20.3764 0.0000
# 6 0.0000 0.0000 0.0000 0.0000 0.0000 9.8022
#
#
#
# Elastic Compliance Matrix: (Units=1/GPa)
#
#
# Indices 1 2 3 4 5 6 
#
# 1 0.013768 -0.002260 -0.005164 0.000000 0.000000 0.000000
# 2 -0.002260 0.013768 -0.005164 0.000000 0.000000 0.000000
# 3 -0.005164 -0.005164 0.028897 0.000000 0.000000 0.000000
# 4 0.000000 0.000000 0.000000 0.049076 0.000000 0.000000
# 5 0.000000 0.000000 0.000000 0.000000 0.049076 0.000000
# 6 0.000000 0.000000 0.000000 0.000000 0.000000 0.102018
#
#
# Mechanical properties :
#
#
# Convention : Reuss Voigt Hill
#
# Bulk Modulus (GPa) = 31.99326 35.79898 33.89612
# Shear Modulus (GPa) = 17.11159 20.08164 18.59662
#
# Velocity S-wave (km/s) = 2.85688 3.09490 2.97827
# Velocity P-wave (km/s) = 5.11295 5.46318 5.29096
#
# Compressibility (1/GPa) = 0.03125658
#
# Stress axis : x y z
#
# Youngs Moduli (GPa) = 72.63276 72.63276 34.60523
#
# Poissons Ratio (x) = 0.16415 0.17871
# Poissons Ratio (y) = 0.16415 0.17871
# Poissons Ratio (z) = 0.37509 0.37509
#
# Static dielectric constant tensor:
#      x y z
#    x 1.813950 0.000000 0.000000 
#    y 0.000000 1.813950 0.000000 
#    z 0.000000 0.000000 1.773350 
# 
# From -- ./inp_files/10671.got.cif
#   From: 2010.05.17/outbox.cif.g08.bks.cpg/sg137_6_cif.got.tgz:10671.got - 2010.05.20 13:01:12.
