data_PCOD9570983
_publ_section_title
;
Structure prediction by ZEFSAII (Michael W. Deem and Ramdas Pophale) SiO2 
 PCOD9570983
Probable space group: P 42/N C M
;
_chemical_formula_sum "Si O2"
_cell_formula_units_Z 64
_cell_length_a 12.389691
_cell_length_b 12.389691
_cell_length_c 22.663738
_cell_angle_alpha 90.000000
_cell_angle_beta 90.000000
_cell_angle_gamma 90.000000
_cell_volume 3478.984480
_symmetry_space_group_name_H-M "P 42/N C M"
_symmetry_group_IT_number 138
_space_group.IT_coordinate_system_code '2'
_symmetry_cell_setting 'tetragonal'
loop_
_space_group_symop_operation_xyz
x,y,z
1/2-y,x,1/2+z
1/2-x,1/2-y,z
y,1/2-x,1/2+z
1/2+x,-y,1/2-z
-x,1/2+y,1/2-z
1/2+y,1/2+x,-z
-y,-x,-z
-x,-y,-z
1/2+y,-x,1/2-z
1/2+x,1/2+y,-z
-y,1/2+x,1/2-z
1/2-x,y,1/2+z
x,1/2-y,1/2+z
1/2-y,1/2-x,z
y,x,z
loop_
_atom_site_type_symbol
_atom_site_label
_atom_site_fract_x
_atom_site_fract_y
_atom_site_fract_z
Si Si1 0.793277 0.069930 0.166797
Si Si2 0.824674 0.999103 0.874859
Si Si3 0.659297 0.840704 0.612601
Si Si4 0.445550 0.624609 0.300607
Si Si5 0.341773 0.341773 0.024415
O O1 0.877393 0.137543 0.127432
O O2 0.670671 0.109437 0.168992
O O3 0.839330 0.074778 0.233389
O O4 0.799889 0.948077 0.144277
O O5 0.720052 0.991174 0.834029
O O6 0.804761 0.947992 0.939266
O O7 0.923875 0.923875 0.851636
O O8 0.750000 0.750000 0.615273
O O9 0.636108 0.863893 0.543711
O O10 0.516472 0.516472 0.301846
O O11 0.250000 0.250000 0.029415
#
# Coordination Sequence:
#
# PCOD9570983 Si02
#       5
#    16  16   8  16   8
#     4  12  23  39  60  95 132 174 210 273 330 396
#     4  10  22  40  66  92 124 174 220 262 332 393
#     4  11  23  43  67  97 133 173 226 276 329 387
#     4  12  24  39  60  94 136 170 216 268 335 395
#     4   9  21  43  69  95 129 173 225 280 319 395
#
# _framework density 18.396173000000001
#
# number of rings (size 3 to 8) (size 9 to 14) (size 15 to 20)
#    0.750    0.250    5.000    2.250    0.000    3.000 
#    0.000    1.250    0.000    7.500    0.000    0.000 
#    0.000    0.000    0.000    0.000    0.000    0.000 
#
# Total GULP energy -357189.242663 kJ/mol
# GULP energy per Si atom -5581.081917 kJ/mol
# Density = 1.835430 g / cm^3
# Si number density = 18.396173 Si / 1000 Ang^3
#
#
#
# Elastic Constant Matrix: (Units=GPa)
#
#
# Indices 1 2 3 4 5 6 
#
# 1 108.0682 22.5552 24.0745 0.0000 0.0000 0.0000
# 2 22.5552 108.0682 24.0745 0.0000 0.0000 0.0000
# 3 24.0745 24.0745 66.3693 0.0000 0.0000 0.0000
# 4 0.0000 0.0000 0.0000 6.2966 0.0000 0.0000
# 5 0.0000 0.0000 0.0000 0.0000 6.2966 0.0000
# 6 0.0000 0.0000 0.0000 0.0000 0.0000 27.2970
#
#
#
# Elastic Compliance Matrix: (Units=1/GPa)
#
#
# Indices 1 2 3 4 5 6 
#
# 1 0.010266 -0.001428 -0.003206 0.000000 0.000000 0.000000
# 2 -0.001428 0.010266 -0.003206 0.000000 0.000000 0.000000
# 3 -0.003206 -0.003206 0.017393 0.000000 0.000000 0.000000
# 4 0.000000 0.000000 0.000000 0.158815 0.000000 0.000000
# 5 0.000000 0.000000 0.000000 0.000000 0.158815 0.000000
# 6 0.000000 0.000000 0.000000 0.000000 0.000000 0.036634
#
#
# Mechanical properties :
#
#
# Convention : Reuss Voigt Hill
#
# Bulk Modulus (GPa) = 44.95414 47.10155 46.02785
# Shear Modulus (GPa) = 12.04001 22.09817 17.06909
#
# Velocity S-wave (km/s) = 2.56106 3.46965 3.04939
# Velocity P-wave (km/s) = 5.76499 6.45839 6.12152
#
# Compressibility (1/GPa) = 0.02224489
#
# Stress axis : x y z
#
# Youngs Moduli (GPa) = 97.41213 97.41213 57.49526
#
# Poissons Ratio (x) = 0.13915 0.18430
# Poissons Ratio (y) = 0.13915 0.18430
# Poissons Ratio (z) = 0.31226 0.31226
#
# Static dielectric constant tensor:
#      x y z
#    x 1.636180 0.000000 0.000000 
#    y 0.000000 1.636180 0.000000 
#    z 0.000000 0.000000 1.608170 
# 
# From -- ./inp_files/6775.got.cif
#   From: 2010.05.17/outbox.cif.g08.bks.cpg/sg138_4_cif.got.tgz:6775.got - 2010.05.20 13:08:53.
