data_PCOD9570809
_publ_section_title
;
Structure prediction by ZEFSAII (Michael W. Deem and Ramdas Pophale) SiO2 
 PCOD9570809
Probable space group: P 42/N C M
;
_chemical_formula_sum "Si O2"
_cell_formula_units_Z 56
_cell_length_a 14.210642
_cell_length_b 14.210642
_cell_length_c 14.215884
_cell_angle_alpha 90.000000
_cell_angle_beta 90.000000
_cell_angle_gamma 90.000000
_cell_volume 2870.788966
_symmetry_space_group_name_H-M "P 42/N C M"
_symmetry_group_IT_number 138
_space_group.IT_coordinate_system_code '2'
_symmetry_cell_setting 'tetragonal'
loop_
_space_group_symop_operation_xyz
x,y,z
1/2-y,x,1/2+z
1/2-x,1/2-y,z
y,1/2-x,1/2+z
1/2+x,-y,1/2-z
-x,1/2+y,1/2-z
1/2+y,1/2+x,-z
-y,-x,-z
-x,-y,-z
1/2+y,-x,1/2-z
1/2+x,1/2+y,-z
-y,1/2+x,1/2-z
1/2-x,y,1/2+z
x,1/2-y,1/2+z
1/2-y,1/2-x,z
y,x,z
loop_
_atom_site_type_symbol
_atom_site_label
_atom_site_fract_x
_atom_site_fract_y
_atom_site_fract_z
Si Si1 0.142302 0.142302 0.327154
Si Si2 0.129050 0.129050 0.115403
Si Si3 0.889281 0.389281 0.000000
Si Si4 0.016406 0.483594 0.149666
Si Si5 0.029494 0.470506 0.360311
Si Si6 0.224778 0.019416 0.955452
O O1 0.162565 0.162565 0.217904
O O2 0.093909 0.226384 0.384592
O O3 0.062217 0.062217 0.330277
O O4 0.207578 0.076969 0.052114
O O5 0.049486 0.049486 0.131097
O O6 0.963342 0.409327 0.084040
O O7 0.787503 0.424951 0.034240
O O8 0.050244 0.449757 0.250671
O O9 0.996287 0.376375 0.412179
#
# Coordination Sequence:
#
# PCOD9570809 Si02
#       6
#     8   8   8   8   8  16
#     4   9  20  37  53  85 111 146 197 238 275 356
#     4  10  22  40  57  80 123 157 184 236 306 347
#     4   9  18  34  59  86 106 150 201 243 270 345
#     4   8  17  35  56  74 113 151 191 222 297 342
#     4  10  21  37  58  82 117 161 182 230 300 364
#     4  10  20  36  58  86 114 148 196 233 290 348
#
# _framework density 19.506833
#
# number of rings (size 3 to 8) (size 9 to 14) (size 15 to 20)
#    0.000    2.571    0.000    2.571    4.000    2.286 
#    0.000    5.714    0.000    0.000    0.000    0.000 
#    0.000    0.000    0.000    0.000    0.000    0.000 
#
# Total GULP energy -312102.721014 kJ/mol
# GULP energy per Si atom -5573.262875 kJ/mol
# Density = 1.946243 g / cm^3
# Si number density = 19.506833 Si / 1000 Ang^3
#
#
#
# Elastic Constant Matrix: (Units=GPa)
#
#
# Indices 1 2 3 4 5 6 
#
# 1 79.4016 41.7038 34.1771 0.0000 0.0000 0.0000
# 2 41.7038 79.4016 34.1771 0.0000 0.0000 0.0000
# 3 34.1771 34.1771 155.4601 0.0000 0.0000 0.0000
# 4 0.0000 0.0000 0.0000 19.6850 0.0000 0.0000
# 5 0.0000 0.0000 0.0000 0.0000 19.6850 0.0000
# 6 0.0000 0.0000 0.0000 0.0000 0.0000 33.6663
#
#
#
# Elastic Compliance Matrix: (Units=1/GPa)
#
#
# Indices 1 2 3 4 5 6 
#
# 1 0.017977 -0.008550 -0.002072 0.000000 0.000000 0.000000
# 2 -0.008550 0.017977 -0.002072 0.000000 0.000000 0.000000
# 3 -0.002072 -0.002072 0.007344 0.000000 0.000000 0.000000
# 4 0.000000 0.000000 0.000000 0.050800 0.000000 0.000000
# 5 0.000000 0.000000 0.000000 0.000000 0.050800 0.000000
# 6 0.000000 0.000000 0.000000 0.000000 0.000000 0.029703
#
#
# Mechanical properties :
#
#
# Convention : Reuss Voigt Hill
#
# Bulk Modulus (GPa) = 55.84134 59.37547 57.60840
# Shear Modulus (GPa) = 24.27656 28.22094 26.24875
#
# Velocity S-wave (km/s) = 3.53160 3.80770 3.67225
# Velocity P-wave (km/s) = 6.73188 7.05945 6.89761
#
# Compressibility (1/GPa) = 0.01790788
#
# Stress axis : x y z
#
# Youngs Moduli (GPa) = 55.62705 55.62705 136.16997
#
# Poissons Ratio (x) = 0.47560 0.28221
# Poissons Ratio (y) = 0.47560 0.28221
# Poissons Ratio (z) = 0.11529 0.11529
#
# Static dielectric constant tensor:
#      x y z
#    x 1.692450 0.000000 0.000000 
#    y 0.000000 1.692450 0.000000 
#    z 0.000000 0.000000 1.746780 
# 
# From -- ./inp_files/3854.got.cif
#   From: 2010.05.17/outbox.cif.g08.bks.cpg/sg138_2_cif.got.tgz:3854.got - 2010.05.20 13:08:53.
