data_PCOD9570919
_publ_section_title
;
Structure prediction by ZEFSAII (Michael W. Deem and Ramdas Pophale) SiO2 
 PCOD9570919
Probable space group: P 42/N C M
;
_chemical_formula_sum "Si O2"
_cell_formula_units_Z 120
_cell_length_a 20.460147
_cell_length_b 20.460147
_cell_length_c 15.048437
_cell_angle_alpha 90.000000
_cell_angle_beta 90.000000
_cell_angle_gamma 90.000000
_cell_volume 6299.540810
_symmetry_space_group_name_H-M "P 42/N C M"
_symmetry_group_IT_number 138
_space_group.IT_coordinate_system_code '2'
_symmetry_cell_setting 'tetragonal'
loop_
_space_group_symop_operation_xyz
x,y,z
1/2-y,x,1/2+z
1/2-x,1/2-y,z
y,1/2-x,1/2+z
1/2+x,-y,1/2-z
-x,1/2+y,1/2-z
1/2+y,1/2+x,-z
-y,-x,-z
-x,-y,-z
1/2+y,-x,1/2-z
1/2+x,1/2+y,-z
-y,1/2+x,1/2-z
1/2-x,y,1/2+z
x,1/2-y,1/2+z
1/2-y,1/2-x,z
y,x,z
loop_
_atom_site_type_symbol
_atom_site_label
_atom_site_fract_x
_atom_site_fract_y
_atom_site_fract_z
Si Si1 0.061769 0.607558 0.633864
Si Si2 0.500547 0.666518 0.886180
Si Si3 0.744099 0.351344 0.772940
Si Si4 0.432570 0.702139 0.430315
Si Si5 0.760819 0.447572 0.119700
Si Si6 0.854658 0.959049 0.683829
Si Si7 0.429849 0.536490 0.663282
Si Si8 0.557759 0.942242 0.514239
O O1 0.130206 0.570547 0.618340
O O2 0.057984 0.683350 0.610061
O O3 0.043248 0.599060 0.737279
O O4 0.008210 0.570710 0.575409
O O5 0.487381 0.741455 0.912676
O O6 0.532933 0.658236 0.789149
O O7 0.541536 0.623744 0.955370
O O8 0.800093 0.313821 0.717168
O O9 0.776493 0.375227 0.863334
O O10 0.721753 0.410810 0.711216
O O11 0.415569 0.706847 0.533571
O O12 0.455546 0.630236 0.403251
O O13 0.789127 0.520624 0.131855
O O14 0.906715 0.015641 0.656547
O O15 0.890490 0.890490 0.665903
O O16 0.468818 0.468818 0.653235
#
# Coordination Sequence:
#
# PCOD9570919 Si02
#       8
#    16  16  16  16  16  16  16   8
#     4  11  20  34  58  88 121 151 185 241 303 357
#     4  11  20  34  58  88 121 151 185 241 303 357
#     4  11  24  40  56  78 116 162 205 246 286 342
#     4  12  24  37  58  86 117 155 200 242 296 359
#     4  12  24  37  58  86 117 155 200 242 296 359
#     4  10  21  38  59  81 112 153 194 242 298 350
#     4  10  21  38  59  81 112 153 194 242 298 350
#     4  12  21  32  60 100 121 140 193 252 308 362
#
# _framework density 19.049007
#
# number of rings (size 3 to 8) (size 9 to 14) (size 15 to 20)
#    0.000    0.933    5.333    2.800    0.000    4.267 
#    0.000    2.667    0.000    0.000    0.000    1.867 
#    0.000    0.000    0.000    0.000    0.000    0.000 
#
# Total GULP energy -668672.662019 kJ/mol
# GULP energy per Si atom -5572.272183 kJ/mol
# Density = 1.900565 g / cm^3
# Si number density = 19.049007 Si / 1000 Ang^3
#
#
#
# Elastic Constant Matrix: (Units=GPa)
#
#
# Indices 1 2 3 4 5 6 
#
# 1 33.1560 21.2983 4.6267 0.0000 0.0000 0.0000
# 2 21.2983 33.1560 4.6267 0.0000 0.0000 0.0000
# 3 4.6267 4.6267 69.0236 0.0000 0.0000 0.0000
# 4 0.0000 0.0000 0.0000 17.0529 0.0000 0.0000
# 5 0.0000 0.0000 0.0000 0.0000 17.0529 0.0000
# 6 0.0000 0.0000 0.0000 0.0000 0.0000 26.3726
#
#
#
# Elastic Compliance Matrix: (Units=1/GPa)
#
#
# Indices 1 2 3 4 5 6 
#
# 1 0.051455 -0.032879 -0.001245 0.000000 0.000000 0.000000
# 2 -0.032879 0.051455 -0.001245 0.000000 0.000000 0.000000
# 3 -0.001245 -0.001245 0.014655 0.000000 0.000000 0.000000
# 4 0.000000 0.000000 0.000000 0.058641 0.000000 0.000000
# 5 0.000000 0.000000 0.000000 0.000000 0.058641 0.000000
# 6 0.000000 0.000000 0.000000 0.000000 0.000000 0.037918
#
#
# Mechanical properties :
#
#
# Convention : Reuss Voigt Hill
#
# Bulk Modulus (GPa) = 21.35593 21.82656 21.59125
# Shear Modulus (GPa) = 13.92325 19.08126 16.50225
#
# Velocity S-wave (km/s) = 2.70648 3.16839 2.94650
# Velocity P-wave (km/s) = 4.58281 4.98677 4.78905
#
# Compressibility (1/GPa) = 0.04682539
#
# Stress axis : x y z
#
# Youngs Moduli (GPa) = 19.43458 19.43458 68.23736
#
# Poissons Ratio (x) = 0.63899 0.08497
# Poissons Ratio (y) = 0.63899 0.08497
# Poissons Ratio (z) = 0.02420 0.02420
#
# Static dielectric constant tensor:
#      x y z
#    x 1.681420 0.000000 0.000000 
#    y 0.000000 1.681420 0.000000 
#    z 0.000000 0.000000 1.700790 
# 
# From -- ./inp_files/4452.got.cif
#   From: 2010.05.17/outbox.cif.g08.bks.cpg/sg138_3_cif.got.tgz:4452.got - 2010.05.20 13:08:53.
