data_PCOD9570292
_publ_section_title
;
Structure prediction by ZEFSAII (Michael W. Deem and Ramdas Pophale) SiO2 
 PCOD9570292
Probable space group: P 42/N M C
;
_chemical_formula_sum "Si O2"
_cell_formula_units_Z 112
_cell_length_a 31.405418
_cell_length_b 31.405418
_cell_length_c 5.427750
_cell_angle_alpha 90.000000
_cell_angle_beta 90.000000
_cell_angle_gamma 90.000000
_cell_volume 5353.391343
_symmetry_space_group_name_H-M "P 42/N M C"
_symmetry_group_IT_number 137
_space_group.IT_coordinate_system_code '2'
_symmetry_cell_setting 'tetragonal'
loop_
_space_group_symop_operation_xyz
x,y,z
1/2-y,x,1/2+z
1/2-x,1/2-y,z
y,1/2-x,1/2+z
1/2+x,-y,-z
-x,1/2+y,-z
1/2+y,1/2+x,1/2-z
-y,-x,1/2-z
-x,-y,-z
1/2+y,-x,1/2-z
1/2+x,1/2+y,-z
-y,1/2+x,1/2-z
1/2-x,y,z
x,1/2-y,z
1/2-y,1/2-x,1/2+z
y,x,1/2+z
loop_
_atom_site_type_symbol
_atom_site_label
_atom_site_fract_x
_atom_site_fract_y
_atom_site_fract_z
Si Si1 0.954912 0.202920 0.555159
Si Si2 0.299827 0.162720 0.582676
Si Si3 0.870747 0.591071 0.411904
Si Si4 0.700821 0.366117 0.641735
Si Si5 0.446671 0.484029 0.229234
Si Si6 0.856884 0.503205 0.646835
Si Si7 0.858755 0.076727 0.338423
O O1 0.961608 0.250000 0.452625
O O2 0.908057 0.202691 0.683047
O O3 0.951347 0.166387 0.356074
O O4 0.993169 0.188787 0.734075
O O5 0.250000 0.153368 0.583508
O O6 0.311999 0.187780 0.332133
O O7 0.328558 0.120249 0.583249
O O8 0.897926 0.606203 0.653397
O O9 0.857852 0.541955 0.454658
O O10 0.672745 0.327256 0.750000
O O11 0.750000 0.354384 0.586709
O O12 0.673911 0.385830 0.417059
O O13 0.470837 0.529164 0.250000
O O14 0.456984 0.465616 0.502265
O O15 0.396684 0.486784 0.178778
O O16 0.868988 0.456377 0.549847
O O17 0.901078 0.098923 0.250000
#
# Coordination Sequence:
#
# PCOD9570292 Si02
#       7
#    16  16  16  16  16  16  16
#     4  10  23  41  61  89 123 158 205 263 325 384
#     4  10  21  38  63  96 131 169 215 268 327 389
#     4  10  23  43  66  91 134 181 223 266 330 390
#     4  10  20  38  60  86 118 155 195 249 316 392
#     4  10  23  39  59  90 130 164 204 262 323 377
#     4  11  25  37  66  90 122 163 219 264 312 386
#     4  11  23  38  64  90 120 162 207 263 329 388
#
# _framework density 20.921315
#
# number of rings (size 3 to 8) (size 9 to 14) (size 15 to 20)
#    0.000    1.714    1.429    1.714    6.000    2.714 
#    0.000    0.000    0.000    0.000    0.000    0.000 
#    0.000    0.000    0.000    0.000    0.000    0.000 
#
# Total GULP energy -624797.463423 kJ/mol
# GULP energy per Si atom -5578.548781 kJ/mol
# Density = 2.087370 g / cm^3
# Si number density = 20.921315 Si / 1000 Ang^3
#
#
#
# Elastic Constant Matrix: (Units=GPa)
#
#
# Indices 1 2 3 4 5 6 
#
# 1 84.8149 65.7833 19.8262 0.0000 0.0000 0.0000
# 2 65.7833 84.8165 19.8270 0.0000 0.0000 0.0000
# 3 19.8262 19.8270 75.9819 0.0000 0.0000 0.0000
# 4 0.0000 0.0000 0.0000 5.8996 0.0000 0.0000
# 5 0.0000 0.0000 0.0000 0.0000 5.8974 0.0000
# 6 0.0000 0.0000 0.0000 0.0000 0.0000 18.5000
#
#
#
# Elastic Compliance Matrix: (Units=1/GPa)
#
#
# Indices 1 2 3 4 5 6 
#
# 1 0.029836 -0.022706 -0.001860 0.000000 0.000000 0.000000
# 2 -0.022706 0.029836 -0.001861 0.000000 0.000000 0.000000
# 3 -0.001860 -0.001861 0.014132 0.000000 0.000000 0.000000
# 4 0.000000 0.000000 0.000000 0.169502 0.000000 0.000000
# 5 0.000000 0.000000 0.000000 0.000000 0.169565 0.000000
# 6 0.000000 0.000000 0.000000 0.000000 0.000000 0.054054
#
#
# Mechanical properties :
#
#
# Convention : Reuss Voigt Hill
#
# Bulk Modulus (GPa) = 47.73262 50.72072 49.22667
# Shear Modulus (GPa) = 9.49194 15.40454 12.44824
#
# Velocity S-wave (km/s) = 2.13233 2.71644 2.44191
# Velocity P-wave (km/s) = 5.37841 5.84251 5.61526
#
# Compressibility (1/GPa) = 0.02095003
#
# Stress axis : x y z
#
# Youngs Moduli (GPa) = 33.51627 33.51677 70.76145
#
# Poissons Ratio (x) = 0.76103 0.13164
# Poissons Ratio (y) = 0.76102 0.13167
# Poissons Ratio (z) = 0.06235 0.06237
#
# Static dielectric constant tensor:
#      x y z
#    x 1.700580 0.000000 0.000000 
#    y 0.000000 1.700530 0.000000 
#    z 0.000000 0.000000 1.904740 
# 
# From -- ./inp_files/683.got.cif
#   From: 2010.05.17/outbox.cif.g08.bks.cpg/sg137_1_cif.got.tgz:683.got - 2010.05.20 13:01:12.
