data_PCOD9570880
_publ_section_title
;
Structure prediction by ZEFSAII (Michael W. Deem and Ramdas Pophale) SiO2 
 PCOD9570880
Probable space group: P 42/N C M
;
_chemical_formula_sum "Si O2"
_cell_formula_units_Z 112
_cell_length_a 14.687989
_cell_length_b 14.687989
_cell_length_c 25.418376
_cell_angle_alpha 90.000000
_cell_angle_beta 90.000000
_cell_angle_gamma 90.000000
_cell_volume 5483.684713
_symmetry_space_group_name_H-M "P 42/N C M"
_symmetry_group_IT_number 138
_space_group.IT_coordinate_system_code '2'
_symmetry_cell_setting 'tetragonal'
loop_
_space_group_symop_operation_xyz
x,y,z
1/2-y,x,1/2+z
1/2-x,1/2-y,z
y,1/2-x,1/2+z
1/2+x,-y,1/2-z
-x,1/2+y,1/2-z
1/2+y,1/2+x,-z
-y,-x,-z
-x,-y,-z
1/2+y,-x,1/2-z
1/2+x,1/2+y,-z
-y,1/2+x,1/2-z
1/2-x,y,1/2+z
x,1/2-y,1/2+z
1/2-y,1/2-x,z
y,x,z
loop_
_atom_site_type_symbol
_atom_site_label
_atom_site_fract_x
_atom_site_fract_y
_atom_site_fract_z
Si Si1 0.543775 0.341486 0.457635
Si Si2 0.390507 0.757221 0.232076
Si Si3 0.946151 0.415307 0.845372
Si Si4 0.315999 0.836020 0.437068
Si Si5 0.888577 0.748224 0.977881
Si Si6 0.649591 0.508038 0.886120
Si Si7 0.552168 0.798322 0.803647
O O1 0.614013 0.385988 0.500000
O O2 0.540041 0.404317 0.407214
O O3 0.577759 0.247589 0.432707
O O4 0.451969 0.313403 0.486229
O O5 0.324246 0.668488 0.228592
O O6 0.412038 0.823249 0.183055
O O7 0.487976 0.723541 0.253544
O O8 0.867482 0.488956 0.836617
O O9 0.038550 0.461451 0.822425
O O10 0.250000 0.750000 0.427042
O O11 0.337926 0.837926 0.500000
O O12 0.401185 0.840195 0.398193
O O13 0.821011 0.678990 0.948235
O O14 0.822188 0.822188 0.005433
O O15 0.949113 0.803149 0.937508
O O16 0.547217 0.547217 0.883210
O O17 0.706051 0.549525 0.837511
O O18 0.647515 0.852486 0.794518
#
# Coordination Sequence:
#
# PCOD9570880 Si02
#       7
#    16  16  16  16  16  16  16
#     4  12  22  36  59  88 118 159 206 254 306 368
#     4   9  20  40  64  91 118 162 207 258 319 384
#     4  10  22  38  61  92 124 156 203 263 314 373
#     4  11  20  36  55  84 117 155 202 255 308 363
#     4  10  21  36  52  74 113 159 198 241 297 366
#     4  11  23  37  57  87 122 162 207 257 313 377
#     4  10  21  39  63  92 124 160 205 264 326 382
#
# _framework density 20.424223999999999
#
# number of rings (size 3 to 8) (size 9 to 14) (size 15 to 20)
#    0.000    1.571    2.857    2.571    2.000    4.571 
#    0.000    0.714    0.000    0.857    0.000    0.000 
#    0.000    0.000    0.000    0.000    0.000    0.000 
#
# Total GULP energy -623872.294095 kJ/mol
# GULP energy per Si atom -5570.288340 kJ/mol
# Density = 2.037774 g / cm^3
# Si number density = 20.424224 Si / 1000 Ang^3
#
#
#
# Elastic Constant Matrix: (Units=GPa)
#
#
# Indices 1 2 3 4 5 6 
#
# 1 75.9252 51.4758 15.8051 0.0000 0.0000 0.0000
# 2 51.4758 75.9260 15.8051 0.0000 0.0000 0.0000
# 3 15.8051 15.8051 34.4123 0.0000 0.0000 0.0000
# 4 0.0000 0.0000 0.0000 28.5775 0.0000 0.0000
# 5 0.0000 0.0000 0.0000 0.0000 28.5774 0.0000
# 6 0.0000 0.0000 0.0000 0.0000 0.0000 32.8502
#
#
#
# Elastic Compliance Matrix: (Units=1/GPa)
#
#
# Indices 1 2 3 4 5 6 
#
# 1 0.024880 -0.016021 -0.004069 0.000000 0.000000 0.000000
# 2 -0.016021 0.024879 -0.004069 0.000000 0.000000 0.000000
# 3 -0.004069 -0.004069 0.032797 0.000000 0.000000 0.000000
# 4 0.000000 0.000000 0.000000 0.034993 0.000000 0.000000
# 5 0.000000 0.000000 0.000000 0.000000 0.034993 0.000000
# 6 0.000000 0.000000 0.000000 0.000000 0.000000 0.030441
#
#
# Mechanical properties :
#
#
# Convention : Reuss Voigt Hill
#
# Bulk Modulus (GPa) = 29.20608 39.15951 34.18279
# Shear Modulus (GPa) = 20.60058 24.87951 22.74004
#
# Velocity S-wave (km/s) = 3.17935 3.49397 3.34036
# Velocity P-wave (km/s) = 5.27337 5.95750 5.62584
#
# Compressibility (1/GPa) = 0.03423945
#
# Stress axis : x y z
#
# Youngs Moduli (GPa) = 40.19355 40.19401 30.49078
#
# Poissons Ratio (x) = 0.64394 0.12406
# Poissons Ratio (y) = 0.64393 0.12405
# Poissons Ratio (z) = 0.16354 0.16353
#
# Static dielectric constant tensor:
#      x y z
#    x 1.742790 0.000000 0.000000 
#    y 0.000000 1.742800 0.000000 
#    z 0.000000 0.000000 1.732940 
# 
# From -- ./inp_files/7088.got.cif
#   From: 2010.05.17/outbox.cif.g08.bks.cpg/sg138_4_cif.got.tgz:7088.got - 2010.05.20 13:08:53.
