data_PCOD9570328
_publ_section_title
;
Structure prediction by ZEFSAII (Michael W. Deem and Ramdas Pophale) SiO2 
 PCOD9570328
Probable space group: P 42/N M C
;
_chemical_formula_sum "Si O2"
_cell_formula_units_Z 96
_cell_length_a 22.090275
_cell_length_b 22.090275
_cell_length_c 10.207187
_cell_angle_alpha 90.000000
_cell_angle_beta 90.000000
_cell_angle_gamma 90.000000
_cell_volume 4980.905660
_symmetry_space_group_name_H-M "P 42/N M C"
_symmetry_group_IT_number 137
_space_group.IT_coordinate_system_code '2'
_symmetry_cell_setting 'tetragonal'
loop_
_space_group_symop_operation_xyz
x,y,z
1/2-y,x,1/2+z
1/2-x,1/2-y,z
y,1/2-x,1/2+z
1/2+x,-y,-z
-x,1/2+y,-z
1/2+y,1/2+x,1/2-z
-y,-x,1/2-z
-x,-y,-z
1/2+y,-x,1/2-z
1/2+x,1/2+y,-z
-y,1/2+x,1/2-z
1/2-x,y,z
x,1/2-y,z
1/2-y,1/2-x,1/2+z
y,x,1/2+z
loop_
_atom_site_type_symbol
_atom_site_label
_atom_site_fract_x
_atom_site_fract_y
_atom_site_fract_z
Si Si1 0.131547 0.387747 0.406321
Si Si2 0.498802 0.905646 0.944666
Si Si3 0.424245 0.513271 0.133254
Si Si4 0.321269 0.319017 0.159597
Si Si5 0.180228 0.580244 0.736745
Si Si6 0.988993 0.818639 0.525243
O O1 0.121535 0.458133 0.441544
O O2 0.167861 0.359217 0.529020
O O3 0.162060 0.367078 0.271915
O O4 0.065778 0.356223 0.411477
O O5 0.464001 0.854941 0.863713
O O6 0.543209 0.947903 0.857189
O O7 0.451085 0.953017 0.004987
O O8 0.444592 0.555409 0.250000
O O9 0.353852 0.505015 0.107304
O O10 0.250000 0.322643 0.129995
O O11 0.334113 0.250000 0.206126
O O12 0.141099 0.641099 0.750000
O O13 0.250000 0.590316 0.697919
O O14 0.180684 0.544883 0.874911
O O15 0.969844 0.750000 0.502974
#
# Coordination Sequence:
#
# PCOD9570328 Si02
#       6
#    16  16  16  16  16  16
#     4  11  23  36  58  87 116 154 196 247 292 347
#     4  10  22  36  58  88 119 150 190 239 301 353
#     4  10  21  35  60  85 119 154 188 231 286 354
#     4  11  23  39  56  76 113 161 204 243 285 341
#     4  11  22  40  63  89 120 152 197 251 310 364
#     4  10  21  37  60  86 117 152 189 239 291 351
#
# _framework density 19.273603999999999
#
# number of rings (size 3 to 8) (size 9 to 14) (size 15 to 20)
#    0.000    1.500    1.667    3.500    9.333    4.167 
#    0.000    0.833    0.000    0.000    0.000    0.000 
#    0.000    0.000    0.000    0.000    0.000    0.000 
#
# Total GULP energy -536580.431424 kJ/mol
# GULP energy per Si atom -5589.379494 kJ/mol
# Density = 1.922974 g / cm^3
# Si number density = 19.273604 Si / 1000 Ang^3
#
#
#
# Elastic Constant Matrix: (Units=GPa)
#
#
# Indices 1 2 3 4 5 6 
#
# 1 113.0533 40.6170 18.0397 0.0000 0.0000 0.0000
# 2 40.6170 113.0534 18.0397 0.0000 0.0000 0.0000
# 3 18.0397 18.0397 47.6469 0.0000 0.0000 0.0000
# 4 0.0000 0.0000 0.0000 30.1274 0.0000 0.0000
# 5 0.0000 0.0000 0.0000 0.0000 30.1279 0.0000
# 6 0.0000 0.0000 0.0000 0.0000 0.0000 25.8327
#
#
#
# Elastic Compliance Matrix: (Units=1/GPa)
#
#
# Indices 1 2 3 4 5 6 
#
# 1 0.010474 -0.003331 -0.002704 0.000000 0.000000 0.000000
# 2 -0.003331 0.010474 -0.002704 0.000000 0.000000 0.000000
# 3 -0.002704 -0.002704 0.023035 0.000000 0.000000 0.000000
# 4 0.000000 0.000000 0.000000 0.033192 0.000000 0.000000
# 5 0.000000 0.000000 0.000000 0.000000 0.033192 0.000000
# 6 0.000000 0.000000 0.000000 0.000000 0.000000 0.038711
#
#
# Mechanical properties :
#
#
# Convention : Reuss Voigt Hill
#
# Bulk Modulus (GPa) = 37.73104 47.46071 42.59588
# Shear Modulus (GPa) = 28.50760 30.35475 29.43117
#
# Velocity S-wave (km/s) = 3.85008 3.97286 3.91195
# Velocity P-wave (km/s) = 6.27560 6.76187 6.52327
#
# Compressibility (1/GPa) = 0.02650338
#
# Stress axis : x y z
#
# Youngs Moduli (GPa) = 95.47645 95.47656 43.41143
#
# Poissons Ratio (x) = 0.31808 0.11739
# Poissons Ratio (y) = 0.31807 0.11739
# Poissons Ratio (z) = 0.25819 0.25819
#
# Static dielectric constant tensor:
#      x y z
#    x 1.676780 0.000000 0.000000 
#    y 0.000000 1.676780 0.000000 
#    z 0.000000 0.000000 1.696640 
# 
# From -- ./inp_files/3777.got.cif
#   From: 2010.05.17/outbox.cif.g08.bks.cpg/sg137_2_cif.got.tgz:3777.got - 2010.05.20 13:01:12.
