data_PCOD9570569
_publ_section_title
;
Structure prediction by ZEFSAII (Michael W. Deem and Ramdas Pophale) SiO2 
 PCOD9570569
Probable space group: P 42/N C M
;
_chemical_formula_sum "Si O2"
_cell_formula_units_Z 88
_cell_length_a 11.862729
_cell_length_b 11.862729
_cell_length_c 31.621154
_cell_angle_alpha 90.000000
_cell_angle_beta 90.000000
_cell_angle_gamma 90.000000
_cell_volume 4449.866005
_symmetry_space_group_name_H-M "P 42/N C M"
_symmetry_group_IT_number 138
_space_group.IT_coordinate_system_code '2'
_symmetry_cell_setting 'tetragonal'
loop_
_space_group_symop_operation_xyz
x,y,z
1/2-y,x,1/2+z
1/2-x,1/2-y,z
y,1/2-x,1/2+z
1/2+x,-y,1/2-z
-x,1/2+y,1/2-z
1/2+y,1/2+x,-z
-y,-x,-z
-x,-y,-z
1/2+y,-x,1/2-z
1/2+x,1/2+y,-z
-y,1/2+x,1/2-z
1/2-x,y,1/2+z
x,1/2-y,1/2+z
1/2-y,1/2-x,z
y,x,z
loop_
_atom_site_type_symbol
_atom_site_label
_atom_site_fract_x
_atom_site_fract_y
_atom_site_fract_z
Si Si1 0.156994 0.343007 0.709237
Si Si2 0.626912 0.626912 0.877194
Si Si3 0.178245 0.993162 0.758766
Si Si4 0.981897 0.157858 0.606431
Si Si5 0.655317 0.844684 0.469611
Si Si6 0.138301 0.680874 0.183313
Si Si7 0.242913 0.921837 0.518422
O O1 0.250000 0.250000 0.693134
O O2 0.094152 0.405849 0.670638
O O3 0.227073 0.429661 0.736900
O O4 0.574626 0.753040 0.876599
O O5 0.601321 0.601321 0.926588
O O6 0.066106 0.066106 0.762367
O O7 0.227338 0.953814 0.803482
O O8 0.156803 0.891054 0.726243
O O9 0.903464 0.117650 0.644704
O O10 0.916739 0.221724 0.568958
O O11 0.052989 0.052989 0.588607
O O12 0.750000 0.750000 0.458184
O O13 0.550351 0.781275 0.491198
O O14 0.250000 0.750000 0.172955
O O15 0.339522 0.839522 0.500000
O O16 0.126035 0.873966 0.500000
#
# Coordination Sequence:
#
# PCOD9570569 Si02
#       7
#     8   8  16  16   8  16  16
#     4  10  19  32  57  89 116 158 210 256 296 356
#     4  10  17  33  59  98 125 152 212 260 307 365
#     4  11  23  39  60  87 125 170 213 259 309 362
#     4  11  23  39  66  94 126 164 206 261 320 383
#     4  10  20  35  62  97 132 165 210 269 321 393
#     4  12  24  40  58  88 125 160 212 263 312 369
#     4  10  22  40  66  94 128 164 207 266 329 397
#
# _framework density 19.775876
#
# number of rings (size 3 to 8) (size 9 to 14) (size 15 to 20)
#    0.000    1.273    3.636    4.091    5.091    1.455 
#    1.636    0.000    2.000    0.000    0.000    0.000 
#    0.000    0.000    0.000    0.000    0.000    0.000 
#
# Total GULP energy -490009.108244 kJ/mol
# GULP energy per Si atom -5568.285321 kJ/mol
# Density = 1.973087 g / cm^3
# Si number density = 19.775876 Si / 1000 Ang^3
#
#
#
# Elastic Constant Matrix: (Units=GPa)
#
#
# Indices 1 2 3 4 5 6 
#
# 1 57.5176 30.8576 24.3238 0.0000 0.0000 0.0000
# 2 30.8576 57.5163 24.3242 0.0000 0.0000 0.0000
# 3 24.3238 24.3242 78.6978 0.0000 0.0000 0.0000
# 4 0.0000 0.0000 0.0000 19.9558 0.0000 0.0000
# 5 0.0000 0.0000 0.0000 0.0000 19.9559 0.0000
# 6 0.0000 0.0000 0.0000 0.0000 0.0000 46.8418
#
#
#
# Elastic Compliance Matrix: (Units=1/GPa)
#
#
# Indices 1 2 3 4 5 6 
#
# 1 0.025572 -0.011937 -0.004214 0.000000 0.000000 0.000000
# 2 -0.011937 0.025573 -0.004215 0.000000 0.000000 0.000000
# 3 -0.004214 -0.004215 0.015312 0.000000 0.000000 0.000000
# 4 0.000000 0.000000 0.000000 0.050111 0.000000 0.000000
# 5 0.000000 0.000000 0.000000 0.000000 0.050111 0.000000
# 6 0.000000 0.000000 0.000000 0.000000 0.000000 0.021348
#
#
# Mechanical properties :
#
#
# Convention : Reuss Voigt Hill
#
# Bulk Modulus (GPa) = 38.87255 39.19366 39.03310
# Shear Modulus (GPa) = 21.06724 24.96576 23.01650
#
# Velocity S-wave (km/s) = 3.26743 3.55693 3.41525
# Velocity P-wave (km/s) = 5.82529 6.06061 5.94412
#
# Compressibility (1/GPa) = 0.02572509
#
# Stress axis : x y z
#
# Youngs Moduli (GPa) = 39.10454 39.10333 65.30808
#
# Poissons Ratio (x) = 0.46679 0.27522
# Poissons Ratio (y) = 0.46681 0.27525
# Poissons Ratio (z) = 0.16480 0.16481
#
# Static dielectric constant tensor:
#      x y z
#    x 1.753490 0.000000 0.000000 
#    y 0.000000 1.753490 0.000000 
#    z 0.000000 0.000000 1.717090 
# 
# From -- ./inp_files/8105.got.cif
#   From: 2010.05.17/outbox.cif.g08.bks.cpg/sg138_5_cif.got.tgz:8105.got - 2010.05.20 13:08:53.
