data_PCOD9570690
_publ_section_title
;
Structure prediction by ZEFSAII (Michael W. Deem and Ramdas Pophale) SiO2 
 PCOD9570690
Probable space group: P 42/N C M
;
_chemical_formula_sum "Si O2"
_cell_formula_units_Z 112
_cell_length_a 14.663024
_cell_length_b 14.663024
_cell_length_c 26.815542
_cell_angle_alpha 90.000000
_cell_angle_beta 90.000000
_cell_angle_gamma 90.000000
_cell_volume 5765.456108
_symmetry_space_group_name_H-M "P 42/N C M"
_symmetry_group_IT_number 138
_space_group.IT_coordinate_system_code '2'
_symmetry_cell_setting 'tetragonal'
loop_
_space_group_symop_operation_xyz
x,y,z
1/2-y,x,1/2+z
1/2-x,1/2-y,z
y,1/2-x,1/2+z
1/2+x,-y,1/2-z
-x,1/2+y,1/2-z
1/2+y,1/2+x,-z
-y,-x,-z
-x,-y,-z
1/2+y,-x,1/2-z
1/2+x,1/2+y,-z
-y,1/2+x,1/2-z
1/2-x,y,1/2+z
x,1/2-y,1/2+z
1/2-y,1/2-x,z
y,x,z
loop_
_atom_site_type_symbol
_atom_site_label
_atom_site_fract_x
_atom_site_fract_y
_atom_site_fract_z
Si Si1 0.353268 0.997135 0.507586
Si Si2 0.656211 0.999784 0.846227
Si Si3 0.851941 0.003859 0.156808
Si Si4 0.003168 0.645500 0.375088
Si Si5 0.566077 0.714098 0.573717
Si Si6 0.191549 0.611745 0.247462
Si Si7 0.065191 0.919697 0.445610
O O1 0.434212 0.065789 0.491559
O O2 0.268830 0.033452 0.475494
O O3 0.395758 0.895758 0.500000
O O4 0.336139 0.007614 0.566036
O O5 0.585072 0.914929 0.844541
O O6 0.763769 0.980186 0.844624
O O7 0.641340 0.068267 0.800249
O O8 0.647504 0.049041 0.900081
O O9 0.931326 0.931326 0.167592
O O10 0.782045 0.954468 0.119329
O O11 0.900093 0.093646 0.132461
O O12 0.808470 0.039709 0.207696
O O13 0.929260 0.570741 0.360585
O O14 0.665765 0.665765 0.571379
O O15 0.495010 0.631757 0.576953
O O16 0.140979 0.704622 0.263949
O O17 0.105170 0.894830 0.500000
O O18 0.966632 0.966632 0.455931
#
# Coordination Sequence:
#
# PCOD9570690 Si02
#       7
#    16  16  16  16  16  16  16
#     4  10  19  34  57  85 121 167 209 248 304 373
#     4  11  22  40  64  90 122 159 203 256 315 376
#     4  11  22  40  62  87 126 167 206 261 330 385
#     4  10  21  38  61  87 120 163 205 252 312 381
#     4  11  22  37  61  92 126 168 218 264 312 381
#     4  11  23  41  65  93 119 156 210 267 311 380
#     4   9  19  36  58  87 125 164 198 247 313 372
#
# _framework density 19.426044000000001
#
# number of rings (size 3 to 8) (size 9 to 14) (size 15 to 20)
#    0.000    1.571    2.857    2.571    0.000    3.143 
#    0.000    2.857    0.000    1.714    0.000    0.000 
#    0.000    0.000    0.000    0.000    0.000    0.000 
#
# Total GULP energy -623913.103446 kJ/mol
# GULP energy per Si atom -5570.652709 kJ/mol
# Density = 1.938183 g / cm^3
# Si number density = 19.426044 Si / 1000 Ang^3
#
#
#
# Elastic Constant Matrix: (Units=GPa)
#
#
# Indices 1 2 3 4 5 6 
#
# 1 84.9460 42.0783 21.6083 0.0000 0.0000 0.0000
# 2 42.0783 84.9460 21.6083 0.0000 0.0000 0.0000
# 3 21.6083 21.6083 73.3612 0.0000 0.0000 0.0000
# 4 0.0000 0.0000 0.0000 29.7197 0.0000 0.0000
# 5 0.0000 0.0000 0.0000 0.0000 29.7197 0.0000
# 6 0.0000 0.0000 0.0000 0.0000 0.0000 30.9329
#
#
#
# Elastic Compliance Matrix: (Units=1/GPa)
#
#
# Indices 1 2 3 4 5 6 
#
# 1 0.016038 -0.007289 -0.002577 0.000000 0.000000 0.000000
# 2 -0.007289 0.016038 -0.002577 0.000000 0.000000 0.000000
# 3 -0.002577 -0.002577 0.015149 0.000000 0.000000 0.000000
# 4 0.000000 0.000000 0.000000 0.033648 0.000000 0.000000
# 5 0.000000 0.000000 0.000000 0.000000 0.033648 0.000000
# 6 0.000000 0.000000 0.000000 0.000000 0.000000 0.032328
#
#
# Mechanical properties :
#
#
# Convention : Reuss Voigt Hill
#
# Bulk Modulus (GPa) = 44.76355 45.98255 45.37305
# Shear Modulus (GPa) = 27.90446 28.60501 28.25474
#
# Velocity S-wave (km/s) = 3.79416 3.84149 3.81790
# Velocity P-wave (km/s) = 6.50287 6.58772 6.54543
#
# Compressibility (1/GPa) = 0.02233961
#
# Stress axis : x y z
#
# Youngs Moduli (GPa) = 62.35018 62.35021 66.00958
#
# Poissons Ratio (x) = 0.45448 0.17011
# Poissons Ratio (y) = 0.45448 0.17011
# Poissons Ratio (z) = 0.16068 0.16068
#
# Static dielectric constant tensor:
#      x y z
#    x 1.711010 0.000000 0.000000 
#    y 0.000000 1.711010 0.000000 
#    z 0.000000 0.000000 1.691350 
# 
# From -- ./inp_files/7049.got.cif
#   From: 2010.05.17/outbox.cif.g08.bks.cpg/sg138_4_cif.got.tgz:7049.got - 2010.05.20 13:08:53.
