data_PCOD9570887
_publ_section_title
;
Structure prediction by ZEFSAII (Michael W. Deem and Ramdas Pophale) SiO2 
 PCOD9570887
Probable space group: P 42/N C M
;
_chemical_formula_sum "Si O2"
_cell_formula_units_Z 64
_cell_length_a 25.770862
_cell_length_b 25.770862
_cell_length_c 5.099712
_cell_angle_alpha 90.000000
_cell_angle_beta 90.000000
_cell_angle_gamma 90.000000
_cell_volume 3386.909102
_symmetry_space_group_name_H-M "P 42/N C M"
_symmetry_group_IT_number 138
_space_group.IT_coordinate_system_code '2'
_symmetry_cell_setting 'tetragonal'
loop_
_space_group_symop_operation_xyz
x,y,z
1/2-y,x,1/2+z
1/2-x,1/2-y,z
y,1/2-x,1/2+z
1/2+x,-y,1/2-z
-x,1/2+y,1/2-z
1/2+y,1/2+x,-z
-y,-x,-z
-x,-y,-z
1/2+y,-x,1/2-z
1/2+x,1/2+y,-z
-y,1/2+x,1/2-z
1/2-x,y,1/2+z
x,1/2-y,1/2+z
1/2-y,1/2-x,z
y,x,z
loop_
_atom_site_type_symbol
_atom_site_label
_atom_site_fract_x
_atom_site_fract_y
_atom_site_fract_z
Si Si1 0.111056 0.111056 0.689001
Si Si2 0.398318 0.947189 0.741858
Si Si3 0.437180 0.437180 0.191713
Si Si4 0.913317 0.723360 0.031737
Si Si5 0.961873 0.220403 0.413193
O O1 0.076459 0.076459 0.491688
O O2 0.099478 0.169610 0.606375
O O3 0.096405 0.096405 0.984939
O O4 0.408921 0.908921 0.500000
O O5 0.337838 0.950753 0.819446
O O6 0.420892 0.003208 0.654289
O O7 0.428667 0.928667 0.000000
O O8 0.894135 0.766899 0.826168
O O9 0.975595 0.724662 0.063187
O O10 0.942701 0.238262 0.697564
#
# Coordination Sequence:
#
# PCOD9570887 Si02
#       5
#     8  16   8  16  16
#     4  12  22  37  60  81 114 144 204 243 285 356
#     4  12  24  39  57  85 126 163 193 226 286 350
#     4  12  24  37  56  86 122 165 192 223 275 347
#     4  10  21  36  57  80 106 144 193 250 298 334
#     4  10  21  37  59  82 112 149 197 243 279 324
#
# _framework density 18.896284000000001
#
# number of rings (size 3 to 8) (size 9 to 14) (size 15 to 20)
#    0.000    1.000    2.500    5.250    7.000    0.000 
#    0.000    0.000    0.000    2.250    0.000    0.000 
#    0.000   35.000    0.000    0.000    0.000    0.000 
#
# Total GULP energy -357287.529484 kJ/mol
# GULP energy per Si atom -5582.617648 kJ/mol
# Density = 1.885328 g / cm^3
# Si number density = 18.896284 Si / 1000 Ang^3
#
#
#
# Elastic Constant Matrix: (Units=GPa)
#
#
# Indices 1 2 3 4 5 6 
#
# 1 62.5978 33.5825 35.9985 0.0000 0.0000 0.0000
# 2 33.5825 62.5978 35.9985 0.0000 0.0000 0.0000
# 3 35.9985 35.9985 113.3042 0.0000 0.0000 0.0000
# 4 0.0000 0.0000 0.0000 16.7706 0.0000 0.0000
# 5 0.0000 0.0000 0.0000 0.0000 16.7706 0.0000
# 6 0.0000 0.0000 0.0000 0.0000 0.0000 13.4158
#
#
#
# Elastic Compliance Matrix: (Units=1/GPa)
#
#
# Indices 1 2 3 4 5 6 
#
# 1 0.024053 -0.010412 -0.004334 0.000000 0.000000 0.000000
# 2 -0.010412 0.024053 -0.004334 0.000000 0.000000 0.000000
# 3 -0.004334 -0.004334 0.011580 0.000000 0.000000 0.000000
# 4 0.000000 0.000000 0.000000 0.059628 0.000000 0.000000
# 5 0.000000 0.000000 0.000000 0.000000 0.059628 0.000000
# 6 0.000000 0.000000 0.000000 0.000000 0.000000 0.074539
#
#
# Mechanical properties :
#
#
# Convention : Reuss Voigt Hill
#
# Bulk Modulus (GPa) = 46.45465 49.96208 48.20836
# Shear Modulus (GPa) = 16.73268 18.25275 17.49271
#
# Velocity S-wave (km/s) = 2.97897 3.11134 3.04587
# Velocity P-wave (km/s) = 6.03901 6.27732 6.15932
#
# Compressibility (1/GPa) = 0.02152637
#
# Stress axis : x y z
#
# Youngs Moduli (GPa) = 41.57481 41.57481 86.35706
#
# Poissons Ratio (x) = 0.43286 0.37428
# Poissons Ratio (y) = 0.43286 0.37428
# Poissons Ratio (z) = 0.18019 0.18019
#
# Static dielectric constant tensor:
#      x y z
#    x 1.666290 0.000000 0.000000 
#    y 0.000000 1.666290 0.000000 
#    z 0.000000 0.000000 1.676650 
# 
# From -- ./inp_files/379.got.cif
#   From: 2010.05.17/outbox.cif.g08.bks.cpg/sg138_1_cif.got.tgz:379.got - 2010.05.20 13:08:53.
