data_PCOD9570262
_publ_section_title
;
Structure prediction by ZEFSAII (Michael W. Deem and Ramdas Pophale) SiO2 
 PCOD9570262
Probable space group: P 42/N M C
;
_chemical_formula_sum "Si O2"
_cell_formula_units_Z 72
_cell_length_a 18.284928
_cell_length_b 18.284928
_cell_length_c 11.134686
_cell_angle_alpha 90.000000
_cell_angle_beta 90.000000
_cell_angle_gamma 90.000000
_cell_volume 3722.755239
_symmetry_space_group_name_H-M "P 42/N M C"
_symmetry_group_IT_number 137
_space_group.IT_coordinate_system_code '2'
_symmetry_cell_setting 'tetragonal'
loop_
_space_group_symop_operation_xyz
x,y,z
1/2-y,x,1/2+z
1/2-x,1/2-y,z
y,1/2-x,1/2+z
1/2+x,-y,-z
-x,1/2+y,-z
1/2+y,1/2+x,1/2-z
-y,-x,1/2-z
-x,-y,-z
1/2+y,-x,1/2-z
1/2+x,1/2+y,-z
-y,1/2+x,1/2-z
1/2-x,y,z
x,1/2-y,z
1/2-y,1/2-x,1/2+z
y,x,1/2+z
loop_
_atom_site_type_symbol
_atom_site_label
_atom_site_fract_x
_atom_site_fract_y
_atom_site_fract_z
Si Si1 0.164623 0.918588 0.156723
Si Si2 0.837844 0.582623 0.771403
Si Si3 0.664200 0.600738 0.504474
Si Si4 0.669262 0.330739 0.250000
Si Si5 0.073145 0.667564 0.977514
O O1 0.145053 0.854948 0.250000
O O2 0.250000 0.920763 0.126890
O O3 0.143644 0.996554 0.214868
O O4 0.114935 0.896917 0.044924
O O5 0.750000 0.586652 0.766134
O O6 0.863740 0.613838 0.641677
O O7 0.863756 0.622577 0.892320
O O8 0.750000 0.622058 0.499121
O O9 0.659783 0.513329 0.486760
O O10 0.750000 0.333763 0.189436
O O11 0.666109 0.395792 0.343625
O O12 0.090621 0.750000 0.025885
#
# Coordination Sequence:
#
# PCOD9570262 Si02
#       5
#    16  16  16   8  16
#     4  11  21  36  58  86 121 158 196 241 291 349
#     4  10  23  42  62  89 122 154 199 255 305 366
#     4  10  22  42  64  86 119 157 197 253 311 362
#     4   9  18  32  50  78 118 158 198 244 287 342
#     4  10  20  36  56  83 119 157 199 244 293 354
#
# _framework density 19.340512
#
# number of rings (size 3 to 8) (size 9 to 14) (size 15 to 20)
#    0.000    1.889    2.222    1.333    0.000    6.444 
#    2.000    6.667    0.000    0.000    0.000    0.000 
#    0.000    0.000    0.000    0.000    0.000    0.000 
#
# Total GULP energy -401364.536249 kJ/mol
# GULP energy per Si atom -5574.507448 kJ/mol
# Density = 1.929649 g / cm^3
# Si number density = 19.340512 Si / 1000 Ang^3
#
#
#
# Elastic Constant Matrix: (Units=GPa)
#
#
# Indices 1 2 3 4 5 6 
#
# 1 24.2867 19.1799 29.8035 0.0000 0.0000 0.0000
# 2 19.1799 24.2904 29.8055 0.0000 0.0000 0.0000
# 3 29.8035 29.8055 115.8766 0.0000 0.0000 0.0000
# 4 0.0000 0.0000 0.0000 33.3778 0.0000 0.0000
# 5 0.0000 0.0000 0.0000 0.0000 33.3770 0.0000
# 6 0.0000 0.0000 0.0000 0.0000 0.0000 24.0659
#
#
#
# Elastic Compliance Matrix: (Units=1/GPa)
#
#
# Indices 1 2 3 4 5 6 
#
# 1 0.115653 -0.080102 -0.009142 0.000000 0.000000 0.000000
# 2 -0.080102 0.115634 -0.009141 0.000000 0.000000 0.000000
# 3 -0.009142 -0.009141 0.013332 0.000000 0.000000 0.000000
# 4 0.000000 0.000000 0.000000 0.029960 0.000000 0.000000
# 5 0.000000 0.000000 0.000000 0.000000 0.029961 0.000000
# 6 0.000000 0.000000 0.000000 0.000000 0.000000 0.041553
#
#
# Mechanical properties :
#
#
# Convention : Reuss Voigt Hill
#
# Bulk Modulus (GPa) = 20.89924 35.78128 28.34026
# Shear Modulus (GPa) = 8.94755 23.87512 16.41133
#
# Velocity S-wave (km/s) = 2.15322 3.51730 2.91614
# Velocity P-wave (km/s) = 4.12447 5.91913 5.10134
#
# Compressibility (1/GPa) = 0.04784864
#
# Stress axis : x y z
#
# Youngs Moduli (GPa) = 8.64659 8.64797 75.00510
#
# Poissons Ratio (x) = 0.69272 0.68571
# Poissons Ratio (y) = 0.69261 0.68561
# Poissons Ratio (z) = 0.07905 0.07905
#
# Static dielectric constant tensor:
#      x y z
#    x 1.674140 0.000000 0.000000 
#    y 0.000000 1.674130 0.000000 
#    z 0.000000 0.000000 1.734250 
# 
# From -- ./inp_files/3461.got.cif
#   From: 2010.05.17/outbox.cif.g08.bks.cpg/sg137_2_cif.got.tgz:3461.got - 2010.05.20 13:01:12.
