data_PCOD9570540
_publ_section_title
;
Structure prediction by ZEFSAII (Michael W. Deem and Ramdas Pophale) SiO2 
 PCOD9570540
Probable space group: P 42/N M C
;
_chemical_formula_sum "Si O2"
_cell_formula_units_Z 80
_cell_length_a 14.218411
_cell_length_b 14.218411
_cell_length_c 21.304697
_cell_angle_alpha 90.000000
_cell_angle_beta 90.000000
_cell_angle_gamma 90.000000
_cell_volume 4307.025963
_symmetry_space_group_name_H-M "P 42/N M C"
_symmetry_group_IT_number 137
_space_group.IT_coordinate_system_code '2'
_symmetry_cell_setting 'tetragonal'
loop_
_space_group_symop_operation_xyz
x,y,z
1/2-y,x,1/2+z
1/2-x,1/2-y,z
y,1/2-x,1/2+z
1/2+x,-y,-z
-x,1/2+y,-z
1/2+y,1/2+x,1/2-z
-y,-x,1/2-z
-x,-y,-z
1/2+y,-x,1/2-z
1/2+x,1/2+y,-z
-y,1/2+x,1/2-z
1/2-x,y,z
x,1/2-y,z
1/2-y,1/2-x,1/2+z
y,x,1/2+z
loop_
_atom_site_type_symbol
_atom_site_label
_atom_site_fract_x
_atom_site_fract_y
_atom_site_fract_z
Si Si1 0.141305 0.639610 0.374087
Si Si2 0.135118 0.141057 0.327066
Si Si3 0.033231 0.363405 0.704142
Si Si4 0.863795 0.965796 0.547570
Si Si5 0.639946 0.636717 0.924129
O O1 0.250000 0.621468 0.356670
O O2 0.130903 0.750000 0.388372
O O3 0.117155 0.573153 0.432718
O O4 0.072888 0.614862 0.316944
O O5 0.250000 0.138152 0.327154
O O6 0.108145 0.250000 0.321599
O O7 0.100386 0.081142 0.267446
O O8 0.104126 0.096510 0.393063
O O9 0.036993 0.250000 0.709257
O O10 0.093957 0.388621 0.642546
O O11 0.750000 0.957182 0.545321
O O12 0.897018 0.925138 0.481444
O O13 0.750000 0.612026 0.936007
O O14 0.635601 0.750000 0.920323
#
# Coordination Sequence:
#
# PCOD9570540 Si02
#       5
#    16  16  16  16  16
#     4   9  18  32  46  61  86 119 154 189 216 246
#     4   9  16  27  43  63  87 112 139 174 216 264
#     4   9  17  28  43  63  86 115 148 179 218 263
#     4   9  17  28  43  63  86 115 148 179 218 263
#     4   9  16  27  44  66  90 113 140 179 226 276
#
# _framework density 18.574301999999999
#
# number of rings (size 3 to 8) (size 9 to 14) (size 15 to 20)
#    0.000    3.000    0.000    1.200    0.000    6.400 
#    0.000    3.000    0.000    8.400    0.000    0.000 
#    0.000    0.000    0.000    0.000    0.000   40.400 
#
# Total GULP energy -446116.107410 kJ/mol
# GULP energy per Si atom -5576.451343 kJ/mol
# Density = 1.853203 g / cm^3
# Si number density = 18.574302 Si / 1000 Ang^3
#
#
#
# Elastic Constant Matrix: (Units=GPa)
#
#
# Indices 1 2 3 4 5 6 
#
# 1 71.8784 15.0211 33.1830 0.0000 0.0000 0.0000
# 2 15.0211 71.8784 33.1830 0.0000 0.0000 0.0000
# 3 33.1830 33.1830 97.5591 0.0000 0.0000 0.0000
# 4 0.0000 0.0000 0.0000 15.5243 0.0000 0.0000
# 5 0.0000 0.0000 0.0000 0.0000 15.5243 0.0000
# 6 0.0000 0.0000 0.0000 0.0000 0.0000 6.1040
#
#
#
# Elastic Compliance Matrix: (Units=1/GPa)
#
#
# Indices 1 2 3 4 5 6 
#
# 1 0.016567 -0.001021 -0.005288 0.000000 0.000000 0.000000
# 2 -0.001021 0.016567 -0.005288 0.000000 0.000000 0.000000
# 3 -0.005288 -0.005288 0.013847 0.000000 0.000000 0.000000
# 4 0.000000 0.000000 0.000000 0.064415 0.000000 0.000000
# 5 0.000000 0.000000 0.000000 0.000000 0.064415 0.000000
# 6 0.000000 0.000000 0.000000 0.000000 0.000000 0.163828
#
#
# Mechanical properties :
#
#
# Convention : Reuss Voigt Hill
#
# Bulk Modulus (GPa) = 42.03761 44.89889 43.46825
# Shear Modulus (GPa) = 13.48578 18.09242 15.78910
#
# Velocity S-wave (km/s) = 2.69745 3.12437 2.91873
# Velocity P-wave (km/s) = 5.69060 6.10251 5.90015
#
# Compressibility (1/GPa) = 0.02378822
#
# Stress axis : x y z
#
# Youngs Moduli (GPa) = 60.36166 60.36166 72.21694
#
# Poissons Ratio (x) = 0.06163 0.38185
# Poissons Ratio (y) = 0.06163 0.38185
# Poissons Ratio (z) = 0.31917 0.31917
#
# Static dielectric constant tensor:
#      x y z
#    x 1.669170 0.000000 0.000000 
#    y 0.000000 1.669170 0.000000 
#    z 0.000000 0.000000 1.646090 
# 
# From -- ./inp_files/7528.got.cif
#   From: 2010.05.17/outbox.cif.g08.bks.cpg/sg137_4_cif.got.tgz:7528.got - 2010.05.20 13:01:12.
