data_PCOD9570014
_publ_section_title
;
Structure prediction by ZEFSAII (Michael W. Deem and Ramdas Pophale) SiO2 
 PCOD9570014
Probable space group: P 42/N M C
;
_chemical_formula_sum "Si O2"
_cell_formula_units_Z 80
_cell_length_a 17.453871
_cell_length_b 17.453871
_cell_length_c 14.188049
_cell_angle_alpha 90.000000
_cell_angle_beta 90.000000
_cell_angle_gamma 90.000000
_cell_volume 4322.213379
_symmetry_space_group_name_H-M "P 42/N M C"
_symmetry_group_IT_number 137
_space_group.IT_coordinate_system_code '2'
_symmetry_cell_setting 'tetragonal'
loop_
_space_group_symop_operation_xyz
x,y,z
1/2-y,x,1/2+z
1/2-x,1/2-y,z
y,1/2-x,1/2+z
1/2+x,-y,-z
-x,1/2+y,-z
1/2+y,1/2+x,1/2-z
-y,-x,1/2-z
-x,-y,-z
1/2+y,-x,1/2-z
1/2+x,1/2+y,-z
-y,1/2+x,1/2-z
1/2-x,y,z
x,1/2-y,z
1/2-y,1/2-x,1/2+z
y,x,1/2+z
loop_
_atom_site_type_symbol
_atom_site_label
_atom_site_fract_x
_atom_site_fract_y
_atom_site_fract_z
Si Si1 0.926212 0.160666 0.457027
Si Si2 0.839717 0.067313 0.828157
Si Si3 0.560151 0.568290 0.245911
Si Si4 0.934278 0.938170 0.532302
Si Si5 0.660926 0.484143 0.377264
O O1 0.913404 0.250000 0.432400
O O2 0.901486 0.147215 0.566231
O O3 0.884630 0.096614 0.392553
O O4 0.016601 0.139914 0.462370
O O5 0.883129 0.116872 0.750000
O O6 0.750000 0.068083 0.810873
O O7 0.871887 0.980893 0.815634
O O8 0.504363 0.495638 0.250000
O O9 0.553957 0.595463 0.138881
O O10 0.638234 0.531920 0.283753
O O11 0.867593 0.958612 0.460139
O O12 0.000000 0.000000 0.500000
O O13 0.750000 0.468196 0.381618
#
# Coordination Sequence:
#
# PCOD9570014 Si02
#       5
#    16  16  16  16  16
#     4  10  20  35  56  80 115 156 189 230 288 351
#     4  10  20  33  55  84 115 149 186 236 292 346
#     4  11  18  34  59  81 113 151 200 237 276 343
#     4  10  18  34  57  80 107 151 199 237 278 337
#     4  11  22  37  58  89 119 149 196 248 290 340
#
# _framework density 18.509035999999998
#
# number of rings (size 3 to 8) (size 9 to 14) (size 15 to 20)
#    0.000    1.600    6.000    3.600    0.000    4.600 
#    0.000    2.000    0.000    2.400    0.000    2.800 
#    0.000    0.000    0.000    0.000    0.000    0.000 
#
# Total GULP energy -445359.041834 kJ/mol
# GULP energy per Si atom -5566.988023 kJ/mol
# Density = 1.846691 g / cm^3
# Si number density = 18.509036 Si / 1000 Ang^3
#
#
#
# Elastic Constant Matrix: (Units=GPa)
#
#
# Indices 1 2 3 4 5 6 
#
# 1 47.6130 46.3386 7.3589 0.0000 0.0000 0.0000
# 2 46.3386 47.6121 7.3582 0.0000 0.0000 0.0000
# 3 7.3589 7.3582 60.2617 0.0000 0.0000 0.0000
# 4 0.0000 0.0000 0.0000 19.2687 0.0000 0.0000
# 5 0.0000 0.0000 0.0000 0.0000 19.2691 0.0000
# 6 0.0000 0.0000 0.0000 0.0000 0.0000 14.3479
#
#
#
# Elastic Compliance Matrix: (Units=1/GPa)
#
#
# Indices 1 2 3 4 5 6 
#
# 1 0.397903 -0.387055 -0.001329 0.000000 0.000000 0.000000
# 2 -0.387055 0.397910 -0.001321 0.000000 0.000000 0.000000
# 3 -0.001329 -0.001321 0.016918 0.000000 0.000000 0.000000
# 4 0.000000 0.000000 0.000000 0.051898 0.000000 0.000000
# 5 0.000000 0.000000 0.000000 0.000000 0.051897 0.000000
# 6 0.000000 0.000000 0.000000 0.000000 0.000000 0.069697
#
#
# Mechanical properties :
#
#
# Convention : Reuss Voigt Hill
#
# Bulk Modulus (GPa) = 30.01161 30.84424 30.42793
# Shear Modulus (GPa) = 2.81415 16.87255 9.84335
#
# Velocity S-wave (km/s) = 1.23439 3.02252 2.30861
# Velocity P-wave (km/s) = 4.27568 5.37415 4.85607
#
# Compressibility (1/GPa) = 0.03332044
#
# Stress axis : x y z
#
# Youngs Moduli (GPa) = 2.51318 2.51313 59.10901
#
# Poissons Ratio (x) = 0.97272 0.07856
# Poissons Ratio (y) = 0.97274 0.07809
# Poissons Ratio (z) = 0.00334 0.00332
#
# Static dielectric constant tensor:
#      x y z
#    x 1.679010 0.000000 0.000000 
#    y 0.000000 1.679020 0.000000 
#    z 0.000000 0.000000 1.467470 
# 
# From -- ./inp_files/4964.got.cif
#   From: 2010.05.17/outbox.cif.g08.bks.cpg/sg137_3_cif.got.tgz:4964.got - 2010.05.20 13:01:12.
