data_PCOD9570310
_publ_section_title
;
Structure prediction by ZEFSAII (Michael W. Deem and Ramdas Pophale) SiO2 
 PCOD9570310
Probable space group: P 42/N M C
;
_chemical_formula_sum "Si O2"
_cell_formula_units_Z 54
_cell_length_a 10.676166
_cell_length_b 10.676166
_cell_length_c 22.431637
_cell_angle_alpha 90.000000
_cell_angle_beta 90.000000
_cell_angle_gamma 90.000000
_cell_volume 2556.769660
_symmetry_space_group_name_H-M "P 42/N M C"
_symmetry_group_IT_number 137
_space_group.IT_coordinate_system_code '2'
_symmetry_cell_setting 'tetragonal'
loop_
_space_group_symop_operation_xyz
x,y,z
1/2-y,x,1/2+z
1/2-x,1/2-y,z
y,1/2-x,1/2+z
1/2+x,-y,-z
-x,1/2+y,-z
1/2+y,1/2+x,1/2-z
-y,-x,1/2-z
-x,-y,-z
1/2+y,-x,1/2-z
1/2+x,1/2+y,-z
-y,1/2+x,1/2-z
1/2-x,y,z
x,1/2-y,z
1/2-y,1/2-x,1/2+z
y,x,1/2+z
loop_
_atom_site_type_symbol
_atom_site_label
_atom_site_fract_x
_atom_site_fract_y
_atom_site_fract_z
Si Si1 0.889566 0.750000 0.943024
Si Si2 0.528633 0.993321 0.875329
Si Si3 0.897878 0.102123 0.750000
Si Si4 0.495875 0.750000 0.069513
Si Si5 0.250000 0.520529 0.840219
Si Si6 0.250000 0.750000 0.750000
Si Si7 0.250000 0.250000 0.851647
O O1 0.750000 0.750000 0.968351
O O2 0.908671 0.627578 0.903161
O O3 0.981144 0.750000 0.999390
O O4 0.564009 0.020738 0.806992
O O5 0.565618 0.119845 0.910402
O O6 0.378302 0.971134 0.877478
O O7 0.750000 0.083582 0.736536
O O8 0.627370 0.750000 0.106611
O O9 0.250000 0.627501 0.791122
O O10 0.250000 0.378356 0.814858
#
# Coordination Sequence:
#
# PCOD9570310 Si02
#       7
#     8  16   8   8   8   2   4
#     4  12  25  42  69 102 141 168 233 292 339 406
#     4  11  23  43  68 100 132 184 231 276 351 406
#     4  11  23  42  67  93 140 184 230 280 334 411
#     4  10  20  43  67  94 131 181 226 281 339 408
#     4  10  22  38  64  87 133 165 214 270 328 407
#     4  12  20  36  56 100 128 168 212 284 344 378
#     4   8  18  38  64  86 118 176 218 252 330 392
#
# _framework density 21.120401999999999
#
# number of rings (size 3 to 8) (size 9 to 14) (size 15 to 20)
#    0.000    1.333    2.222    3.556    0.000    1.185 
#    0.000    1.481    6.519    0.000    0.000    0.000 
#    0.000    0.000    0.000    0.000    0.000    0.000 
#
# Total GULP energy -301914.565167 kJ/mol
# GULP energy per Si atom -5591.010466 kJ/mol
# Density = 2.107233 g / cm^3
# Si number density = 21.120402 Si / 1000 Ang^3
#
#
#
# Elastic Constant Matrix: (Units=GPa)
#
#
# Indices 1 2 3 4 5 6 
#
# 1 96.6689 26.9913 33.8818 0.0000 0.0000 0.0000
# 2 26.9913 96.6692 33.8818 0.0000 0.0000 0.0000
# 3 33.8818 33.8818 132.8224 0.0000 0.0000 0.0000
# 4 0.0000 0.0000 0.0000 9.6993 0.0000 0.0000
# 5 0.0000 0.0000 0.0000 0.0000 9.6995 0.0000
# 6 0.0000 0.0000 0.0000 0.0000 0.0000 0.2437
#
#
#
# Elastic Compliance Matrix: (Units=1/GPa)
#
#
# Indices 1 2 3 4 5 6 
#
# 1 0.011876 -0.002476 -0.002398 0.000000 0.000000 0.000000
# 2 -0.002476 0.011876 -0.002398 0.000000 0.000000 0.000000
# 3 -0.002398 -0.002398 0.008752 0.000000 0.000000 0.000000
# 4 0.000000 0.000000 0.000000 0.103100 0.000000 0.000000
# 5 0.000000 0.000000 0.000000 0.000000 0.103098 0.000000
# 6 0.000000 0.000000 0.000000 0.000000 0.000000 4.102659
#
#
# Mechanical properties :
#
#
# Convention : Reuss Voigt Hill
#
# Bulk Modulus (GPa) = 55.67432 57.29671 56.48551
# Shear Modulus (GPa) = 1.14629 19.35555 10.25092
#
# Velocity S-wave (km/s) = 0.73751 3.03056 2.20547
# Velocity P-wave (km/s) = 5.20988 6.27959 5.76958
#
# Compressibility (1/GPa) = 0.01796160
#
# Stress axis : x y z
#
# Youngs Moduli (GPa) = 84.20134 84.20171 114.25576
#
# Poissons Ratio (x) = 0.20844 0.27399
# Poissons Ratio (y) = 0.20844 0.27399
# Poissons Ratio (z) = 0.20192 0.20192
#
# Static dielectric constant tensor:
#      x y z
#    x 1.769260 0.000000 0.000000 
#    y 0.000000 1.769250 0.000000 
#    z 0.000000 0.000000 1.699880 
# 
# From -- ./inp_files/7325.got.cif
#   From: 2010.05.17/outbox.cif.g08.bks.cpg/sg137_4_cif.got.tgz:7325.got - 2010.05.20 13:01:12.
