data_PCOD9570198
_publ_section_title
;
Structure prediction by ZEFSAII (Michael W. Deem and Ramdas Pophale) SiO2 
 PCOD9570198
Probable space group: P 42/N M C
;
_chemical_formula_sum "Si O2"
_cell_formula_units_Z 104
_cell_length_a 20.493170
_cell_length_b 20.493170
_cell_length_c 15.792718
_cell_angle_alpha 90.000000
_cell_angle_beta 90.000000
_cell_angle_gamma 90.000000
_cell_volume 6632.468041
_symmetry_space_group_name_H-M "P 42/N M C"
_symmetry_group_IT_number 137
_space_group.IT_coordinate_system_code '2'
_symmetry_cell_setting 'tetragonal'
loop_
_space_group_symop_operation_xyz
x,y,z
1/2-y,x,1/2+z
1/2-x,1/2-y,z
y,1/2-x,1/2+z
1/2+x,-y,-z
-x,1/2+y,-z
1/2+y,1/2+x,1/2-z
-y,-x,1/2-z
-x,-y,-z
1/2+y,-x,1/2-z
1/2+x,1/2+y,-z
-y,1/2+x,1/2-z
1/2-x,y,z
x,1/2-y,z
1/2-y,1/2-x,1/2+z
y,x,1/2+z
loop_
_atom_site_type_symbol
_atom_site_label
_atom_site_fract_x
_atom_site_fract_y
_atom_site_fract_z
Si Si1 0.672995 0.327006 0.250000
Si Si2 0.585921 0.973110 0.074980
Si Si3 0.326408 0.594240 0.580416
Si Si4 0.928936 0.326031 0.519048
Si Si5 0.932187 0.172844 0.720629
Si Si6 0.087437 0.024321 0.581589
Si Si7 0.073493 0.038789 0.253293
O O1 0.750000 0.336222 0.230640
O O2 0.655892 0.370585 0.330811
O O3 0.585366 0.941314 0.167384
O O4 0.529574 0.028941 0.079549
O O5 0.564287 0.921369 0.004251
O O6 0.648210 0.011313 0.038390
O O7 0.250000 0.602002 0.567362
O O8 0.367239 0.630837 0.508418
O O9 0.348207 0.519395 0.584722
O O10 0.916511 0.250000 0.503831
O O11 0.940762 0.335791 0.618991
O O12 0.869325 0.130676 0.750000
O O13 0.925904 0.250000 0.738466
O O14 0.996144 0.139149 0.761381
O O15 0.076448 0.067662 0.664620
O O16 0.016266 0.983735 0.250000
#
# Coordination Sequence:
#
# PCOD9570198 Si02
#       7
#     8  16  16  16  16  16  16
#     4   9  18  32  44  58  90 132 168 196 225 274
#     4   9  17  30  48  70  91 119 157 204 251 287
#     4  10  21  31  44  68  97 130 161 194 237 286
#     4  10  20  34  51  69  95 131 170 203 231 280
#     4  10  21  35  50  70  98 133 168 203 238 281
#     4   9  17  29  46  68  91 118 157 200 249 291
#     4   9  17  30  50  69  92 123 157 204 252 291
#
# _framework density 15.680438000000001
#
# number of rings (size 3 to 8) (size 9 to 14) (size 15 to 20)
#    0.000    2.538    1.538    0.462   11.846    1.692 
#    0.000    1.538    0.000    0.000    0.000    0.000 
#    0.000    5.538    0.000    0.000    0.000    0.000 
#
# Total GULP energy -579419.206855 kJ/mol
# GULP energy per Si atom -5571.338527 kJ/mol
# Density = 1.564475 g / cm^3
# Si number density = 15.680438 Si / 1000 Ang^3
#
#
#
# Elastic Constant Matrix: (Units=GPa)
#
#
# Indices 1 2 3 4 5 6 
#
# 1 34.7479 36.2138 19.2718 0.0000 0.0000 0.0000
# 2 36.2138 34.7475 19.2711 0.0000 0.0000 0.0000
# 3 19.2718 19.2711 69.8882 0.0000 0.0000 0.0000
# 4 0.0000 0.0000 0.0000 16.5742 0.0000 0.0000
# 5 0.0000 0.0000 0.0000 0.0000 16.5741 0.0000
# 6 0.0000 0.0000 0.0000 0.0000 0.0000 18.0782
#
#
#
# Elastic Compliance Matrix: (Units=1/GPa)
#
#
# Indices 1 2 3 4 5 6 
#
# 1 -0.332759 0.349333 -0.004567 0.000000 0.000000 0.000000
# 2 0.349333 -0.332758 -0.004574 0.000000 0.000000 0.000000
# 3 -0.004567 -0.004574 0.016829 0.000000 0.000000 0.000000
# 4 0.000000 0.000000 0.000000 0.060335 0.000000 0.000000
# 5 0.000000 0.000000 0.000000 0.000000 0.060335 0.000000
# 6 0.000000 0.000000 0.000000 0.000000 0.000000 0.055315
#
#
# Mechanical properties :
#
#
# Convention : Reuss Voigt Hill
#
# Bulk Modulus (GPa) = 31.54902 32.09965 31.82434
# Shear Modulus (GPa) = -4.37628 14.55375 5.08873
#
# Velocity S-wave (km/s) = -1.67242 3.04986 1.80342
# Velocity P-wave (km/s) = 4.05393 5.73740 4.96750
#
# Compressibility (1/GPa) = 0.03169671
#
# Stress axis : x y z
#
# Youngs Moduli (GPa) = -3.00518 -3.00518 59.42082
#
# Poissons Ratio (x) = 1.04981 0.27138
# Poissons Ratio (y) = 1.04981 0.27178
# Poissons Ratio (z) = -0.01372 -0.01374
#
# Static dielectric constant tensor:
#      x y z
#    x 1.516360 0.000000 0.000000 
#    y 0.000000 1.516360 0.000000 
#    z 0.000000 0.000000 1.546730 
# 
# From -- ./inp_files/5364.got.cif
#   From: 2010.05.17/outbox.cif.g08.bks.cpg/sg137_3_cif.got.tgz:5364.got - 2010.05.20 13:01:12.
