data_PCOD9570298
_publ_section_title
;
Structure prediction by ZEFSAII (Michael W. Deem and Ramdas Pophale) SiO2 
 PCOD9570298
Probable space group: P 42/N M C
;
_chemical_formula_sum "Si O2"
_cell_formula_units_Z 88
_cell_length_a 13.530171
_cell_length_b 13.530171
_cell_length_c 21.586048
_cell_angle_alpha 90.000000
_cell_angle_beta 90.000000
_cell_angle_gamma 90.000000
_cell_volume 3951.661259
_symmetry_space_group_name_H-M "P 42/N M C"
_symmetry_group_IT_number 137
_space_group.IT_coordinate_system_code '2'
_symmetry_cell_setting 'tetragonal'
loop_
_space_group_symop_operation_xyz
x,y,z
1/2-y,x,1/2+z
1/2-x,1/2-y,z
y,1/2-x,1/2+z
1/2+x,-y,-z
-x,1/2+y,-z
1/2+y,1/2+x,1/2-z
-y,-x,1/2-z
-x,-y,-z
1/2+y,-x,1/2-z
1/2+x,1/2+y,-z
-y,1/2+x,1/2-z
1/2-x,y,z
x,1/2-y,z
1/2-y,1/2-x,1/2+z
y,x,1/2+z
loop_
_atom_site_type_symbol
_atom_site_label
_atom_site_fract_x
_atom_site_fract_y
_atom_site_fract_z
Si Si1 0.926435 0.866696 0.069798
Si Si2 0.936705 0.358068 0.383283
Si Si3 0.566213 0.633018 0.930438
Si Si4 0.449684 0.140785 0.697413
Si Si5 0.859810 0.364180 0.875967
Si Si6 0.429927 0.929927 0.750000
O O1 0.905528 0.750000 0.079415
O O2 0.044401 0.881702 0.081299
O O3 0.871445 0.944368 0.113343
O O4 0.901219 0.895750 0.999262
O O5 0.908121 0.250000 0.406171
O O6 0.895660 0.451601 0.420616
O O7 0.903332 0.373180 0.312365
O O8 0.573913 0.750000 0.927593
O O9 0.627026 0.590870 0.872790
O O10 0.425772 0.250000 0.721566
O O11 0.566143 0.131689 0.683563
O O12 0.414821 0.046606 0.735756
O O13 0.750000 0.382604 0.903632
O O14 0.864143 0.250000 0.858090
#
# Coordination Sequence:
#
# PCOD9570298 Si02
#       6
#    16  16  16  16  16   8
#     4  10  20  38  63  91 125 155 185 237 300 361
#     4  11  24  41  62  87 117 158 205 250 296 344
#     4  10  22  40  60  88 122 156 197 242 294 353
#     4  10  21  37  60  86 116 155 195 240 298 360
#     4   9  17  31  55  88 120 147 181 230 292 357
#     4  10  22  40  56  86 116 154 200 254 296 340
#
# _framework density 22.269114999999999
#
# number of rings (size 3 to 8) (size 9 to 14) (size 15 to 20)
#    0.000    2.000    3.636    0.545    0.000    6.909 
#    0.000    3.636    0.000    0.000    0.000    0.000 
#    0.000    0.000    0.000    0.000    0.000    0.000 
#
# Total GULP energy -491405.503618 kJ/mol
# GULP energy per Si atom -5584.153450 kJ/mol
# Density = 2.221843 g / cm^3
# Si number density = 22.269115 Si / 1000 Ang^3
#
#
#
# Elastic Constant Matrix: (Units=GPa)
#
#
# Indices 1 2 3 4 5 6 
#
# 1 32.4395 10.8992 2.2503 0.0000 0.0000 0.0000
# 2 10.8992 32.4395 2.2503 0.0000 0.0000 0.0000
# 3 2.2503 2.2503 57.2827 0.0000 0.0000 0.0000
# 4 0.0000 0.0000 0.0000 0.9960 0.0000 0.0000
# 5 0.0000 0.0000 0.0000 0.0000 0.9960 0.0000
# 6 0.0000 0.0000 0.0000 0.0000 0.0000 11.7337
#
#
#
# Elastic Compliance Matrix: (Units=1/GPa)
#
#
# Indices 1 2 3 4 5 6 
#
# 1 0.034797 -0.011628 -0.000910 0.000000 0.000000 0.000000
# 2 -0.011628 0.034797 -0.000910 0.000000 0.000000 0.000000
# 3 -0.000910 -0.000910 0.017529 0.000000 0.000000 0.000000
# 4 0.000000 0.000000 0.000000 1.004026 0.000000 0.000000
# 5 0.000000 0.000000 0.000000 0.000000 1.004026 0.000000
# 6 0.000000 0.000000 0.000000 0.000000 0.000000 0.085225
#
#
# Mechanical properties :
#
#
# Convention : Reuss Voigt Hill
#
# Bulk Modulus (GPa) = 16.60430 16.99568 16.79999
# Shear Modulus (GPa) = 2.24480 9.86261 6.05370
#
# Velocity S-wave (km/s) = 1.00510 2.10676 1.65055
# Velocity P-wave (km/s) = 2.96974 3.68327 3.34558
#
# Compressibility (1/GPa) = 0.06022536
#
# Stress axis : x y z
#
# Youngs Moduli (GPa) = 28.73849 28.73849 57.04899
#
# Poissons Ratio (x) = 0.33417 0.05192
# Poissons Ratio (y) = 0.33417 0.05192
# Poissons Ratio (z) = 0.02616 0.02616
#
# Static dielectric constant tensor:
#      x y z
#    x 1.852830 0.000000 0.000000 
#    y 0.000000 1.852830 0.000000 
#    z 0.000000 0.000000 1.818120 
# 
# From -- ./inp_files/7745.got.cif
#   From: 2010.05.17/outbox.cif.g08.bks.cpg/sg137_4_cif.got.tgz:7745.got - 2010.05.20 13:01:12.
