data_PCOD9570823
_publ_section_title
;
Structure prediction by ZEFSAII (Michael W. Deem and Ramdas Pophale) SiO2 
 PCOD9570823
Probable space group: P 42/N C M
;
_chemical_formula_sum "Si O2"
_cell_formula_units_Z 112
_cell_length_a 15.858933
_cell_length_b 15.858933
_cell_length_c 22.295148
_cell_angle_alpha 90.000000
_cell_angle_beta 90.000000
_cell_angle_gamma 90.000000
_cell_volume 5607.358051
_symmetry_space_group_name_H-M "P 42/N C M"
_symmetry_group_IT_number 138
_space_group.IT_coordinate_system_code '2'
_symmetry_cell_setting 'tetragonal'
loop_
_space_group_symop_operation_xyz
x,y,z
1/2-y,x,1/2+z
1/2-x,1/2-y,z
y,1/2-x,1/2+z
1/2+x,-y,1/2-z
-x,1/2+y,1/2-z
1/2+y,1/2+x,-z
-y,-x,-z
-x,-y,-z
1/2+y,-x,1/2-z
1/2+x,1/2+y,-z
-y,1/2+x,1/2-z
1/2-x,y,1/2+z
x,1/2-y,1/2+z
1/2-y,1/2-x,z
y,x,z
loop_
_atom_site_type_symbol
_atom_site_label
_atom_site_fract_x
_atom_site_fract_y
_atom_site_fract_z
Si Si1 0.922227 0.296922 0.428835
Si Si2 0.452781 0.181148 0.338284
Si Si3 0.180006 0.681465 0.839014
Si Si4 0.063823 0.202223 0.231921
Si Si5 0.430744 0.569153 0.753244
Si Si6 0.255762 0.388488 0.610299
Si Si7 0.570217 0.282736 0.064349
O O1 0.016886 0.308193 0.405885
O O2 0.881612 0.236843 0.378581
O O3 0.874501 0.386826 0.428700
O O4 0.912154 0.259355 0.495017
O O5 0.452360 0.263222 0.297562
O O6 0.519236 0.122075 0.302743
O O7 0.363187 0.136814 0.334692
O O8 0.250000 0.750000 0.815957
O O9 0.120189 0.632037 0.791624
O O10 0.119506 0.727176 0.886944
O O11 0.146549 0.146549 0.234663
O O12 0.079987 0.268658 0.179264
O O13 0.986646 0.141516 0.215470
O O14 0.499882 0.499882 0.727906
O O15 0.180214 0.319787 0.609767
O O16 0.339416 0.339416 0.589732
O O17 0.226940 0.471147 0.575222
#
# Coordination Sequence:
#
# PCOD9570823 Si02
#       7
#    16  16  16  16  16  16  16
#     4  10  21  39  57  85 118 153 194 242 299 355
#     4  11  22  36  56  84 115 149 193 239 289 351
#     4  10  20  38  59  88 119 153 197 247 299 358
#     4  10  20  37  58  80 115 155 190 232 294 361
#     4  10  21  37  58  86 122 156 193 247 304 364
#     4  10  21  38  60  86 115 152 201 250 296 350
#     4  10  21  37  62  83 113 156 197 243 297 352
#
# _framework density 19.973755000000001
#
# number of rings (size 3 to 8) (size 9 to 14) (size 15 to 20)
#    0.000    1.857    1.429    2.571    0.000    7.714 
#    0.000    2.857    0.000    1.714    0.000    0.000 
#    0.000    0.000    0.000    0.000    0.000    0.000 
#
# Total GULP energy -624611.141079 kJ/mol
# GULP energy per Si atom -5576.885188 kJ/mol
# Density = 1.992829 g / cm^3
# Si number density = 19.973755 Si / 1000 Ang^3
#
#
#
# Elastic Constant Matrix: (Units=GPa)
#
#
# Indices 1 2 3 4 5 6 
#
# 1 72.6856 19.3254 19.2121 0.0000 0.0000 0.0000
# 2 19.3254 72.6856 19.2121 0.0000 0.0000 0.0000
# 3 19.2121 19.2121 64.0077 0.0000 0.0000 0.0000
# 4 0.0000 0.0000 0.0000 13.1968 0.0000 0.0000
# 5 0.0000 0.0000 0.0000 0.0000 13.1968 0.0000
# 6 0.0000 0.0000 0.0000 0.0000 0.0000 20.3339
#
#
#
# Elastic Compliance Matrix: (Units=1/GPa)
#
#
# Indices 1 2 3 4 5 6 
#
# 1 0.015583 -0.003157 -0.003730 0.000000 0.000000 0.000000
# 2 -0.003157 0.015583 -0.003730 0.000000 0.000000 0.000000
# 3 -0.003730 -0.003730 0.017862 0.000000 0.000000 0.000000
# 4 0.000000 0.000000 0.000000 0.075776 0.000000 0.000000
# 5 0.000000 0.000000 0.000000 0.000000 0.075776 0.000000
# 6 0.000000 0.000000 0.000000 0.000000 0.000000 0.049179
#
#
# Mechanical properties :
#
#
# Convention : Reuss Voigt Hill
#
# Bulk Modulus (GPa) = 35.97760 36.09755 36.03757
# Shear Modulus (GPa) = 17.84072 19.45412 18.64742
#
# Velocity S-wave (km/s) = 2.99190 3.12426 3.05880
# Velocity P-wave (km/s) = 5.47602 5.57910 5.52780
#
# Compressibility (1/GPa) = 0.02779508
#
# Stress axis : x y z
#
# Youngs Moduli (GPa) = 64.17183 64.17183 55.98469
#
# Poissons Ratio (x) = 0.20262 0.20880
# Poissons Ratio (y) = 0.20262 0.20880
# Poissons Ratio (z) = 0.23934 0.23934
#
# Static dielectric constant tensor:
#      x y z
#    x 1.731370 0.000000 0.000000 
#    y 0.000000 1.731370 0.000000 
#    z 0.000000 0.000000 1.709680 
# 
# From -- ./inp_files/7063.got.cif
#   From: 2010.05.17/outbox.cif.g08.bks.cpg/sg138_4_cif.got.tgz:7063.got - 2010.05.20 13:08:53.
