data_PCOD9570604
_publ_section_title
;
Structure prediction by ZEFSAII (Michael W. Deem and Ramdas Pophale) SiO2 
 PCOD9570604
Probable space group: P 42/N C M
;
_chemical_formula_sum "Si O2"
_cell_formula_units_Z 88
_cell_length_a 29.112698
_cell_length_b 29.112698
_cell_length_c 5.732023
_cell_angle_alpha 90.000000
_cell_angle_beta 90.000000
_cell_angle_gamma 90.000000
_cell_volume 4858.171421
_symmetry_space_group_name_H-M "P 42/N C M"
_symmetry_group_IT_number 138
_space_group.IT_coordinate_system_code '2'
_symmetry_cell_setting 'tetragonal'
loop_
_space_group_symop_operation_xyz
x,y,z
1/2-y,x,1/2+z
1/2-x,1/2-y,z
y,1/2-x,1/2+z
1/2+x,-y,1/2-z
-x,1/2+y,1/2-z
1/2+y,1/2+x,-z
-y,-x,-z
-x,-y,-z
1/2+y,-x,1/2-z
1/2+x,1/2+y,-z
-y,1/2+x,1/2-z
1/2-x,y,1/2+z
x,1/2-y,1/2+z
1/2-y,1/2-x,z
y,x,z
loop_
_atom_site_type_symbol
_atom_site_label
_atom_site_fract_x
_atom_site_fract_y
_atom_site_fract_z
Si Si1 0.563396 0.863108 0.521179
Si Si2 0.599486 0.738376 0.018761
Si Si3 0.922863 0.504194 0.830715
Si Si4 0.416427 0.583574 0.000000
Si Si5 0.994441 0.271541 0.014127
Si Si6 0.862527 0.025530 0.709134
O O1 0.597568 0.902433 0.421240
O O2 0.589497 0.815607 0.549674
O O3 0.542490 0.885263 0.755242
O O4 0.518179 0.851603 0.370785
O O5 0.621656 0.745226 0.762594
O O6 0.550165 0.765502 0.994899
O O7 0.971486 0.528515 0.808599
O O8 0.917244 0.461759 0.658954
O O9 0.910380 0.487625 0.086719
O O10 0.371855 0.573251 0.157901
O O11 0.979913 0.246861 0.769520
O O12 0.975063 0.322695 0.981729
#
# Coordination Sequence:
#
# PCOD9570604 Si02
#       6
#    16  16  16   8  16  16
#     4  10  20  31  47  72  97 122 161 208 255 302
#     4  10  18  32  50  70  94 125 153 200 251 306
#     4  10  20  33  46  63  92 134 174 212 249 290
#     4  10  23  32  44  66  92 134 178 217 240 296
#     4  10  19  32  54  73  92 123 161 209 252 306
#     4  11  20  33  49  66  97 129 171 209 257 294
#
# _framework density 18.113810000000001
#
# number of rings (size 3 to 8) (size 9 to 14) (size 15 to 20)
#    0.000    1.818    3.636    3.545    2.545    2.909 
#    0.000    0.000    0.000    0.000    0.000    0.000 
#    0.000    2.182    0.000    0.000    0.000    2.727 
#
# Total GULP energy -490012.419557 kJ/mol
# GULP energy per Si atom -5568.322950 kJ/mol
# Density = 1.807258 g / cm^3
# Si number density = 18.113810 Si / 1000 Ang^3
#
#
#
# Elastic Constant Matrix: (Units=GPa)
#
#
# Indices 1 2 3 4 5 6 
#
# 1 26.2981 3.0670 2.4395 0.0000 0.0000 0.0000
# 2 3.0670 26.2967 2.4392 0.0000 0.0000 0.0000
# 3 2.4395 2.4392 92.3393 0.0000 0.0000 0.0000
# 4 0.0000 0.0000 0.0000 78.2591 0.0000 0.0000
# 5 0.0000 0.0000 0.0000 0.0000 78.2870 0.0000
# 6 0.0000 0.0000 0.0000 0.0000 0.0000 4.3933
#
#
#
# Elastic Compliance Matrix: (Units=1/GPa)
#
#
# Indices 1 2 3 4 5 6 
#
# 1 0.038625 -0.004421 -0.000904 0.000000 0.000000 0.000000
# 2 -0.004421 0.038627 -0.000904 0.000000 0.000000 0.000000
# 3 -0.000904 -0.000904 0.010877 0.000000 0.000000 0.000000
# 4 0.000000 0.000000 0.000000 0.012778 0.000000 0.000000
# 5 0.000000 0.000000 0.000000 0.000000 0.012774 0.000000
# 6 0.000000 0.000000 0.000000 0.000000 0.000000 0.227622
#
#
# Mechanical properties :
#
#
# Convention : Reuss Voigt Hill
#
# Bulk Modulus (GPa) = 13.21476 17.86950 15.54213
# Shear Modulus (GPa) = 13.19318 41.32043 27.25681
#
# Velocity S-wave (km/s) = 2.70172 4.78133 3.88332
# Velocity P-wave (km/s) = 4.12840 6.35358 5.35778
#
# Compressibility (1/GPa) = 0.07567294
#
# Stress axis : x y z
#
# Youngs Moduli (GPa) = 25.88995 25.88856 91.93401
#
# Poissons Ratio (x) = 0.11445 0.08308
# Poissons Ratio (y) = 0.11446 0.08307
# Poissons Ratio (z) = 0.02340 0.02339
#
# Static dielectric constant tensor:
#      x y z
#    x 1.652710 0.000000 0.000000 
#    y 0.000000 1.652710 0.000000 
#    z 0.000000 0.000000 1.728400 
# 
# From -- ./inp_files/518.got.cif
#   From: 2010.05.17/outbox.cif.g08.bks.cpg/sg138_1_cif.got.tgz:518.got - 2010.05.20 13:08:53.
