data_PCOD9570367
_publ_section_title
;
Structure prediction by ZEFSAII (Michael W. Deem and Ramdas Pophale) SiO2 
 PCOD9570367
Probable space group: P 42/N M C
;
_chemical_formula_sum "Si O2"
_cell_formula_units_Z 112
_cell_length_a 15.274142
_cell_length_b 15.274142
_cell_length_c 24.088159
_cell_angle_alpha 90.000000
_cell_angle_beta 90.000000
_cell_angle_gamma 90.000000
_cell_volume 5619.753375
_symmetry_space_group_name_H-M "P 42/N M C"
_symmetry_group_IT_number 137
_space_group.IT_coordinate_system_code '2'
_symmetry_cell_setting 'tetragonal'
loop_
_space_group_symop_operation_xyz
x,y,z
1/2-y,x,1/2+z
1/2-x,1/2-y,z
y,1/2-x,1/2+z
1/2+x,-y,-z
-x,1/2+y,-z
1/2+y,1/2+x,1/2-z
-y,-x,1/2-z
-x,-y,-z
1/2+y,-x,1/2-z
1/2+x,1/2+y,-z
-y,1/2+x,1/2-z
1/2-x,y,z
x,1/2-y,z
1/2-y,1/2-x,1/2+z
y,x,1/2+z
loop_
_atom_site_type_symbol
_atom_site_label
_atom_site_fract_x
_atom_site_fract_y
_atom_site_fract_z
Si Si1 0.482944 0.460746 0.837672
Si Si2 0.649052 0.652009 0.455677
Si Si3 0.145531 0.646438 0.371301
Si Si4 0.517253 0.919369 0.541016
Si Si5 0.353925 0.845124 0.998136
Si Si6 0.350190 0.148153 0.763977
Si Si7 0.955589 0.849862 0.845580
O O1 0.579555 0.416086 0.837987
O O2 0.445554 0.447187 0.899597
O O3 0.419608 0.412459 0.795094
O O4 0.487289 0.565606 0.829783
O O5 0.750000 0.641937 0.473152
O O6 0.637719 0.750000 0.432872
O O7 0.584903 0.639613 0.507064
O O8 0.632296 0.583291 0.406650
O O9 0.250000 0.633446 0.360251
O O10 0.126528 0.750000 0.362243
O O11 0.132423 0.626914 0.437273
O O12 0.421010 0.878312 0.543820
O O13 0.500000 0.000000 0.500000
O O14 0.250000 0.837387 0.996856
O O15 0.394222 0.750000 0.985680
O O16 0.250000 0.132525 0.783820
O O17 0.370915 0.250000 0.772057
O O18 0.350492 0.122760 0.699181
O O19 0.992447 0.750000 0.844379
#
# Coordination Sequence:
#
# PCOD9570367 Si02
#       7
#    16  16  16  16  16  16  16
#     4  12  23  37  60  91 122 161 197 244 305 369
#     4  10  21  37  59  86 116 155 203 253 302 353
#     4   9  18  33  54  82 116 152 189 231 283 351
#     4  12  22  34  50  84 122 155 187 235 291 354
#     4   9  18  33  52  72 102 149 198 236 275 337
#     4  10  23  43  65  89 119 157 203 255 310 368
#     4  10  21  40  64  88 115 152 206 263 309 353
#
# _framework density 19.9297
#
# number of rings (size 3 to 8) (size 9 to 14) (size 15 to 20)
#    0.000    1.714    2.857    2.571    0.000    7.429 
#    0.000    1.429    0.000    0.429    0.000    4.000 
#    0.000    0.000    0.000    0.000    0.000    0.000 
#
# Total GULP energy -625054.692029 kJ/mol
# GULP energy per Si atom -5580.845465 kJ/mol
# Density = 1.988434 g / cm^3
# Si number density = 19.929700 Si / 1000 Ang^3
#
#
#
# Elastic Constant Matrix: (Units=GPa)
#
#
# Indices 1 2 3 4 5 6 
#
# 1 86.5868 51.9434 26.4743 0.0000 0.0000 0.0000
# 2 51.9434 86.5868 26.4743 0.0000 0.0000 0.0000
# 3 26.4743 26.4743 55.6826 0.0000 0.0000 0.0000
# 4 0.0000 0.0000 0.0000 0.4406 0.0000 0.0000
# 5 0.0000 0.0000 0.0000 0.0000 0.4406 0.0000
# 6 0.0000 0.0000 0.0000 0.0000 0.0000 31.4310
#
#
#
# Elastic Compliance Matrix: (Units=1/GPa)
#
#
# Indices 1 2 3 4 5 6 
#
# 1 0.018844 -0.010022 -0.004194 0.000000 0.000000 0.000000
# 2 -0.010022 0.018844 -0.004194 0.000000 0.000000 0.000000
# 3 -0.004194 -0.004194 0.021947 0.000000 0.000000 0.000000
# 4 0.000000 0.000000 0.000000 2.269869 0.000000 0.000000
# 5 0.000000 0.000000 0.000000 0.000000 2.269869 0.000000
# 6 0.000000 0.000000 0.000000 0.000000 0.000000 0.031816
#
#
# Mechanical properties :
#
#
# Convention : Reuss Voigt Hill
#
# Bulk Modulus (GPa) = 43.83350 48.73781 46.28565
# Shear Modulus (GPa) = 1.06938 14.72670 7.89804
#
# Velocity S-wave (km/s) = 0.73331 2.72128 1.99288
# Velocity P-wave (km/s) = 4.77062 5.86360 5.34512
#
# Compressibility (1/GPa) = 0.02281360
#
# Stress axis : x y z
#
# Youngs Moduli (GPa) = 53.06835 53.06835 45.56365
#
# Poissons Ratio (x) = 0.53184 0.19111
# Poissons Ratio (y) = 0.53184 0.19111
# Poissons Ratio (z) = 0.22259 0.22259
#
# Static dielectric constant tensor:
#      x y z
#    x 2.732170 0.000000 0.000000 
#    y 0.000000 2.732170 0.000000 
#    z 0.000000 0.000000 1.675780 
# 
# From -- ./inp_files/8982.got.cif
#   From: 2010.05.17/outbox.cif.g08.bks.cpg/sg137_5_cif.got.tgz:8982.got - 2010.05.20 13:01:12.
