data_PCOD9570961
_publ_section_title
;
Structure prediction by ZEFSAII (Michael W. Deem and Ramdas Pophale) SiO2 
 PCOD9570961
Probable space group: P 42/N C M
;
_chemical_formula_sum "Si O2"
_cell_formula_units_Z 68
_cell_length_a 10.601426
_cell_length_b 10.601426
_cell_length_c 32.669522
_cell_angle_alpha 90.000000
_cell_angle_beta 90.000000
_cell_angle_gamma 90.000000
_cell_volume 3671.735197
_symmetry_space_group_name_H-M "P 42/N C M"
_symmetry_group_IT_number 138
_space_group.IT_coordinate_system_code '2'
_symmetry_cell_setting 'tetragonal'
loop_
_space_group_symop_operation_xyz
x,y,z
1/2-y,x,1/2+z
1/2-x,1/2-y,z
y,1/2-x,1/2+z
1/2+x,-y,1/2-z
-x,1/2+y,1/2-z
1/2+y,1/2+x,-z
-y,-x,-z
-x,-y,-z
1/2+y,-x,1/2-z
1/2+x,1/2+y,-z
-y,1/2+x,1/2-z
1/2-x,y,1/2+z
x,1/2-y,1/2+z
1/2-y,1/2-x,z
y,x,z
loop_
_atom_site_type_symbol
_atom_site_label
_atom_site_fract_x
_atom_site_fract_y
_atom_site_fract_z
Si Si1 0.749609 0.460082 0.112010
Si Si2 0.608337 0.891664 0.046418
Si Si3 0.393963 0.393963 0.179986
Si Si4 0.108336 0.391665 0.046417
Si Si5 0.539918 0.250391 0.112009
Si Si6 0.250000 0.250000 0.750000
Si Si7 0.393965 0.106036 0.320014
O O1 0.780908 0.547775 0.073448
O O2 0.632491 0.367509 0.103326
O O3 0.870705 0.370706 0.119682
O O4 0.712285 0.541352 0.151448
O O5 0.500000 1.000000 0.044309
O O6 0.641529 0.858472 0.000000
O O7 0.458647 0.287713 0.151448
O O8 0.335436 0.335436 0.220407
O O9 0.499999 0.499999 0.188514
O O10 0.219092 0.452226 0.073448
O O11 0.335436 0.335436 0.779593
#
# Coordination Sequence:
#
# PCOD9570961 Si02
#       7
#    16   8   8   8  16   4   8
#     4   9  18  34  54  73 100 138 171 204 249 298
#     4   9  17  29  49  78 106 135 175 215 249 289
#     4  10  22  38  55  78 103 130 169 207 249 311
#     4   9  17  29  49  78 106 135 175 215 249 289
#     4   9  18  34  54  73 100 138 171 204 249 298
#     4  12  24  36  56  80 102 128 156 208 268 300
#     4  10  22  38  55  78 103 130 169 207 249 311
#
# _framework density 18.519856000000001
#
# number of rings (size 3 to 8) (size 9 to 14) (size 15 to 20)
#    0.000    2.588    0.000    1.412    0.000    2.824 
#    0.000    7.059    0.000    4.235    0.000    0.000 
#    0.000    0.000    0.000    0.000    0.000    0.000 
#
# Total GULP energy -379561.523405 kJ/mol
# GULP energy per Si atom -5581.787109 kJ/mol
# Density = 1.847770 g / cm^3
# Si number density = 18.519856 Si / 1000 Ang^3
#
#
#
# Elastic Constant Matrix: (Units=GPa)
#
#
# Indices 1 2 3 4 5 6 
#
# 1 80.4392 59.1370 87.9587 0.0000 0.0000 0.0000
# 2 59.1370 80.4392 87.9587 0.0000 0.0000 0.0000
# 3 87.9587 87.9587 201.1869 0.0000 0.0000 0.0000
# 4 0.0000 0.0000 0.0000 -7.3247 0.0000 0.0000
# 5 0.0000 0.0000 0.0000 0.0000 -7.3247 0.0000
# 6 0.0000 0.0000 0.0000 0.0000 0.0000 17.7192
#
#
#
# Elastic Compliance Matrix: (Units=1/GPa)
#
#
# Indices 1 2 3 4 5 6 
#
# 1 0.031451 -0.015493 -0.006977 0.000000 0.000000 0.000000
# 2 -0.015493 0.031451 -0.006977 0.000000 0.000000 0.000000
# 3 -0.006977 -0.006977 0.011071 0.000000 0.000000 0.000000
# 4 0.000000 0.000000 0.000000 -0.136525 0.000000 0.000000
# 5 0.000000 0.000000 0.000000 0.000000 -0.136525 0.000000
# 6 0.000000 0.000000 0.000000 0.000000 0.000000 0.056436
#
#
# Mechanical properties :
#
#
# Convention : Reuss Voigt Hill
#
# Bulk Modulus (GPa) = 66.31471 92.46380 79.38925
# Shear Modulus (GPa) = -63.51473 9.08136 -27.21669
#
# Velocity S-wave (km/s) = -5.86259 2.21680 -3.83769
# Velocity P-wave (km/s) = 3.15301 7.52247 4.82939
#
# Compressibility (1/GPa) = 0.01507961
#
# Stress axis : x y z
#
# Youngs Moduli (GPa) = 31.79592 31.79592 90.32647
#
# Poissons Ratio (x) = 0.49261 0.63018
# Poissons Ratio (y) = 0.49261 0.63018
# Poissons Ratio (z) = 0.22183 0.22183
#
# Static dielectric constant tensor:
#      x y z
#    x 1.654600 0.000000 0.000000 
#    y 0.000000 1.654600 0.000000 
#    z 0.000000 0.000000 1.586050 
# 
# From -- ./inp_files/7826.got.cif
#   From: 2010.05.17/outbox.cif.g08.bks.cpg/sg138_4_cif.got.tgz:7826.got - 2010.05.20 13:08:53.
