data_PCOD9570129
_publ_section_title
;
Structure prediction by ZEFSAII (Michael W. Deem and Ramdas Pophale) SiO2 
 PCOD9570129
Probable space group: P 42/N M C
;
_chemical_formula_sum "Si O2"
_cell_formula_units_Z 128
_cell_length_a 24.125902
_cell_length_b 24.125902
_cell_length_c 12.217032
_cell_angle_alpha 90.000000
_cell_angle_beta 90.000000
_cell_angle_gamma 90.000000
_cell_volume 7111.035229
_symmetry_space_group_name_H-M "P 42/N M C"
_symmetry_group_IT_number 137
_space_group.IT_coordinate_system_code '2'
_symmetry_cell_setting 'tetragonal'
loop_
_space_group_symop_operation_xyz
x,y,z
1/2-y,x,1/2+z
1/2-x,1/2-y,z
y,1/2-x,1/2+z
1/2+x,-y,-z
-x,1/2+y,-z
1/2+y,1/2+x,1/2-z
-y,-x,1/2-z
-x,-y,-z
1/2+y,-x,1/2-z
1/2+x,1/2+y,-z
-y,1/2+x,1/2-z
1/2-x,y,z
x,1/2-y,z
1/2-y,1/2-x,1/2+z
y,x,1/2+z
loop_
_atom_site_type_symbol
_atom_site_label
_atom_site_fract_x
_atom_site_fract_y
_atom_site_fract_z
Si Si1 0.316521 0.505621 0.553159
Si Si2 0.609065 0.684074 0.073841
Si Si3 0.346543 0.886433 0.432227
Si Si4 0.816763 0.951190 0.791777
Si Si5 0.187582 0.576614 0.204501
Si Si6 0.642476 0.184367 0.365995
Si Si7 0.582175 0.816893 0.532125
Si Si8 0.482680 0.817149 0.691567
O O1 0.250000 0.517615 0.542095
O O2 0.324501 0.443904 0.505871
O O3 0.348299 0.552223 0.483295
O O4 0.332133 0.510720 0.680709
O O5 0.622159 0.750000 0.071537
O O6 0.588690 0.666543 0.194518
O O7 0.659074 0.643318 0.048151
O O8 0.311883 0.890775 0.319652
O O9 0.400424 0.855724 0.383177
O O10 0.328871 0.848177 0.534177
O O11 0.750000 0.948112 0.793751
O O12 0.829616 0.014532 0.765833
O O13 0.836339 0.936534 0.912077
O O14 0.250000 0.576647 0.157691
O O15 0.670321 0.170321 0.250000
O O16 0.644222 0.250000 0.385322
O O17 0.577696 0.165979 0.354410
O O18 0.583497 0.750000 0.535242
O O19 0.535328 0.835340 0.619310
O O20 0.482422 0.750000 0.688237
#
# Coordination Sequence:
#
# PCOD9570129 Si02
#       8
#    16  16  16  16  16  16  16  16
#     4  10  19  35  57  79 106 145 194 238 275 333
#     4  10  21  36  58  86 116 150 185 224 279 344
#     4  11  20  32  57  84 106 143 191 242 288 334
#     4   9  18  36  57  79 109 147 190 230 272 327
#     4  10  20  35  57  82 107 141 191 247 290 330
#     4  11  22  36  55  82 116 154 194 237 293 348
#     4  10  21  36  59  89 118 147 184 232 282 335
#     4   9  19  36  58  81 109 149 197 239 273 326
#
# _framework density 18.000192999999999
#
# number of rings (size 3 to 8) (size 9 to 14) (size 15 to 20)
#    0.000    2.000    2.500    1.500    1.750    2.875 
#    0.000    0.000    0.000   20.625    0.000    0.000 
#    0.000    0.000    0.000    0.000    0.000    0.000 
#
# Total GULP energy -713144.754176 kJ/mol
# GULP energy per Si atom -5571.443392 kJ/mol
# Density = 1.795922 g / cm^3
# Si number density = 18.000193 Si / 1000 Ang^3
#
#
#
# Elastic Constant Matrix: (Units=GPa)
#
#
# Indices 1 2 3 4 5 6 
#
# 1 50.8538 27.3988 24.7003 0.0000 0.0000 0.0000
# 2 27.3988 50.8538 24.7003 0.0000 0.0000 0.0000
# 3 24.7003 24.7003 119.5853 0.0000 0.0000 0.0000
# 4 0.0000 0.0000 0.0000 13.6394 0.0000 0.0000
# 5 0.0000 0.0000 0.0000 0.0000 13.6394 0.0000
# 6 0.0000 0.0000 0.0000 0.0000 0.0000 -18.2696
#
#
#
# Elastic Compliance Matrix: (Units=1/GPa)
#
#
# Indices 1 2 3 4 5 6 
#
# 1 0.028665 -0.013970 -0.003035 0.000000 0.000000 0.000000
# 2 -0.013970 0.028665 -0.003035 0.000000 0.000000 0.000000
# 3 -0.003035 -0.003035 0.009616 0.000000 0.000000 0.000000
# 4 0.000000 0.000000 0.000000 0.073317 0.000000 0.000000
# 5 0.000000 0.000000 0.000000 0.000000 0.073317 0.000000
# 6 0.000000 0.000000 0.000000 0.000000 0.000000 -0.054736
#
#
# Mechanical properties :
#
#
# Convention : Reuss Voigt Hill
#
# Bulk Modulus (GPa) = 37.22247 41.65462 39.43854
# Shear Modulus (GPa) = 24.05226 11.43473 17.74349
#
# Velocity S-wave (km/s) = 3.65940 2.52316 3.14305
# Velocity P-wave (km/s) = 6.21118 5.62849 5.92700
#
# Compressibility (1/GPa) = 0.02686550
#
# Stress axis : x y z
#
# Youngs Moduli (GPa) = 34.88575 34.88575 103.99214
#
# Poissons Ratio (x) = 0.48734 0.31565
# Poissons Ratio (y) = 0.48734 0.31565
# Poissons Ratio (z) = 0.10589 0.10589
#
# Static dielectric constant tensor:
#      x y z
#    x 1.606240 0.000000 0.000000 
#    y 0.000000 1.606240 0.000000 
#    z 0.000000 0.000000 1.651330 
# 
# From -- ./inp_files/4003.got.cif
#   From: 2010.05.17/outbox.cif.g08.bks.cpg/sg137_3_cif.got.tgz:4003.got - 2010.05.20 13:01:12.
