data_PCOD9570145
_publ_section_title
;
Structure prediction by ZEFSAII (Michael W. Deem and Ramdas Pophale) SiO2 
 PCOD9570145
Probable space group: P 42/N M C
;
_chemical_formula_sum "Si O2"
_cell_formula_units_Z 96
_cell_length_a 15.054307
_cell_length_b 15.054307
_cell_length_c 22.755628
_cell_angle_alpha 90.000000
_cell_angle_beta 90.000000
_cell_angle_gamma 90.000000
_cell_volume 5157.157109
_symmetry_space_group_name_H-M "P 42/N M C"
_symmetry_group_IT_number 137
_space_group.IT_coordinate_system_code '2'
_symmetry_cell_setting 'tetragonal'
loop_
_space_group_symop_operation_xyz
x,y,z
1/2-y,x,1/2+z
1/2-x,1/2-y,z
y,1/2-x,1/2+z
1/2+x,-y,-z
-x,1/2+y,-z
1/2+y,1/2+x,1/2-z
-y,-x,1/2-z
-x,-y,-z
1/2+y,-x,1/2-z
1/2+x,1/2+y,-z
-y,1/2+x,1/2-z
1/2-x,y,z
x,1/2-y,z
1/2-y,1/2-x,1/2+z
y,x,1/2+z
loop_
_atom_site_type_symbol
_atom_site_label
_atom_site_fract_x
_atom_site_fract_y
_atom_site_fract_z
Si Si1 0.393541 0.353251 0.005467
Si Si2 0.144415 0.850733 0.632848
Si Si3 0.350945 0.144337 0.871675
Si Si4 0.606791 0.353167 0.998617
Si Si5 0.651888 0.001889 0.902447
Si Si6 0.481816 0.498111 0.818624
O O1 0.372179 0.250000 0.015998
O O2 0.357583 0.415479 0.056296
O O3 0.358138 0.378016 0.941003
O O4 0.500203 0.362787 0.002736
O O5 0.250000 0.868078 0.639363
O O6 0.126292 0.750000 0.653224
O O7 0.124238 0.856286 0.563084
O O8 0.084553 0.923129 0.664819
O O9 0.250000 0.126788 0.852079
O O10 0.368391 0.250000 0.866607
O O11 0.421756 0.085705 0.837493
O O12 0.627509 0.250000 0.986743
O O13 0.641002 0.416097 0.947488
O O14 0.750000 0.004197 0.875404
O O15 0.571870 0.002480 0.856413
O O16 0.501898 0.498103 0.750000
#
# Coordination Sequence:
#
# PCOD9570145 Si02
#       6
#    16  16  16  16  16  16
#     4  10  19  36  63  93 126 155 182 232 303 368
#     4  10  21  38  62  92 122 151 187 235 297 368
#     4  10  21  39  65  93 118 151 195 244 301 361
#     4  10  19  36  63  93 125 153 181 230 302 369
#     4  12  24  38  59  88 121 159 201 241 292 354
#     4  12  26  42  59  80 115 162 210 255 294 334
#
# _framework density 18.614906999999999
#
# number of rings (size 3 to 8) (size 9 to 14) (size 15 to 20)
#    0.000    1.333    3.333    3.000    0.000    4.000 
#    0.000    0.833    0.000    0.000    0.000    1.167 
#    0.000    0.000    0.000    0.000    0.000    0.000 
#
# Total GULP energy -536787.060140 kJ/mol
# GULP energy per Si atom -5591.531876 kJ/mol
# Density = 1.857254 g / cm^3
# Si number density = 18.614907 Si / 1000 Ang^3
#
#
#
# Elastic Constant Matrix: (Units=GPa)
#
#
# Indices 1 2 3 4 5 6 
#
# 1 103.5292 55.0023 53.8972 0.0000 0.0000 0.0000
# 2 55.0023 103.5300 53.8977 0.0000 0.0000 0.0000
# 3 53.8972 53.8977 105.5390 0.0000 0.0000 0.0000
# 4 0.0000 0.0000 0.0000 -1.9128 0.0000 0.0000
# 5 0.0000 0.0000 0.0000 0.0000 -1.9118 0.0000
# 6 0.0000 0.0000 0.0000 0.0000 0.0000 -123.1599
#
#
#
# Elastic Compliance Matrix: (Units=1/GPa)
#
#
# Indices 1 2 3 4 5 6 
#
# 1 0.015135 -0.005472 -0.004935 0.000000 0.000000 0.000000
# 2 -0.005472 0.015135 -0.004935 0.000000 0.000000 0.000000
# 3 -0.004935 -0.004935 0.014516 0.000000 0.000000 0.000000
# 4 0.000000 0.000000 0.000000 -0.522803 0.000000 0.000000
# 5 0.000000 0.000000 0.000000 0.000000 -0.523074 0.000000
# 6 0.000000 0.000000 0.000000 0.000000 0.000000 -0.008120
#
#
# Mechanical properties :
#
#
# Convention : Reuss Voigt Hill
#
# Bulk Modulus (GPa) = 70.90910 70.91028 70.90969
# Shear Modulus (GPa) = -5.13439 -15.41015 -10.27227
#
# Velocity S-wave (km/s) = -1.66259 -2.88034 -2.35166
# Velocity P-wave (km/s) = 5.87280 5.20713 5.54995
#
# Compressibility (1/GPa) = 0.01410256
#
# Stress axis : x y z
#
# Youngs Moduli (GPa) = 66.07100 66.07126 68.89110
#
# Poissons Ratio (x) = 0.36152 0.33998
# Poissons Ratio (y) = 0.36152 0.33998
# Poissons Ratio (z) = 0.32606 0.32606
#
# Static dielectric constant tensor:
#      x y z
#    x 1.656960 0.000000 0.000000 
#    y 0.000000 1.656960 0.000000 
#    z 0.000000 0.000000 1.593080 
# 
# From -- ./inp_files/7812.got.cif
#   From: 2010.05.17/outbox.cif.g08.bks.cpg/sg137_4_cif.got.tgz:7812.got - 2010.05.20 13:01:12.
