data_PCOD9570888
_publ_section_title
;
Structure prediction by ZEFSAII (Michael W. Deem and Ramdas Pophale) SiO2 
 PCOD9570888
Probable space group: P 42/N C M
;
_chemical_formula_sum "Si O2"
_cell_formula_units_Z 80
_cell_length_a 11.318021
_cell_length_b 11.318021
_cell_length_c 27.894408
_cell_angle_alpha 90.000000
_cell_angle_beta 90.000000
_cell_angle_gamma 90.000000
_cell_volume 3573.206700
_symmetry_space_group_name_H-M "P 42/N C M"
_symmetry_group_IT_number 138
_space_group.IT_coordinate_system_code '2'
_symmetry_cell_setting 'tetragonal'
loop_
_space_group_symop_operation_xyz
x,y,z
1/2-y,x,1/2+z
1/2-x,1/2-y,z
y,1/2-x,1/2+z
1/2+x,-y,1/2-z
-x,1/2+y,1/2-z
1/2+y,1/2+x,-z
-y,-x,-z
-x,-y,-z
1/2+y,-x,1/2-z
1/2+x,1/2+y,-z
-y,1/2+x,1/2-z
1/2-x,y,1/2+z
x,1/2-y,1/2+z
1/2-y,1/2-x,z
y,x,z
loop_
_atom_site_type_symbol
_atom_site_label
_atom_site_fract_x
_atom_site_fract_y
_atom_site_fract_z
Si Si1 0.051815 0.868837 0.947697
Si Si2 0.365609 0.554606 0.602211
Si Si3 0.022660 0.824025 0.812729
Si Si4 0.698465 0.990220 0.714722
Si Si5 0.275212 0.037500 0.392103
O O1 0.067629 0.732157 0.938494
O O2 0.127249 0.940344 0.908013
O O3 0.096918 0.903083 0.000000
O O4 0.918553 0.918553 0.944121
O O5 0.431554 0.431554 0.598671
O O6 0.285252 0.545578 0.650969
O O7 0.466221 0.655170 0.595907
O O8 0.922573 0.922573 0.828502
O O9 0.148966 0.883541 0.801629
O O10 0.984887 0.780653 0.760115
O O11 0.582831 0.917170 0.728966
O O12 0.742887 0.940480 0.664383
O O13 0.341234 0.158767 0.410670
#
# Coordination Sequence:
#
# PCOD9570888 Si02
#       5
#    16  16  16  16  16
#     4  10  22  44  73 101 132 177 228 279 341 413
#     4  12  25  40  66 102 137 175 221 285 355 409
#     4  11  23  39  60  94 135 177 232 286 341 411
#     4  10  21  36  57  85 125 179 228 273 333 398
#     4  10  22  42  65  93 133 183 233 277 328 407
#
# _framework density 22.388852
#
# number of rings (size 3 to 8) (size 9 to 14) (size 15 to 20)
#    0.000    1.400    2.000    3.000    0.000    9.200 
#    0.000    4.000    0.000    3.600    0.000    0.000 
#    0.000    0.000    0.000    0.000    0.000    0.000 
#
# Total GULP energy -445585.223027 kJ/mol
# GULP energy per Si atom -5569.815288 kJ/mol
# Density = 2.233789 g / cm^3
# Si number density = 22.388852 Si / 1000 Ang^3
#
#
#
# Elastic Constant Matrix: (Units=GPa)
#
#
# Indices 1 2 3 4 5 6 
#
# 1 124.6468 55.5148 29.0036 0.0000 0.0000 0.0000
# 2 55.5148 124.6484 29.0027 0.0000 0.0000 0.0000
# 3 29.0036 29.0027 85.7561 0.0000 0.0000 0.0000
# 4 0.0000 0.0000 0.0000 8.6921 0.0000 0.0000
# 5 0.0000 0.0000 0.0000 0.0000 8.6873 0.0000
# 6 0.0000 0.0000 0.0000 0.0000 0.0000 38.0479
#
#
#
# Elastic Compliance Matrix: (Units=1/GPa)
#
#
# Indices 1 2 3 4 5 6 
#
# 1 0.010347 -0.004118 -0.002107 0.000000 0.000000 0.000000
# 2 -0.004118 0.010347 -0.002107 0.000000 0.000000 0.000000
# 3 -0.002107 -0.002107 0.013086 0.000000 0.000000 0.000000
# 4 0.000000 0.000000 0.000000 0.115047 0.000000 0.000000
# 5 0.000000 0.000000 0.000000 0.000000 0.115111 0.000000
# 6 0.000000 0.000000 0.000000 0.000000 0.000000 0.026283
#
#
# Mechanical properties :
#
#
# Convention : Reuss Voigt Hill
#
# Bulk Modulus (GPa) = 58.42122 62.45484 60.43803
# Shear Modulus (GPa) = 15.99546 25.85414 20.92480
#
# Velocity S-wave (km/s) = 2.67580 3.40189 3.06045
# Velocity P-wave (km/s) = 5.97470 6.58684 6.28823
#
# Compressibility (1/GPa) = 0.01711707
#
# Stress axis : x y z
#
# Youngs Moduli (GPa) = 96.64675 96.64854 76.41810
#
# Poissons Ratio (x) = 0.39800 0.16099
# Poissons Ratio (y) = 0.39800 0.16097
# Poissons Ratio (z) = 0.20361 0.20359
#
# Static dielectric constant tensor:
#      x y z
#    x 1.871500 0.000000 0.000000 
#    y 0.000000 1.871500 0.000000 
#    z 0.000000 0.000000 1.878420 
# 
# From -- ./inp_files/7887.got.cif
#   From: 2010.05.17/outbox.cif.g08.bks.cpg/sg138_4_cif.got.tgz:7887.got - 2010.05.20 13:08:53.
