data_PCOD9570846
_publ_section_title
;
Structure prediction by ZEFSAII (Michael W. Deem and Ramdas Pophale) SiO2 
 PCOD9570846
Probable space group: P 42/N C M
;
_chemical_formula_sum "Si O2"
_cell_formula_units_Z 104
_cell_length_a 17.102800
_cell_length_b 17.102800
_cell_length_c 17.448434
_cell_angle_alpha 90.000000
_cell_angle_beta 90.000000
_cell_angle_gamma 90.000000
_cell_volume 5103.767585
_symmetry_space_group_name_H-M "P 42/N C M"
_symmetry_group_IT_number 138
_space_group.IT_coordinate_system_code '2'
_symmetry_cell_setting 'tetragonal'
loop_
_space_group_symop_operation_xyz
x,y,z
1/2-y,x,1/2+z
1/2-x,1/2-y,z
y,1/2-x,1/2+z
1/2+x,-y,1/2-z
-x,1/2+y,1/2-z
1/2+y,1/2+x,-z
-y,-x,-z
-x,-y,-z
1/2+y,-x,1/2-z
1/2+x,1/2+y,-z
-y,1/2+x,1/2-z
1/2-x,y,1/2+z
x,1/2-y,1/2+z
1/2-y,1/2-x,z
y,x,z
loop_
_atom_site_type_symbol
_atom_site_label
_atom_site_fract_x
_atom_site_fract_y
_atom_site_fract_z
Si Si1 0.589552 0.410449 0.000000
Si Si2 0.106078 0.525769 0.260150
Si Si3 0.813908 0.686093 0.785914
Si Si4 0.024118 0.300427 0.127578
Si Si5 0.183279 0.316722 0.399429
Si Si6 0.997453 0.623184 0.354152
Si Si7 0.376699 0.502977 0.468312
Si Si8 0.999725 0.285144 0.404821
O O1 0.579510 0.465951 0.927348
O O2 0.561085 0.327694 0.963372
O O3 0.141524 0.530134 0.176137
O O4 0.050520 0.596849 0.283367
O O5 0.174488 0.515603 0.322801
O O6 0.050526 0.449475 0.264977
O O7 0.750000 0.750000 0.807910
O O8 0.794630 0.603224 0.823382
O O9 0.816787 0.683214 0.693671
O O10 0.993590 0.213135 0.127922
O O11 0.034109 0.334360 0.043202
O O12 0.250000 0.250000 0.421880
O O13 0.092872 0.298761 0.423920
O O14 0.910248 0.589753 0.343213
O O15 0.420287 0.579714 0.500000
O O16 0.443494 0.443494 0.440113
O O17 0.307239 0.514826 0.408515
#
# Coordination Sequence:
#
# PCOD9570846 Si02
#       8
#     8  16   8  16   8  16  16  16
#     4  10  21  34  63  86 122 154 199 261 308 362
#     4  10  20  39  63  87 122 164 198 251 306 361
#     4  11  22  38  60  88 130 163 191 251 312 368
#     4  12  20  41  61  88 124 160 202 253 303 367
#     4  11  22  37  61  92 128 168 205 246 315 380
#     4  10  22  35  59  93 119 154 203 246 305 369
#     4  11  25  42  60  85 124 168 208 249 310 375
#     4  11  20  39  60  90 121 160 203 254 312 362
#
# _framework density 20.377103999999999
#
# number of rings (size 3 to 8) (size 9 to 14) (size 15 to 20)
#    0.000    1.231    5.385    1.154    2.154    1.231 
#    1.385    1.923    0.000    2.308    0.000    0.000 
#    0.000    0.000    0.000    0.000    0.000    0.000 
#
# Total GULP energy -580178.472494 kJ/mol
# GULP energy per Si atom -5578.639159 kJ/mol
# Density = 2.033073 g / cm^3
# Si number density = 20.377104 Si / 1000 Ang^3
#
#
#
# Elastic Constant Matrix: (Units=GPa)
#
#
# Indices 1 2 3 4 5 6 
#
# 1 74.8660 19.7950 -2.3989 0.0000 0.0000 0.0000
# 2 19.7950 74.8603 -2.3985 0.0000 0.0000 0.0000
# 3 -2.3989 -2.3985 48.4042 0.0000 0.0000 0.0000
# 4 0.0000 0.0000 0.0000 12.8308 0.0000 0.0000
# 5 0.0000 0.0000 0.0000 0.0000 12.8315 0.0000
# 6 0.0000 0.0000 0.0000 0.0000 0.0000 25.2028
#
#
#
# Elastic Compliance Matrix: (Units=1/GPa)
#
#
# Indices 1 2 3 4 5 6 
#
# 1 0.014375 -0.003784 0.000525 0.000000 0.000000 0.000000
# 2 -0.003784 0.014376 0.000525 0.000000 0.000000 0.000000
# 3 0.000525 0.000525 0.020711 0.000000 0.000000 0.000000
# 4 0.000000 0.000000 0.000000 0.077937 0.000000 0.000000
# 5 0.000000 0.000000 0.000000 0.000000 0.077933 0.000000
# 6 0.000000 0.000000 0.000000 0.000000 0.000000 0.039678
#
#
# Mechanical properties :
#
#
# Convention : Reuss Voigt Hill
#
# Bulk Modulus (GPa) = 22.73109 25.34729 24.03919
# Shear Modulus (GPa) = 18.85771 22.38188 20.61980
#
# Velocity S-wave (km/s) = 3.04540 3.31778 3.18450
# Velocity P-wave (km/s) = 4.85236 5.20990 5.03430
#
# Compressibility (1/GPa) = 0.04399260
#
# Stress axis : x y z
#
# Youngs Moduli (GPa) = 69.56726 69.56201 48.28265
#
# Poissons Ratio (x) = 0.26324 -0.02534
# Poissons Ratio (y) = 0.26326 -0.02534
# Poissons Ratio (z) = -0.03652 -0.03651
#
# Static dielectric constant tensor:
#      x y z
#    x 1.776440 0.000000 0.000000 
#    y 0.000000 1.776440 0.000000 
#    z 0.000000 0.000000 1.743030 
# 
# From -- ./inp_files/5329.got.cif
#   From: 2010.05.17/outbox.cif.g08.bks.cpg/sg138_3_cif.got.tgz:5329.got - 2010.05.20 13:08:53.
