data_PCOD9570909
_publ_section_title
;
Structure prediction by ZEFSAII (Michael W. Deem and Ramdas Pophale) SiO2 
 PCOD9570909
Probable space group: P 42/N C M
;
_chemical_formula_sum "Si O2"
_cell_formula_units_Z 80
_cell_length_a 11.015642
_cell_length_b 11.015642
_cell_length_c 32.733619
_cell_angle_alpha 90.000000
_cell_angle_beta 90.000000
_cell_angle_gamma 90.000000
_cell_volume 3972.040332
_symmetry_space_group_name_H-M "P 42/N C M"
_symmetry_group_IT_number 138
_space_group.IT_coordinate_system_code '2'
_symmetry_cell_setting 'tetragonal'
loop_
_space_group_symop_operation_xyz
x,y,z
1/2-y,x,1/2+z
1/2-x,1/2-y,z
y,1/2-x,1/2+z
1/2+x,-y,1/2-z
-x,1/2+y,1/2-z
1/2+y,1/2+x,-z
-y,-x,-z
-x,-y,-z
1/2+y,-x,1/2-z
1/2+x,1/2+y,-z
-y,1/2+x,1/2-z
1/2-x,y,1/2+z
x,1/2-y,1/2+z
1/2-y,1/2-x,z
y,x,z
loop_
_atom_site_type_symbol
_atom_site_label
_atom_site_fract_x
_atom_site_fract_y
_atom_site_fract_z
Si Si1 0.248253 0.046533 0.498322
Si Si2 0.296220 0.012564 0.716867
Si Si3 0.846775 0.354647 0.436693
Si Si4 0.372884 0.561828 0.306809
Si Si5 0.632397 0.052346 0.650087
O O1 0.345913 0.154088 0.499302
O O2 0.116244 0.116244 0.497002
O O3 0.279447 0.959045 0.536840
O O4 0.289258 0.958135 0.461023
O O5 0.165003 0.973032 0.700966
O O6 0.310132 0.963615 0.763002
O O7 0.382648 0.937952 0.686684
O O8 0.350881 0.149120 0.716369
O O9 0.750000 0.250000 0.429449
O O10 0.894979 0.402955 0.393736
O O11 0.440984 0.440984 0.319179
O O12 0.271265 0.583854 0.340402
O O13 0.587917 0.912083 0.651315
#
# Coordination Sequence:
#
# PCOD9570909 Si02
#       5
#    16  16  16  16  16
#     4  10  21  39  64  92 127 169 211 261 319 384
#     4  10  21  37  59  86 119 161 206 254 312 379
#     4  11  22  38  63  93 126 166 211 262 322 388
#     4  11  22  37  60  88 119 161 206 256 320 385
#     4  11  23  40  62  88 120 162 211 265 321 382
#
# _framework density 20.140781
#
# number of rings (size 3 to 8) (size 9 to 14) (size 15 to 20)
#    0.000    1.400    2.000    5.400    0.000    3.200 
#    0.000    5.000    0.000    1.200    0.000    0.000 
#    0.000    0.000    0.000    0.000    0.000    0.000 
#
# Total GULP energy -445767.080801 kJ/mol
# GULP energy per Si atom -5572.088510 kJ/mol
# Density = 2.009494 g / cm^3
# Si number density = 20.140781 Si / 1000 Ang^3
#
#
#
# Elastic Constant Matrix: (Units=GPa)
#
#
# Indices 1 2 3 4 5 6 
#
# 1 71.7942 54.4373 11.1806 0.0000 0.0000 0.0000
# 2 54.4373 71.7942 11.1806 0.0000 0.0000 0.0000
# 3 11.1806 11.1806 62.4757 0.0000 0.0000 0.0000
# 4 0.0000 0.0000 0.0000 31.9288 0.0000 0.0000
# 5 0.0000 0.0000 0.0000 0.0000 31.9288 0.0000
# 6 0.0000 0.0000 0.0000 0.0000 0.0000 33.5169
#
#
#
# Elastic Compliance Matrix: (Units=1/GPa)
#
#
# Indices 1 2 3 4 5 6 
#
# 1 0.032898 -0.024716 -0.001464 0.000000 0.000000 0.000000
# 2 -0.024716 0.032898 -0.001464 0.000000 0.000000 0.000000
# 3 -0.001464 -0.001464 0.016530 0.000000 0.000000 0.000000
# 4 0.000000 0.000000 0.000000 0.031320 0.000000 0.000000
# 5 0.000000 0.000000 0.000000 0.000000 0.031320 0.000000
# 6 0.000000 0.000000 0.000000 0.000000 0.000000 0.029836
#
#
# Mechanical properties :
#
#
# Convention : Reuss Voigt Hill
#
# Bulk Modulus (GPa) = 36.98721 39.96238 38.47480
# Shear Modulus (GPa) = 20.91156 28.09259 24.50208
#
# Velocity S-wave (km/s) = 3.22572 3.73877 3.49168
# Velocity P-wave (km/s) = 5.68136 6.20665 5.94980
#
# Compressibility (1/GPa) = 0.02703637
#
# Stress axis : x y z
#
# Youngs Moduli (GPa) = 30.39727 30.39727 60.49515
#
# Poissons Ratio (x) = 0.75131 0.08857
# Poissons Ratio (y) = 0.75131 0.08857
# Poissons Ratio (z) = 0.04451 0.04451
#
# Static dielectric constant tensor:
#      x y z
#    x 1.742170 0.000000 0.000000 
#    y 0.000000 1.742170 0.000000 
#    z 0.000000 0.000000 1.687960 
# 
# From -- ./inp_files/7897.got.cif
#   From: 2010.05.17/outbox.cif.g08.bks.cpg/sg138_4_cif.got.tgz:7897.got - 2010.05.20 13:08:53.
