data_PCOD9570108
_publ_section_title
;
Structure prediction by ZEFSAII (Michael W. Deem and Ramdas Pophale) SiO2 
 PCOD9570108
Probable space group: P 42/N M C
;
_chemical_formula_sum "Si O2"
_cell_formula_units_Z 80
_cell_length_a 14.006014
_cell_length_b 14.006014
_cell_length_c 20.784514
_cell_angle_alpha 90.000000
_cell_angle_beta 90.000000
_cell_angle_gamma 90.000000
_cell_volume 4077.265442
_symmetry_space_group_name_H-M "P 42/N M C"
_symmetry_group_IT_number 137
_space_group.IT_coordinate_system_code '2'
_symmetry_cell_setting 'tetragonal'
loop_
_space_group_symop_operation_xyz
x,y,z
1/2-y,x,1/2+z
1/2-x,1/2-y,z
y,1/2-x,1/2+z
1/2+x,-y,-z
-x,1/2+y,-z
1/2+y,1/2+x,1/2-z
-y,-x,1/2-z
-x,-y,-z
1/2+y,-x,1/2-z
1/2+x,1/2+y,-z
-y,1/2+x,1/2-z
1/2-x,y,z
x,1/2-y,z
1/2-y,1/2-x,1/2+z
y,x,1/2+z
loop_
_atom_site_type_symbol
_atom_site_label
_atom_site_fract_x
_atom_site_fract_y
_atom_site_fract_z
Si Si1 0.135604 0.483477 0.248557
Si Si2 0.635843 0.640865 0.626571
Si Si3 0.136299 0.045915 0.010602
Si Si4 0.362378 0.640380 0.943370
Si Si5 0.460599 0.136855 0.134810
O O1 0.250000 0.485441 0.239004
O O2 0.113777 0.430398 0.315739
O O3 0.084274 0.422212 0.192879
O O4 0.087222 0.587222 0.250000
O O5 0.750000 0.642323 0.619624
O O6 0.604832 0.750000 0.641499
O O7 0.592058 0.613032 0.558313
O O8 0.250000 0.054462 0.020012
O O9 0.112752 0.934411 0.999602
O O10 0.086884 0.098360 0.069199
O O11 0.250000 0.628275 0.929527
O O12 0.379549 0.750000 0.963017
O O13 0.427007 0.622711 0.880481
O O14 0.442892 0.250000 0.143206
#
# Coordination Sequence:
#
# PCOD9570108 Si02
#       5
#    16  16  16  16  16
#     4  11  24  41  59  81 113 152 194 238 289 350
#     4   9  18  34  57  84 114 148 184 226 283 351
#     4  10  19  33  57  87 118 151 190 236 284 338
#     4   9  19  35  54  80 117 158 195 233 284 350
#     4  11  22  37  62  92 119 147 188 249 306 344
#
# _framework density 19.620992999999999
#
# number of rings (size 3 to 8) (size 9 to 14) (size 15 to 20)
#    0.000    2.000    0.000    3.600    0.000    3.400 
#    0.000    4.000    0.000    3.600    0.000    5.600 
#    0.000    0.000    0.000    0.000    0.000    0.000 
#
# Total GULP energy -446799.828027 kJ/mol
# GULP energy per Si atom -5584.997850 kJ/mol
# Density = 1.957633 g / cm^3
# Si number density = 19.620993 Si / 1000 Ang^3
#
#
#
# Elastic Constant Matrix: (Units=GPa)
#
#
# Indices 1 2 3 4 5 6 
#
# 1 73.1188 30.7750 22.7211 0.0000 0.0000 0.0000
# 2 30.7750 73.1188 22.7211 0.0000 0.0000 0.0000
# 3 22.7211 22.7211 56.8126 0.0000 0.0000 0.0000
# 4 0.0000 0.0000 0.0000 22.9786 0.0000 0.0000
# 5 0.0000 0.0000 0.0000 0.0000 22.9786 0.0000
# 6 0.0000 0.0000 0.0000 0.0000 0.0000 29.0444
#
#
#
# Elastic Compliance Matrix: (Units=1/GPa)
#
#
# Indices 1 2 3 4 5 6 
#
# 1 0.017641 -0.005975 -0.004666 0.000000 0.000000 0.000000
# 2 -0.005975 0.017641 -0.004666 0.000000 0.000000 0.000000
# 3 -0.004666 -0.004666 0.021334 0.000000 0.000000 0.000000
# 4 0.000000 0.000000 0.000000 0.043519 0.000000 0.000000
# 5 0.000000 0.000000 0.000000 0.000000 0.043519 0.000000
# 6 0.000000 0.000000 0.000000 0.000000 0.000000 0.034430
#
#
# Mechanical properties :
#
#
# Convention : Reuss Voigt Hill
#
# Bulk Modulus (GPa) = 38.45694 39.49828 38.97761
# Shear Modulus (GPa) = 23.00299 23.45589 23.22944
#
# Velocity S-wave (km/s) = 3.42770 3.46128 3.44453
# Velocity P-wave (km/s) = 5.94205 6.01234 5.97730
#
# Compressibility (1/GPa) = 0.02600311
#
# Stress axis : x y z
#
# Youngs Moduli (GPa) = 56.68605 56.68605 46.87462
#
# Poissons Ratio (x) = 0.33871 0.21870
# Poissons Ratio (y) = 0.33871 0.21870
# Poissons Ratio (z) = 0.26447 0.26447
#
# Static dielectric constant tensor:
#      x y z
#    x 1.727560 0.000000 0.000000 
#    y 0.000000 1.727560 0.000000 
#    z 0.000000 0.000000 1.633320 
# 
# From -- ./inp_files/7582.got.cif
#   From: 2010.05.17/outbox.cif.g08.bks.cpg/sg137_4_cif.got.tgz:7582.got - 2010.05.20 13:01:12.
