data_PCOD9570316
_publ_section_title
;
Structure prediction by ZEFSAII (Michael W. Deem and Ramdas Pophale) SiO2 
 PCOD9570316
Probable space group: P 42/N M C
;
_chemical_formula_sum "Si O2"
_cell_formula_units_Z 96
_cell_length_a 13.467930
_cell_length_b 13.467930
_cell_length_c 30.699040
_cell_angle_alpha 90.000000
_cell_angle_beta 90.000000
_cell_angle_gamma 90.000000
_cell_volume 5568.349622
_symmetry_space_group_name_H-M "P 42/N M C"
_symmetry_group_IT_number 137
_space_group.IT_coordinate_system_code '2'
_symmetry_cell_setting 'tetragonal'
loop_
_space_group_symop_operation_xyz
x,y,z
1/2-y,x,1/2+z
1/2-x,1/2-y,z
y,1/2-x,1/2+z
1/2+x,-y,-z
-x,1/2+y,-z
1/2+y,1/2+x,1/2-z
-y,-x,1/2-z
-x,-y,-z
1/2+y,-x,1/2-z
1/2+x,1/2+y,-z
-y,1/2+x,1/2-z
1/2-x,y,z
x,1/2-y,z
1/2-y,1/2-x,1/2+z
y,x,1/2+z
loop_
_atom_site_type_symbol
_atom_site_label
_atom_site_fract_x
_atom_site_fract_y
_atom_site_fract_z
Si Si1 0.368989 0.518532 0.445761
Si Si2 0.638396 0.368313 0.407053
Si Si3 0.865603 0.006691 0.009734
Si Si4 0.637086 0.868803 0.318408
Si Si5 0.012950 0.020069 0.855855
Si Si6 0.136010 0.368999 0.783985
O O1 0.250000 0.532341 0.449122
O O2 0.409826 0.427719 0.475962
O O3 0.438641 0.606113 0.464980
O O4 0.403612 0.501127 0.395979
O O5 0.750000 0.407903 0.403877
O O6 0.642579 0.250000 0.403747
O O7 0.588942 0.391690 0.453543
O O8 0.563282 0.409498 0.371649
O O9 0.750000 0.984509 0.011693
O O10 0.750000 0.899948 0.331342
O O11 0.633722 0.750000 0.322241
O O12 0.546523 0.917635 0.344178
O O13 0.625416 0.893989 0.267093
O O14 0.057798 0.076334 0.814458
O O15 0.250000 0.393353 0.796947
O O16 0.124958 0.250000 0.788052
#
# Coordination Sequence:
#
# PCOD9570316 Si02
#       6
#    16  16  16  16  16  16
#     4  10  21  34  51  78 106 130 164 209 255 302
#     4   9  17  29  47  71  97 126 159 195 241 300
#     4   9  19  36  54  70  96 136 173 202 241 295
#     4   9  19  35  52  70  96 134 176 211 245 293
#     4  11  19  30  50  76 103 129 161 207 259 303
#     4   9  18  33  52  73  98 130 168 208 253 306
#
# _framework density 17.240296000000001
#
# number of rings (size 3 to 8) (size 9 to 14) (size 15 to 20)
#    0.000    2.500    0.000    3.500    0.000    2.667 
#    0.000    0.833    0.000    1.500    0.000   11.667 
#    0.000    0.000    0.000    0.000    0.000    0.000 
#
# Total GULP energy -534705.981166 kJ/mol
# GULP energy per Si atom -5569.853970 kJ/mol
# Density = 1.720106 g / cm^3
# Si number density = 17.240296 Si / 1000 Ang^3
#
#
#
# Elastic Constant Matrix: (Units=GPa)
#
#
# Indices 1 2 3 4 5 6 
#
# 1 51.3418 20.3866 24.2124 0.0000 0.0000 0.0000
# 2 20.3866 51.3418 24.2124 0.0000 0.0000 0.0000
# 3 24.2124 24.2124 39.2498 0.0000 0.0000 0.0000
# 4 0.0000 0.0000 0.0000 18.5852 0.0000 0.0000
# 5 0.0000 0.0000 0.0000 0.0000 18.5852 0.0000
# 6 0.0000 0.0000 0.0000 0.0000 0.0000 25.9602
#
#
#
# Elastic Compliance Matrix: (Units=1/GPa)
#
#
# Indices 1 2 3 4 5 6 
#
# 1 0.028098 -0.004207 -0.014738 0.000000 0.000000 0.000000
# 2 -0.004207 0.028098 -0.014738 0.000000 0.000000 0.000000
# 3 -0.014738 -0.014738 0.043661 0.000000 0.000000 0.000000
# 4 0.000000 0.000000 0.000000 0.053806 0.000000 0.000000
# 5 0.000000 0.000000 0.000000 0.000000 0.053806 0.000000
# 6 0.000000 0.000000 0.000000 0.000000 0.000000 0.038521
#
#
# Mechanical properties :
#
#
# Convention : Reuss Voigt Hill
#
# Bulk Modulus (GPa) = 30.77731 31.06178 30.91954
# Shear Modulus (GPa) = 15.42325 17.50094 16.46210
#
# Velocity S-wave (km/s) = 2.99424 3.18955 3.09344
# Velocity P-wave (km/s) = 5.46303 5.62320 5.54369
#
# Compressibility (1/GPa) = 0.03249147
#
# Stress axis : x y z
#
# Youngs Moduli (GPa) = 35.58973 35.58973 22.90377
#
# Poissons Ratio (x) = 0.14972 0.33756
# Poissons Ratio (y) = 0.14972 0.33756
# Poissons Ratio (z) = 0.52452 0.52452
#
# Static dielectric constant tensor:
#      x y z
#    x 1.583650 0.000000 0.000000 
#    y 0.000000 1.583650 0.000000 
#    z 0.000000 0.000000 1.599820 
# 
# From -- ./inp_files/10616.got.cif
#   From: 2010.05.17/outbox.cif.g08.bks.cpg/sg137_6_cif.got.tgz:10616.got - 2010.05.20 13:01:12.
