data_PCOD9570404
_publ_section_title
;
Structure prediction by ZEFSAII (Michael W. Deem and Ramdas Pophale) SiO2 
 PCOD9570404
Probable space group: P 42/N M C
;
_chemical_formula_sum "Si O2"
_cell_formula_units_Z 88
_cell_length_a 14.545922
_cell_length_b 14.545922
_cell_length_c 19.762160
_cell_angle_alpha 90.000000
_cell_angle_beta 90.000000
_cell_angle_gamma 90.000000
_cell_volume 4181.353834
_symmetry_space_group_name_H-M "P 42/N M C"
_symmetry_group_IT_number 137
_space_group.IT_coordinate_system_code '2'
_symmetry_cell_setting 'tetragonal'
loop_
_space_group_symop_operation_xyz
x,y,z
1/2-y,x,1/2+z
1/2-x,1/2-y,z
y,1/2-x,1/2+z
1/2+x,-y,-z
-x,1/2+y,-z
1/2+y,1/2+x,1/2-z
-y,-x,1/2-z
-x,-y,-z
1/2+y,-x,1/2-z
1/2+x,1/2+y,-z
-y,1/2+x,1/2-z
1/2-x,y,z
x,1/2-y,z
1/2-y,1/2-x,1/2+z
y,x,1/2+z
loop_
_atom_site_type_symbol
_atom_site_label
_atom_site_fract_x
_atom_site_fract_y
_atom_site_fract_z
Si Si1 0.250000 0.647132 0.581523
Si Si2 0.008883 0.589880 0.142245
Si Si3 0.140681 0.411057 0.969288
Si Si4 0.607083 0.350079 0.537008
Si Si5 0.250000 0.063258 0.561453
Si Si6 0.855001 0.750000 0.798085
Si Si7 0.950600 0.643238 0.287006
O O1 0.250000 0.750000 0.618339
O O2 0.163189 0.650404 0.532018
O O3 0.250000 0.536908 0.599788
O O4 0.913898 0.573939 0.101472
O O5 0.994134 0.641295 0.212591
O O6 0.073384 0.640070 0.088311
O O7 0.071726 0.502252 0.164170
O O8 0.250000 0.388623 0.960007
O O9 0.085654 0.335961 0.013198
O O10 0.135146 0.503144 0.013588
O O11 0.617139 0.250000 0.569485
O O12 0.250000 0.137940 0.621014
O O13 0.750000 0.750000 0.773860
O O14 0.893873 0.847315 0.776420
O O15 0.948839 0.750000 0.311947
#
# Coordination Sequence:
#
# PCOD9570404 Si02
#       7
#     8  16  16  16   8   8  16
#     4  10  22  36  56  94 124 162 200 240 320 375
#     4  11  22  38  62  88 124 162 209 254 315 368
#     4  11  24  38  61  98 129 160 202 263 326 380
#     4  10  21  39  61  89 127 160 198 251 315 381
#     4  12  22  38  66  94 126 162 208 259 324 380
#     4  10  22  42  64  88 122 164 212 259 314 381
#     4  10  24  41  61  87 118 169 217 259 306 372
#
# _framework density 21.045815000000001
#
# number of rings (size 3 to 8) (size 9 to 14) (size 15 to 20)
#    0.000    1.455    1.818    3.000    6.364    2.909 
#    0.000    0.000    0.000    1.091    0.000    0.000 
#    0.000    0.000    0.000    0.000    0.000    0.000 
#
# Total GULP energy -490307.380616 kJ/mol
# GULP energy per Si atom -5571.674780 kJ/mol
# Density = 2.099791 g / cm^3
# Si number density = 21.045815 Si / 1000 Ang^3
#
#
#
# Elastic Constant Matrix: (Units=GPa)
#
#
# Indices 1 2 3 4 5 6 
#
# 1 97.1038 20.3132 -0.7255 0.0000 0.0000 0.0000
# 2 20.3132 97.1038 -0.7255 0.0000 0.0000 0.0000
# 3 -0.7255 -0.7255 44.2575 0.0000 0.0000 0.0000
# 4 0.0000 0.0000 0.0000 25.5087 0.0000 0.0000
# 5 0.0000 0.0000 0.0000 0.0000 25.5087 0.0000
# 6 0.0000 0.0000 0.0000 0.0000 0.0000 1.6402
#
#
#
# Elastic Compliance Matrix: (Units=1/GPa)
#
#
# Indices 1 2 3 4 5 6 
#
# 1 0.010770 -0.002252 0.000140 0.000000 0.000000 0.000000
# 2 -0.002252 0.010770 0.000140 0.000000 0.000000 0.000000
# 3 0.000140 0.000140 0.022600 0.000000 0.000000 0.000000
# 4 0.000000 0.000000 0.000000 0.039202 0.000000 0.000000
# 5 0.000000 0.000000 0.000000 0.000000 0.039202 0.000000
# 6 0.000000 0.000000 0.000000 0.000000 0.000000 0.609686
#
#
# Mechanical properties :
#
#
# Convention : Reuss Voigt Hill
#
# Bulk Modulus (GPa) = 24.87874 30.68769 27.78321
# Shear Modulus (GPa) = 6.67045 25.17172 15.92109
#
# Velocity S-wave (km/s) = 1.78224 3.46214 2.75343
# Velocity P-wave (km/s) = 4.01024 5.53127 4.83099
#
# Compressibility (1/GPa) = 0.04019496
#
# Stress axis : x y z
#
# Youngs Moduli (GPa) = 92.84702 92.84702 44.24857
#
# Poissons Ratio (x) = 0.20909 -0.00618
# Poissons Ratio (y) = 0.20909 -0.00618
# Poissons Ratio (z) = -0.01297 -0.01297
#
# Static dielectric constant tensor:
#      x y z
#    x 1.814890 0.000000 0.000000 
#    y 0.000000 1.814890 0.000000 
#    z 0.000000 0.000000 1.742670 
# 
# From -- ./inp_files/7766.got.cif
#   From: 2010.05.17/outbox.cif.g08.bks.cpg/sg137_4_cif.got.tgz:7766.got - 2010.05.20 13:01:12.
