data_PCOD9570437
_publ_section_title
;
Structure prediction by ZEFSAII (Michael W. Deem and Ramdas Pophale) SiO2 
 PCOD9570437
Probable space group: P 42/N M C
;
_chemical_formula_sum "Si O2"
_cell_formula_units_Z 64
_cell_length_a 14.735934
_cell_length_b 14.735934
_cell_length_c 15.104180
_cell_angle_alpha 90.000000
_cell_angle_beta 90.000000
_cell_angle_gamma 90.000000
_cell_volume 3279.838715
_symmetry_space_group_name_H-M "P 42/N M C"
_symmetry_group_IT_number 137
_space_group.IT_coordinate_system_code '2'
_symmetry_cell_setting 'tetragonal'
loop_
_space_group_symop_operation_xyz
x,y,z
1/2-y,x,1/2+z
1/2-x,1/2-y,z
y,1/2-x,1/2+z
1/2+x,-y,-z
-x,1/2+y,-z
1/2+y,1/2+x,1/2-z
-y,-x,1/2-z
-x,-y,-z
1/2+y,-x,1/2-z
1/2+x,1/2+y,-z
-y,1/2+x,1/2-z
1/2-x,y,z
x,1/2-y,z
1/2-y,1/2-x,1/2+z
y,x,1/2+z
loop_
_atom_site_type_symbol
_atom_site_label
_atom_site_fract_x
_atom_site_fract_y
_atom_site_fract_z
Si Si1 0.147086 0.855598 0.898239
Si Si2 0.648392 0.857034 0.652028
Si Si3 0.472496 0.143323 0.513603
Si Si4 0.965295 0.924667 0.810894
O O1 0.250000 0.873434 0.860569
O O2 0.143655 0.750000 0.921657
O O3 0.061192 0.878299 0.836502
O O4 0.137691 0.923832 0.980717
O O5 0.750000 0.896350 0.653116
O O6 0.655756 0.750000 0.636064
O O7 0.587018 0.890861 0.570345
O O8 0.597968 0.867658 0.745354
O O9 0.452677 0.250000 0.529826
O O10 0.449876 0.085941 0.599622
O O11 0.989261 0.010740 0.750000
#
# Coordination Sequence:
#
# PCOD9570437 Si02
#       4
#    16  16  16  16
#     4  10  22  40  63  90 123 163 207 256 307 362
#     4  10  22  40  61  89 124 161 205 255 306 365
#     4  10  22  43  63  89 124 162 207 255 308 371
#     4  12  23  38  61  92 127 159 208 252 309 368
#
# _framework density 19.513154
#
# number of rings (size 3 to 8) (size 9 to 14) (size 15 to 20)
#    0.000    1.500    2.500    2.250    0.000    3.000 
#    0.000    5.000    0.000    0.000    0.000    0.000 
#    0.000    0.000    0.000    0.000    0.000    0.000 
#
# Total GULP energy -357129.989480 kJ/mol
# GULP energy per Si atom -5580.156086 kJ/mol
# Density = 1.946874 g / cm^3
# Si number density = 19.513154 Si / 1000 Ang^3
#
#
#
# Elastic Constant Matrix: (Units=GPa)
#
#
# Indices 1 2 3 4 5 6 
#
# 1 118.8325 47.6618 77.8585 0.0000 0.0000 0.0000
# 2 47.6618 118.8306 77.8584 0.0000 0.0000 0.0000
# 3 77.8585 77.8584 162.6896 0.0000 0.0000 0.0000
# 4 0.0000 0.0000 0.0000 11.4531 0.0000 0.0000
# 5 0.0000 0.0000 0.0000 0.0000 11.4524 0.0000
# 6 0.0000 0.0000 0.0000 0.0000 0.0000 14.7289
#
#
#
# Elastic Compliance Matrix: (Units=1/GPa)
#
#
# Indices 1 2 3 4 5 6 
#
# 1 0.012462 -0.001589 -0.005203 0.000000 0.000000 0.000000
# 2 -0.001589 0.012462 -0.005204 0.000000 0.000000 0.000000
# 3 -0.005203 -0.005204 0.011127 0.000000 0.000000 0.000000
# 4 0.000000 0.000000 0.000000 0.087313 0.000000 0.000000
# 5 0.000000 0.000000 0.000000 0.000000 0.087318 0.000000
# 6 0.000000 0.000000 0.000000 0.000000 0.000000 0.067894
#
#
# Mechanical properties :
#
#
# Convention : Reuss Voigt Hill
#
# Bulk Modulus (GPa) = 82.92487 89.67890 86.30188
# Shear Modulus (GPa) = 16.30860 20.65849 18.48355
#
# Velocity S-wave (km/s) = 2.89411 3.25729 3.08106
# Velocity P-wave (km/s) = 7.33192 7.75916 7.54856
#
# Compressibility (1/GPa) = 0.01205911
#
# Stress axis : x y z
#
# Youngs Moduli (GPa) = 80.24550 80.24368 89.87065
#
# Poissons Ratio (x) = 0.12751 0.46763
# Poissons Ratio (y) = 0.12751 0.46764
# Poissons Ratio (z) = 0.41755 0.41755
#
# Static dielectric constant tensor:
#      x y z
#    x 1.729320 0.000000 0.000000 
#    y 0.000000 1.729320 0.000000 
#    z 0.000000 0.000000 1.658610 
# 
# From -- ./inp_files/4699.got.cif
#   From: 2010.05.17/outbox.cif.g08.bks.cpg/sg137_3_cif.got.tgz:4699.got - 2010.05.20 13:01:12.
