data_PCOD9570890
_publ_section_title
;
Structure prediction by ZEFSAII (Michael W. Deem and Ramdas Pophale) SiO2 
 PCOD9570890
Probable space group: P 42/N C M
;
_chemical_formula_sum "Si O2"
_cell_formula_units_Z 112
_cell_length_a 14.826363
_cell_length_b 14.826363
_cell_length_c 24.345685
_cell_angle_alpha 90.000000
_cell_angle_beta 90.000000
_cell_angle_gamma 90.000000
_cell_volume 5351.693792
_symmetry_space_group_name_H-M "P 42/N C M"
_symmetry_group_IT_number 138
_space_group.IT_coordinate_system_code '2'
_symmetry_cell_setting 'tetragonal'
loop_
_space_group_symop_operation_xyz
x,y,z
1/2-y,x,1/2+z
1/2-x,1/2-y,z
y,1/2-x,1/2+z
1/2+x,-y,1/2-z
-x,1/2+y,1/2-z
1/2+y,1/2+x,-z
-y,-x,-z
-x,-y,-z
1/2+y,-x,1/2-z
1/2+x,1/2+y,-z
-y,1/2+x,1/2-z
1/2-x,y,1/2+z
x,1/2-y,1/2+z
1/2-y,1/2-x,z
y,x,z
loop_
_atom_site_type_symbol
_atom_site_label
_atom_site_fract_x
_atom_site_fract_y
_atom_site_fract_z
Si Si1 0.019354 0.629375 0.142860
Si Si2 0.517075 0.838891 0.469522
Si Si3 0.220062 0.608928 0.955061
Si Si4 0.466123 0.184355 0.309826
Si Si5 0.744971 0.893147 0.378177
Si Si6 0.128234 0.862946 0.873429
Si Si7 0.701808 0.436477 0.307253
O O1 0.053457 0.648130 0.080904
O O2 0.110030 0.616094 0.178829
O O3 0.959109 0.540892 0.146824
O O4 0.962134 0.715680 0.163785
O O5 0.574309 0.925692 0.487747
O O6 0.457219 0.789908 0.514375
O O7 0.585983 0.768103 0.442343
O O8 0.453296 0.859952 0.417154
O O9 0.282483 0.655587 0.909183
O O10 0.172317 0.672317 0.000000
O O11 0.374618 0.125383 0.304912
O O12 0.537680 0.133000 0.348379
O O13 0.517395 0.196666 0.251914
O O14 0.647754 0.852247 0.358797
O O15 0.816037 0.816037 0.368912
O O16 0.784312 0.979695 0.348512
O O17 0.120568 0.790278 0.824258
#
# Coordination Sequence:
#
# PCOD9570890 Si02
#       7
#    16  16  16  16  16  16  16
#     4  11  26  44  63  93 130 168 214 266 319 379
#     4  10  21  36  58  85 115 157 204 253 309 366
#     4  11  24  40  62  89 122 166 211 256 316 385
#     4  11  24  42  66  93 125 169 214 260 319 385
#     4   9  18  33  55  86 120 154 200 256 309 367
#     4  10  23  40  61  92 127 157 204 266 321 377
#     4  11  22  40  66  92 125 165 207 260 324 392
#
# _framework density 20.927955000000001
#
# number of rings (size 3 to 8) (size 9 to 14) (size 15 to 20)
#    0.000    1.571    0.000    4.714    0.000   12.571 
#    0.000    2.857    0.000    0.000    0.000    0.000 
#    0.000    0.000    0.000    0.000    0.000    0.000 
#
# Total GULP energy -625157.618145 kJ/mol
# GULP energy per Si atom -5581.764448 kJ/mol
# Density = 2.088032 g / cm^3
# Si number density = 20.927955 Si / 1000 Ang^3
#
#
#
# Elastic Constant Matrix: (Units=GPa)
#
#
# Indices 1 2 3 4 5 6 
#
# 1 63.8870 28.6205 14.4294 0.0000 0.0000 0.0000
# 2 28.6205 63.8870 14.4294 0.0000 0.0000 0.0000
# 3 14.4294 14.4294 73.1326 0.0000 0.0000 0.0000
# 4 0.0000 0.0000 0.0000 21.8210 0.0000 0.0000
# 5 0.0000 0.0000 0.0000 0.0000 21.8210 0.0000
# 6 0.0000 0.0000 0.0000 0.0000 0.0000 25.8293
#
#
#
# Elastic Compliance Matrix: (Units=1/GPa)
#
#
# Indices 1 2 3 4 5 6 
#
# 1 0.019937 -0.008418 -0.002273 0.000000 0.000000 0.000000
# 2 -0.008418 0.019937 -0.002273 0.000000 0.000000 0.000000
# 3 -0.002273 -0.002273 0.014571 0.000000 0.000000 0.000000
# 4 0.000000 0.000000 0.000000 0.045827 0.000000 0.000000
# 5 0.000000 0.000000 0.000000 0.000000 0.045827 0.000000
# 6 0.000000 0.000000 0.000000 0.000000 0.000000 0.038716
#
#
# Mechanical properties :
#
#
# Convention : Reuss Voigt Hill
#
# Bulk Modulus (GPa) = 35.06613 35.09615 35.08114
# Shear Modulus (GPa) = 22.70159 23.45609 23.07884
#
# Velocity S-wave (km/s) = 3.29713 3.35147 3.32441
# Velocity P-wave (km/s) = 5.59346 5.63763 5.61559
#
# Compressibility (1/GPa) = 0.02851754
#
# Stress axis : x y z
#
# Youngs Moduli (GPa) = 50.15746 50.15746 68.63114
#
# Poissons Ratio (x) = 0.42224 0.15598
# Poissons Ratio (y) = 0.42224 0.15598
# Poissons Ratio (z) = 0.11400 0.11400
#
# Static dielectric constant tensor:
#      x y z
#    x 1.793560 0.000000 0.000000 
#    y 0.000000 1.793560 0.000000 
#    z 0.000000 0.000000 1.759580 
# 
# From -- ./inp_files/7045.got.cif
#   From: 2010.05.17/outbox.cif.g08.bks.cpg/sg138_4_cif.got.tgz:7045.got - 2010.05.20 13:08:53.
