data_PCOD9570659
_publ_section_title
;
Structure prediction by ZEFSAII (Michael W. Deem and Ramdas Pophale) SiO2 
 PCOD9570659
Probable space group: P 42/N C M
;
_chemical_formula_sum "Si O2"
_cell_formula_units_Z 112
_cell_length_a 24.669614
_cell_length_b 24.669614
_cell_length_c 10.752833
_cell_angle_alpha 90.000000
_cell_angle_beta 90.000000
_cell_angle_gamma 90.000000
_cell_volume 6544.065075
_symmetry_space_group_name_H-M "P 42/N C M"
_symmetry_group_IT_number 138
_space_group.IT_coordinate_system_code '2'
_symmetry_cell_setting 'tetragonal'
loop_
_space_group_symop_operation_xyz
x,y,z
1/2-y,x,1/2+z
1/2-x,1/2-y,z
y,1/2-x,1/2+z
1/2+x,-y,1/2-z
-x,1/2+y,1/2-z
1/2+y,1/2+x,-z
-y,-x,-z
-x,-y,-z
1/2+y,-x,1/2-z
1/2+x,1/2+y,-z
-y,1/2+x,1/2-z
1/2-x,y,1/2+z
x,1/2-y,1/2+z
1/2-y,1/2-x,z
y,x,z
loop_
_atom_site_type_symbol
_atom_site_label
_atom_site_fract_x
_atom_site_fract_y
_atom_site_fract_z
Si Si1 0.663302 0.750001 0.249986
Si Si2 0.466740 0.684814 0.248247
Si Si3 0.966740 0.184814 0.248259
Si Si4 0.313791 0.901135 0.500006
Si Si5 0.668700 0.579306 0.860688
Si Si6 0.831301 0.579306 0.639293
Si Si7 0.183085 0.594845 0.000006
O O1 0.704134 0.795867 0.194922
O O2 0.704135 0.704135 0.305048
O O3 0.622578 0.783046 0.338159
O O4 0.622578 0.716953 0.161817
O O5 0.467231 0.750000 0.249996
O O6 0.433166 0.669050 0.125008
O O7 0.529285 0.668331 0.232856
O O8 0.438378 0.667518 0.375873
O O9 0.938379 0.167519 0.375888
O O10 0.029284 0.168331 0.232872
O O11 0.933164 0.169049 0.125023
O O12 0.343397 0.843397 0.500000
O O13 0.248286 0.897180 0.500007
O O14 0.614096 0.614096 0.852563
O O15 0.675184 0.557011 0.999990
O O16 0.885906 0.614095 0.647419
O O17 0.151280 0.651280 0.000000
#
# Coordination Sequence:
#
# PCOD9570659 Si02
#       7
#    16  16  16  16  16  16  16
#     4   9  18  30  46  76 116 150 177 214 272 320
#     4  10  19  34  55  79 110 141 182 217 260 317
#     4  10  19  34  55  79 110 141 182 217 260 317
#     4  10  20  35  59  83 107 139 169 211 263 325
#     4  10  19  32  53  77 107 145 187 230 262 301
#     4  10  19  32  53  77 107 145 187 230 262 301
#     4  10  22  37  57  83 109 137 167 215 275 331
#
# _framework density 17.114744999999999
#
# number of rings (size 3 to 8) (size 9 to 14) (size 15 to 20)
#    0.000    2.143    2.857    0.857    0.000    0.857 
#    0.000    3.571    0.000   10.286    0.000    0.000 
#    0.000    0.000    0.000    0.000    0.000    0.000 
#
# Total GULP energy -623778.830440 kJ/mol
# GULP energy per Si atom -5569.453843 kJ/mol
# Density = 1.707579 g / cm^3
# Si number density = 17.114745 Si / 1000 Ang^3
#
#
#
# Elastic Constant Matrix: (Units=GPa)
#
#
# Indices 1 2 3 4 5 6 
#
# 1 68.2825 38.5584 39.0198 0.0000 0.0000 0.0000
# 2 38.5584 68.2825 39.0198 0.0000 0.0000 0.0000
# 3 39.0198 39.0198 111.8819 0.0000 0.0000 0.0000
# 4 0.0000 0.0000 0.0000 16.1843 0.0000 0.0000
# 5 0.0000 0.0000 0.0000 0.0000 16.1843 0.0000
# 6 0.0000 0.0000 0.0000 0.0000 0.0000 13.0529
#
#
#
# Elastic Compliance Matrix: (Units=1/GPa)
#
#
# Indices 1 2 3 4 5 6 
#
# 1 0.023101 -0.010542 -0.004380 0.000000 0.000000 0.000000
# 2 -0.010542 0.023101 -0.004380 0.000000 0.000000 0.000000
# 3 -0.004380 -0.004380 0.011993 0.000000 0.000000 0.000000
# 4 0.000000 0.000000 0.000000 0.061788 0.000000 0.000000
# 5 0.000000 0.000000 0.000000 0.000000 0.061788 0.000000
# 6 0.000000 0.000000 0.000000 0.000000 0.000000 0.076611
#
#
# Mechanical properties :
#
#
# Convention : Reuss Voigt Hill
#
# Bulk Modulus (GPa) = 51.04396 53.51588 52.27992
# Shear Modulus (GPa) = 16.47355 17.87424 17.17389
#
# Velocity S-wave (km/s) = 3.10584 3.23519 3.17117
# Velocity P-wave (km/s) = 6.53842 6.72993 6.63487
#
# Compressibility (1/GPa) = 0.01959095
#
# Stress axis : x y z
#
# Youngs Moduli (GPa) = 43.28840 43.28840 83.38071
#
# Poissons Ratio (x) = 0.45634 0.36521
# Poissons Ratio (y) = 0.45634 0.36521
# Poissons Ratio (z) = 0.18961 0.18961
#
# Static dielectric constant tensor:
#      x y z
#    x 1.564780 0.000000 0.000000 
#    y 0.000000 1.564780 0.000000 
#    z 0.000000 0.000000 1.601950 
# 
# From -- ./inp_files/3271.got.cif
#   From: 2010.05.17/outbox.cif.g08.bks.cpg/sg138_2_cif.got.tgz:3271.got - 2010.05.20 13:08:53.
