data_PCOD9570864
_publ_section_title
;
Structure prediction by ZEFSAII (Michael W. Deem and Ramdas Pophale) SiO2 
 PCOD9570864
Probable space group: P 42/N C M
;
_chemical_formula_sum "Si O2"
_cell_formula_units_Z 84
_cell_length_a 24.681504
_cell_length_b 24.681504
_cell_length_c 9.049365
_cell_angle_alpha 90.000000
_cell_angle_beta 90.000000
_cell_angle_gamma 90.000000
_cell_volume 5512.661762
_symmetry_space_group_name_H-M "P 42/N C M"
_symmetry_group_IT_number 138
_space_group.IT_coordinate_system_code '2'
_symmetry_cell_setting 'tetragonal'
loop_
_space_group_symop_operation_xyz
x,y,z
1/2-y,x,1/2+z
1/2-x,1/2-y,z
y,1/2-x,1/2+z
1/2+x,-y,1/2-z
-x,1/2+y,1/2-z
1/2+y,1/2+x,-z
-y,-x,-z
-x,-y,-z
1/2+y,-x,1/2-z
1/2+x,1/2+y,-z
-y,1/2+x,1/2-z
1/2-x,y,1/2+z
x,1/2-y,1/2+z
1/2-y,1/2-x,z
y,x,z
loop_
_atom_site_type_symbol
_atom_site_label
_atom_site_fract_x
_atom_site_fract_y
_atom_site_fract_z
Si Si1 0.410280 0.998469 0.824294
Si Si2 0.162285 0.337716 0.670064
Si Si3 0.750000 0.750000 0.250012
Si Si4 0.410280 0.998468 0.175701
Si Si5 0.043191 0.305925 0.677382
Si Si6 0.662285 0.837716 0.670087
Si Si7 0.305924 0.043192 0.322605
O O1 0.444375 0.944375 0.789791
O O2 0.451407 0.048594 0.797175
O O3 0.356619 0.007955 0.730910
O O4 0.398245 0.998325 0.999997
O O5 0.208302 0.291699 0.673506
O O6 0.105156 0.317381 0.733531
O O7 0.150057 0.349944 0.499989
O O8 0.708301 0.708301 0.173530
O O9 0.451407 0.048594 0.202820
O O10 0.356618 0.007954 0.269082
O O11 0.024935 0.250000 0.749994
O O12 0.043090 0.301204 0.499994
O O13 0.605155 0.817381 0.733551
#
# Coordination Sequence:
#
# PCOD9570864 Si02
#       7
#    16   8   4  16  16   8  16
#     4   9  18  33  52  73  96 125 161 202 253 306
#     4  10  21  31  42  61  87 123 166 208 246 285
#     4  12  18  36  44  54  88 128 178 212 246 276
#     4   9  18  33  52  73  96 125 161 202 253 306
#     4  11  21  34  48  69  96 126 166 208 252 295
#     4  10  21  31  42  61  87 123 166 208 246 285
#     4  11  21  34  48  69  96 126 166 208 252 295
#
# _framework density 15.237648
#
# number of rings (size 3 to 8) (size 9 to 14) (size 15 to 20)
#    0.000    1.905    3.810    2.571    0.000    0.762 
#    0.000    1.905    0.000    0.000    0.000    0.000 
#    0.000    0.762    0.000    8.000    0.000    3.429 
#
# Total GULP energy -468190.124963 kJ/mol
# GULP energy per Si atom -5573.691964 kJ/mol
# Density = 1.520297 g / cm^3
# Si number density = 15.237648 Si / 1000 Ang^3
#
#
#
# Elastic Constant Matrix: (Units=GPa)
#
#
# Indices 1 2 3 4 5 6 
#
# 1 88.7604 47.7306 45.1592 0.0000 0.0000 0.0000
# 2 47.7306 88.7604 45.1592 0.0000 0.0000 0.0000
# 3 45.1592 45.1592 56.5740 0.0000 0.0000 0.0000
# 4 0.0000 0.0000 0.0000 17.7835 0.0000 0.0000
# 5 0.0000 0.0000 0.0000 0.0000 17.7835 0.0000
# 6 0.0000 0.0000 0.0000 0.0000 0.0000 19.5447
#
#
#
# Elastic Compliance Matrix: (Units=1/GPa)
#
#
# Indices 1 2 3 4 5 6 
#
# 1 0.019951 -0.004422 -0.012396 0.000000 0.000000 0.000000
# 2 -0.004422 0.019951 -0.012396 0.000000 0.000000 0.000000
# 3 -0.012396 -0.012396 0.037465 0.000000 0.000000 0.000000
# 4 0.000000 0.000000 0.000000 0.056232 0.000000 0.000000
# 5 0.000000 0.000000 0.000000 0.000000 0.056232 0.000000
# 6 0.000000 0.000000 0.000000 0.000000 0.000000 0.051165
#
#
# Mechanical properties :
#
#
# Convention : Reuss Voigt Hill
#
# Bulk Modulus (GPa) = 52.79733 56.68805 54.74269
# Shear Modulus (GPa) = 16.35403 17.42540 16.88972
#
# Velocity S-wave (km/s) = 3.27963 3.38535 3.33291
# Velocity P-wave (km/s) = 7.00469 7.25011 7.12846
#
# Compressibility (1/GPa) = 0.01894035
#
# Stress axis : x y z
#
# Youngs Moduli (GPa) = 50.12352 50.12352 26.69141
#
# Poissons Ratio (x) = 0.22164 0.33086
# Poissons Ratio (y) = 0.22164 0.33086
# Poissons Ratio (z) = 0.62132 0.62132
#
# Static dielectric constant tensor:
#      x y z
#    x 1.502820 0.000000 0.000000 
#    y 0.000000 1.502820 0.000000 
#    z 0.000000 0.000000 1.510920 
# 
# From -- ./inp_files/1687.got.cif
#   From: 2010.05.17/outbox.cif.g08.bks.cpg/sg138_1_cif.got.tgz:1687.got - 2010.05.20 13:08:53.
