data_PCOD9570948
_publ_section_title
;
Structure prediction by ZEFSAII (Michael W. Deem and Ramdas Pophale) SiO2 
 PCOD9570948
Probable space group: P 42/N C M
;
_chemical_formula_sum "Si O2"
_cell_formula_units_Z 64
_cell_length_a 14.500513
_cell_length_b 14.500513
_cell_length_c 14.628782
_cell_angle_alpha 90.000000
_cell_angle_beta 90.000000
_cell_angle_gamma 90.000000
_cell_volume 3075.919052
_symmetry_space_group_name_H-M "P 42/N C M"
_symmetry_group_IT_number 138
_space_group.IT_coordinate_system_code '2'
_symmetry_cell_setting 'tetragonal'
loop_
_space_group_symop_operation_xyz
x,y,z
1/2-y,x,1/2+z
1/2-x,1/2-y,z
y,1/2-x,1/2+z
1/2+x,-y,1/2-z
-x,1/2+y,1/2-z
1/2+y,1/2+x,-z
-y,-x,-z
-x,-y,-z
1/2+y,-x,1/2-z
1/2+x,1/2+y,-z
-y,1/2+x,1/2-z
1/2-x,y,1/2+z
x,1/2-y,1/2+z
1/2-y,1/2-x,z
y,x,z
loop_
_atom_site_type_symbol
_atom_site_label
_atom_site_fract_x
_atom_site_fract_y
_atom_site_fract_z
Si Si1 0.943013 0.087481 0.107659
Si Si2 0.947935 0.805892 0.209200
Si Si3 0.637854 0.487005 0.598445
Si Si4 0.800448 0.459881 0.893869
O O1 0.928781 0.195624 0.121663
O O2 0.869980 0.026597 0.163055
O O3 0.928646 0.071355 0.000000
O O4 0.043708 0.043708 0.130816
O O5 0.850641 0.850641 0.182690
O O6 0.966265 0.704749 0.171170
O O7 0.962816 0.813445 0.317234
O O8 0.541416 0.541416 0.596173
O O9 0.616686 0.380114 0.619833
O O10 0.684209 0.492230 0.498136
#
# Coordination Sequence:
#
# PCOD9570948 Si02
#       4
#    16  16  16  16
#     4  10  21  41  66  93 126 164 209 264 326 386
#     4  11  23  41  65  94 127 167 214 264 318 385
#     4  11  24  42  62  90 129 168 209 264 319 376
#     4  11  22  40  67  92 124 168 214 262 325 384
#
# _framework density 20.806788999999998
#
# number of rings (size 3 to 8) (size 9 to 14) (size 15 to 20)
#    0.000    1.250    2.500    4.500    0.000    4.500 
#    0.000    2.500    0.000    8.250    0.000    0.000 
#    0.000    0.000    0.000    0.000    0.000    0.000 
#
# Total GULP energy -357516.145939 kJ/mol
# GULP energy per Si atom -5586.189780 kJ/mol
# Density = 2.075943 g / cm^3
# Si number density = 20.806789 Si / 1000 Ang^3
#
#
#
# Elastic Constant Matrix: (Units=GPa)
#
#
# Indices 1 2 3 4 5 6 
#
# 1 88.9846 33.9333 1.5122 0.0000 0.0000 0.0000
# 2 33.9333 88.9822 1.5117 0.0000 0.0000 0.0000
# 3 1.5122 1.5117 69.3220 0.0000 0.0000 0.0000
# 4 0.0000 0.0000 0.0000-6759.2079 0.0000 0.0000
# 5 0.0000 0.0000 0.0000 0.0000-6893.9264 0.0000
# 6 0.0000 0.0000 0.0000 0.0000 0.0000 17.5036
#
#
#
# Elastic Compliance Matrix: (Units=1/GPa)
#
#
# Indices 1 2 3 4 5 6 
#
# 1 0.013152 -0.005013 -0.000178 0.000000 0.000000 0.000000
# 2 -0.005013 0.013153 -0.000177 0.000000 0.000000 0.000000
# 3 -0.000178 -0.000177 0.014433 0.000000 0.000000 0.000000
# 4 0.000000 0.000000 0.000000 -0.000148 0.000000 0.000000
# 5 0.000000 0.000000 0.000000 0.000000 -0.000145 0.000000
# 6 0.000000 0.000000 0.000000 0.000000 0.000000 0.057131
#
#
# Mechanical properties :
#
#
# Convention : Reuss Voigt Hill
#
# Bulk Modulus (GPa) = 33.33005 35.68924 34.50965
# Shear Modulus (GPa) = 42.26084 -2713.10403 -1335.42159
#
# Velocity S-wave (km/s) = 4.51167 -36.14944 -25.36165
# Velocity P-wave (km/s) = 6.57220 41.53536 28.99993
#
# Compressibility (1/GPa) = 0.03000295
#
# Stress axis : x y z
#
# Youngs Moduli (GPa) = 76.03154 76.02951 69.28480
#
# Poissons Ratio (x) = 0.38111 0.01230
# Poissons Ratio (y) = 0.38112 0.01230
# Poissons Ratio (z) = 0.01350 0.01349
#
# Static dielectric constant tensor:
#      x y z
#    x 1.735310 0.000000 0.000000 
#    y 0.000000 1.735310 0.000000 
#    z 0.000000 0.000000 1.757610 
# 
# From -- ./inp_files/3906.got.cif
#   From: 2010.05.17/outbox.cif.g08.bks.cpg/sg138_2_cif.got.tgz:3906.got - 2010.05.20 13:08:53.
