data_PCOD9570740
_publ_section_title
;
Structure prediction by ZEFSAII (Michael W. Deem and Ramdas Pophale) SiO2 
 PCOD9570740
Probable space group: P 42/N C M
;
_chemical_formula_sum "Si O2"
_cell_formula_units_Z 96
_cell_length_a 27.130641
_cell_length_b 27.130641
_cell_length_c 9.404565
_cell_angle_alpha 90.000000
_cell_angle_beta 90.000000
_cell_angle_gamma 90.000000
_cell_volume 6922.433969
_symmetry_space_group_name_H-M "P 42/N C M"
_symmetry_group_IT_number 138
_space_group.IT_coordinate_system_code '2'
_symmetry_cell_setting 'tetragonal'
loop_
_space_group_symop_operation_xyz
x,y,z
1/2-y,x,1/2+z
1/2-x,1/2-y,z
y,1/2-x,1/2+z
1/2+x,-y,1/2-z
-x,1/2+y,1/2-z
1/2+y,1/2+x,-z
-y,-x,-z
-x,-y,-z
1/2+y,-x,1/2-z
1/2+x,1/2+y,-z
-y,1/2+x,1/2-z
1/2-x,y,1/2+z
x,1/2-y,1/2+z
1/2-y,1/2-x,z
y,x,z
loop_
_atom_site_type_symbol
_atom_site_label
_atom_site_fract_x
_atom_site_fract_y
_atom_site_fract_z
Si Si1 0.936784 0.646173 0.919474
Si Si2 0.897573 0.747711 0.460332
Si Si3 0.008221 0.923538 0.913936
Si Si4 0.853716 0.936746 0.079668
Si Si5 0.669968 0.748395 0.210384
Si Si6 0.991864 0.076581 0.414275
O O1 0.888932 0.611069 0.943277
O O2 0.925809 0.700882 0.974295
O O3 0.945227 0.647527 0.749321
O O4 0.981945 0.620756 0.001357
O O5 0.925740 0.699956 0.516532
O O6 0.879619 0.743689 0.298464
O O7 0.846400 0.749966 0.547501
O O8 0.019672 0.911500 0.749847
O O9 0.054253 0.945747 0.000000
O O10 0.967245 0.967245 0.911045
O O11 0.981906 0.879491 0.998389
O O12 0.888709 0.888709 0.056232
O O13 0.709095 0.790906 0.240248
O O14 0.696238 0.696238 0.241366
O O15 0.032981 0.032981 0.411706
O O16 0.945830 0.054171 0.500000
#
# Coordination Sequence:
#
# PCOD9570740 Si02
#       6
#    16  16  16  16  16  16
#     4  10  20  33  46  61  84 112 143 183 227 270
#     4  12  22  33  46  62  84 112 148 191 236 276
#     4   9  17  29  47  68  86 105 131 167 214 268
#     4  10  20  33  46  61  84 112 143 183 227 270
#     4  11  22  34  46  58  76 108 152 198 238 273
#     4   9  17  29  47  68  86 105 131 167 214 268
#
# _framework density 13.867955
#
# number of rings (size 3 to 8) (size 9 to 14) (size 15 to 20)
#    0.000    1.833    1.667    4.000    2.333    5.333 
#    0.000    0.000    0.000    0.000    0.000    0.000 
#    0.000    0.000    0.000    0.000    0.000    0.833 
#
# Total GULP energy -535472.657930 kJ/mol
# GULP energy per Si atom -5577.840187 kJ/mol
# Density = 1.383639 g / cm^3
# Si number density = 13.867955 Si / 1000 Ang^3
#
#
#
# Elastic Constant Matrix: (Units=GPa)
#
#
# Indices 1 2 3 4 5 6 
#
# 1 70.6049 55.2888 44.2633 0.0000 0.0000 0.0000
# 2 55.2888 70.6050 44.2635 0.0000 0.0000 0.0000
# 3 44.2633 44.2635 85.6069 0.0000 0.0000 0.0000
# 4 0.0000 0.0000 0.0000 20.5434 0.0000 0.0000
# 5 0.0000 0.0000 0.0000 0.0000 20.5435 0.0000
# 6 0.0000 0.0000 0.0000 0.0000 0.0000 23.2822
#
#
#
# Elastic Compliance Matrix: (Units=1/GPa)
#
#
# Indices 1 2 3 4 5 6 
#
# 1 0.038886 -0.026405 -0.006453 0.000000 0.000000 0.000000
# 2 -0.026405 0.038886 -0.006454 0.000000 0.000000 0.000000
# 3 -0.006453 -0.006454 0.018355 0.000000 0.000000 0.000000
# 4 0.000000 0.000000 0.000000 0.048677 0.000000 0.000000
# 5 0.000000 0.000000 0.000000 0.000000 0.048677 0.000000
# 6 0.000000 0.000000 0.000000 0.000000 0.000000 0.042951
#
#
# Mechanical properties :
#
#
# Convention : Reuss Voigt Hill
#
# Bulk Modulus (GPa) = 57.13161 57.16088 57.14625
# Shear Modulus (GPa) = 15.58167 18.40724 16.99445
#
# Velocity S-wave (km/s) = 3.35561 3.64720 3.50444
# Velocity P-wave (km/s) = 7.50332 7.68398 7.59418
#
# Compressibility (1/GPa) = 0.01750344
#
# Stress axis : x y z
#
# Youngs Moduli (GPa) = 25.71633 25.71631 54.48152
#
# Poissons Ratio (x) = 0.67903 0.35159
# Poissons Ratio (y) = 0.67903 0.35160
# Poissons Ratio (z) = 0.16596 0.16596
#
# Static dielectric constant tensor:
#      x y z
#    x 1.435960 0.000000 0.000000 
#    y 0.000000 1.435960 0.000000 
#    z 0.000000 0.000000 1.470050 
# 
# From -- ./inp_files/1829.got.cif
#   From: 2010.05.17/outbox.cif.g08.bks.cpg/sg138_1_cif.got.tgz:1829.got - 2010.05.20 13:08:53.
