data_PCOD9570845
_publ_section_title
;
Structure prediction by ZEFSAII (Michael W. Deem and Ramdas Pophale) SiO2 
 PCOD9570845
Probable space group: P 42/N C M
;
_chemical_formula_sum "Si O2"
_cell_formula_units_Z 88
_cell_length_a 11.764760
_cell_length_b 11.764760
_cell_length_c 32.597885
_cell_angle_alpha 90.000000
_cell_angle_beta 90.000000
_cell_angle_gamma 90.000000
_cell_volume 4511.859502
_symmetry_space_group_name_H-M "P 42/N C M"
_symmetry_group_IT_number 138
_space_group.IT_coordinate_system_code '2'
_symmetry_cell_setting 'tetragonal'
loop_
_space_group_symop_operation_xyz
x,y,z
1/2-y,x,1/2+z
1/2-x,1/2-y,z
y,1/2-x,1/2+z
1/2+x,-y,1/2-z
-x,1/2+y,1/2-z
1/2+y,1/2+x,-z
-y,-x,-z
-x,-y,-z
1/2+y,-x,1/2-z
1/2+x,1/2+y,-z
-y,1/2+x,1/2-z
1/2-x,y,1/2+z
x,1/2-y,1/2+z
1/2-y,1/2-x,z
y,x,z
loop_
_atom_site_type_symbol
_atom_site_label
_atom_site_fract_x
_atom_site_fract_y
_atom_site_fract_z
Si Si1 0.251309 0.440813 0.892044
Si Si2 0.071938 0.071938 0.612916
Si Si3 0.590848 0.590848 0.481631
Si Si4 0.655396 0.844605 0.798002
Si Si5 0.848253 0.326521 0.861298
Si Si6 0.779167 0.089384 0.272169
Si Si7 0.012258 0.681138 0.519955
O O1 0.139794 0.360207 0.896908
O O2 0.354549 0.354549 0.885984
O O3 0.240536 0.533379 0.856337
O O4 0.276677 0.515062 0.932855
O O5 0.104549 0.104549 0.567115
O O6 0.125728 0.125728 0.654262
O O7 0.939452 0.107795 0.615836
O O8 0.500000 0.500000 0.500000
O O9 0.544189 0.712073 0.497072
O O10 0.750000 0.750000 0.797873
O O11 0.543231 0.800728 0.775111
O O12 0.750000 0.250000 0.881491
O O13 0.796783 0.366024 0.818315
O O14 0.657684 0.129064 0.255129
O O15 0.919842 0.580159 0.519270
O O16 0.126645 0.626645 0.500000
#
# Coordination Sequence:
#
# PCOD9570845 Si02
#       7
#    16   8   8   8  16  16  16
#     4  10  20  39  63  87 121 162 210 265 314 371
#     4  10  24  40  58  94 134 169 214 264 317 391
#     4  12  23  38  61  94 127 168 216 265 323 373
#     4  10  24  42  68  99 131 172 214 266 321 394
#     4  11  21  40  65  87 122 167 204 248 323 378
#     4  10  21  44  67  93 127 167 204 258 322 380
#     4  10  22  40  60  84 119 164 212 261 315 366
#
# _framework density 19.504155000000001
#
# number of rings (size 3 to 8) (size 9 to 14) (size 15 to 20)
#    0.000    1.636    3.636    1.364    3.818    1.091 
#    1.636    3.636    0.000    0.000    0.000    0.000 
#    0.000    0.000    0.000    0.000    0.000    0.000 
#
# Total GULP energy -490421.321562 kJ/mol
# GULP energy per Si atom -5572.969563 kJ/mol
# Density = 1.945976 g / cm^3
# Si number density = 19.504155 Si / 1000 Ang^3
#
#
#
# Elastic Constant Matrix: (Units=GPa)
#
#
# Indices 1 2 3 4 5 6 
#
# 1 130.3037 57.7988 16.2119 0.0000 0.0000 0.0000
# 2 57.7988 130.3037 16.2119 0.0000 0.0000 0.0000
# 3 16.2119 16.2119 15.6810 0.0000 0.0000 0.0000
# 4 0.0000 0.0000 0.0000 18.8951 0.0000 0.0000
# 5 0.0000 0.0000 0.0000 0.0000 18.8951 0.0000
# 6 0.0000 0.0000 0.0000 0.0000 0.0000 23.7915
#
#
#
# Elastic Compliance Matrix: (Units=1/GPa)
#
#
# Indices 1 2 3 4 5 6 
#
# 1 0.010131 -0.003662 -0.006688 0.000000 0.000000 0.000000
# 2 -0.003662 0.010131 -0.006688 0.000000 0.000000 0.000000
# 3 -0.006688 -0.006688 0.077600 0.000000 0.000000 0.000000
# 4 0.000000 0.000000 0.000000 0.052924 0.000000 0.000000
# 5 0.000000 0.000000 0.000000 0.000000 0.052924 0.000000
# 6 0.000000 0.000000 0.000000 0.000000 0.000000 0.042032
#
#
# Mechanical properties :
#
#
# Convention : Reuss Voigt Hill
#
# Bulk Modulus (GPa) = 15.67740 50.74819 33.21280
# Shear Modulus (GPa) = 16.60696 24.72072 20.66384
#
# Velocity S-wave (km/s) = 2.92114 3.56400 3.25846
# Velocity P-wave (km/s) = 4.40827 6.55834 5.58769
#
# Compressibility (1/GPa) = 0.06378609
#
# Stress axis : x y z
#
# Youngs Moduli (GPa) = 98.71049 98.71049 12.88655
#
# Poissons Ratio (x) = 0.36143 0.08619
# Poissons Ratio (y) = 0.36143 0.08619
# Poissons Ratio (z) = 0.66018 0.66018
#
# Static dielectric constant tensor:
#      x y z
#    x 1.704370 0.000000 0.000000 
#    y 0.000000 1.704370 0.000000 
#    z 0.000000 0.000000 1.683730 
# 
# From -- ./inp_files/8131.got.cif
#   From: 2010.05.17/outbox.cif.g08.bks.cpg/sg138_5_cif.got.tgz:8131.got - 2010.05.20 13:08:53.
