data_PCOD9570712
_publ_section_title
;
Structure prediction by ZEFSAII (Michael W. Deem and Ramdas Pophale) SiO2 
 PCOD9570712
Probable space group: P 42/N C M
;
_chemical_formula_sum "Si O2"
_cell_formula_units_Z 72
_cell_length_a 11.868542
_cell_length_b 11.868542
_cell_length_c 27.928827
_cell_angle_alpha 90.000000
_cell_angle_beta 90.000000
_cell_angle_gamma 90.000000
_cell_volume 3934.118506
_symmetry_space_group_name_H-M "P 42/N C M"
_symmetry_group_IT_number 138
_space_group.IT_coordinate_system_code '2'
_symmetry_cell_setting 'tetragonal'
loop_
_space_group_symop_operation_xyz
x,y,z
1/2-y,x,1/2+z
1/2-x,1/2-y,z
y,1/2-x,1/2+z
1/2+x,-y,1/2-z
-x,1/2+y,1/2-z
1/2+y,1/2+x,-z
-y,-x,-z
-x,-y,-z
1/2+y,-x,1/2-z
1/2+x,1/2+y,-z
-y,1/2+x,1/2-z
1/2-x,y,1/2+z
x,1/2-y,1/2+z
1/2-y,1/2-x,z
y,x,z
loop_
_atom_site_type_symbol
_atom_site_label
_atom_site_fract_x
_atom_site_fract_y
_atom_site_fract_z
Si Si1 0.744394 0.423754 0.731385
Si Si2 0.118596 0.772997 0.623340
Si Si3 0.823329 0.013254 0.026893
Si Si4 0.050234 0.449767 0.877579
Si Si5 0.157015 0.157015 0.281767
Si Si6 0.907674 0.592327 0.014724
O O1 0.844065 0.364593 0.760596
O O2 0.774026 0.418541 0.675113
O O3 0.712520 0.550399 0.744524
O O4 0.250000 0.750000 0.618682
O O5 0.056791 0.715150 0.578863
O O6 0.077840 0.904501 0.623119
O O7 0.714754 0.956581 0.000735
O O8 0.881324 0.118677 0.000000
O O9 0.917265 0.917265 0.031547
O O10 0.107882 0.392119 0.831634
O O11 0.097734 0.402267 0.927447
O O12 0.250000 0.250000 0.291450
O O13 0.000000 0.500000 0.000000
#
# Coordination Sequence:
#
# PCOD9570712 Si02
#       6
#    16  16  16   8   8   8
#     4  10  20  38  56  87 118 151 193 240 298 345
#     4  10  19  35  60  84 112 155 192 237 292 351
#     4  10  23  39  57  87 121 153 197 246 298 355
#     4   8  20  34  51  83 111 142 196 237 278 338
#     4  10  22  36  60  88 111 155 191 241 292 352
#     4  10  21  34  57  86 111 152 188 239 292 337
#
# _framework density 18.301431000000001
#
# number of rings (size 3 to 8) (size 9 to 14) (size 15 to 20)
#    0.000    2.222    2.222    0.333    7.778    8.000 
#    0.000    0.000    0.000    0.000    0.000    0.000 
#    0.000    0.000    0.000    0.000    0.000    0.000 
#
# Total GULP energy -400841.080831 kJ/mol
# GULP energy per Si atom -5567.237234 kJ/mol
# Density = 1.825978 g / cm^3
# Si number density = 18.301431 Si / 1000 Ang^3
#
#
#
# Elastic Constant Matrix: (Units=GPa)
#
#
# Indices 1 2 3 4 5 6 
#
# 1 104.5690 61.1722 16.6359 0.0000 0.0000 0.0000
# 2 61.1722 104.5668 16.6360 0.0000 0.0000 0.0000
# 3 16.6359 16.6360 58.8718 0.0000 0.0000 0.0000
# 4 0.0000 0.0000 0.0000 18.4621 0.0000 0.0000
# 5 0.0000 0.0000 0.0000 0.0000 18.4623 0.0000
# 6 0.0000 0.0000 0.0000 0.0000 0.0000 32.4242
#
#
#
# Elastic Compliance Matrix: (Units=1/GPa)
#
#
# Indices 1 2 3 4 5 6 
#
# 1 0.014720 -0.008324 -0.001807 0.000000 0.000000 0.000000
# 2 -0.008324 0.014720 -0.001808 0.000000 0.000000 0.000000
# 3 -0.001807 -0.001808 0.018008 0.000000 0.000000 0.000000
# 4 0.000000 0.000000 0.000000 0.054165 0.000000 0.000000
# 5 0.000000 0.000000 0.000000 0.000000 0.054164 0.000000
# 6 0.000000 0.000000 0.000000 0.000000 0.000000 0.030841
#
#
# Mechanical properties :
#
#
# Convention : Reuss Voigt Hill
#
# Bulk Modulus (GPa) = 42.42605 50.76619 46.59612
# Shear Modulus (GPa) = 22.89877 25.44063 24.16970
#
# Velocity S-wave (km/s) = 3.54107 3.73244 3.63801
# Velocity P-wave (km/s) = 6.32068 6.80984 6.56982
#
# Compressibility (1/GPa) = 0.02357042
#
# Stress axis : x y z
#
# Youngs Moduli (GPa) = 67.93526 67.93369 55.53214
#
# Poissons Ratio (x) = 0.56546 0.10037
# Poissons Ratio (y) = 0.56547 0.10038
# Poissons Ratio (z) = 0.12279 0.12279
#
# Static dielectric constant tensor:
#      x y z
#    x 1.656240 0.000000 0.000000 
#    y 0.000000 1.656240 0.000000 
#    z 0.000000 0.000000 1.639340 
# 
# From -- ./inp_files/7432.got.cif
#   From: 2010.05.17/outbox.cif.g08.bks.cpg/sg138_4_cif.got.tgz:7432.got - 2010.05.20 13:08:53.
