data_PCOD9570805
_publ_section_title
;
Structure prediction by ZEFSAII (Michael W. Deem and Ramdas Pophale) SiO2 
 PCOD9570805
Probable space group: P 42/N C M
;
_chemical_formula_sum "Si O2"
_cell_formula_units_Z 80
_cell_length_a 18.097434
_cell_length_b 18.097434
_cell_length_c 14.391742
_cell_angle_alpha 90.000000
_cell_angle_beta 90.000000
_cell_angle_gamma 90.000000
_cell_volume 4713.541854
_symmetry_space_group_name_H-M "P 42/N C M"
_symmetry_group_IT_number 138
_space_group.IT_coordinate_system_code '2'
_symmetry_cell_setting 'tetragonal'
loop_
_space_group_symop_operation_xyz
x,y,z
1/2-y,x,1/2+z
1/2-x,1/2-y,z
y,1/2-x,1/2+z
1/2+x,-y,1/2-z
-x,1/2+y,1/2-z
1/2+y,1/2+x,-z
-y,-x,-z
-x,-y,-z
1/2+y,-x,1/2-z
1/2+x,1/2+y,-z
-y,1/2+x,1/2-z
1/2-x,y,1/2+z
x,1/2-y,1/2+z
1/2-y,1/2-x,z
y,x,z
loop_
_atom_site_type_symbol
_atom_site_label
_atom_site_fract_x
_atom_site_fract_y
_atom_site_fract_z
Si Si1 0.249173 0.373140 0.499151
Si Si2 0.563270 0.563270 0.398052
Si Si3 0.727628 0.992245 0.858463
Si Si4 0.946144 0.553857 0.122320
Si Si5 0.718641 0.997095 0.149476
Si Si6 0.750565 0.375278 0.502160
O O1 0.185969 0.314032 0.485584
O O2 0.325422 0.325422 0.508547
O O3 0.232942 0.424122 0.588459
O O4 0.252576 0.428853 0.412858
O O5 0.534183 0.643162 0.368980
O O6 0.559225 0.559225 0.510103
O O7 0.506391 0.506391 0.354845
O O8 0.748707 0.000131 0.751937
O O9 0.743290 0.067469 0.915869
O O10 0.868042 0.522809 0.156393
O O11 0.737771 0.071546 0.091748
O O12 0.826392 0.326392 0.500000
O O13 0.683913 0.316088 0.500000
#
# Coordination Sequence:
#
# PCOD9570805 Si02
#       6
#    16   8  16   8  16  16
#     4  10  20  36  57  83 120 155 188 235 289 345
#     4  11  20  38  64  87 112 153 201 248 290 339
#     4  11  22  37  59  90 121 151 196 241 293 350
#     4  11  20  38  64  87 112 153 201 248 290 339
#     4  11  22  37  59  90 121 151 196 241 293 350
#     4  10  22  41  62  84 115 155 197 245 295 345
#
# _framework density 16.972373999999999
#
# number of rings (size 3 to 8) (size 9 to 14) (size 15 to 20)
#    0.000    1.400    6.000    1.200    2.800    3.200 
#    0.000    4.000    0.000    2.400    0.000    0.000 
#    0.000    0.000    0.000    0.000    0.000    0.000 
#
# Total GULP energy -445893.704621 kJ/mol
# GULP energy per Si atom -5573.671308 kJ/mol
# Density = 1.693374 g / cm^3
# Si number density = 16.972374 Si / 1000 Ang^3
#
#
#
# Elastic Constant Matrix: (Units=GPa)
#
#
# Indices 1 2 3 4 5 6 
#
# 1 88.9202 61.6972 17.5810 0.0000 0.0000 0.0000
# 2 61.6972 88.9210 17.5810 0.0000 0.0000 0.0000
# 3 17.5810 17.5810 89.4549 0.0000 0.0000 0.0000
# 4 0.0000 0.0000 0.0000 -16.3220 0.0000 0.0000
# 5 0.0000 0.0000 0.0000 0.0000 -16.3244 0.0000
# 6 0.0000 0.0000 0.0000 0.0000 0.0000 30.5417
#
#
#
# Elastic Compliance Matrix: (Units=1/GPa)
#
#
# Indices 1 2 3 4 5 6 
#
# 1 0.021846 -0.014887 -0.001368 0.000000 0.000000 0.000000
# 2 -0.014887 0.021846 -0.001368 0.000000 0.000000 0.000000
# 3 -0.001368 -0.001368 0.011716 0.000000 0.000000 0.000000
# 4 0.000000 0.000000 0.000000 -0.061267 0.000000 0.000000
# 5 0.000000 0.000000 0.000000 0.000000 -0.061258 0.000000
# 6 0.000000 0.000000 0.000000 0.000000 0.000000 0.032742
#
#
# Mechanical properties :
#
#
# Convention : Reuss Voigt Hill
#
# Bulk Modulus (GPa) = 49.59542 51.22382 50.40962
# Shear Modulus (GPa) = 658.69367 10.94154 334.81761
#
# Velocity S-wave (km/s) = 19.72156 2.54179 14.06060
# Velocity P-wave (km/s) = 23.40665 6.23382 17.12793
#
# Compressibility (1/GPa) = 0.02016315
#
# Stress axis : x y z
#
# Youngs Moduli (GPa) = 45.77512 45.77554 85.35053
#
# Poissons Ratio (x) = 0.68147 0.11673
# Poissons Ratio (y) = 0.68146 0.11672
# Poissons Ratio (z) = 0.06260 0.06260
#
# Static dielectric constant tensor:
#      x y z
#    x 1.598510 0.000000 0.000000 
#    y 0.000000 1.598510 0.000000 
#    z 0.000000 0.000000 1.493900 
# 
# From -- ./inp_files/4167.got.cif
#   From: 2010.05.17/outbox.cif.g08.bks.cpg/sg138_3_cif.got.tgz:4167.got - 2010.05.20 13:08:53.
