data_PCOD9570829
_publ_section_title
;
Structure prediction by ZEFSAII (Michael W. Deem and Ramdas Pophale) SiO2 
 PCOD9570829
Probable space group: P 42/N C M
;
_chemical_formula_sum "Si O2"
_cell_formula_units_Z 64
_cell_length_a 25.039363
_cell_length_b 25.039363
_cell_length_c 4.869205
_cell_angle_alpha 90.000000
_cell_angle_beta 90.000000
_cell_angle_gamma 90.000000
_cell_volume 3052.843995
_symmetry_space_group_name_H-M "P 42/N C M"
_symmetry_group_IT_number 138
_space_group.IT_coordinate_system_code '2'
_symmetry_cell_setting 'tetragonal'
loop_
_space_group_symop_operation_xyz
x,y,z
1/2-y,x,1/2+z
1/2-x,1/2-y,z
y,1/2-x,1/2+z
1/2+x,-y,1/2-z
-x,1/2+y,1/2-z
1/2+y,1/2+x,-z
-y,-x,-z
-x,-y,-z
1/2+y,-x,1/2-z
1/2+x,1/2+y,-z
-y,1/2+x,1/2-z
1/2-x,y,1/2+z
x,1/2-y,1/2+z
1/2-y,1/2-x,z
y,x,z
loop_
_atom_site_type_symbol
_atom_site_label
_atom_site_fract_x
_atom_site_fract_y
_atom_site_fract_z
Si Si1 0.557183 0.642772 0.248833
Si Si2 0.442779 0.891504 0.755255
Si Si3 0.713617 0.471462 0.506560
Si Si4 0.284863 0.370203 0.111206
O O1 0.602209 0.602209 0.360591
O O2 0.504489 0.609916 0.157286
O O3 0.528455 0.685523 0.448463
O O4 0.584231 0.675999 0.004332
O O5 0.405737 0.905737 0.500000
O O6 0.433081 0.833436 0.896822
O O7 0.433239 0.933239 0.000000
O O8 0.734223 0.466320 0.814296
O O9 0.232100 0.372126 0.925510
O O10 0.315290 0.315290 0.057219
#
# Coordination Sequence:
#
# PCOD9570829 Si02
#       4
#    16  16  16  16
#     4   9  22  37  59  85 119 162 200 241 291 349
#     4  10  22  38  59  88 120 152 195 238 287 352
#     4  10  20  37  60  82 115 157 192 234 286 336
#     4  11  23  39  58  82 113 155 209 259 303 347
#
# _framework density 20.96406
#
# number of rings (size 3 to 8) (size 9 to 14) (size 15 to 20)
#    1.500    0.500    0.000    3.750    0.000    4.500 
#    0.000    8.750    0.000    0.000    0.000    0.000 
#    0.000   35.000    0.000    0.000    0.000    0.000 
#
# Total GULP energy -357051.401709 kJ/mol
# GULP energy per Si atom -5578.928152 kJ/mol
# Density = 2.091635 g / cm^3
# Si number density = 20.964060 Si / 1000 Ang^3
#
#
#
# Elastic Constant Matrix: (Units=GPa)
#
#
# Indices 1 2 3 4 5 6 
#
# 1 64.2526 37.6802 0.9945 0.0000 0.0000 0.0000
# 2 37.6802 64.2526 0.9945 0.0000 0.0000 0.0000
# 3 0.9945 0.9945 53.5273 0.0000 0.0000 0.0000
# 4 0.0000 0.0000 0.0000 3.7547 0.0000 0.0000
# 5 0.0000 0.0000 0.0000 0.0000 3.7547 0.0000
# 6 0.0000 0.0000 0.0000 0.0000 0.0000 39.1977
#
#
#
# Elastic Compliance Matrix: (Units=1/GPa)
#
#
# Indices 1 2 3 4 5 6 
#
# 1 0.023723 -0.013910 -0.000182 0.000000 0.000000 0.000000
# 2 -0.013910 0.023723 -0.000182 0.000000 0.000000 0.000000
# 3 -0.000182 -0.000182 0.018689 0.000000 0.000000 0.000000
# 4 0.000000 0.000000 0.000000 0.266334 0.000000 0.000000
# 5 0.000000 0.000000 0.000000 0.000000 0.266334 0.000000
# 6 0.000000 0.000000 0.000000 0.000000 0.000000 0.025512
#
#
# Mechanical properties :
#
#
# Convention : Reuss Voigt Hill
#
# Bulk Modulus (GPa) = 26.60470 29.04123 27.82296
# Shear Modulus (GPa) = 7.51437 18.83231 13.17334
#
# Velocity S-wave (km/s) = 1.89531 3.00044 2.50946
# Velocity P-wave (km/s) = 4.18423 5.08787 4.65802
#
# Compressibility (1/GPa) = 0.03758735
#
# Stress axis : x y z
#
# Youngs Moduli (GPa) = 42.15236 42.15236 53.50789
#
# Poissons Ratio (x) = 0.58632 0.00976
# Poissons Ratio (y) = 0.58632 0.00976
# Poissons Ratio (z) = 0.00769 0.00769
#
# Static dielectric constant tensor:
#      x y z
#    x 1.790220 0.000000 0.000000 
#    y 0.000000 1.790220 0.000000 
#    z 0.000000 0.000000 1.747350 
# 
# From -- ./inp_files/366.got.cif
#   From: 2010.05.17/outbox.cif.g08.bks.cpg/sg138_1_cif.got.tgz:366.got - 2010.05.20 13:08:53.
