data_PCOD9570754
_publ_section_title
;
Structure prediction by ZEFSAII (Michael W. Deem and Ramdas Pophale) SiO2 
 PCOD9570754
Probable space group: P 42/N C M
;
_chemical_formula_sum "Si O2"
_cell_formula_units_Z 112
_cell_length_a 16.991159
_cell_length_b 16.991159
_cell_length_c 19.927483
_cell_angle_alpha 90.000000
_cell_angle_beta 90.000000
_cell_angle_gamma 90.000000
_cell_volume 5753.054063
_symmetry_space_group_name_H-M "P 42/N C M"
_symmetry_group_IT_number 138
_space_group.IT_coordinate_system_code '2'
_symmetry_cell_setting 'tetragonal'
loop_
_space_group_symop_operation_xyz
x,y,z
1/2-y,x,1/2+z
1/2-x,1/2-y,z
y,1/2-x,1/2+z
1/2+x,-y,1/2-z
-x,1/2+y,1/2-z
1/2+y,1/2+x,-z
-y,-x,-z
-x,-y,-z
1/2+y,-x,1/2-z
1/2+x,1/2+y,-z
-y,1/2+x,1/2-z
1/2-x,y,1/2+z
x,1/2-y,1/2+z
1/2-y,1/2-x,z
y,x,z
loop_
_atom_site_type_symbol
_atom_site_label
_atom_site_fract_x
_atom_site_fract_y
_atom_site_fract_z
Si Si1 0.818133 0.422279 0.950330
Si Si2 0.048075 0.923525 0.648963
Si Si3 0.263409 0.912876 0.786727
Si Si4 0.557094 0.681194 0.148693
Si Si5 0.817481 0.942261 0.548342
Si Si6 0.697735 0.356190 0.854822
Si Si7 0.936924 0.437945 0.577221
O O1 0.876212 0.453068 0.891773
O O2 0.755874 0.363354 0.917150
O O3 0.871259 0.371259 0.000000
O O4 0.786750 0.497404 0.991665
O O5 0.074203 0.855877 0.700100
O O6 0.995199 0.875005 0.595175
O O7 0.994133 0.994133 0.676057
O O8 0.256468 0.877693 0.712902
O O9 0.222970 0.851771 0.839245
O O10 0.219865 0.996290 0.798410
O O11 0.628192 0.628192 0.176162
O O12 0.585949 0.749217 0.098250
O O13 0.502919 0.624347 0.103364
O O14 0.870728 0.870728 0.521796
O O15 0.634273 0.423470 0.873178
O O16 0.917881 0.417881 0.500000
O O17 0.022699 0.477302 0.578887
#
# Coordination Sequence:
#
# PCOD9570754 Si02
#       7
#    16  16  16  16  16  16  16
#     4  10  20  34  53  78 109 145 181 224 280 344
#     4   9  18  34  54  75 103 139 180 226 274 332
#     4  10  22  37  54  79 111 149 189 232 285 343
#     4   9  18  34  54  77 106 141 184 227 269 328
#     4   9  17  31  52  79 107 135 174 224 276 325
#     4  11  22  37  53  77 113 147 182 230 284 335
#     4   9  18  34  56  78 101 133 176 225 277 336
#
# _framework density 19.467919999999999
#
# number of rings (size 3 to 8) (size 9 to 14) (size 15 to 20)
#    0.000    2.429    0.000    2.143    0.000    5.714 
#    0.000    9.286    0.000    0.000    0.000    0.000 
#    0.000    4.571    0.000    0.000    0.000    0.000 
#
# Total GULP energy -624521.717346 kJ/mol
# GULP energy per Si atom -5576.086762 kJ/mol
# Density = 1.942361 g / cm^3
# Si number density = 19.467920 Si / 1000 Ang^3
#
#
#
# Elastic Constant Matrix: (Units=GPa)
#
#
# Indices 1 2 3 4 5 6 
#
# 1 60.6764 33.5263 11.5869 0.0000 0.0000 0.0000
# 2 33.5263 60.6764 11.5869 0.0000 0.0000 0.0000
# 3 11.5869 11.5869 32.5045 0.0000 0.0000 0.0000
# 4 0.0000 0.0000 0.0000 23.6610 0.0000 0.0000
# 5 0.0000 0.0000 0.0000 0.0000 23.6610 0.0000
# 6 0.0000 0.0000 0.0000 0.0000 0.0000 27.2317
#
#
#
# Elastic Compliance Matrix: (Units=1/GPa)
#
#
# Indices 1 2 3 4 5 6 
#
# 1 0.024234 -0.012598 -0.004148 0.000000 0.000000 0.000000
# 2 -0.012598 0.024234 -0.004148 0.000000 0.000000 0.000000
# 3 -0.004148 -0.004148 0.033722 0.000000 0.000000 0.000000
# 4 0.000000 0.000000 0.000000 0.042264 0.000000 0.000000
# 5 0.000000 0.000000 0.000000 0.000000 0.042264 0.000000
# 6 0.000000 0.000000 0.000000 0.000000 0.000000 0.036722
#
#
# Mechanical properties :
#
#
# Convention : Reuss Voigt Hill
#
# Bulk Modulus (GPa) = 24.75100 29.69526 27.22313
# Shear Modulus (GPa) = 19.32783 21.38791 20.35787
#
# Velocity S-wave (km/s) = 3.15430 3.31814 3.23726
# Velocity P-wave (km/s) = 5.09975 5.47418 5.29028
#
# Compressibility (1/GPa) = 0.04040241
#
# Stress axis : x y z
#
# Youngs Moduli (GPa) = 41.26423 41.26423 29.65420
#
# Poissons Ratio (x) = 0.51986 0.12300
# Poissons Ratio (y) = 0.51986 0.12300
# Poissons Ratio (z) = 0.17116 0.17116
#
# Static dielectric constant tensor:
#      x y z
#    x 1.717170 0.000000 0.000000 
#    y 0.000000 1.717170 0.000000 
#    z 0.000000 0.000000 1.696530 
# 
# From -- ./inp_files/6442.got.cif
#   From: 2010.05.17/outbox.cif.g08.bks.cpg/sg138_4_cif.got.tgz:6442.got - 2010.05.20 13:08:53.
