data_PCOD9570066
_publ_section_title
;
Structure prediction by ZEFSAII (Michael W. Deem and Ramdas Pophale) SiO2 
 PCOD9570066
Probable space group: P 42/N M C
;
_chemical_formula_sum "Si O2"
_cell_formula_units_Z 96
_cell_length_a 20.645135
_cell_length_b 20.645135
_cell_length_c 9.858681
_cell_angle_alpha 90.000000
_cell_angle_beta 90.000000
_cell_angle_gamma 90.000000
_cell_volume 4201.982782
_symmetry_space_group_name_H-M "P 42/N M C"
_symmetry_group_IT_number 137
_space_group.IT_coordinate_system_code '2'
_symmetry_cell_setting 'tetragonal'
loop_
_space_group_symop_operation_xyz
x,y,z
1/2-y,x,1/2+z
1/2-x,1/2-y,z
y,1/2-x,1/2+z
1/2+x,-y,-z
-x,1/2+y,-z
1/2+y,1/2+x,1/2-z
-y,-x,1/2-z
-x,-y,-z
1/2+y,-x,1/2-z
1/2+x,1/2+y,-z
-y,1/2+x,1/2-z
1/2-x,y,z
x,1/2-y,z
1/2-y,1/2-x,1/2+z
y,x,1/2+z
loop_
_atom_site_type_symbol
_atom_site_label
_atom_site_fract_x
_atom_site_fract_y
_atom_site_fract_z
Si Si1 0.936769 0.680723 0.059914
Si Si2 0.601165 0.545603 0.792075
Si Si3 0.039462 0.822589 0.496982
Si Si4 0.673643 0.675812 0.884788
Si Si5 0.359977 0.994152 0.697449
Si Si6 0.852779 0.323856 0.099623
O O1 0.952601 0.750000 0.123276
O O2 0.969800 0.622145 0.138904
O O3 0.860221 0.674148 0.033700
O O4 0.961955 0.680550 0.905555
O O5 0.643977 0.611425 0.815576
O O6 0.528056 0.569884 0.805305
O O7 0.625385 0.491450 0.895245
O O8 0.019990 0.750000 0.455642
O O9 0.011577 0.836214 0.648169
O O10 0.117766 0.824207 0.510600
O O11 0.750000 0.667748 0.892520
O O12 0.662231 0.750000 0.832218
O O13 0.350644 0.924224 0.632745
O O14 0.821734 0.321734 0.250000
O O15 0.852979 0.250000 0.045680
#
# Coordination Sequence:
#
# PCOD9570066 Si02
#       6
#    16  16  16  16  16  16
#     4  10  19  32  52  77 110 156 203 246 297 363
#     4  11  22  35  54  83 122 163 204 251 303 370
#     4  11  23  40  64  93 125 161 203 260 321 369
#     4   9  18  31  48  74 110 156 213 272 317 350
#     4  10  20  37  59  84 116 157 202 249 305 369
#     4  10  21  39  66  96 122 151 196 257 320 379
#
# _framework density 22.846356
#
# number of rings (size 3 to 8) (size 9 to 14) (size 15 to 20)
#    0.000    1.833    0.000    6.500    0.000    3.833 
#    0.000    4.167    0.000    0.000    0.000    4.667 
#    0.000   20.000    0.000    0.000    0.000    0.000 
#
# Total GULP energy -535302.062220 kJ/mol
# GULP energy per Si atom -5576.063148 kJ/mol
# Density = 2.279436 g / cm^3
# Si number density = 22.846356 Si / 1000 Ang^3
#
#
#
# Elastic Constant Matrix: (Units=GPa)
#
#
# Indices 1 2 3 4 5 6 
#
# 1 102.4670 50.9212 25.4277 0.0000 0.0000 0.0000
# 2 50.9212 102.4670 25.4277 0.0000 0.0000 0.0000
# 3 25.4277 25.4277 53.7102 0.0000 0.0000 0.0000
# 4 0.0000 0.0000 0.0000 16.6342 0.0000 0.0000
# 5 0.0000 0.0000 0.0000 0.0000 16.6342 0.0000
# 6 0.0000 0.0000 0.0000 0.0000 0.0000 16.5282
#
#
#
# Elastic Compliance Matrix: (Units=1/GPa)
#
#
# Indices 1 2 3 4 5 6 
#
# 1 0.013567 -0.005833 -0.003661 0.000000 0.000000 0.000000
# 2 -0.005833 0.013567 -0.003661 0.000000 0.000000 0.000000
# 3 -0.003661 -0.003661 0.022085 0.000000 0.000000 0.000000
# 4 0.000000 0.000000 0.000000 0.060117 0.000000 0.000000
# 5 0.000000 0.000000 0.000000 0.000000 0.060117 0.000000
# 6 0.000000 0.000000 0.000000 0.000000 0.000000 0.060503
#
#
# Mechanical properties :
#
#
# Convention : Reuss Voigt Hill
#
# Bulk Modulus (GPa) = 43.65474 51.35526 47.50500
# Shear Modulus (GPa) = 18.94643 20.41718 19.68181
#
# Velocity S-wave (km/s) = 2.88288 2.99268 2.93829
# Velocity P-wave (km/s) = 5.49825 5.87102 5.68769
#
# Compressibility (1/GPa) = 0.02290702
#
# Stress axis : x y z
#
# Youngs Moduli (GPa) = 73.70974 73.70974 45.27970
#
# Poissons Ratio (x) = 0.42999 0.16577
# Poissons Ratio (y) = 0.42999 0.16577
# Poissons Ratio (z) = 0.26986 0.26986
#
# Static dielectric constant tensor:
#      x y z
#    x 1.948400 0.000000 0.000000 
#    y 0.000000 1.948400 0.000000 
#    z 0.000000 0.000000 1.946060 
# 
# From -- ./inp_files/3786.got.cif
#   From: 2010.05.17/outbox.cif.g08.bks.cpg/sg137_2_cif.got.tgz:3786.got - 2010.05.20 13:01:12.
