data_PCOD9570453
_publ_section_title
;
Structure prediction by ZEFSAII (Michael W. Deem and Ramdas Pophale) SiO2 
 PCOD9570453
Probable space group: P 42/N M C
;
_chemical_formula_sum "Si O2"
_cell_formula_units_Z 80
_cell_length_a 14.850920
_cell_length_b 14.850920
_cell_length_c 15.021988
_cell_angle_alpha 90.000000
_cell_angle_beta 90.000000
_cell_angle_gamma 90.000000
_cell_volume 3313.096822
_symmetry_space_group_name_H-M "P 42/N M C"
_symmetry_group_IT_number 137
_space_group.IT_coordinate_system_code '2'
_symmetry_cell_setting 'tetragonal'
loop_
_space_group_symop_operation_xyz
x,y,z
1/2-y,x,1/2+z
1/2-x,1/2-y,z
y,1/2-x,1/2+z
1/2+x,-y,-z
-x,1/2+y,-z
1/2+y,1/2+x,1/2-z
-y,-x,1/2-z
-x,-y,-z
1/2+y,-x,1/2-z
1/2+x,1/2+y,-z
-y,1/2+x,1/2-z
1/2-x,y,z
x,1/2-y,z
1/2-y,1/2-x,1/2+z
y,x,1/2+z
loop_
_atom_site_type_symbol
_atom_site_label
_atom_site_fract_x
_atom_site_fract_y
_atom_site_fract_z
Si Si1 0.963428 0.647141 0.811873
Si Si2 0.856092 0.963368 0.665734
Si Si3 0.903117 0.350650 0.582204
Si Si4 0.147688 0.651527 0.615855
Si Si5 0.391057 0.145869 0.515879
O O1 0.969836 0.750000 0.777519
O O2 0.906671 0.653133 0.902759
O O3 0.061708 0.609500 0.840476
O O4 0.911903 0.583085 0.744042
O O5 0.750000 0.958526 0.686309
O O6 0.875187 0.907422 0.575252
O O7 0.882421 0.066613 0.646013
O O8 0.887414 0.250000 0.619281
O O9 0.848593 0.361025 0.490250
O O10 0.004438 0.355108 0.544702
O O11 0.250000 0.655993 0.649179
O O12 0.104957 0.750000 0.630927
O O13 0.362824 0.250000 0.507661
#
# Coordination Sequence:
#
# PCOD9570453 Si02
#       5
#    16  16  16  16  16
#     4  11  24  42  68 106 150 198 247 303 369 443
#     4  12  25  42  70 107 146 197 250 303 370 444
#     4  10  22  43  72 105 139 182 244 316 383 445
#     4   9  18  38  71 107 141 181 237 308 381 445
#     4  11  24  43  67  99 143 196 250 306 364 430
#
# _framework density 24.146592999999999
#
# number of rings (size 3 to 8) (size 9 to 14) (size 15 to 20)
#    0.000    1.400    2.000    3.000    0.000    5.600 
#    0.000    0.000    0.000    7.200    0.000   16.800 
#    0.000    0.000    0.000    0.000    0.000    0.000 
#
# Total GULP energy -448229.596543 kJ/mol
# GULP energy per Si atom -5602.869957 kJ/mol
# Density = 2.409163 g / cm^3
# Si number density = 24.146593 Si / 1000 Ang^3
#
#
#
# Elastic Constant Matrix: (Units=GPa)
#
#
# Indices 1 2 3 4 5 6 
#
# 1 187.0405 67.2432 71.7664 0.0000 0.0000 0.0000
# 2 67.2432 187.0405 71.7664 0.0000 0.0000 0.0000
# 3 71.7664 71.7664 149.7064 0.0000 0.0000 0.0000
# 4 0.0000 0.0000 0.0000 60.9633 0.0000 0.0000
# 5 0.0000 0.0000 0.0000 0.0000 60.9633 0.0000
# 6 0.0000 0.0000 0.0000 0.0000 0.0000 28.2521
#
#
#
# Elastic Compliance Matrix: (Units=1/GPa)
#
#
# Indices 1 2 3 4 5 6 
#
# 1 0.006869 -0.001478 -0.002585 0.000000 0.000000 0.000000
# 2 -0.001478 0.006869 -0.002585 0.000000 0.000000 0.000000
# 3 -0.002585 -0.002585 0.009158 0.000000 0.000000 0.000000
# 4 0.000000 0.000000 0.000000 0.016403 0.000000 0.000000
# 5 0.000000 0.000000 0.000000 0.000000 0.016403 0.000000
# 6 0.000000 0.000000 0.000000 0.000000 0.000000 0.035396
#
#
# Mechanical properties :
#
#
# Convention : Reuss Voigt Hill
#
# Bulk Modulus (GPa) = 104.14045 105.03770 104.58907
# Shear Modulus (GPa) = 46.47099 50.90316 48.68708
#
# Velocity S-wave (km/s) = 4.39171 4.59637 4.49521
# Velocity P-wave (km/s) = 8.30291 8.47132 8.38754
#
# Compressibility (1/GPa) = 0.00960242
#
# Stress axis : x y z
#
# Youngs Moduli (GPa) = 145.57162 145.57162 109.19725
#
# Poissons Ratio (x) = 0.21515 0.28223
# Poissons Ratio (y) = 0.21515 0.28223
# Poissons Ratio (z) = 0.37624 0.37624
#
# Static dielectric constant tensor:
#      x y z
#    x 1.995660 0.000000 0.000000 
#    y 0.000000 1.995660 0.000000 
#    z 0.000000 0.000000 1.895660 
# 
# From -- ./inp_files/4925.got.cif
#   From: 2010.05.17/outbox.cif.g08.bks.cpg/sg137_3_cif.got.tgz:4925.got - 2010.05.20 13:01:12.
