data_PCOD9570313
_publ_section_title
;
Structure prediction by ZEFSAII (Michael W. Deem and Ramdas Pophale) SiO2 
 PCOD9570313
Probable space group: P 42/N M C
;
_chemical_formula_sum "Si O2"
_cell_formula_units_Z 112
_cell_length_a 14.652419
_cell_length_b 14.652419
_cell_length_c 31.389409
_cell_angle_alpha 90.000000
_cell_angle_beta 90.000000
_cell_angle_gamma 90.000000
_cell_volume 6739.098395
_symmetry_space_group_name_H-M "P 42/N M C"
_symmetry_group_IT_number 137
_space_group.IT_coordinate_system_code '2'
_symmetry_cell_setting 'tetragonal'
loop_
_space_group_symop_operation_xyz
x,y,z
1/2-y,x,1/2+z
1/2-x,1/2-y,z
y,1/2-x,1/2+z
1/2+x,-y,-z
-x,1/2+y,-z
1/2+y,1/2+x,1/2-z
-y,-x,1/2-z
-x,-y,-z
1/2+y,-x,1/2-z
1/2+x,1/2+y,-z
-y,1/2+x,1/2-z
1/2-x,y,z
x,1/2-y,z
1/2-y,1/2-x,1/2+z
y,x,1/2+z
loop_
_atom_site_type_symbol
_atom_site_label
_atom_site_fract_x
_atom_site_fract_y
_atom_site_fract_z
Si Si1 0.145065 0.641377 0.065549
Si Si2 0.141232 0.141651 0.561567
Si Si3 0.504215 0.860181 0.365414
Si Si4 0.860895 0.966542 0.521973
Si Si5 0.644523 0.861047 0.199729
Si Si6 0.360667 0.143084 0.395382
Si Si7 0.494960 0.860031 0.268536
O O1 0.250000 0.617984 0.055121
O O2 0.139734 0.750000 0.072756
O O3 0.118584 0.587943 0.108542
O O4 0.072699 0.617173 0.028985
O O5 0.250000 0.130980 0.566992
O O6 0.124432 0.250000 0.553734
O O7 0.109422 0.082579 0.521149
O O8 0.087033 0.112835 0.603728
O O9 0.508154 0.750000 0.362661
O O10 0.507988 0.892800 0.317079
O O11 0.750000 0.959309 0.521638
O O12 0.893983 0.914372 0.564407
O O13 0.750000 0.888593 0.206386
O O14 0.644092 0.750000 0.199275
O O15 0.615073 0.891056 0.152130
O O16 0.577097 0.889369 0.237284
O O17 0.250000 0.136186 0.395482
O O18 0.382472 0.250000 0.400953
O O19 0.490832 0.750000 0.268153
O O20 0.403241 0.903241 0.250000
#
# Coordination Sequence:
#
# PCOD9570313 Si02
#       7
#    16  16  16  16  16  16  16
#     4   9  18  31  45  61  86 123 162 193 218 253
#     4   9  17  30  48  70  95 117 141 183 235 283
#     4   9  19  33  45  63  90 120 155 190 222 267
#     4   9  16  25  43  68  89 116 152 184 223 273
#     4   8  15  28  45  64  87 117 153 193 236 280
#     4   8  13  22  38  62  89 112 139 180 226 272
#     4  10  21  33  47  68  94 125 161 196 231 274
#
# _framework density 16.619433000000001
#
# number of rings (size 3 to 8) (size 9 to 14) (size 15 to 20)
#    0.000    3.143    0.000    1.286    2.000    3.571 
#    0.000    4.286    0.000    0.000    0.000    0.000 
#    0.000    0.286    0.000    0.000    0.000    0.000 
#
# Total GULP energy -623643.046498 kJ/mol
# GULP energy per Si atom -5568.241487 kJ/mol
# Density = 1.658161 g / cm^3
# Si number density = 16.619433 Si / 1000 Ang^3
#
#
#
# Elastic Constant Matrix: (Units=GPa)
#
#
# Indices 1 2 3 4 5 6 
#
# 1 48.0884 19.9795 45.2024 0.0000 0.0000 0.0000
# 2 19.9795 48.0884 45.2024 0.0000 0.0000 0.0000
# 3 45.2024 45.2024 140.3624 0.0000 0.0000 0.0000
# 4 0.0000 0.0000 0.0000 19.2749 0.0000 0.0000
# 5 0.0000 0.0000 0.0000 0.0000 19.2749 0.0000
# 6 0.0000 0.0000 0.0000 0.0000 0.0000 5.5950
#
#
#
# Elastic Compliance Matrix: (Units=1/GPa)
#
#
# Indices 1 2 3 4 5 6 
#
# 1 0.030624 -0.004952 -0.008267 0.000000 0.000000 0.000000
# 2 -0.004952 0.030624 -0.008267 0.000000 0.000000 0.000000
# 3 -0.008267 -0.008267 0.012449 0.000000 0.000000 0.000000
# 4 0.000000 0.000000 0.000000 0.051881 0.000000 0.000000
# 5 0.000000 0.000000 0.000000 0.000000 0.051881 0.000000
# 6 0.000000 0.000000 0.000000 0.000000 0.000000 0.178731
#
#
# Mechanical properties :
#
#
# Convention : Reuss Voigt Hill
#
# Bulk Modulus (GPa) = 32.54890 50.81201 41.68046
# Shear Modulus (GPa) = 12.21288 17.23928 14.72608
#
# Velocity S-wave (km/s) = 2.71376 3.22420 2.97993
# Velocity P-wave (km/s) = 5.42648 6.67090 6.08061
#
# Compressibility (1/GPa) = 0.03072300
#
# Stress axis : x y z
#
# Youngs Moduli (GPa) = 32.65451 32.65451 80.32652
#
# Poissons Ratio (x) = 0.16171 0.66408
# Poissons Ratio (y) = 0.16171 0.66408
# Poissons Ratio (z) = 0.26996 0.26996
#
# Static dielectric constant tensor:
#      x y z
#    x 1.571110 0.000000 0.000000 
#    y 0.000000 1.571110 0.000000 
#    z 0.000000 0.000000 1.566900 
# 
# From -- ./inp_files/9851.got.cif
#   From: 2010.05.17/outbox.cif.g08.bks.cpg/sg137_5_cif.got.tgz:9851.got - 2010.05.20 13:01:12.
