data_PCOD9570156
_publ_section_title
;
Structure prediction by ZEFSAII (Michael W. Deem and Ramdas Pophale) SiO2 
 PCOD9570156
Probable space group: P 42/N M C
;
_chemical_formula_sum "Si O2"
_cell_formula_units_Z 128
_cell_length_a 22.914462
_cell_length_b 22.914462
_cell_length_c 11.732903
_cell_angle_alpha 90.000000
_cell_angle_beta 90.000000
_cell_angle_gamma 90.000000
_cell_volume 6160.625517
_symmetry_space_group_name_H-M "P 42/N M C"
_symmetry_group_IT_number 137
_space_group.IT_coordinate_system_code '2'
_symmetry_cell_setting 'tetragonal'
loop_
_space_group_symop_operation_xyz
x,y,z
1/2-y,x,1/2+z
1/2-x,1/2-y,z
y,1/2-x,1/2+z
1/2+x,-y,-z
-x,1/2+y,-z
1/2+y,1/2+x,1/2-z
-y,-x,1/2-z
-x,-y,-z
1/2+y,-x,1/2-z
1/2+x,1/2+y,-z
-y,1/2+x,1/2-z
1/2-x,y,z
x,1/2-y,z
1/2-y,1/2-x,1/2+z
y,x,1/2+z
loop_
_atom_site_type_symbol
_atom_site_label
_atom_site_fract_x
_atom_site_fract_y
_atom_site_fract_z
Si Si1 0.033952 0.685754 0.744794
Si Si2 0.184097 0.414606 0.883096
Si Si3 0.525582 0.430548 0.133006
Si Si4 0.610193 0.584959 0.901776
Si Si5 0.007910 0.817886 0.289443
Si Si6 0.638175 0.076164 0.010041
Si Si7 0.681481 0.119872 0.644583
Si Si8 0.817660 0.681163 0.792824
O O1 0.046624 0.750000 0.788801
O O2 0.047128 0.633733 0.829314
O O3 0.066840 0.673682 0.625948
O O4 0.965051 0.681948 0.712614
O O5 0.250000 0.416335 0.931820
O O6 0.174196 0.351486 0.827498
O O7 0.137517 0.431486 0.977023
O O8 0.532063 0.467938 0.250000
O O9 0.458766 0.423453 0.097829
O O10 0.572713 0.448116 0.037523
O O11 0.638488 0.546059 0.800558
O O12 0.639963 0.647628 0.879374
O O13 0.990474 0.750000 0.284569
O O14 0.042587 0.830300 0.406914
O O15 0.053505 0.829904 0.188303
O O16 0.633396 0.141669 0.963398
O O17 0.660251 0.160251 0.750000
O O18 0.750000 0.126755 0.625733
O O19 0.750000 0.661257 0.793463
O O20 0.817536 0.750000 0.817524
#
# Coordination Sequence:
#
# PCOD9570156 Si02
#       8
#    16  16  16  16  16  16  16  16
#     4  10  19  39  62  80 110 153 198 235 279 347
#     4  10  20  36  58  83 109 147 195 235 277 340
#     4  10  24  39  54  86 120 151 190 242 300 344
#     4  12  22  36  60  85 111 149 196 238 286 345
#     4  10  20  36  58  83 113 154 196 232 281 350
#     4  10  20  37  58  85 115 151 195 235 286 347
#     4   9  20  37  57  85 120 150 182 230 292 353
#     4  10  22  39  58  84 119 152 187 241 296 340
#
# _framework density 20.77711
#
# number of rings (size 3 to 8) (size 9 to 14) (size 15 to 20)
#    0.000    1.875    2.500    1.500    0.000    4.625 
#    0.000    1.250    0.000    0.000    0.000    0.000 
#    0.000    0.000    0.000    0.000    0.000    0.000 
#
# Total GULP energy -714468.881374 kJ/mol
# GULP energy per Si atom -5581.788136 kJ/mol
# Density = 2.072982 g / cm^3
# Si number density = 20.777110 Si / 1000 Ang^3
#
#
#
# Elastic Constant Matrix: (Units=GPa)
#
#
# Indices 1 2 3 4 5 6 
#
# 1 95.6892 -4.2289 4.7546 0.0000 0.0000 0.0000
# 2 -4.2289 95.6872 4.7547 0.0000 0.0000 0.0000
# 3 4.7546 4.7547 20.1679 0.0000 0.0000 0.0000
# 4 0.0000 0.0000 0.0000 17.2816 0.0000 0.0000
# 5 0.0000 0.0000 0.0000 0.0000 17.2816 0.0000
# 6 0.0000 0.0000 0.0000 0.0000 0.0000 21.8756
#
#
#
# Elastic Compliance Matrix: (Units=1/GPa)
#
#
# Indices 1 2 3 4 5 6 
#
# 1 0.010608 0.000600 -0.002642 0.000000 0.000000 0.000000
# 2 0.000600 0.010609 -0.002643 0.000000 0.000000 0.000000
# 3 -0.002642 -0.002643 0.050830 0.000000 0.000000 0.000000
# 4 0.000000 0.000000 0.000000 0.057865 0.000000 0.000000
# 5 0.000000 0.000000 0.000000 0.000000 0.057865 0.000000
# 6 0.000000 0.000000 0.000000 0.000000 0.000000 0.045713
#
#
# Mechanical properties :
#
#
# Convention : Reuss Voigt Hill
#
# Bulk Modulus (GPa) = 15.95481 24.67834 20.31657
# Shear Modulus (GPa) = 18.95723 25.03868 21.99796
#
# Velocity S-wave (km/s) = 3.02389 3.47523 3.25739
# Velocity P-wave (km/s) = 4.45955 5.29211 4.89357
#
# Compressibility (1/GPa) = 0.06267703
#
# Stress axis : x y z
#
# Youngs Moduli (GPa) = 94.26566 94.26362 19.67352
#
# Poissons Ratio (x) = -0.05657 0.05199
# Poissons Ratio (y) = -0.05657 0.05199
# Poissons Ratio (z) = 0.24909 0.24909
#
# Static dielectric constant tensor:
#      x y z
#    x 1.771070 0.000000 0.000000 
#    y 0.000000 1.771070 0.000000 
#    z 0.000000 0.000000 1.757760 
# 
# From -- ./inp_files/4014.got.cif
#   From: 2010.05.17/outbox.cif.g08.bks.cpg/sg137_3_cif.got.tgz:4014.got - 2010.05.20 13:01:12.
