data_PCOD9570379
_publ_section_title
;
Structure prediction by ZEFSAII (Michael W. Deem and Ramdas Pophale) SiO2 
 PCOD9570379
Probable space group: P 42/N M C
;
_chemical_formula_sum "Si O2"
_cell_formula_units_Z 96
_cell_length_a 14.508407
_cell_length_b 14.508407
_cell_length_c 22.855048
_cell_angle_alpha 90.000000
_cell_angle_beta 90.000000
_cell_angle_gamma 90.000000
_cell_volume 4810.847587
_symmetry_space_group_name_H-M "P 42/N M C"
_symmetry_group_IT_number 137
_space_group.IT_coordinate_system_code '2'
_symmetry_cell_setting 'tetragonal'
loop_
_space_group_symop_operation_xyz
x,y,z
1/2-y,x,1/2+z
1/2-x,1/2-y,z
y,1/2-x,1/2+z
1/2+x,-y,-z
-x,1/2+y,-z
1/2+y,1/2+x,1/2-z
-y,-x,1/2-z
-x,-y,-z
1/2+y,-x,1/2-z
1/2+x,1/2+y,-z
-y,1/2+x,1/2-z
1/2-x,y,z
x,1/2-y,z
1/2-y,1/2-x,1/2+z
y,x,1/2+z
loop_
_atom_site_type_symbol
_atom_site_label
_atom_site_fract_x
_atom_site_fract_y
_atom_site_fract_z
Si Si1 0.143475 0.643475 0.250000
Si Si2 0.641973 0.950081 0.409577
Si Si3 0.483897 0.355190 0.846832
Si Si4 0.750000 0.854936 0.960212
Si Si5 0.750000 0.140488 0.134522
Si Si6 0.357588 0.930649 0.474940
Si Si7 0.043242 0.750000 0.508936
Si Si8 0.542667 0.427204 0.317601
O O1 0.133347 0.750000 0.270552
O O2 0.130321 0.570476 0.302401
O O3 0.750000 0.968799 0.396349
O O4 0.632540 0.841958 0.421992
O O5 0.619848 0.004172 0.469893
O O6 0.579427 0.989789 0.358275
O O7 0.451664 0.250000 0.838681
O O8 0.517351 0.365524 0.913580
O O9 0.412231 0.435821 0.833465
O O10 0.750000 0.750000 0.983107
O O11 0.750000 0.933074 0.009447
O O12 0.750000 0.250000 0.127347
O O13 0.750000 0.091075 0.071762
O O14 0.840324 0.105776 0.167596
O O15 0.250000 0.902496 0.481531
O O16 0.421069 0.841285 0.476716
O O17 0.549770 0.450230 0.250000
#
# Coordination Sequence:
#
# PCOD9570379 Si02
#       8
#     8  16  16   8   8  16   8  16
#     4   9  18  36  60  88 129 176 220 264 315 378
#     4  10  22  44  67  92 129 168 216 269 320 390
#     4  10  22  41  62  95 135 175 214 264 324 393
#     4  10  24  42  64  98 130 178 217 255 316 398
#     4  12  28  46  70  98 130 164 214 285 343 396
#     4  10  21  37  65  96 131 164 209 269 331 386
#     4  12  22  38  66 100 132 166 211 272 339 392
#     4  12  26  44  68  96 127 172 221 269 331 386
#
# _framework density 19.954903000000002
#
# number of rings (size 3 to 8) (size 9 to 14) (size 15 to 20)
#    0.000    1.417    2.500    2.250    5.833    1.333 
#    3.000    0.417    0.000    0.000    0.000    0.000 
#    0.000    0.000    0.000    0.000    0.000    0.000 
#
# Total GULP energy -536730.367789 kJ/mol
# GULP energy per Si atom -5590.941331 kJ/mol
# Density = 1.990948 g / cm^3
# Si number density = 19.954903 Si / 1000 Ang^3
#
#
#
# Elastic Constant Matrix: (Units=GPa)
#
#
# Indices 1 2 3 4 5 6 
#
# 1 115.6035 46.9539 39.5168 0.0000 0.0000 0.0000
# 2 46.9539 115.6112 39.5182 0.0000 0.0000 0.0000
# 3 39.5168 39.5182 104.6303 0.0000 0.0000 0.0000
# 4 0.0000 0.0000 0.0000 14.3411 0.0000 0.0000
# 5 0.0000 0.0000 0.0000 0.0000 14.3408 0.0000
# 6 0.0000 0.0000 0.0000 0.0000 0.0000 27.0125
#
#
#
# Elastic Compliance Matrix: (Units=1/GPa)
#
#
# Indices 1 2 3 4 5 6 
#
# 1 0.011051 -0.003515 -0.002846 0.000000 0.000000 0.000000
# 2 -0.003515 0.011050 -0.002846 0.000000 0.000000 0.000000
# 3 -0.002846 -0.002846 0.011707 0.000000 0.000000 0.000000
# 4 0.000000 0.000000 0.000000 0.069730 0.000000 0.000000
# 5 0.000000 0.000000 0.000000 0.000000 0.069731 0.000000
# 6 0.000000 0.000000 0.000000 0.000000 0.000000 0.037020
#
#
# Mechanical properties :
#
#
# Convention : Reuss Voigt Hill
#
# Bulk Modulus (GPa) = 64.96115 65.31364 65.13739
# Shear Modulus (GPa) = 21.38259 25.12927 23.25593
#
# Velocity S-wave (km/s) = 3.27700 3.55252 3.41754
# Velocity P-wave (km/s) = 6.85149 7.04477 6.94881
#
# Compressibility (1/GPa) = 0.01539382
#
# Stress axis : x y z
#
# Youngs Moduli (GPa) = 90.49034 90.49622 85.41746
#
# Poissons Ratio (x) = 0.31813 0.24310
# Poissons Ratio (y) = 0.31811 0.24309
# Poissons Ratio (z) = 0.25753 0.25754
#
# Static dielectric constant tensor:
#      x y z
#    x 1.704370 0.000000 0.000000 
#    y 0.000000 1.704370 0.000000 
#    z 0.000000 0.000000 1.666760 
# 
# From -- ./inp_files/7936.got.cif
#   From: 2010.05.17/outbox.cif.g08.bks.cpg/sg137_4_cif.got.tgz:7936.got - 2010.05.20 13:01:12.
