data_PCOD9570481
_publ_section_title
;
Structure prediction by ZEFSAII (Michael W. Deem and Ramdas Pophale) SiO2 
 PCOD9570481
Probable space group: P 42/N M C
;
_chemical_formula_sum "Si O2"
_cell_formula_units_Z 96
_cell_length_a 14.001552
_cell_length_b 14.001552
_cell_length_c 32.955942
_cell_angle_alpha 90.000000
_cell_angle_beta 90.000000
_cell_angle_gamma 90.000000
_cell_volume 6460.796845
_symmetry_space_group_name_H-M "P 42/N M C"
_symmetry_group_IT_number 137
_space_group.IT_coordinate_system_code '2'
_symmetry_cell_setting 'tetragonal'
loop_
_space_group_symop_operation_xyz
x,y,z
1/2-y,x,1/2+z
1/2-x,1/2-y,z
y,1/2-x,1/2+z
1/2+x,-y,-z
-x,1/2+y,-z
1/2+y,1/2+x,1/2-z
-y,-x,1/2-z
-x,-y,-z
1/2+y,-x,1/2-z
1/2+x,1/2+y,-z
-y,1/2+x,1/2-z
1/2-x,y,z
x,1/2-y,z
1/2-y,1/2-x,1/2+z
y,x,1/2+z
loop_
_atom_site_type_symbol
_atom_site_label
_atom_site_fract_x
_atom_site_fract_y
_atom_site_fract_z
Si Si1 0.134374 0.948301 0.045304
Si Si2 0.636561 0.949417 0.081850
Si Si3 0.865961 0.356817 0.040019
Si Si4 0.857076 0.865659 0.494746
Si Si5 0.531195 0.135103 0.875979
Si Si6 0.866117 0.140005 0.705261
O O1 0.250000 0.945269 0.047551
O O2 0.091014 0.907295 0.086297
O O3 0.104732 0.886844 0.005643
O O4 0.104186 0.057205 0.034941
O O5 0.750000 0.944262 0.088540
O O6 0.613984 0.889552 0.040813
O O7 0.574589 0.905528 0.117533
O O8 0.609149 0.058247 0.070768
O O9 0.750000 0.357272 0.038923
O O10 0.896818 0.250000 0.050488
O O11 0.750000 0.900315 0.486607
O O12 0.855299 0.750000 0.492149
O O13 0.532005 0.250000 0.878492
O O14 0.577386 0.105804 0.833236
O O15 0.895516 0.104485 0.750000
O O16 0.750000 0.141453 0.706412
O O17 0.897228 0.250000 0.699624
#
# Coordination Sequence:
#
# PCOD9570481 Si02
#       6
#    16  16  16  16  16  16
#     4   9  17  27  39  59  84 107 137 177 212 240
#     4   9  18  30  41  57  82 109 141 178 207 233
#     4   8  14  26  42  57  79 112 142 171 210 246
#     4   8  14  26  41  54  77 116 150 173 202 239
#     4  11  20  27  41  64  84 106 137 168 202 242
#     4   8  15  29  47  66  88 109 126 151 196 253
#
# _framework density 14.858848999999999
#
# number of rings (size 3 to 8) (size 9 to 14) (size 15 to 20)
#    0.000    3.167    0.000    4.000    0.000    5.333 
#    0.000    2.500    0.000    0.000    0.000    2.333 
#    0.000    5.333    0.000    0.000    0.000    0.000 
#
# Total GULP energy -535097.731956 kJ/mol
# GULP energy per Si atom -5573.934708 kJ/mol
# Density = 1.482503 g / cm^3
# Si number density = 14.858849 Si / 1000 Ang^3
#
#
#
# Elastic Constant Matrix: (Units=GPa)
#
#
# Indices 1 2 3 4 5 6 
#
# 1 85.9155 21.6730 42.1917 0.0000 0.0000 0.0000
# 2 21.6730 85.9157 42.1918 0.0000 0.0000 0.0000
# 3 42.1917 42.1918 103.2587 0.0000 0.0000 0.0000
# 4 0.0000 0.0000 0.0000 18.1209 0.0000 0.0000
# 5 0.0000 0.0000 0.0000 0.0000 18.1207 0.0000
# 6 0.0000 0.0000 0.0000 0.0000 0.0000 13.4015
#
#
#
# Elastic Compliance Matrix: (Units=1/GPa)
#
#
# Indices 1 2 3 4 5 6 
#
# 1 0.014622 -0.000944 -0.005589 0.000000 0.000000 0.000000
# 2 -0.000944 0.014622 -0.005589 0.000000 0.000000 0.000000
# 3 -0.005589 -0.005589 0.014252 0.000000 0.000000 0.000000
# 4 0.000000 0.000000 0.000000 0.055185 0.000000 0.000000
# 5 0.000000 0.000000 0.000000 0.000000 0.055185 0.000000
# 6 0.000000 0.000000 0.000000 0.000000 0.000000 0.074618
#
#
# Mechanical properties :
#
#
# Convention : Reuss Voigt Hill
#
# Bulk Modulus (GPa) = 51.94183 54.13367 53.03775
# Shear Modulus (GPa) = 19.29418 21.19752 20.24585
#
# Velocity S-wave (km/s) = 3.60738 3.78112 3.69527
# Velocity P-wave (km/s) = 7.23765 7.45477 7.34701
#
# Compressibility (1/GPa) = 0.01925231
#
# Stress axis : x y z
#
# Youngs Moduli (GPa) = 68.38967 68.38980 70.16702
#
# Poissons Ratio (x) = 0.06456 0.39216
# Poissons Ratio (y) = 0.06455 0.39216
# Poissons Ratio (z) = 0.38222 0.38223
#
# Static dielectric constant tensor:
#      x y z
#    x 1.533600 0.000000 0.000000 
#    y 0.000000 1.533600 0.000000 
#    z 0.000000 0.000000 1.457070 
# 
# From -- ./inp_files/10591.got.cif
#   From: 2010.05.17/outbox.cif.g08.bks.cpg/sg137_6_cif.got.tgz:10591.got - 2010.05.20 13:01:12.
