data_PCOD9570875
_publ_section_title
;
Structure prediction by ZEFSAII (Michael W. Deem and Ramdas Pophale) SiO2 
 PCOD9570875
Probable space group: P 42/N C M
;
_chemical_formula_sum "Si O2"
_cell_formula_units_Z 64
_cell_length_a 11.937072
_cell_length_b 11.937072
_cell_length_c 24.701506
_cell_angle_alpha 90.000000
_cell_angle_beta 90.000000
_cell_angle_gamma 90.000000
_cell_volume 3519.808687
_symmetry_space_group_name_H-M "P 42/N C M"
_symmetry_group_IT_number 138
_space_group.IT_coordinate_system_code '2'
_symmetry_cell_setting 'tetragonal'
loop_
_space_group_symop_operation_xyz
x,y,z
1/2-y,x,1/2+z
1/2-x,1/2-y,z
y,1/2-x,1/2+z
1/2+x,-y,1/2-z
-x,1/2+y,1/2-z
1/2+y,1/2+x,-z
-y,-x,-z
-x,-y,-z
1/2+y,-x,1/2-z
1/2+x,1/2+y,-z
-y,1/2+x,1/2-z
1/2-x,y,1/2+z
x,1/2-y,1/2+z
1/2-y,1/2-x,z
y,x,z
loop_
_atom_site_type_symbol
_atom_site_label
_atom_site_fract_x
_atom_site_fract_y
_atom_site_fract_z
Si Si1 0.253024 0.064125 0.247455
Si Si2 0.383405 0.735037 0.161402
Si Si3 0.316312 0.002201 0.629527
Si Si4 0.142986 0.664959 0.939763
O O1 0.364811 0.135190 0.258873
O O2 0.148328 0.148328 0.254903
O O3 0.242434 0.959164 0.287009
O O4 0.250075 0.027930 0.184818
O O5 0.250000 0.750000 0.173081
O O6 0.393075 0.605963 0.143070
O O7 0.411799 0.815653 0.110348
O O8 0.234177 0.962177 0.582447
O O9 0.392269 0.107732 0.615682
O O10 0.250000 0.750000 0.943577
O O11 0.121446 0.621446 0.000000
#
# Coordination Sequence:
#
# PCOD9570875 Si02
#       4
#    16  16  16  16
#     4  10  21  35  51  75 108 142 174 213 267 320
#     4   9  19  31  51  76 105 135 175 216 264 312
#     4   9  18  30  49  75 101 134 176 219 266 317
#     4   8  16  32  50  72 103 134 171 219 267 311
#
# _framework density 18.182805999999999
#
# number of rings (size 3 to 8) (size 9 to 14) (size 15 to 20)
#    0.000    3.500    0.000    0.750    7.000    1.000 
#    0.000   11.250    0.000    3.000    0.000    3.500 
#    0.000    0.000    0.000    0.000    0.000    0.000 
#
# Total GULP energy -356484.917630 kJ/mol
# GULP energy per Si atom -5570.076838 kJ/mol
# Density = 1.814142 g / cm^3
# Si number density = 18.182806 Si / 1000 Ang^3
#
#
#
# Elastic Constant Matrix: (Units=GPa)
#
#
# Indices 1 2 3 4 5 6 
#
# 1 52.8190 22.7995 63.1551 0.0000 0.0000 0.0000
# 2 22.7995 52.8190 63.1551 0.0000 0.0000 0.0000
# 3 63.1551 63.1551 160.7426 0.0000 0.0000 0.0000
# 4 0.0000 0.0000 0.0000 5.4163 0.0000 0.0000
# 5 0.0000 0.0000 0.0000 0.0000 5.4163 0.0000
# 6 0.0000 0.0000 0.0000 0.0000 0.0000 9.3503
#
#
#
# Elastic Compliance Matrix: (Units=1/GPa)
#
#
# Indices 1 2 3 4 5 6 
#
# 1 0.035893 0.002581 -0.015116 0.000000 0.000000 0.000000
# 2 0.002581 0.035893 -0.015116 0.000000 0.000000 0.000000
# 3 -0.015116 -0.015116 0.018099 0.000000 0.000000 0.000000
# 4 0.000000 0.000000 0.000000 0.184629 0.000000 0.000000
# 5 0.000000 0.000000 0.000000 0.000000 0.184629 0.000000
# 6 0.000000 0.000000 0.000000 0.000000 0.000000 0.106949
#
#
# Mechanical properties :
#
#
# Convention : Reuss Voigt Hill
#
# Bulk Modulus (GPa) = 28.91658 62.73333 45.82496
# Shear Modulus (GPa) = 7.89986 11.85461 9.87723
#
# Velocity S-wave (km/s) = 2.08665 2.55614 2.33323
# Velocity P-wave (km/s) = 4.66297 6.57937 5.70225
#
# Compressibility (1/GPa) = 0.03458223
#
# Stress axis : x y z
#
# Youngs Moduli (GPa) = 27.86071 27.86071 55.25050
#
# Poissons Ratio (x) = -0.07191 0.83518
# Poissons Ratio (y) = -0.07191 0.83518
# Poissons Ratio (z) = 0.42115 0.42115
#
# Static dielectric constant tensor:
#      x y z
#    x 1.644940 0.000000 0.000000 
#    y 0.000000 1.644940 0.000000 
#    z 0.000000 0.000000 1.650630 
# 
# From -- ./inp_files/7323.got.cif
#   From: 2010.05.17/outbox.cif.g08.bks.cpg/sg138_4_cif.got.tgz:7323.got - 2010.05.20 13:08:53.
