data_PCOD9570856
_publ_section_title
;
Structure prediction by ZEFSAII (Michael W. Deem and Ramdas Pophale) SiO2 
 PCOD9570856
Probable space group: P 42/N C M
;
_chemical_formula_sum "Si O2"
_cell_formula_units_Z 96
_cell_length_a 14.613142
_cell_length_b 14.613142
_cell_length_c 24.988735
_cell_angle_alpha 90.000000
_cell_angle_beta 90.000000
_cell_angle_gamma 90.000000
_cell_volume 5336.192406
_symmetry_space_group_name_H-M "P 42/N C M"
_symmetry_group_IT_number 138
_space_group.IT_coordinate_system_code '2'
_symmetry_cell_setting 'tetragonal'
loop_
_space_group_symop_operation_xyz
x,y,z
1/2-y,x,1/2+z
1/2-x,1/2-y,z
y,1/2-x,1/2+z
1/2+x,-y,1/2-z
-x,1/2+y,1/2-z
1/2+y,1/2+x,-z
-y,-x,-z
-x,-y,-z
1/2+y,-x,1/2-z
1/2+x,1/2+y,-z
-y,1/2+x,1/2-z
1/2-x,y,1/2+z
x,1/2-y,1/2+z
1/2-y,1/2-x,z
y,x,z
loop_
_atom_site_type_symbol
_atom_site_label
_atom_site_fract_x
_atom_site_fract_y
_atom_site_fract_z
Si Si1 0.174097 0.174097 0.788532
Si Si2 0.916861 0.583140 0.555249
Si Si3 0.171314 0.328687 0.166871
Si Si4 0.570202 0.570202 0.936008
Si Si5 0.496224 0.696617 0.146409
Si Si6 0.055870 0.907583 0.770972
Si Si7 0.996127 0.274378 0.641590
Si Si8 0.176703 0.669680 0.826548
O O1 0.250000 0.250000 0.785763
O O2 0.148438 0.148438 0.728370
O O3 0.086352 0.215806 0.818582
O O4 0.895014 0.604987 0.493771
O O5 0.835407 0.537148 0.589732
O O6 0.994068 0.505932 0.555053
O O7 0.250000 0.250000 0.164631
O O8 0.206248 0.419873 0.140015
O O9 0.520754 0.649170 0.901872
O O10 0.451804 0.612427 0.179805
O O11 0.416537 0.772090 0.146084
O O12 0.005055 0.823285 0.799857
O O13 0.125467 0.871843 0.725839
O O14 0.982033 0.982033 0.751412
O O15 0.900748 0.220411 0.638461
O O16 0.250000 0.750000 0.813687
#
# Coordination Sequence:
#
# PCOD9570856 Si02
#       8
#     8   8   8   8  16  16  16  16
#     4  10  21  37  57  80 118 162 199 250 290 365
#     4  10  20  40  69  83 109 150 217 270 311 348
#     4  11  21  37  57  85 125 157 200 243 303 366
#     4  11  20  41  64  88 106 156 211 275 314 341
#     4  11  21  38  56  87 119 161 200 253 299 373
#     4  12  21  36  57  86 126 168 205 235 300 375
#     4  12  23  37  57  89 122 161 204 259 302 379
#     4  12  25  35  57  90 135 169 198 239 317 385
#
# _framework density 17.990355999999998
#
# number of rings (size 3 to 8) (size 9 to 14) (size 15 to 20)
#    0.000    0.667    6.667    3.000    3.500    2.000 
#    0.000    0.833    7.333    3.000    0.000    1.167 
#    0.000    0.000    0.000    0.000    0.000    0.000 
#
# Total GULP energy -535859.891883 kJ/mol
# GULP energy per Si atom -5581.873874 kJ/mol
# Density = 1.794941 g / cm^3
# Si number density = 17.990356 Si / 1000 Ang^3
#
#
#
# Elastic Constant Matrix: (Units=GPa)
#
#
# Indices 1 2 3 4 5 6 
#
# 1 95.7685 59.1214 32.1321 0.0000 0.0000 0.0000
# 2 59.1214 95.7685 32.1321 0.0000 0.0000 0.0000
# 3 32.1321 32.1321 90.0107 0.0000 0.0000 0.0000
# 4 0.0000 0.0000 0.0000 8.1745 0.0000 0.0000
# 5 0.0000 0.0000 0.0000 0.0000 8.1745 0.0000
# 6 0.0000 0.0000 0.0000 0.0000 0.0000 49.8574
#
#
#
# Elastic Compliance Matrix: (Units=1/GPa)
#
#
# Indices 1 2 3 4 5 6 
#
# 1 0.017433 -0.009854 -0.002705 0.000000 0.000000 0.000000
# 2 -0.009854 0.017433 -0.002705 0.000000 0.000000 0.000000
# 3 -0.002705 -0.002705 0.013041 0.000000 0.000000 0.000000
# 4 0.000000 0.000000 0.000000 0.122332 0.000000 0.000000
# 5 0.000000 0.000000 0.000000 0.000000 0.122332 0.000000
# 6 0.000000 0.000000 0.000000 0.000000 0.000000 0.020057
#
#
# Mechanical properties :
#
#
# Convention : Reuss Voigt Hill
#
# Bulk Modulus (GPa) = 57.54742 58.70209 58.12475
# Shear Modulus (GPa) = 14.32866 23.78541 19.05703
#
# Velocity S-wave (km/s) = 2.82523 3.64004 3.25821
# Velocity P-wave (km/s) = 6.53452 7.09698 6.82155
#
# Compressibility (1/GPa) = 0.01737697
#
# Stress axis : x y z
#
# Youngs Moduli (GPa) = 57.36249 57.36249 76.67898
#
# Poissons Ratio (x) = 0.56527 0.20745
# Poissons Ratio (y) = 0.56527 0.20745
# Poissons Ratio (z) = 0.15519 0.15519
#
# Static dielectric constant tensor:
#      x y z
#    x 2.821150 0.000000 0.000000 
#    y 0.000000 2.821150 0.000000 
#    z 0.000000 0.000000 1.625040 
# 
# From -- ./inp_files/7547.got.cif
#   From: 2010.05.17/outbox.cif.g08.bks.cpg/sg138_4_cif.got.tgz:7547.got - 2010.05.20 13:08:53.
