data_PCOD9570607
_publ_section_title
;
Structure prediction by ZEFSAII (Michael W. Deem and Ramdas Pophale) SiO2 
 PCOD9570607
Probable space group: P 42/N C M
;
_chemical_formula_sum "Si O2"
_cell_formula_units_Z 64
_cell_length_a 11.864980
_cell_length_b 11.864980
_cell_length_c 19.034915
_cell_angle_alpha 90.000000
_cell_angle_beta 90.000000
_cell_angle_gamma 90.000000
_cell_volume 2679.692513
_symmetry_space_group_name_H-M "P 42/N C M"
_symmetry_group_IT_number 138
_space_group.IT_coordinate_system_code '2'
_symmetry_cell_setting 'tetragonal'
loop_
_space_group_symop_operation_xyz
x,y,z
1/2-y,x,1/2+z
1/2-x,1/2-y,z
y,1/2-x,1/2+z
1/2+x,-y,1/2-z
-x,1/2+y,1/2-z
1/2+y,1/2+x,-z
-y,-x,-z
-x,-y,-z
1/2+y,-x,1/2-z
1/2+x,1/2+y,-z
-y,1/2+x,1/2-z
1/2-x,y,1/2+z
x,1/2-y,1/2+z
1/2-y,1/2-x,z
y,x,z
loop_
_atom_site_type_symbol
_atom_site_label
_atom_site_fract_x
_atom_site_fract_y
_atom_site_fract_z
Si Si1 0.062733 0.244989 0.354345
Si Si2 0.908284 0.087407 0.780042
Si Si3 0.815533 0.502454 0.849982
Si Si4 0.689970 0.500416 0.990736
O O1 0.160871 0.339130 0.342026
O O2 0.128580 0.128580 0.335659
O O3 0.950708 0.297913 0.317314
O O4 0.032874 0.249826 0.436766
O O5 0.799889 0.026870 0.810655
O O6 0.921398 0.104696 0.696224
O O7 0.003422 0.003422 0.803075
O O8 0.783178 0.482675 0.930485
O O9 0.875016 0.624985 0.842855
O O10 0.604510 0.604510 0.971954
O O11 0.608653 0.391348 0.000000
#
# Coordination Sequence:
#
# PCOD9570607 Si02
#       4
#    16  16  16  16
#     4   9  17  31  53  87 135 185 231 288 358 430
#     4  10  22  39  60  96 141 186 245 306 358 432
#     4  11  23  39  64  97 141 193 242 299 369 435
#     4  10  18  32  59  95 139 187 239 299 358 432
#
# _framework density 23.883338999999999
#
# number of rings (size 3 to 8) (size 9 to 14) (size 15 to 20)
#    0.000    2.000    2.500    1.500    0.000    5.500 
#    0.000    5.000    0.000    1.500    0.000    5.250 
#    0.000    0.000    0.000    0.000    0.000    0.000 
#
# Total GULP energy -356494.348842 kJ/mol
# GULP energy per Si atom -5570.224201 kJ/mol
# Density = 2.382898 g / cm^3
# Si number density = 23.883339 Si / 1000 Ang^3
#
#
#
# Elastic Constant Matrix: (Units=GPa)
#
#
# Indices 1 2 3 4 5 6 
#
# 1 438.2590 -230.2131 39.6022 0.0000 0.0000 0.0000
# 2 -230.2131 438.2424 39.5884 0.0000 0.0000 0.0000
# 3 39.6022 39.5884 116.5520 0.0000 0.0000 0.0000
# 4 0.0000 0.0000 0.0000 20.1205 0.0000 0.0000
# 5 0.0000 0.0000 0.0000 0.0000 20.1203 0.0000
# 6 0.0000 0.0000 0.0000 0.0000 0.0000 44.8176
#
#
#
# Elastic Compliance Matrix: (Units=1/GPa)
#
#
# Indices 1 2 3 4 5 6 
#
# 1 0.003508 0.002012 -0.001876 0.000000 0.000000 0.000000
# 2 0.002012 0.003508 -0.001875 0.000000 0.000000 0.000000
# 3 -0.001876 -0.001875 0.009854 0.000000 0.000000 0.000000
# 4 0.000000 0.000000 0.000000 0.049700 0.000000 0.000000
# 5 0.000000 0.000000 0.000000 0.000000 0.049701 0.000000
# 6 0.000000 0.000000 0.000000 0.000000 0.000000 0.022313
#
#
# Mechanical properties :
#
#
# Convention : Reuss Voigt Hill
#
# Bulk Modulus (GPa) = 74.66257 76.77869 75.72063
# Shear Modulus (GPa) = 34.12346 93.28344 63.70345
#
# Velocity S-wave (km/s) = 3.78399 6.25642 5.17017
# Velocity P-wave (km/s) = 7.10075 9.18736 8.21061
#
# Compressibility (1/GPa) = 0.01339359
#
# Stress axis : x y z
#
# Youngs Moduli (GPa) = 285.03597 285.03112 101.47989
#
# Poissons Ratio (x) = -0.57359 0.19034
# Poissons Ratio (y) = -0.57360 0.19032
# Poissons Ratio (z) = 0.53461 0.53456
#
# Static dielectric constant tensor:
#      x y z
#    x 2.018940 0.000000 0.000000 
#    y 0.000000 2.018930 0.000000 
#    z 0.000000 0.000000 1.974400 
# 
# From -- ./inp_files/5846.got.cif
#   From: 2010.05.17/outbox.cif.g08.bks.cpg/sg138_3_cif.got.tgz:5846.got - 2010.05.20 13:08:53.
