data_PCOD9570408
_publ_section_title
;
Structure prediction by ZEFSAII (Michael W. Deem and Ramdas Pophale) SiO2 
 PCOD9570408
Probable space group: P 42/N M C
;
_chemical_formula_sum "Si O2"
_cell_formula_units_Z 68
_cell_length_a 11.812687
_cell_length_b 11.812687
_cell_length_c 26.647578
_cell_angle_alpha 90.000000
_cell_angle_beta 90.000000
_cell_angle_gamma 90.000000
_cell_volume 3718.391687
_symmetry_space_group_name_H-M "P 42/N M C"
_symmetry_group_IT_number 137
_space_group.IT_coordinate_system_code '2'
_symmetry_cell_setting 'tetragonal'
loop_
_space_group_symop_operation_xyz
x,y,z
1/2-y,x,1/2+z
1/2-x,1/2-y,z
y,1/2-x,1/2+z
1/2+x,-y,-z
-x,1/2+y,-z
1/2+y,1/2+x,1/2-z
-y,-x,1/2-z
-x,-y,-z
1/2+y,-x,1/2-z
1/2+x,1/2+y,-z
-y,1/2+x,1/2-z
1/2-x,y,z
x,1/2-y,z
1/2-y,1/2-x,1/2+z
y,x,1/2+z
loop_
_atom_site_type_symbol
_atom_site_label
_atom_site_fract_x
_atom_site_fract_y
_atom_site_fract_z
Si Si1 0.750000 0.013251 0.320848
Si Si2 0.880961 0.750000 0.721651
Si Si3 0.877105 0.546252 0.870076
Si Si4 0.250000 0.989727 0.931545
Si Si5 0.750000 0.884642 0.964507
Si Si6 0.929822 0.618862 0.133945
Si Si7 0.250000 0.750000 0.622185
O O1 0.750000 0.140749 0.341268
O O2 0.750000 0.980158 0.262387
O O3 0.859603 0.951197 0.343142
O O4 0.750000 0.750000 0.741780
O O5 0.892446 0.859807 0.685841
O O6 0.750000 0.540704 0.848489
O O7 0.944733 0.430398 0.864690
O O8 0.855217 0.586039 0.927517
O O9 0.250000 0.859705 0.914025
O O10 0.250000 0.030657 0.988833
O O11 0.140636 0.046575 0.905972
O O12 0.750000 0.750000 0.977142
O O13 0.926799 0.750000 0.119986
#
# Coordination Sequence:
#
# PCOD9570408 Si02
#       7
#     8   8  16   8   8  16   4
#     4  12  21  45  65  89 133 160 208 267 327 379
#     4   9  21  39  70  94 122 178 212 250 328 393
#     4  10  21  39  63  91 126 166 212 262 313 373
#     4  11  22  43  61  92 130 166 208 268 326 378
#     4  10  21  40  67  96 119 176 226 243 326 392
#     4  10  21  41  61  92 132 166 210 264 316 375
#     4  12  26  42  67  98 136 156 204 289 322 368
#
# _framework density 18.287475000000001
#
# number of rings (size 3 to 8) (size 9 to 14) (size 15 to 20)
#    0.706    0.941    3.529    2.824    0.000    2.353 
#    2.118    2.353    0.000    0.000    0.000    3.294 
#    0.000    0.000    0.000    0.000    0.000    0.000 
#
# Total GULP energy -379079.261578 kJ/mol
# GULP energy per Si atom -5574.695023 kJ/mol
# Density = 1.824585 g / cm^3
# Si number density = 18.287475 Si / 1000 Ang^3
#
#
#
# Elastic Constant Matrix: (Units=GPa)
#
#
# Indices 1 2 3 4 5 6 
#
# 1 128.6603 49.0820 29.1128 0.0000 0.0000 0.0000
# 2 49.0820 128.6603 29.1128 0.0000 0.0000 0.0000
# 3 29.1128 29.1128 62.6531 0.0000 0.0000 0.0000
# 4 0.0000 0.0000 0.0000 8.1377 0.0000 0.0000
# 5 0.0000 0.0000 0.0000 0.0000 8.1377 0.0000
# 6 0.0000 0.0000 0.0000 0.0000 0.0000 650.1152
#
#
#
# Elastic Compliance Matrix: (Units=1/GPa)
#
#
# Indices 1 2 3 4 5 6 
#
# 1 0.009601 -0.002965 -0.003084 0.000000 0.000000 0.000000
# 2 -0.002965 0.009601 -0.003084 0.000000 0.000000 0.000000
# 3 -0.003084 -0.003084 0.018827 0.000000 0.000000 0.000000
# 4 0.000000 0.000000 0.000000 0.122885 0.000000 0.000000
# 5 0.000000 0.000000 0.000000 0.000000 0.122885 0.000000
# 6 0.000000 0.000000 0.000000 0.000000 0.000000 0.001538
#
#
# Mechanical properties :
#
#
# Convention : Reuss Voigt Hill
#
# Bulk Modulus (GPa) = 50.59557 59.39880 54.99718
# Shear Modulus (GPa) = 16.11918 147.45586 81.78752
#
# Velocity S-wave (km/s) = 2.97211 8.98928 6.69480
# Velocity P-wave (km/s) = 6.28528 11.84458 9.48153
#
# Compressibility (1/GPa) = 0.01976457
#
# Stress axis : x y z
#
# Youngs Moduli (GPa) = 104.15300 104.15300 53.11614
#
# Poissons Ratio (x) = 0.30881 0.16379
# Poissons Ratio (y) = 0.30881 0.16379
# Poissons Ratio (z) = 0.32117 0.32117
#
# Static dielectric constant tensor:
#      x y z
#    x 1.675780 0.000000 0.000000 
#    y 0.000000 1.675780 0.000000 
#    z 0.000000 0.000000 1.632290 
# 
# From -- ./inp_files/9623.got.cif
#   From: 2010.05.17/outbox.cif.g08.bks.cpg/sg137_5_cif.got.tgz:9623.got - 2010.05.20 13:01:12.
