data_PCOD9570291
_publ_section_title
;
Structure prediction by ZEFSAII (Michael W. Deem and Ramdas Pophale) SiO2 
 PCOD9570291
Probable space group: P 42/N M C
;
_chemical_formula_sum "Si O2"
_cell_formula_units_Z 96
_cell_length_a 22.544341
_cell_length_b 22.544341
_cell_length_c 9.597173
_cell_angle_alpha 90.000000
_cell_angle_beta 90.000000
_cell_angle_gamma 90.000000
_cell_volume 4877.737372
_symmetry_space_group_name_H-M "P 42/N M C"
_symmetry_group_IT_number 137
_space_group.IT_coordinate_system_code '2'
_symmetry_cell_setting 'tetragonal'
loop_
_space_group_symop_operation_xyz
x,y,z
1/2-y,x,1/2+z
1/2-x,1/2-y,z
y,1/2-x,1/2+z
1/2+x,-y,-z
-x,1/2+y,-z
1/2+y,1/2+x,1/2-z
-y,-x,1/2-z
-x,-y,-z
1/2+y,-x,1/2-z
1/2+x,1/2+y,-z
-y,1/2+x,1/2-z
1/2-x,y,z
x,1/2-y,z
1/2-y,1/2-x,1/2+z
y,x,1/2+z
loop_
_atom_site_type_symbol
_atom_site_label
_atom_site_fract_x
_atom_site_fract_y
_atom_site_fract_z
Si Si1 0.491827 0.907159 0.569523
Si Si2 0.816008 0.991837 0.479510
Si Si3 0.181762 0.587559 0.751800
Si Si4 0.571837 0.007662 0.635873
Si Si5 0.181319 0.377965 0.717842
Si Si6 0.582952 0.818624 0.460403
O O1 0.452186 0.860616 0.651467
O O2 0.451567 0.958390 0.501957
O O3 0.531351 0.868614 0.461714
O O4 0.536283 0.946887 0.662146
O O5 0.750000 0.983056 0.532447
O O6 0.819345 0.053989 0.396659
O O7 0.861631 0.990809 0.604419
O O8 0.827223 0.939990 0.366220
O O9 0.151976 0.651976 0.750000
O O10 0.250000 0.587516 0.798800
O O11 0.555707 0.055707 0.750000
O O12 0.250000 0.359271 0.693136
O O13 0.175326 0.389558 0.882841
O O14 0.133092 0.334030 0.652561
O O15 0.562686 0.750000 0.447514
#
# Coordination Sequence:
#
# PCOD9570291 Si02
#       6
#    16  16  16  16  16  16
#     4  11  22  36  58  88 122 147 186 243 302 350
#     4  10  20  38  60  83 115 154 190 238 297 351
#     4  11  21  37  62  88 117 151 193 242 298 348
#     4  11  24  36  59  90 119 152 191 237 293 366
#     4  10  22  39  59  84 117 157 202 248 295 349
#     4  11  23  38  60  86 117 159 205 249 297 352
#
# _framework density 19.681256000000001
#
# number of rings (size 3 to 8) (size 9 to 14) (size 15 to 20)
#    0.000    1.333    5.000    1.000    4.667    1.167 
#    0.000    5.000    0.000    0.000    0.000    0.000 
#    0.000    0.000    0.000    0.000    0.000    0.000 
#
# Total GULP energy -536136.632912 kJ/mol
# GULP energy per Si atom -5584.756593 kJ/mol
# Density = 1.963646 g / cm^3
# Si number density = 19.681256 Si / 1000 Ang^3
#
#
#
# Elastic Constant Matrix: (Units=GPa)
#
#
# Indices 1 2 3 4 5 6 
#
# 1 102.7889 30.1312 13.0651 0.0000 0.0000 0.0000
# 2 30.1312 102.7889 13.0651 0.0000 0.0000 0.0000
# 3 13.0651 13.0651 26.0075 0.0000 0.0000 0.0000
# 4 0.0000 0.0000 0.0000 26.1418 0.0000 0.0000
# 5 0.0000 0.0000 0.0000 0.0000 26.1418 0.0000
# 6 0.0000 0.0000 0.0000 0.0000 0.0000 25.5707
#
#
#
# Elastic Compliance Matrix: (Units=1/GPa)
#
#
# Indices 1 2 3 4 5 6 
#
# 1 0.011055 -0.002708 -0.004194 0.000000 0.000000 0.000000
# 2 -0.002708 0.011055 -0.004194 0.000000 0.000000 0.000000
# 3 -0.004194 -0.004194 0.042664 0.000000 0.000000 0.000000
# 4 0.000000 0.000000 0.000000 0.038253 0.000000 0.000000
# 5 0.000000 0.000000 0.000000 0.000000 0.038253 0.000000
# 6 0.000000 0.000000 0.000000 0.000000 0.000000 0.039107
#
#
# Mechanical properties :
#
#
# Convention : Reuss Voigt Hill
#
# Bulk Modulus (GPa) = 23.48243 38.23425 30.85834
# Shear Modulus (GPa) = 23.06563 27.25908 25.16236
#
# Velocity S-wave (km/s) = 3.42710 3.72563 3.57948
# Velocity P-wave (km/s) = 5.25522 6.16247 5.72684
#
# Compressibility (1/GPa) = 0.04258503
#
# Stress axis : x y z
#
# Youngs Moduli (GPa) = 90.45317 90.45317 23.43904
#
# Poissons Ratio (x) = 0.24492 0.09829
# Poissons Ratio (y) = 0.24492 0.09829
# Poissons Ratio (z) = 0.37932 0.37932
#
# Static dielectric constant tensor:
#      x y z
#    x 1.702500 0.000000 0.000000 
#    y 0.000000 1.702500 0.000000 
#    z 0.000000 0.000000 1.736610 
# 
# From -- ./inp_files/3734.got.cif
#   From: 2010.05.17/outbox.cif.g08.bks.cpg/sg137_2_cif.got.tgz:3734.got - 2010.05.20 13:01:12.
