data_PCOD9570625
_publ_section_title
;
Structure prediction by ZEFSAII (Michael W. Deem and Ramdas Pophale) SiO2 
 PCOD9570625
Probable space group: P 42/N C M
;
_chemical_formula_sum "Si O2"
_cell_formula_units_Z 116
_cell_length_a 17.687690
_cell_length_b 17.687690
_cell_length_c 18.862239
_cell_angle_alpha 90.000000
_cell_angle_beta 90.000000
_cell_angle_gamma 90.000000
_cell_volume 5901.134041
_symmetry_space_group_name_H-M "P 42/N C M"
_symmetry_group_IT_number 138
_space_group.IT_coordinate_system_code '2'
_symmetry_cell_setting 'tetragonal'
loop_
_space_group_symop_operation_xyz
x,y,z
1/2-y,x,1/2+z
1/2-x,1/2-y,z
y,1/2-x,1/2+z
1/2+x,-y,1/2-z
-x,1/2+y,1/2-z
1/2+y,1/2+x,-z
-y,-x,-z
-x,-y,-z
1/2+y,-x,1/2-z
1/2+x,1/2+y,-z
-y,1/2+x,1/2-z
1/2-x,y,1/2+z
x,1/2-y,1/2+z
1/2-y,1/2-x,z
y,x,z
loop_
_atom_site_type_symbol
_atom_site_label
_atom_site_fract_x
_atom_site_fract_y
_atom_site_fract_z
Si Si1 0.557163 0.430514 0.353311
Si Si2 0.924979 0.453076 0.697706
Si Si3 0.250000 0.250000 0.637504
Si Si4 0.912263 0.796375 0.818665
Si Si5 0.655290 0.146179 0.582625
Si Si6 0.277526 0.528784 0.430110
Si Si7 0.575279 0.700155 0.181115
Si Si8 0.049234 0.727520 0.903194
O O1 0.503057 0.503057 0.359709
O O2 0.558130 0.408805 0.270020
O O3 0.528132 0.362172 0.401262
O O4 0.642440 0.448045 0.376012
O O5 0.897180 0.402989 0.633506
O O6 0.857454 0.513010 0.713174
O O7 0.995520 0.504481 0.677644
O O8 0.343277 0.248187 0.643513
O O9 0.882866 0.882866 0.820183
O O10 0.912747 0.766125 0.738078
O O11 0.989483 0.775792 0.857480
O O12 0.635438 0.135438 0.500000
O O13 0.737920 0.109142 0.591099
O O14 0.631832 0.232099 0.599624
O O15 0.231855 0.462159 0.390590
O O16 0.273153 0.524138 0.514631
O O17 0.651556 0.651556 0.170073
#
# Coordination Sequence:
#
# PCOD9570625 Si02
#       8
#    16  16   4  16  16  16  16  16
#     4  11  24  40  61  91 123 160 211 256 306 371
#     4   9  19  34  61  89 117 159 199 242 306 360
#     4   8  20  36  56  90 120 160 204 258 292 368
#     4  10  20  35  61  89 119 156 209 247 302 361
#     4   9  21  40  59  88 122 158 206 254 309 368
#     4  10  24  41  60  90 126 157 205 258 312 369
#     4  10  18  38  63  86 119 161 193 248 306 365
#     4  11  23  40  64  87 121 170 202 255 312 370
#
# _framework density 19.657238
#
# number of rings (size 3 to 8) (size 9 to 14) (size 15 to 20)
#    0.414    1.655    2.069    0.414    2.897    3.586 
#    0.000    4.828    0.000    2.483    0.000    0.000 
#    0.000    0.000    0.000    0.000    0.000    0.000 
#
# Total GULP energy -645818.117011 kJ/mol
# GULP energy per Si atom -5567.397560 kJ/mol
# Density = 1.961250 g / cm^3
# Si number density = 19.657238 Si / 1000 Ang^3
#
#
#
# Elastic Constant Matrix: (Units=GPa)
#
#
# Indices 1 2 3 4 5 6 
#
# 1 80.3052 28.8566 28.4944 0.0000 0.0000 0.0000
# 2 28.8566 80.3052 28.4944 0.0000 0.0000 0.0000
# 3 28.4944 28.4944 45.2369 0.0000 0.0000 0.0000
# 4 0.0000 0.0000 0.0000 -4.2835 0.0000 0.0000
# 5 0.0000 0.0000 0.0000 0.0000 -4.2835 0.0000
# 6 0.0000 0.0000 0.0000 0.0000 0.0000 31.8426
#
#
#
# Elastic Compliance Matrix: (Units=1/GPa)
#
#
# Indices 1 2 3 4 5 6 
#
# 1 0.016543 -0.002894 -0.008597 0.000000 0.000000 0.000000
# 2 -0.002894 0.016543 -0.008597 0.000000 0.000000 0.000000
# 3 -0.008597 -0.008597 0.032937 0.000000 0.000000 0.000000
# 4 0.000000 0.000000 0.000000 -0.233455 0.000000 0.000000
# 5 0.000000 0.000000 0.000000 0.000000 -0.233455 0.000000
# 6 0.000000 0.000000 0.000000 0.000000 0.000000 0.031404
#
#
# Mechanical properties :
#
#
# Convention : Reuss Voigt Hill
#
# Bulk Modulus (GPa) = 38.69200 41.94868 40.32034
# Shear Modulus (GPa) = -15.59141 12.65526 -1.46807
#
# Velocity S-wave (km/s) = -2.81937 2.54007 -0.86513
# Velocity P-wave (km/s) = 3.02119 5.47622 4.42248
#
# Compressibility (1/GPa) = 0.02584513
#
# Stress axis : x y z
#
# Youngs Moduli (GPa) = 60.44859 60.44859 30.36117
#
# Poissons Ratio (x) = 0.17493 0.26103
# Poissons Ratio (y) = 0.17493 0.26103
# Poissons Ratio (z) = 0.51970 0.51970
#
# Static dielectric constant tensor:
#      x y z
#    x 1.703680 0.000000 0.000000 
#    y 0.000000 1.703680 0.000000 
#    z 0.000000 0.000000 1.659550 
# 
# From -- ./inp_files/5360.got.cif
#   From: 2010.05.17/outbox.cif.g08.bks.cpg/sg138_3_cif.got.tgz:5360.got - 2010.05.20 13:08:53.
