data_PCOD9570855
_publ_section_title
;
Structure prediction by ZEFSAII (Michael W. Deem and Ramdas Pophale) SiO2 
 PCOD9570855
Probable space group: P 42/N C M
;
_chemical_formula_sum "Si O2"
_cell_formula_units_Z 96
_cell_length_a 15.604173
_cell_length_b 15.604173
_cell_length_c 20.313121
_cell_angle_alpha 90.000000
_cell_angle_beta 90.000000
_cell_angle_gamma 90.000000
_cell_volume 4946.046200
_symmetry_space_group_name_H-M "P 42/N C M"
_symmetry_group_IT_number 138
_space_group.IT_coordinate_system_code '2'
_symmetry_cell_setting 'tetragonal'
loop_
_space_group_symop_operation_xyz
x,y,z
1/2-y,x,1/2+z
1/2-x,1/2-y,z
y,1/2-x,1/2+z
1/2+x,-y,1/2-z
-x,1/2+y,1/2-z
1/2+y,1/2+x,-z
-y,-x,-z
-x,-y,-z
1/2+y,-x,1/2-z
1/2+x,1/2+y,-z
-y,1/2+x,1/2-z
1/2-x,y,1/2+z
x,1/2-y,1/2+z
1/2-y,1/2-x,z
y,x,z
loop_
_atom_site_type_symbol
_atom_site_label
_atom_site_fract_x
_atom_site_fract_y
_atom_site_fract_z
Si Si1 0.031140 0.784827 0.359622
Si Si2 0.691886 0.331615 0.158769
Si Si3 0.658559 0.983098 0.720612
Si Si4 0.887309 0.742131 0.460175
Si Si5 0.098381 0.840396 0.572279
Si Si6 0.724077 0.916624 0.103553
O O1 0.099340 0.708266 0.354618
O O2 0.089908 0.866091 0.376650
O O3 0.977564 0.803069 0.293959
O O4 0.970068 0.766605 0.420352
O O5 0.750000 0.250000 0.182226
O O6 0.671866 0.415074 0.203556
O O7 0.747640 0.365006 0.096057
O O8 0.565695 0.934306 0.718685
O O9 0.717460 0.937666 0.665766
O O10 0.838416 0.661585 0.429520
O O11 0.821613 0.821613 0.459525
O O12 0.905606 0.723537 0.536305
O O13 0.131770 0.868231 0.500000
O O14 0.997323 0.835229 0.583483
O O15 0.666353 0.833648 0.115588
#
# Coordination Sequence:
#
# PCOD9570855 Si02
#       6
#    16  16  16  16  16  16
#     4  11  23  38  61  92 125 161 206 265 323 383
#     4   9  23  39  65  91 125 168 213 260 328 394
#     4  11  25  42  61  91 130 170 217 270 324 392
#     4  10  21  39  61  86 119 158 203 257 316 378
#     4  10  20  40  65  98 126 156 206 267 328 392
#     4  10  22  41  66  91 122 167 214 263 325 398
#
# _framework density 19.409443
#
# number of rings (size 3 to 8) (size 9 to 14) (size 15 to 20)
#    0.000    1.833    1.667    1.000    7.000    7.000 
#    0.000    0.000    0.000    3.000    0.000    0.000 
#    0.000    0.000    0.000    0.000    0.000    0.000 
#
# Total GULP energy -534998.742055 kJ/mol
# GULP energy per Si atom -5572.903563 kJ/mol
# Density = 1.936527 g / cm^3
# Si number density = 19.409443 Si / 1000 Ang^3
#
#
#
# Elastic Constant Matrix: (Units=GPa)
#
#
# Indices 1 2 3 4 5 6 
#
# 1 66.1017 42.1536 32.9759 0.0000 0.0000 0.0000
# 2 42.1536 66.1025 32.9766 0.0000 0.0000 0.0000
# 3 32.9759 32.9766 106.4487 0.0000 0.0000 0.0000
# 4 0.0000 0.0000 0.0000 -2.3606 0.0000 0.0000
# 5 0.0000 0.0000 0.0000 0.0000 -2.3602 0.0000
# 6 0.0000 0.0000 0.0000 0.0000 0.0000 21.6710
#
#
#
# Elastic Compliance Matrix: (Units=1/GPa)
#
#
# Indices 1 2 3 4 5 6 
#
# 1 0.026571 -0.015185 -0.003527 0.000000 0.000000 0.000000
# 2 -0.015185 0.026571 -0.003527 0.000000 0.000000 0.000000
# 3 -0.003527 -0.003527 0.011580 0.000000 0.000000 0.000000
# 4 0.000000 0.000000 0.000000 -0.423623 0.000000 0.000000
# 5 0.000000 0.000000 0.000000 0.000000 -0.423686 0.000000
# 6 0.000000 0.000000 0.000000 0.000000 0.000000 0.046145
#
#
# Mechanical properties :
#
#
# Convention : Reuss Voigt Hill
#
# Bulk Modulus (GPa) = 49.39976 50.54056 49.97016
# Shear Modulus (GPa) = -7.29697 12.09314 2.39809
#
# Velocity S-wave (km/s) = -1.94105 2.49881 1.11275
# Velocity P-wave (km/s) = 4.52583 5.86695 5.23948
#
# Compressibility (1/GPa) = 0.02024301
#
# Stress axis : x y z
#
# Youngs Moduli (GPa) = 37.63441 37.63470 86.35861
#
# Poissons Ratio (x) = 0.57148 0.30461
# Poissons Ratio (y) = 0.57148 0.30462
# Poissons Ratio (z) = 0.13274 0.13275
#
# Static dielectric constant tensor:
#      x y z
#    x 1.745210 0.000000 0.000000 
#    y 0.000000 1.745210 0.000000 
#    z 0.000000 0.000000 1.685920 
# 
# From -- ./inp_files/6270.got.cif
#   From: 2010.05.17/outbox.cif.g08.bks.cpg/sg138_4_cif.got.tgz:6270.got - 2010.05.20 13:08:53.
