data_PCOD9570238
_publ_section_title
;
Structure prediction by ZEFSAII (Michael W. Deem and Ramdas Pophale) SiO2 
 PCOD9570238
Probable space group: P 42/N M C
;
_chemical_formula_sum "Si O2"
_cell_formula_units_Z 80
_cell_length_a 19.064206
_cell_length_b 19.064206
_cell_length_c 12.359700
_cell_angle_alpha 90.000000
_cell_angle_beta 90.000000
_cell_angle_gamma 90.000000
_cell_volume 4492.058194
_symmetry_space_group_name_H-M "P 42/N M C"
_symmetry_group_IT_number 137
_space_group.IT_coordinate_system_code '2'
_symmetry_cell_setting 'tetragonal'
loop_
_space_group_symop_operation_xyz
x,y,z
1/2-y,x,1/2+z
1/2-x,1/2-y,z
y,1/2-x,1/2+z
1/2+x,-y,-z
-x,1/2+y,-z
1/2+y,1/2+x,1/2-z
-y,-x,1/2-z
-x,-y,-z
1/2+y,-x,1/2-z
1/2+x,1/2+y,-z
-y,1/2+x,1/2-z
1/2-x,y,z
x,1/2-y,z
1/2-y,1/2-x,1/2+z
y,x,1/2+z
loop_
_atom_site_type_symbol
_atom_site_label
_atom_site_fract_x
_atom_site_fract_y
_atom_site_fract_z
Si Si1 0.665821 0.026379 0.074748
Si Si2 0.671451 0.435874 0.698086
Si Si3 0.168478 0.060807 0.141920
Si Si4 0.670548 0.415772 0.443274
Si Si5 0.448366 0.331542 0.208654
O O1 0.750000 0.033307 0.081006
O O2 0.643023 0.977353 0.174875
O O3 0.633229 0.104015 0.081422
O O4 0.649261 0.987440 0.961744
O O5 0.615247 0.384754 0.750000
O O6 0.750000 0.410508 0.726440
O O7 0.664109 0.511412 0.752703
O O8 0.665336 0.436224 0.569360
O O9 0.250000 0.082691 0.128017
O O10 0.114830 0.123489 0.160629
O O11 0.750000 0.386183 0.425817
O O12 0.664906 0.485033 0.370798
O O13 0.427642 0.250000 0.219819
#
# Coordination Sequence:
#
# PCOD9570238 Si02
#       5
#    16  16  16  16  16
#     4  10  21  39  59  85 118 150 191 237 279 336
#     4  10  20  35  55  82 115 149 186 231 279 334
#     4  10  22  39  59  81 110 148 189 237 290 342
#     4  10  21  37  58  85 119 154 188 230 280 337
#     4  10  23  40  58  83 114 147 191 243 287 337
#
# _framework density 17.809208000000002
#
# number of rings (size 3 to 8) (size 9 to 14) (size 15 to 20)
#    0.000    2.000    2.000    0.600    2.800    3.400 
#    0.000    2.000    0.000    7.200    0.000    0.000 
#    0.000    0.000    0.000    0.000    0.000    0.000 
#
# Total GULP energy -446280.562417 kJ/mol
# GULP energy per Si atom -5578.507030 kJ/mol
# Density = 1.776867 g / cm^3
# Si number density = 17.809208 Si / 1000 Ang^3
#
#
#
# Elastic Constant Matrix: (Units=GPa)
#
#
# Indices 1 2 3 4 5 6 
#
# 1 82.4303 68.3257 29.9277 0.0000 0.0000 0.0000
# 2 68.3257 82.4297 29.9271 0.0000 0.0000 0.0000
# 3 29.9277 29.9271 51.2006 0.0000 0.0000 0.0000
# 4 0.0000 0.0000 0.0000 21.3259 0.0000 0.0000
# 5 0.0000 0.0000 0.0000 0.0000 21.3263 0.0000
# 6 0.0000 0.0000 0.0000 0.0000 0.0000 48.8069
#
#
#
# Elastic Compliance Matrix: (Units=1/GPa)
#
#
# Indices 1 2 3 4 5 6 
#
# 1 0.039769 -0.031131 -0.005049 0.000000 0.000000 0.000000
# 2 -0.031131 0.039769 -0.005048 0.000000 0.000000 0.000000
# 3 -0.005049 -0.005048 0.025433 0.000000 0.000000 0.000000
# 4 0.000000 0.000000 0.000000 0.046891 0.000000 0.000000
# 5 0.000000 0.000000 0.000000 0.000000 0.046891 0.000000
# 6 0.000000 0.000000 0.000000 0.000000 0.000000 0.020489
#
#
# Mechanical properties :
#
#
# Convention : Reuss Voigt Hill
#
# Bulk Modulus (GPa) = 44.41814 52.49129 48.45471
# Shear Modulus (GPa) = 16.17048 24.15048 20.16048
#
# Velocity S-wave (km/s) = 3.01655 3.68648 3.36821
# Velocity P-wave (km/s) = 6.09327 6.90350 6.51100
#
# Compressibility (1/GPa) = 0.02251333
#
# Stress axis : x y z
#
# Youngs Moduli (GPa) = 25.14506 25.14513 39.31843
#
# Poissons Ratio (x) = 0.78280 0.19854
# Poissons Ratio (y) = 0.78280 0.19850
# Poissons Ratio (z) = 0.12697 0.12694
#
# Static dielectric constant tensor:
#      x y z
#    x 1.592490 0.000000 0.000000 
#    y 0.000000 1.592490 0.000000 
#    z 0.000000 0.000000 1.622140 
# 
# From -- ./inp_files/4945.got.cif
#   From: 2010.05.17/outbox.cif.g08.bks.cpg/sg137_3_cif.got.tgz:4945.got - 2010.05.20 13:01:12.
