data_PCOD9570104
_publ_section_title
;
Structure prediction by ZEFSAII (Michael W. Deem and Ramdas Pophale) SiO2 
 PCOD9570104
Probable space group: P 42/N M C
;
_chemical_formula_sum "Si O2"
_cell_formula_units_Z 96
_cell_length_a 14.908012
_cell_length_b 14.908012
_cell_length_c 20.651145
_cell_angle_alpha 90.000000
_cell_angle_beta 90.000000
_cell_angle_gamma 90.000000
_cell_volume 4589.692645
_symmetry_space_group_name_H-M "P 42/N M C"
_symmetry_group_IT_number 137
_space_group.IT_coordinate_system_code '2'
_symmetry_cell_setting 'tetragonal'
loop_
_space_group_symop_operation_xyz
x,y,z
1/2-y,x,1/2+z
1/2-x,1/2-y,z
y,1/2-x,1/2+z
1/2+x,-y,-z
-x,1/2+y,-z
1/2+y,1/2+x,1/2-z
-y,-x,1/2-z
-x,-y,-z
1/2+y,-x,1/2-z
1/2+x,1/2+y,-z
-y,1/2+x,1/2-z
1/2-x,y,z
x,1/2-y,z
1/2-y,1/2-x,1/2+z
y,x,1/2+z
loop_
_atom_site_type_symbol
_atom_site_label
_atom_site_fract_x
_atom_site_fract_y
_atom_site_fract_z
Si Si1 0.353885 0.469324 0.348311
Si Si2 0.150511 0.886382 0.944130
Si Si3 0.405350 0.147616 0.467535
Si Si4 0.143672 0.652075 0.402443
Si Si5 0.642122 0.856049 0.772942
Si Si6 0.452382 0.146489 0.094016
O O1 0.250000 0.485855 0.332072
O O2 0.355054 0.408028 0.412401
O O3 0.395495 0.565631 0.366370
O O4 0.390912 0.414815 0.287601
O O5 0.250000 0.853858 0.923549
O O6 0.060319 0.857711 0.907990
O O7 0.152417 0.993378 0.942453
O O8 0.139673 0.862046 0.020131
O O9 0.372507 0.250000 0.476826
O O10 0.405267 0.091993 0.534085
O O11 0.250000 0.655892 0.387756
O O12 0.103611 0.750000 0.386618
O O13 0.750000 0.866447 0.781654
O O14 0.626912 0.750000 0.759698
O O15 0.590159 0.881029 0.838093
O O16 0.425929 0.250000 0.083122
#
# Coordination Sequence:
#
# PCOD9570104 Si02
#       6
#    16  16  16  16  16  16
#     4  10  19  33  56  85 116 157 199 242 301 364
#     4  10  21  36  55  83 120 155 192 246 303 354
#     4  11  22  34  54  84 118 153 197 250 300 356
#     4   9  17  31  54  85 118 152 193 241 294 357
#     4   9  19  35  54  81 121 160 198 250 312 374
#     4  11  21  35  57  86 118 156 199 244 301 366
#
# _framework density 20.916433999999999
#
# number of rings (size 3 to 8) (size 9 to 14) (size 15 to 20)
#    0.000    2.000    1.667    2.500    0.000    3.667 
#    0.000    0.833    0.000    0.000    0.000    7.000 
#    0.000   29.333    0.000    0.000    0.000    0.667 
#
# Total GULP energy -535917.146665 kJ/mol
# GULP energy per Si atom -5582.470278 kJ/mol
# Density = 2.086883 g / cm^3
# Si number density = 20.916434 Si / 1000 Ang^3
#
#
#
# Elastic Constant Matrix: (Units=GPa)
#
#
# Indices 1 2 3 4 5 6 
#
# 1 95.2787 20.0457 40.4721 0.0000 0.0000 0.0000
# 2 20.0457 95.2787 40.4721 0.0000 0.0000 0.0000
# 3 40.4721 40.4721 110.2072 0.0000 0.0000 0.0000
# 4 0.0000 0.0000 0.0000 50.3717 0.0000 0.0000
# 5 0.0000 0.0000 0.0000 0.0000 50.3717 0.0000
# 6 0.0000 0.0000 0.0000 0.0000 0.0000 4.2253
#
#
#
# Elastic Compliance Matrix: (Units=1/GPa)
#
#
# Indices 1 2 3 4 5 6 
#
# 1 0.012487 -0.000805 -0.004290 0.000000 0.000000 0.000000
# 2 -0.000805 0.012487 -0.004290 0.000000 0.000000 0.000000
# 3 -0.004290 -0.004290 0.012225 0.000000 0.000000 0.000000
# 4 0.000000 0.000000 0.000000 0.019852 0.000000 0.000000
# 5 0.000000 0.000000 0.000000 0.000000 0.019852 0.000000
# 6 0.000000 0.000000 0.000000 0.000000 0.000000 0.236672
#
#
# Mechanical properties :
#
#
# Convention : Reuss Voigt Hill
#
# Bulk Modulus (GPa) = 54.26273 55.86049 55.06161
# Shear Modulus (GPa) = 14.77150 34.31203 24.54177
#
# Velocity S-wave (km/s) = 2.66035 4.05462 3.42910
# Velocity P-wave (km/s) = 5.95278 6.97742 6.48537
#
# Compressibility (1/GPa) = 0.01842886
#
# Stress axis : x y z
#
# Youngs Moduli (GPa) = 80.08186 80.08186 81.80051
#
# Poissons Ratio (x) = 0.06445 0.35094
# Poissons Ratio (y) = 0.06445 0.35094
# Poissons Ratio (z) = 0.34357 0.34357
#
# Static dielectric constant tensor:
#      x y z
#    x 1.776170 0.000000 0.000000 
#    y 0.000000 1.776170 0.000000 
#    z 0.000000 0.000000 1.705660 
# 
# From -- ./inp_files/7811.got.cif
#   From: 2010.05.17/outbox.cif.g08.bks.cpg/sg137_4_cif.got.tgz:7811.got - 2010.05.20 13:01:12.
