data_PCOD9570251
_publ_section_title
;
Structure prediction by ZEFSAII (Michael W. Deem and Ramdas Pophale) SiO2 
 PCOD9570251
Probable space group: P 42/N M C
;
_chemical_formula_sum "Si O2"
_cell_formula_units_Z 96
_cell_length_a 19.977257
_cell_length_b 19.977257
_cell_length_c 10.186879
_cell_angle_alpha 90.000000
_cell_angle_beta 90.000000
_cell_angle_gamma 90.000000
_cell_volume 4065.489662
_symmetry_space_group_name_H-M "P 42/N M C"
_symmetry_group_IT_number 137
_space_group.IT_coordinate_system_code '2'
_symmetry_cell_setting 'tetragonal'
loop_
_space_group_symop_operation_xyz
x,y,z
1/2-y,x,1/2+z
1/2-x,1/2-y,z
y,1/2-x,1/2+z
1/2+x,-y,-z
-x,1/2+y,-z
1/2+y,1/2+x,1/2-z
-y,-x,1/2-z
-x,-y,-z
1/2+y,-x,1/2-z
1/2+x,1/2+y,-z
-y,1/2+x,1/2-z
1/2-x,y,z
x,1/2-y,z
1/2-y,1/2-x,1/2+z
y,x,1/2+z
loop_
_atom_site_type_symbol
_atom_site_label
_atom_site_fract_x
_atom_site_fract_y
_atom_site_fract_z
Si Si1 0.408471 0.170123 0.419604
Si Si2 0.349502 0.949658 0.249998
Si Si3 0.591529 0.670123 0.919615
Si Si4 0.066399 0.674471 0.952460
Si Si5 0.566401 0.174472 0.452453
Si Si6 0.173033 0.106331 0.249995
O O1 0.396742 0.250000 0.421862
O O2 0.395527 0.158915 0.249994
O O3 0.488772 0.154715 0.426519
O O4 0.387700 0.155497 0.584707
O O5 0.427743 0.927743 0.250000
O O6 0.322780 0.924409 0.389077
O O7 0.322780 0.924411 0.110917
O O8 0.333376 0.026573 0.249999
O O9 0.603256 0.750000 0.921872
O O10 0.511229 0.654711 0.926533
O O11 0.612304 0.655499 0.084716
O O12 0.076379 0.750000 0.902255
O O13 0.118937 0.618939 0.904294
O O14 0.576386 0.250000 0.402249
O O15 0.250000 0.132685 0.249992
#
# Coordination Sequence:
#
# PCOD9570251 Si02
#       6
#    16  16  16  16  16  16
#     4  11  23  37  56  82 114 151 193 239 286 342
#     4  10  20  35  58  85 116 153 191 235 291 345
#     4  11  23  37  56  82 114 151 193 239 286 342
#     4  10  21  38  60  86 117 151 191 240 292 348
#     4  10  21  38  60  86 117 151 191 240 292 348
#     4  12  23  38  58  83 118 156 196 238 288 343
#
# _framework density 23.613391
#
# number of rings (size 3 to 8) (size 9 to 14) (size 15 to 20)
#    0.000    1.333    3.333    3.000    0.000    5.333 
#    0.000    0.000    0.000    3.000    0.000    0.000 
#    0.000    5.333    0.000    0.000    0.000    0.000 
#
# Total GULP energy -535316.822031 kJ/mol
# GULP energy per Si atom -5576.216896 kJ/mol
# Density = 2.355965 g / cm^3
# Si number density = 23.613391 Si / 1000 Ang^3
#
#
#
# Elastic Constant Matrix: (Units=GPa)
#
#
# Indices 1 2 3 4 5 6 
#
# 1 147.4643 152.8137 51.9794 0.0000 0.0000 0.0000
# 2 152.8137 147.4643 51.9794 0.0000 0.0000 0.0000
# 3 51.9794 51.9794 209.6987 0.0000 0.0000 0.0000
# 4 0.0000 0.0000 0.0000 22.5569 0.0000 0.0000
# 5 0.0000 0.0000 0.0000 0.0000 22.5569 0.0000
# 6 0.0000 0.0000 0.0000 0.0000 0.0000 44.0105
#
#
#
# Elastic Compliance Matrix: (Units=1/GPa)
#
#
# Indices 1 2 3 4 5 6 
#
# 1 -0.091647 0.095290 -0.000903 0.000000 0.000000 0.000000
# 2 0.095290 -0.091647 -0.000903 0.000000 0.000000 0.000000
# 3 -0.000903 -0.000903 0.005216 0.000000 0.000000 0.000000
# 4 0.000000 0.000000 0.000000 0.044332 0.000000 0.000000
# 5 0.000000 0.000000 0.000000 0.000000 0.044332 0.000000
# 6 0.000000 0.000000 0.000000 0.000000 0.000000 0.022722
#
#
# Mechanical properties :
#
#
# Convention : Reuss Voigt Hill
#
# Bulk Modulus (GPa) = 112.48331 113.13029 112.80680
# Shear Modulus (GPa) = -19.94455 34.34851 7.20198
#
# Velocity S-wave (km/s) = -2.90940 3.81809 1.74831
# Velocity P-wave (km/s) = 6.03760 8.21282 7.20774
#
# Compressibility (1/GPa) = 0.00889021
#
# Stress axis : x y z
#
# Youngs Moduli (GPa) = -10.91144 -10.91144 191.70299
#
# Poissons Ratio (x) = 1.03975 0.17310
# Poissons Ratio (y) = 1.03975 0.17310
# Poissons Ratio (z) = -0.00985 -0.00985
#
# Static dielectric constant tensor:
#      x y z
#    x 1.272140 0.000000 0.000000 
#    y 0.000000 1.272140 0.000000 
#    z 0.000000 0.000000 2.120850 
# 
# From -- ./inp_files/3736.got.cif
#   From: 2010.05.17/outbox.cif.g08.bks.cpg/sg137_2_cif.got.tgz:3736.got - 2010.05.20 13:01:12.
