data_PCOD9570351
_publ_section_title
;
Structure prediction by ZEFSAII (Michael W. Deem and Ramdas Pophale) SiO2 
 PCOD9570351
Probable space group: P 42/N M C
;
_chemical_formula_sum "Si O2"
_cell_formula_units_Z 104
_cell_length_a 15.997432
_cell_length_b 15.997432
_cell_length_c 17.936590
_cell_angle_alpha 90.000000
_cell_angle_beta 90.000000
_cell_angle_gamma 90.000000
_cell_volume 4590.293201
_symmetry_space_group_name_H-M "P 42/N M C"
_symmetry_group_IT_number 137
_space_group.IT_coordinate_system_code '2'
_symmetry_cell_setting 'tetragonal'
loop_
_space_group_symop_operation_xyz
x,y,z
1/2-y,x,1/2+z
1/2-x,1/2-y,z
y,1/2-x,1/2+z
1/2+x,-y,-z
-x,1/2+y,-z
1/2+y,1/2+x,1/2-z
-y,-x,1/2-z
-x,-y,-z
1/2+y,-x,1/2-z
1/2+x,1/2+y,-z
-y,1/2+x,1/2-z
1/2-x,y,z
x,1/2-y,z
1/2-y,1/2-x,1/2+z
y,x,1/2+z
loop_
_atom_site_type_symbol
_atom_site_label
_atom_site_fract_x
_atom_site_fract_y
_atom_site_fract_z
Si Si1 0.655735 0.127637 0.013270
Si Si2 0.958266 0.913335 0.471897
Si Si3 0.431699 0.963719 0.170387
Si Si4 0.750000 0.655030 0.721775
Si Si5 0.850136 0.085189 0.170829
Si Si6 0.100270 0.398476 0.879492
Si Si7 0.250000 0.851654 0.382300
Si Si8 0.039491 0.750000 0.269738
O O1 0.750000 0.155344 0.023863
O O2 0.616680 0.134109 0.096117
O O3 0.626975 0.175890 0.940479
O O4 0.652442 0.031445 0.988428
O O5 0.887512 0.891413 0.531076
O O6 0.955584 0.923600 0.383303
O O7 0.000000 0.000000 0.500000
O O8 0.475107 0.975107 0.250000
O O9 0.500805 0.901968 0.135713
O O10 0.437305 0.836548 0.311139
O O11 0.750000 0.750000 0.756168
O O12 0.830157 0.646078 0.668773
O O13 0.750000 0.563088 0.763536
O O14 0.888124 0.111877 0.250000
O O15 0.750000 0.096832 0.175794
O O16 0.867696 0.989147 0.147826
O O17 0.250000 0.750000 0.365631
O O18 0.250000 0.907453 0.307524
#
# Coordination Sequence:
#
# PCOD9570351 Si02
#       8
#    16  16  16   8  16  16   8   8
#     4   9  19  35  58  85 125 173 206 257 321 397
#     4   9  20  37  64  90 119 164 215 270 327 402
#     4  11  21  40  67 100 134 175 220 281 347 414
#     4  12  26  46  72  94 130 184 237 298 347 413
#     4  10  21  36  62  98 130 168 223 288 349 415
#     4  10  22  45  68  94 130 176 238 285 351 425
#     4  10  22  42  64  94 147 186 221 259 334 437
#     4  12  26  42  68 106 147 184 228 291 351 430
#
# _framework density 22.656504999999999
#
# number of rings (size 3 to 8) (size 9 to 14) (size 15 to 20)
#    0.000    1.846    1.538    1.846    4.308    0.769 
#    2.769    0.000    1.692    0.000    0.000    0.000 
#    0.000    0.000    0.000    0.000    0.000    0.000 
#
# Total GULP energy -579014.314112 kJ/mol
# GULP energy per Si atom -5567.445328 kJ/mol
# Density = 2.260494 g / cm^3
# Si number density = 22.656505 Si / 1000 Ang^3
#
#
#
# Elastic Constant Matrix: (Units=GPa)
#
#
# Indices 1 2 3 4 5 6 
#
# 1 96.6055 18.1304 31.2564 0.0000 0.0000 0.0000
# 2 18.1304 96.6059 31.2564 0.0000 0.0000 0.0000
# 3 31.2564 31.2564 182.3414 0.0000 0.0000 0.0000
# 4 0.0000 0.0000 0.0000 19.0518 0.0000 0.0000
# 5 0.0000 0.0000 0.0000 0.0000 19.0516 0.0000
# 6 0.0000 0.0000 0.0000 0.0000 0.0000 18.1156
#
#
#
# Elastic Compliance Matrix: (Units=1/GPa)
#
#
# Indices 1 2 3 4 5 6 
#
# 1 0.011178 -0.001565 -0.001648 0.000000 0.000000 0.000000
# 2 -0.001565 0.011178 -0.001648 0.000000 0.000000 0.000000
# 3 -0.001648 -0.001648 0.006049 0.000000 0.000000 0.000000
# 4 0.000000 0.000000 0.000000 0.052488 0.000000 0.000000
# 5 0.000000 0.000000 0.000000 0.000000 0.052489 0.000000
# 6 0.000000 0.000000 0.000000 0.000000 0.000000 0.055201
#
#
# Mechanical properties :
#
#
# Convention : Reuss Voigt Hill
#
# Bulk Modulus (GPa) = 53.52027 59.64883 56.58455
# Shear Modulus (GPa) = 24.44591 30.90444 27.67518
#
# Velocity S-wave (km/s) = 3.28835 3.69730 3.49880
# Velocity P-wave (km/s) = 6.17182 6.67917 6.43050
#
# Compressibility (1/GPa) = 0.01868451
#
# Stress axis : x y z
#
# Youngs Moduli (GPa) = 89.45973 89.46020 165.31167
#
# Poissons Ratio (x) = 0.13998 0.27242
# Poissons Ratio (y) = 0.13998 0.27242
# Poissons Ratio (z) = 0.14742 0.14742
#
# Static dielectric constant tensor:
#      x y z
#    x 1.962260 0.000000 0.000000 
#    y 0.000000 1.962260 0.000000 
#    z 0.000000 0.000000 1.973280 
# 
# From -- ./inp_files/6652.got.cif
#   From: 2010.05.17/outbox.cif.g08.bks.cpg/sg137_4_cif.got.tgz:6652.got - 2010.05.20 13:01:12.
