data_PCOD9570126
_publ_section_title
;
Structure prediction by ZEFSAII (Michael W. Deem and Ramdas Pophale) SiO2 
 PCOD9570126
Probable space group: P 42/N M C
;
_chemical_formula_sum "Si O2"
_cell_formula_units_Z 112
_cell_length_a 14.409096
_cell_length_b 14.409096
_cell_length_c 29.224691
_cell_angle_alpha 90.000000
_cell_angle_beta 90.000000
_cell_angle_gamma 90.000000
_cell_volume 6067.690184
_symmetry_space_group_name_H-M "P 42/N M C"
_symmetry_group_IT_number 137
_space_group.IT_coordinate_system_code '2'
_symmetry_cell_setting 'tetragonal'
loop_
_space_group_symop_operation_xyz
x,y,z
1/2-y,x,1/2+z
1/2-x,1/2-y,z
y,1/2-x,1/2+z
1/2+x,-y,-z
-x,1/2+y,-z
1/2+y,1/2+x,1/2-z
-y,-x,1/2-z
-x,-y,-z
1/2+y,-x,1/2-z
1/2+x,1/2+y,-z
-y,1/2+x,1/2-z
1/2-x,y,z
x,1/2-y,z
1/2-y,1/2-x,1/2+z
y,x,1/2+z
loop_
_atom_site_type_symbol
_atom_site_label
_atom_site_fract_x
_atom_site_fract_y
_atom_site_fract_z
Si Si1 0.144419 0.906719 0.299393
Si Si2 0.025156 0.138751 0.972515
Si Si3 0.041704 0.102050 0.294749
Si Si4 0.497220 0.858385 0.468123
Si Si5 0.853783 0.999741 0.305532
Si Si6 0.470606 0.353050 0.640063
Si Si7 0.358496 0.148382 0.386267
O O1 0.141959 0.858042 0.250000
O O2 0.250000 0.908432 0.316774
O O3 0.069685 0.864736 0.334360
O O4 0.103084 0.008840 0.290202
O O5 0.024311 0.250000 0.978936
O O6 0.066477 0.119212 0.921616
O O7 0.924702 0.091060 0.978182
O O8 0.095177 0.084748 0.006249
O O9 0.045238 0.148613 0.245272
O O10 0.081887 0.146840 0.340341
O O11 0.933448 0.077938 0.302805
O O12 0.484685 0.750000 0.480573
O O13 0.514559 0.863258 0.413810
O O14 0.750000 0.029657 0.317772
O O15 0.897836 0.926309 0.340382
O O16 0.435832 0.250000 0.650079
O O17 0.250000 0.138985 0.373823
O O18 0.369770 0.250000 0.408821
#
# Coordination Sequence:
#
# PCOD9570126 Si02
#       7
#    16  16  16  16  16  16  16
#     4  11  20  32  51  76 111 152 188 225 274 333
#     4  10  21  39  62  87 115 147 187 240 293 342
#     4  10  19  35  52  76 109 143 183 238 286 333
#     4  10  22  39  60  85 116 154 193 232 285 348
#     4  10  20  34  52  72 101 146 190 229 279 330
#     4  10  21  36  51  77 113 149 189 227 267 328
#     4  10  20  34  58  89 114 141 181 231 289 345
#
# _framework density 18.458425999999999
#
# number of rings (size 3 to 8) (size 9 to 14) (size 15 to 20)
#    0.000    1.857    2.857    3.429    0.000    5.286 
#    0.000    2.857    0.000    7.286    0.000    0.000 
#    0.000    0.000    0.000    0.000    0.000    0.000 
#
# Total GULP energy -624544.014505 kJ/mol
# GULP energy per Si atom -5576.285844 kJ/mol
# Density = 1.841641 g / cm^3
# Si number density = 18.458426 Si / 1000 Ang^3
#
#
#
# Elastic Constant Matrix: (Units=GPa)
#
#
# Indices 1 2 3 4 5 6 
#
# 1 110.8948 33.9515 29.5284 0.0000 0.0000 0.0000
# 2 33.9515 110.8950 29.5282 0.0000 0.0000 0.0000
# 3 29.5284 29.5282 73.7725 0.0000 0.0000 0.0000
# 4 0.0000 0.0000 0.0000 -11.7087 0.0000 0.0000
# 5 0.0000 0.0000 0.0000 0.0000 -11.7109 0.0000
# 6 0.0000 0.0000 0.0000 0.0000 0.0000 6.8245
#
#
#
# Elastic Compliance Matrix: (Units=1/GPa)
#
#
# Indices 1 2 3 4 5 6 
#
# 1 0.010623 -0.002373 -0.003302 0.000000 0.000000 0.000000
# 2 -0.002373 0.010623 -0.003302 0.000000 0.000000 0.000000
# 3 -0.003302 -0.003302 0.016199 0.000000 0.000000 0.000000
# 4 0.000000 0.000000 0.000000 -0.085407 0.000000 0.000000
# 5 0.000000 0.000000 0.000000 0.000000 -0.085390 0.000000
# 6 0.000000 0.000000 0.000000 0.000000 0.000000 0.146530
#
#
# Mechanical properties :
#
#
# Convention : Reuss Voigt Hill
#
# Bulk Modulus (GPa) = 51.30783 53.50871 52.40827
# Shear Modulus (GPa) = 132.87040 10.18459 71.52750
#
# Velocity S-wave (km/s) = 8.49352 2.35150 6.23175
# Velocity P-wave (km/s) = 11.13747 6.03527 8.95734
#
# Compressibility (1/GPa) = 0.01949020
#
# Stress axis : x y z
#
# Youngs Moduli (GPa) = 94.13155 94.13182 61.73321
#
# Poissons Ratio (x) = 0.22339 0.20386
# Poissons Ratio (y) = 0.22339 0.20386
# Poissons Ratio (z) = 0.31085 0.31085
#
# Static dielectric constant tensor:
#      x y z
#    x 1.647050 0.000000 0.000000 
#    y 0.000000 1.647050 0.000000 
#    z 0.000000 0.000000 1.636420 
# 
# From -- ./inp_files/10697.got.cif
#   From: 2010.05.17/outbox.cif.g08.bks.cpg/sg137_6_cif.got.tgz:10697.got - 2010.05.20 13:01:12.
