data_PCOD9570631
_publ_section_title
;
Structure prediction by ZEFSAII (Michael W. Deem and Ramdas Pophale) SiO2 
 PCOD9570631
Probable space group: P 42/N C M
;
_chemical_formula_sum "Si O2"
_cell_formula_units_Z 96
_cell_length_a 17.088019
_cell_length_b 17.088019
_cell_length_c 17.506450
_cell_angle_alpha 90.000000
_cell_angle_beta 90.000000
_cell_angle_gamma 90.000000
_cell_volume 5111.890286
_symmetry_space_group_name_H-M "P 42/N C M"
_symmetry_group_IT_number 138
_space_group.IT_coordinate_system_code '2'
_symmetry_cell_setting 'tetragonal'
loop_
_space_group_symop_operation_xyz
x,y,z
1/2-y,x,1/2+z
1/2-x,1/2-y,z
y,1/2-x,1/2+z
1/2+x,-y,1/2-z
-x,1/2+y,1/2-z
1/2+y,1/2+x,-z
-y,-x,-z
-x,-y,-z
1/2+y,-x,1/2-z
1/2+x,1/2+y,-z
-y,1/2+x,1/2-z
1/2-x,y,1/2+z
x,1/2-y,1/2+z
1/2-y,1/2-x,z
y,x,z
loop_
_atom_site_type_symbol
_atom_site_label
_atom_site_fract_x
_atom_site_fract_y
_atom_site_fract_z
Si Si1 0.350110 0.020563 0.539578
Si Si2 0.748985 0.618696 0.687669
Si Si3 0.965984 0.202926 0.883629
Si Si4 0.049024 0.575949 0.306754
Si Si5 0.640731 0.205410 0.778674
Si Si6 0.254994 0.379451 0.637784
O O1 0.412294 0.087707 0.513449
O O2 0.272812 0.061048 0.573963
O O3 0.327920 0.965664 0.469610
O O4 0.388963 0.979544 0.612504
O O5 0.822410 0.677591 0.675978
O O6 0.672170 0.672170 0.680096
O O7 0.751317 0.546510 0.630756
O O8 0.753771 0.589263 0.775580
O O9 0.970838 0.127548 0.827931
O O10 0.892195 0.253015 0.854392
O O11 0.075462 0.646106 0.252259
O O12 0.980751 0.519250 0.277362
O O13 0.658906 0.276994 0.719674
O O14 0.188419 0.311582 0.638021
O O15 0.336667 0.336667 0.623130
#
# Coordination Sequence:
#
# PCOD9570631 Si02
#       6
#    16  16  16  16  16  16
#     4  10  19  30  46  72 104 132 161 203 253 299
#     4   9  17  29  46  71 103 136 171 211 253 299
#     4  11  20  31  50  76 102 130 169 212 251 290
#     4  10  20  35  55  76 100 132 167 204 250 301
#     4   9  20  38  56  74  99 132 170 210 248 291
#     4   8  15  28  44  63  93 134 170 198 241 302
#
# _framework density 18.779747
#
# number of rings (size 3 to 8) (size 9 to 14) (size 15 to 20)
#    0.000    2.500    0.000    4.000    0.000    4.000 
#    0.000    2.500    0.000    4.000    0.000    0.000 
#    0.000   12.000    0.000    0.000    0.000    0.000 
#
# Total GULP energy -535288.258191 kJ/mol
# GULP energy per Si atom -5575.919356 kJ/mol
# Density = 1.873700 g / cm^3
# Si number density = 18.779747 Si / 1000 Ang^3
#
#
#
# Elastic Constant Matrix: (Units=GPa)
#
#
# Indices 1 2 3 4 5 6 
#
# 1 55.8717 33.9906 9.1808 0.0000 0.0000 0.0000
# 2 33.9906 55.8717 9.1808 0.0000 0.0000 0.0000
# 3 9.1808 9.1808 24.0447 0.0000 0.0000 0.0000
# 4 0.0000 0.0000 0.0000 22.3062 0.0000 0.0000
# 5 0.0000 0.0000 0.0000 0.0000 22.3062 0.0000
# 6 0.0000 0.0000 0.0000 0.0000 0.0000 32.8320
#
#
#
# Elastic Compliance Matrix: (Units=1/GPa)
#
#
# Indices 1 2 3 4 5 6 
#
# 1 0.028886 -0.016816 -0.004609 0.000000 0.000000 0.000000
# 2 -0.016816 0.028886 -0.004609 0.000000 0.000000 0.000000
# 3 -0.004609 -0.004609 0.045108 0.000000 0.000000 0.000000
# 4 0.000000 0.000000 0.000000 0.044831 0.000000 0.000000
# 5 0.000000 0.000000 0.000000 0.000000 0.044831 0.000000
# 6 0.000000 0.000000 0.000000 0.000000 0.000000 0.030458
#
#
# Mechanical properties :
#
#
# Convention : Reuss Voigt Hill
#
# Bulk Modulus (GPa) = 19.67963 26.72137 23.20050
# Shear Modulus (GPa) = 17.12312 21.05128 19.08720
#
# Velocity S-wave (km/s) = 3.02286 3.35170 3.19152
# Velocity P-wave (km/s) = 4.76293 5.40724 5.09528
#
# Compressibility (1/GPa) = 0.05081397
#
# Stress axis : x y z
#
# Youngs Moduli (GPa) = 34.61923 34.61923 22.16881
#
# Poissons Ratio (x) = 0.58215 0.10217
# Poissons Ratio (y) = 0.58215 0.10217
# Poissons Ratio (z) = 0.15954 0.15954
#
# Static dielectric constant tensor:
#      x y z
#    x 1.691180 0.000000 0.000000 
#    y 0.000000 1.691180 0.000000 
#    z 0.000000 0.000000 1.639680 
# 
# From -- ./inp_files/5196.got.cif
#   From: 2010.05.17/outbox.cif.g08.bks.cpg/sg138_3_cif.got.tgz:5196.got - 2010.05.20 13:08:53.
