data_PCOD9570243
_publ_section_title
;
Structure prediction by ZEFSAII (Michael W. Deem and Ramdas Pophale) SiO2 
 PCOD9570243
Probable space group: P 42/N M C
;
_chemical_formula_sum "Si O2"
_cell_formula_units_Z 112
_cell_length_a 15.293711
_cell_length_b 15.293711
_cell_length_c 26.011225
_cell_angle_alpha 90.000000
_cell_angle_beta 90.000000
_cell_angle_gamma 90.000000
_cell_volume 6083.963000
_symmetry_space_group_name_H-M "P 42/N M C"
_symmetry_group_IT_number 137
_space_group.IT_coordinate_system_code '2'
_symmetry_cell_setting 'tetragonal'
loop_
_space_group_symop_operation_xyz
x,y,z
1/2-y,x,1/2+z
1/2-x,1/2-y,z
y,1/2-x,1/2+z
1/2+x,-y,-z
-x,1/2+y,-z
1/2+y,1/2+x,1/2-z
-y,-x,1/2-z
-x,-y,-z
1/2+y,-x,1/2-z
1/2+x,1/2+y,-z
-y,1/2+x,1/2-z
1/2-x,y,z
x,1/2-y,z
1/2-y,1/2-x,1/2+z
y,x,1/2+z
loop_
_atom_site_type_symbol
_atom_site_label
_atom_site_fract_x
_atom_site_fract_y
_atom_site_fract_z
Si Si1 0.148961 0.152572 0.054817
Si Si2 0.350225 0.957204 0.209014
Si Si3 0.088152 0.847578 0.804008
Si Si4 0.354526 0.648824 0.103697
Si Si5 0.853522 0.350092 0.086726
Si Si6 0.598171 0.027336 0.991461
Si Si7 0.389146 0.349042 0.170674
O O1 0.250000 0.157357 0.070476
O O2 0.124603 0.250000 0.034045
O O3 0.100668 0.138290 0.109024
O O4 0.142151 0.067199 0.019311
O O5 0.421364 0.921364 0.250000
O O6 0.250000 0.936442 0.226015
O O7 0.368406 0.902013 0.157099
O O8 0.351416 0.060952 0.194581
O O9 0.112675 0.887326 0.750000
O O10 0.126892 0.750000 0.805588
O O11 0.117057 0.888231 0.858200
O O12 0.984645 0.843438 0.805837
O O13 0.250000 0.651477 0.095479
O O14 0.385557 0.750000 0.104426
O O15 0.391556 0.590066 0.057780
O O16 0.750000 0.341646 0.088284
O O17 0.890295 0.250000 0.079728
O O18 0.874148 0.415090 0.040279
O O19 0.500000 0.000000 0.000000
O O20 0.349791 0.250000 0.177447
#
# Coordination Sequence:
#
# PCOD9570243 Si02
#       7
#    16  16  16  16  16  16  16
#     4  10  20  36  58  82 110 147 194 242 286 340
#     4  11  22  37  60  91 124 159 203 253 305 360
#     4  10  20  35  56  83 116 151 191 239 295 355
#     4  10  21  38  60  85 117 157 196 238 297 363
#     4  10  21  36  56  83 114 150 194 243 295 356
#     4  12  23  35  55  82 115 150 191 238 299 355
#     4  10  20  35  57  87 119 152 195 247 297 351
#
# _framework density 18.409053
#
# number of rings (size 3 to 8) (size 9 to 14) (size 15 to 20)
#    0.000    1.571    1.429    4.286    0.000    5.714 
#    0.000    0.000    0.000    0.000    0.000    0.000 
#    0.000    0.000    0.000    0.000    0.000    0.000 
#
# Total GULP energy -623864.769887 kJ/mol
# GULP energy per Si atom -5570.221160 kJ/mol
# Density = 1.836715 g / cm^3
# Si number density = 18.409053 Si / 1000 Ang^3
#
#
#
# Elastic Constant Matrix: (Units=GPa)
#
#
# Indices 1 2 3 4 5 6 
#
# 1 100.3161 33.9497 54.8750 0.0000 0.0000 0.0000
# 2 33.9497 100.3155 54.8765 0.0000 0.0000 0.0000
# 3 54.8750 54.8765 111.4857 0.0000 0.0000 0.0000
# 4 0.0000 0.0000 0.0000 27.2582 0.0000 0.0000
# 5 0.0000 0.0000 0.0000 0.0000 27.2580 0.0000
# 6 0.0000 0.0000 0.0000 0.0000 0.0000 24.7493
#
#
#
# Elastic Compliance Matrix: (Units=1/GPa)
#
#
# Indices 1 2 3 4 5 6 
#
# 1 0.013765 -0.001303 -0.006134 0.000000 0.000000 0.000000
# 2 -0.001303 0.013765 -0.006134 0.000000 0.000000 0.000000
# 3 -0.006134 -0.006134 0.015008 0.000000 0.000000 0.000000
# 4 0.000000 0.000000 0.000000 0.036686 0.000000 0.000000
# 5 0.000000 0.000000 0.000000 0.000000 0.036686 0.000000
# 6 0.000000 0.000000 0.000000 0.000000 0.000000 0.040405
#
#
# Mechanical properties :
#
#
# Convention : Reuss Voigt Hill
#
# Bulk Modulus (GPa) = 64.95123 66.61330 65.78226
# Shear Modulus (GPa) = 26.51245 27.08085 26.79665
#
# Velocity S-wave (km/s) = 3.79909 3.83960 3.81940
# Velocity P-wave (km/s) = 7.38938 7.47799 7.43382
#
# Compressibility (1/GPa) = 0.01539617
#
# Stress axis : x y z
#
# Youngs Moduli (GPa) = 72.64901 72.64694 66.62907
#
# Poissons Ratio (x) = 0.09465 0.40870
# Poissons Ratio (y) = 0.09466 0.40872
# Poissons Ratio (z) = 0.44562 0.44564
#
# Static dielectric constant tensor:
#      x y z
#    x 1.667760 0.000000 0.000000 
#    y 0.000000 1.667760 0.000000 
#    z 0.000000 0.000000 1.671490 
# 
# From -- ./inp_files/8923.got.cif
#   From: 2010.05.17/outbox.cif.g08.bks.cpg/sg137_5_cif.got.tgz:8923.got - 2010.05.20 13:01:12.
