data_PCOD9570546
_publ_section_title
;
Structure prediction by ZEFSAII (Michael W. Deem and Ramdas Pophale) SiO2 
 PCOD9570546
Probable space group: P 42/N M C
;
_chemical_formula_sum "Si O2"
_cell_formula_units_Z 112
_cell_length_a 15.000000
_cell_length_b 15.000000
_cell_length_c 27.000000
_cell_angle_alpha 90.000000
_cell_angle_beta 90.000000
_cell_angle_gamma 90.000000
_cell_volume 6075.000000
_symmetry_space_group_name_H-M "P 42/N M C"
_symmetry_group_IT_number 137
_space_group.IT_coordinate_system_code '2'
_symmetry_cell_setting 'tetragonal'
loop_
_space_group_symop_operation_xyz
x,y,z
1/2-y,x,1/2+z
1/2-x,1/2-y,z
y,1/2-x,1/2+z
1/2+x,-y,-z
-x,1/2+y,-z
1/2+y,1/2+x,1/2-z
-y,-x,1/2-z
-x,-y,-z
1/2+y,-x,1/2-z
1/2+x,1/2+y,-z
-y,1/2+x,1/2-z
1/2-x,y,z
x,1/2-y,z
1/2-y,1/2-x,1/2+z
y,x,1/2+z
loop_
_atom_site_type_symbol
_atom_site_label
_atom_site_fract_x
_atom_site_fract_y
_atom_site_fract_z
Si Si1 0.647523 0.355215 0.091335
Si Si2 0.975810 0.647709 0.852465
Si Si3 0.984563 0.903775 0.524417
Si Si4 0.149429 0.983659 0.314542
Si Si5 0.347045 0.348988 0.055052
Si Si6 0.144539 0.356192 0.886105
Si Si7 0.995558 0.646687 0.304016
O O1 0.750000 0.364518 0.107161
O O2 0.631626 0.250000 0.079504
O O3 0.576573 0.380179 0.134126
O O4 0.631459 0.421204 0.045140
O O5 0.976449 0.750000 0.835485
O O6 0.924627 0.643553 0.905111
O O7 0.916840 0.586871 0.817280
O O8 0.930091 0.850835 0.482703
O O9 0.917264 0.897090 0.570905
O O10 0.000000 0.000000 0.500000
O O11 0.250000 0.958924 0.329736
O O12 0.080004 0.905585 0.327166
O O13 0.129009 0.079058 0.339462
O O14 0.148144 0.993676 0.255253
O O15 0.250000 0.349823 0.080127
O O16 0.355521 0.250000 0.030930
O O17 0.250000 0.378360 0.879238
O O18 0.141017 0.250000 0.897727
O O19 0.987504 0.750000 0.320330
#
# Coordination Sequence:
#
# PCOD9570546 Si02
#       7
#    16  16  16  16  16  16  16
#     4  10  21  37  55  76 107 148 191 229 272 333
#     4  10  20  35  55  82 112 143 182 229 281 332
#     4  12  22  33  54  79 105 144 183 226 277 329
#     4   9  20  37  58  85 114 148 188 230 274 328
#     4  10  20  34  52  77 108 139 177 226 280 335
#     4  10  21  38  60  85 113 144 183 233 285 334
#     4  10  20  35  57  84 115 150 188 228 276 332
#
# _framework density 18.436214
#
# number of rings (size 3 to 8) (size 9 to 14) (size 15 to 20)
#    0.000    1.857    1.429    3.000    0.000    3.429 
#    0.000    2.857    0.000    0.857    0.000    0.000 
#    0.000    2.286    0.000    0.000    0.000    0.000 
#
# Total GULP energy -624198.481385 kJ/mol
# GULP energy per Si atom -5573.200727 kJ/mol
# Density = 1.839425 g / cm^3
# Si number density = 18.436214 Si / 1000 Ang^3
#
#
#
# Elastic Constant Matrix: (Units=GPa)
#
#
# Indices 1 2 3 4 5 6 
#
# 1 115.7291 49.6520 19.6418 0.0000 0.0000 0.0000
# 2 49.6520 115.7291 19.6418 0.0000 0.0000 0.0000
# 3 19.6418 19.6418 20.0378 0.0000 0.0000 0.0000
# 4 0.0000 0.0000 0.0000 27.6939 0.0000 0.0000
# 5 0.0000 0.0000 0.0000 0.0000 27.6939 0.0000
# 6 0.0000 0.0000 0.0000 0.0000 0.0000 28.7798
#
#
#
# Elastic Compliance Matrix: (Units=1/GPa)
#
#
# Indices 1 2 3 4 5 6 
#
# 1 0.011508 -0.003626 -0.007726 0.000000 0.000000 0.000000
# 2 -0.003626 0.011508 -0.007726 0.000000 0.000000 0.000000
# 3 -0.007726 -0.007726 0.065053 0.000000 0.000000 0.000000
# 4 0.000000 0.000000 0.000000 0.036109 0.000000 0.000000
# 5 0.000000 0.000000 0.000000 0.000000 0.036109 0.000000
# 6 0.000000 0.000000 0.000000 0.000000 0.000000 0.034747
#
#
# Mechanical properties :
#
#
# Convention : Reuss Voigt Hill
#
# Bulk Modulus (GPa) = 20.03530 47.70748 33.87139
# Shear Modulus (GPa) = 20.01387 27.67088 23.84238
#
# Velocity S-wave (km/s) = 3.29838 3.87835 3.60006
# Velocity P-wave (km/s) = 5.03951 6.78149 5.97433
#
# Compressibility (1/GPa) = 0.04991190
#
# Stress axis : x y z
#
# Youngs Moduli (GPa) = 86.89721 86.89721 15.37217
#
# Poissons Ratio (x) = 0.31509 0.11877
# Poissons Ratio (y) = 0.31509 0.11877
# Poissons Ratio (z) = 0.67138 0.67138
#
# Static dielectric constant tensor:
#      x y z
#    x 1.664620 0.000000 0.000000 
#    y 0.000000 1.664620 0.000000 
#    z 0.000000 0.000000 1.625340 
# 
# From -- ./inp_files/9827.got.cif
#   From: 2010.05.17/outbox.ucp.g08.bks.cvg/sg137_5_cif.got.tgz:9827.got - 2010.06.11 11:41:14.
