data_PCOD9570987
_publ_section_title
;
Structure prediction by ZEFSAII (Michael W. Deem and Ramdas Pophale) SiO2 
 PCOD9570987
Probable space group: P 42/N C M
;
_chemical_formula_sum "Si O2"
_cell_formula_units_Z 64
_cell_length_a 18.927257
_cell_length_b 18.927257
_cell_length_c 8.643544
_cell_angle_alpha 90.000000
_cell_angle_beta 90.000000
_cell_angle_gamma 90.000000
_cell_volume 3096.472343
_symmetry_space_group_name_H-M "P 42/N C M"
_symmetry_group_IT_number 138
_space_group.IT_coordinate_system_code '2'
_symmetry_cell_setting 'tetragonal'
loop_
_space_group_symop_operation_xyz
x,y,z
1/2-y,x,1/2+z
1/2-x,1/2-y,z
y,1/2-x,1/2+z
1/2+x,-y,1/2-z
-x,1/2+y,1/2-z
1/2+y,1/2+x,-z
-y,-x,-z
-x,-y,-z
1/2+y,-x,1/2-z
1/2+x,1/2+y,-z
-y,1/2+x,1/2-z
1/2-x,y,1/2+z
x,1/2-y,1/2+z
1/2-y,1/2-x,z
y,x,z
loop_
_atom_site_type_symbol
_atom_site_label
_atom_site_fract_x
_atom_site_fract_y
_atom_site_fract_z
Si Si1 0.847754 0.534512 0.828266
Si Si2 0.992918 0.285162 0.846848
Si Si3 0.426747 0.954377 0.676745
Si Si4 0.264783 0.838466 0.353394
O O1 0.898925 0.601076 0.808769
O O2 0.776981 0.539276 0.726403
O O3 0.894975 0.466294 0.779236
O O4 0.821869 0.524772 0.003026
O O5 0.973458 0.348263 0.729546
O O6 0.919656 0.245758 0.885966
O O7 0.428711 0.928711 0.500000
O O8 0.475890 0.024111 0.687085
O O9 0.301922 0.801922 0.500000
O O10 0.310320 0.812409 0.204317
#
# Coordination Sequence:
#
# PCOD9570987 Si02
#       4
#    16  16  16  16
#     4  11  25  43  66  98 130 167 220 278 336 399
#     4  12  23  40  66  90 125 172 221 270 327 396
#     4  10  22  41  65  95 130 166 208 261 321 388
#     4  11  23  36  52  83 127 168 203 245 304 380
#
# _framework density 20.668680999999999
#
# number of rings (size 3 to 8) (size 9 to 14) (size 15 to 20)
#    0.000    1.000    0.000    7.500    0.000   11.000 
#    0.000    1.250    0.000    6.000    0.000    0.000 
#    0.000    0.000    0.000    0.000    0.000    0.000 
#
# Total GULP energy -357856.040987 kJ/mol
# GULP energy per Si atom -5591.500640 kJ/mol
# Density = 2.062164 g / cm^3
# Si number density = 20.668681 Si / 1000 Ang^3
#
#
#
# Elastic Constant Matrix: (Units=GPa)
#
#
# Indices 1 2 3 4 5 6 
#
# 1 361.4176 -155.4840 59.0386 0.0000 0.0000 0.0000
# 2 -155.4840 361.4176 59.0386 0.0000 0.0000 0.0000
# 3 59.0386 59.0386 110.6245 0.0000 0.0000 0.0000
# 4 0.0000 0.0000 0.0000 31.9846 0.0000 0.0000
# 5 0.0000 0.0000 0.0000 0.0000 31.9846 0.0000
# 6 0.0000 0.0000 0.0000 0.0000 0.0000 28.6206
#
#
#
# Elastic Compliance Matrix: (Units=1/GPa)
#
#
# Indices 1 2 3 4 5 6 
#
# 1 0.004466 0.002531 -0.003734 0.000000 0.000000 0.000000
# 2 0.002531 0.004466 -0.003734 0.000000 0.000000 0.000000
# 3 -0.003734 -0.003734 0.013025 0.000000 0.000000 0.000000
# 4 0.000000 0.000000 0.000000 0.031265 0.000000 0.000000
# 5 0.000000 0.000000 0.000000 0.000000 0.031265 0.000000
# 6 0.000000 0.000000 0.000000 0.000000 0.000000 0.034940
#
#
# Mechanical properties :
#
#
# Convention : Reuss Voigt Hill
#
# Bulk Modulus (GPa) = 82.76365 84.29403 83.52884
# Shear Modulus (GPa) = 37.50121 76.57570 57.03845
#
# Velocity S-wave (km/s) = 4.26420 6.09340 5.25894
# Velocity P-wave (km/s) = 8.02337 9.50674 8.79638
#
# Compressibility (1/GPa) = 0.01208260
#
# Stress axis : x y z
#
# Youngs Moduli (GPa) = 223.92282 223.92282 76.77314
#
# Poissons Ratio (x) = -0.56680 0.28669
# Poissons Ratio (y) = -0.56680 0.28669
# Poissons Ratio (z) = 0.83618 0.83618
#
# Static dielectric constant tensor:
#      x y z
#    x 1.766170 0.000000 0.000000 
#    y 0.000000 1.766170 0.000000 
#    z 0.000000 0.000000 1.734730 
# 
# From -- ./inp_files/1398.got.cif
#   From: 2010.05.17/outbox.cif.g08.bks.cpg/sg138_1_cif.got.tgz:1398.got - 2010.05.20 13:08:53.
