data_PCOD9570611
_publ_section_title
;
Structure prediction by ZEFSAII (Michael W. Deem and Ramdas Pophale) SiO2 
 PCOD9570611
Probable space group: P 42/N C M
;
_chemical_formula_sum "Si O2"
_cell_formula_units_Z 112
_cell_length_a 24.592386
_cell_length_b 24.592386
_cell_length_c 11.750366
_cell_angle_alpha 90.000000
_cell_angle_beta 90.000000
_cell_angle_gamma 90.000000
_cell_volume 7106.450379
_symmetry_space_group_name_H-M "P 42/N C M"
_symmetry_group_IT_number 138
_space_group.IT_coordinate_system_code '2'
_symmetry_cell_setting 'tetragonal'
loop_
_space_group_symop_operation_xyz
x,y,z
1/2-y,x,1/2+z
1/2-x,1/2-y,z
y,1/2-x,1/2+z
1/2+x,-y,1/2-z
-x,1/2+y,1/2-z
1/2+y,1/2+x,-z
-y,-x,-z
-x,-y,-z
1/2+y,-x,1/2-z
1/2+x,1/2+y,-z
-y,1/2+x,1/2-z
1/2-x,y,1/2+z
x,1/2-y,1/2+z
1/2-y,1/2-x,z
y,x,z
loop_
_atom_site_type_symbol
_atom_site_label
_atom_site_fract_x
_atom_site_fract_y
_atom_site_fract_z
Si Si1 0.277451 0.940328 0.142304
Si Si2 0.149866 0.987401 0.810587
Si Si3 0.061573 0.595798 0.256511
Si Si4 0.941479 0.558521 0.588265
Si Si5 0.237028 0.664882 0.275602
Si Si6 0.031717 0.468284 0.667647
Si Si7 0.602677 0.320194 0.427324
Si Si8 0.836337 0.415463 0.467633
O O1 0.298123 0.987486 0.226325
O O2 0.291668 0.883281 0.206230
O O3 0.214820 0.929527 0.111117
O O4 0.304128 0.942828 0.018560
O O5 0.104975 0.952497 0.740163
O O6 0.116263 0.038529 0.860063
O O7 0.167047 0.951756 0.920048
O O8 0.077535 0.644432 0.173562
O O9 0.067954 0.613344 0.388012
O O10 0.000599 0.574242 0.254353
O O11 0.943964 0.556036 0.450079
O O12 0.986533 0.513468 0.628064
O O13 0.194171 0.713470 0.293392
O O14 0.267554 0.635050 0.379589
O O15 0.644607 0.355394 0.500000
O O16 0.853377 0.353377 0.500000
#
# Coordination Sequence:
#
# PCOD9570611 Si02
#       8
#    16  16  16   8  16   8  16  16
#     4  12  23  33  48  66  96 129 167 205 258 309
#     4  10  19  34  50  74  91 119 162 209 257 304
#     4  10  18  34  51  71  90 117 156 209 265 302
#     4   9  16  30  55  76  93 110 152 216 261 300
#     4  11  23  36  46  61  83 123 180 223 257 286
#     4   9  16  30  54  77  90 107 154 211 262 319
#     4  12  22  35  46  60  91 123 156 211 261 311
#     4  10  21  32  51  67  93 125 167 212 252 294
#
# _framework density 15.76033
#
# number of rings (size 3 to 8) (size 9 to 14) (size 15 to 20)
#    0.000    1.429    5.714    0.857    4.000    0.000 
#    0.000    1.071    0.000    0.000    0.000    0.000 
#    0.000    0.000    0.000    0.000    0.000    5.714 
#
# Total GULP energy -623720.518483 kJ/mol
# GULP energy per Si atom -5568.933201 kJ/mol
# Density = 1.572446 g / cm^3
# Si number density = 15.760330 Si / 1000 Ang^3
#
#
#
# Elastic Constant Matrix: (Units=GPa)
#
#
# Indices 1 2 3 4 5 6 
#
# 1 44.8038 35.4677 26.6777 0.0000 0.0000 0.0000
# 2 35.4677 44.8041 26.6778 0.0000 0.0000 0.0000
# 3 26.6777 26.6778 81.8519 0.0000 0.0000 0.0000
# 4 0.0000 0.0000 0.0000 17.4183 0.0000 0.0000
# 5 0.0000 0.0000 0.0000 0.0000 17.4181 0.0000
# 6 0.0000 0.0000 0.0000 0.0000 0.0000 30.6109
#
#
#
# Elastic Compliance Matrix: (Units=1/GPa)
#
#
# Indices 1 2 3 4 5 6 
#
# 1 0.061507 -0.045603 -0.005183 0.000000 0.000000 0.000000
# 2 -0.045603 0.061506 -0.005183 0.000000 0.000000 0.000000
# 3 -0.005183 -0.005183 0.015596 0.000000 0.000000 0.000000
# 4 0.000000 0.000000 0.000000 0.057411 0.000000 0.000000
# 5 0.000000 0.000000 0.000000 0.000000 0.057412 0.000000
# 6 0.000000 0.000000 0.000000 0.000000 0.000000 0.032668
#
#
# Mechanical properties :
#
#
# Convention : Reuss Voigt Hill
#
# Bulk Modulus (GPa) = 37.49684 38.78959 38.14322
# Shear Modulus (GPa) = 12.28718 18.59856 15.44287
#
# Velocity S-wave (km/s) = 2.79521 3.43897 3.13366
# Velocity P-wave (km/s) = 5.85330 6.35879 6.11128
#
# Compressibility (1/GPa) = 0.02666891
#
# Stress axis : x y z
#
# Youngs Moduli (GPa) = 16.25844 16.25856 64.11956
#
# Poissons Ratio (x) = 0.74145 0.33234
# Poissons Ratio (y) = 0.74144 0.33234
# Poissons Ratio (z) = 0.08427 0.08427
#
# Static dielectric constant tensor:
#      x y z
#    x 1.561430 0.000000 0.000000 
#    y 0.000000 1.561430 0.000000 
#    z 0.000000 0.000000 1.575410 
# 
# From -- ./inp_files/3322.got.cif
#   From: 2010.05.17/outbox.cif.g08.bks.cpg/sg138_2_cif.got.tgz:3322.got - 2010.05.20 13:08:53.
