data_PCOD9570034
_publ_section_title
;
Structure prediction by ZEFSAII (Michael W. Deem and Ramdas Pophale) SiO2 
 PCOD9570034
Probable space group: P 42/N M C
;
_chemical_formula_sum "Si O2"
_cell_formula_units_Z 64
_cell_length_a 18.475277
_cell_length_b 18.475277
_cell_length_c 10.755284
_cell_angle_alpha 90.000000
_cell_angle_beta 90.000000
_cell_angle_gamma 90.000000
_cell_volume 3671.164116
_symmetry_space_group_name_H-M "P 42/N M C"
_symmetry_group_IT_number 137
_space_group.IT_coordinate_system_code '2'
_symmetry_cell_setting 'tetragonal'
loop_
_space_group_symop_operation_xyz
x,y,z
1/2-y,x,1/2+z
1/2-x,1/2-y,z
y,1/2-x,1/2+z
1/2+x,-y,-z
-x,1/2+y,-z
1/2+y,1/2+x,1/2-z
-y,-x,1/2-z
-x,-y,-z
1/2+y,-x,1/2-z
1/2+x,1/2+y,-z
-y,1/2+x,1/2-z
1/2-x,y,z
x,1/2-y,z
1/2-y,1/2-x,1/2+z
y,x,1/2+z
loop_
_atom_site_type_symbol
_atom_site_label
_atom_site_fract_x
_atom_site_fract_y
_atom_site_fract_z
Si Si1 0.836456 0.663838 0.895847
Si Si2 0.837501 0.415257 0.636330
Si Si3 0.162023 0.083186 0.353948
Si Si4 0.838128 0.166435 0.386975
O O1 0.750000 0.653646 0.910539
O O2 0.848770 0.750000 0.879928
O O3 0.861612 0.622685 0.772201
O O4 0.876256 0.638551 0.020690
O O5 0.871698 0.371698 0.750000
O O6 0.750000 0.410158 0.643595
O O7 0.858133 0.499275 0.643813
O O8 0.860338 0.380966 0.504420
O O9 0.250000 0.087125 0.354006
O O10 0.860570 0.139431 0.250000
O O11 0.750000 0.166855 0.383284
O O12 0.861175 0.250000 0.404026
#
# Coordination Sequence:
#
# PCOD9570034 Si02
#       4
#    16  16  16  16
#     4   9  16  30  53  75  94 119 151 190 240 292
#     4  10  19  31  47  69  98 129 161 196 233 274
#     4   9  18  31  48  73  99 121 154 198 235 276
#     4   8  14  26  45  67  89 117 157 199 232 265
#
# _framework density 17.433163
#
# number of rings (size 3 to 8) (size 9 to 14) (size 15 to 20)
#    0.000    3.000    0.000    2.250    0.000    4.250 
#    0.000    3.750    0.000    9.000    0.000    0.000 
#    0.000    0.000    0.000    0.000    0.000    0.000 
#
# Total GULP energy -356632.299902 kJ/mol
# GULP energy per Si atom -5572.379686 kJ/mol
# Density = 1.739348 g / cm^3
# Si number density = 17.433163 Si / 1000 Ang^3
#
#
#
# Elastic Constant Matrix: (Units=GPa)
#
#
# Indices 1 2 3 4 5 6 
#
# 1 42.5409 34.0625 61.8248 0.0000 0.0000 0.0000
# 2 34.0625 42.5412 61.8248 0.0000 0.0000 0.0000
# 3 61.8248 61.8248 203.4771 0.0000 0.0000 0.0000
# 4 0.0000 0.0000 0.0000 -5.4609 0.0000 0.0000
# 5 0.0000 0.0000 0.0000 0.0000 -5.4609 0.0000
# 6 0.0000 0.0000 0.0000 0.0000 0.0000 9.5217
#
#
#
# Elastic Compliance Matrix: (Units=1/GPa)
#
#
# Indices 1 2 3 4 5 6 
#
# 1 0.071782 -0.046163 -0.007784 0.000000 0.000000 0.000000
# 2 -0.046163 0.071781 -0.007784 0.000000 0.000000 0.000000
# 3 -0.007784 -0.007784 0.009645 0.000000 0.000000 0.000000
# 4 0.000000 0.000000 0.000000 -0.183119 0.000000 0.000000
# 5 0.000000 0.000000 0.000000 0.000000 -0.183119 0.000000
# 6 0.000000 0.000000 0.000000 0.000000 0.000000 0.105024
#
#
# Mechanical properties :
#
#
# Convention : Reuss Voigt Hill
#
# Bulk Modulus (GPa) = 33.61765 67.10926 50.36345
# Shear Modulus (GPa) = 197.06824 8.44310 102.75567
#
# Velocity S-wave (km/s) = 10.64366 2.20310 7.68574
# Velocity P-wave (km/s) = 13.05280 6.71195 10.37849
#
# Compressibility (1/GPa) = 0.02974628
#
# Stress axis : x y z
#
# Youngs Moduli (GPa) = 13.93102 13.93120 103.68259
#
# Poissons Ratio (x) = 0.64310 0.80709
# Poissons Ratio (y) = 0.64310 0.80706
# Poissons Ratio (z) = 0.10844 0.10844
#
# Static dielectric constant tensor:
#      x y z
#    x 1.576470 0.000000 0.000000 
#    y 0.000000 1.576470 0.000000 
#    z 0.000000 0.000000 1.590560 
# 
# From -- ./inp_files/1821.got.cif
#   From: 2010.05.17/outbox.cif.g08.bks.cpg/sg137_1_cif.got.tgz:1821.got - 2010.05.20 13:01:12.
