data_PCOD9570122
_publ_section_title
;
Structure prediction by ZEFSAII (Michael W. Deem and Ramdas Pophale) SiO2 
 PCOD9570122
Probable space group: P 42/N M C
;
_chemical_formula_sum "Si O2"
_cell_formula_units_Z 96
_cell_length_a 20.387702
_cell_length_b 20.387702
_cell_length_c 10.282259
_cell_angle_alpha 90.000000
_cell_angle_beta 90.000000
_cell_angle_gamma 90.000000
_cell_volume 4273.907251
_symmetry_space_group_name_H-M "P 42/N M C"
_symmetry_group_IT_number 137
_space_group.IT_coordinate_system_code '2'
_symmetry_cell_setting 'tetragonal'
loop_
_space_group_symop_operation_xyz
x,y,z
1/2-y,x,1/2+z
1/2-x,1/2-y,z
y,1/2-x,1/2+z
1/2+x,-y,-z
-x,1/2+y,-z
1/2+y,1/2+x,1/2-z
-y,-x,1/2-z
-x,-y,-z
1/2+y,-x,1/2-z
1/2+x,1/2+y,-z
-y,1/2+x,1/2-z
1/2-x,y,z
x,1/2-y,z
1/2-y,1/2-x,1/2+z
y,x,1/2+z
loop_
_atom_site_type_symbol
_atom_site_label
_atom_site_fract_x
_atom_site_fract_y
_atom_site_fract_z
Si Si1 0.103592 0.674171 0.955171
Si Si2 0.066204 0.673282 0.229848
Si Si3 0.112422 0.509958 0.740893
Si Si4 0.327641 0.178384 0.328744
Si Si5 0.598950 0.827489 0.928297
Si Si6 0.536717 0.173028 0.499112
O O1 0.127321 0.750000 0.959197
O O2 0.066630 0.658914 0.821758
O O3 0.154325 0.614117 0.975975
O O4 0.052172 0.666263 0.076848
O O5 0.131986 0.631986 0.250000
O O6 0.078540 0.750000 0.250640
O O7 0.020709 0.653358 0.351246
O O8 0.040133 0.540133 0.750000
O O9 0.125032 0.452197 0.641497
O O10 0.136354 0.497819 0.886551
O O11 0.250000 0.181320 0.347556
O O12 0.356362 0.250000 0.364914
O O13 0.348182 0.122439 0.429493
O O14 0.342100 0.169869 0.176803
O O15 0.576733 0.750000 0.930645
O O16 0.527028 0.250000 0.483608
#
# Coordination Sequence:
#
# PCOD9570122 Si02
#       6
#    16  16  16  16  16  16
#     4   9  16  26  40  59  86 121 166 219 269 313
#     4   8  14  23  35  52  75 107 149 204 267 317
#     4  10  20  33  48  68  98 140 185 218 244 282
#     4   9  18  34  59  90 116 134 157 200 262 331
#     4  10  19  34  57  82 111 143 173 208 259 319
#     4   9  16  26  40  59  86 121 166 219 269 313
#
# _framework density 22.461881999999999
#
# number of rings (size 3 to 8) (size 9 to 14) (size 15 to 20)
#    0.000    2.833    0.000    2.000    0.000    2.500 
#    0.000    5.833    0.000    7.000    0.000    0.000 
#    0.000    0.000    0.000    0.000    0.000    0.000 
#
# Total GULP energy -534728.949232 kJ/mol
# GULP energy per Si atom -5570.093221 kJ/mol
# Density = 2.241076 g / cm^3
# Si number density = 22.461882 Si / 1000 Ang^3
#
#
#
# Elastic Constant Matrix: (Units=GPa)
#
#
# Indices 1 2 3 4 5 6 
#
# 1 29.8333 5.7370 -6.2033 0.0000 0.0000 0.0000
# 2 5.7370 29.8333 -6.2033 0.0000 0.0000 0.0000
# 3 -6.2033 -6.2033 98.3782 0.0000 0.0000 0.0000
# 4 0.0000 0.0000 0.0000 -9.9222 0.0000 0.0000
# 5 0.0000 0.0000 0.0000 0.0000 -9.9222 0.0000
# 6 0.0000 0.0000 0.0000 0.0000 0.0000 10.0409
#
#
#
# Elastic Compliance Matrix: (Units=1/GPa)
#
#
# Indices 1 2 3 4 5 6 
#
# 1 0.035123 -0.006377 0.001813 0.000000 0.000000 0.000000
# 2 -0.006377 0.035123 0.001813 0.000000 0.000000 0.000000
# 3 0.001813 0.001813 0.010393 0.000000 0.000000 0.000000
# 4 0.000000 0.000000 0.000000 -0.100784 0.000000 0.000000
# 5 0.000000 0.000000 0.000000 0.000000 -0.100784 0.000000
# 6 0.000000 0.000000 0.000000 0.000000 0.000000 0.099593
#
#
# Mechanical properties :
#
#
# Convention : Reuss Voigt Hill
#
# Bulk Modulus (GPa) = 13.30942 16.07841 14.69392
# Shear Modulus (GPa) = 542.75357 9.02027 275.88692
#
# Velocity S-wave (km/s) = 15.56142 2.00612 11.09464
# Velocity P-wave (km/s) = 18.13326 3.54114 13.06436
#
# Compressibility (1/GPa) = 0.07513473
#
# Stress axis : x y z
#
# Youngs Moduli (GPa) = 28.47152 28.47152 96.21456
#
# Poissons Ratio (x) = 0.18157 -0.17439
# Poissons Ratio (y) = 0.18157 -0.17439
# Poissons Ratio (z) = -0.05161 -0.05161
#
# Static dielectric constant tensor:
#      x y z
#    x 1.839120 0.000000 0.000000 
#    y 0.000000 1.839120 0.000000 
#    z 0.000000 0.000000 1.883960 
# 
# From -- ./inp_files/3780.got.cif
#   From: 2010.05.17/outbox.cif.g08.bks.cpg/sg137_2_cif.got.tgz:3780.got - 2010.05.20 13:01:12.
