data_PCOD9570858
_publ_section_title
;
Structure prediction by ZEFSAII (Michael W. Deem and Ramdas Pophale) SiO2 
 PCOD9570858
Probable space group: P 42/N C M
;
_chemical_formula_sum "Si O2"
_cell_formula_units_Z 72
_cell_length_a 11.381288
_cell_length_b 11.381288
_cell_length_c 28.037677
_cell_angle_alpha 90.000000
_cell_angle_beta 90.000000
_cell_angle_gamma 90.000000
_cell_volume 3631.824505
_symmetry_space_group_name_H-M "P 42/N C M"
_symmetry_group_IT_number 138
_space_group.IT_coordinate_system_code '2'
_symmetry_cell_setting 'tetragonal'
loop_
_space_group_symop_operation_xyz
x,y,z
1/2-y,x,1/2+z
1/2-x,1/2-y,z
y,1/2-x,1/2+z
1/2+x,-y,1/2-z
-x,1/2+y,1/2-z
1/2+y,1/2+x,-z
-y,-x,-z
-x,-y,-z
1/2+y,-x,1/2-z
1/2+x,1/2+y,-z
-y,1/2+x,1/2-z
1/2-x,y,1/2+z
x,1/2-y,1/2+z
1/2-y,1/2-x,z
y,x,z
loop_
_atom_site_type_symbol
_atom_site_label
_atom_site_fract_x
_atom_site_fract_y
_atom_site_fract_z
Si Si1 0.188511 0.504768 0.376113
Si Si2 0.657379 0.842622 0.287880
Si Si3 0.681169 0.018880 0.028481
Si Si4 0.563802 0.253935 0.267699
Si Si5 0.348431 0.151570 0.518969
Si Si6 0.063790 0.063790 0.114517
O O1 0.287486 0.525593 0.415593
O O2 0.229241 0.541157 0.323432
O O3 0.127048 0.372952 0.376047
O O4 0.075698 0.582603 0.390652
O O5 0.750000 0.750000 0.307041
O O6 0.560428 0.777181 0.256550
O O7 0.595818 0.904183 0.332106
O O8 0.580103 0.919898 0.023668
O O9 0.631156 0.131156 0.000000
O O10 0.798898 0.966400 0.004623
O O11 0.645725 0.366898 0.256750
O O12 0.250000 0.250000 0.510673
O O13 0.367290 0.132710 0.574640
#
# Coordination Sequence:
#
# PCOD9570858 Si02
#       6
#    16   8  16  16   8   8
#     4  10  21  41  67  93 130 174 224 280 336 408
#     4  12  25  41  69 100 136 184 236 279 358 417
#     4  10  22  40  63  97 133 170 225 277 334 406
#     4  11  24  45  69  98 141 178 225 299 344 410
#     4  10  20  41  66  88 130 172 206 278 339 388
#     4  10  22  42  64  93 132 167 233 273 337 416
#
# _framework density 19.824746999999999
#
# number of rings (size 3 to 8) (size 9 to 14) (size 15 to 20)
#    0.667    0.889    3.333    1.000    3.111    3.556 
#    0.000    3.333    0.000    0.000    0.000    0.000 
#    0.000    0.000    0.000    0.000    0.000    0.000 
#
# Total GULP energy -401567.853746 kJ/mol
# GULP energy per Si atom -5577.331302 kJ/mol
# Density = 1.977962 g / cm^3
# Si number density = 19.824747 Si / 1000 Ang^3
#
#
#
# Elastic Constant Matrix: (Units=GPa)
#
#
# Indices 1 2 3 4 5 6 
#
# 1 53.3727 42.2175 31.1125 0.0000 0.0000 0.0000
# 2 42.2175 53.3727 31.1125 0.0000 0.0000 0.0000
# 3 31.1125 31.1125 133.5406 0.0000 0.0000 0.0000
# 4 0.0000 0.0000 0.0000 33.7989 0.0000 0.0000
# 5 0.0000 0.0000 0.0000 0.0000 33.7989 0.0000
# 6 0.0000 0.0000 0.0000 0.0000 0.0000 6.4601
#
#
#
# Elastic Compliance Matrix: (Units=1/GPa)
#
#
# Indices 1 2 3 4 5 6 
#
# 1 0.050988 -0.038656 -0.002873 0.000000 0.000000 0.000000
# 2 -0.038656 0.050988 -0.002873 0.000000 0.000000 0.000000
# 3 -0.002873 -0.002873 0.008827 0.000000 0.000000 0.000000
# 4 0.000000 0.000000 0.000000 0.029587 0.000000 0.000000
# 5 0.000000 0.000000 0.000000 0.000000 0.029587 0.000000
# 6 0.000000 0.000000 0.000000 0.000000 0.000000 0.154797
#
#
# Mechanical properties :
#
#
# Convention : Reuss Voigt Hill
#
# Bulk Modulus (GPa) = 45.45853 49.90789 47.68321
# Shear Modulus (GPa) = 11.87902 23.86780 17.87341
#
# Velocity S-wave (km/s) = 2.45052 3.47355 3.00587
# Velocity P-wave (km/s) = 5.56657 6.42780 6.01262
#
# Compressibility (1/GPa) = 0.02199807
#
# Stress axis : x y z
#
# Youngs Moduli (GPa) = 19.61254 19.61254 113.28766
#
# Poissons Ratio (x) = 0.75815 0.32548
# Poissons Ratio (y) = 0.75815 0.32548
# Poissons Ratio (z) = 0.05635 0.05635
#
# Static dielectric constant tensor:
#      x y z
#    x 1.715380 0.000000 0.000000 
#    y 0.000000 1.715380 0.000000 
#    z 0.000000 0.000000 1.666200 
# 
# From -- ./inp_files/7455.got.cif
#   From: 2010.05.17/outbox.cif.g08.bks.cpg/sg138_4_cif.got.tgz:7455.got - 2010.05.20 13:08:53.
