data_PCOD9570311
_publ_section_title
;
Structure prediction by ZEFSAII (Michael W. Deem and Ramdas Pophale) SiO2 
 PCOD9570311
Probable space group: P 42/N M C
;
_chemical_formula_sum "Si O2"
_cell_formula_units_Z 96
_cell_length_a 23.380219
_cell_length_b 23.380219
_cell_length_c 11.243926
_cell_angle_alpha 90.000000
_cell_angle_beta 90.000000
_cell_angle_gamma 90.000000
_cell_volume 6146.319447
_symmetry_space_group_name_H-M "P 42/N M C"
_symmetry_group_IT_number 137
_space_group.IT_coordinate_system_code '2'
_symmetry_cell_setting 'tetragonal'
loop_
_space_group_symop_operation_xyz
x,y,z
1/2-y,x,1/2+z
1/2-x,1/2-y,z
y,1/2-x,1/2+z
1/2+x,-y,-z
-x,1/2+y,-z
1/2+y,1/2+x,1/2-z
-y,-x,1/2-z
-x,-y,-z
1/2+y,-x,1/2-z
1/2+x,1/2+y,-z
-y,1/2+x,1/2-z
1/2-x,y,z
x,1/2-y,z
1/2-y,1/2-x,1/2+z
y,x,1/2+z
loop_
_atom_site_type_symbol
_atom_site_label
_atom_site_fract_x
_atom_site_fract_y
_atom_site_fract_z
Si Si1 0.983920 0.913454 0.437103
Si Si2 0.686077 0.998431 0.768468
Si Si3 0.640596 0.814964 0.258081
Si Si4 0.815347 0.498853 0.497037
Si Si5 0.969464 0.069076 0.126352
Si Si6 0.639613 0.872740 0.507613
O O1 0.012830 0.865867 0.354595
O O2 0.928343 0.886194 0.501636
O O3 0.029138 0.939144 0.528681
O O4 0.956558 0.966033 0.362524
O O5 0.750000 0.014312 0.810040
O O6 0.684519 0.929012 0.761292
O O7 0.678095 0.020442 0.634407
O O8 0.660411 0.750000 0.248803
O O9 0.656814 0.840226 0.386539
O O10 0.655999 0.846651 0.134783
O O11 0.750000 0.487978 0.459421
O O12 0.865941 0.473368 0.418045
O O13 0.827142 0.566976 0.500968
O O14 0.937812 0.062188 0.250000
#
# Coordination Sequence:
#
# PCOD9570311 Si02
#       6
#    16  16  16  16  16  16
#     4   9  19  28  46  71 102 125 157 199 244 295
#     4   8  15  29  48  68  93 126 163 195 236 287
#     4   9  17  30  47  67  90 121 164 206 244 288
#     4   9  18  32  49  67  90 127 164 198 240 293
#     4  10  21  29  44  71 104 132 158 193 245 300
#     4   9  17  29  51  68  91 123 160 203 245 293
#
# _framework density 15.619104
#
# number of rings (size 3 to 8) (size 9 to 14) (size 15 to 20)
#    0.000    3.000    0.000    1.500   14.000    0.000 
#    0.000    2.500    0.000    4.000    0.000    0.000 
#    0.000    2.333    0.000    7.333    0.000    0.833 
#
# Total GULP energy -534443.575308 kJ/mol
# GULP energy per Si atom -5567.120576 kJ/mol
# Density = 1.558355 g / cm^3
# Si number density = 15.619104 Si / 1000 Ang^3
#
#
#
# Elastic Constant Matrix: (Units=GPa)
#
#
# Indices 1 2 3 4 5 6 
#
# 1 60.8031 24.5291 33.7224 0.0000 0.0000 0.0000
# 2 24.5291 60.8024 33.7205 0.0000 0.0000 0.0000
# 3 33.7224 33.7205 71.0022 0.0000 0.0000 0.0000
# 4 0.0000 0.0000 0.0000 18.0928 0.0000 0.0000
# 5 0.0000 0.0000 0.0000 0.0000 18.0929 0.0000
# 6 0.0000 0.0000 0.0000 0.0000 0.0000 6.8442
#
#
#
# Elastic Compliance Matrix: (Units=1/GPa)
#
#
# Indices 1 2 3 4 5 6 
#
# 1 0.023165 -0.004403 -0.008911 0.000000 0.000000 0.000000
# 2 -0.004403 0.023165 -0.008910 0.000000 0.000000 0.000000
# 3 -0.008911 -0.008910 0.022548 0.000000 0.000000 0.000000
# 4 0.000000 0.000000 0.000000 0.055270 0.000000 0.000000
# 5 0.000000 0.000000 0.000000 0.000000 0.055270 0.000000
# 6 0.000000 0.000000 0.000000 0.000000 0.000000 0.146109
#
#
# Mechanical properties :
#
#
# Convention : Reuss Voigt Hill
#
# Bulk Modulus (GPa) = 40.93517 41.83906 41.38712
# Shear Modulus (GPa) = 13.22336 15.31504 14.26920
#
# Velocity S-wave (km/s) = 2.91282 3.13474 3.02582
# Velocity P-wave (km/s) = 6.13009 6.32040 6.22597
#
# Compressibility (1/GPa) = 0.02442887
#
# Stress axis : x y z
#
# Youngs Moduli (GPa) = 43.16845 43.16942 44.35015
#
# Poissons Ratio (x) = 0.19009 0.39520
# Poissons Ratio (y) = 0.19009 0.39516
# Poissons Ratio (z) = 0.38467 0.38464
#
# Static dielectric constant tensor:
#      x y z
#    x 1.523390 0.000000 0.000000 
#    y 0.000000 1.523390 0.000000 
#    z 0.000000 0.000000 1.545640 
# 
# From -- ./inp_files/3743.got.cif
#   From: 2010.05.17/outbox.cif.g08.bks.cpg/sg137_2_cif.got.tgz:3743.got - 2010.05.20 13:01:12.
