data_PCOD9570277
_publ_section_title
;
Structure prediction by ZEFSAII (Michael W. Deem and Ramdas Pophale) SiO2 
 PCOD9570277
Probable space group: P 42/N M C
;
_chemical_formula_sum "Si O2"
_cell_formula_units_Z 112
_cell_length_a 14.653786
_cell_length_b 14.653786
_cell_length_c 25.106119
_cell_angle_alpha 90.000000
_cell_angle_beta 90.000000
_cell_angle_gamma 90.000000
_cell_volume 5391.123402
_symmetry_space_group_name_H-M "P 42/N M C"
_symmetry_group_IT_number 137
_space_group.IT_coordinate_system_code '2'
_symmetry_cell_setting 'tetragonal'
loop_
_space_group_symop_operation_xyz
x,y,z
1/2-y,x,1/2+z
1/2-x,1/2-y,z
y,1/2-x,1/2+z
1/2+x,-y,-z
-x,1/2+y,-z
1/2+y,1/2+x,1/2-z
-y,-x,1/2-z
-x,-y,-z
1/2+y,-x,1/2-z
1/2+x,1/2+y,-z
-y,1/2+x,1/2-z
1/2-x,y,z
x,1/2-y,z
1/2-y,1/2-x,1/2+z
y,x,1/2+z
loop_
_atom_site_type_symbol
_atom_site_label
_atom_site_fract_x
_atom_site_fract_y
_atom_site_fract_z
Si Si1 0.856639 0.353765 0.603053
Si Si2 0.851146 0.855569 0.061770
Si Si3 0.908225 0.979037 0.968233
Si Si4 0.971673 0.860347 0.161442
Si Si5 0.859548 0.855607 0.760568
Si Si6 0.141411 0.469074 0.630591
Si Si7 0.146824 0.638762 0.810644
O O1 0.750000 0.372237 0.588168
O O2 0.862701 0.250000 0.621189
O O3 0.882691 0.423462 0.650122
O O4 0.926487 0.367877 0.554371
O O5 0.750000 0.854721 0.085634
O O6 0.873812 0.750000 0.047073
O O7 0.919987 0.887511 0.107346
O O8 0.852125 0.919784 0.010578
O O9 0.929749 0.915736 0.917729
O O10 0.000000 0.000000 0.000000
O O11 0.963579 0.750000 0.164020
O O12 0.922798 0.894352 0.214397
O O13 0.750000 0.865700 0.766750
O O14 0.876941 0.750000 0.744742
O O15 0.908164 0.870910 0.816673
O O16 0.250000 0.470511 0.618333
O O17 0.110698 0.571086 0.647030
O O18 0.117579 0.617579 0.750000
O O19 0.250000 0.605681 0.820269
O O20 0.149386 0.750000 0.811764
#
# Coordination Sequence:
#
# PCOD9570277 Si02
#       7
#    16  16  16  16  16  16  16
#     4  10  22  41  64  87 118 166 216 262 311 362
#     4  10  20  36  62  93 122 154 194 248 316 380
#     4  12  24  40  61  85 121 162 208 262 313 367
#     4   9  17  34  61  91 123 157 198 248 300 364
#     4   9  18  34  59  94 131 161 192 242 313 383
#     4  10  22  38  61  93 124 158 200 248 311 381
#     4   8  15  32  57  84 119 159 193 230 283 353
#
# _framework density 20.774891
#
# number of rings (size 3 to 8) (size 9 to 14) (size 15 to 20)
#    0.000    2.286    1.429    1.714    0.000    4.571 
#    0.000    2.857    0.000    4.286    0.000    4.000 
#    0.000    0.000    0.000    0.000    0.000    0.000 
#
# Total GULP energy -625594.623618 kJ/mol
# GULP energy per Si atom -5585.666282 kJ/mol
# Density = 2.072761 g / cm^3
# Si number density = 20.774891 Si / 1000 Ang^3
#
#
#
# Elastic Constant Matrix: (Units=GPa)
#
#
# Indices 1 2 3 4 5 6 
#
# 1 94.4305 39.4958 46.1941 0.0000 0.0000 0.0000
# 2 39.4958 94.4305 46.1941 0.0000 0.0000 0.0000
# 3 46.1941 46.1941 88.7827 0.0000 0.0000 0.0000
# 4 0.0000 0.0000 0.0000 22.4129 0.0000 0.0000
# 5 0.0000 0.0000 0.0000 0.0000 22.4129 0.0000
# 6 0.0000 0.0000 0.0000 0.0000 0.0000 11.9891
#
#
#
# Elastic Compliance Matrix: (Units=1/GPa)
#
#
# Indices 1 2 3 4 5 6 
#
# 1 0.014925 -0.003278 -0.006060 0.000000 0.000000 0.000000
# 2 -0.003278 0.014925 -0.006060 0.000000 0.000000 0.000000
# 3 -0.006060 -0.006060 0.017570 0.000000 0.000000 0.000000
# 4 0.000000 0.000000 0.000000 0.044617 0.000000 0.000000
# 5 0.000000 0.000000 0.000000 0.000000 0.044617 0.000000
# 6 0.000000 0.000000 0.000000 0.000000 0.000000 0.083409
#
#
# Mechanical properties :
#
#
# Convention : Reuss Voigt Hill
#
# Bulk Modulus (GPa) = 60.15492 60.15685 60.15589
# Shear Modulus (GPa) = 19.50064 21.08032 20.29048
#
# Velocity S-wave (km/s) = 3.06709 3.18889 3.12858
# Velocity P-wave (km/s) = 6.44679 6.52519 6.48611
#
# Compressibility (1/GPa) = 0.01662374
#
# Stress axis : x y z
#
# Youngs Moduli (GPa) = 66.99992 66.99992 56.91600
#
# Poissons Ratio (x) = 0.21963 0.34492
# Poissons Ratio (y) = 0.21963 0.34492
# Poissons Ratio (z) = 0.40603 0.40603
#
# Static dielectric constant tensor:
#      x y z
#    x 1.782310 0.000000 0.000000 
#    y 0.000000 1.782310 0.000000 
#    z 0.000000 0.000000 1.687520 
# 
# From -- ./inp_files/8999.got.cif
#   From: 2010.05.17/outbox.cif.g08.bks.cpg/sg137_5_cif.got.tgz:8999.got - 2010.05.20 13:01:12.
