data_PCOD9570189
_publ_section_title
;
Structure prediction by ZEFSAII (Michael W. Deem and Ramdas Pophale) SiO2 
 PCOD9570189
Probable space group: P 42/N M C
;
_chemical_formula_sum "Si O2"
_cell_formula_units_Z 112
_cell_length_a 14.595663
_cell_length_b 14.595663
_cell_length_c 26.409022
_cell_angle_alpha 90.000000
_cell_angle_beta 90.000000
_cell_angle_gamma 90.000000
_cell_volume 5626.003177
_symmetry_space_group_name_H-M "P 42/N M C"
_symmetry_group_IT_number 137
_space_group.IT_coordinate_system_code '2'
_symmetry_cell_setting 'tetragonal'
loop_
_space_group_symop_operation_xyz
x,y,z
1/2-y,x,1/2+z
1/2-x,1/2-y,z
y,1/2-x,1/2+z
1/2+x,-y,-z
-x,1/2+y,-z
1/2+y,1/2+x,1/2-z
-y,-x,1/2-z
-x,-y,-z
1/2+y,-x,1/2-z
1/2+x,1/2+y,-z
-y,1/2+x,1/2-z
1/2-x,y,z
x,1/2-y,z
1/2-y,1/2-x,1/2+z
y,x,1/2+z
loop_
_atom_site_type_symbol
_atom_site_label
_atom_site_fract_x
_atom_site_fract_y
_atom_site_fract_z
Si Si1 0.503706 0.646050 0.994198
Si Si2 0.852393 0.359079 0.090978
Si Si3 0.641726 0.856699 0.838428
Si Si4 0.400721 0.854277 0.097041
Si Si5 0.454043 0.346885 0.555551
Si Si6 0.541909 0.040517 0.695975
Si Si7 0.053984 0.642488 0.701211
O O1 0.535407 0.750000 0.981342
O O2 0.421024 0.624732 0.955207
O O3 0.576518 0.568125 0.984274
O O4 0.475345 0.648955 0.052474
O O5 0.750000 0.390387 0.076991
O O6 0.850623 0.250000 0.097765
O O7 0.874646 0.399491 0.146240
O O8 0.750000 0.863286 0.824261
O O9 0.612368 0.750000 0.830275
O O10 0.636727 0.884394 0.897639
O O11 0.583675 0.939948 0.813928
O O12 0.362041 0.750000 0.099542
O O13 0.436604 0.888908 0.151036
O O14 0.345353 0.943411 0.077704
O O15 0.432941 0.250000 0.532068
O O16 0.576047 0.076047 0.750000
O O17 0.527476 0.931338 0.701585
O O18 0.116590 0.616590 0.750000
O O19 0.030147 0.750000 0.704163
#
# Coordination Sequence:
#
# PCOD9570189 Si02
#       7
#    16  16  16  16  16  16  16
#     4  10  20  35  57  84 116 152 189 233 285 341
#     4   9  17  29  48  77 112 150 188 221 261 321
#     4   9  18  34  57  84 110 136 176 235 294 341
#     4  10  22  40  59  80 111 151 195 244 295 343
#     4  10  20  34  56  86 116 148 186 228 280 342
#     4  10  22  38  58  81 107 146 192 238 290 347
#     4  10  20  33  51  78 115 155 191 227 269 324
#
# _framework density 19.907558999999999
#
# number of rings (size 3 to 8) (size 9 to 14) (size 15 to 20)
#    0.000    2.286    0.000    3.000    0.000    7.000 
#    0.000    3.571    0.000    1.286    0.000    2.000 
#    0.000    0.000    0.000    0.000    0.000    0.000 
#
# Total GULP energy -623939.479808 kJ/mol
# GULP energy per Si atom -5570.888213 kJ/mol
# Density = 1.986225 g / cm^3
# Si number density = 19.907559 Si / 1000 Ang^3
#
#
#
# Elastic Constant Matrix: (Units=GPa)
#
#
# Indices 1 2 3 4 5 6 
#
# 1 51.0231 48.6539 46.7108 0.0000 0.0000 0.0000
# 2 48.6539 51.0231 46.7108 0.0000 0.0000 0.0000
# 3 46.7108 46.7108 116.2568 0.0000 0.0000 0.0000
# 4 0.0000 0.0000 0.0000 -40.5322 0.0000 0.0000
# 5 0.0000 0.0000 0.0000 0.0000 -40.5322 0.0000
# 6 0.0000 0.0000 0.0000 0.0000 0.0000 -5.6537
#
#
#
# Elastic Compliance Matrix: (Units=1/GPa)
#
#
# Indices 1 2 3 4 5 6 
#
# 1 0.219082 -0.202990 -0.006466 0.000000 0.000000 0.000000
# 2 -0.202990 0.219082 -0.006466 0.000000 0.000000 0.000000
# 3 -0.006466 -0.006466 0.013797 0.000000 0.000000 0.000000
# 4 0.000000 0.000000 0.000000 -0.024672 0.000000 0.000000
# 5 0.000000 0.000000 0.000000 0.000000 -0.024672 0.000000
# 6 0.000000 0.000000 0.000000 0.000000 0.000000 -0.176874
#
#
# Mechanical properties :
#
#
# Convention : Reuss Voigt Hill
#
# Bulk Modulus (GPa) = 49.70389 55.82823 52.76606
# Shear Modulus (GPa) = 7.52681 -12.26177 -2.36748
#
# Velocity S-wave (km/s) = 1.94656 -2.48450 -1.09170
# Velocity P-wave (km/s) = 5.48395 4.45806 4.99740
#
# Compressibility (1/GPa) = 0.02011915
#
# Stress axis : x y z
#
# Youngs Moduli (GPa) = 4.56450 4.56450 72.47740
#
# Poissons Ratio (x) = 0.92655 0.46862
# Poissons Ratio (y) = 0.92655 0.46862
# Poissons Ratio (z) = 0.02951 0.02951
#
# Static dielectric constant tensor:
#      x y z
#    x 1.709150 0.000000 0.000000 
#    y 0.000000 1.709150 0.000000 
#    z 0.000000 0.000000 1.722020 
# 
# From -- ./inp_files/8929.got.cif
#   From: 2010.05.17/outbox.cif.g08.bks.cpg/sg137_5_cif.got.tgz:8929.got - 2010.05.20 13:01:12.
