data_PCOD9570667
_publ_section_title
;
Structure prediction by ZEFSAII (Michael W. Deem and Ramdas Pophale) SiO2 
 PCOD9570667
Probable space group: P 42/N C M
;
_chemical_formula_sum "Si O2"
_cell_formula_units_Z 88
_cell_length_a 17.673492
_cell_length_b 17.673492
_cell_length_c 16.737039
_cell_angle_alpha 90.000000
_cell_angle_beta 90.000000
_cell_angle_gamma 90.000000
_cell_volume 5227.852953
_symmetry_space_group_name_H-M "P 42/N C M"
_symmetry_group_IT_number 138
_space_group.IT_coordinate_system_code '2'
_symmetry_cell_setting 'tetragonal'
loop_
_space_group_symop_operation_xyz
x,y,z
1/2-y,x,1/2+z
1/2-x,1/2-y,z
y,1/2-x,1/2+z
1/2+x,-y,1/2-z
-x,1/2+y,1/2-z
1/2+y,1/2+x,-z
-y,-x,-z
-x,-y,-z
1/2+y,-x,1/2-z
1/2+x,1/2+y,-z
-y,1/2+x,1/2-z
1/2-x,y,1/2+z
x,1/2-y,1/2+z
1/2-y,1/2-x,z
y,x,z
loop_
_atom_site_type_symbol
_atom_site_label
_atom_site_fract_x
_atom_site_fract_y
_atom_site_fract_z
Si Si1 0.037283 0.462718 0.149395
Si Si2 0.704602 0.924459 0.425379
Si Si3 0.589592 0.589592 0.649624
Si Si4 0.884420 0.012269 0.046946
Si Si5 0.370088 0.370088 0.528811
Si Si6 0.311929 0.519196 0.237933
Si Si7 0.360432 0.945780 0.270401
O O1 0.071777 0.428224 0.069732
O O2 0.102227 0.499774 0.204296
O O3 0.974099 0.525902 0.132554
O O4 0.643045 0.856956 0.421356
O O5 0.787357 0.891095 0.438497
O O6 0.686524 0.977141 0.501594
O O7 0.693892 0.976182 0.347037
O O8 0.622650 0.622650 0.567142
O O9 0.544151 0.653091 0.701390
O O10 0.873896 0.026320 0.139653
O O11 0.914182 0.085819 0.000000
O O12 0.949719 0.949719 0.038518
O O13 0.229380 0.551631 0.258452
O O14 0.369079 0.590419 0.236210
#
# Coordination Sequence:
#
# PCOD9570667 Si02
#       7
#     8  16   8  16   8  16  16
#     4  10  21  35  61  86 111 149 207 235 280 348
#     4  11  22  37  59  89 121 155 191 243 296 353
#     4  10  23  39  60  86 115 156 192 253 278 350
#     4  10  19  32  60  89 113 142 196 255 286 333
#     4  12  22  40  58  83 125 162 190 227 308 356
#     4  11  22  38  62  86 121 152 202 243 296 346
#     4  11  21  38  58  91 115 155 195 246 296 349
#
# _framework density 16.832915
#
# number of rings (size 3 to 8) (size 9 to 14) (size 15 to 20)
#    0.000    1.273    5.455    1.636    0.000    0.364 
#    0.000    0.000    2.000    0.000    0.000    0.000 
#    0.000    0.000    0.000    0.000    0.000    0.000 
#
# Total GULP energy -490737.862790 kJ/mol
# GULP energy per Si atom -5576.566623 kJ/mol
# Density = 1.679460 g / cm^3
# Si number density = 16.832915 Si / 1000 Ang^3
#
#
#
# Elastic Constant Matrix: (Units=GPa)
#
#
# Indices 1 2 3 4 5 6 
#
# 1 103.6338 42.5332 24.5088 0.0000 0.0000 0.0000
# 2 42.5332 103.6326 24.5071 0.0000 0.0000 0.0000
# 3 24.5088 24.5071 78.2308 0.0000 0.0000 0.0000
# 4 0.0000 0.0000 0.0000 13.9467 0.0000 0.0000
# 5 0.0000 0.0000 0.0000 0.0000 13.9372 0.0000
# 6 0.0000 0.0000 0.0000 0.0000 0.0000 15.7901
#
#
#
# Elastic Compliance Matrix: (Units=1/GPa)
#
#
# Indices 1 2 3 4 5 6 
#
# 1 0.012006 -0.004361 -0.002395 0.000000 0.000000 0.000000
# 2 -0.004361 0.012006 -0.002395 0.000000 0.000000 0.000000
# 3 -0.002395 -0.002395 0.014283 0.000000 0.000000 0.000000
# 4 0.000000 0.000000 0.000000 0.071701 0.000000 0.000000
# 5 0.000000 0.000000 0.000000 0.000000 0.071750 0.000000
# 6 0.000000 0.000000 0.000000 0.000000 0.000000 0.063331
#
#
# Mechanical properties :
#
#
# Convention : Reuss Voigt Hill
#
# Bulk Modulus (GPa) = 50.01772 52.06615 51.04194
# Shear Modulus (GPa) = 18.51557 21.66468 20.09012
#
# Velocity S-wave (km/s) = 3.32017 3.59143 3.45846
# Velocity P-wave (km/s) = 6.66909 6.94234 6.80709
#
# Compressibility (1/GPa) = 0.01999291
#
# Stress axis : x y z
#
# Youngs Moduli (GPa) = 83.29439 83.29434 70.01227
#
# Poissons Ratio (x) = 0.36325 0.16768
# Poissons Ratio (y) = 0.36325 0.16766
# Poissons Ratio (z) = 0.19950 0.19947
#
# Static dielectric constant tensor:
#      x y z
#    x 1.561970 0.000000 0.000000 
#    y 0.000000 1.561970 0.000000 
#    z 0.000000 0.000000 1.552750 
# 
# From -- ./inp_files/4251.got.cif
#   From: 2010.05.17/outbox.cif.g08.bks.cpg/sg138_3_cif.got.tgz:4251.got - 2010.05.20 13:08:53.
