data_PCOD9570042
_publ_section_title
;
Structure prediction by ZEFSAII (Michael W. Deem and Ramdas Pophale) SiO2 
 PCOD9570042
Probable space group: P 42/N M C
;
_chemical_formula_sum "Si O2"
_cell_formula_units_Z 112
_cell_length_a 14.188678
_cell_length_b 14.188678
_cell_length_c 31.413176
_cell_angle_alpha 90.000000
_cell_angle_beta 90.000000
_cell_angle_gamma 90.000000
_cell_volume 6324.056092
_symmetry_space_group_name_H-M "P 42/N M C"
_symmetry_group_IT_number 137
_space_group.IT_coordinate_system_code '2'
_symmetry_cell_setting 'tetragonal'
loop_
_space_group_symop_operation_xyz
x,y,z
1/2-y,x,1/2+z
1/2-x,1/2-y,z
y,1/2-x,1/2+z
1/2+x,-y,-z
-x,1/2+y,-z
1/2+y,1/2+x,1/2-z
-y,-x,1/2-z
-x,-y,-z
1/2+y,-x,1/2-z
1/2+x,1/2+y,-z
-y,1/2+x,1/2-z
1/2-x,y,z
x,1/2-y,z
1/2-y,1/2-x,1/2+z
y,x,1/2+z
loop_
_atom_site_type_symbol
_atom_site_label
_atom_site_fract_x
_atom_site_fract_y
_atom_site_fract_z
Si Si1 0.137034 0.475908 0.339034
Si Si2 0.506771 0.637958 0.320770
Si Si3 0.635249 0.641935 0.578422
Si Si4 0.362237 0.041589 0.508509
Si Si5 0.856914 0.356700 0.540322
Si Si6 0.142818 0.454350 0.085607
Si Si7 0.136122 0.143340 0.255900
O O1 0.250000 0.490520 0.340186
O O2 0.083250 0.571019 0.326245
O O3 0.106646 0.429413 0.383986
O O4 0.115361 0.400021 0.302023
O O5 0.483575 0.750000 0.316950
O O6 0.564066 0.626759 0.364974
O O7 0.570845 0.607529 0.281073
O O8 0.750000 0.641859 0.578862
O O9 0.604928 0.750000 0.585476
O O10 0.606139 0.604362 0.531985
O O11 0.250000 0.053365 0.512472
O O12 0.408729 0.073111 0.552060
O O13 0.380800 0.934259 0.494779
O O14 0.750000 0.376384 0.555323
O O15 0.859966 0.250000 0.523589
O O16 0.933110 0.362016 0.577570
O O17 0.250000 0.424796 0.074626
O O18 0.250000 0.147886 0.252915
O O19 0.100064 0.250000 0.250883
#
# Coordination Sequence:
#
# PCOD9570042 Si02
#       7
#    16  16  16  16  16  16  16
#     4  10  19  32  52  76 102 132 165 202 245 294
#     4  10  21  34  49  74 105 135 166 198 236 290
#     4   9  17  29  46  71 101 130 165 211 257 296
#     4  10  19  31  49  72  98 129 166 210 256 299
#     4   9  18  32  48  66  91 127 170 209 246 294
#     4  10  20  32  47  68  97 134 170 202 240 290
#     4   9  18  34  54  73  96 128 163 200 242 284
#
# _framework density 17.710152000000001
#
# number of rings (size 3 to 8) (size 9 to 14) (size 15 to 20)
#    0.000    2.429    0.000    2.571    0.000    5.143 
#    0.000    2.857    0.000    3.429    0.000    0.000 
#    0.000    9.714    0.000    0.000    0.000    0.000 
#
# Total GULP energy -624638.297399 kJ/mol
# GULP energy per Si atom -5577.127655 kJ/mol
# Density = 1.766984 g / cm^3
# Si number density = 17.710152 Si / 1000 Ang^3
#
#
#
# Elastic Constant Matrix: (Units=GPa)
#
#
# Indices 1 2 3 4 5 6 
#
# 1 59.1116 23.0008 17.1873 0.0000 0.0000 0.0000
# 2 23.0008 59.1116 17.1873 0.0000 0.0000 0.0000
# 3 17.1873 17.1873 63.5978 0.0000 0.0000 0.0000
# 4 0.0000 0.0000 0.0000 16.5379 0.0000 0.0000
# 5 0.0000 0.0000 0.0000 0.0000 16.5379 0.0000
# 6 0.0000 0.0000 0.0000 0.0000 0.0000 10.8392
#
#
#
# Elastic Compliance Matrix: (Units=1/GPa)
#
#
# Indices 1 2 3 4 5 6 
#
# 1 0.020712 -0.006980 -0.003711 0.000000 0.000000 0.000000
# 2 -0.006980 0.020712 -0.003711 0.000000 0.000000 0.000000
# 3 -0.003711 -0.003711 0.017730 0.000000 0.000000 0.000000
# 4 0.000000 0.000000 0.000000 0.060467 0.000000 0.000000
# 5 0.000000 0.000000 0.000000 0.000000 0.060467 0.000000
# 6 0.000000 0.000000 0.000000 0.000000 0.000000 0.092258
#
#
# Mechanical properties :
#
#
# Convention : Reuss Voigt Hill
#
# Bulk Modulus (GPa) = 32.94966 32.95244 32.95105
# Shear Modulus (GPa) = 16.06334 17.07935 16.57134
#
# Velocity S-wave (km/s) = 3.01493 3.10882 3.06224
# Velocity P-wave (km/s) = 5.54663 5.61545 5.58115
#
# Compressibility (1/GPa) = 0.03034933
#
# Stress axis : x y z
#
# Youngs Moduli (GPa) = 48.28056 48.28056 56.40267
#
# Poissons Ratio (x) = 0.33701 0.20931
# Poissons Ratio (y) = 0.33701 0.20931
# Poissons Ratio (z) = 0.17917 0.17917
#
# Static dielectric constant tensor:
#      x y z
#    x 1.621940 0.000000 0.000000 
#    y 0.000000 1.621940 0.000000 
#    z 0.000000 0.000000 1.599850 
# 
# From -- ./inp_files/9815.got.cif
#   From: 2010.05.17/outbox.cif.g08.bks.cpg/sg137_5_cif.got.tgz:9815.got - 2010.05.20 13:01:12.
