data_PCOD9570549
_publ_section_title
;
Structure prediction by ZEFSAII (Michael W. Deem and Ramdas Pophale) SiO2 
 PCOD9570549
Probable space group: P 42/N M C
;
_chemical_formula_sum "Si O2"
_cell_formula_units_Z 96
_cell_length_a 15.000000
_cell_length_b 15.000000
_cell_length_c 21.000000
_cell_angle_alpha 90.000000
_cell_angle_beta 90.000000
_cell_angle_gamma 90.000000
_cell_volume 4725.000000
_symmetry_space_group_name_H-M "P 42/N M C"
_symmetry_group_IT_number 137
_space_group.IT_coordinate_system_code '2'
_symmetry_cell_setting 'tetragonal'
loop_
_space_group_symop_operation_xyz
x,y,z
1/2-y,x,1/2+z
1/2-x,1/2-y,z
y,1/2-x,1/2+z
1/2+x,-y,-z
-x,1/2+y,-z
1/2+y,1/2+x,1/2-z
-y,-x,1/2-z
-x,-y,-z
1/2+y,-x,1/2-z
1/2+x,1/2+y,-z
-y,1/2+x,1/2-z
1/2-x,y,z
x,1/2-y,z
1/2-y,1/2-x,1/2+z
y,x,1/2+z
loop_
_atom_site_type_symbol
_atom_site_label
_atom_site_fract_x
_atom_site_fract_y
_atom_site_fract_z
Si Si1 0.049886 0.499606 0.318201
Si Si2 0.531120 0.153173 0.580209
Si Si3 0.854955 0.850569 0.617404
Si Si4 0.651533 0.402222 0.180912
Si Si5 0.886947 0.151766 0.039364
Si Si6 0.401002 0.147053 0.024836
O O1 0.057121 0.572300 0.373721
O O2 0.122261 0.422791 0.329440
O O3 0.046474 0.546474 0.250000
O O4 0.962293 0.437196 0.322928
O O5 0.553721 0.250000 0.607406
O O6 0.578987 0.144952 0.511448
O O7 0.425162 0.145951 0.568776
O O8 0.750000 0.845787 0.613235
O O9 0.887657 0.750000 0.626983
O O10 0.884422 0.885269 0.547969
O O11 0.645136 0.354865 0.250000
O O12 0.750000 0.444674 0.183089
O O13 0.647242 0.354923 0.111871
O O14 0.863420 0.250000 0.014374
O O15 0.994192 0.144679 0.039695
O O16 0.370688 0.250000 0.031462
#
# Coordination Sequence:
#
# PCOD9570549 Si02
#       6
#    16  16  16  16  16  16
#     4  11  24  42  60  85 123 165 212 263 322 374
#     4  12  24  40  63  91 124 164 212 260 315 377
#     4  10  20  37  65  95 121 159 211 264 318 376
#     4  11  23  39  61  89 126 169 208 248 304 376
#     4  11  22  39  64  93 129 167 205 254 312 373
#     4  10  20  38  64  92 126 161 199 257 318 368
#
# _framework density 20.317460000000001
#
# number of rings (size 3 to 8) (size 9 to 14) (size 15 to 20)
#    0.000    1.167    3.333    3.500    0.000    3.833 
#    0.000    0.833    0.000    0.000    0.000    1.167 
#    0.000    0.000    0.000    0.000    0.000    0.000 
#
# Total GULP energy -535026.199286 kJ/mol
# GULP energy per Si atom -5573.189576 kJ/mol
# Density = 2.027122 g / cm^3
# Si number density = 20.317460 Si / 1000 Ang^3
#
#
#
# Elastic Constant Matrix: (Units=GPa)
#
#
# Indices 1 2 3 4 5 6 
#
# 1 83.1685 42.5464 43.4739 0.0000 0.0000 0.0000
# 2 42.5464 83.1684 43.4739 0.0000 0.0000 0.0000
# 3 43.4739 43.4739 107.3091 0.0000 0.0000 0.0000
# 4 0.0000 0.0000 0.0000 42.7412 0.0000 0.0000
# 5 0.0000 0.0000 0.0000 0.0000 42.7313 0.0000
# 6 0.0000 0.0000 0.0000 0.0000 0.0000 31.6927
#
#
#
# Elastic Compliance Matrix: (Units=1/GPa)
#
#
# Indices 1 2 3 4 5 6 
#
# 1 0.017834 -0.006783 -0.004477 0.000000 0.000000 0.000000
# 2 -0.006783 0.017834 -0.004477 0.000000 0.000000 0.000000
# 3 -0.004477 -0.004477 0.012946 0.000000 0.000000 0.000000
# 4 0.000000 0.000000 0.000000 0.023397 0.000000 0.000000
# 5 0.000000 0.000000 0.000000 0.000000 0.023402 0.000000
# 6 0.000000 0.000000 0.000000 0.000000 0.000000 0.031553
#
#
# Mechanical properties :
#
#
# Convention : Reuss Voigt Hill
#
# Bulk Modulus (GPa) = 58.34259 59.18163 58.76211
# Shear Modulus (GPa) = 30.45920 33.04316 31.75118
#
# Velocity S-wave (km/s) = 3.87610 4.03717 3.95746
# Velocity P-wave (km/s) = 6.98642 7.13606 7.06164
#
# Compressibility (1/GPa) = 0.01714014
#
# Stress axis : x y z
#
# Youngs Moduli (GPa) = 56.07250 56.07244 77.24129
#
# Poissons Ratio (x) = 0.38035 0.34581
# Poissons Ratio (y) = 0.38035 0.34581
# Poissons Ratio (z) = 0.25104 0.25104
#
# Static dielectric constant tensor:
#      x y z
#    x 1.788500 0.000000 0.000000 
#    y 0.000000 1.788500 0.000000 
#    z 0.000000 0.000000 1.700390 
# 
# From -- ./inp_files/7850.got.cif
#   From: 2010.05.17/outbox.ucp.g08.bks.cvg/sg137_4_cif.got.tgz:7850.got - 2010.06.11 11:41:14.
