data_PCOD9570454
_publ_section_title
;
Structure prediction by ZEFSAII (Michael W. Deem and Ramdas Pophale) SiO2 
 PCOD9570454
Probable space group: P 42/N M C
;
_chemical_formula_sum "Si O2"
_cell_formula_units_Z 34
_cell_length_a 12.401600
_cell_length_b 12.401600
_cell_length_c 10.648357
_cell_angle_alpha 90.000000
_cell_angle_beta 90.000000
_cell_angle_gamma 90.000000
_cell_volume 1637.713926
_symmetry_space_group_name_H-M "P 42/N M C"
_symmetry_group_IT_number 137
_space_group.IT_coordinate_system_code '2'
_symmetry_cell_setting 'tetragonal'
loop_
_space_group_symop_operation_xyz
x,y,z
1/2-y,x,1/2+z
1/2-x,1/2-y,z
y,1/2-x,1/2+z
1/2+x,-y,-z
-x,1/2+y,-z
1/2+y,1/2+x,1/2-z
-y,-x,1/2-z
-x,-y,-z
1/2+y,-x,1/2-z
1/2+x,1/2+y,-z
-y,1/2+x,1/2-z
1/2-x,y,z
x,1/2-y,z
1/2-y,1/2-x,1/2+z
y,x,1/2+z
loop_
_atom_site_type_symbol
_atom_site_label
_atom_site_fract_x
_atom_site_fract_y
_atom_site_fract_z
Si Si1 0.250000 0.750000 0.250000
Si Si2 0.750000 0.878556 0.710721
Si Si3 0.873542 0.986335 0.156643
Si Si4 0.544478 0.250000 0.571857
O O1 0.250000 0.645592 0.161998
O O2 0.750000 0.750000 0.724730
O O3 0.638048 0.907762 0.643521
O O4 0.750000 0.937667 0.844154
O O5 0.750000 0.987061 0.210169
O O6 0.950948 0.049053 0.250000
O O7 0.853132 0.040138 0.021139
#
# Coordination Sequence:
#
# PCOD9570454 Si02
#       4
#     2   8  16   8
#     4  12  28  48  58 112 136 180 228 294 360 384
#     4  10  22  44  65 104 133 173 230 274 353 396
#     4   9  22  42  70 100 131 186 225 276 339 410
#     4  10  26  43  70  97 146 177 225 298 330 421
#
# _framework density 20.760646000000001
#
# number of rings (size 3 to 8) (size 9 to 14) (size 15 to 20)
#    1.412    0.941    0.000    0.000    9.882    2.353 
#    0.000    0.000    0.000    0.000    0.000    0.000 
#    0.000    0.000    0.000    0.000    0.000    0.000 
#
# Total GULP energy -189548.961900 kJ/mol
# GULP energy per Si atom -5574.969468 kJ/mol
# Density = 2.071339 g / cm^3
# Si number density = 20.760646 Si / 1000 Ang^3
#
#
#
# Elastic Constant Matrix: (Units=GPa)
#
#
# Indices 1 2 3 4 5 6 
#
# 1 76.4830 70.9873 57.5898 0.0000 0.0000 0.0000
# 2 70.9873 76.4802 57.5898 0.0000 0.0000 0.0000
# 3 57.5898 57.5898 126.2527 0.0000 0.0000 0.0000
# 4 0.0000 0.0000 0.0000 34.4879 0.0000 0.0000
# 5 0.0000 0.0000 0.0000 0.0000 34.4869 0.0000
# 6 0.0000 0.0000 0.0000 0.0000 0.0000 22.0290
#
#
#
# Elastic Compliance Matrix: (Units=1/GPa)
#
#
# Indices 1 2 3 4 5 6 
#
# 1 0.096268 -0.085736 -0.004804 0.000000 0.000000 0.000000
# 2 -0.085736 0.096273 -0.004806 0.000000 0.000000 0.000000
# 3 -0.004804 -0.004806 0.012304 0.000000 0.000000 0.000000
# 4 0.000000 0.000000 0.000000 0.028996 0.000000 0.000000
# 5 0.000000 0.000000 0.000000 0.000000 0.028997 0.000000
# 6 0.000000 0.000000 0.000000 0.000000 0.000000 0.045395
#
#
# Mechanical properties :
#
#
# Convention : Reuss Voigt Hill
#
# Bulk Modulus (GPa) = 70.66102 72.39440 71.52771
# Shear Modulus (GPa) = 9.92768 24.40403 17.16586
#
# Velocity S-wave (km/s) = 2.18914 3.43227 2.87861
# Velocity P-wave (km/s) = 6.36394 7.11716 6.75106
#
# Compressibility (1/GPa) = 0.01415207
#
# Stress axis : x y z
#
# Youngs Moduli (GPa) = 10.38770 10.38713 81.27253
#
# Poissons Ratio (x) = 0.89055 0.39042
# Poissons Ratio (y) = 0.89060 0.39062
# Poissons Ratio (z) = 0.04990 0.04992
#
# Static dielectric constant tensor:
#      x y z
#    x 1.750430 0.000000 0.000000 
#    y 0.000000 1.750430 0.000000 
#    z 0.000000 0.000000 1.713230 
# 
# From -- ./inp_files/2742.got.cif
#   From: 2010.05.17/outbox.cif.g08.bks.cpg/sg137_2_cif.got.tgz:2742.got - 2010.05.20 13:01:12.
