data_PCOD9570576
_publ_section_title
;
Structure prediction by ZEFSAII (Michael W. Deem and Ramdas Pophale) SiO2 
 PCOD9570576
Probable space group: P 42/N C M
;
_chemical_formula_sum "Si O2"
_cell_formula_units_Z 80
_cell_length_a 23.997489
_cell_length_b 23.997489
_cell_length_c 7.360097
_cell_angle_alpha 90.000000
_cell_angle_beta 90.000000
_cell_angle_gamma 90.000000
_cell_volume 4238.528821
_symmetry_space_group_name_H-M "P 42/N C M"
_symmetry_group_IT_number 138
_space_group.IT_coordinate_system_code '2'
_symmetry_cell_setting 'tetragonal'
loop_
_space_group_symop_operation_xyz
x,y,z
1/2-y,x,1/2+z
1/2-x,1/2-y,z
y,1/2-x,1/2+z
1/2+x,-y,1/2-z
-x,1/2+y,1/2-z
1/2+y,1/2+x,-z
-y,-x,-z
-x,-y,-z
1/2+y,-x,1/2-z
1/2+x,1/2+y,-z
-y,1/2+x,1/2-z
1/2-x,y,1/2+z
x,1/2-y,1/2+z
1/2-y,1/2-x,z
y,x,z
loop_
_atom_site_type_symbol
_atom_site_label
_atom_site_fract_x
_atom_site_fract_y
_atom_site_fract_z
Si Si1 0.817639 0.306240 0.772628
Si Si2 0.926118 0.489126 0.778370
Si Si3 0.899229 0.984841 0.862131
Si Si4 0.570293 0.319513 0.663806
Si Si5 0.698125 0.060137 0.409597
O O1 0.812666 0.241716 0.839301
O O2 0.813391 0.364666 0.881739
O O3 0.879549 0.310123 0.685683
O O4 0.960668 0.539333 0.868556
O O5 0.904830 0.511180 0.582252
O O6 0.875575 0.461705 0.888113
O O7 0.819376 0.430702 0.617236
O O8 0.924271 0.924271 0.810728
O O9 0.941621 0.029982 0.777465
O O10 0.838915 0.010987 0.823700
O O11 0.543893 0.262719 0.594337
#
# Coordination Sequence:
#
# PCOD9570576 Si02
#       5
#    16  16  16  16  16
#     4   9  17  28  40  53  75 107 144 173 199 221
#     4   8  13  23  42  62  77  99 134 171 202 234
#     4   8  13  23  42  62  77  99 134 171 202 234
#     4  10  18  29  43  60  83 105 135 172 206 238
#     4  10  18  29  43  60  83 105 135 172 206 238
#
# _framework density 18.874472999999998
#
# number of rings (size 3 to 8) (size 9 to 14) (size 15 to 20)
#    0.000    3.000    2.000    1.800    0.000    0.000 
#    0.000   41.000    0.000    1.200    0.000    2.800 
#    0.000    0.800    0.000   10.000    0.000    0.000 
#
# Total GULP energy -445614.763738 kJ/mol
# GULP energy per Si atom -5570.184547 kJ/mol
# Density = 1.883151 g / cm^3
# Si number density = 18.874473 Si / 1000 Ang^3
#
#
#
# Elastic Constant Matrix: (Units=GPa)
#
#
# Indices 1 2 3 4 5 6 
#
# 1 112.5952 88.6393 7.1436 0.0000 0.0000 0.0000
# 2 88.6393 112.5952 7.1436 0.0000 0.0000 0.0000
# 3 7.1436 7.1436 34.9749 0.0000 0.0000 0.0000
# 4 0.0000 0.0000 0.0000 -29.2615 0.0000 0.0000
# 5 0.0000 0.0000 0.0000 0.0000 -29.2615 0.0000
# 6 0.0000 0.0000 0.0000 0.0000 0.0000 35.0144
#
#
#
# Elastic Compliance Matrix: (Units=1/GPa)
#
#
# Indices 1 2 3 4 5 6 
#
# 1 0.023393 -0.018350 -0.001030 0.000000 0.000000 0.000000
# 2 -0.018350 0.023393 -0.001030 0.000000 0.000000 0.000000
# 3 -0.001030 -0.001030 0.029013 0.000000 0.000000 0.000000
# 4 0.000000 0.000000 0.000000 -0.034175 0.000000 0.000000
# 5 0.000000 0.000000 0.000000 0.000000 -0.034175 0.000000
# 6 0.000000 0.000000 0.000000 0.000000 0.000000 0.028560
#
#
# Mechanical properties :
#
#
# Convention : Reuss Voigt Hill
#
# Bulk Modulus (GPa) = 28.58951 51.77980 40.18466
# Shear Modulus (GPa) = 56.50429 5.78086 31.14258
#
# Velocity S-wave (km/s) = 5.47740 1.75198 4.06641
# Velocity P-wave (km/s) = 7.42850 5.62014 6.58667
#
# Compressibility (1/GPa) = 0.03497787
#
# Stress axis : x y z
#
# Youngs Moduli (GPa) = 42.74799 42.74799 34.46776
#
# Poissons Ratio (x) = 0.78445 0.03550
# Poissons Ratio (y) = 0.78445 0.03550
# Poissons Ratio (z) = 0.04403 0.04403
#
# Static dielectric constant tensor:
#      x y z
#    x 1.687720 0.000000 0.000000 
#    y 0.000000 1.687720 0.000000 
#    z 0.000000 0.000000 1.859950 
# 
# From -- ./inp_files/4306.got.cif
#   From: 2010.05.17/outbox.cif.g08.bks.cpg/sg138_3_cif.got.tgz:4306.got - 2010.05.20 13:08:53.
