data_PCOD9570237
_publ_section_title
;
Structure prediction by ZEFSAII (Michael W. Deem and Ramdas Pophale) SiO2 
 PCOD9570237
Probable space group: P 42/N M C
;
_chemical_formula_sum "Si O2"
_cell_formula_units_Z 96
_cell_length_a 15.134645
_cell_length_b 15.134645
_cell_length_c 20.380900
_cell_angle_alpha 90.000000
_cell_angle_beta 90.000000
_cell_angle_gamma 90.000000
_cell_volume 4668.397579
_symmetry_space_group_name_H-M "P 42/N M C"
_symmetry_group_IT_number 137
_space_group.IT_coordinate_system_code '2'
_symmetry_cell_setting 'tetragonal'
loop_
_space_group_symop_operation_xyz
x,y,z
1/2-y,x,1/2+z
1/2-x,1/2-y,z
y,1/2-x,1/2+z
1/2+x,-y,-z
-x,1/2+y,-z
1/2+y,1/2+x,1/2-z
-y,-x,1/2-z
-x,-y,-z
1/2+y,-x,1/2-z
1/2+x,1/2+y,-z
-y,1/2+x,1/2-z
1/2-x,y,z
x,1/2-y,z
1/2-y,1/2-x,1/2+z
y,x,1/2+z
loop_
_atom_site_type_symbol
_atom_site_label
_atom_site_fract_x
_atom_site_fract_y
_atom_site_fract_z
Si Si1 0.848025 0.347979 0.419477
Si Si2 0.896993 0.520721 0.006840
Si Si3 0.152653 0.534419 0.705855
Si Si4 0.033919 0.353344 0.887937
Si Si5 0.849743 0.913132 0.763467
Si Si6 0.151358 0.953871 0.121393
O O1 0.750000 0.358044 0.450081
O O2 0.849294 0.250000 0.388151
O O3 0.858681 0.424947 0.366260
O O4 0.930829 0.353283 0.466949
O O5 0.900031 0.596622 0.061733
O O6 0.858270 0.531154 0.934029
O O7 0.000000 0.500000 0.000000
O O8 0.077155 0.577155 0.750000
O O9 0.250000 0.562738 0.728973
O O10 0.145256 0.429654 0.709988
O O11 0.031588 0.250000 0.903650
O O12 0.067293 0.364754 0.813304
O O13 0.933767 0.391990 0.889764
O O14 0.750000 0.877801 0.771125
O O15 0.854532 0.002118 0.807089
O O16 0.250000 0.914163 0.114559
#
# Coordination Sequence:
#
# PCOD9570237 Si02
#       6
#    16  16  16  16  16  16
#     4  10  21  36  56  84 116 151 194 247 310 375
#     4  10  20  35  55  81 115 154 195 239 292 354
#     4  11  21  34  56  84 115 151 192 243 300 359
#     4  10  21  37  59  85 115 155 200 242 288 351
#     4  10  21  39  61  85 116 157 203 246 295 356
#     4  10  20  35  58  85 114 148 189 243 302 355
#
# _framework density 20.563800000000001
#
# number of rings (size 3 to 8) (size 9 to 14) (size 15 to 20)
#    0.000    1.833    0.000    5.500    0.000    4.167 
#    0.000    1.667    0.000    8.000    0.000    0.000 
#    0.000    0.000    0.000    0.000    0.000    0.000 
#
# Total GULP energy -535372.088697 kJ/mol
# GULP energy per Si atom -5576.792591 kJ/mol
# Density = 2.051700 g / cm^3
# Si number density = 20.563800 Si / 1000 Ang^3
#
#
#
# Elastic Constant Matrix: (Units=GPa)
#
#
# Indices 1 2 3 4 5 6 
#
# 1 76.3848 15.9455 22.8312 0.0000 0.0000 0.0000
# 2 15.9455 76.3848 22.8312 0.0000 0.0000 0.0000
# 3 22.8312 22.8312 85.4775 0.0000 0.0000 0.0000
# 4 0.0000 0.0000 0.0000 17.8984 0.0000 0.0000
# 5 0.0000 0.0000 0.0000 0.0000 17.8984 0.0000
# 6 0.0000 0.0000 0.0000 0.0000 0.0000 25.1519
#
#
#
# Elastic Compliance Matrix: (Units=1/GPa)
#
#
# Indices 1 2 3 4 5 6 
#
# 1 0.014512 -0.002033 -0.003333 0.000000 0.000000 0.000000
# 2 -0.002033 0.014512 -0.003333 0.000000 0.000000 0.000000
# 3 -0.003333 -0.003333 0.013480 0.000000 0.000000 0.000000
# 4 0.000000 0.000000 0.000000 0.055871 0.000000 0.000000
# 5 0.000000 0.000000 0.000000 0.000000 0.055871 0.000000
# 6 0.000000 0.000000 0.000000 0.000000 0.000000 0.039758
#
#
# Mechanical properties :
#
#
# Convention : Reuss Voigt Hill
#
# Bulk Modulus (GPa) = 39.83259 40.16252 39.99756
# Shear Modulus (GPa) = 22.75082 23.96567 23.35825
#
# Velocity S-wave (km/s) = 3.32980 3.41754 3.37396
# Velocity P-wave (km/s) = 5.84771 5.92840 5.88819
#
# Compressibility (1/GPa) = 0.02510507
#
# Stress axis : x y z
#
# Youngs Moduli (GPa) = 68.90699 68.90699 74.18621
#
# Poissons Ratio (x) = 0.14010 0.24728
# Poissons Ratio (y) = 0.14010 0.24728
# Poissons Ratio (z) = 0.22968 0.22968
#
# Static dielectric constant tensor:
#      x y z
#    x 1.741290 0.000000 0.000000 
#    y 0.000000 1.741290 0.000000 
#    z 0.000000 0.000000 1.780040 
# 
# From -- ./inp_files/7826.got.cif
#   From: 2010.05.17/outbox.cif.g08.bks.cpg/sg137_4_cif.got.tgz:7826.got - 2010.05.20 13:01:12.
