data_PCOD9570260
_publ_section_title
;
Structure prediction by ZEFSAII (Michael W. Deem and Ramdas Pophale) SiO2 
 PCOD9570260
Probable space group: P 42/N M C
;
_chemical_formula_sum "Si O2"
_cell_formula_units_Z 96
_cell_length_a 13.690885
_cell_length_b 13.690885
_cell_length_c 22.172527
_cell_angle_alpha 90.000000
_cell_angle_beta 90.000000
_cell_angle_gamma 90.000000
_cell_volume 4156.025824
_symmetry_space_group_name_H-M "P 42/N M C"
_symmetry_group_IT_number 137
_space_group.IT_coordinate_system_code '2'
_symmetry_cell_setting 'tetragonal'
loop_
_space_group_symop_operation_xyz
x,y,z
1/2-y,x,1/2+z
1/2-x,1/2-y,z
y,1/2-x,1/2+z
1/2+x,-y,-z
-x,1/2+y,-z
1/2+y,1/2+x,1/2-z
-y,-x,1/2-z
-x,-y,-z
1/2+y,-x,1/2-z
1/2+x,1/2+y,-z
-y,1/2+x,1/2-z
1/2-x,y,z
x,1/2-y,z
1/2-y,1/2-x,1/2+z
y,x,1/2+z
loop_
_atom_site_type_symbol
_atom_site_label
_atom_site_fract_x
_atom_site_fract_y
_atom_site_fract_z
Si Si1 0.360606 0.633894 0.685250
Si Si2 0.548425 0.059810 0.434618
Si Si3 0.140708 0.131370 0.756371
Si Si4 0.944969 0.365983 0.811999
Si Si5 0.633647 0.051014 0.556751
Si Si6 0.132239 0.137293 0.616430
O O1 0.401163 0.598838 0.750000
O O2 0.250000 0.594981 0.675888
O O3 0.353906 0.750000 0.693125
O O4 0.419744 0.613661 0.625317
O O5 0.432582 0.046967 0.442404
O O6 0.598171 0.101388 0.495127
O O7 0.588970 0.948687 0.424209
O O8 0.250000 0.093977 0.768663
O O9 0.145735 0.250000 0.758497
O O10 0.111457 0.110597 0.686867
O O11 0.056974 0.101071 0.802543
O O12 0.894202 0.394202 0.750000
O O13 0.945896 0.250000 0.813180
O O14 0.902938 0.393168 0.877649
O O15 0.750000 0.036234 0.554271
O O16 0.250000 0.136486 0.610819
O O17 0.100694 0.250000 0.605449
#
# Coordination Sequence:
#
# PCOD9570260 Si02
#       6
#    16  16  16  16  16  16
#     4   9  19  37  63  96 127 154 195 249 298 355
#     4  11  21  38  63  82 114 164 198 235 304 372
#     4   8  15  29  50  77 107 140 181 230 282 333
#     4  10  20  36  56  78 111 148 185 236 290 341
#     4  10  23  40  57  84 118 153 201 255 299 352
#     4   9  17  30  53  86 116 144 189 244 295 361
#
# _framework density 23.098991000000002
#
# number of rings (size 3 to 8) (size 9 to 14) (size 15 to 20)
#    0.000    2.500    0.000    4.000    0.000    2.167 
#    0.000    7.500    0.000    9.000    0.000    0.000 
#    0.000    0.333    0.000    0.000    0.000    0.000 
#
# Total GULP energy -535945.155715 kJ/mol
# GULP energy per Si atom -5582.762039 kJ/mol
# Density = 2.304642 g / cm^3
# Si number density = 23.098991 Si / 1000 Ang^3
#
#
#
# Elastic Constant Matrix: (Units=GPa)
#
#
# Indices 1 2 3 4 5 6 
#
# 1 60.3267 -19.0275 21.6029 0.0000 0.0000 0.0000
# 2 -19.0275 60.3264 21.6030 0.0000 0.0000 0.0000
# 3 21.6029 21.6030 179.2782 0.0000 0.0000 0.0000
# 4 0.0000 0.0000 0.0000 22.9307 0.0000 0.0000
# 5 0.0000 0.0000 0.0000 0.0000 22.9305 0.0000
# 6 0.0000 0.0000 0.0000 0.0000 0.0000 20.1715
#
#
#
# Elastic Compliance Matrix: (Units=1/GPa)
#
#
# Indices 1 2 3 4 5 6 
#
# 1 0.020154 0.007552 -0.003339 0.000000 0.000000 0.000000
# 2 0.007552 0.020154 -0.003339 0.000000 0.000000 0.000000
# 3 -0.003339 -0.003339 0.006383 0.000000 0.000000 0.000000
# 4 0.000000 0.000000 0.000000 0.043610 0.000000 0.000000
# 5 0.000000 0.000000 0.000000 0.000000 0.043610 0.000000
# 6 0.000000 0.000000 0.000000 0.000000 0.000000 0.049575
#
#
# Mechanical properties :
#
#
# Convention : Reuss Voigt Hill
#
# Bulk Modulus (GPa) = 20.64370 38.69865 29.67117
# Shear Modulus (GPa) = 25.26757 31.59006 28.42882
#
# Velocity S-wave (km/s) = 3.31098 3.70211 3.51199
# Velocity P-wave (km/s) = 4.85523 5.92148 5.41466
#
# Compressibility (1/GPa) = 0.04844094
#
# Stress axis : x y z
#
# Youngs Moduli (GPa) = 49.61786 49.61758 156.67780
#
# Poissons Ratio (x) = -0.37473 0.52308
# Poissons Ratio (y) = -0.37473 0.52309
# Poissons Ratio (z) = 0.16565 0.16565
#
# Static dielectric constant tensor:
#      x y z
#    x 1.896990 0.000000 0.000000 
#    y 0.000000 1.896990 0.000000 
#    z 0.000000 0.000000 1.906880 
# 
# From -- ./inp_files/7872.got.cif
#   From: 2010.05.17/outbox.cif.g08.bks.cpg/sg137_4_cif.got.tgz:7872.got - 2010.05.20 13:01:12.
