data_PCOD9570411
_publ_section_title
;
Structure prediction by ZEFSAII (Michael W. Deem and Ramdas Pophale) SiO2 
 PCOD9570411
Probable space group: P 42/N M C
;
_chemical_formula_sum "Si O2"
_cell_formula_units_Z 96
_cell_length_a 15.265662
_cell_length_b 15.265662
_cell_length_c 19.285839
_cell_angle_alpha 90.000000
_cell_angle_beta 90.000000
_cell_angle_gamma 90.000000
_cell_volume 4494.380335
_symmetry_space_group_name_H-M "P 42/N M C"
_symmetry_group_IT_number 137
_space_group.IT_coordinate_system_code '2'
_symmetry_cell_setting 'tetragonal'
loop_
_space_group_symop_operation_xyz
x,y,z
1/2-y,x,1/2+z
1/2-x,1/2-y,z
y,1/2-x,1/2+z
1/2+x,-y,-z
-x,1/2+y,-z
1/2+y,1/2+x,1/2-z
-y,-x,1/2-z
-x,-y,-z
1/2+y,-x,1/2-z
1/2+x,1/2+y,-z
-y,1/2+x,1/2-z
1/2-x,y,z
x,1/2-y,z
1/2-y,1/2-x,1/2+z
y,x,1/2+z
loop_
_atom_site_type_symbol
_atom_site_label
_atom_site_fract_x
_atom_site_fract_y
_atom_site_fract_z
Si Si1 0.848558 0.594640 0.357296
Si Si2 0.850323 0.081320 0.564413
Si Si3 0.040029 0.648568 0.305718
Si Si4 0.846150 0.388965 0.327623
Si Si5 0.154128 0.388273 0.474962
Si Si6 0.460214 0.658070 0.550280
O O1 0.750000 0.629632 0.339267
O O2 0.850396 0.493795 0.333185
O O3 0.853298 0.597261 0.441473
O O4 0.936889 0.636635 0.325252
O O5 0.750000 0.113351 0.556130
O O6 0.902542 0.128079 0.625704
O O7 0.910146 0.088663 0.496102
O O8 0.844679 0.976770 0.570628
O O9 0.079160 0.579160 0.250000
O O10 0.053682 0.750000 0.283498
O O11 0.856908 0.356908 0.250000
O O12 0.750000 0.362402 0.355154
O O13 0.924364 0.351759 0.373061
O O14 0.250000 0.346974 0.464634
O O15 0.063789 0.344600 0.454021
O O16 0.429017 0.750000 0.519904
#
# Coordination Sequence:
#
# PCOD9570411 Si02
#       6
#    16  16  16  16  16  16
#     4  10  21  41  68  95 123 164 220 276 333 396
#     4  11  22  39  63  89 123 170 221 268 320 388
#     4  12  26  43  64  94 134 180 224 274 333 393
#     4  11  23  40  62  91 129 171 213 264 326 392
#     4  10  21  40  65  92 126 165 214 276 333 388
#     4  12  23  36  60  93 128 166 210 265 329 397
#
# _framework density 21.360007
#
# number of rings (size 3 to 8) (size 9 to 14) (size 15 to 20)
#    0.000    1.000    3.333    4.000    0.000    4.667 
#    0.000    1.667    0.000    0.000    0.000    4.667 
#    0.000    0.000    0.000    0.000    0.000    0.000 
#
# Total GULP energy -535607.553084 kJ/mol
# GULP energy per Si atom -5579.245345 kJ/mol
# Density = 2.131139 g / cm^3
# Si number density = 21.360007 Si / 1000 Ang^3
#
#
#
# Elastic Constant Matrix: (Units=GPa)
#
#
# Indices 1 2 3 4 5 6 
#
# 1 139.2243 48.4318 32.4611 0.0000 0.0000 0.0000
# 2 48.4318 139.2243 32.4611 0.0000 0.0000 0.0000
# 3 32.4611 32.4611 67.0540 0.0000 0.0000 0.0000
# 4 0.0000 0.0000 0.0000 -70.9917 0.0000 0.0000
# 5 0.0000 0.0000 0.0000 0.0000 -70.9917 0.0000
# 6 0.0000 0.0000 0.0000 0.0000 0.0000 131.3880
#
#
#
# Elastic Compliance Matrix: (Units=1/GPa)
#
#
# Indices 1 2 3 4 5 6 
#
# 1 0.008708 -0.002307 -0.003099 0.000000 0.000000 0.000000
# 2 -0.002307 0.008708 -0.003099 0.000000 0.000000 0.000000
# 3 -0.003099 -0.003099 0.017914 0.000000 0.000000 0.000000
# 4 0.000000 0.000000 0.000000 -0.014086 0.000000 0.000000
# 5 0.000000 0.000000 0.000000 0.000000 -0.014086 0.000000
# 6 0.000000 0.000000 0.000000 0.000000 0.000000 0.007611
#
#
# Mechanical properties :
#
#
# Convention : Reuss Voigt Hill
#
# Bulk Modulus (GPa) = 54.58349 63.57898 59.08123
# Shear Modulus (GPa) = 131.98775 13.35751 72.67263
#
# Velocity S-wave (km/s) = 7.86932 2.50342 5.83923
# Velocity P-wave (km/s) = 10.40085 6.17950 8.55464
#
# Compressibility (1/GPa) = 0.01832056
#
# Stress axis : x y z
#
# Youngs Moduli (GPa) = 114.84310 114.84310 55.82357
#
# Poissons Ratio (x) = 0.26490 0.17298
# Poissons Ratio (y) = 0.26490 0.17298
# Poissons Ratio (z) = 0.35587 0.35587
#
# Static dielectric constant tensor:
#      x y z
#    x 1.612970 0.000000 0.000000 
#    y 0.000000 1.612970 0.000000 
#    z 0.000000 0.000000 1.756170 
# 
# From -- ./inp_files/7841.got.cif
#   From: 2010.05.17/outbox.cif.g08.bks.cpg/sg137_4_cif.got.tgz:7841.got - 2010.05.20 13:01:12.
