data_PCOD9570261
_publ_section_title
;
Structure prediction by ZEFSAII (Michael W. Deem and Ramdas Pophale) SiO2 
 PCOD9570261
Probable space group: P 42/N M C
;
_chemical_formula_sum "Si O2"
_cell_formula_units_Z 112
_cell_length_a 17.347550
_cell_length_b 17.347550
_cell_length_c 20.834774
_cell_angle_alpha 90.000000
_cell_angle_beta 90.000000
_cell_angle_gamma 90.000000
_cell_volume 6269.964613
_symmetry_space_group_name_H-M "P 42/N M C"
_symmetry_group_IT_number 137
_space_group.IT_coordinate_system_code '2'
_symmetry_cell_setting 'tetragonal'
loop_
_space_group_symop_operation_xyz
x,y,z
1/2-y,x,1/2+z
1/2-x,1/2-y,z
y,1/2-x,1/2+z
1/2+x,-y,-z
-x,1/2+y,-z
1/2+y,1/2+x,1/2-z
-y,-x,1/2-z
-x,-y,-z
1/2+y,-x,1/2-z
1/2+x,1/2+y,-z
-y,1/2+x,1/2-z
1/2-x,y,z
x,1/2-y,z
1/2-y,1/2-x,1/2+z
y,x,1/2+z
loop_
_atom_site_type_symbol
_atom_site_label
_atom_site_fract_x
_atom_site_fract_y
_atom_site_fract_z
Si Si1 0.884528 0.659792 0.793630
Si Si2 0.838376 0.068298 0.302123
Si Si3 0.572941 0.838276 0.023000
Si Si4 0.061451 0.339762 0.586547
Si Si5 0.341877 0.103171 0.853189
Si Si6 0.340669 0.929601 0.900392
Si Si7 0.934017 0.057330 0.973063
O O1 0.862327 0.750000 0.800888
O O2 0.845293 0.606754 0.846563
O O3 0.873029 0.637103 0.719193
O O4 0.976592 0.654537 0.805519
O O5 0.894540 0.105461 0.250000
O O6 0.750000 0.086093 0.284913
O O7 0.863894 0.108260 0.367749
O O8 0.575015 0.750000 0.003211
O O9 0.615253 0.851990 0.090685
O O10 0.484901 0.866361 0.033367
O O11 0.619421 0.887002 0.969075
O O12 0.047687 0.250000 0.570727
O O13 0.983721 0.391670 0.586336
O O14 0.250000 0.113698 0.859610
O O15 0.356625 0.011907 0.865730
O O16 0.250000 0.914321 0.894692
O O17 0.368524 0.936586 0.973103
O O18 0.000000 0.000000 0.000000
#
# Coordination Sequence:
#
# PCOD9570261 Si02
#       7
#    16  16  16  16  16  16  16
#     4  10  22  36  54  82 116 149 182 231 290 336
#     4  11  21  33  51  78 115 155 193 228 269 333
#     4  11  23  38  59  85 112 147 194 240 287 343
#     4  11  22  37  59  85 112 147 191 236 286 344
#     4  10  20  36  56  82 113 150 187 228 285 342
#     4  11  20  34  54  78 110 148 189 229 274 333
#     4  10  20  36  58  79 107 144 186 232 277 333
#
# _framework density 17.862939999999998
#
# number of rings (size 3 to 8) (size 9 to 14) (size 15 to 20)
#    0.000    1.429    4.286    3.429    0.000    5.286 
#    0.000    1.429    0.000    1.286    0.000    0.000 
#    0.000    0.000    0.000    5.143    0.000    0.000 
#
# Total GULP energy -625059.652102 kJ/mol
# GULP energy per Si atom -5580.889751 kJ/mol
# Density = 1.782228 g / cm^3
# Si number density = 17.862940 Si / 1000 Ang^3
#
#
#
# Elastic Constant Matrix: (Units=GPa)
#
#
# Indices 1 2 3 4 5 6 
#
# 1 43.2655 22.4105 7.8500 0.0000 0.0000 0.0000
# 2 22.4105 43.2662 7.8498 0.0000 0.0000 0.0000
# 3 7.8500 7.8498 83.9709 0.0000 0.0000 0.0000
# 4 0.0000 0.0000 0.0000 18.1677 0.0000 0.0000
# 5 0.0000 0.0000 0.0000 0.0000 18.1612 0.0000
# 6 0.0000 0.0000 0.0000 0.0000 0.0000 10.9597
#
#
#
# Elastic Compliance Matrix: (Units=1/GPa)
#
#
# Indices 1 2 3 4 5 6 
#
# 1 0.031762 -0.016188 -0.001456 0.000000 0.000000 0.000000
# 2 -0.016188 0.031761 -0.001456 0.000000 0.000000 0.000000
# 3 -0.001456 -0.001456 0.012181 0.000000 0.000000 0.000000
# 4 0.000000 0.000000 0.000000 0.055043 0.000000 0.000000
# 5 0.000000 0.000000 0.000000 0.000000 0.055063 0.000000
# 6 0.000000 0.000000 0.000000 0.000000 0.000000 0.091243
#
#
# Mechanical properties :
#
#
# Convention : Reuss Voigt Hill
#
# Bulk Modulus (GPa) = 26.66255 27.41370 27.03812
# Shear Modulus (GPa) = 15.25536 18.28388 16.76962
#
# Velocity S-wave (km/s) = 2.92554 3.20279 3.06730
# Velocity P-wave (km/s) = 5.13520 5.39047 5.26438
#
# Compressibility (1/GPa) = 0.03750579
#
# Stress axis : x y z
#
# Youngs Moduli (GPa) = 31.48412 31.48469 82.09440
#
# Poissons Ratio (x) = 0.50966 0.11953
# Poissons Ratio (y) = 0.50965 0.11952
# Poissons Ratio (z) = 0.04584 0.04584
#
# Static dielectric constant tensor:
#      x y z
#    x 1.620890 0.000000 0.000000 
#    y 0.000000 1.620880 0.000000 
#    z 0.000000 0.000000 1.646470 
# 
# From -- ./inp_files/8063.got.cif
#   From: 2010.05.17/outbox.cif.g08.bks.cpg/sg137_5_cif.got.tgz:8063.got - 2010.05.20 13:01:12.
