data_PCOD9570132
_publ_section_title
;
Structure prediction by ZEFSAII (Michael W. Deem and Ramdas Pophale) SiO2 
 PCOD9570132
Probable space group: P 42/N M C
;
_chemical_formula_sum "Si O2"
_cell_formula_units_Z 88
_cell_length_a 15.274404
_cell_length_b 15.274404
_cell_length_c 18.815463
_cell_angle_alpha 90.000000
_cell_angle_beta 90.000000
_cell_angle_gamma 90.000000
_cell_volume 4389.787083
_symmetry_space_group_name_H-M "P 42/N M C"
_symmetry_group_IT_number 137
_space_group.IT_coordinate_system_code '2'
_symmetry_cell_setting 'tetragonal'
loop_
_space_group_symop_operation_xyz
x,y,z
1/2-y,x,1/2+z
1/2-x,1/2-y,z
y,1/2-x,1/2+z
1/2+x,-y,-z
-x,1/2+y,-z
1/2+y,1/2+x,1/2-z
-y,-x,1/2-z
-x,-y,-z
1/2+y,-x,1/2-z
1/2+x,1/2+y,-z
-y,1/2+x,1/2-z
1/2-x,y,z
x,1/2-y,z
1/2-y,1/2-x,1/2+z
y,x,1/2+z
loop_
_atom_site_type_symbol
_atom_site_label
_atom_site_fract_x
_atom_site_fract_y
_atom_site_fract_z
Si Si1 0.349820 0.849820 0.750000
Si Si2 0.844532 0.970241 0.484449
Si Si3 0.987366 0.059334 0.156370
Si Si4 0.150477 0.960945 0.199253
Si Si5 0.948246 0.650306 0.581539
Si Si6 0.845130 0.396702 0.963753
O O1 0.358286 0.750000 0.721978
O O2 0.367597 0.925365 0.692007
O O3 0.750000 0.952781 0.453025
O O4 0.869091 0.896144 0.540744
O O5 0.912348 0.976631 0.420212
O O6 0.846343 0.065481 0.521065
O O7 0.917957 0.981469 0.140821
O O8 0.072863 0.032912 0.200904
O O9 0.117111 0.882890 0.250000
O O10 0.250000 0.988233 0.217385
O O11 0.151305 0.929935 0.117159
O O12 0.932728 0.750000 0.605580
O O13 0.024662 0.654022 0.521404
O O14 0.750000 0.352465 0.973281
#
# Coordination Sequence:
#
# PCOD9570132 Si02
#       6
#     8  16  16  16  16  16
#     4  11  24  40  62  92 123 158 204 256 307 360
#     4  11  21  33  55  88 119 148 193 242 291 354
#     4  11  20  40  61  86 115 160 199 244 302 361
#     4  11  22  38  62  87 114 154 204 249 299 362
#     4  10  19  35  59  84 112 150 195 236 288 350
#     4   9  18  36  58  79 110 149 188 234 288 348
#
# _framework density 20.046529
#
# number of rings (size 3 to 8) (size 9 to 14) (size 15 to 20)
#    0.000    1.545    4.545    2.182    0.000    2.364 
#    0.000    1.818    0.000    1.636    0.000    0.000 
#    0.000    0.000    0.000    0.000    0.000    0.000 
#
# Total GULP energy -490448.453974 kJ/mol
# GULP energy per Si atom -5573.277886 kJ/mol
# Density = 2.000090 g / cm^3
# Si number density = 20.046529 Si / 1000 Ang^3
#
#
#
# Elastic Constant Matrix: (Units=GPa)
#
#
# Indices 1 2 3 4 5 6 
#
# 1 100.9681 67.1186 16.0857 0.0000 0.0000 0.0000
# 2 67.1186 100.9674 16.0871 0.0000 0.0000 0.0000
# 3 16.0857 16.0871 49.7835 0.0000 0.0000 0.0000
# 4 0.0000 0.0000 0.0000 15.4956 0.0000 0.0000
# 5 0.0000 0.0000 0.0000 0.0000 15.4954 0.0000
# 6 0.0000 0.0000 0.0000 0.0000 0.0000 6.5461
#
#
#
# Elastic Compliance Matrix: (Units=1/GPa)
#
#
# Indices 1 2 3 4 5 6 
#
# 1 0.017942 -0.011601 -0.002049 0.000000 0.000000 0.000000
# 2 -0.011601 0.017942 -0.002050 0.000000 0.000000 0.000000
# 3 -0.002049 -0.002050 0.021411 0.000000 0.000000 0.000000
# 4 0.000000 0.000000 0.000000 0.064534 0.000000 0.000000
# 5 0.000000 0.000000 0.000000 0.000000 0.064535 0.000000
# 6 0.000000 0.000000 0.000000 0.000000 0.000000 0.152764
#
#
# Mechanical properties :
#
#
# Convention : Reuss Voigt Hill
#
# Bulk Modulus (GPa) = 38.61330 50.03354 44.32342
# Shear Modulus (GPa) = 13.18707 17.66926 15.42817
#
# Velocity S-wave (km/s) = 2.56759 2.97208 2.77721
# Velocity P-wave (km/s) = 5.30035 6.06552 5.69580
#
# Compressibility (1/GPa) = 0.02589781
#
# Stress axis : x y z
#
# Youngs Moduli (GPa) = 55.73495 55.73407 46.70449
#
# Poissons Ratio (x) = 0.64655 0.09568
# Poissons Ratio (y) = 0.64656 0.09572
# Poissons Ratio (z) = 0.11418 0.11423
#
# Static dielectric constant tensor:
#      x y z
#    x 1.725460 0.000000 0.000000 
#    y 0.000000 1.725460 0.000000 
#    z 0.000000 0.000000 1.720920 
# 
# From -- ./inp_files/7707.got.cif
#   From: 2010.05.17/outbox.cif.g08.bks.cpg/sg137_4_cif.got.tgz:7707.got - 2010.05.20 13:01:12.
