data_PCOD9570149
_publ_section_title
;
Structure prediction by ZEFSAII (Michael W. Deem and Ramdas Pophale) SiO2 
 PCOD9570149
Probable space group: P 42/N M C
;
_chemical_formula_sum "Si O2"
_cell_formula_units_Z 96
_cell_length_a 22.518906
_cell_length_b 22.518906
_cell_length_c 10.101874
_cell_angle_alpha 90.000000
_cell_angle_beta 90.000000
_cell_angle_gamma 90.000000
_cell_volume 5122.671695
_symmetry_space_group_name_H-M "P 42/N M C"
_symmetry_group_IT_number 137
_space_group.IT_coordinate_system_code '2'
_symmetry_cell_setting 'tetragonal'
loop_
_space_group_symop_operation_xyz
x,y,z
1/2-y,x,1/2+z
1/2-x,1/2-y,z
y,1/2-x,1/2+z
1/2+x,-y,-z
-x,1/2+y,-z
1/2+y,1/2+x,1/2-z
-y,-x,1/2-z
-x,-y,-z
1/2+y,-x,1/2-z
1/2+x,1/2+y,-z
-y,1/2+x,1/2-z
1/2-x,y,z
x,1/2-y,z
1/2-y,1/2-x,1/2+z
y,x,1/2+z
loop_
_atom_site_type_symbol
_atom_site_label
_atom_site_fract_x
_atom_site_fract_y
_atom_site_fract_z
Si Si1 0.466776 0.387525 0.851338
Si Si2 0.932819 0.683011 0.893653
Si Si3 0.899083 0.399083 0.750000
Si Si4 0.819573 0.180428 0.250000
Si Si5 0.030507 0.140243 0.384756
Si Si6 0.319377 0.108850 0.129660
Si Si7 0.094616 0.678410 0.505646
O O1 0.534343 0.394292 0.808175
O O2 0.427051 0.447470 0.857339
O O3 0.433648 0.344597 0.745791
O O4 0.460684 0.359359 0.996139
O O5 0.937353 0.750000 0.939675
O O6 0.965057 0.673791 0.754210
O O7 0.864108 0.664468 0.871874
O O8 0.889753 0.351396 0.633772
O O9 0.750000 0.171103 0.279014
O O10 0.857632 0.165854 0.379578
O O11 0.075833 0.169231 0.490201
O O12 0.966384 0.148129 0.447169
O O13 0.250000 0.121693 0.147443
O O14 0.087223 0.750000 0.494186
#
# Coordination Sequence:
#
# PCOD9570149 Si02
#       7
#    16  16   8   8  16  16  16
#     4  10  23  39  56  88 125 165 202 253 309 352
#     4  10  21  36  58  90 122 160 210 256 300 356
#     4  12  26  41  62  94 124 162 208 254 306 379
#     4   9  22  45  66  89 120 148 188 249 310 369
#     4  10  21  39  60  86 120 162 201 245 303 363
#     4  10  19  37  60  83 124 169 202 248 307 361
#     4  11  24  42  66  92 119 159 202 249 310 371
#
# _framework density 18.740220999999998
#
# number of rings (size 3 to 8) (size 9 to 14) (size 15 to 20)
#    0.000    1.750    1.667    2.000    2.333    3.000 
#    0.000    0.000    0.000    6.000    0.000    0.000 
#    0.000    0.000    0.000    0.000    0.000    0.000 
#
# Total GULP energy -536133.360678 kJ/mol
# GULP energy per Si atom -5584.722507 kJ/mol
# Density = 1.869757 g / cm^3
# Si number density = 18.740221 Si / 1000 Ang^3
#
#
#
# Elastic Constant Matrix: (Units=GPa)
#
#
# Indices 1 2 3 4 5 6 
#
# 1 41.7561 43.3639 43.7006 0.0000 0.0000 0.0000
# 2 43.3639 41.7579 43.6999 0.0000 0.0000 0.0000
# 3 43.7006 43.6999 119.3959 0.0000 0.0000 0.0000
# 4 0.0000 0.0000 0.0000 18.9325 0.0000 0.0000
# 5 0.0000 0.0000 0.0000 0.0000 18.9328 0.0000
# 6 0.0000 0.0000 0.0000 0.0000 0.0000 5.6643
#
#
#
# Elastic Compliance Matrix: (Units=1/GPa)
#
#
# Indices 1 2 3 4 5 6 
#
# 1 -0.301758 0.320567 -0.006882 0.000000 0.000000 0.000000
# 2 0.320567 -0.301732 -0.006895 0.000000 0.000000 0.000000
# 3 -0.006882 -0.006895 0.013418 0.000000 0.000000 0.000000
# 4 0.000000 0.000000 0.000000 0.052819 0.000000 0.000000
# 5 0.000000 0.000000 0.000000 0.000000 0.052818 0.000000
# 6 0.000000 0.000000 0.000000 0.000000 0.000000 0.176544
#
#
# Mechanical properties :
#
#
# Convention : Reuss Voigt Hill
#
# Bulk Modulus (GPa) = 42.54302 51.60428 47.07365
# Shear Modulus (GPa) = -5.47265 13.51562 4.02149
#
# Velocity S-wave (km/s) = -1.71073 2.68845 1.46648
# Velocity P-wave (km/s) = 4.34150 6.10192 5.29538
#
# Compressibility (1/GPa) = 0.02350562
#
# Stress axis : x y z
#
# Youngs Moduli (GPa) = -3.31391 -3.31420 74.52545
#
# Poissons Ratio (x) = 1.06242 0.51290
# Poissons Ratio (y) = 1.06233 0.51388
# Poissons Ratio (z) = -0.02281 -0.02285
#
# Static dielectric constant tensor:
#      x y z
#    x 1.639040 0.000000 0.000000 
#    y 0.000000 1.639040 0.000000 
#    z 0.000000 0.000000 1.634910 
# 
# From -- ./inp_files/2213.got.cif
#   From: 2010.05.17/outbox.cif.g08.bks.cpg/sg137_2_cif.got.tgz:2213.got - 2010.05.20 13:01:12.
