data_PCOD9570477
_publ_section_title
;
Structure prediction by ZEFSAII (Michael W. Deem and Ramdas Pophale) SiO2 
 PCOD9570477
Probable space group: P 42/N M C
;
_chemical_formula_sum "Si O2"
_cell_formula_units_Z 72
_cell_length_a 17.410712
_cell_length_b 17.410712
_cell_length_c 12.913192
_cell_angle_alpha 90.000000
_cell_angle_beta 90.000000
_cell_angle_gamma 90.000000
_cell_volume 3914.413240
_symmetry_space_group_name_H-M "P 42/N M C"
_symmetry_group_IT_number 137
_space_group.IT_coordinate_system_code '2'
_symmetry_cell_setting 'tetragonal'
loop_
_space_group_symop_operation_xyz
x,y,z
1/2-y,x,1/2+z
1/2-x,1/2-y,z
y,1/2-x,1/2+z
1/2+x,-y,-z
-x,1/2+y,-z
1/2+y,1/2+x,1/2-z
-y,-x,1/2-z
-x,-y,-z
1/2+y,-x,1/2-z
1/2+x,1/2+y,-z
-y,1/2+x,1/2-z
1/2-x,y,z
x,1/2-y,z
1/2-y,1/2-x,1/2+z
y,x,1/2+z
loop_
_atom_site_type_symbol
_atom_site_label
_atom_site_fract_x
_atom_site_fract_y
_atom_site_fract_z
Si Si1 0.335899 0.835899 0.750000
Si Si2 0.425313 0.160815 0.570563
Si Si3 0.600205 0.983670 0.713175
Si Si4 0.982067 0.835839 0.992129
Si Si5 0.959265 0.400071 0.400536
O O1 0.342124 0.750000 0.795476
O O2 0.403308 0.846826 0.666451
O O3 0.408094 0.250000 0.559025
O O4 0.445018 0.139824 0.688696
O O5 0.356582 0.105616 0.534407
O O6 0.498033 0.138865 0.497426
O O7 0.655095 0.992958 0.615049
O O8 0.527577 0.934085 0.670527
O O9 0.563786 0.063786 0.750000
O O10 0.002117 0.750000 0.957589
O O11 0.031826 0.903731 0.940199
#
# Coordination Sequence:
#
# PCOD9570477 Si02
#       5
#     8  16  16  16  16
#     4  11  22  34  50  78 112 142 180 239 306 352
#     4  11  22  37  59  86 119 155 194 244 299 352
#     4  11  18  37  61  85 109 144 204 247 278 338
#     4  11  22  36  59  88 119 154 197 245 298 357
#     4  11  20  37  60  82 109 152 203 243 283 348
#
# _framework density 18.393561999999999
#
# number of rings (size 3 to 8) (size 9 to 14) (size 15 to 20)
#    0.000    1.000    5.556    3.333    0.000    0.444 
#    0.000    4.444    0.000    5.333    0.000    1.556 
#    0.000    0.000    0.000    0.000    0.000    0.000 
#
# Total GULP energy -402061.510056 kJ/mol
# GULP energy per Si atom -5584.187640 kJ/mol
# Density = 1.835170 g / cm^3
# Si number density = 18.393562 Si / 1000 Ang^3
#
#
#
# Elastic Constant Matrix: (Units=GPa)
#
#
# Indices 1 2 3 4 5 6 
#
# 1 86.8272 11.4642 14.8221 0.0000 0.0000 0.0000
# 2 11.4642 86.8272 14.8221 0.0000 0.0000 0.0000
# 3 14.8221 14.8221 77.4524 0.0000 0.0000 0.0000
# 4 0.0000 0.0000 0.0000 18.0778 0.0000 0.0000
# 5 0.0000 0.0000 0.0000 0.0000 18.0778 0.0000
# 6 0.0000 0.0000 0.0000 0.0000 0.0000 16.9454
#
#
#
# Elastic Compliance Matrix: (Units=1/GPa)
#
#
# Indices 1 2 3 4 5 6 
#
# 1 0.012033 -0.001236 -0.002066 0.000000 0.000000 0.000000
# 2 -0.001236 0.012033 -0.002066 0.000000 0.000000 0.000000
# 3 -0.002066 -0.002066 0.013702 0.000000 0.000000 0.000000
# 4 0.000000 0.000000 0.000000 0.055317 0.000000 0.000000
# 5 0.000000 0.000000 0.000000 0.000000 0.055317 0.000000
# 6 0.000000 0.000000 0.000000 0.000000 0.000000 0.059013
#
#
# Mechanical properties :
#
#
# Convention : Reuss Voigt Hill
#
# Bulk Modulus (GPa) = 36.99448 37.03597 37.01522
# Shear Modulus (GPa) = 22.01076 24.62009 23.31542
#
# Velocity S-wave (km/s) = 3.46302 3.66254 3.56418
# Velocity P-wave (km/s) = 6.01219 6.16965 6.09143
#
# Compressibility (1/GPa) = 0.02703106
#
# Stress axis : x y z
#
# Youngs Moduli (GPa) = 83.10447 83.10447 72.98214
#
# Poissons Ratio (x) = 0.10272 0.15080
# Poissons Ratio (y) = 0.10272 0.15080
# Poissons Ratio (z) = 0.17171 0.17171
#
# Static dielectric constant tensor:
#      x y z
#    x 1.628620 0.000000 0.000000 
#    y 0.000000 1.628620 0.000000 
#    z 0.000000 0.000000 1.649860 
# 
# From -- ./inp_files/3460.got.cif
#   From: 2010.05.17/outbox.cif.g08.bks.cpg/sg137_2_cif.got.tgz:3460.got - 2010.05.20 13:01:12.
