data_PCOD9570650
_publ_section_title
;
Structure prediction by ZEFSAII (Michael W. Deem and Ramdas Pophale) SiO2 
 PCOD9570650
Probable space group: P 42/N C M
;
_chemical_formula_sum "Si O2"
_cell_formula_units_Z 96
_cell_length_a 19.751485
_cell_length_b 19.751485
_cell_length_c 13.751872
_cell_angle_alpha 90.000000
_cell_angle_beta 90.000000
_cell_angle_gamma 90.000000
_cell_volume 5364.896253
_symmetry_space_group_name_H-M "P 42/N C M"
_symmetry_group_IT_number 138
_space_group.IT_coordinate_system_code '2'
_symmetry_cell_setting 'tetragonal'
loop_
_space_group_symop_operation_xyz
x,y,z
1/2-y,x,1/2+z
1/2-x,1/2-y,z
y,1/2-x,1/2+z
1/2+x,-y,1/2-z
-x,1/2+y,1/2-z
1/2+y,1/2+x,-z
-y,-x,-z
-x,-y,-z
1/2+y,-x,1/2-z
1/2+x,1/2+y,-z
-y,1/2+x,1/2-z
1/2-x,y,1/2+z
x,1/2-y,1/2+z
1/2-y,1/2-x,z
y,x,z
loop_
_atom_site_type_symbol
_atom_site_label
_atom_site_fract_x
_atom_site_fract_y
_atom_site_fract_z
Si Si1 0.028830 0.807147 0.875743
Si Si2 0.249288 0.636737 0.984656
Si Si3 0.431773 0.543334 0.817298
Si Si4 0.723164 0.481081 0.658414
Si Si5 0.335311 0.444698 0.941914
Si Si6 0.543418 0.070583 0.892393
O O1 0.062893 0.880099 0.854081
O O2 0.013567 0.772548 0.773782
O O3 0.079387 0.759033 0.934552
O O4 0.966670 0.824970 0.946604
O O5 0.247620 0.592164 0.885277
O O6 0.183447 0.683447 0.000000
O O7 0.312554 0.687447 0.000000
O O8 0.504142 0.504142 0.822788
O O9 0.382619 0.500020 0.885855
O O10 0.413190 0.547006 0.702205
O O11 0.763970 0.541909 0.609160
O O12 0.644419 0.483705 0.632669
O O13 0.373774 0.373774 0.932715
O O14 0.482533 0.017468 0.898003
O O15 0.574347 0.074347 0.000000
#
# Coordination Sequence:
#
# PCOD9570650 Si02
#       6
#    16  16  16  16  16  16
#     4  10  19  32  51  72 100 135 175 221 266 309
#     4  10  21  34  47  69 105 147 184 214 252 311
#     4   9  17  30  51  78 104 133 173 220 267 314
#     4  10  21  34  52  77 104 137 176 220 268 323
#     4  10  20  34  53  78 107 137 172 218 273 328
#     4   9  18  33  54  80 109 140 176 223 274 320
#
# _framework density 17.894102
#
# number of rings (size 3 to 8) (size 9 to 14) (size 15 to 20)
#    0.000    2.333    0.000    3.500    0.000    8.667 
#    0.000    1.667    0.000    0.500    0.000    0.000 
#    0.000    0.000    0.000    0.000    0.000    0.000 
#
# Total GULP energy -534947.872632 kJ/mol
# GULP energy per Si atom -5572.373673 kJ/mol
# Density = 1.785337 g / cm^3
# Si number density = 17.894102 Si / 1000 Ang^3
#
#
#
# Elastic Constant Matrix: (Units=GPa)
#
#
# Indices 1 2 3 4 5 6 
#
# 1 34.3056 12.0995 31.4864 0.0000 0.0000 0.0000
# 2 12.0995 34.3072 31.4850 0.0000 0.0000 0.0000
# 3 31.4864 31.4850 138.2431 0.0000 0.0000 0.0000
# 4 0.0000 0.0000 0.0000 18.2059 0.0000 0.0000
# 5 0.0000 0.0000 0.0000 0.0000 18.2046 0.0000
# 6 0.0000 0.0000 0.0000 0.0000 0.0000 31.7987
#
#
#
# Elastic Compliance Matrix: (Units=1/GPa)
#
#
# Indices 1 2 3 4 5 6 
#
# 1 0.038111 -0.006922 -0.007104 0.000000 0.000000 0.000000
# 2 -0.006922 0.038108 -0.007103 0.000000 0.000000 0.000000
# 3 -0.007104 -0.007103 0.010469 0.000000 0.000000 0.000000
# 4 0.000000 0.000000 0.000000 0.054927 0.000000 0.000000
# 5 0.000000 0.000000 0.000000 0.000000 0.054931 0.000000
# 6 0.000000 0.000000 0.000000 0.000000 0.000000 0.031448
#
#
# Mechanical properties :
#
#
# Convention : Reuss Voigt Hill
#
# Bulk Modulus (GPa) = 22.50630 39.66640 31.08635
# Shear Modulus (GPa) = 17.54010 22.42751 19.98381
#
# Velocity S-wave (km/s) = 3.13424 3.54410 3.34545
# Velocity P-wave (km/s) = 5.06979 6.24203 5.68620
#
# Compressibility (1/GPa) = 0.04443201
#
# Stress axis : x y z
#
# Youngs Moduli (GPa) = 26.23919 26.24132 95.51805
#
# Poissons Ratio (x) = 0.18163 0.67854
# Poissons Ratio (y) = 0.18162 0.67843
# Poissons Ratio (z) = 0.18640 0.18638
#
# Static dielectric constant tensor:
#      x y z
#    x 1.613850 0.000000 0.000000 
#    y 0.000000 1.613850 0.000000 
#    z 0.000000 0.000000 1.664690 
# 
# From -- ./inp_files/3104.got.cif
#   From: 2010.05.17/outbox.cif.g08.bks.cpg/sg138_2_cif.got.tgz:3104.got - 2010.05.20 13:08:53.
