data_PCOD9570529
_publ_section_title
;
Structure prediction by ZEFSAII (Michael W. Deem and Ramdas Pophale) SiO2 
 PCOD9570529
Probable space group: P 42/N M C
;
_chemical_formula_sum "Si O2"
_cell_formula_units_Z 28
_cell_length_a 10.278087
_cell_length_b 10.278087
_cell_length_c 10.588737
_cell_angle_alpha 90.000000
_cell_angle_beta 90.000000
_cell_angle_gamma 90.000000
_cell_volume 1118.584354
_symmetry_space_group_name_H-M "P 42/N M C"
_symmetry_group_IT_number 137
_space_group.IT_coordinate_system_code '2'
_symmetry_cell_setting 'tetragonal'
loop_
_space_group_symop_operation_xyz
x,y,z
1/2-y,x,1/2+z
1/2-x,1/2-y,z
y,1/2-x,1/2+z
1/2+x,-y,-z
-x,1/2+y,-z
1/2+y,1/2+x,1/2-z
-y,-x,1/2-z
-x,-y,-z
1/2+y,-x,1/2-z
1/2+x,1/2+y,-z
-y,1/2+x,1/2-z
1/2-x,y,z
x,1/2-y,z
1/2-y,1/2-x,1/2+z
y,x,1/2+z
loop_
_atom_site_type_symbol
_atom_site_label
_atom_site_fract_x
_atom_site_fract_y
_atom_site_fract_z
Si Si1 0.250000 0.979438 0.870502
Si Si2 0.036014 0.750000 0.211839
Si Si3 0.750000 0.750000 0.175742
Si Si4 0.250000 0.551759 0.582470
O O1 0.250000 0.010627 0.720583
O O2 0.132584 0.885532 0.906878
O O3 0.250000 0.124308 0.918186
O O4 0.124659 0.624659 0.250000
O O5 0.886429 0.750000 0.255305
O O6 0.012268 0.750000 0.061752
#
# Coordination Sequence:
#
# PCOD9570529 Si02
#       4
#     8   8   4   8
#     4   9  20  42  69 104 134 170 241 272 348 409
#     4  11  26  50  69  98 148 184 233 280 354 413
#     4  12  28  42  68 116 134 180 234 296 336 414
#     4   9  20  45  74  92 132 196 216 286 344 410
#
# _framework density 25.031639999999999
#
# number of rings (size 3 to 8) (size 9 to 14) (size 15 to 20)
#    0.000    2.000    0.000    5.143    8.000    3.429 
#   10.286    0.000    0.000    0.000    0.000    0.000 
#    0.000    0.000    0.000    0.000    0.000    0.000 
#
# Total GULP energy -155889.438558 kJ/mol
# GULP energy per Si atom -5567.479948 kJ/mol
# Density = 2.497467 g / cm^3
# Si number density = 25.031640 Si / 1000 Ang^3
#
#
#
# Elastic Constant Matrix: (Units=GPa)
#
#
# Indices 1 2 3 4 5 6 
#
# 1 208.0795 69.3388 10.7736 0.0000 0.0000 0.0000
# 2 69.3388 208.0795 10.7736 0.0000 0.0000 0.0000
# 3 10.7736 10.7736 141.6282 0.0000 0.0000 0.0000
# 4 0.0000 0.0000 0.0000 -10.7127 0.0000 0.0000
# 5 0.0000 0.0000 0.0000 0.0000 -10.7127 0.0000
# 6 0.0000 0.0000 0.0000 0.0000 0.0000 37.3477
#
#
#
# Elastic Compliance Matrix: (Units=1/GPa)
#
#
# Indices 1 2 3 4 5 6 
#
# 1 0.005417 -0.001791 -0.000276 0.000000 0.000000 0.000000
# 2 -0.001791 0.005417 -0.000276 0.000000 0.000000 0.000000
# 3 -0.000276 -0.000276 0.007103 0.000000 0.000000 0.000000
# 4 0.000000 0.000000 0.000000 -0.093347 0.000000 0.000000
# 5 0.000000 0.000000 0.000000 0.000000 -0.093347 0.000000
# 6 0.000000 0.000000 0.000000 0.000000 0.000000 0.026775
#
#
# Mechanical properties :
#
#
# Convention : Reuss Voigt Hill
#
# Bulk Modulus (GPa) = 75.46290 82.17324 78.81807
# Shear Modulus (GPa) = -37.62773 34.31123 -1.65825
#
# Velocity S-wave (km/s) = -3.88133 3.70633 -0.81480
# Velocity P-wave (km/s) = 3.18217 7.15646 5.53810
#
# Compressibility (1/GPa) = 0.01325154
#
# Stress axis : x y z
#
# Youngs Moduli (GPa) = 184.60783 184.60783 140.79139
#
# Poissons Ratio (x) = 0.33060 0.03884
# Poissons Ratio (y) = 0.33060 0.03884
# Poissons Ratio (z) = 0.05092 0.05092
#
# Static dielectric constant tensor:
#      x y z
#    x 2.112810 0.000000 0.000000 
#    y 0.000000 2.112810 0.000000 
#    z 0.000000 0.000000 1.943300 
# 
# From -- ./inp_files/2545.got.cif
#   From: 2010.05.17/outbox.cif.g08.bks.cpg/sg137_2_cif.got.tgz:2545.got - 2010.05.20 13:01:12.
