data_PCOD9570839
_publ_section_title
;
Structure prediction by ZEFSAII (Michael W. Deem and Ramdas Pophale) SiO2 
 PCOD9570839
Probable space group: P 42/N C M
;
_chemical_formula_sum "Si O2"
_cell_formula_units_Z 56
_cell_length_a 20.944719
_cell_length_b 20.944719
_cell_length_c 5.546627
_cell_angle_alpha 90.000000
_cell_angle_beta 90.000000
_cell_angle_gamma 90.000000
_cell_volume 2433.201288
_symmetry_space_group_name_H-M "P 42/N C M"
_symmetry_group_IT_number 138
_space_group.IT_coordinate_system_code '2'
_symmetry_cell_setting 'tetragonal'
loop_
_space_group_symop_operation_xyz
x,y,z
1/2-y,x,1/2+z
1/2-x,1/2-y,z
y,1/2-x,1/2+z
1/2+x,-y,1/2-z
-x,1/2+y,1/2-z
1/2+y,1/2+x,-z
-y,-x,-z
-x,-y,-z
1/2+y,-x,1/2-z
1/2+x,1/2+y,-z
-y,1/2+x,1/2-z
1/2-x,y,1/2+z
x,1/2-y,1/2+z
1/2-y,1/2-x,z
y,x,z
loop_
_atom_site_type_symbol
_atom_site_label
_atom_site_fract_x
_atom_site_fract_y
_atom_site_fract_z
Si Si1 0.617855 0.260455 0.884141
Si Si2 0.975566 0.167532 0.146891
Si Si3 0.112834 0.284713 0.544900
Si Si4 0.027236 0.027236 0.250131
O O1 0.652472 0.244011 0.131356
O O2 0.577536 0.325532 0.933032
O O3 0.563069 0.205662 0.852979
O O4 0.037310 0.205627 0.055829
O O5 0.004546 0.101012 0.235682
O O6 0.131116 0.248846 0.297687
O O7 0.147523 0.352478 0.537904
O O8 0.000000 0.000000 0.500000
O O9 0.000000 0.000000 0.000000
#
# Coordination Sequence:
#
# PCOD9570839 Si02
#       4
#    16  16  16   8
#     4   8  16  30  58  76  87 120 188 249 252 292
#     4  10  20  38  56  77 100 136 206 228 269 347
#     4  12  23  37  55  78 102 142 180 250 301 340
#     4  12  30  38  54  82 125 162 177 230 312 372
#
# _framework density 23.014945999999998
#
# number of rings (size 3 to 8) (size 9 to 14) (size 15 to 20)
#    1.714    0.000    4.286    0.857    4.000    1.714 
#    0.000    0.000    0.000    0.000    0.000    0.000 
#    0.000    0.000    0.000    0.000    0.000   50.000 
#
# Total GULP energy -311780.877951 kJ/mol
# GULP energy per Si atom -5567.515678 kJ/mol
# Density = 2.296256 g / cm^3
# Si number density = 23.014946 Si / 1000 Ang^3
#
#
#
# Elastic Constant Matrix: (Units=GPa)
#
#
# Indices 1 2 3 4 5 6 
#
# 1 3.4078 90.4145 28.8181 0.0000 0.0000 0.0000
# 2 90.4145 3.4078 28.8181 0.0000 0.0000 0.0000
# 3 28.8181 28.8181 176.7572 0.0000 0.0000 0.0000
# 4 0.0000 0.0000 0.0000 23.1310 0.0000 0.0000
# 5 0.0000 0.0000 0.0000 0.0000 23.1310 0.0000
# 6 0.0000 0.0000 0.0000 0.0000 0.0000 41.8266
#
#
#
# Elastic Compliance Matrix: (Units=1/GPa)
#
#
# Indices 1 2 3 4 5 6 
#
# 1 0.000176 0.011669 -0.001931 0.000000 0.000000 0.000000
# 2 0.011669 0.000176 -0.001931 0.000000 0.000000 0.000000
# 3 -0.001931 -0.001931 0.006287 0.000000 0.000000 0.000000
# 4 0.000000 0.000000 0.000000 0.043232 0.000000 0.000000
# 5 0.000000 0.000000 0.000000 0.000000 0.043232 0.000000
# 6 0.000000 0.000000 0.000000 0.000000 0.000000 0.023908
#
#
# Mechanical properties :
#
#
# Convention : Reuss Voigt Hill
#
# Bulk Modulus (GPa) = 44.93947 53.29714 49.11830
# Shear Modulus (GPa) = 45.94973 19.98586 32.96780
#
# Velocity S-wave (km/s) = 4.47309 2.95004 3.78888
# Velocity P-wave (km/s) = 6.80049 5.90013 6.36624
#
# Compressibility (1/GPa) = 0.02225215
#
# Stress axis : x y z
#
# Youngs Moduli (GPa) = 5691.26190 5691.26190 159.05380
#
# Poissons Ratio (x) = -66.41178 0.30716
# Poissons Ratio (y) = -66.41178 0.30716
# Poissons Ratio (z) = 10.99068 10.99068
#
# Static dielectric constant tensor:
#      x y z
#    x 1.879930 0.000000 0.000000 
#    y 0.000000 1.879930 0.000000 
#    z 0.000000 0.000000 1.871370 
# 
# From -- ./inp_files/344.got.cif
#   From: 2010.05.17/outbox.cif.g08.bks.cpg/sg138_1_cif.got.tgz:344.got - 2010.05.20 13:08:53.
