data_PCOD9570266
_publ_section_title
;
Structure prediction by ZEFSAII (Michael W. Deem and Ramdas Pophale) SiO2 
 PCOD9570266
Probable space group: P 42/N M C
;
_chemical_formula_sum "Si O2"
_cell_formula_units_Z 112
_cell_length_a 13.904114
_cell_length_b 13.904114
_cell_length_c 31.437723
_cell_angle_alpha 90.000000
_cell_angle_beta 90.000000
_cell_angle_gamma 90.000000
_cell_volume 6077.678500
_symmetry_space_group_name_H-M "P 42/N M C"
_symmetry_group_IT_number 137
_space_group.IT_coordinate_system_code '2'
_symmetry_cell_setting 'tetragonal'
loop_
_space_group_symop_operation_xyz
x,y,z
1/2-y,x,1/2+z
1/2-x,1/2-y,z
y,1/2-x,1/2+z
1/2+x,-y,-z
-x,1/2+y,-z
1/2+y,1/2+x,1/2-z
-y,-x,1/2-z
-x,-y,-z
1/2+y,-x,1/2-z
1/2+x,1/2+y,-z
-y,1/2+x,1/2-z
1/2-x,y,z
x,1/2-y,z
1/2-y,1/2-x,1/2+z
y,x,1/2+z
loop_
_atom_site_type_symbol
_atom_site_label
_atom_site_fract_x
_atom_site_fract_y
_atom_site_fract_z
Si Si1 0.634626 0.556411 0.335461
Si Si2 0.024344 0.364778 0.746277
Si Si3 0.864488 0.989341 0.588472
Si Si4 0.140161 0.133746 0.830864
Si Si5 0.136512 0.362465 0.494863
Si Si6 0.364566 0.469334 0.082447
Si Si7 0.358811 0.633869 0.797931
O O1 0.750000 0.566588 0.330759
O O2 0.580170 0.610809 0.297232
O O3 0.599325 0.596600 0.380267
O O4 0.608459 0.443407 0.330066
O O5 0.006218 0.250000 0.748558
O O6 0.092050 0.393576 0.786185
O O7 0.927567 0.427567 0.750000
O O8 0.750000 0.008273 0.590783
O O9 0.893165 0.925619 0.629258
O O10 0.883427 0.927876 0.545897
O O11 0.928278 0.084323 0.587562
O O12 0.250000 0.101201 0.834959
O O13 0.142786 0.250000 0.831074
O O14 0.250000 0.371713 0.505075
O O15 0.119241 0.250000 0.484371
O O16 0.075391 0.388006 0.536353
O O17 0.250000 0.476392 0.085882
O O18 0.391252 0.608749 0.750000
O O19 0.250000 0.599880 0.805891
O O20 0.353842 0.750000 0.797518
#
# Coordination Sequence:
#
# PCOD9570266 Si02
#       7
#    16  16  16  16  16  16  16
#     4  11  22  36  57  82 110 147 187 226 271 325
#     4  11  23  38  55  78 110 146 186 228 273 328
#     4  10  20  36  59  83 107 138 178 223 272 326
#     4   9  18  34  56  80 104 131 170 226 283 324
#     4   9  18  35  60  86 110 137 171 219 277 327
#     4  11  23  37  53  78 113 148 185 223 260 315
#     4   8  15  30  52  77 106 140 177 218 267 324
#
# _framework density 18.428090000000001
#
# number of rings (size 3 to 8) (size 9 to 14) (size 15 to 20)
#    0.000    2.143    0.000    3.857    0.000    4.429 
#    0.000    5.000    0.000    5.143    0.000    2.000 
#    0.000    0.000    0.000    0.000    0.000    0.000 
#
# Total GULP energy -625561.430119 kJ/mol
# GULP energy per Si atom -5585.369912 kJ/mol
# Density = 1.838615 g / cm^3
# Si number density = 18.428090 Si / 1000 Ang^3
#
#
#
# Elastic Constant Matrix: (Units=GPa)
#
#
# Indices 1 2 3 4 5 6 
#
# 1 88.2510 30.8141 30.7577 0.0000 0.0000 0.0000
# 2 30.8141 88.2507 30.7576 0.0000 0.0000 0.0000
# 3 30.7577 30.7576 83.0715 0.0000 0.0000 0.0000
# 4 0.0000 0.0000 0.0000 26.8829 0.0000 0.0000
# 5 0.0000 0.0000 0.0000 0.0000 26.8829 0.0000
# 6 0.0000 0.0000 0.0000 0.0000 0.0000 30.7828
#
#
#
# Elastic Compliance Matrix: (Units=1/GPa)
#
#
# Indices 1 2 3 4 5 6 
#
# 1 0.013898 -0.003513 -0.003845 0.000000 0.000000 0.000000
# 2 -0.003513 0.013898 -0.003845 0.000000 0.000000 0.000000
# 3 -0.003845 -0.003845 0.014885 0.000000 0.000000 0.000000
# 4 0.000000 0.000000 0.000000 0.037198 0.000000 0.000000
# 5 0.000000 0.000000 0.000000 0.000000 0.037198 0.000000
# 6 0.000000 0.000000 0.000000 0.000000 0.000000 0.032486
#
#
# Mechanical properties :
#
#
# Convention : Reuss Voigt Hill
#
# Bulk Modulus (GPa) = 49.32157 49.35913 49.34035
# Shear Modulus (GPa) = 27.97545 28.05929 28.01737
#
# Velocity S-wave (km/s) = 3.90049 3.90633 3.90341
# Velocity P-wave (km/s) = 6.86349 6.86941 6.86645
#
# Compressibility (1/GPa) = 0.02027511
#
# Stress axis : x y z
#
# Youngs Moduli (GPa) = 71.95312 71.95294 67.18041
#
# Poissons Ratio (x) = 0.25274 0.25833
# Poissons Ratio (y) = 0.25274 0.25833
# Poissons Ratio (z) = 0.27668 0.27668
#
# Static dielectric constant tensor:
#      x y z
#    x 1.640520 0.000000 0.000000 
#    y 0.000000 1.640520 0.000000 
#    z 0.000000 0.000000 1.607220 
# 
# From -- ./inp_files/9811.got.cif
#   From: 2010.05.17/outbox.cif.g08.bks.cpg/sg137_5_cif.got.tgz:9811.got - 2010.05.20 13:01:12.
