data_PCOD9570441
_publ_section_title
;
Structure prediction by ZEFSAII (Michael W. Deem and Ramdas Pophale) SiO2 
 PCOD9570441
Probable space group: P 42/N M C
;
_chemical_formula_sum "Si O2"
_cell_formula_units_Z 96
_cell_length_a 20.107964
_cell_length_b 20.107964
_cell_length_c 11.636865
_cell_angle_alpha 90.000000
_cell_angle_beta 90.000000
_cell_angle_gamma 90.000000
_cell_volume 4705.136142
_symmetry_space_group_name_H-M "P 42/N M C"
_symmetry_group_IT_number 137
_space_group.IT_coordinate_system_code '2'
_symmetry_cell_setting 'tetragonal'
loop_
_space_group_symop_operation_xyz
x,y,z
1/2-y,x,1/2+z
1/2-x,1/2-y,z
y,1/2-x,1/2+z
1/2+x,-y,-z
-x,1/2+y,-z
1/2+y,1/2+x,1/2-z
-y,-x,1/2-z
-x,-y,-z
1/2+y,-x,1/2-z
1/2+x,1/2+y,-z
-y,1/2+x,1/2-z
1/2-x,y,z
x,1/2-y,z
1/2-y,1/2-x,1/2+z
y,x,1/2+z
loop_
_atom_site_type_symbol
_atom_site_label
_atom_site_fract_x
_atom_site_fract_y
_atom_site_fract_z
Si Si1 0.964822 0.175763 0.177012
Si Si2 0.827644 0.597862 0.448293
Si Si3 0.005295 0.169945 0.837843
Si Si4 0.826366 0.146229 0.618532
Si Si5 0.329129 0.458033 0.082316
Si Si6 0.424773 0.860644 0.570738
O O1 0.949627 0.250000 0.129088
O O2 0.924060 0.118102 0.113060
O O3 0.943285 0.174696 0.309599
O O4 0.042997 0.166052 0.153285
O O5 0.750000 0.617752 0.454882
O O6 0.846935 0.557546 0.563746
O O7 0.880529 0.655825 0.434520
O O8 0.004656 0.250000 0.833239
O O9 0.930615 0.151287 0.869816
O O10 0.023481 0.147664 0.710657
O O11 0.828848 0.171153 0.750000
O O12 0.750000 0.152567 0.580316
O O13 0.876725 0.174519 0.523519
O O14 0.250000 0.471186 0.069641
O O15 0.368616 0.505529 0.994959
#
# Coordination Sequence:
#
# PCOD9570441 Si02
#       6
#    16  16  16  16  16  16
#     4  10  22  41  63  90 125 168 211 256 313 376
#     4  10  22  42  67  91 123 167 211 258 318 382
#     4   9  19  39  62  87 120 161 203 252 315 371
#     4  11  21  38  63  90 123 165 210 261 318 375
#     4  11  24  40  63  94 128 163 206 261 316 373
#     4  11  22  38  64  93 125 166 209 259 314 374
#
# _framework density 20.403234000000001
#
# number of rings (size 3 to 8) (size 9 to 14) (size 15 to 20)
#    0.000    1.667    3.333    1.000    2.333    1.833 
#    0.000    0.000    0.000   21.500    0.000    0.000 
#    0.000    0.000    0.000    0.000    0.000    0.000 
#
# Total GULP energy -535484.877634 kJ/mol
# GULP energy per Si atom -5577.967475 kJ/mol
# Density = 2.035680 g / cm^3
# Si number density = 20.403234 Si / 1000 Ang^3
#
#
#
# Elastic Constant Matrix: (Units=GPa)
#
#
# Indices 1 2 3 4 5 6 
#
# 1 70.5285 27.1963 28.5705 0.0000 0.0000 0.0000
# 2 27.1963 70.5291 28.5702 0.0000 0.0000 0.0000
# 3 28.5705 28.5702 125.0987 0.0000 0.0000 0.0000
# 4 0.0000 0.0000 0.0000 13.8891 0.0000 0.0000
# 5 0.0000 0.0000 0.0000 0.0000 13.8891 0.0000
# 6 0.0000 0.0000 0.0000 0.0000 0.0000 23.6385
#
#
#
# Elastic Compliance Matrix: (Units=1/GPa)
#
#
# Indices 1 2 3 4 5 6 
#
# 1 0.017444 -0.005634 -0.002697 0.000000 0.000000 0.000000
# 2 -0.005634 0.017443 -0.002697 0.000000 0.000000 0.000000
# 3 -0.002697 -0.002697 0.009226 0.000000 0.000000 0.000000
# 4 0.000000 0.000000 0.000000 0.071999 0.000000 0.000000
# 5 0.000000 0.000000 0.000000 0.000000 0.071999 0.000000
# 6 0.000000 0.000000 0.000000 0.000000 0.000000 0.042304
#
#
# Mechanical properties :
#
#
# Convention : Reuss Voigt Hill
#
# Bulk Modulus (GPa) = 45.33768 48.31444 46.82606
# Shear Modulus (GPa) = 19.24386 22.40463 20.82424
#
# Velocity S-wave (km/s) = 3.07445 3.31734 3.19820
# Velocity P-wave (km/s) = 5.90526 6.19711 6.05294
#
# Compressibility (1/GPa) = 0.02205671
#
# Stress axis : x y z
#
# Youngs Moduli (GPa) = 57.32726 57.32796 108.39336
#
# Poissons Ratio (x) = 0.32297 0.29236
# Poissons Ratio (y) = 0.32297 0.29235
# Poissons Ratio (z) = 0.15462 0.15462
#
# Static dielectric constant tensor:
#      x y z
#    x 1.720990 0.000000 0.000000 
#    y 0.000000 1.720990 0.000000 
#    z 0.000000 0.000000 1.763740 
# 
# From -- ./inp_files/3745.got.cif
#   From: 2010.05.17/outbox.cif.g08.bks.cpg/sg137_2_cif.got.tgz:3745.got - 2010.05.20 13:01:12.
