data_PCOD9570914
_publ_section_title
;
Structure prediction by ZEFSAII (Michael W. Deem and Ramdas Pophale) SiO2 
 PCOD9570914
Probable space group: P 42/N C M
;
_chemical_formula_sum "Si O2"
_cell_formula_units_Z 92
_cell_length_a 14.754842
_cell_length_b 14.754842
_cell_length_c 22.136013
_cell_angle_alpha 90.000000
_cell_angle_beta 90.000000
_cell_angle_gamma 90.000000
_cell_volume 4819.128733
_symmetry_space_group_name_H-M "P 42/N C M"
_symmetry_group_IT_number 138
_space_group.IT_coordinate_system_code '2'
_symmetry_cell_setting 'tetragonal'
loop_
_space_group_symop_operation_xyz
x,y,z
1/2-y,x,1/2+z
1/2-x,1/2-y,z
y,1/2-x,1/2+z
1/2+x,-y,1/2-z
-x,1/2+y,1/2-z
1/2+y,1/2+x,-z
-y,-x,-z
-x,-y,-z
1/2+y,-x,1/2-z
1/2+x,1/2+y,-z
-y,1/2+x,1/2-z
1/2-x,y,1/2+z
x,1/2-y,1/2+z
1/2-y,1/2-x,z
y,x,z
loop_
_atom_site_type_symbol
_atom_site_label
_atom_site_fract_x
_atom_site_fract_y
_atom_site_fract_z
Si Si1 0.626734 0.626734 0.902685
Si Si2 0.750000 0.250000 0.250000
Si Si3 0.306246 0.039889 0.154389
Si Si4 0.484890 0.484890 0.851392
Si Si5 0.812077 0.445662 0.716158
Si Si6 0.201099 0.439323 0.879244
Si Si7 0.630042 0.630042 0.049192
Si Si8 0.583458 0.435557 0.436006
O O1 0.594638 0.721839 0.873386
O O2 0.553776 0.553776 0.881083
O O3 0.626693 0.626693 0.976285
O O4 0.840742 0.281953 0.285249
O O5 0.389074 0.110927 0.162404
O O6 0.295774 0.987644 0.217617
O O7 0.334918 0.962282 0.106779
O O8 0.413675 0.537807 0.808458
O O9 0.433862 0.433862 0.907640
O O10 0.754317 0.507442 0.671430
O O11 0.143652 0.356349 0.853101
O O12 0.269674 0.398705 0.928800
O O13 0.131347 0.511401 0.906475
O O14 0.607253 0.392748 0.500000
O O15 0.531039 0.531039 0.447014
#
# Coordination Sequence:
#
# PCOD9570914 Si02
#       8
#     8   4  16   8  16  16   8  16
#     4  12  24  38  63  95 126 168 214 273 344 383
#     4  12  24  40  64  92 122 168 212 280 312 398
#     4  11  23  39  59  91 130 165 204 274 329 393
#     4  10  23  44  64  84 125 177 216 269 327 403
#     4  11  23  42  62  89 127 166 222 265 328 398
#     4  10  21  37  63  90 120 170 209 263 320 393
#     4  10  22  40  61  93 128 165 218 270 322 400
#     4   9  18  34  56  82 116 157 200 246 310 378
#
# _framework density 19.090589000000001
#
# number of rings (size 3 to 8) (size 9 to 14) (size 15 to 20)
#    0.000    1.565    0.870    3.913    1.217    2.783 
#    1.565    0.000    0.000    0.000    0.000    7.304 
#    0.000    0.000    0.000    0.000    0.000    0.000 
#
# Total GULP energy -513171.217343 kJ/mol
# GULP energy per Si atom -5577.948015 kJ/mol
# Density = 1.904714 g / cm^3
# Si number density = 19.090589 Si / 1000 Ang^3
#
#
#
# Elastic Constant Matrix: (Units=GPa)
#
#
# Indices 1 2 3 4 5 6 
#
# 1 112.0488 44.4420 48.6245 0.0000 0.0000 0.0000
# 2 44.4420 112.0492 48.6247 0.0000 0.0000 0.0000
# 3 48.6245 48.6247 141.7298 0.0000 0.0000 0.0000
# 4 0.0000 0.0000 0.0000 1.1589 0.0000 0.0000
# 5 0.0000 0.0000 0.0000 0.0000 1.1568 0.0000
# 6 0.0000 0.0000 0.0000 0.0000 0.0000 39.9571
#
#
#
# Elastic Compliance Matrix: (Units=1/GPa)
#
#
# Indices 1 2 3 4 5 6 
#
# 1 0.011457 -0.003335 -0.002786 0.000000 0.000000 0.000000
# 2 -0.003335 0.011457 -0.002786 0.000000 0.000000 0.000000
# 3 -0.002786 -0.002786 0.008968 0.000000 0.000000 0.000000
# 4 0.000000 0.000000 0.000000 0.862875 0.000000 0.000000
# 5 0.000000 0.000000 0.000000 0.000000 0.864475 0.000000
# 6 0.000000 0.000000 0.000000 0.000000 0.000000 0.025027
#
#
# Mechanical properties :
#
#
# Convention : Reuss Voigt Hill
#
# Bulk Modulus (GPa) = 71.09626 72.13447 71.61537
# Shear Modulus (GPa) = 2.76738 23.39698 13.08218
#
# Velocity S-wave (km/s) = 1.20530 3.50462 2.62060
# Velocity P-wave (km/s) = 6.26573 7.36504 6.83752
#
# Compressibility (1/GPa) = 0.01406544
#
# Stress axis : x y z
#
# Youngs Moduli (GPa) = 87.28619 87.28646 111.51262
#
# Poissons Ratio (x) = 0.29109 0.31072
# Poissons Ratio (y) = 0.29108 0.31072
# Poissons Ratio (z) = 0.24321 0.24321
#
# Static dielectric constant tensor:
#      x y z
#    x 1.700310 0.000000 0.000000 
#    y 0.000000 1.700320 0.000000 
#    z 0.000000 0.000000 1.590660 
# 
# From -- ./inp_files/6324.got.cif
#   From: 2010.05.17/outbox.cif.g08.bks.cpg/sg138_4_cif.got.tgz:6324.got - 2010.05.20 13:08:53.
