data_PCOD9570471
_publ_section_title
;
Structure prediction by ZEFSAII (Michael W. Deem and Ramdas Pophale) SiO2 
 PCOD9570471
Probable space group: P 42/N M C
;
_chemical_formula_sum "Si O2"
_cell_formula_units_Z 42
_cell_length_a 13.920759
_cell_length_b 13.920759
_cell_length_c 9.371034
_cell_angle_alpha 90.000000
_cell_angle_beta 90.000000
_cell_angle_gamma 90.000000
_cell_volume 1815.989543
_symmetry_space_group_name_H-M "P 42/N M C"
_symmetry_group_IT_number 137
_space_group.IT_coordinate_system_code '2'
_symmetry_cell_setting 'tetragonal'
loop_
_space_group_symop_operation_xyz
x,y,z
1/2-y,x,1/2+z
1/2-x,1/2-y,z
y,1/2-x,1/2+z
1/2+x,-y,-z
-x,1/2+y,-z
1/2+y,1/2+x,1/2-z
-y,-x,1/2-z
-x,-y,-z
1/2+y,-x,1/2-z
1/2+x,1/2+y,-z
-y,1/2+x,1/2-z
1/2-x,y,z
x,1/2-y,z
1/2-y,1/2-x,1/2+z
y,x,1/2+z
loop_
_atom_site_type_symbol
_atom_site_label
_atom_site_fract_x
_atom_site_fract_y
_atom_site_fract_z
Si Si1 0.096603 0.015163 0.138503
Si Si2 0.250000 0.750000 0.750000
Si Si3 0.143016 0.139179 0.394620
Si Si4 0.250000 0.639343 0.034709
O O1 0.149394 0.093182 0.238906
O O2 0.159679 0.922780 0.090787
O O3 0.077011 0.074755 0.996370
O O4 0.016516 0.983485 0.250000
O O5 0.159903 0.750000 0.638089
O O6 0.250000 0.138986 0.455998
O O7 0.108090 0.250000 0.390720
O O8 0.250000 0.750000 0.088867
#
# Coordination Sequence:
#
# PCOD9570471 Si02
#       4
#    16   2  16   8
#     4  12  25  45  69 113 151 193 255 311 373 448
#     4   8  24  52  74 104 132 204 242 296 380 432
#     4  11  23  46  75 106 151 198 249 312 377 442
#     4  10  24  47  75 100 145 199 250 302 371 442
#
# _framework density 23.127886
#
# number of rings (size 3 to 8) (size 9 to 14) (size 15 to 20)
#    0.571    0.381    3.810    2.286    2.667    3.048 
#   10.286    0.000    0.000    0.000    0.000    0.000 
#    0.000    0.000    0.000    0.000    0.000    0.000 
#
# Total GULP energy -234146.654386 kJ/mol
# GULP energy per Si atom -5574.920343 kJ/mol
# Density = 2.307525 g / cm^3
# Si number density = 23.127886 Si / 1000 Ang^3
#
#
#
# Elastic Constant Matrix: (Units=GPa)
#
#
# Indices 1 2 3 4 5 6 
#
# 1 61.0614 12.2570 48.1360 0.0000 0.0000 0.0000
# 2 12.2570 61.0621 48.1349 0.0000 0.0000 0.0000
# 3 48.1360 48.1349 191.5149 0.0000 0.0000 0.0000
# 4 0.0000 0.0000 0.0000 45.8074 0.0000 0.0000
# 5 0.0000 0.0000 0.0000 0.0000 45.8078 0.0000
# 6 0.0000 0.0000 0.0000 0.0000 0.0000 -122.7080
#
#
#
# Elastic Compliance Matrix: (Units=1/GPa)
#
#
# Indices 1 2 3 4 5 6 
#
# 1 0.020424 -0.000066 -0.005117 0.000000 0.000000 0.000000
# 2 -0.000066 0.020423 -0.005117 0.000000 0.000000 0.000000
# 3 -0.005117 -0.005117 0.007794 0.000000 0.000000 0.000000
# 4 0.000000 0.000000 0.000000 0.021831 0.000000 0.000000
# 5 0.000000 0.000000 0.000000 0.000000 0.021830 0.000000
# 6 0.000000 0.000000 0.000000 0.000000 0.000000 -0.008149
#
#
# Mechanical properties :
#
#
# Convention : Reuss Voigt Hill
#
# Bulk Modulus (GPa) = 35.66090 58.96602 47.31346
# Shear Modulus (GPa) = 43.82177 7.45550 25.63863
#
# Velocity S-wave (km/s) = 4.35761 1.79739 3.33312
# Velocity P-wave (km/s) = 6.38520 5.46429 5.94261
#
# Compressibility (1/GPa) = 0.02804192
#
# Stress axis : x y z
#
# Youngs Moduli (GPa) = 48.96224 48.96345 128.31088
#
# Poissons Ratio (x) = 0.00324 0.65654
# Poissons Ratio (y) = 0.00324 0.65651
# Poissons Ratio (z) = 0.25053 0.25052
#
# Static dielectric constant tensor:
#      x y z
#    x 1.946340 0.000000 0.000000 
#    y 0.000000 1.946340 0.000000 
#    z 0.000000 0.000000 1.815580 
# 
# From -- ./inp_files/1117.got.cif
#   From: 2010.05.17/outbox.cif.g08.bks.cpg/sg137_1_cif.got.tgz:1117.got - 2010.05.20 13:01:12.
