data_PCOD9570520
_publ_section_title
;
Structure prediction by ZEFSAII (Michael W. Deem and Ramdas Pophale) SiO2 
 PCOD9570520
Probable space group: P 42/N M C
;
_chemical_formula_sum "Si O2"
_cell_formula_units_Z 84
_cell_length_a 11.699662
_cell_length_b 11.699662
_cell_length_c 32.650783
_cell_angle_alpha 90.000000
_cell_angle_beta 90.000000
_cell_angle_gamma 90.000000
_cell_volume 4469.307447
_symmetry_space_group_name_H-M "P 42/N M C"
_symmetry_group_IT_number 137
_space_group.IT_coordinate_system_code '2'
_symmetry_cell_setting 'tetragonal'
loop_
_space_group_symop_operation_xyz
x,y,z
1/2-y,x,1/2+z
1/2-x,1/2-y,z
y,1/2-x,1/2+z
1/2+x,-y,-z
-x,1/2+y,-z
1/2+y,1/2+x,1/2-z
-y,-x,1/2-z
-x,-y,-z
1/2+y,-x,1/2-z
1/2+x,1/2+y,-z
-y,1/2+x,1/2-z
1/2-x,y,z
x,1/2-y,z
1/2-y,1/2-x,1/2+z
y,x,1/2+z
loop_
_atom_site_type_symbol
_atom_site_label
_atom_site_fract_x
_atom_site_fract_y
_atom_site_fract_z
Si Si1 0.987844 0.614899 0.287131
Si Si2 0.878111 0.876380 0.978119
Si Si3 0.991744 0.250000 0.228577
Si Si4 0.750000 0.250000 0.317231
Si Si5 0.118410 0.017419 0.353413
Si Si6 0.120635 0.945011 0.446904
Si Si7 0.002311 0.750000 0.672769
O O1 0.979041 0.750000 0.282431
O O2 0.863655 0.556744 0.285431
O O3 0.060340 0.560340 0.250000
O O4 0.049778 0.579667 0.329111
O O5 0.750000 0.874802 0.994859
O O6 0.895652 0.750000 0.957128
O O7 0.886598 0.995501 0.952933
O O8 0.964880 0.879324 0.015932
O O9 0.989057 0.250000 0.277841
O O10 0.865334 0.250000 0.209655
O O11 0.632841 0.250000 0.342544
O O12 0.250000 0.015489 0.339791
O O13 0.062748 0.137482 0.341296
O O14 0.115683 0.999601 0.401961
O O15 0.250000 0.888763 0.449107
#
# Coordination Sequence:
#
# PCOD9570520 Si02
#       7
#    16  16   8   4  16  16   8
#     4  12  25  41  61  87 122 162 205 254 303 361
#     4   9  18  36  62  88 117 154 193 239 297 358
#     4  12  22  42  65  91 116 157 212 254 314 356
#     4  12  21  40  68  88 120 164 204 264 308 364
#     4  11  24  40  61  90 122 159 203 253 304 360
#     4   9  20  38  60  88 120 153 196 244 294 361
#     4  12  22  38  63  89 120 153 202 260 314 358
#
# _framework density 18.794857
#
# number of rings (size 3 to 8) (size 9 to 14) (size 15 to 20)
#    0.000    1.333    3.810    2.000    1.333    3.238 
#    3.429    1.905    0.000    0.000    0.000    0.000 
#    0.000    0.000    0.000    0.000    0.000    0.000 
#
# Total GULP energy -468294.100238 kJ/mol
# GULP energy per Si atom -5574.929765 kJ/mol
# Density = 1.875208 g / cm^3
# Si number density = 18.794857 Si / 1000 Ang^3
#
#
#
# Elastic Constant Matrix: (Units=GPa)
#
#
# Indices 1 2 3 4 5 6 
#
# 1 161.0149 62.8471 25.2797 0.0000 0.0000 0.0000
# 2 62.8471 161.0149 25.2797 0.0000 0.0000 0.0000
# 3 25.2797 25.2797 48.9913 0.0000 0.0000 0.0000
# 4 0.0000 0.0000 0.0000 -78.6769 0.0000 0.0000
# 5 0.0000 0.0000 0.0000 0.0000 -78.6769 0.0000
# 6 0.0000 0.0000 0.0000 0.0000 0.0000 -33.9861
#
#
#
# Elastic Compliance Matrix: (Units=1/GPa)
#
#
# Indices 1 2 3 4 5 6 
#
# 1 0.007621 -0.002565 -0.002609 0.000000 0.000000 0.000000
# 2 -0.002565 0.007621 -0.002609 0.000000 0.000000 0.000000
# 3 -0.002609 -0.002609 0.023104 0.000000 0.000000 0.000000
# 4 0.000000 0.000000 0.000000 -0.012710 0.000000 0.000000
# 5 0.000000 0.000000 0.000000 0.000000 -0.012710 0.000000
# 6 0.000000 0.000000 0.000000 0.000000 0.000000 -0.029424
#
#
# Mechanical properties :
#
#
# Convention : Reuss Voigt Hill
#
# Bulk Modulus (GPa) = 43.89686 66.42603 55.16145
# Shear Modulus (GPa) = 750.37612 -21.09369 364.64121
#
# Velocity S-wave (km/s) = 20.00280 -3.35373 13.94390
# Velocity P-wave (km/s) = 23.59850 4.51915 16.98988
#
# Compressibility (1/GPa) = 0.02278067
#
# Stress axis : x y z
#
# Youngs Moduli (GPa) = 131.20830 131.20830 43.28186
#
# Poissons Ratio (x) = 0.33657 0.11293
# Poissons Ratio (y) = 0.33657 0.11293
# Poissons Ratio (z) = 0.34233 0.34233
#
# Static dielectric constant tensor:
#      x y z
#    x 1.676400 0.000000 0.000000 
#    y 0.000000 1.676400 0.000000 
#    z 0.000000 0.000000 1.608640 
# 
# From -- ./inp_files/10505.got.cif
#   From: 2010.05.17/outbox.cif.g08.bks.cpg/sg137_6_cif.got.tgz:10505.got - 2010.05.20 13:01:12.
