data_PCOD9570176
_publ_section_title
;
Structure prediction by ZEFSAII (Michael W. Deem and Ramdas Pophale) SiO2 
 PCOD9570176
Probable space group: P 42/N M C
;
_chemical_formula_sum "Si O2"
_cell_formula_units_Z 96
_cell_length_a 13.640331
_cell_length_b 13.640331
_cell_length_c 19.289195
_cell_angle_alpha 90.000000
_cell_angle_beta 90.000000
_cell_angle_gamma 90.000000
_cell_volume 3588.921191
_symmetry_space_group_name_H-M "P 42/N M C"
_symmetry_group_IT_number 137
_space_group.IT_coordinate_system_code '2'
_symmetry_cell_setting 'tetragonal'
loop_
_space_group_symop_operation_xyz
x,y,z
1/2-y,x,1/2+z
1/2-x,1/2-y,z
y,1/2-x,1/2+z
1/2+x,-y,-z
-x,1/2+y,-z
1/2+y,1/2+x,1/2-z
-y,-x,1/2-z
-x,-y,-z
1/2+y,-x,1/2-z
1/2+x,1/2+y,-z
-y,1/2+x,1/2-z
1/2-x,y,z
x,1/2-y,z
1/2-y,1/2-x,1/2+z
y,x,1/2+z
loop_
_atom_site_type_symbol
_atom_site_label
_atom_site_fract_x
_atom_site_fract_y
_atom_site_fract_z
Si Si1 0.640535 0.141116 0.649031
Si Si2 0.641386 0.017712 0.463830
Si Si3 0.424085 0.360904 0.629821
Si Si4 0.140458 0.129338 0.929433
Si Si5 0.133559 0.867634 0.829402
Si Si6 0.363488 0.428829 0.284442
O O1 0.750000 0.140950 0.617362
O O2 0.633388 0.250000 0.683975
O O3 0.538866 0.137492 0.606529
O O4 0.636926 0.042669 0.693537
O O5 0.750000 0.055395 0.481147
O O6 0.645555 0.920074 0.418158
O O7 0.598898 0.961115 0.531836
O O8 0.597094 0.089436 0.404424
O O9 0.393463 0.250000 0.631335
O O10 0.419309 0.402867 0.707380
O O11 0.250000 0.101237 0.955787
O O12 0.137035 0.250000 0.930203
O O13 0.130598 0.095966 0.849263
O O14 0.102445 0.897556 0.750000
O O15 0.250000 0.882135 0.832384
O O16 0.114088 0.750000 0.830869
O O17 0.250000 0.398526 0.279392
#
# Coordination Sequence:
#
# PCOD9570176 Si02
#       6
#    16  16  16  16  16  16
#     4   9  18  34  56  80 107 141 183 235 292 342
#     4  10  20  34  55  82 111 147 189 229 274 334
#     4  10  20  32  51  82 114 143 182 233 282 332
#     4   9  18  34  54  76 111 159 198 228 274 336
#     4   8  15  30  52  77 106 141 182 231 285 335
#     4   9  18  32  51  77 106 141 188 235 281 334
#
# _framework density 26.748985999999999
#
# number of rings (size 3 to 8) (size 9 to 14) (size 15 to 20)
#    0.000    2.833    0.000    1.500    0.000    5.000 
#    0.000    8.333    0.000    6.000    0.000    0.000 
#    0.000    0.000    0.000    0.000    0.000    0.000 
#
# Total GULP energy -535132.603323 kJ/mol
# GULP energy per Si atom -5574.297951 kJ/mol
# Density = 2.668810 g / cm^3
# Si number density = 26.748986 Si / 1000 Ang^3
#
#
#
# Elastic Constant Matrix: (Units=GPa)
#
#
# Indices 1 2 3 4 5 6 
#
# 1 75.5609 3.2356 29.5727 0.0000 0.0000 0.0000
# 2 3.2356 75.5617 29.5728 0.0000 0.0000 0.0000
# 3 29.5727 29.5728 131.2486 0.0000 0.0000 0.0000
# 4 0.0000 0.0000 0.0000 -26.6524 0.0000 0.0000
# 5 0.0000 0.0000 0.0000 0.0000 -26.6535 0.0000
# 6 0.0000 0.0000 0.0000 0.0000 0.0000 12.4898
#
#
#
# Elastic Compliance Matrix: (Units=1/GPa)
#
#
# Indices 1 2 3 4 5 6 
#
# 1 0.014550 0.000724 -0.003442 0.000000 0.000000 0.000000
# 2 0.000724 0.014550 -0.003442 0.000000 0.000000 0.000000
# 3 -0.003442 -0.003442 0.009170 0.000000 0.000000 0.000000
# 4 0.000000 0.000000 0.000000 -0.037520 0.000000 0.000000
# 5 0.000000 0.000000 0.000000 0.000000 -0.037519 0.000000
# 6 0.000000 0.000000 0.000000 0.000000 0.000000 0.080065
#
#
# Mechanical properties :
#
#
# Convention : Reuss Voigt Hill
#
# Bulk Modulus (GPa) = 38.53260 45.23707 41.88484
# Shear Modulus (GPa) = 77.80175 6.50281 42.15228
#
# Velocity S-wave (km/s) = 5.39898 1.56087 3.97400
# Velocity P-wave (km/s) = 7.30081 4.49409 6.06213
#
# Compressibility (1/GPa) = 0.02595205
#
# Stress axis : x y z
#
# Youngs Moduli (GPa) = 68.72710 68.72785 109.05107
#
# Poissons Ratio (x) = -0.04975 0.37531
# Poissons Ratio (y) = -0.04975 0.37530
# Poissons Ratio (z) = 0.23653 0.23653
#
# Static dielectric constant tensor:
#      x y z
#    x 2.104320 0.000000 0.000000 
#    y 0.000000 2.104320 0.000000 
#    z 0.000000 0.000000 2.182050 
# 
# From -- ./inp_files/7875.got.cif
#   From: 2010.05.17/outbox.cif.g08.bks.cpg/sg137_4_cif.got.tgz:7875.got - 2010.05.20 13:01:12.
