data_PCOD9570538
_publ_section_title
;
Structure prediction by ZEFSAII (Michael W. Deem and Ramdas Pophale) SiO2 
 PCOD9570538
Probable space group: P 42/N M C
;
_chemical_formula_sum "Si O2"
_cell_formula_units_Z 32
_cell_length_a 9.321981
_cell_length_b 9.321981
_cell_length_c 16.773221
_cell_angle_alpha 90.000000
_cell_angle_beta 90.000000
_cell_angle_gamma 90.000000
_cell_volume 1457.581663
_symmetry_space_group_name_H-M "P 42/N M C"
_symmetry_group_IT_number 137
_space_group.IT_coordinate_system_code '2'
_symmetry_cell_setting 'tetragonal'
loop_
_space_group_symop_operation_xyz
x,y,z
1/2-y,x,1/2+z
1/2-x,1/2-y,z
y,1/2-x,1/2+z
1/2+x,-y,-z
-x,1/2+y,-z
1/2+y,1/2+x,1/2-z
-y,-x,1/2-z
-x,-y,-z
1/2+y,-x,1/2-z
1/2+x,1/2+y,-z
-y,1/2+x,1/2-z
1/2-x,y,z
x,1/2-y,z
1/2-y,1/2-x,1/2+z
y,x,1/2+z
loop_
_atom_site_type_symbol
_atom_site_label
_atom_site_fract_x
_atom_site_fract_y
_atom_site_fract_z
Si Si1 0.972664 0.084653 0.338635
Si Si2 0.074954 0.250000 0.049425
Si Si3 0.923654 0.250000 0.876408
O O1 0.909019 0.090982 0.250000
O O2 0.990709 0.250000 0.366995
O O3 0.881507 0.990634 0.400507
O O4 0.116632 0.994600 0.332643
O O5 0.250000 0.250000 0.045054
O O6 0.997188 0.250000 0.964098
O O7 0.750000 0.250000 0.879432
#
# Coordination Sequence:
#
# PCOD9570538 Si02
#       3
#    16   8   8
#     4  12  26  45  75 107 150 198 253 310 380 447
#     4  12  26  48  76 110 149 200 251 307 377 450
#     4  12  28  48  74 108 153 194 251 313 375 452
#
# _framework density 21.954173000000001
#
# number of rings (size 3 to 8) (size 9 to 14) (size 15 to 20)
#    0.000    0.000    2.500    7.500    7.000    0.000 
#    0.000    0.000    0.000    0.000    0.000    0.000 
#    0.000    0.000    0.000    0.000    0.000    0.000 
#
# Total GULP energy -178820.304453 kJ/mol
# GULP energy per Si atom -5588.134514 kJ/mol
# Density = 2.190420 g / cm^3
# Si number density = 21.954173 Si / 1000 Ang^3
#
#
#
# Elastic Constant Matrix: (Units=GPa)
#
#
# Indices 1 2 3 4 5 6 
#
# 1 217.7208 68.3973 27.0032 0.0000 0.0000 0.0000
# 2 68.3973 217.7213 27.0032 0.0000 0.0000 0.0000
# 3 27.0032 27.0032 95.2906 0.0000 0.0000 0.0000
# 4 0.0000 0.0000 0.0000 -18.0138 0.0000 0.0000
# 5 0.0000 0.0000 0.0000 0.0000 -18.0369 0.0000
# 6 0.0000 0.0000 0.0000 0.0000 0.0000 32.3867
#
#
#
# Elastic Compliance Matrix: (Units=1/GPa)
#
#
# Indices 1 2 3 4 5 6 
#
# 1 0.005195 -0.001502 -0.001046 0.000000 0.000000 0.000000
# 2 -0.001502 0.005195 -0.001046 0.000000 0.000000 0.000000
# 3 -0.001046 -0.001046 0.011087 0.000000 0.000000 0.000000
# 4 0.000000 0.000000 0.000000 -0.055513 0.000000 0.000000
# 5 0.000000 0.000000 0.000000 0.000000 -0.055442 0.000000
# 6 0.000000 0.000000 0.000000 0.000000 0.000000 0.030877
#
#
# Mechanical properties :
#
#
# Convention : Reuss Voigt Hill
#
# Bulk Modulus (GPa) = 69.99449 86.17111 78.08280
# Shear Modulus (GPa) = -107.18326 26.48913 -40.34707
#
# Velocity S-wave (km/s) = -6.99481 3.47733 -4.29159
# Velocity P-wave (km/s) = 5.76933 7.44702 3.32964
#
# Compressibility (1/GPa) = 0.01428684
#
# Stress axis : x y z
#
# Youngs Moduli (GPa) = 192.50318 192.50362 90.19359
#
# Poissons Ratio (x) = 0.28917 0.09438
# Poissons Ratio (y) = 0.28917 0.09438
# Poissons Ratio (z) = 0.20143 0.20143
#
# Static dielectric constant tensor:
#      x y z
#    x 2.116710 0.000000 0.000000 
#    y 0.000000 2.116440 0.000000 
#    z 0.000000 0.000000 1.785490 
# 
# From -- ./inp_files/6942.got.cif
#   From: 2010.05.17/outbox.cif.g08.bks.cpg/sg137_4_cif.got.tgz:6942.got - 2010.05.20 13:01:12.
