data_PCOD9570997
_publ_section_title
;
Structure prediction by ZEFSAII (Michael W. Deem and Ramdas Pophale) SiO2 
 PCOD9570997
Probable space group: P 42/N C M
;
_chemical_formula_sum "Si O2"
_cell_formula_units_Z 64
_cell_length_a 12.063886
_cell_length_b 12.063886
_cell_length_c 19.784637
_cell_angle_alpha 90.000000
_cell_angle_beta 90.000000
_cell_angle_gamma 90.000000
_cell_volume 2879.403549
_symmetry_space_group_name_H-M "P 42/N C M"
_symmetry_group_IT_number 138
_space_group.IT_coordinate_system_code '2'
_symmetry_cell_setting 'tetragonal'
loop_
_space_group_symop_operation_xyz
x,y,z
1/2-y,x,1/2+z
1/2-x,1/2-y,z
y,1/2-x,1/2+z
1/2+x,-y,1/2-z
-x,1/2+y,1/2-z
1/2+y,1/2+x,-z
-y,-x,-z
-x,-y,-z
1/2+y,-x,1/2-z
1/2+x,1/2+y,-z
-y,1/2+x,1/2-z
1/2-x,y,1/2+z
x,1/2-y,1/2+z
1/2-y,1/2-x,z
y,x,z
loop_
_atom_site_type_symbol
_atom_site_label
_atom_site_fract_x
_atom_site_fract_y
_atom_site_fract_z
Si Si1 0.643441 0.037785 0.403863
Si Si2 0.933977 0.233714 0.346093
Si Si3 0.429044 0.258518 0.475659
Si Si4 0.993859 0.179108 0.700475
O O1 0.630840 0.163443 0.379956
O O2 0.716841 0.978370 0.346634
O O3 0.525457 0.974544 0.409113
O O4 0.709309 0.019834 0.473462
O O5 0.864531 0.127015 0.323311
O O6 0.986995 0.282480 0.277910
O O7 0.020625 0.204881 0.404635
O O8 0.339813 0.160188 0.465082
O O9 0.361243 0.361243 0.506758
O O10 0.081377 0.081377 0.692981
#
# Coordination Sequence:
#
# PCOD9570997 Si02
#       4
#    16  16  16  16
#     4  11  24  44  71 101 137 182 227 282 345 411
#     4  12  24  43  68  97 137 182 229 281 344 409
#     4  10  22  42  69 102 139 180 231 286 344 413
#     4  12  26  43  68 101 139 180 230 285 341 410
#
# _framework density 22.226824000000001
#
# number of rings (size 3 to 8) (size 9 to 14) (size 15 to 20)
#    0.000    0.750    2.500    5.250    0.000    5.500 
#    0.000    5.000    0.000    0.000    0.000    0.000 
#    0.000    0.000    0.000    0.000    0.000    0.000 
#
# Total GULP energy -358157.877010 kJ/mol
# GULP energy per Si atom -5596.216828 kJ/mol
# Density = 2.217624 g / cm^3
# Si number density = 22.226824 Si / 1000 Ang^3
#
#
#
# Elastic Constant Matrix: (Units=GPa)
#
#
# Indices 1 2 3 4 5 6 
#
# 1 78.5540 21.1009 10.7963 0.0000 0.0000 0.0000
# 2 21.1009 78.5540 10.7963 0.0000 0.0000 0.0000
# 3 10.7963 10.7963 119.7751 0.0000 0.0000 0.0000
# 4 0.0000 0.0000 0.0000 21.8595 0.0000 0.0000
# 5 0.0000 0.0000 0.0000 0.0000 21.8595 0.0000
# 6 0.0000 0.0000 0.0000 0.0000 0.0000 23.7618
#
#
#
# Elastic Compliance Matrix: (Units=1/GPa)
#
#
# Indices 1 2 3 4 5 6 
#
# 1 0.013820 -0.003585 -0.000923 0.000000 0.000000 0.000000
# 2 -0.003585 0.013820 -0.000923 0.000000 0.000000 0.000000
# 3 -0.000923 -0.000923 0.008515 0.000000 0.000000 0.000000
# 4 0.000000 0.000000 0.000000 0.045747 0.000000 0.000000
# 5 0.000000 0.000000 0.000000 0.000000 0.045747 0.000000
# 6 0.000000 0.000000 0.000000 0.000000 0.000000 0.042084
#
#
# Mechanical properties :
#
#
# Convention : Reuss Voigt Hill
#
# Bulk Modulus (GPa) = 39.53470 40.25224 39.89347
# Shear Modulus (GPa) = 26.45149 29.10883 27.78016
#
# Velocity S-wave (km/s) = 3.45348 3.62280 3.53915
# Velocity P-wave (km/s) = 5.80755 5.97065 5.88966
#
# Compressibility (1/GPa) = 0.02529423
#
# Stress axis : x y z
#
# Youngs Moduli (GPa) = 72.35889 72.35889 117.43587
#
# Poissons Ratio (x) = 0.25944 0.10834
# Poissons Ratio (y) = 0.25944 0.10834
# Poissons Ratio (z) = 0.06675 0.06675
#
# Static dielectric constant tensor:
#      x y z
#    x 1.817890 0.000000 0.000000 
#    y 0.000000 1.817890 0.000000 
#    z 0.000000 0.000000 1.791470 
# 
# From -- ./inp_files/5844.got.cif
#   From: 2010.05.17/outbox.cif.g08.bks.cpg/sg138_3_cif.got.tgz:5844.got - 2010.05.20 13:08:53.
