data_PCOD9570032
_publ_section_title
;
Structure prediction by ZEFSAII (Michael W. Deem and Ramdas Pophale) SiO2 
 PCOD9570032
Probable space group: P 42/N M C
;
_chemical_formula_sum "Si O2"
_cell_formula_units_Z 112
_cell_length_a 14.250925
_cell_length_b 14.250925
_cell_length_c 31.526958
_cell_angle_alpha 90.000000
_cell_angle_beta 90.000000
_cell_angle_gamma 90.000000
_cell_volume 6402.774065
_symmetry_space_group_name_H-M "P 42/N M C"
_symmetry_group_IT_number 137
_space_group.IT_coordinate_system_code '2'
_symmetry_cell_setting 'tetragonal'
loop_
_space_group_symop_operation_xyz
x,y,z
1/2-y,x,1/2+z
1/2-x,1/2-y,z
y,1/2-x,1/2+z
1/2+x,-y,-z
-x,1/2+y,-z
1/2+y,1/2+x,1/2-z
-y,-x,1/2-z
-x,-y,-z
1/2+y,-x,1/2-z
1/2+x,1/2+y,-z
-y,1/2+x,1/2-z
1/2-x,y,z
x,1/2-y,z
1/2-y,1/2-x,1/2+z
y,x,1/2+z
loop_
_atom_site_type_symbol
_atom_site_label
_atom_site_fract_x
_atom_site_fract_y
_atom_site_fract_z
Si Si1 0.864183 0.355389 0.859338
Si Si2 0.137111 0.355115 0.765717
Si Si3 0.862117 0.444410 0.206290
Si Si4 0.863834 0.141110 0.547736
Si Si5 0.860059 0.135685 0.045165
Si Si6 0.637789 0.027010 0.372561
Si Si7 0.859922 0.952580 0.826528
O O1 0.750000 0.349959 0.862231
O O2 0.897228 0.250000 0.849681
O O3 0.899192 0.387730 0.906099
O O4 0.885120 0.437180 0.826426
O O5 0.250000 0.355226 0.760649
O O6 0.109396 0.250000 0.780017
O O7 0.114113 0.444491 0.794480
O O8 0.092672 0.372759 0.719527
O O9 0.902059 0.402059 0.250000
O O10 0.750000 0.433939 0.206075
O O11 0.907265 0.392937 0.166472
O O12 0.750000 0.140900 0.547894
O O13 0.893972 0.250000 0.547704
O O14 0.893868 0.104189 0.501696
O O15 0.750000 0.108209 0.050522
O O16 0.859885 0.250000 0.045649
O O17 0.925411 0.104190 0.083729
O O18 0.750000 0.021288 0.373910
O O19 0.597001 0.925681 0.360768
O O20 0.750000 0.943568 0.837508
#
# Coordination Sequence:
#
# PCOD9570032 Si02
#       7
#    16  16  16  16  16  16  16
#     4   8  14  26  46  70  92 116 150 194 239 276
#     4   9  18  34  53  69  90 124 159 189 225 273
#     4  11  21  33  50  72  96 121 152 192 237 282
#     4   7  10  20  40  64  90 120 151 181 220 274
#     4   8  14  25  42  65  94 126 152 178 223 280
#     4  11  21  32  46  68  97 125 155 192 234 285
#     4  10  19  31  47  65  88 119 154 192 232 276
#
# _framework density 17.492417
#
# number of rings (size 3 to 8) (size 9 to 14) (size 15 to 20)
#    0.000    2.857    1.429    3.000    0.000    2.429 
#    0.000    1.429    0.000    0.857    0.000    0.000 
#    0.000    2.286    0.000   20.143    0.000    0.571 
#
# Total GULP energy -623473.536855 kJ/mol
# GULP energy per Si atom -5566.728008 kJ/mol
# Density = 1.745260 g / cm^3
# Si number density = 17.492417 Si / 1000 Ang^3
#
#
#
# Elastic Constant Matrix: (Units=GPa)
#
#
# Indices 1 2 3 4 5 6 
#
# 1 53.2659 13.9824 0.5412 0.0000 0.0000 0.0000
# 2 13.9824 53.2659 0.5412 0.0000 0.0000 0.0000
# 3 0.5412 0.5412 5.3030 0.0000 0.0000 0.0000
# 4 0.0000 0.0000 0.0000 2.0647 0.0000 0.0000
# 5 0.0000 0.0000 0.0000 0.0000 2.0647 0.0000
# 6 0.0000 0.0000 0.0000 0.0000 0.0000 7.9191
#
#
#
# Elastic Compliance Matrix: (Units=1/GPa)
#
#
# Indices 1 2 3 4 5 6 
#
# 1 0.020175 -0.005281 -0.001520 0.000000 0.000000 0.000000
# 2 -0.005281 0.020175 -0.001520 0.000000 0.000000 0.000000
# 3 -0.001520 -0.001520 0.188882 0.000000 0.000000 0.000000
# 4 0.000000 0.000000 0.000000 0.484337 0.000000 0.000000
# 5 0.000000 0.000000 0.000000 0.000000 0.484337 0.000000
# 6 0.000000 0.000000 0.000000 0.000000 0.000000 0.126277
#
#
# Mechanical properties :
#
#
# Convention : Reuss Voigt Hill
#
# Bulk Modulus (GPa) = 4.70387 15.77381 10.23884
# Shear Modulus (GPa) = 3.54186 8.86103 6.20144
#
# Velocity S-wave (km/s) = 1.42450 2.25314 1.88492
# Velocity P-wave (km/s) = 2.32390 3.97567 3.25626
#
# Compressibility (1/GPa) = 0.21259096
#
# Stress axis : x y z
#
# Youngs Moduli (GPa) = 49.56539 49.56539 5.29432
#
# Poissons Ratio (x) = 0.26174 0.00805
# Poissons Ratio (y) = 0.26174 0.00805
# Poissons Ratio (z) = 0.07534 0.07534
#
# Static dielectric constant tensor:
#      x y z
#    x 1.612460 0.000000 0.000000 
#    y 0.000000 1.612460 0.000000 
#    z 0.000000 0.000000 1.613160 
# 
# From -- ./inp_files/10669.got.cif
#   From: 2010.05.17/outbox.cif.g08.bks.cpg/sg137_6_cif.got.tgz:10669.got - 2010.05.20 13:01:12.
