data_PCOD9570395
_publ_section_title
;
Structure prediction by ZEFSAII (Michael W. Deem and Ramdas Pophale) SiO2 
 PCOD9570395
Probable space group: P 42/N M C
;
_chemical_formula_sum "Si O2"
_cell_formula_units_Z 96
_cell_length_a 23.248106
_cell_length_b 23.248106
_cell_length_c 10.066115
_cell_angle_alpha 90.000000
_cell_angle_beta 90.000000
_cell_angle_gamma 90.000000
_cell_volume 5440.477793
_symmetry_space_group_name_H-M "P 42/N M C"
_symmetry_group_IT_number 137
_space_group.IT_coordinate_system_code '2'
_symmetry_cell_setting 'tetragonal'
loop_
_space_group_symop_operation_xyz
x,y,z
1/2-y,x,1/2+z
1/2-x,1/2-y,z
y,1/2-x,1/2+z
1/2+x,-y,-z
-x,1/2+y,-z
1/2+y,1/2+x,1/2-z
-y,-x,1/2-z
-x,-y,-z
1/2+y,-x,1/2-z
1/2+x,1/2+y,-z
-y,1/2+x,1/2-z
1/2-x,y,z
x,1/2-y,z
1/2-y,1/2-x,1/2+z
y,x,1/2+z
loop_
_atom_site_type_symbol
_atom_site_label
_atom_site_fract_x
_atom_site_fract_y
_atom_site_fract_z
Si Si1 0.414242 0.419057 0.341170
Si Si2 0.318792 0.898925 0.840890
Si Si3 0.513305 0.943916 0.411624
Si Si4 0.502602 0.815657 0.065868
Si Si5 0.527228 0.814827 0.754158
Si Si6 0.888028 0.112864 0.602604
O O1 0.441499 0.414786 0.488044
O O2 0.450032 0.457110 0.232460
O O3 0.353785 0.451540 0.353477
O O4 0.420599 0.355469 0.285561
O O5 0.355244 0.855244 0.750000
O O6 0.250000 0.893302 0.821532
O O7 0.335134 0.965040 0.803296
O O8 0.338489 0.886177 0.991025
O O9 0.454063 0.909603 0.392824
O O10 0.500000 0.000000 0.500000
O O11 0.497410 0.750000 0.113393
O O12 0.441819 0.848625 0.067148
O O13 0.521295 0.814798 0.912562
O O14 0.535399 0.750000 0.706328
O O15 0.869544 0.130457 0.750000
#
# Coordination Sequence:
#
# PCOD9570395 Si02
#       6
#    16  16  16  16  16  16
#     4  12  21  36  58  88 121 158 191 241 298 360
#     4  11  24  40  61  86 115 156 203 247 287 345
#     4  12  21  32  55  90 120 150 190 235 297 359
#     4  11  23  38  59  87 122 160 196 240 297 354
#     4  10  21  38  61  89 120 155 196 246 298 351
#     4  12  22  37  56  87 124 155 189 242 301 353
#
# _framework density 17.645509000000001
#
# number of rings (size 3 to 8) (size 9 to 14) (size 15 to 20)
#    0.000    0.667    8.333    0.500    0.000    0.833 
#    0.000    0.833    0.000    0.500    0.000    3.500 
#    0.000    0.000    0.000    0.000    0.000    0.000 
#
# Total GULP energy -535513.187939 kJ/mol
# GULP energy per Si atom -5578.262374 kJ/mol
# Density = 1.760535 g / cm^3
# Si number density = 17.645509 Si / 1000 Ang^3
#
#
#
# Elastic Constant Matrix: (Units=GPa)
#
#
# Indices 1 2 3 4 5 6 
#
# 1 73.7667 26.2537 9.7499 0.0000 0.0000 0.0000
# 2 26.2537 73.7664 9.7499 0.0000 0.0000 0.0000
# 3 9.7499 9.7499 92.2475 0.0000 0.0000 0.0000
# 4 0.0000 0.0000 0.0000 24.2540 0.0000 0.0000
# 5 0.0000 0.0000 0.0000 0.0000 24.2541 0.0000
# 6 0.0000 0.0000 0.0000 0.0000 0.0000 15.6556
#
#
#
# Elastic Compliance Matrix: (Units=1/GPa)
#
#
# Indices 1 2 3 4 5 6 
#
# 1 0.015628 -0.005419 -0.001079 0.000000 0.000000 0.000000
# 2 -0.005419 0.015628 -0.001079 0.000000 0.000000 0.000000
# 3 -0.001079 -0.001079 0.011068 0.000000 0.000000 0.000000
# 4 0.000000 0.000000 0.000000 0.041230 0.000000 0.000000
# 5 0.000000 0.000000 0.000000 0.000000 0.041230 0.000000
# 6 0.000000 0.000000 0.000000 0.000000 0.000000 0.063875
#
#
# Mechanical properties :
#
#
# Convention : Reuss Voigt Hill
#
# Bulk Modulus (GPa) = 36.80621 36.80975 36.80798
# Shear Modulus (GPa) = 23.48854 25.76789 24.62821
#
# Velocity S-wave (km/s) = 3.65243 3.82554 3.73999
# Velocity P-wave (km/s) = 6.22020 6.35760 6.28928
#
# Compressibility (1/GPa) = 0.02716933
#
# Stress axis : x y z
#
# Youngs Moduli (GPa) = 63.98938 63.98913 90.34668
#
# Poissons Ratio (x) = 0.34678 0.09748
# Poissons Ratio (y) = 0.34678 0.09748
# Poissons Ratio (z) = 0.06904 0.06904
#
# Static dielectric constant tensor:
#      x y z
#    x 1.616920 0.000000 0.000000 
#    y 0.000000 1.616920 0.000000 
#    z 0.000000 0.000000 1.645410 
# 
# From -- ./inp_files/2164.got.cif
#   From: 2010.05.17/outbox.cif.g08.bks.cpg/sg137_2_cif.got.tgz:2164.got - 2010.05.20 13:01:12.
