data_PCOD9570523
_publ_section_title
;
Structure prediction by ZEFSAII (Michael W. Deem and Ramdas Pophale) SiO2 
 PCOD9570523
Probable space group: P 42/N M C
;
_chemical_formula_sum "Si O2"
_cell_formula_units_Z 48
_cell_length_a 15.033469
_cell_length_b 15.033469
_cell_length_c 9.444975
_cell_angle_alpha 90.000000
_cell_angle_beta 90.000000
_cell_angle_gamma 90.000000
_cell_volume 2134.613371
_symmetry_space_group_name_H-M "P 42/N M C"
_symmetry_group_IT_number 137
_space_group.IT_coordinate_system_code '2'
_symmetry_cell_setting 'tetragonal'
loop_
_space_group_symop_operation_xyz
x,y,z
1/2-y,x,1/2+z
1/2-x,1/2-y,z
y,1/2-x,1/2+z
1/2+x,-y,-z
-x,1/2+y,-z
1/2+y,1/2+x,1/2-z
-y,-x,1/2-z
-x,-y,-z
1/2+y,-x,1/2-z
1/2+x,1/2+y,-z
-y,1/2+x,1/2-z
1/2-x,y,z
x,1/2-y,z
1/2-y,1/2-x,1/2+z
y,x,1/2+z
loop_
_atom_site_type_symbol
_atom_site_label
_atom_site_fract_x
_atom_site_fract_y
_atom_site_fract_z
Si Si1 0.100632 0.481684 0.544975
Si Si2 0.854650 0.348825 0.597412
Si Si3 0.150361 0.355467 0.291360
O O1 0.138046 0.580925 0.528084
O O2 0.144513 0.415724 0.430409
O O3 0.114262 0.429818 0.690311
O O4 0.000000 0.500000 0.500000
O O5 0.887546 0.387546 0.750000
O O6 0.750000 0.339960 0.623756
O O7 0.892627 0.250000 0.569255
O O8 0.250000 0.368553 0.228107
O O9 0.141406 0.250000 0.321169
#
# Coordination Sequence:
#
# PCOD9570523 Si02
#       3
#    16  16  16
#     4  12  24  39  61  94 129 164 210 262 320 384
#     4   9  18  34  57  84 116 157 202 248 304 374
#     4  11  24  43  67  93 126 171 220 272 326 381
#
# _framework density 22.486508000000001
#
# number of rings (size 3 to 8) (size 9 to 14) (size 15 to 20)
#    0.000    1.333    0.000    8.000    0.000    8.000 
#    0.000    0.000    0.000    0.000    0.000    4.667 
#    0.000    0.000    0.000    0.000    0.000    0.000 
#
# Total GULP energy -267987.512769 kJ/mol
# GULP energy per Si atom -5583.073183 kJ/mol
# Density = 2.243533 g / cm^3
# Si number density = 22.486508 Si / 1000 Ang^3
#
#
#
# Elastic Constant Matrix: (Units=GPa)
#
#
# Indices 1 2 3 4 5 6 
#
# 1 98.4148 18.0466 1.3568 0.0000 0.0000 0.0000
# 2 18.0466 98.4148 1.3568 0.0000 0.0000 0.0000
# 3 1.3568 1.3568 43.0709 0.0000 0.0000 0.0000
# 4 0.0000 0.0000 0.0000 29.2043 0.0000 0.0000
# 5 0.0000 0.0000 0.0000 0.0000 29.2043 0.0000
# 6 0.0000 0.0000 0.0000 0.0000 0.0000 25.4819
#
#
#
# Elastic Compliance Matrix: (Units=1/GPa)
#
#
# Indices 1 2 3 4 5 6 
#
# 1 0.010518 -0.001925 -0.000271 0.000000 0.000000 0.000000
# 2 -0.001925 0.010518 -0.000271 0.000000 0.000000 0.000000
# 3 -0.000271 -0.000271 0.023235 0.000000 0.000000 0.000000
# 4 0.000000 0.000000 0.000000 0.034241 0.000000 0.000000
# 5 0.000000 0.000000 0.000000 0.000000 0.034241 0.000000
# 6 0.000000 0.000000 0.000000 0.000000 0.000000 0.039244
#
#
# Mechanical properties :
#
#
# Convention : Reuss Voigt Hill
#
# Bulk Modulus (GPa) = 25.42101 31.26899 28.34500
# Shear Modulus (GPa) = 29.40453 31.38747 30.39600
#
# Velocity S-wave (km/s) = 3.62007 3.74014 3.68060
# Velocity P-wave (km/s) = 5.36682 5.70854 5.54031
#
# Compressibility (1/GPa) = 0.03933754
#
# Stress axis : x y z
#
# Youngs Moduli (GPa) = 95.07706 95.07706 43.03929
#
# Poissons Ratio (x) = 0.18302 0.01165
# Poissons Ratio (y) = 0.18302 0.01165
# Poissons Ratio (z) = 0.02574 0.02574
#
# Static dielectric constant tensor:
#      x y z
#    x 1.720060 0.000000 0.000000 
#    y 0.000000 1.720060 0.000000 
#    z 0.000000 0.000000 1.902310 
# 
# From -- ./inp_files/2904.got.cif
#   From: 2010.05.17/outbox.cif.g08.bks.cpg/sg137_2_cif.got.tgz:2904.got - 2010.05.20 13:01:12.
