data_PCOD9570301
_publ_section_title
;
Structure prediction by ZEFSAII (Michael W. Deem and Ramdas Pophale) SiO2 
 PCOD9570301
Probable space group: P 42/N M C
;
_chemical_formula_sum "Si O2"
_cell_formula_units_Z 40
_cell_length_a 11.091963
_cell_length_b 11.091963
_cell_length_c 14.685527
_cell_angle_alpha 90.000000
_cell_angle_beta 90.000000
_cell_angle_gamma 90.000000
_cell_volume 1806.784518
_symmetry_space_group_name_H-M "P 42/N M C"
_symmetry_group_IT_number 137
_space_group.IT_coordinate_system_code '2'
_symmetry_cell_setting 'tetragonal'
loop_
_space_group_symop_operation_xyz
x,y,z
1/2-y,x,1/2+z
1/2-x,1/2-y,z
y,1/2-x,1/2+z
1/2+x,-y,-z
-x,1/2+y,-z
1/2+y,1/2+x,1/2-z
-y,-x,1/2-z
-x,-y,-z
1/2+y,-x,1/2-z
1/2+x,1/2+y,-z
-y,1/2+x,1/2-z
1/2-x,y,z
x,1/2-y,z
1/2-y,1/2-x,1/2+z
y,x,1/2+z
loop_
_atom_site_type_symbol
_atom_site_label
_atom_site_fract_x
_atom_site_fract_y
_atom_site_fract_z
Si Si1 0.387576 0.612424 0.250000
Si Si2 0.384976 0.750000 0.929914
Si Si3 0.964193 0.998463 0.106141
Si Si4 0.250000 0.381177 0.436836
O O1 0.250000 0.598907 0.281124
O O2 0.419687 0.522209 0.168645
O O3 0.250000 0.750000 0.972674
O O4 0.399919 0.625026 0.875602
O O5 0.499320 0.750000 0.999270
O O6 0.889155 0.875224 0.118287
O O7 0.000000 0.000000 0.000000
O O8 0.250000 0.250000 0.485006
#
# Coordination Sequence:
#
# PCOD9570301 Si02
#       4
#     8   8  16   8
#     4  11  24  46  77 110 140 186 249 308 364 439
#     4  10  22  40  66  98 141 192 233 282 355 430
#     4  10  22  42  66 104 141 185 235 297 363 423
#     4  10  20  38  68 100 139 180 239 296 349 418
#
# _framework density 22.138777999999999
#
# number of rings (size 3 to 8) (size 9 to 14) (size 15 to 20)
#    0.000    1.800    2.000    1.200    0.000   12.800 
#    7.200    0.000    0.000    0.000    0.000    0.000 
#    0.000    0.000    0.000    0.000    0.000    0.000 
#
# Total GULP energy -222817.888340 kJ/mol
# GULP energy per Si atom -5570.447209 kJ/mol
# Density = 2.208839 g / cm^3
# Si number density = 22.138778 Si / 1000 Ang^3
#
#
#
# Elastic Constant Matrix: (Units=GPa)
#
#
# Indices 1 2 3 4 5 6 
#
# 1 185.3945 45.0126 7.9909 0.0000 0.0000 0.0000
# 2 45.0126 185.3942 7.9907 0.0000 0.0000 0.0000
# 3 7.9909 7.9907 61.8252 0.0000 0.0000 0.0000
# 4 0.0000 0.0000 0.0000 24.7082 0.0000 0.0000
# 5 0.0000 0.0000 0.0000 0.0000 24.7085 0.0000
# 6 0.0000 0.0000 0.0000 0.0000 0.0000 23.0147
#
#
#
# Elastic Compliance Matrix: (Units=1/GPa)
#
#
# Indices 1 2 3 4 5 6 
#
# 1 0.005751 -0.001372 -0.000566 0.000000 0.000000 0.000000
# 2 -0.001372 0.005751 -0.000566 0.000000 0.000000 0.000000
# 3 -0.000566 -0.000566 0.016321 0.000000 0.000000 0.000000
# 4 0.000000 0.000000 0.000000 0.040472 0.000000 0.000000
# 5 0.000000 0.000000 0.000000 0.000000 0.040472 0.000000
# 6 0.000000 0.000000 0.000000 0.000000 0.000000 0.043451
#
#
# Mechanical properties :
#
#
# Convention : Reuss Voigt Hill
#
# Bulk Modulus (GPa) = 43.82955 61.62247 52.72601
# Shear Modulus (GPa) = 30.33390 39.26092 34.79741
#
# Velocity S-wave (km/s) = 3.70560 4.21574 3.96888
# Velocity P-wave (km/s) = 6.17651 7.18274 6.69854
#
# Compressibility (1/GPa) = 0.02281566
#
# Stress axis : x y z
#
# Youngs Moduli (GPa) = 173.87024 173.87001 61.27090
#
# Poissons Ratio (x) = 0.23855 0.03468
# Poissons Ratio (y) = 0.23855 0.03468
# Poissons Ratio (z) = 0.09842 0.09841
#
# Static dielectric constant tensor:
#      x y z
#    x 1.874630 0.000000 0.000000 
#    y 0.000000 1.874620 0.000000 
#    z 0.000000 0.000000 1.801210 
# 
# From -- ./inp_files/4371.got.cif
#   From: 2010.05.17/outbox.cif.g08.bks.cpg/sg137_3_cif.got.tgz:4371.got - 2010.05.20 13:01:12.
