data_PCOD9570539
_publ_section_title
;
Structure prediction by ZEFSAII (Michael W. Deem and Ramdas Pophale) SiO2 
 PCOD9570539
Probable space group: P 42/N M C
;
_chemical_formula_sum "Si O2"
_cell_formula_units_Z 64
_cell_length_a 14.305718
_cell_length_b 14.305718
_cell_length_c 16.378722
_cell_angle_alpha 90.000000
_cell_angle_beta 90.000000
_cell_angle_gamma 90.000000
_cell_volume 3351.963888
_symmetry_space_group_name_H-M "P 42/N M C"
_symmetry_group_IT_number 137
_space_group.IT_coordinate_system_code '2'
_symmetry_cell_setting 'tetragonal'
loop_
_space_group_symop_operation_xyz
x,y,z
1/2-y,x,1/2+z
1/2-x,1/2-y,z
y,1/2-x,1/2+z
1/2+x,-y,-z
-x,1/2+y,-z
1/2+y,1/2+x,1/2-z
-y,-x,1/2-z
-x,-y,-z
1/2+y,-x,1/2-z
1/2+x,1/2+y,-z
-y,1/2+x,1/2-z
1/2-x,y,z
x,1/2-y,z
1/2-y,1/2-x,1/2+z
y,x,1/2+z
loop_
_atom_site_type_symbol
_atom_site_label
_atom_site_fract_x
_atom_site_fract_y
_atom_site_fract_z
Si Si1 0.354974 0.635946 0.341268
Si Si2 0.858402 0.636313 0.270347
Si Si3 0.135637 0.358775 0.909373
Si Si4 0.968958 0.635836 0.431492
O O1 0.388802 0.611199 0.250000
O O2 0.250000 0.601342 0.352628
O O3 0.352100 0.750000 0.339613
O O4 0.425056 0.608115 0.412247
O O5 0.750000 0.608480 0.276725
O O6 0.861019 0.750000 0.269386
O O7 0.895909 0.609177 0.180781
O O8 0.911849 0.605511 0.351138
O O9 0.250000 0.360708 0.906535
O O10 0.110839 0.250000 0.923074
O O11 0.104914 0.422887 0.984333
O O12 0.965708 0.750000 0.432455
#
# Coordination Sequence:
#
# PCOD9570539 Si02
#       4
#    16  16  16  16
#     4   8  14  24  36  50  67  87 118 162 204 237
#     4   8  13  20  30  48  75 102 127 153 177 214
#     4   8  13  20  30  48  75 102 127 153 177 214
#     4   9  14  20  34  51  67  97 131 153 188 233
#
# _framework density 19.093285999999999
#
# number of rings (size 3 to 8) (size 9 to 14) (size 15 to 20)
#    0.000    3.750    0.000    3.000    0.000    3.000 
#    0.000    0.000    0.000    1.500    0.000    0.000 
#    0.000    0.000    0.000    2.250    0.000   58.750 
#
# Total GULP energy -356772.436473 kJ/mol
# GULP energy per Si atom -5574.569320 kJ/mol
# Density = 1.904983 g / cm^3
# Si number density = 19.093286 Si / 1000 Ang^3
#
#
#
# Elastic Constant Matrix: (Units=GPa)
#
#
# Indices 1 2 3 4 5 6 
#
# 1 54.5095 6.6099 37.6401 0.0000 0.0000 0.0000
# 2 6.6099 54.5092 37.6398 0.0000 0.0000 0.0000
# 3 37.6401 37.6398 132.3022 0.0000 0.0000 0.0000
# 4 0.0000 0.0000 0.0000 -4.9299 0.0000 0.0000
# 5 0.0000 0.0000 0.0000 0.0000 -4.9291 0.0000
# 6 0.0000 0.0000 0.0000 0.0000 0.0000 -1.5452
#
#
#
# Elastic Compliance Matrix: (Units=1/GPa)
#
#
# Indices 1 2 3 4 5 6 
#
# 1 0.023032 0.002155 -0.007166 0.000000 0.000000 0.000000
# 2 0.002155 0.023032 -0.007166 0.000000 0.000000 0.000000
# 3 -0.007166 -0.007166 0.011636 0.000000 0.000000 0.000000
# 4 0.000000 0.000000 0.000000 -0.202845 0.000000 0.000000
# 5 0.000000 0.000000 0.000000 0.000000 -0.202875 0.000000
# 6 0.000000 0.000000 0.000000 0.000000 0.000000 -0.647150
#
#
# Mechanical properties :
#
#
# Convention : Reuss Voigt Hill
#
# Bulk Modulus (GPa) = 29.98720 45.01115 37.49918
# Shear Modulus (GPa) = -5.20995 8.34789 1.56897
#
# Velocity S-wave (km/s) = -1.65366 2.09324 0.90748
# Velocity P-wave (km/s) = 3.47758 5.42842 4.55858
#
# Compressibility (1/GPa) = 0.03334757
#
# Stress axis : x y z
#
# Youngs Moduli (GPa) = 43.41726 43.41718 85.94136
#
# Poissons Ratio (x) = -0.09358 0.61585
# Poissons Ratio (y) = -0.09358 0.61584
# Poissons Ratio (z) = 0.31112 0.31112
#
# Static dielectric constant tensor:
#      x y z
#    x 1.689380 0.000000 0.000000 
#    y 0.000000 1.689380 0.000000 
#    z 0.000000 0.000000 1.664290 
# 
# From -- ./inp_files/6053.got.cif
#   From: 2010.05.17/outbox.cif.g08.bks.cpg/sg137_4_cif.got.tgz:6053.got - 2010.05.20 13:01:12.
