data_PCOD9570725
_publ_section_title
;
Structure prediction by ZEFSAII (Michael W. Deem and Ramdas Pophale) SiO2 
 PCOD9570725
Probable space group: P 42/N C M
;
_chemical_formula_sum "Si O2"
_cell_formula_units_Z 56
_cell_length_a 15.731454
_cell_length_b 15.731454
_cell_length_c 10.990705
_cell_angle_alpha 90.000000
_cell_angle_beta 90.000000
_cell_angle_gamma 90.000000
_cell_volume 2719.964780
_symmetry_space_group_name_H-M "P 42/N C M"
_symmetry_group_IT_number 138
_space_group.IT_coordinate_system_code '2'
_symmetry_cell_setting 'tetragonal'
loop_
_space_group_symop_operation_xyz
x,y,z
1/2-y,x,1/2+z
1/2-x,1/2-y,z
y,1/2-x,1/2+z
1/2+x,-y,1/2-z
-x,1/2+y,1/2-z
1/2+y,1/2+x,-z
-y,-x,-z
-x,-y,-z
1/2+y,-x,1/2-z
1/2+x,1/2+y,-z
-y,1/2+x,1/2-z
1/2-x,y,1/2+z
x,1/2-y,1/2+z
1/2-y,1/2-x,z
y,x,z
loop_
_atom_site_type_symbol
_atom_site_label
_atom_site_fract_x
_atom_site_fract_y
_atom_site_fract_z
Si Si1 0.813574 0.957038 0.426902
Si Si2 0.142110 0.795728 0.184431
Si Si3 0.642482 0.357518 0.500000
Si Si4 0.315211 0.457228 0.845896
O O1 0.887307 0.887307 0.441898
O O2 0.748696 0.949066 0.540262
O O3 0.776062 0.943217 0.290293
O O4 0.854164 0.051588 0.432541
O O5 0.225140 0.852800 0.205459
O O6 0.055391 0.845039 0.163539
O O7 0.144207 0.728824 0.075907
O O8 0.391713 0.391713 0.860101
#
# Coordination Sequence:
#
# PCOD9570725 Si02
#       4
#    16  16   8  16
#     4  10  21  39  64  90 126 171 216 266 327 394
#     4  10  20  36  60  96 123 164 205 267 323 389
#     4  10  19  37  60  94 125 160 213 270 338 391
#     4  10  22  41  62  92 130 167 216 269 321 386
#
# _framework density 20.588501999999998
#
# number of rings (size 3 to 8) (size 9 to 14) (size 15 to 20)
#    0.000    2.000    2.857    0.429    0.000    4.000 
#    0.000    2.857    0.000    1.714    0.000    0.000 
#    0.000    0.000    0.000    0.000    0.000    0.000 
#
# Total GULP energy -311786.311236 kJ/mol
# GULP energy per Si atom -5567.612701 kJ/mol
# Density = 2.054164 g / cm^3
# Si number density = 20.588502 Si / 1000 Ang^3
#
#
#
# Elastic Constant Matrix: (Units=GPa)
#
#
# Indices 1 2 3 4 5 6 
#
# 1 80.1990 46.2778 31.3847 0.0000 0.0000 0.0000
# 2 46.2778 80.1990 31.3847 0.0000 0.0000 0.0000
# 3 31.3847 31.3847 105.2110 0.0000 0.0000 0.0000
# 4 0.0000 0.0000 0.0000 25.0404 0.0000 0.0000
# 5 0.0000 0.0000 0.0000 0.0000 25.0404 0.0000
# 6 0.0000 0.0000 0.0000 0.0000 0.0000 30.6033
#
#
#
# Elastic Compliance Matrix: (Units=1/GPa)
#
#
# Indices 1 2 3 4 5 6 
#
# 1 0.019380 -0.010100 -0.002768 0.000000 0.000000 0.000000
# 2 -0.010100 0.019380 -0.002768 0.000000 0.000000 0.000000
# 3 -0.002768 -0.002768 0.011156 0.000000 0.000000 0.000000
# 4 0.000000 0.000000 0.000000 0.039935 0.000000 0.000000
# 5 0.000000 0.000000 0.000000 0.000000 0.039935 0.000000
# 6 0.000000 0.000000 0.000000 0.000000 0.000000 0.032676
#
#
# Mechanical properties :
#
#
# Convention : Reuss Voigt Hill
#
# Bulk Modulus (GPa) = 53.63717 53.74483 53.69100
# Shear Modulus (GPa) = 25.00601 26.57427 25.79014
#
# Velocity S-wave (km/s) = 3.48884 3.59658 3.54312
# Velocity P-wave (km/s) = 6.50676 6.58848 6.54775
#
# Compressibility (1/GPa) = 0.01864379
#
# Stress axis : x y z
#
# Youngs Moduli (GPa) = 51.59875 51.59875 89.63508
#
# Poissons Ratio (x) = 0.52114 0.24815
# Poissons Ratio (y) = 0.52114 0.24815
# Poissons Ratio (z) = 0.14285 0.14285
#
# Static dielectric constant tensor:
#      x y z
#    x 1.719440 0.000000 0.000000 
#    y 0.000000 1.719440 0.000000 
#    z 0.000000 0.000000 1.962690 
# 
# From -- ./inp_files/2491.got.cif
#   From: 2010.05.17/outbox.cif.g08.bks.cpg/sg138_2_cif.got.tgz:2491.got - 2010.05.20 13:08:53.
