data_PCOD9570937
_publ_section_title
;
Structure prediction by ZEFSAII (Michael W. Deem and Ramdas Pophale) SiO2 
 PCOD9570937
Probable space group: P 42/N C M
;
_chemical_formula_sum "Si O2"
_cell_formula_units_Z 96
_cell_length_a 14.005215
_cell_length_b 14.005215
_cell_length_c 25.022320
_cell_angle_alpha 90.000000
_cell_angle_beta 90.000000
_cell_angle_gamma 90.000000
_cell_volume 4908.029160
_symmetry_space_group_name_H-M "P 42/N C M"
_symmetry_group_IT_number 138
_space_group.IT_coordinate_system_code '2'
_symmetry_cell_setting 'tetragonal'
loop_
_space_group_symop_operation_xyz
x,y,z
1/2-y,x,1/2+z
1/2-x,1/2-y,z
y,1/2-x,1/2+z
1/2+x,-y,1/2-z
-x,1/2+y,1/2-z
1/2+y,1/2+x,-z
-y,-x,-z
-x,-y,-z
1/2+y,-x,1/2-z
1/2+x,1/2+y,-z
-y,1/2+x,1/2-z
1/2-x,y,1/2+z
x,1/2-y,1/2+z
1/2-y,1/2-x,z
y,x,z
loop_
_atom_site_type_symbol
_atom_site_label
_atom_site_fract_x
_atom_site_fract_y
_atom_site_fract_z
Si Si1 0.737704 0.016421 0.200961
Si Si2 0.900163 0.283975 0.909910
Si Si3 0.804962 0.968555 0.495198
Si Si4 0.898149 0.441995 0.297315
Si Si5 0.671173 0.828828 0.678448
Si Si6 0.830731 0.669270 0.559293
Si Si7 0.785422 0.093949 0.901721
O O1 0.709497 0.025814 0.138926
O O2 0.654891 0.031846 0.242827
O O3 0.828306 0.085651 0.206426
O O4 0.781988 0.913715 0.210008
O O5 0.862875 0.175073 0.920900
O O6 0.808425 0.342891 0.890084
O O7 0.947866 0.329210 0.962272
O O8 0.893461 0.893461 0.485902
O O9 0.720542 0.912998 0.526299
O O10 0.754627 0.017240 0.444097
O O11 0.831787 0.454549 0.349643
O O12 0.994311 0.505690 0.302876
O O13 0.750000 0.750000 0.670477
O O14 0.638518 0.861483 0.618884
O O15 0.750000 0.750000 0.564334
#
# Coordination Sequence:
#
# PCOD9570937 Si02
#       7
#    16  16  16  16   8   8  16
#     4  11  22  41  66  92 121 160 209 263 305 370
#     4  10  21  40  63  89 121 160 207 258 309 357
#     4  11  22  38  61  90 124 163 208 255 306 370
#     4  11  24  42  64  94 126 164 209 252 317 382
#     4  11  20  38  63  91 123 158 204 263 315 356
#     4   9  20  36  58  88 120 158 200 248 306 354
#     4  10  23  40  60  89 127 165 198 249 315 377
#
# _framework density 19.559785000000002
#
# number of rings (size 3 to 8) (size 9 to 14) (size 15 to 20)
#    0.000    1.500    2.500    2.500    1.167    5.000 
#    1.500    0.833    0.000    0.000    0.000    0.000 
#    0.000    0.000    0.000    0.000    0.000    0.000 
#
# Total GULP energy -535232.578267 kJ/mol
# GULP energy per Si atom -5575.339357 kJ/mol
# Density = 1.951527 g / cm^3
# Si number density = 19.559785 Si / 1000 Ang^3
#
#
#
# Elastic Constant Matrix: (Units=GPa)
#
#
# Indices 1 2 3 4 5 6 
#
# 1 46.5190 -6.2361 17.7854 0.0000 0.0000 0.0000
# 2 -6.2361 46.5190 17.7854 0.0000 0.0000 0.0000
# 3 17.7854 17.7854 80.4042 0.0000 0.0000 0.0000
# 4 0.0000 0.0000 0.0000 13.2769 0.0000 0.0000
# 5 0.0000 0.0000 0.0000 0.0000 13.2769 0.0000
# 6 0.0000 0.0000 0.0000 0.0000 0.0000 29.5194
#
#
#
# Elastic Compliance Matrix: (Units=1/GPa)
#
#
# Indices 1 2 3 4 5 6 
#
# 1 0.024903 0.005947 -0.006824 0.000000 0.000000 0.000000
# 2 0.005947 0.024903 -0.006824 0.000000 0.000000 0.000000
# 3 -0.006824 -0.006824 0.015456 0.000000 0.000000 0.000000
# 4 0.000000 0.000000 0.000000 0.075319 0.000000 0.000000
# 5 0.000000 0.000000 0.000000 0.000000 0.075319 0.000000
# 6 0.000000 0.000000 0.000000 0.000000 0.000000 0.033876
#
#
# Mechanical properties :
#
#
# Convention : Reuss Voigt Hill
#
# Bulk Modulus (GPa) = 20.05603 25.79017 22.92310
# Shear Modulus (GPa) = 17.74328 20.82182 19.28255
#
# Velocity S-wave (km/s) = 3.01513 3.26624 3.14319
# Velocity P-wave (km/s) = 4.73258 5.23816 4.99178
#
# Compressibility (1/GPa) = 0.04986033
#
# Stress axis : x y z
#
# Youngs Moduli (GPa) = 40.15602 40.15602 64.69925
#
# Poissons Ratio (x) = -0.23882 0.44151
# Poissons Ratio (y) = -0.23882 0.44151
# Poissons Ratio (z) = 0.27403 0.27403
#
# Static dielectric constant tensor:
#      x y z
#    x 1.719970 0.000000 0.000000 
#    y 0.000000 1.719970 0.000000 
#    z 0.000000 0.000000 1.678380 
# 
# From -- ./inp_files/6279.got.cif
#   From: 2010.05.17/outbox.cif.g08.bks.cpg/sg138_4_cif.got.tgz:6279.got - 2010.05.20 13:08:53.
