data_PCOD9570786
_publ_section_title
;
Structure prediction by ZEFSAII (Michael W. Deem and Ramdas Pophale) SiO2 
 PCOD9570786
Probable space group: P 42/N C M
;
_chemical_formula_sum "Si O2"
_cell_formula_units_Z 112
_cell_length_a 14.402862
_cell_length_b 14.402862
_cell_length_c 24.996150
_cell_angle_alpha 90.000000
_cell_angle_beta 90.000000
_cell_angle_gamma 90.000000
_cell_volume 5185.262191
_symmetry_space_group_name_H-M "P 42/N C M"
_symmetry_group_IT_number 138
_space_group.IT_coordinate_system_code '2'
_symmetry_cell_setting 'tetragonal'
loop_
_space_group_symop_operation_xyz
x,y,z
1/2-y,x,1/2+z
1/2-x,1/2-y,z
y,1/2-x,1/2+z
1/2+x,-y,1/2-z
-x,1/2+y,1/2-z
1/2+y,1/2+x,-z
-y,-x,-z
-x,-y,-z
1/2+y,-x,1/2-z
1/2+x,1/2+y,-z
-y,1/2+x,1/2-z
1/2-x,y,1/2+z
x,1/2-y,1/2+z
1/2-y,1/2-x,z
y,x,z
loop_
_atom_site_type_symbol
_atom_site_label
_atom_site_fract_x
_atom_site_fract_y
_atom_site_fract_z
Si Si1 0.167160 0.947881 0.270066
Si Si2 0.746609 0.902949 0.481494
Si Si3 0.341523 0.890337 0.333199
Si Si4 0.941440 0.265647 0.105499
Si Si5 0.095699 0.250571 0.698660
Si Si6 0.712874 0.931302 0.605756
Si Si7 0.599145 0.463694 0.622024
O O1 0.243520 0.884639 0.301118
O O2 0.123338 0.912071 0.215544
O O3 0.088958 0.953026 0.314454
O O4 0.220748 0.041260 0.252722
O O5 0.669233 0.830767 0.460022
O O6 0.842985 0.842985 0.482787
O O7 0.715814 0.929533 0.541417
O O8 0.749271 0.994762 0.445963
O O9 0.368546 0.811897 0.375902
O O10 0.344471 0.987370 0.364783
O O11 0.887395 0.362406 0.098850
O O12 0.018354 0.270536 0.153559
O O13 0.162195 0.337806 0.683572
O O14 0.162928 0.162928 0.705733
O O15 0.666925 0.833076 0.621920
O O16 0.817065 0.963596 0.618484
O O17 0.508700 0.508700 0.596782
#
# Coordination Sequence:
#
# PCOD9570786 Si02
#       7
#    16  16  16  16  16  16  16
#     4  10  21  37  58  84 119 165 211 253 315 392
#     4  10  21  41  68  95 129 176 226 282 349 411
#     4  10  23  40  62  89 124 170 213 265 328 391
#     4  11  23  38  62  96 130 166 218 275 336 407
#     4  10  20  35  56  85 122 163 213 274 331 390
#     4  10  24  43  64  93 128 171 223 276 331 396
#     4  11  23  39  62  92 126 167 214 268 329 393
#
# _framework density 21.599679999999999
#
# number of rings (size 3 to 8) (size 9 to 14) (size 15 to 20)
#    0.000    1.714    0.000    4.286    0.000   13.714 
#    0.000    2.857    0.000    3.429    0.000    0.000 
#    0.000    0.000    0.000    0.000    0.000    0.000 
#
# Total GULP energy -624454.083993 kJ/mol
# GULP energy per Si atom -5575.482893 kJ/mol
# Density = 2.155052 g / cm^3
# Si number density = 21.599680 Si / 1000 Ang^3
#
#
#
# Elastic Constant Matrix: (Units=GPa)
#
#
# Indices 1 2 3 4 5 6 
#
# 1 81.6187 54.5118 25.7264 0.0000 0.0000 0.0000
# 2 54.5118 81.6187 25.7264 0.0000 0.0000 0.0000
# 3 25.7264 25.7264 78.2339 0.0000 0.0000 0.0000
# 4 0.0000 0.0000 0.0000 -106.6505 0.0000 0.0000
# 5 0.0000 0.0000 0.0000 0.0000 -106.6505 0.0000
# 6 0.0000 0.0000 0.0000 0.0000 0.0000 40.5578
#
#
#
# Elastic Compliance Matrix: (Units=1/GPa)
#
#
# Indices 1 2 3 4 5 6 
#
# 1 0.022640 -0.014251 -0.002758 0.000000 0.000000 0.000000
# 2 -0.014251 0.022640 -0.002758 0.000000 0.000000 0.000000
# 3 -0.002758 -0.002758 0.014596 0.000000 0.000000 0.000000
# 4 0.000000 0.000000 0.000000 -0.009376 0.000000 0.000000
# 5 0.000000 0.000000 0.000000 0.000000 -0.009376 0.000000
# 6 0.000000 0.000000 0.000000 0.000000 0.000000 0.024656
#
#
# Mechanical properties :
#
#
# Convention : Reuss Voigt Hill
#
# Bulk Modulus (GPa) = 49.16546 50.37786 49.77166
# Shear Modulus (GPa) = 44.60485 -25.51487 9.54499
#
# Velocity S-wave (km/s) = 4.54923 -3.44068 2.10443
# Velocity P-wave (km/s) = 7.09969 2.75494 5.38495
#
# Compressibility (1/GPa) = 0.02033948
#
# Stress axis : x y z
#
# Youngs Moduli (GPa) = 44.17010 44.17010 68.51011
#
# Poissons Ratio (x) = 0.62948 0.18898
# Poissons Ratio (y) = 0.62948 0.18898
# Poissons Ratio (z) = 0.12184 0.12184
#
# Static dielectric constant tensor:
#      x y z
#    x 1.888240 0.000000 0.000000 
#    y 0.000000 1.888240 0.000000 
#    z 0.000000 0.000000 1.788940 
# 
# From -- ./inp_files/7070.got.cif
#   From: 2010.05.17/outbox.cif.g08.bks.cpg/sg138_4_cif.got.tgz:7070.got - 2010.05.20 13:08:53.
