data_PCOD9570391
_publ_section_title
;
Structure prediction by ZEFSAII (Michael W. Deem and Ramdas Pophale) SiO2 
 PCOD9570391
Probable space group: P 42/N M C
;
_chemical_formula_sum "Si O2"
_cell_formula_units_Z 64
_cell_length_a 12.846874
_cell_length_b 12.846874
_cell_length_c 19.566697
_cell_angle_alpha 90.000000
_cell_angle_beta 90.000000
_cell_angle_gamma 90.000000
_cell_volume 3229.330163
_symmetry_space_group_name_H-M "P 42/N M C"
_symmetry_group_IT_number 137
_space_group.IT_coordinate_system_code '2'
_symmetry_cell_setting 'tetragonal'
loop_
_space_group_symop_operation_xyz
x,y,z
1/2-y,x,1/2+z
1/2-x,1/2-y,z
y,1/2-x,1/2+z
1/2+x,-y,-z
-x,1/2+y,-z
1/2+y,1/2+x,1/2-z
-y,-x,1/2-z
-x,-y,-z
1/2+y,-x,1/2-z
1/2+x,1/2+y,-z
-y,1/2+x,1/2-z
1/2-x,y,z
x,1/2-y,z
1/2-y,1/2-x,1/2+z
y,x,1/2+z
loop_
_atom_site_type_symbol
_atom_site_label
_atom_site_fract_x
_atom_site_fract_y
_atom_site_fract_z
Si Si1 0.573121 0.630057 0.427758
Si Si2 0.129305 0.033701 0.717823
Si Si3 0.631393 0.035828 0.538950
Si Si4 0.871225 0.860410 0.639215
O O1 0.610971 0.750000 0.433809
O O2 0.586453 0.590288 0.349815
O O3 0.454934 0.624787 0.457282
O O4 0.628349 0.541324 0.473883
O O5 0.250000 0.002124 0.705635
O O6 0.129364 0.115050 0.780352
O O7 0.060421 0.939580 0.750000
O O8 0.750000 0.070422 0.550147
O O9 0.590496 0.959553 0.599190
O O10 0.750000 0.856214 0.621634
O O11 0.920685 0.750000 0.618292
#
# Coordination Sequence:
#
# PCOD9570391 Si02
#       4
#    16  16  16  16
#     4  11  23  39  62  90 121 156 199 248 296 352
#     4  11  22  38  58  85 119 154 197 245 295 349
#     4  10  21  38  60  88 122 156 194 241 296 354
#     4   9  17  32  57  83 110 149 194 238 285 341
#
# _framework density 19.818352000000001
#
# number of rings (size 3 to 8) (size 9 to 14) (size 15 to 20)
#    0.000    1.750    2.500    2.250    0.000    4.750 
#    0.000    0.000    0.000    3.000    0.000    0.000 
#    0.000    0.000    0.000    0.000    0.000    0.000 
#
# Total GULP energy -356271.647440 kJ/mol
# GULP energy per Si atom -5566.744491 kJ/mol
# Density = 1.977324 g / cm^3
# Si number density = 19.818352 Si / 1000 Ang^3
#
#
#
# Elastic Constant Matrix: (Units=GPa)
#
#
# Indices 1 2 3 4 5 6 
#
# 1 75.1644 11.1437 5.2572 0.0000 0.0000 0.0000
# 2 11.1437 75.1648 5.2573 0.0000 0.0000 0.0000
# 3 5.2572 5.2573 89.2981 0.0000 0.0000 0.0000
# 4 0.0000 0.0000 0.0000 13.2278 0.0000 0.0000
# 5 0.0000 0.0000 0.0000 0.0000 13.2275 0.0000
# 6 0.0000 0.0000 0.0000 0.0000 0.0000 -0.9320
#
#
#
# Elastic Compliance Matrix: (Units=1/GPa)
#
#
# Indices 1 2 3 4 5 6 
#
# 1 0.013645 -0.001975 -0.000687 0.000000 0.000000 0.000000
# 2 -0.001975 0.013645 -0.000687 0.000000 0.000000 0.000000
# 3 -0.000687 -0.000687 0.011279 0.000000 0.000000 0.000000
# 4 0.000000 0.000000 0.000000 0.075598 0.000000 0.000000
# 5 0.000000 0.000000 0.000000 0.000000 0.075600 0.000000
# 6 0.000000 0.000000 0.000000 0.000000 0.000000 -1.072941
#
#
# Mechanical properties :
#
#
# Convention : Reuss Voigt Hill
#
# Bulk Modulus (GPa) = 31.37621 31.43819 31.40720
# Shear Modulus (GPa) = -5.77466 19.63594 6.93064
#
# Velocity S-wave (km/s) = -1.70884 3.15111 1.87208
# Velocity P-wave (km/s) = 3.46017 5.39786 4.53374
#
# Compressibility (1/GPa) = 0.03187128
#
# Stress axis : x y z
#
# Youngs Moduli (GPa) = 73.28680 73.28719 88.65767
#
# Poissons Ratio (x) = 0.14474 0.06091
# Poissons Ratio (y) = 0.14473 0.06091
# Poissons Ratio (z) = 0.05035 0.05035
#
# Static dielectric constant tensor:
#      x y z
#    x 1.740110 0.000000 0.000000 
#    y 0.000000 1.740110 0.000000 
#    z 0.000000 0.000000 1.710160 
# 
# From -- ./inp_files/4736.got.cif
#   From: 2010.05.17/outbox.cif.g08.bks.cpg/sg137_3_cif.got.tgz:4736.got - 2010.05.20 13:01:12.
