data_PCOD9570205
_publ_section_title
;
Structure prediction by ZEFSAII (Michael W. Deem and Ramdas Pophale) SiO2 
 PCOD9570205
Probable space group: P 42/N M C
;
_chemical_formula_sum "Si O2"
_cell_formula_units_Z 112
_cell_length_a 15.171425
_cell_length_b 15.171425
_cell_length_c 28.185994
_cell_angle_alpha 90.000000
_cell_angle_beta 90.000000
_cell_angle_gamma 90.000000
_cell_volume 6487.630459
_symmetry_space_group_name_H-M "P 42/N M C"
_symmetry_group_IT_number 137
_space_group.IT_coordinate_system_code '2'
_symmetry_cell_setting 'tetragonal'
loop_
_space_group_symop_operation_xyz
x,y,z
1/2-y,x,1/2+z
1/2-x,1/2-y,z
y,1/2-x,1/2+z
1/2+x,-y,-z
-x,1/2+y,-z
1/2+y,1/2+x,1/2-z
-y,-x,1/2-z
-x,-y,-z
1/2+y,-x,1/2-z
1/2+x,1/2+y,-z
-y,1/2+x,1/2-z
1/2-x,y,z
x,1/2-y,z
1/2-y,1/2-x,1/2+z
y,x,1/2+z
loop_
_atom_site_type_symbol
_atom_site_label
_atom_site_fract_x
_atom_site_fract_y
_atom_site_fract_z
Si Si1 0.979912 0.590896 0.597086
Si Si2 0.850847 0.611138 0.950864
Si Si3 0.851620 0.645095 0.681733
Si Si4 0.846240 0.989932 0.529257
Si Si5 0.566807 0.342945 0.494222
Si Si6 0.502562 0.853833 0.757550
Si Si7 0.649226 0.986529 0.368778
O O1 0.910665 0.627697 0.634998
O O2 0.922759 0.519976 0.567716
O O3 0.014175 0.653994 0.555308
O O4 0.068838 0.552712 0.619993
O O5 0.750000 0.641014 0.949286
O O6 0.902734 0.632189 0.902718
O O7 0.906342 0.651729 0.994281
O O8 0.849806 0.507622 0.964947
O O9 0.750000 0.610424 0.680194
O O10 0.843710 0.750000 0.686730
O O11 0.915184 0.615750 0.724961
O O12 0.750000 0.998091 0.551093
O O13 0.870273 0.073841 0.497483
O O14 0.614015 0.250000 0.499035
O O15 0.481890 0.750000 0.746009
O O16 0.530544 0.855775 0.812630
O O17 0.418678 0.918678 0.750000
O O18 0.750000 0.018368 0.378648
#
# Coordination Sequence:
#
# PCOD9570205 Si02
#       7
#    16  16  16  16  16  16  16
#     4  11  19  36  55  79 110 146 185 230 274 329
#     4  10  20  36  55  77 110 144 178 227 280 326
#     4  10  21  37  58  84 113 144 181 229 282 332
#     4  11  21  34  53  80 111 147 188 229 272 328
#     4  10  20  34  53  77 107 149 188 223 270 324
#     4  10  21  37  58  83 112 146 182 224 272 330
#     4  11  21  34  56  82 108 142 183 227 277 328
#
# _framework density 17.263622999999999
#
# number of rings (size 3 to 8) (size 9 to 14) (size 15 to 20)
#    0.000    1.571    4.286    2.143    0.000    2.714 
#    0.000    1.429    0.000    1.286    0.000    0.000 
#    0.000    1.429    0.000    0.000    0.000    0.000 
#
# Total GULP energy -623718.560106 kJ/mol
# GULP energy per Si atom -5568.915715 kJ/mol
# Density = 1.722433 g / cm^3
# Si number density = 17.263623 Si / 1000 Ang^3
#
#
#
# Elastic Constant Matrix: (Units=GPa)
#
#
# Indices 1 2 3 4 5 6 
#
# 1 70.6777 39.7592 14.4583 0.0000 0.0000 0.0000
# 2 39.7592 70.6777 14.4583 0.0000 0.0000 0.0000
# 3 14.4583 14.4583 76.1445 0.0000 0.0000 0.0000
# 4 0.0000 0.0000 0.0000 17.6401 0.0000 0.0000
# 5 0.0000 0.0000 0.0000 0.0000 17.6401 0.0000
# 6 0.0000 0.0000 0.0000 0.0000 0.0000 3.4059
#
#
#
# Elastic Compliance Matrix: (Units=1/GPa)
#
#
# Indices 1 2 3 4 5 6 
#
# 1 0.020936 -0.011407 -0.001809 0.000000 0.000000 0.000000
# 2 -0.011407 0.020936 -0.001809 0.000000 0.000000 0.000000
# 3 -0.001809 -0.001809 0.013820 0.000000 0.000000 0.000000
# 4 0.000000 0.000000 0.000000 0.056689 0.000000 0.000000
# 5 0.000000 0.000000 0.000000 0.000000 0.056689 0.000000
# 6 0.000000 0.000000 0.000000 0.000000 0.000000 0.293606
#
#
# Mechanical properties :
#
#
# Convention : Reuss Voigt Hill
#
# Bulk Modulus (GPa) = 39.00129 39.42795 39.21462
# Shear Modulus (GPa) = 9.97456 17.65881 13.81668
#
# Velocity S-wave (km/s) = 2.40631 3.20174 2.83209
# Velocity P-wave (km/s) = 5.51009 6.04620 5.78436
#
# Compressibility (1/GPa) = 0.02564018
#
# Stress axis : x y z
#
# Youngs Moduli (GPa) = 47.76479 47.76479 72.35876
#
# Poissons Ratio (x) = 0.54486 0.13092
# Poissons Ratio (y) = 0.54486 0.13092
# Poissons Ratio (z) = 0.08642 0.08642
#
# Static dielectric constant tensor:
#      x y z
#    x 1.604220 0.000000 0.000000 
#    y 0.000000 1.604220 0.000000 
#    z 0.000000 0.000000 1.595470 
# 
# From -- ./inp_files/9774.got.cif
#   From: 2010.05.17/outbox.cif.g08.bks.cpg/sg137_5_cif.got.tgz:9774.got - 2010.05.20 13:01:12.
