data_PCOD9570583
_publ_section_title
;
Structure prediction by ZEFSAII (Michael W. Deem and Ramdas Pophale) SiO2 
 PCOD9570583
Probable space group: P 42/N C M
;
_chemical_formula_sum "Si O2"
_cell_formula_units_Z 96
_cell_length_a 15.004120
_cell_length_b 15.004120
_cell_length_c 24.286009
_cell_angle_alpha 90.000000
_cell_angle_beta 90.000000
_cell_angle_gamma 90.000000
_cell_volume 5467.354188
_symmetry_space_group_name_H-M "P 42/N C M"
_symmetry_group_IT_number 138
_space_group.IT_coordinate_system_code '2'
_symmetry_cell_setting 'tetragonal'
loop_
_space_group_symop_operation_xyz
x,y,z
1/2-y,x,1/2+z
1/2-x,1/2-y,z
y,1/2-x,1/2+z
1/2+x,-y,1/2-z
-x,1/2+y,1/2-z
1/2+y,1/2+x,-z
-y,-x,-z
-x,-y,-z
1/2+y,-x,1/2-z
1/2+x,1/2+y,-z
-y,1/2+x,1/2-z
1/2-x,y,1/2+z
x,1/2-y,1/2+z
1/2-y,1/2-x,z
y,x,z
loop_
_atom_site_type_symbol
_atom_site_label
_atom_site_fract_x
_atom_site_fract_y
_atom_site_fract_z
Si Si1 0.326081 0.326081 0.271659
Si Si2 0.946821 0.706469 0.928671
Si Si3 0.742551 0.991861 0.156174
Si Si4 0.385891 0.811059 0.745316
Si Si5 0.940853 0.091829 0.647233
Si Si6 0.250146 0.102829 0.954594
Si Si7 0.173246 0.326754 0.643513
O O1 0.250000 0.250000 0.274671
O O2 0.290093 0.413363 0.302901
O O3 0.345856 0.345856 0.207519
O O4 0.867631 0.632370 0.929852
O O5 0.909239 0.784922 0.889821
O O6 0.030406 0.659157 0.900699
O O7 0.957273 0.735545 0.991706
O O8 0.807954 0.055753 0.190181
O O9 0.655822 0.049228 0.139827
O O10 0.777411 0.947901 0.100421
O O11 0.361764 0.708401 0.759959
O O12 0.439222 0.856046 0.795006
O O13 0.013323 0.013323 0.649112
O O14 0.341035 0.158966 0.942520
O O15 0.176416 0.176416 0.969419
O O16 0.250000 0.250000 0.643754
#
# Coordination Sequence:
#
# PCOD9570583 Si02
#       7
#     8  16  16  16  16  16   8
#     4  11  20  30  48  77 112 137 171 216 271 329
#     4   9  17  29  47  71  99 139 173 213 260 313
#     4  11  20  32  48  77 109 138 171 220 273 316
#     4   9  20  37  56  75 104 145 182 215 262 330
#     4  10  19  33  52  77 107 130 174 226 270 312
#     4  10  18  30  48  72 109 143 176 214 267 328
#     4   9  16  28  44  68  94 130 179 211 249 312
#
# _framework density 17.558767
#
# number of rings (size 3 to 8) (size 9 to 14) (size 15 to 20)
#    0.000    2.167    2.500    1.500    0.000    3.333 
#    0.000    2.500    0.000    1.000    0.000    5.833 
#    0.000    0.000    0.000    0.000    0.000    0.000 
#
# Total GULP energy -535501.232755 kJ/mol
# GULP energy per Si atom -5578.137841 kJ/mol
# Density = 1.751880 g / cm^3
# Si number density = 17.558767 Si / 1000 Ang^3
#
#
#
# Elastic Constant Matrix: (Units=GPa)
#
#
# Indices 1 2 3 4 5 6 
#
# 1 16.8045 2.3722 4.8609 0.0000 0.0000 0.0000
# 2 2.3722 16.8045 4.8609 0.0000 0.0000 0.0000
# 3 4.8609 4.8609 80.2312 0.0000 0.0000 0.0000
# 4 0.0000 0.0000 0.0000 16.1392 0.0000 0.0000
# 5 0.0000 0.0000 0.0000 0.0000 16.1392 0.0000
# 6 0.0000 0.0000 0.0000 0.0000 0.0000 16.4101
#
#
#
# Elastic Compliance Matrix: (Units=1/GPa)
#
#
# Indices 1 2 3 4 5 6 
#
# 1 0.061544 -0.007745 -0.003259 0.000000 0.000000 0.000000
# 2 -0.007745 0.061544 -0.003259 0.000000 0.000000 0.000000
# 3 -0.003259 -0.003259 0.012859 0.000000 0.000000 0.000000
# 4 0.000000 0.000000 0.000000 0.061961 0.000000 0.000000
# 5 0.000000 0.000000 0.000000 0.000000 0.061961 0.000000
# 6 0.000000 0.000000 0.000000 0.000000 0.000000 0.060938
#
#
# Mechanical properties :
#
#
# Convention : Reuss Voigt Hill
#
# Bulk Modulus (GPa) = 9.30936 15.33646 12.32291
# Shear Modulus (GPa) = 12.98224 16.52077 14.75150
#
# Velocity S-wave (km/s) = 2.72207 3.07071 2.90163
# Velocity P-wave (km/s) = 3.89780 4.61797 4.27309
#
# Compressibility (1/GPa) = 0.10741882
#
# Stress axis : x y z
#
# Youngs Moduli (GPa) = 16.24854 16.24854 77.76694
#
# Poissons Ratio (x) = 0.12585 0.25348
# Poissons Ratio (y) = 0.12585 0.25348
# Poissons Ratio (z) = 0.05296 0.05296
#
# Static dielectric constant tensor:
#      x y z
#    x 1.593480 0.000000 0.000000 
#    y 0.000000 1.593480 0.000000 
#    z 0.000000 0.000000 1.597930 
# 
# From -- ./inp_files/7535.got.cif
#   From: 2010.05.17/outbox.cif.g08.bks.cpg/sg138_4_cif.got.tgz:7535.got - 2010.05.20 13:08:53.
