data_PCOD9570393
_publ_section_title
;
Structure prediction by ZEFSAII (Michael W. Deem and Ramdas Pophale) SiO2 
 PCOD9570393
Probable space group: P 42/N M C
;
_chemical_formula_sum "Si O2"
_cell_formula_units_Z 112
_cell_length_a 15.088127
_cell_length_b 15.088127
_cell_length_c 23.994448
_cell_angle_alpha 90.000000
_cell_angle_beta 90.000000
_cell_angle_gamma 90.000000
_cell_volume 5462.373911
_symmetry_space_group_name_H-M "P 42/N M C"
_symmetry_group_IT_number 137
_space_group.IT_coordinate_system_code '2'
_symmetry_cell_setting 'tetragonal'
loop_
_space_group_symop_operation_xyz
x,y,z
1/2-y,x,1/2+z
1/2-x,1/2-y,z
y,1/2-x,1/2+z
1/2+x,-y,-z
-x,1/2+y,-z
1/2+y,1/2+x,1/2-z
-y,-x,1/2-z
-x,-y,-z
1/2+y,-x,1/2-z
1/2+x,1/2+y,-z
-y,1/2+x,1/2-z
1/2-x,y,z
x,1/2-y,z
1/2-y,1/2-x,1/2+z
y,x,1/2+z
loop_
_atom_site_type_symbol
_atom_site_label
_atom_site_fract_x
_atom_site_fract_y
_atom_site_fract_z
Si Si1 0.146465 0.146463 0.936629
Si Si2 0.652466 0.849306 0.759786
Si Si3 0.645299 0.962525 0.452329
Si Si4 0.977078 0.590665 0.352629
Si Si5 0.846305 0.147072 0.094020
Si Si6 0.390060 0.485970 0.834880
Si Si7 0.348639 0.855629 0.312024
O O1 0.250000 0.133896 0.953104
O O2 0.136998 0.250000 0.920340
O O3 0.124835 0.080607 0.886595
O O4 0.079493 0.129266 0.987425
O O5 0.750000 0.858097 0.731924
O O6 0.648290 0.750000 0.784043
O O7 0.645562 0.922193 0.807526
O O8 0.570354 0.858215 0.717735
O O9 0.750000 0.947484 0.439380
O O10 0.580581 0.916269 0.408150
O O11 0.629034 0.068125 0.444649
O O12 0.989965 0.492353 0.328688
O O13 0.077507 0.623903 0.357403
O O14 0.750000 0.136153 0.066012
O O15 0.853679 0.250000 0.111847
O O16 0.848593 0.079077 0.145644
O O17 0.382234 0.882234 0.250000
O O18 0.250000 0.892881 0.322263
O O19 0.340999 0.750000 0.308018
#
# Coordination Sequence:
#
# PCOD9570393 Si02
#       7
#    16  16  16  16  16  16  16
#     4  10  21  38  61  87 116 153 196 244 297 348
#     4  11  23  38  59  88 121 155 192 239 295 351
#     4   9  20  38  59  86 117 149 192 240 288 350
#     4  11  22  35  56  84 117 154 189 231 288 351
#     4   9  18  34  57  82 111 152 196 240 294 349
#     4  11  22  37  58  86 118 153 195 244 289 339
#     4   9  18  33  52  74 104 145 192 237 278 329
#
# _framework density 20.503907000000002
#
# number of rings (size 3 to 8) (size 9 to 14) (size 15 to 20)
#    0.000    2.000    0.000    4.286    0.000    7.429 
#    0.000    1.429    0.000    3.429    0.000   16.000 
#    0.000    0.000    0.000    0.000    0.000    0.000 
#
# Total GULP energy -624791.361670 kJ/mol
# GULP energy per Si atom -5578.494301 kJ/mol
# Density = 2.045724 g / cm^3
# Si number density = 20.503907 Si / 1000 Ang^3
#
#
#
# Elastic Constant Matrix: (Units=GPa)
#
#
# Indices 1 2 3 4 5 6 
#
# 1 82.9889 31.9168 30.4703 0.0000 0.0000 0.0000
# 2 31.9168 82.9889 30.4703 0.0000 0.0000 0.0000
# 3 30.4703 30.4703 50.1853 0.0000 0.0000 0.0000
# 4 0.0000 0.0000 0.0000 21.2773 0.0000 0.0000
# 5 0.0000 0.0000 0.0000 0.0000 21.2773 0.0000
# 6 0.0000 0.0000 0.0000 0.0000 0.0000 22.4727
#
#
#
# Elastic Compliance Matrix: (Units=1/GPa)
#
#
# Indices 1 2 3 4 5 6 
#
# 1 0.016208 -0.003372 -0.007794 0.000000 0.000000 0.000000
# 2 -0.003372 0.016208 -0.007794 0.000000 0.000000 0.000000
# 3 -0.007794 -0.007794 0.029390 0.000000 0.000000 0.000000
# 4 0.000000 0.000000 0.000000 0.046999 0.000000 0.000000
# 5 0.000000 0.000000 0.000000 0.000000 0.046999 0.000000
# 6 0.000000 0.000000 0.000000 0.000000 0.000000 0.044498
#
#
# Mechanical properties :
#
#
# Convention : Reuss Voigt Hill
#
# Bulk Modulus (GPa) = 41.86193 44.65310 43.25752
# Shear Modulus (GPa) = 20.31014 21.22583 20.76798
#
# Velocity S-wave (km/s) = 3.15071 3.22096 3.18603
# Velocity P-wave (km/s) = 5.80490 5.97142 5.88875
#
# Compressibility (1/GPa) = 0.02388805
#
# Stress axis : x y z
#
# Youngs Moduli (GPa) = 61.69739 61.69739 34.02531
#
# Poissons Ratio (x) = 0.20805 0.26518
# Poissons Ratio (y) = 0.20805 0.26518
# Poissons Ratio (z) = 0.48084 0.48084
#
# Static dielectric constant tensor:
#      x y z
#    x 1.772280 0.000000 0.000000 
#    y 0.000000 1.772280 0.000000 
#    z 0.000000 0.000000 1.696360 
# 
# From -- ./inp_files/8920.got.cif
#   From: 2010.05.17/outbox.cif.g08.bks.cpg/sg137_5_cif.got.tgz:8920.got - 2010.05.20 13:01:12.
