data_PCOD9570913
_publ_section_title
;
Structure prediction by ZEFSAII (Michael W. Deem and Ramdas Pophale) SiO2 
 PCOD9570913
Probable space group: P 42/N C M
;
_chemical_formula_sum "Si O2"
_cell_formula_units_Z 128
_cell_length_a 25.121365
_cell_length_b 25.121365
_cell_length_c 10.020680
_cell_angle_alpha 90.000000
_cell_angle_beta 90.000000
_cell_angle_gamma 90.000000
_cell_volume 6323.880591
_symmetry_space_group_name_H-M "P 42/N C M"
_symmetry_group_IT_number 138
_space_group.IT_coordinate_system_code '2'
_symmetry_cell_setting 'tetragonal'
loop_
_space_group_symop_operation_xyz
x,y,z
1/2-y,x,1/2+z
1/2-x,1/2-y,z
y,1/2-x,1/2+z
1/2+x,-y,1/2-z
-x,1/2+y,1/2-z
1/2+y,1/2+x,-z
-y,-x,-z
-x,-y,-z
1/2+y,-x,1/2-z
1/2+x,1/2+y,-z
-y,1/2+x,1/2-z
1/2-x,y,1/2+z
x,1/2-y,1/2+z
1/2-y,1/2-x,z
y,x,z
loop_
_atom_site_type_symbol
_atom_site_label
_atom_site_fract_x
_atom_site_fract_y
_atom_site_fract_z
Si Si1 0.418071 0.164925 0.438864
Si Si2 0.034752 0.176066 0.230763
Si Si3 0.180450 0.903857 0.882682
Si Si4 0.080357 0.837765 0.827698
Si Si5 0.501494 0.798540 0.776321
Si Si6 0.419244 0.335397 0.519881
Si Si7 0.334238 0.250096 0.994585
Si Si8 0.828721 0.262013 0.788313
O O1 0.389468 0.110533 0.403293
O O2 0.434003 0.163843 0.594473
O O3 0.468038 0.174760 0.347020
O O4 0.374456 0.211835 0.414304
O O5 0.018617 0.237648 0.223618
O O6 0.070327 0.167251 0.361562
O O7 0.976220 0.148775 0.237807
O O8 0.119950 0.886710 0.855732
O O9 0.219011 0.852526 0.891174
O O10 0.196860 0.939992 0.758282
O O11 0.185386 0.932305 0.024966
O O12 0.120254 0.797166 0.752878
O O13 0.525096 0.825038 0.908151
O O14 0.390467 0.390467 0.553517
O O15 0.377179 0.288980 0.564666
O O16 0.292842 0.207159 0.930627
O O17 0.293683 0.293683 0.061955
O O18 0.802192 0.220144 0.681677
#
# Coordination Sequence:
#
# PCOD9570913 Si02
#       8
#    16  16  16  16  16  16  16  16
#     4  11  22  38  59  82 112 154 197 238 288 341
#     4  12  21  38  60  88 117 151 196 244 286 341
#     4  10  21  37  60  86 118 156 194 240 288 339
#     4  10  21  37  60  86 118 156 194 240 288 339
#     4  12  21  38  60  88 117 151 196 244 286 341
#     4  11  24  40  59  86 120 154 191 242 304 351
#     4   9  18  34  54  82 120 156 190 229 282 354
#     4   9  18  32  52  86 128 162 188 219 278 354
#
# _framework density 20.240735999999998
#
# number of rings (size 3 to 8) (size 9 to 14) (size 15 to 20)
#    0.000    1.500    5.000    0.750    0.000    0.500 
#    0.000    4.375    0.000   10.500    0.000    0.000 
#    0.000    0.000    0.000    0.000    0.000    0.000 
#
# Total GULP energy -712560.156637 kJ/mol
# GULP energy per Si atom -5566.876224 kJ/mol
# Density = 2.019467 g / cm^3
# Si number density = 20.240736 Si / 1000 Ang^3
#
#
#
# Elastic Constant Matrix: (Units=GPa)
#
#
# Indices 1 2 3 4 5 6 
#
# 1 100.5240 -24.9599 0.0581 0.0000 0.0000 0.0000
# 2 -24.9599 100.5240 0.0581 0.0000 0.0000 0.0000
# 3 0.0581 0.0581 54.9919 0.0000 0.0000 0.0000
# 4 0.0000 0.0000 0.0000 12.0534 0.0000 0.0000
# 5 0.0000 0.0000 0.0000 0.0000 12.0534 0.0000
# 6 0.0000 0.0000 0.0000 0.0000 0.0000 24.1855
#
#
#
# Elastic Compliance Matrix: (Units=1/GPa)
#
#
# Indices 1 2 3 4 5 6 
#
# 1 0.010601 0.002632 -0.000014 0.000000 0.000000 0.000000
# 2 0.002632 0.010601 -0.000014 0.000000 0.000000 0.000000
# 3 -0.000014 -0.000014 0.018185 0.000000 0.000000 0.000000
# 4 0.000000 0.000000 0.000000 0.082964 0.000000 0.000000
# 5 0.000000 0.000000 0.000000 0.000000 0.082964 0.000000
# 6 0.000000 0.000000 0.000000 0.000000 0.000000 0.041347
#
#
# Mechanical properties :
#
#
# Convention : Reuss Voigt Hill
#
# Bulk Modulus (GPa) = 22.42341 22.92805 22.67573
# Shear Modulus (GPa) = 19.50686 28.38402 23.94544
#
# Velocity S-wave (km/s) = 3.10779 3.74882 3.44325
# Velocity P-wave (km/s) = 4.89696 5.48548 5.19955
#
# Compressibility (1/GPa) = 0.04459625
#
# Stress axis : x y z
#
# Youngs Moduli (GPa) = 94.32646 94.32646 54.99183
#
# Poissons Ratio (x) = -0.24830 0.00077
# Poissons Ratio (y) = -0.24830 0.00077
# Poissons Ratio (z) = 0.00132 0.00132
#
# Static dielectric constant tensor:
#      x y z
#    x 1.742610 0.000000 0.000000 
#    y 0.000000 1.742610 0.000000 
#    z 0.000000 0.000000 1.774630 
# 
# From -- ./inp_files/3339.got.cif
#   From: 2010.05.17/outbox.cif.g08.bks.cpg/sg138_2_cif.got.tgz:3339.got - 2010.05.20 13:08:53.
