data_PCOD9570342
_publ_section_title
;
Structure prediction by ZEFSAII (Michael W. Deem and Ramdas Pophale) SiO2 
 PCOD9570342
Probable space group: P 42/N M C
;
_chemical_formula_sum "Si O2"
_cell_formula_units_Z 104
_cell_length_a 17.797828
_cell_length_b 17.797828
_cell_length_c 18.787696
_cell_angle_alpha 90.000000
_cell_angle_beta 90.000000
_cell_angle_gamma 90.000000
_cell_volume 5951.240964
_symmetry_space_group_name_H-M "P 42/N M C"
_symmetry_group_IT_number 137
_space_group.IT_coordinate_system_code '2'
_symmetry_cell_setting 'tetragonal'
loop_
_space_group_symop_operation_xyz
x,y,z
1/2-y,x,1/2+z
1/2-x,1/2-y,z
y,1/2-x,1/2+z
1/2+x,-y,-z
-x,1/2+y,-z
1/2+y,1/2+x,1/2-z
-y,-x,1/2-z
-x,-y,-z
1/2+y,-x,1/2-z
1/2+x,1/2+y,-z
-y,1/2+x,1/2-z
1/2-x,y,z
x,1/2-y,z
1/2-y,1/2-x,1/2+z
y,x,1/2+z
loop_
_atom_site_type_symbol
_atom_site_label
_atom_site_fract_x
_atom_site_fract_y
_atom_site_fract_z
Si Si1 0.161755 0.838246 0.250000
Si Si2 0.046676 0.336700 0.124738
Si Si3 0.454725 0.073797 0.978992
Si Si4 0.970032 0.337961 0.851074
Si Si5 0.664306 0.129675 0.333436
Si Si6 0.501173 0.163988 0.379536
Si Si7 0.564967 0.563636 0.745600
O O1 0.250000 0.850336 0.235721
O O2 0.141338 0.889283 0.317718
O O3 0.072847 0.250000 0.128022
O O4 0.081798 0.394654 0.181065
O O5 0.959049 0.336199 0.149121
O O6 0.055148 0.371927 0.046452
O O7 0.503744 0.116445 0.919526
O O8 0.379599 0.040852 0.942803
O O9 0.500000 0.000000 0.000000
O O10 0.971040 0.250000 0.866321
O O11 0.028801 0.361356 0.789900
O O12 0.647610 0.147610 0.250000
O O13 0.750000 0.156368 0.348946
O O14 0.592397 0.159461 0.377529
O O15 0.479116 0.250000 0.378539
O O16 0.472692 0.122891 0.308201
O O17 0.503932 0.496069 0.750000
#
# Coordination Sequence:
#
# PCOD9570342 Si02
#       7
#     8  16  16  16  16  16  16
#     4   9  18  34  58  88 116 144 186 239 290 338
#     4  11  20  34  58  83 112 146 184 234 285 331
#     4  11  22  38  57  81 112 151 198 236 274 333
#     4  10  21  36  58  83 114 151 190 236 290 337
#     4  11  20  31  52  85 120 149 177 215 274 339
#     4  11  21  36  56  81 114 150 188 229 281 333
#     4  11  18  34  59  86 112 143 191 237 273 329
#
# _framework density 17.475346999999999
#
# number of rings (size 3 to 8) (size 9 to 14) (size 15 to 20)
#    0.000    1.308    5.385    2.308    0.000    1.077 
#    0.000    1.538    0.000   16.615    0.000    0.000 
#    0.000    0.000    0.000    0.000    0.000    0.000 
#
# Total GULP energy -579980.107117 kJ/mol
# GULP energy per Si atom -5576.731799 kJ/mol
# Density = 1.743557 g / cm^3
# Si number density = 17.475347 Si / 1000 Ang^3
#
#
#
# Elastic Constant Matrix: (Units=GPa)
#
#
# Indices 1 2 3 4 5 6 
#
# 1 60.7868 33.4292 32.4825 0.0000 0.0000 0.0000
# 2 33.4292 60.7866 32.4827 0.0000 0.0000 0.0000
# 3 32.4825 32.4827 101.8963 0.0000 0.0000 0.0000
# 4 0.0000 0.0000 0.0000 17.8013 0.0000 0.0000
# 5 0.0000 0.0000 0.0000 0.0000 17.8014 0.0000
# 6 0.0000 0.0000 0.0000 0.0000 0.0000 19.4977
#
#
#
# Elastic Compliance Matrix: (Units=1/GPa)
#
#
# Indices 1 2 3 4 5 6 
#
# 1 0.025079 -0.011474 -0.004337 0.000000 0.000000 0.000000
# 2 -0.011474 0.025079 -0.004337 0.000000 0.000000 0.000000
# 3 -0.004337 -0.004337 0.012579 0.000000 0.000000 0.000000
# 4 0.000000 0.000000 0.000000 0.056176 0.000000 0.000000
# 5 0.000000 0.000000 0.000000 0.000000 0.056175 0.000000
# 6 0.000000 0.000000 0.000000 0.000000 0.000000 0.051288
#
#
# Mechanical properties :
#
#
# Convention : Reuss Voigt Hill
#
# Bulk Modulus (GPa) = 44.56267 46.69536 45.62902
# Shear Modulus (GPa) = 18.23811 19.35844 18.79828
#
# Velocity S-wave (km/s) = 3.23406 3.33191 3.28335
# Velocity P-wave (km/s) = 6.28500 6.44832 6.36718
#
# Compressibility (1/GPa) = 0.02244031
#
# Stress axis : x y z
#
# Youngs Moduli (GPa) = 39.87465 39.87442 79.49840
#
# Poissons Ratio (x) = 0.45753 0.34476
# Poissons Ratio (y) = 0.45754 0.34477
# Poissons Ratio (z) = 0.17293 0.17293
#
# Static dielectric constant tensor:
#      x y z
#    x 1.741530 0.000000 0.000000 
#    y 0.000000 1.741700 0.000000 
#    z 0.000000 0.000000 1.958500 
# 
# From -- ./inp_files/6626.got.cif
#   From: 2010.05.17/outbox.cif.g08.bks.cpg/sg137_4_cif.got.tgz:6626.got - 2010.05.20 13:01:12.
