data_PCOD9570498
_publ_section_title
;
Structure prediction by ZEFSAII (Michael W. Deem and Ramdas Pophale) SiO2 
 PCOD9570498
Probable space group: P 42/N M C
;
_chemical_formula_sum "Si O2"
_cell_formula_units_Z 48
_cell_length_a 11.269965
_cell_length_b 11.269965
_cell_length_c 18.807880
_cell_angle_alpha 90.000000
_cell_angle_beta 90.000000
_cell_angle_gamma 90.000000
_cell_volume 2388.828544
_symmetry_space_group_name_H-M "P 42/N M C"
_symmetry_group_IT_number 137
_space_group.IT_coordinate_system_code '2'
_symmetry_cell_setting 'tetragonal'
loop_
_space_group_symop_operation_xyz
x,y,z
1/2-y,x,1/2+z
1/2-x,1/2-y,z
y,1/2-x,1/2+z
1/2+x,-y,-z
-x,1/2+y,-z
1/2+y,1/2+x,1/2-z
-y,-x,1/2-z
-x,-y,-z
1/2+y,-x,1/2-z
1/2+x,1/2+y,-z
-y,1/2+x,1/2-z
1/2-x,y,z
x,1/2-y,z
1/2-y,1/2-x,1/2+z
y,x,1/2+z
loop_
_atom_site_type_symbol
_atom_site_label
_atom_site_fract_x
_atom_site_fract_y
_atom_site_fract_z
Si Si1 0.490814 0.610888 0.822225
Si Si2 0.891138 0.750000 0.144441
Si Si3 0.894204 0.750000 0.307001
Si Si4 0.515719 0.889096 0.553317
O O1 0.452788 0.547213 0.750000
O O2 0.493448 0.750000 0.806582
O O3 0.625106 0.570739 0.841416
O O4 0.403153 0.584964 0.886707
O O5 0.750000 0.750000 0.154879
O O6 0.938529 0.750000 0.224930
O O7 0.916824 0.865015 0.097950
O O8 0.750000 0.750000 0.308047
O O9 0.520875 0.750000 0.527903
O O10 0.500000 0.000000 0.500000
#
# Coordination Sequence:
#
# PCOD9570498 Si02
#       4
#    16   8   8  16
#     4  11  22  38  64  93 122 156 203 260 316 368
#     4   9  18  40  63  85 119 162 203 242 302 376
#     4   9  18  36  62  88 116 157 204 250 306 380
#     4  11  25  42  62  89 125 167 207 253 308 371
#
# _framework density 20.093532
#
# number of rings (size 3 to 8) (size 9 to 14) (size 15 to 20)
#    0.000    1.667    3.333    1.000    4.667    2.333 
#    0.000    0.000    0.000    2.500    0.000    0.000 
#    0.000    0.000    0.000    0.000    0.000    0.000 
#
# Total GULP energy -267463.172381 kJ/mol
# GULP energy per Si atom -5572.149425 kJ/mol
# Density = 2.004780 g / cm^3
# Si number density = 20.093532 Si / 1000 Ang^3
#
#
#
# Elastic Constant Matrix: (Units=GPa)
#
#
# Indices 1 2 3 4 5 6 
#
# 1 87.8381 22.2442 15.9152 0.0000 0.0000 0.0000
# 2 22.2442 87.8398 15.9156 0.0000 0.0000 0.0000
# 3 15.9152 15.9156 53.3655 0.0000 0.0000 0.0000
# 4 0.0000 0.0000 0.0000 -26.4881 0.0000 0.0000
# 5 0.0000 0.0000 0.0000 0.0000 -26.4831 0.0000
# 6 0.0000 0.0000 0.0000 0.0000 0.0000 23.4113
#
#
#
# Elastic Compliance Matrix: (Units=1/GPa)
#
#
# Indices 1 2 3 4 5 6 
#
# 1 0.012593 -0.002652 -0.002965 0.000000 0.000000 0.000000
# 2 -0.002652 0.012593 -0.002965 0.000000 0.000000 0.000000
# 3 -0.002965 -0.002965 0.020507 0.000000 0.000000 0.000000
# 4 0.000000 0.000000 0.000000 -0.037753 0.000000 0.000000
# 5 0.000000 0.000000 0.000000 0.000000 -0.037760 0.000000
# 6 0.000000 0.000000 0.000000 0.000000 0.000000 0.042714
#
#
# Mechanical properties :
#
#
# Convention : Reuss Voigt Hill
#
# Bulk Modulus (GPa) = 35.05031 37.46594 36.25813
# Shear Modulus (GPa) = 126.36283 5.75257 66.05770
#
# Velocity S-wave (km/s) = 7.93876 1.69385 5.73990
# Velocity P-wave (km/s) = 10.07538 4.74465 7.87480
#
# Compressibility (1/GPa) = 0.02853042
#
# Stress axis : x y z
#
# Youngs Moduli (GPa) = 79.40700 79.40845 48.76356
#
# Poissons Ratio (x) = 0.21058 0.14458
# Poissons Ratio (y) = 0.21058 0.14458
# Poissons Ratio (z) = 0.23543 0.23544
#
# Static dielectric constant tensor:
#      x y z
#    x 1.839920 0.000000 0.000000 
#    y 0.000000 1.839930 0.000000 
#    z 0.000000 0.000000 1.713160 
# 
# From -- ./inp_files/5803.got.cif
#   From: 2010.05.17/outbox.cif.g08.bks.cpg/sg137_3_cif.got.tgz:5803.got - 2010.05.20 13:01:12.
