data_PCOD9570389
_publ_section_title
;
Structure prediction by ZEFSAII (Michael W. Deem and Ramdas Pophale) SiO2 
 PCOD9570389
Probable space group: P 42/N M C
;
_chemical_formula_sum "Si O2"
_cell_formula_units_Z 96
_cell_length_a 14.088735
_cell_length_b 14.088735
_cell_length_c 22.272350
_cell_angle_alpha 90.000000
_cell_angle_beta 90.000000
_cell_angle_gamma 90.000000
_cell_volume 4420.893406
_symmetry_space_group_name_H-M "P 42/N M C"
_symmetry_group_IT_number 137
_space_group.IT_coordinate_system_code '2'
_symmetry_cell_setting 'tetragonal'
loop_
_space_group_symop_operation_xyz
x,y,z
1/2-y,x,1/2+z
1/2-x,1/2-y,z
y,1/2-x,1/2+z
1/2+x,-y,-z
-x,1/2+y,-z
1/2+y,1/2+x,1/2-z
-y,-x,1/2-z
-x,-y,-z
1/2+y,-x,1/2-z
1/2+x,1/2+y,-z
-y,1/2+x,1/2-z
1/2-x,y,z
x,1/2-y,z
1/2-y,1/2-x,1/2+z
y,x,1/2+z
loop_
_atom_site_type_symbol
_atom_site_label
_atom_site_fract_x
_atom_site_fract_y
_atom_site_fract_z
Si Si1 0.136041 0.526248 0.932536
Si Si2 0.355765 0.365567 0.620320
Si Si3 0.865943 0.359297 0.184713
Si Si4 0.357024 0.365422 0.757929
Si Si5 0.554540 0.362943 0.565914
Si Si6 0.139321 0.466867 0.375702
O O1 0.250000 0.517084 0.930910
O O2 0.104767 0.586480 0.874865
O O3 0.090312 0.423643 0.923475
O O4 0.113070 0.572759 0.996386
O O5 0.250000 0.397639 0.602378
O O6 0.353040 0.250000 0.620725
O O7 0.374132 0.396052 0.689446
O O8 0.445188 0.390387 0.579739
O O9 0.896960 0.396960 0.250000
O O10 0.750000 0.360706 0.186563
O O11 0.895005 0.250000 0.179786
O O12 0.250000 0.396850 0.775550
O O13 0.355760 0.250000 0.756145
O O14 0.430843 0.391239 0.809602
O O15 0.565431 0.250000 0.574351
O O16 0.618059 0.423678 0.610833
O O17 0.250000 0.446136 0.382328
#
# Coordination Sequence:
#
# PCOD9570389 Si02
#       6
#    16  16  16  16  16  16
#     4  10  21  38  60  87 120 153 195 250 307 367
#     4   8  15  32  58  84 111 145 189 244 303 355
#     4   8  15  32  59  89 120 151 185 236 309 385
#     4   8  15  31  56  83 108 139 186 246 306 351
#     4  10  22  39  58  84 120 162 204 247 296 359
#     4  11  23  38  57  81 117 161 203 249 297 355
#
# _framework density 21.715067000000001
#
# number of rings (size 3 to 8) (size 9 to 14) (size 15 to 20)
#    0.000    2.833    0.000    2.500    0.000    3.333 
#    3.000    4.167    0.000    0.000    0.000    4.667 
#    0.000    0.000    0.000    0.000    0.000    0.000 
#
# Total GULP energy -536433.340923 kJ/mol
# GULP energy per Si atom -5587.847301 kJ/mol
# Density = 2.166564 g / cm^3
# Si number density = 21.715067 Si / 1000 Ang^3
#
#
#
# Elastic Constant Matrix: (Units=GPa)
#
#
# Indices 1 2 3 4 5 6 
#
# 1 67.3098 9.7151 43.2635 0.0000 0.0000 0.0000
# 2 9.7151 67.3098 43.2635 0.0000 0.0000 0.0000
# 3 43.2635 43.2635 121.7067 0.0000 0.0000 0.0000
# 4 0.0000 0.0000 0.0000 32.7162 0.0000 0.0000
# 5 0.0000 0.0000 0.0000 0.0000 32.7162 0.0000
# 6 0.0000 0.0000 0.0000 0.0000 0.0000 27.5478
#
#
#
# Elastic Compliance Matrix: (Units=1/GPa)
#
#
# Indices 1 2 3 4 5 6 
#
# 1 0.019488 0.002125 -0.007683 0.000000 0.000000 0.000000
# 2 0.002125 0.019488 -0.007683 0.000000 0.000000 0.000000
# 3 -0.007683 -0.007683 0.013679 0.000000 0.000000 0.000000
# 4 0.000000 0.000000 0.000000 0.030566 0.000000 0.000000
# 5 0.000000 0.000000 0.000000 0.000000 0.030566 0.000000
# 6 0.000000 0.000000 0.000000 0.000000 0.000000 0.036300
#
#
# Mechanical properties :
#
#
# Convention : Reuss Voigt Hill
#
# Bulk Modulus (GPa) = 38.20617 49.86785 44.03701
# Shear Modulus (GPa) = 26.98423 29.26833 28.12628
#
# Velocity S-wave (km/s) = 3.52895 3.67527 3.60285
# Velocity P-wave (km/s) = 5.85125 6.40505 6.13440
#
# Compressibility (1/GPa) = 0.02617378
#
# Stress axis : x y z
#
# Youngs Moduli (GPa) = 51.31307 51.31307 73.10614
#
# Poissons Ratio (x) = -0.10907 0.56168
# Poissons Ratio (y) = -0.10907 0.56168
# Poissons Ratio (z) = 0.39424 0.39424
#
# Static dielectric constant tensor:
#      x y z
#    x 1.815140 0.000000 0.000000 
#    y 0.000000 1.815140 0.000000 
#    z 0.000000 0.000000 1.767780 
# 
# From -- ./inp_files/7834.got.cif
#   From: 2010.05.17/outbox.cif.g08.bks.cpg/sg137_4_cif.got.tgz:7834.got - 2010.05.20 13:01:12.
