data_PCOD9570087
_publ_section_title
;
Structure prediction by ZEFSAII (Michael W. Deem and Ramdas Pophale) SiO2 
 PCOD9570087
Probable space group: P 42/N M C
;
_chemical_formula_sum "Si O2"
_cell_formula_units_Z 112
_cell_length_a 18.443076
_cell_length_b 18.443076
_cell_length_c 20.187128
_cell_angle_alpha 90.000000
_cell_angle_beta 90.000000
_cell_angle_gamma 90.000000
_cell_volume 6866.592084
_symmetry_space_group_name_H-M "P 42/N M C"
_symmetry_group_IT_number 137
_space_group.IT_coordinate_system_code '2'
_symmetry_cell_setting 'tetragonal'
loop_
_space_group_symop_operation_xyz
x,y,z
1/2-y,x,1/2+z
1/2-x,1/2-y,z
y,1/2-x,1/2+z
1/2+x,-y,-z
-x,1/2+y,-z
1/2+y,1/2+x,1/2-z
-y,-x,1/2-z
-x,-y,-z
1/2+y,-x,1/2-z
1/2+x,1/2+y,-z
-y,1/2+x,1/2-z
1/2-x,y,z
x,1/2-y,z
1/2-y,1/2-x,1/2+z
y,x,1/2+z
loop_
_atom_site_type_symbol
_atom_site_label
_atom_site_fract_x
_atom_site_fract_y
_atom_site_fract_z
Si Si1 0.977416 0.523719 0.427321
Si Si2 0.164032 0.332782 0.952063
Si Si3 0.835775 0.394264 0.180226
Si Si4 0.166171 0.094457 0.093980
Si Si5 0.964169 0.171756 0.116360
Si Si6 0.599591 0.948829 0.149691
Si Si7 0.591538 0.832918 0.782095
O O1 0.971428 0.609320 0.414535
O O2 0.894949 0.496004 0.422747
O O3 0.000000 0.500000 0.500000
O O4 0.023238 0.479770 0.372326
O O5 0.250000 0.334520 0.937155
O O6 0.138356 0.250000 0.941329
O O7 0.126820 0.393602 0.906578
O O8 0.156316 0.355249 0.028989
O O9 0.872350 0.372350 0.250000
O O10 0.750000 0.383474 0.183120
O O11 0.880154 0.342922 0.130228
O O12 0.853970 0.476616 0.157829
O O13 0.250000 0.072595 0.096838
O O14 0.143466 0.138717 0.159605
O O15 0.976726 0.250000 0.085831
O O16 0.011556 0.169576 0.184290
O O17 0.612865 0.910562 0.220248
O O18 0.609217 0.750000 0.761974
#
# Coordination Sequence:
#
# PCOD9570087 Si02
#       7
#    16  16  16  16  16  16  16
#     4  10  20  37  55  79 104 141 189 227 273 330
#     4  10  20  34  52  77 109 144 182 225 273 327
#     4  11  20  30  47  73 106 143 181 218 265 322
#     4  10  21  36  55  77 108 147 189 229 271 330
#     4   9  19  32  48  70 101 138 178 221 269 325
#     4  11  21  35  55  76 108 143 184 226 272 325
#     4  10  19  33  53  77 105 140 179 220 271 327
#
# _framework density 16.310856999999999
#
# number of rings (size 3 to 8) (size 9 to 14) (size 15 to 20)
#    0.000    1.857    2.857    2.143    0.000    3.000 
#    0.000    0.000    0.000    0.000    0.000    0.000 
#    0.000    0.571    0.000    0.571    0.000    0.000 
#
# Total GULP energy -624029.159469 kJ/mol
# GULP energy per Si atom -5571.688924 kJ/mol
# Density = 1.627373 g / cm^3
# Si number density = 16.310857 Si / 1000 Ang^3
#
#
#
# Elastic Constant Matrix: (Units=GPa)
#
#
# Indices 1 2 3 4 5 6 
#
# 1 112.3445 38.2523 43.6010 0.0000 0.0000 0.0000
# 2 38.2523 112.3445 43.6010 0.0000 0.0000 0.0000
# 3 43.6010 43.6010 80.7530 0.0000 0.0000 0.0000
# 4 0.0000 0.0000 0.0000 17.6868 0.0000 0.0000
# 5 0.0000 0.0000 0.0000 0.0000 17.6868 0.0000
# 6 0.0000 0.0000 0.0000 0.0000 0.0000 9.2348
#
#
#
# Elastic Compliance Matrix: (Units=1/GPa)
#
#
# Indices 1 2 3 4 5 6 
#
# 1 0.011579 -0.001918 -0.005216 0.000000 0.000000 0.000000
# 2 -0.001918 0.011579 -0.005216 0.000000 0.000000 0.000000
# 3 -0.005216 -0.005216 0.018016 0.000000 0.000000 0.000000
# 4 0.000000 0.000000 0.000000 0.056539 0.000000 0.000000
# 5 0.000000 0.000000 0.000000 0.000000 0.056539 0.000000
# 6 0.000000 0.000000 0.000000 0.000000 0.000000 0.108286
#
#
# Mechanical properties :
#
#
# Convention : Reuss Voigt Hill
#
# Bulk Modulus (GPa) = 60.70530 61.81671 61.26100
# Shear Modulus (GPa) = 17.08062 20.92086 19.00074
#
# Velocity S-wave (km/s) = 3.23955 3.58527 3.41679
# Velocity P-wave (km/s) = 7.16180 7.42431 7.29423
#
# Compressibility (1/GPa) = 0.01647303
#
# Stress axis : x y z
#
# Youngs Moduli (GPa) = 86.36604 86.36604 55.50621
#
# Poissons Ratio (x) = 0.16566 0.28952
# Poissons Ratio (y) = 0.16566 0.28952
# Poissons Ratio (z) = 0.45049 0.45049
#
# Static dielectric constant tensor:
#      x y z
#    x 1.568260 0.000000 0.000000 
#    y 0.000000 1.568260 0.000000 
#    z 0.000000 0.000000 1.567120 
# 
# From -- ./inp_files/8064.got.cif
#   From: 2010.05.17/outbox.cif.g08.bks.cpg/sg137_5_cif.got.tgz:8064.got - 2010.05.20 13:01:12.
