data_PCOD9570427
_publ_section_title
;
Structure prediction by ZEFSAII (Michael W. Deem and Ramdas Pophale) SiO2 
 PCOD9570427
Probable space group: P 42/N M C
;
_chemical_formula_sum "Si O2"
_cell_formula_units_Z 112
_cell_length_a 14.945627
_cell_length_b 14.945627
_cell_length_c 24.654886
_cell_angle_alpha 90.000000
_cell_angle_beta 90.000000
_cell_angle_gamma 90.000000
_cell_volume 5507.205437
_symmetry_space_group_name_H-M "P 42/N M C"
_symmetry_group_IT_number 137
_space_group.IT_coordinate_system_code '2'
_symmetry_cell_setting 'tetragonal'
loop_
_space_group_symop_operation_xyz
x,y,z
1/2-y,x,1/2+z
1/2-x,1/2-y,z
y,1/2-x,1/2+z
1/2+x,-y,-z
-x,1/2+y,-z
1/2+y,1/2+x,1/2-z
-y,-x,1/2-z
-x,-y,-z
1/2+y,-x,1/2-z
1/2+x,1/2+y,-z
-y,1/2+x,1/2-z
1/2-x,y,z
x,1/2-y,z
1/2-y,1/2-x,1/2+z
y,x,1/2+z
loop_
_atom_site_type_symbol
_atom_site_label
_atom_site_fract_x
_atom_site_fract_y
_atom_site_fract_z
Si Si1 0.082188 0.039420 0.532912
Si Si2 0.439831 0.035400 0.332455
Si Si3 0.348043 0.652976 0.571549
Si Si4 0.981649 0.643679 0.361839
Si Si5 0.346420 0.899010 0.808348
Si Si6 0.354953 0.148669 0.237259
Si Si7 0.353675 0.355338 0.430585
O O1 0.049911 0.105628 0.580285
O O2 0.137675 0.096916 0.489050
O O3 0.120784 0.946370 0.556228
O O4 0.000000 0.000000 0.500000
O O5 0.538343 0.068633 0.316499
O O6 0.385469 0.078435 0.282984
O O7 0.410832 0.088247 0.386935
O O8 0.443498 0.928661 0.341672
O O9 0.250000 0.658861 0.547031
O O10 0.394534 0.750000 0.557076
O O11 0.343200 0.653952 0.636753
O O12 0.005707 0.750000 0.363071
O O13 0.898480 0.632762 0.320632
O O14 0.353443 0.853443 0.750000
O O15 0.250000 0.948029 0.809601
O O16 0.250000 0.158210 0.245648
O O17 0.393434 0.250000 0.239131
O O18 0.250000 0.358943 0.413240
O O19 0.379620 0.250000 0.432379
#
# Coordination Sequence:
#
# PCOD9570427 Si02
#       7
#    16  16  16  16  16  16  16
#     4  12  23  43  64  91 125 170 222 275 327 397
#     4  12  22  40  62  93 128 169 216 268 331 394
#     4  10  22  39  59  87 125 166 206 256 319 385
#     4  11  24  42  64  94 132 173 220 275 336 402
#     4  11  21  34  56  88 127 169 211 253 307 385
#     4  10  22  40  66  99 133 170 212 267 335 403
#     4  11  24  42  66  95 126 164 216 277 336 396
#
# _framework density 20.336993
#
# number of rings (size 3 to 8) (size 9 to 14) (size 15 to 20)
#    0.000    1.000    2.857    4.286    0.000    5.286 
#    0.000    1.429    0.000    1.714    0.000    4.000 
#    0.000    0.000    0.000    0.000    0.000    0.000 
#
# Total GULP energy -623880.858978 kJ/mol
# GULP energy per Si atom -5570.364812 kJ/mol
# Density = 2.029071 g / cm^3
# Si number density = 20.336993 Si / 1000 Ang^3
#
#
#
# Elastic Constant Matrix: (Units=GPa)
#
#
# Indices 1 2 3 4 5 6 
#
# 1 132.4366 43.5051 45.3903 0.0000 0.0000 0.0000
# 2 43.5051 132.4366 45.3903 0.0000 0.0000 0.0000
# 3 45.3903 45.3903 116.0403 0.0000 0.0000 0.0000
# 4 0.0000 0.0000 0.0000 -9.8345 0.0000 0.0000
# 5 0.0000 0.0000 0.0000 0.0000 -9.8345 0.0000
# 6 0.0000 0.0000 0.0000 0.0000 0.0000 26.9789
#
#
#
# Elastic Compliance Matrix: (Units=1/GPa)
#
#
# Indices 1 2 3 4 5 6 
#
# 1 0.009183 -0.002062 -0.002785 0.000000 0.000000 0.000000
# 2 -0.002062 0.009183 -0.002785 0.000000 0.000000 0.000000
# 3 -0.002785 -0.002785 0.010797 0.000000 0.000000 0.000000
# 4 0.000000 0.000000 0.000000 -0.101683 0.000000 0.000000
# 5 0.000000 0.000000 0.000000 0.000000 -0.101683 0.000000
# 6 0.000000 0.000000 0.000000 0.000000 0.000000 0.037066
#
#
# Mechanical properties :
#
#
# Convention : Reuss Voigt Hill
#
# Bulk Modulus (GPa) = 71.95836 72.16500 72.06168
# Shear Modulus (GPa) = -42.64786 17.90382 -12.37202
#
# Velocity S-wave (km/s) = -4.58433 2.97030 -2.46915
# Velocity P-wave (km/s) = 2.72733 6.87933 5.23276
#
# Compressibility (1/GPa) = 0.01389693
#
# Stress axis : x y z
#
# Youngs Moduli (GPa) = 108.89981 108.89981 92.62026
#
# Poissons Ratio (x) = 0.22454 0.25798
# Poissons Ratio (y) = 0.22454 0.25798
# Poissons Ratio (z) = 0.30333 0.30333
#
# Static dielectric constant tensor:
#      x y z
#    x 1.915820 0.000000 0.000000 
#    y 0.000000 1.915820 0.000000 
#    z 0.000000 0.000000 1.739150 
# 
# From -- ./inp_files/8953.got.cif
#   From: 2010.05.17/outbox.cif.g08.bks.cpg/sg137_5_cif.got.tgz:8953.got - 2010.05.20 13:01:12.
