data_PCOD9570232
_publ_section_title
;
Structure prediction by ZEFSAII (Michael W. Deem and Ramdas Pophale) SiO2 
 PCOD9570232
Probable space group: P 42/N M C
;
_chemical_formula_sum "Si O2"
_cell_formula_units_Z 112
_cell_length_a 14.619488
_cell_length_b 14.619488
_cell_length_c 27.968764
_cell_angle_alpha 90.000000
_cell_angle_beta 90.000000
_cell_angle_gamma 90.000000
_cell_volume 5977.747970
_symmetry_space_group_name_H-M "P 42/N M C"
_symmetry_group_IT_number 137
_space_group.IT_coordinate_system_code '2'
_symmetry_cell_setting 'tetragonal'
loop_
_space_group_symop_operation_xyz
x,y,z
1/2-y,x,1/2+z
1/2-x,1/2-y,z
y,1/2-x,1/2+z
1/2+x,-y,-z
-x,1/2+y,-z
1/2+y,1/2+x,1/2-z
-y,-x,1/2-z
-x,-y,-z
1/2+y,-x,1/2-z
1/2+x,1/2+y,-z
-y,1/2+x,1/2-z
1/2-x,y,z
x,1/2-y,z
1/2-y,1/2-x,1/2+z
y,x,1/2+z
loop_
_atom_site_type_symbol
_atom_site_label
_atom_site_fract_x
_atom_site_fract_y
_atom_site_fract_z
Si Si1 0.145194 0.963689 0.371648
Si Si2 0.141870 0.858753 0.892262
Si Si3 0.350654 0.401154 0.288132
Si Si4 0.643854 0.860113 0.387837
Si Si5 0.051993 0.848662 0.711109
Si Si6 0.979724 0.991834 0.444317
Si Si7 0.000016 0.857240 0.309500
O O1 0.250000 0.933351 0.383086
O O2 0.088615 0.900662 0.334248
O O3 0.154305 0.055064 0.340465
O O4 0.075596 0.979336 0.415546
O O5 0.250000 0.867112 0.903677
O O6 0.119340 0.750000 0.893211
O O7 0.129040 0.901888 0.839465
O O8 0.078833 0.920935 0.926021
O O9 0.250000 0.360479 0.276980
O O10 0.442873 0.344623 0.290232
O O11 0.366680 0.476985 0.246379
O O12 0.750000 0.888509 0.387112
O O13 0.641831 0.750000 0.391320
O O14 0.589576 0.888788 0.339586
O O15 0.585478 0.906612 0.429866
O O16 0.077858 0.922143 0.750000
O O17 0.088763 0.750000 0.726594
O O18 0.000000 0.000000 0.500000
O O19 0.008886 0.750000 0.318057
#
# Coordination Sequence:
#
# PCOD9570232 Si02
#       7
#    16  16  16  16  16  16  16
#     4  10  20  35  54  78 112 152 196 242 290 347
#     4  10  22  41  63  89 122 157 196 243 296 356
#     4  10  20  35  55  81 118 160 199 236 284 345
#     4   9  19  36  58  86 117 146 183 236 294 352
#     4  11  22  36  58  88 124 162 200 240 287 348
#     4  11  23  39  62  85 112 150 196 249 306 354
#     4   9  18  32  52  81 115 152 191 235 286 344
#
# _framework density 18.736152000000001
#
# number of rings (size 3 to 8) (size 9 to 14) (size 15 to 20)
#    0.000    2.000    1.429    2.143    2.000    3.571 
#    0.000    1.429    0.000    3.000    0.000    0.000 
#    0.000    0.000    0.000    0.000    0.000    0.000 
#
# Total GULP energy -623964.789917 kJ/mol
# GULP energy per Si atom -5571.114196 kJ/mol
# Density = 1.869351 g / cm^3
# Si number density = 18.736152 Si / 1000 Ang^3
#
#
#
# Elastic Constant Matrix: (Units=GPa)
#
#
# Indices 1 2 3 4 5 6 
#
# 1 125.2008 47.3443 44.5447 0.0000 0.0000 0.0000
# 2 47.3443 125.2011 44.5417 0.0000 0.0000 0.0000
# 3 44.5447 44.5417 91.4016 0.0000 0.0000 0.0000
# 4 0.0000 0.0000 0.0000 15.3905 0.0000 0.0000
# 5 0.0000 0.0000 0.0000 0.0000 15.3906 0.0000
# 6 0.0000 0.0000 0.0000 0.0000 0.0000 22.2994
#
#
#
# Elastic Compliance Matrix: (Units=1/GPa)
#
#
# Indices 1 2 3 4 5 6 
#
# 1 0.010294 -0.002550 -0.003774 0.000000 0.000000 0.000000
# 2 -0.002550 0.010294 -0.003774 0.000000 0.000000 0.000000
# 3 -0.003774 -0.003774 0.014619 0.000000 0.000000 0.000000
# 4 0.000000 0.000000 0.000000 0.064975 0.000000 0.000000
# 5 0.000000 0.000000 0.000000 0.000000 0.064975 0.000000
# 6 0.000000 0.000000 0.000000 0.000000 0.000000 0.044844
#
#
# Mechanical properties :
#
#
# Convention : Reuss Voigt Hill
#
# Bulk Modulus (GPa) = 66.61594 68.29612 67.45603
# Shear Modulus (GPa) = 21.25840 24.30763 22.78302
#
# Velocity S-wave (km/s) = 3.37207 3.60580 3.49089
# Velocity P-wave (km/s) = 7.12692 7.33937 7.23393
#
# Compressibility (1/GPa) = 0.01501142
#
# Stress axis : x y z
#
# Youngs Moduli (GPa) = 97.14142 97.14441 68.40365
#
# Poissons Ratio (x) = 0.24772 0.25817
# Poissons Ratio (y) = 0.24771 0.25813
# Poissons Ratio (z) = 0.36664 0.36659
#
# Static dielectric constant tensor:
#      x y z
#    x 1.688830 0.000000 0.000000 
#    y 0.000000 1.688840 0.000000 
#    z 0.000000 0.000000 1.622540 
# 
# From -- ./inp_files/9823.got.cif
#   From: 2010.05.17/outbox.cif.g08.bks.cpg/sg137_5_cif.got.tgz:9823.got - 2010.05.20 13:01:12.
