data_PCOD9570400
_publ_section_title
;
Structure prediction by ZEFSAII (Michael W. Deem and Ramdas Pophale) SiO2 
 PCOD9570400
Probable space group: P 42/N M C
;
_chemical_formula_sum "Si O2"
_cell_formula_units_Z 56
_cell_length_a 15.468577
_cell_length_b 15.468577
_cell_length_c 10.111080
_cell_angle_alpha 90.000000
_cell_angle_beta 90.000000
_cell_angle_gamma 90.000000
_cell_volume 2419.347619
_symmetry_space_group_name_H-M "P 42/N M C"
_symmetry_group_IT_number 137
_space_group.IT_coordinate_system_code '2'
_symmetry_cell_setting 'tetragonal'
loop_
_space_group_symop_operation_xyz
x,y,z
1/2-y,x,1/2+z
1/2-x,1/2-y,z
y,1/2-x,1/2+z
1/2+x,-y,-z
-x,1/2+y,-z
1/2+y,1/2+x,1/2-z
-y,-x,1/2-z
-x,-y,-z
1/2+y,-x,1/2-z
1/2+x,1/2+y,-z
-y,1/2+x,1/2-z
1/2-x,y,z
x,1/2-y,z
1/2-y,1/2-x,1/2+z
y,x,1/2+z
loop_
_atom_site_type_symbol
_atom_site_label
_atom_site_fract_x
_atom_site_fract_y
_atom_site_fract_z
Si Si1 0.466909 0.347642 0.896158
Si Si2 0.650613 0.349388 0.250000
Si Si3 0.082032 0.653012 0.465981
Si Si4 0.848496 0.887731 0.865378
O O1 0.479039 0.250000 0.850606
O O2 0.563661 0.384493 0.902161
O O3 0.401648 0.383331 0.783879
O O4 0.418619 0.346737 0.036823
O O5 0.750000 0.359794 0.296343
O O6 0.592545 0.362256 0.377483
O O7 0.121392 0.750000 0.438830
O O8 0.983780 0.658257 0.423650
O O9 0.750000 0.850341 0.866983
#
# Coordination Sequence:
#
# PCOD9570400 Si02
#       4
#    16   8  16  16
#     4  11  24  42  67  96 128 174 220 269 334 392
#     4   9  18  32  54  90 128 162 202 247 308 382
#     4  10  21  38  63  95 131 166 209 267 326 396
#     4  10  24  43  64  95 130 170 223 271 325 393
#
# _framework density 23.146736000000001
#
# number of rings (size 3 to 8) (size 9 to 14) (size 15 to 20)
#    0.000    1.857    0.000    2.571    4.000    3.429 
#    0.000    4.286    0.000   10.286    0.000    0.000 
#    0.000    0.000    0.000    0.000    0.000    0.000 
#
# Total GULP energy -312356.162490 kJ/mol
# GULP energy per Si atom -5577.788616 kJ/mol
# Density = 2.309405 g / cm^3
# Si number density = 23.146736 Si / 1000 Ang^3
#
#
#
# Elastic Constant Matrix: (Units=GPa)
#
#
# Indices 1 2 3 4 5 6 
#
# 1 74.9038 41.9827 37.6963 0.0000 0.0000 0.0000
# 2 41.9827 74.9021 37.6967 0.0000 0.0000 0.0000
# 3 37.6963 37.6967 109.1777 0.0000 0.0000 0.0000
# 4 0.0000 0.0000 0.0000 31.4387 0.0000 0.0000
# 5 0.0000 0.0000 0.0000 0.0000 31.4379 0.0000
# 6 0.0000 0.0000 0.0000 0.0000 0.0000 261.3917
#
#
#
# Elastic Compliance Matrix: (Units=1/GPa)
#
#
# Indices 1 2 3 4 5 6 
#
# 1 0.020691 -0.009685 -0.003800 0.000000 0.000000 0.000000
# 2 -0.009685 0.020692 -0.003801 0.000000 0.000000 0.000000
# 3 -0.003800 -0.003801 0.011784 0.000000 0.000000 0.000000
# 4 0.000000 0.000000 0.000000 0.031808 0.000000 0.000000
# 5 0.000000 0.000000 0.000000 0.000000 0.031809 0.000000
# 6 0.000000 0.000000 0.000000 0.000000 0.000000 0.003826
#
#
# Mechanical properties :
#
#
# Convention : Reuss Voigt Hill
#
# Bulk Modulus (GPa) = 53.77600 54.85945 54.31773
# Shear Modulus (GPa) = 30.98297 74.29417 52.63857
#
# Velocity S-wave (km/s) = 3.66258 5.67157 4.77395
# Velocity P-wave (km/s) = 6.41632 8.16340 7.34201
#
# Compressibility (1/GPa) = 0.01859566
#
# Stress axis : x y z
#
# Youngs Moduli (GPa) = 48.32963 48.32810 84.86281
#
# Poissons Ratio (x) = 0.46805 0.32249
# Poissons Ratio (y) = 0.46807 0.32252
# Poissons Ratio (z) = 0.18366 0.18367
#
# Static dielectric constant tensor:
#      x y z
#    x 1.920910 0.000000 0.000000 
#    y 0.000000 1.920910 0.000000 
#    z 0.000000 0.000000 1.961540 
# 
# From -- ./inp_files/1501.got.cif
#   From: 2010.05.17/outbox.cif.g08.bks.cpg/sg137_1_cif.got.tgz:1501.got - 2010.05.20 13:01:12.
