data_PCOD9570401
_publ_section_title
;
Structure prediction by ZEFSAII (Michael W. Deem and Ramdas Pophale) SiO2 
 PCOD9570401
Probable space group: P 42/N M C
;
_chemical_formula_sum "Si O2"
_cell_formula_units_Z 96
_cell_length_a 14.798035
_cell_length_b 14.798035
_cell_length_c 20.885346
_cell_angle_alpha 90.000000
_cell_angle_beta 90.000000
_cell_angle_gamma 90.000000
_cell_volume 4573.511493
_symmetry_space_group_name_H-M "P 42/N M C"
_symmetry_group_IT_number 137
_space_group.IT_coordinate_system_code '2'
_symmetry_cell_setting 'tetragonal'
loop_
_space_group_symop_operation_xyz
x,y,z
1/2-y,x,1/2+z
1/2-x,1/2-y,z
y,1/2-x,1/2+z
1/2+x,-y,-z
-x,1/2+y,-z
1/2+y,1/2+x,1/2-z
-y,-x,1/2-z
-x,-y,-z
1/2+y,-x,1/2-z
1/2+x,1/2+y,-z
-y,1/2+x,1/2-z
1/2-x,y,z
x,1/2-y,z
1/2-y,1/2-x,1/2+z
y,x,1/2+z
loop_
_atom_site_type_symbol
_atom_site_label
_atom_site_fract_x
_atom_site_fract_y
_atom_site_fract_z
Si Si1 0.000860 0.851269 0.431382
Si Si2 0.644385 0.460357 0.070875
Si Si3 0.848062 0.852983 0.770763
Si Si4 0.853717 0.389805 0.674934
Si Si5 0.903310 0.650024 0.127817
Si Si6 0.517592 0.641556 0.875448
O O1 0.965115 0.750000 0.440866
O O2 0.055391 0.875515 0.495806
O O3 0.069578 0.850367 0.371541
O O4 0.917287 0.918710 0.422259
O O5 0.750000 0.445568 0.082855
O O6 0.620338 0.565003 0.084724
O O7 0.581655 0.397915 0.114423
O O8 0.750000 0.898230 0.784905
O O9 0.840333 0.750000 0.793407
O O10 0.858624 0.851640 0.695081
O O11 0.936302 0.886092 0.807547
O O12 0.877969 0.377969 0.750000
O O13 0.750000 0.356435 0.666295
O O14 0.853300 0.493761 0.652322
O O15 0.885433 0.750000 0.100079
O O16 0.518123 0.750000 0.884799
#
# Coordination Sequence:
#
# PCOD9570401 Si02
#       6
#    16  16  16  16  16  16
#     4  11  24  43  64  91 130 169 212 266 323 385
#     4  11  25  43  63  90 128 174 219 264 318 386
#     4   9  18  34  59  92 123 155 202 263 327 375
#     4  11  23  39  65 100 135 168 205 257 329 406
#     4  10  21  38  64  95 129 168 211 264 324 387
#     4  11  23  40  64  89 122 165 214 270 319 377
#
# _framework density 20.990435000000002
#
# number of rings (size 3 to 8) (size 9 to 14) (size 15 to 20)
#    0.000    1.500    1.667    3.000    0.000    6.167 
#    0.000    3.333    0.000    0.000    0.000    2.333 
#    0.000    0.000    0.000    0.000    0.000    0.000 
#
# Total GULP energy -535650.929134 kJ/mol
# GULP energy per Si atom -5579.697178 kJ/mol
# Density = 2.094266 g / cm^3
# Si number density = 20.990435 Si / 1000 Ang^3
#
#
#
# Elastic Constant Matrix: (Units=GPa)
#
#
# Indices 1 2 3 4 5 6 
#
# 1 110.9569 39.4134 31.6575 0.0000 0.0000 0.0000
# 2 39.4134 110.9569 31.6575 0.0000 0.0000 0.0000
# 3 31.6575 31.6575 84.6865 0.0000 0.0000 0.0000
# 4 0.0000 0.0000 0.0000 23.7240 0.0000 0.0000
# 5 0.0000 0.0000 0.0000 0.0000 23.7240 0.0000
# 6 0.0000 0.0000 0.0000 0.0000 0.0000 -0.8301
#
#
#
# Elastic Compliance Matrix: (Units=1/GPa)
#
#
# Indices 1 2 3 4 5 6 
#
# 1 0.010935 -0.003042 -0.002950 0.000000 0.000000 0.000000
# 2 -0.003042 0.010935 -0.002950 0.000000 0.000000 0.000000
# 3 -0.002950 -0.002950 0.014014 0.000000 0.000000 0.000000
# 4 0.000000 0.000000 0.000000 0.042151 0.000000 0.000000
# 5 0.000000 0.000000 0.000000 0.000000 0.042151 0.000000
# 6 0.000000 0.000000 0.000000 0.000000 0.000000 -1.204723
#
#
# Mechanical properties :
#
#
# Convention : Reuss Voigt Hill
#
# Bulk Modulus (GPa) = 55.56293 56.89524 56.22908
# Shear Modulus (GPa) = -4.71409 22.91504 9.10047
#
# Velocity S-wave (km/s) = -1.50023 3.30766 2.08445
# Velocity P-wave (km/s) = 4.85048 6.46155 5.71309
#
# Compressibility (1/GPa) = 0.01799761
#
# Stress axis : x y z
#
# Youngs Moduli (GPa) = 91.44927 91.44927 71.35679
#
# Poissons Ratio (x) = 0.27823 0.21053
# Poissons Ratio (y) = 0.27823 0.21053
# Poissons Ratio (z) = 0.26981 0.26981
#
# Static dielectric constant tensor:
#      x y z
#    x 1.837320 0.000000 0.000000 
#    y 0.000000 1.837320 0.000000 
#    z 0.000000 0.000000 1.764710 
# 
# From -- ./inp_files/7797.got.cif
#   From: 2010.05.17/outbox.cif.g08.bks.cpg/sg137_4_cif.got.tgz:7797.got - 2010.05.20 13:01:12.
