data_PCOD9570682
_publ_section_title
;
Structure prediction by ZEFSAII (Michael W. Deem and Ramdas Pophale) SiO2 
 PCOD9570682
Probable space group: P 42/N C M
;
_chemical_formula_sum "Si O2"
_cell_formula_units_Z 112
_cell_length_a 19.138153
_cell_length_b 19.138153
_cell_length_c 20.576477
_cell_angle_alpha 90.000000
_cell_angle_beta 90.000000
_cell_angle_gamma 90.000000
_cell_volume 7536.523602
_symmetry_space_group_name_H-M "P 42/N C M"
_symmetry_group_IT_number 138
_space_group.IT_coordinate_system_code '2'
_symmetry_cell_setting 'tetragonal'
loop_
_space_group_symop_operation_xyz
x,y,z
1/2-y,x,1/2+z
1/2-x,1/2-y,z
y,1/2-x,1/2+z
1/2+x,-y,1/2-z
-x,1/2+y,1/2-z
1/2+y,1/2+x,-z
-y,-x,-z
-x,-y,-z
1/2+y,-x,1/2-z
1/2+x,1/2+y,-z
-y,1/2+x,1/2-z
1/2-x,y,1/2+z
x,1/2-y,1/2+z
1/2-y,1/2-x,z
y,x,z
loop_
_atom_site_type_symbol
_atom_site_label
_atom_site_fract_x
_atom_site_fract_y
_atom_site_fract_z
Si Si1 0.285379 0.920388 0.118728
Si Si2 0.121781 0.862453 0.926574
Si Si3 0.759803 0.458878 0.732172
Si Si4 0.530554 0.412969 0.812474
Si Si5 0.264422 0.827657 0.857976
Si Si6 0.425856 0.959032 0.073616
Si Si7 0.390494 0.994990 0.802445
O O1 0.211883 0.915914 0.082701
O O2 0.268693 0.942651 0.192135
O O3 0.320722 0.843061 0.116189
O O4 0.345015 0.969379 0.090183
O O5 0.093168 0.918377 0.874635
O O6 0.203894 0.847029 0.909839
O O7 0.113573 0.886428 0.000000
O O8 0.833157 0.488460 0.705790
O O9 0.744375 0.384753 0.697484
O O10 0.690963 0.502352 0.713790
O O11 0.465016 0.465016 0.822063
O O12 0.575422 0.444000 0.752067
O O13 0.250000 0.750000 0.832509
O O14 0.460778 0.907496 0.127374
O O15 0.470175 0.029826 0.079239
O O16 0.432662 0.932662 0.000000
O O17 0.433002 0.066999 0.799001
#
# Coordination Sequence:
#
# PCOD9570682 Si02
#       7
#    16  16  16  16  16  16  16
#     4  11  20  29  48  69 101 131 167 206 245 295
#     4  10  22  33  44  69 101 137 170 199 242 295
#     4  11  18  31  50  75  91 132 168 206 248 300
#     4  10  20  34  52  73  99 129 170 210 246 294
#     4   9  20  26  41  67 100 129 161 198 238 286
#     4  10  21  33  48  70  98 132 165 206 256 296
#     4  10  19  34  51  72  99 127 165 209 250 303
#
# _framework density 14.860963
#
# number of rings (size 3 to 8) (size 9 to 14) (size 15 to 20)
#    0.000    1.857    4.286    0.000    6.000    2.286 
#    0.000    0.000    0.000    0.429    0.000    0.000 
#    0.000    0.571    0.000    0.000    0.000    0.000 
#
# Total GULP energy -624298.827316 kJ/mol
# GULP energy per Si atom -5574.096672 kJ/mol
# Density = 1.482714 g / cm^3
# Si number density = 14.860963 Si / 1000 Ang^3
#
#
#
# Elastic Constant Matrix: (Units=GPa)
#
#
# Indices 1 2 3 4 5 6 
#
# 1 76.1028 36.8349 24.0838 0.0000 0.0000 0.0000
# 2 36.8349 76.1027 24.0837 0.0000 0.0000 0.0000
# 3 24.0838 24.0837 82.1008 0.0000 0.0000 0.0000
# 4 0.0000 0.0000 0.0000 7.6345 0.0000 0.0000
# 5 0.0000 0.0000 0.0000 0.0000 7.6353 0.0000
# 6 0.0000 0.0000 0.0000 0.0000 0.0000 17.0598
#
#
#
# Elastic Compliance Matrix: (Units=1/GPa)
#
#
# Indices 1 2 3 4 5 6 
#
# 1 0.017793 -0.007673 -0.002969 0.000000 0.000000 0.000000
# 2 -0.007673 0.017793 -0.002969 0.000000 0.000000 0.000000
# 3 -0.002969 -0.002969 0.013922 0.000000 0.000000 0.000000
# 4 0.000000 0.000000 0.000000 0.130984 0.000000 0.000000
# 5 0.000000 0.000000 0.000000 0.000000 0.130970 0.000000
# 6 0.000000 0.000000 0.000000 0.000000 0.000000 0.058617
#
#
# Mechanical properties :
#
#
# Convention : Reuss Voigt Hill
#
# Bulk Modulus (GPa) = 44.86738 44.92343 44.89541
# Shear Modulus (GPa) = 12.35391 16.41952 14.38671
#
# Velocity S-wave (km/s) = 2.88635 3.32757 3.11479
# Velocity P-wave (km/s) = 6.43157 6.71256 6.57356
#
# Compressibility (1/GPa) = 0.02228791
#
# Stress axis : x y z
#
# Youngs Moduli (GPa) = 56.20068 56.20062 71.82920
#
# Poissons Ratio (x) = 0.43121 0.21325
# Poissons Ratio (y) = 0.43121 0.21325
# Poissons Ratio (z) = 0.16685 0.16685
#
# Static dielectric constant tensor:
#      x y z
#    x 1.513680 0.000000 0.000000 
#    y 0.000000 1.513680 0.000000 
#    z 0.000000 0.000000 1.498360 
# 
# From -- ./inp_files/6459.got.cif
#   From: 2010.05.17/outbox.cif.g08.bks.cpg/sg138_4_cif.got.tgz:6459.got - 2010.05.20 13:08:53.
