data_PCOD9570000
_publ_section_title
;
Structure prediction by ZEFSAII (Michael W. Deem and Ramdas Pophale) SiO2 
 PCOD9570000
Probable space group: P 42/N M C
;
_chemical_formula_sum "Si O2"
_cell_formula_units_Z 112
_cell_length_a 31.722370
_cell_length_b 31.722370
_cell_length_c 5.625353
_cell_angle_alpha 90.000000
_cell_angle_beta 90.000000
_cell_angle_gamma 90.000000
_cell_volume 5660.841993
_symmetry_space_group_name_H-M "P 42/N M C"
_symmetry_group_IT_number 137
_space_group.IT_coordinate_system_code '2'
_symmetry_cell_setting 'tetragonal'
loop_
_space_group_symop_operation_xyz
x,y,z
1/2-y,x,1/2+z
1/2-x,1/2-y,z
y,1/2-x,1/2+z
1/2+x,-y,-z
-x,1/2+y,-z
1/2+y,1/2+x,1/2-z
-y,-x,1/2-z
-x,-y,-z
1/2+y,-x,1/2-z
1/2+x,1/2+y,-z
-y,1/2+x,1/2-z
1/2-x,y,z
x,1/2-y,z
1/2-y,1/2-x,1/2+z
y,x,1/2+z
loop_
_atom_site_type_symbol
_atom_site_label
_atom_site_fract_x
_atom_site_fract_y
_atom_site_fract_z
Si Si1 0.199849 0.836162 0.994247
Si Si2 0.400885 0.370581 0.883316
Si Si3 0.039904 0.446146 0.359900
Si Si4 0.455909 0.202642 0.712010
Si Si5 0.845211 0.088503 0.833185
Si Si6 0.959304 0.203899 0.021377
Si Si7 0.642318 0.494820 0.098673
O O1 0.188070 0.811931 0.750000
O O2 0.250000 0.838977 0.011648
O O3 0.182881 0.817120 0.250000
O O4 0.178239 0.882381 0.974595
O O5 0.375298 0.377192 0.635737
O O6 0.434296 0.409759 0.873534
O O7 0.424366 0.325989 0.864323
O O8 0.030084 0.466548 0.613414
O O9 0.014634 0.402379 0.346133
O O10 0.441074 0.250000 0.656025
O O11 0.500065 0.207047 0.850088
O O12 0.468119 0.173681 0.487137
O O13 0.884829 0.115172 0.750000
O O14 0.810068 0.080644 0.631504
O O15 0.860885 0.042351 0.906298
O O16 0.953849 0.250000 0.137052
O O17 0.971167 0.166016 0.191834
#
# Coordination Sequence:
#
# PCOD9570000 Si02
#       7
#    16  16  16  16  16  16  16
#     4  11  25  45  70  97 127 161 204 256 311 373
#     4  10  18  32  53  76 114 158 199 236 292 358
#     4  10  19  33  58  85 115 155 204 245 299 360
#     4  10  20  33  50  86 123 154 191 244 302 361
#     4  10  25  42  59  85 120 161 206 250 308 371
#     4  10  21  36  58  86 119 152 194 242 302 367
#     4  11  21  35  61  85 118 162 201 249 306 375
#
# _framework density 19.785042000000001
#
# number of rings (size 3 to 8) (size 9 to 14) (size 15 to 20)
#    0.000    1.714    2.857    3.000    6.000    2.571 
#    0.000    0.000    0.000    0.857    0.000    0.000 
#    0.000    1.714    0.000    0.000    0.000    0.000 
#
# Total GULP energy -624728.131403 kJ/mol
# GULP energy per Si atom -5577.929745 kJ/mol
# Density = 1.974001 g / cm^3
# Si number density = 19.785042 Si / 1000 Ang^3
#
#
#
# Elastic Constant Matrix: (Units=GPa)
#
#
# Indices 1 2 3 4 5 6 
#
# 1 65.3699 66.4423 28.7518 0.0000 0.0000 0.0000
# 2 66.4423 65.3715 28.7525 0.0000 0.0000 0.0000
# 3 28.7518 28.7525 111.0553 0.0000 0.0000 0.0000
# 4 0.0000 0.0000 0.0000 24.9422 0.0000 0.0000
# 5 0.0000 0.0000 0.0000 0.0000 24.9434 0.0000
# 6 0.0000 0.0000 0.0000 0.0000 0.0000 6.1692
#
#
#
# Elastic Compliance Matrix: (Units=1/GPa)
#
#
# Indices 1 2 3 4 5 6 
#
# 1 -0.462323 0.470871 -0.002216 0.000000 0.000000 0.000000
# 2 0.470871 -0.462314 -0.002213 0.000000 0.000000 0.000000
# 3 -0.002216 -0.002213 0.010151 0.000000 0.000000 0.000000
# 4 0.000000 0.000000 0.000000 0.040093 0.000000 0.000000
# 5 0.000000 0.000000 0.000000 0.000000 0.040091 0.000000
# 6 0.000000 0.000000 0.000000 0.000000 0.000000 0.162095
#
#
# Mechanical properties :
#
#
# Convention : Reuss Voigt Hill
#
# Bulk Modulus (GPa) = 54.35054 54.40999 54.38027
# Shear Modulus (GPa) = -3.12703 19.06764 7.97030
#
# Velocity S-wave (km/s) = -1.25854 3.10778 2.00928
# Velocity P-wave (km/s) = 5.04165 6.35909 5.73830
#
# Compressibility (1/GPa) = 0.01839908
#
# Stress axis : x y z
#
# Youngs Moduli (GPa) = -2.16299 -2.16303 98.51195
#
# Poissons Ratio (x) = 1.01851 0.21829
# Poissons Ratio (y) = 1.01849 0.21796
# Poissons Ratio (z) = -0.00479 -0.00479
#
# Static dielectric constant tensor:
#      x y z
#    x 1.604430 0.000000 0.000000 
#    y 0.000000 1.603590 0.000000 
#    z 0.000000 0.000000 1.820710 
# 
# From -- ./inp_files/669.got.cif
#   From: 2010.05.17/outbox.cif.g08.bks.cpg/sg137_1_cif.got.tgz:669.got - 2010.05.20 13:01:12.
