data_PCOD9570894
_publ_section_title
;
Structure prediction by ZEFSAII (Michael W. Deem and Ramdas Pophale) SiO2 
 PCOD9570894
Probable space group: P 42/N C M
;
_chemical_formula_sum "Si O2"
_cell_formula_units_Z 96
_cell_length_a 15.189658
_cell_length_b 15.189658
_cell_length_c 19.805398
_cell_angle_alpha 90.000000
_cell_angle_beta 90.000000
_cell_angle_gamma 90.000000
_cell_volume 4569.614518
_symmetry_space_group_name_H-M "P 42/N C M"
_symmetry_group_IT_number 138
_space_group.IT_coordinate_system_code '2'
_symmetry_cell_setting 'tetragonal'
loop_
_space_group_symop_operation_xyz
x,y,z
1/2-y,x,1/2+z
1/2-x,1/2-y,z
y,1/2-x,1/2+z
1/2+x,-y,1/2-z
-x,1/2+y,1/2-z
1/2+y,1/2+x,-z
-y,-x,-z
-x,-y,-z
1/2+y,-x,1/2-z
1/2+x,1/2+y,-z
-y,1/2+x,1/2-z
1/2-x,y,1/2+z
x,1/2-y,1/2+z
1/2-y,1/2-x,z
y,x,z
loop_
_atom_site_type_symbol
_atom_site_label
_atom_site_fract_x
_atom_site_fract_y
_atom_site_fract_z
Si Si1 0.095398 0.652791 0.764350
Si Si2 0.246376 0.104218 0.947490
Si Si3 0.973825 0.834951 0.673513
Si Si4 0.225412 0.085632 0.705571
Si Si5 0.301376 0.834135 0.633547
Si Si6 0.660395 0.519558 0.920780
O O1 0.139465 0.562131 0.787381
O O2 0.117934 0.677000 0.686817
O O3 0.134333 0.727052 0.813211
O O4 0.992418 0.655474 0.780266
O O5 0.327703 0.172298 0.960015
O O6 0.166388 0.166388 0.921401
O O7 0.278881 0.030658 0.894872
O O8 0.211495 0.057954 0.014834
O O9 0.926032 0.926032 0.656796
O O10 0.914680 0.781139 0.726307
O O11 0.174665 0.174665 0.690777
O O12 0.289407 0.057384 0.645029
O O13 0.250000 0.750000 0.602109
O O14 0.330034 0.914037 0.585098
O O15 0.562436 0.562436 0.921115
#
# Coordination Sequence:
#
# PCOD9570894 Si02
#       6
#    16  16  16  16  16  16
#     4  11  19  36  56  83 117 155 203 257 315 373
#     4   9  19  37  59  85 127 176 209 249 319 393
#     4  11  21  35  58  89 121 159 207 256 311 385
#     4  11  22  33  54  88 122 154 200 264 322 375
#     4  11  19  36  62  87 118 160 209 260 322 382
#     4  10  21  36  59  90 125 161 205 258 319 384
#
# _framework density 21.008337999999998
#
# number of rings (size 3 to 8) (size 9 to 14) (size 15 to 20)
#    0.000    1.500    5.000    2.000    0.000    3.333 
#    0.000    3.333    0.000   17.000    0.000   10.500 
#    0.000    0.000    0.000    0.000    0.000    0.000 
#
# Total GULP energy -535504.236715 kJ/mol
# GULP energy per Si atom -5578.169132 kJ/mol
# Density = 2.096052 g / cm^3
# Si number density = 21.008338 Si / 1000 Ang^3
#
#
#
# Elastic Constant Matrix: (Units=GPa)
#
#
# Indices 1 2 3 4 5 6 
#
# 1 85.2163 53.3518 24.5919 0.0000 0.0000 0.0000
# 2 53.3518 85.2163 24.5919 0.0000 0.0000 0.0000
# 3 24.5919 24.5919 72.5648 0.0000 0.0000 0.0000
# 4 0.0000 0.0000 0.0000 23.7946 0.0000 0.0000
# 5 0.0000 0.0000 0.0000 0.0000 23.7946 0.0000
# 6 0.0000 0.0000 0.0000 0.0000 0.0000 20.1619
#
#
#
# Elastic Compliance Matrix: (Units=1/GPa)
#
#
# Indices 1 2 3 4 5 6 
#
# 1 0.019793 -0.011590 -0.002780 0.000000 0.000000 0.000000
# 2 -0.011590 0.019793 -0.002780 0.000000 0.000000 0.000000
# 3 -0.002780 -0.002780 0.015665 0.000000 0.000000 0.000000
# 4 0.000000 0.000000 0.000000 0.042026 0.000000 0.000000
# 5 0.000000 0.000000 0.000000 0.000000 0.042026 0.000000
# 6 0.000000 0.000000 0.000000 0.000000 0.000000 0.049599
#
#
# Mechanical properties :
#
#
# Convention : Reuss Voigt Hill
#
# Bulk Modulus (GPa) = 47.72913 49.78541 48.75727
# Shear Modulus (GPa) = 21.72154 22.91435 22.31794
#
# Velocity S-wave (km/s) = 3.21900 3.30620 3.26289
# Velocity P-wave (km/s) = 6.04850 6.19064 6.11998
#
# Compressibility (1/GPa) = 0.02095157
#
# Stress axis : x y z
#
# Youngs Moduli (GPa) = 50.52253 50.52253 63.83606
#
# Poissons Ratio (x) = 0.58554 0.17747
# Poissons Ratio (y) = 0.58554 0.17747
# Poissons Ratio (z) = 0.14046 0.14046
#
# Static dielectric constant tensor:
#      x y z
#    x 1.808830 0.000000 0.000000 
#    y 0.000000 1.808830 0.000000 
#    z 0.000000 0.000000 1.705820 
# 
# From -- ./inp_files/6218.got.cif
#   From: 2010.05.17/outbox.cif.g08.bks.cpg/sg138_4_cif.got.tgz:6218.got - 2010.05.20 13:08:53.
