data_PCOD9570842
_publ_section_title
;
Structure prediction by ZEFSAII (Michael W. Deem and Ramdas Pophale) SiO2 
 PCOD9570842
Probable space group: P 42/N C M
;
_chemical_formula_sum "Si O2"
_cell_formula_units_Z 112
_cell_length_a 13.842209
_cell_length_b 13.842209
_cell_length_c 28.958343
_cell_angle_alpha 90.000000
_cell_angle_beta 90.000000
_cell_angle_gamma 90.000000
_cell_volume 5548.613988
_symmetry_space_group_name_H-M "P 42/N C M"
_symmetry_group_IT_number 138
_space_group.IT_coordinate_system_code '2'
_symmetry_cell_setting 'tetragonal'
loop_
_space_group_symop_operation_xyz
x,y,z
1/2-y,x,1/2+z
1/2-x,1/2-y,z
y,1/2-x,1/2+z
1/2+x,-y,1/2-z
-x,1/2+y,1/2-z
1/2+y,1/2+x,-z
-y,-x,-z
-x,-y,-z
1/2+y,-x,1/2-z
1/2+x,1/2+y,-z
-y,1/2+x,1/2-z
1/2-x,y,1/2+z
x,1/2-y,1/2+z
1/2-y,1/2-x,z
y,x,z
loop_
_atom_site_type_symbol
_atom_site_label
_atom_site_fract_x
_atom_site_fract_y
_atom_site_fract_z
Si Si1 0.007834 0.791558 0.247840
Si Si2 0.104902 0.563501 0.809897
Si Si3 0.582076 0.439009 0.163505
Si Si4 0.911067 0.749100 0.937394
Si Si5 0.089360 0.750835 0.007709
Si Si6 0.365962 0.763736 0.108536
Si Si7 0.073573 0.226895 0.166260
O O1 0.015268 0.691224 0.219977
O O2 0.089345 0.835284 0.282348
O O3 0.011996 0.871353 0.208201
O O4 0.925955 0.784605 0.286390
O O5 0.146882 0.598411 0.859510
O O6 0.011287 0.488714 0.811559
O O7 0.519776 0.519776 0.137194
O O8 0.668388 0.392267 0.136449
O O9 0.507444 0.354611 0.175404
O O10 0.835472 0.664529 0.949038
O O11 0.849882 0.849882 0.938494
O O12 0.946484 0.730205 0.884472
O O13 0.999475 0.750584 0.973035
O O14 0.071112 0.741418 0.062102
O O15 0.159918 0.659918 0.000000
O O16 0.152882 0.847119 0.000000
O O17 0.250000 0.750000 0.098606
O O18 0.174373 0.174373 0.160346
#
# Coordination Sequence:
#
# PCOD9570842 Si02
#       7
#    16  16  16  16  16  16  16
#     4  11  21  36  61  87 129 168 216 265 327 379
#     4  11  25  40  61  97 133 170 221 271 324 395
#     4  10  21  37  60  91 123 163 218 266 318 385
#     4  10  24  44  67  98 131 172 227 274 327 407
#     4  11  23  42  67  95 136 168 209 276 334 393
#     4  11  23  41  66  94 130 170 216 271 330 387
#     4  10  20  38  61  89 129 171 215 270 322 382
#
# _framework density 20.185222
#
# number of rings (size 3 to 8) (size 9 to 14) (size 15 to 20)
#    0.000    1.429    2.857    2.571    4.000    2.857 
#    0.000    0.000    0.000   18.429    0.000    0.000 
#    0.000    0.000    0.000    0.000    0.000    0.000 
#
# Total GULP energy -623605.494525 kJ/mol
# GULP energy per Si atom -5567.906201 kJ/mol
# Density = 2.013928 g / cm^3
# Si number density = 20.185222 Si / 1000 Ang^3
#
#
#
# Elastic Constant Matrix: (Units=GPa)
#
#
# Indices 1 2 3 4 5 6 
#
# 1 77.2311 53.0712 39.3738 0.0000 0.0000 0.0000
# 2 53.0712 77.2317 39.3746 0.0000 0.0000 0.0000
# 3 39.3738 39.3746 132.4218 0.0000 0.0000 0.0000
# 4 0.0000 0.0000 0.0000 5.9991 0.0000 0.0000
# 5 0.0000 0.0000 0.0000 0.0000 5.9994 0.0000
# 6 0.0000 0.0000 0.0000 0.0000 0.0000 20.8572
#
#
#
# Elastic Compliance Matrix: (Units=1/GPa)
#
#
# Indices 1 2 3 4 5 6 
#
# 1 0.025373 -0.016017 -0.002782 0.000000 0.000000 0.000000
# 2 -0.016017 0.025373 -0.002782 0.000000 0.000000 0.000000
# 3 -0.002782 -0.002782 0.009206 0.000000 0.000000 0.000000
# 4 0.000000 0.000000 0.000000 0.166691 0.000000 0.000000
# 5 0.000000 0.000000 0.000000 0.000000 0.166684 0.000000
# 6 0.000000 0.000000 0.000000 0.000000 0.000000 0.047945
#
#
# Mechanical properties :
#
#
# Convention : Reuss Voigt Hill
#
# Bulk Modulus (GPa) = 59.55938 61.16931 60.36435
# Shear Modulus (GPa) = 10.20346 16.90881 13.55613
#
# Velocity S-wave (km/s) = 2.25075 2.89741 2.59431
# Velocity P-wave (km/s) = 6.02702 6.44695 6.24052
#
# Compressibility (1/GPa) = 0.01678997
#
# Stress axis : x y z
#
# Youngs Moduli (GPa) = 39.41201 39.41207 108.62594
#
# Poissons Ratio (x) = 0.63128 0.30216
# Poissons Ratio (y) = 0.63128 0.30219
# Poissons Ratio (z) = 0.10963 0.10964
#
# Static dielectric constant tensor:
#      x y z
#    x 1.799960 0.000000 0.000000 
#    y 0.000000 1.799960 0.000000 
#    z 0.000000 0.000000 1.794430 
# 
# From -- ./inp_files/7589.got.cif
#   From: 2010.05.17/outbox.cif.g08.bks.cpg/sg138_4_cif.got.tgz:7589.got - 2010.05.20 13:08:53.
