data_PCOD9570429
_publ_section_title
;
Structure prediction by ZEFSAII (Michael W. Deem and Ramdas Pophale) SiO2 
 PCOD9570429
Probable space group: P 42/N M C
;
_chemical_formula_sum "Si O2"
_cell_formula_units_Z 72
_cell_length_a 19.024360
_cell_length_b 19.024360
_cell_length_c 9.405174
_cell_angle_alpha 90.000000
_cell_angle_beta 90.000000
_cell_angle_gamma 90.000000
_cell_volume 3403.979577
_symmetry_space_group_name_H-M "P 42/N M C"
_symmetry_group_IT_number 137
_space_group.IT_coordinate_system_code '2'
_symmetry_cell_setting 'tetragonal'
loop_
_space_group_symop_operation_xyz
x,y,z
1/2-y,x,1/2+z
1/2-x,1/2-y,z
y,1/2-x,1/2+z
1/2+x,-y,-z
-x,1/2+y,-z
1/2+y,1/2+x,1/2-z
-y,-x,1/2-z
-x,-y,-z
1/2+y,-x,1/2-z
1/2+x,1/2+y,-z
-y,1/2+x,1/2-z
1/2-x,y,z
x,1/2-y,z
1/2-y,1/2-x,1/2+z
y,x,1/2+z
loop_
_atom_site_type_symbol
_atom_site_label
_atom_site_fract_x
_atom_site_fract_y
_atom_site_fract_z
Si Si1 0.250000 0.388951 0.961021
Si Si2 0.145838 0.750000 0.322131
Si Si3 0.346239 0.750000 0.656878
Si Si4 0.906842 0.877532 0.089494
Si Si5 0.750000 0.520027 0.750474
Si Si6 0.599385 0.993871 0.327664
Si Si7 0.508046 0.250000 0.230095
O O1 0.171849 0.352907 0.961583
O O2 0.250000 0.438239 0.099803
O O3 0.250000 0.435521 0.816787
O O4 0.182372 0.682372 0.250000
O O5 0.168491 0.750000 0.488941
O O6 0.062689 0.750000 0.288561
O O7 0.314338 0.814338 0.750000
O O8 0.429583 0.750000 0.657696
O O9 0.952170 0.919195 0.970631
O O10 0.952886 0.816114 0.158804
O O11 0.894715 0.933449 0.211577
O O12 0.552226 0.052226 0.250000
O O13 0.678961 0.018638 0.356437
#
# Coordination Sequence:
#
# PCOD9570429 Si02
#       7
#     8   8   8  16   8  16   8
#     4  10  22  47  63  95 138 174 226 299 357 425
#     4  11  26  46  69 104 152 192 243 300 353 435
#     4  11  22  38  66  93 130 182 234 288 352 416
#     4  11  24  43  70  99 136 182 233 295 363 437
#     4  12  24  46  75 103 144 190 246 297 373 444
#     4  11  23  40  64  96 135 177 232 291 358 429
#     4  10  22  39  61  86 132 173 217 287 347 422
#
# _framework density 21.151713000000001
#
# number of rings (size 3 to 8) (size 9 to 14) (size 15 to 20)
#    0.000    1.111    3.333    3.333    0.000    6.667 
#    0.000    1.111    0.000    0.000    0.000    0.000 
#    0.000    0.000    0.000    0.000    0.000    0.000 
#
# Total GULP energy -400933.575143 kJ/mol
# GULP energy per Si atom -5568.521877 kJ/mol
# Density = 2.110357 g / cm^3
# Si number density = 21.151713 Si / 1000 Ang^3
#
#
#
# Elastic Constant Matrix: (Units=GPa)
#
#
# Indices 1 2 3 4 5 6 
#
# 1 112.0197 50.6324 35.4319 0.0000 0.0000 0.0000
# 2 50.6324 112.0197 35.4319 0.0000 0.0000 0.0000
# 3 35.4319 35.4319 103.0919 0.0000 0.0000 0.0000
# 4 0.0000 0.0000 0.0000 34.9017 0.0000 0.0000
# 5 0.0000 0.0000 0.0000 0.0000 34.9017 0.0000
# 6 0.0000 0.0000 0.0000 0.0000 0.0000 23.3406
#
#
#
# Elastic Compliance Matrix: (Units=1/GPa)
#
#
# Indices 1 2 3 4 5 6 
#
# 1 0.011760 -0.004530 -0.002485 0.000000 0.000000 0.000000
# 2 -0.004530 0.011760 -0.002485 0.000000 0.000000 0.000000
# 3 -0.002485 -0.002485 0.011408 0.000000 0.000000 0.000000
# 4 0.000000 0.000000 0.000000 0.028652 0.000000 0.000000
# 5 0.000000 0.000000 0.000000 0.000000 0.028652 0.000000
# 6 0.000000 0.000000 0.000000 0.000000 0.000000 0.042844
#
#
# Mechanical properties :
#
#
# Convention : Reuss Voigt Hill
#
# Bulk Modulus (GPa) = 62.77741 63.34707 63.06224
# Shear Modulus (GPa) = 31.37027 32.33779 31.85403
#
# Velocity S-wave (km/s) = 3.85529 3.91429 3.88490
# Velocity P-wave (km/s) = 7.04001 7.10231 7.07123
#
# Compressibility (1/GPa) = 0.01592930
#
# Stress axis : x y z
#
# Youngs Moduli (GPa) = 85.03092 85.03092 87.65505
#
# Poissons Ratio (x) = 0.38516 0.21784
# Poissons Ratio (y) = 0.38516 0.21784
# Poissons Ratio (z) = 0.21132 0.21132
#
# Static dielectric constant tensor:
#      x y z
#    x 1.848850 0.000000 0.000000 
#    y 0.000000 1.848850 0.000000 
#    z 0.000000 0.000000 1.772410 
# 
# From -- ./inp_files/1988.got.cif
#   From: 2010.05.17/outbox.cif.g08.bks.cpg/sg137_1_cif.got.tgz:1988.got - 2010.05.20 13:01:12.
