data_PCOD9570159
_publ_section_title
;
Structure prediction by ZEFSAII (Michael W. Deem and Ramdas Pophale) SiO2 
 PCOD9570159
Probable space group: P 42/N M C
;
_chemical_formula_sum "Si O2"
_cell_formula_units_Z 96
_cell_length_a 23.324642
_cell_length_b 23.324642
_cell_length_c 9.487802
_cell_angle_alpha 90.000000
_cell_angle_beta 90.000000
_cell_angle_gamma 90.000000
_cell_volume 5161.733595
_symmetry_space_group_name_H-M "P 42/N M C"
_symmetry_group_IT_number 137
_space_group.IT_coordinate_system_code '2'
_symmetry_cell_setting 'tetragonal'
loop_
_space_group_symop_operation_xyz
x,y,z
1/2-y,x,1/2+z
1/2-x,1/2-y,z
y,1/2-x,1/2+z
1/2+x,-y,-z
-x,1/2+y,-z
1/2+y,1/2+x,1/2-z
-y,-x,1/2-z
-x,-y,-z
1/2+y,-x,1/2-z
1/2+x,1/2+y,-z
-y,1/2+x,1/2-z
1/2-x,y,z
x,1/2-y,z
1/2-y,1/2-x,1/2+z
y,x,1/2+z
loop_
_atom_site_type_symbol
_atom_site_label
_atom_site_fract_x
_atom_site_fract_y
_atom_site_fract_z
Si Si1 0.449868 0.750000 0.408823
Si Si2 0.338775 0.001359 0.293749
Si Si3 0.510739 0.250000 0.296757
Si Si4 0.750000 0.342161 0.714172
Si Si5 0.844275 0.918515 0.121240
Si Si6 0.473144 0.467286 0.867126
Si Si7 0.561506 0.250000 0.989621
Si Si8 0.184707 0.124820 0.195869
O O1 0.480574 0.808016 0.350989
O O2 0.445582 0.750000 0.573820
O O3 0.391762 0.750000 0.327065
O O4 0.305366 0.967210 0.414787
O O5 0.407081 0.997280 0.315237
O O6 0.320472 0.067682 0.292347
O O7 0.468748 0.303519 0.323350
O O8 0.543806 0.250000 0.150677
O O9 0.804540 0.304540 0.750000
O O10 0.750000 0.372529 0.561523
O O11 0.907941 0.946199 0.111569
O O12 0.839201 0.866843 0.235504
O O13 0.827860 0.893822 0.966245
O O14 0.484798 0.515203 0.750000
O O15 0.500000 0.500000 0.000000
O O16 0.250000 0.147067 0.204239
#
# Coordination Sequence:
#
# PCOD9570159 Si02
#       8
#     8  16   8   8  16  16   8  16
#     4  10  19  40  67  92 121 176 213 258 322 386
#     4   9  18  37  61  83 123 169 213 244 308 395
#     4  12  24  42  65  93 134 166 219 269 314 396
#     4   9  20  44  72  96 124 166 217 266 323 387
#     4  11  24  40  66  88 124 175 211 258 333 378
#     4  11  24  37  57  91 132 165 206 261 324 385
#     4  10  23  36  67 100 121 166 224 255 313 375
#     4  11  20  40  64  88 118 166 217 263 317 377
#
# _framework density 18.598403999999999
#
# number of rings (size 3 to 8) (size 9 to 14) (size 15 to 20)
#    0.000    1.750    4.167    2.000    7.000    2.667 
#    0.000    1.250    0.000    1.000    0.000    0.000 
#    0.000    0.000    0.000    0.000    0.000    0.000 
#
# Total GULP energy -534525.323939 kJ/mol
# GULP energy per Si atom -5567.972124 kJ/mol
# Density = 1.855607 g / cm^3
# Si number density = 18.598404 Si / 1000 Ang^3
#
#
#
# Elastic Constant Matrix: (Units=GPa)
#
#
# Indices 1 2 3 4 5 6 
#
# 1 84.9247 23.6185 27.3251 0.0000 0.0000 0.0000
# 2 23.6185 84.9224 27.3246 0.0000 0.0000 0.0000
# 3 27.3251 27.3246 136.9076 0.0000 0.0000 0.0000
# 4 0.0000 0.0000 0.0000 12.7696 0.0000 0.0000
# 5 0.0000 0.0000 0.0000 0.0000 12.7696 0.0000
# 6 0.0000 0.0000 0.0000 0.0000 0.0000 26.0942
#
#
#
# Elastic Compliance Matrix: (Units=1/GPa)
#
#
# Indices 1 2 3 4 5 6 
#
# 1 0.013277 -0.003035 -0.002044 0.000000 0.000000 0.000000
# 2 -0.003035 0.013277 -0.002044 0.000000 0.000000 0.000000
# 3 -0.002044 -0.002044 0.008120 0.000000 0.000000 0.000000
# 4 0.000000 0.000000 0.000000 0.078311 0.000000 0.000000
# 5 0.000000 0.000000 0.000000 0.000000 0.078311 0.000000
# 6 0.000000 0.000000 0.000000 0.000000 0.000000 0.038323
#
#
# Mechanical properties :
#
#
# Convention : Reuss Voigt Hill
#
# Bulk Modulus (GPa) = 48.95276 51.47679 50.21477
# Shear Modulus (GPa) = 19.94618 25.55912 22.75265
#
# Velocity S-wave (km/s) = 3.27841 3.71113 3.50146
# Velocity P-wave (km/s) = 6.38034 6.78980 6.58825
#
# Compressibility (1/GPa) = 0.02042786
#
# Stress axis : x y z
#
# Youngs Moduli (GPa) = 75.31887 75.31686 123.14982
#
# Poissons Ratio (x) = 0.22857 0.25174
# Poissons Ratio (y) = 0.22858 0.25175
# Poissons Ratio (z) = 0.15397 0.15396
#
# Static dielectric constant tensor:
#      x y z
#    x 1.703190 0.000000 0.000000 
#    y 0.000000 1.703220 0.000000 
#    z 0.000000 0.000000 2.712410 
# 
# From -- ./inp_files/2247.got.cif
#   From: 2010.05.17/outbox.cif.g08.bks.cpg/sg137_2_cif.got.tgz:2247.got - 2010.05.20 13:01:12.
