data_PCOD9570094
_publ_section_title
;
Structure prediction by ZEFSAII (Michael W. Deem and Ramdas Pophale) SiO2 
 PCOD9570094
Probable space group: P 42/N M C
;
_chemical_formula_sum "Si O2"
_cell_formula_units_Z 64
_cell_length_a 18.654623
_cell_length_b 18.654623
_cell_length_c 10.566209
_cell_angle_alpha 90.000000
_cell_angle_beta 90.000000
_cell_angle_gamma 90.000000
_cell_volume 3676.987471
_symmetry_space_group_name_H-M "P 42/N M C"
_symmetry_group_IT_number 137
_space_group.IT_coordinate_system_code '2'
_symmetry_cell_setting 'tetragonal'
loop_
_space_group_symop_operation_xyz
x,y,z
1/2-y,x,1/2+z
1/2-x,1/2-y,z
y,1/2-x,1/2+z
1/2+x,-y,-z
-x,1/2+y,-z
1/2+y,1/2+x,1/2-z
-y,-x,1/2-z
-x,-y,-z
1/2+y,-x,1/2-z
1/2+x,1/2+y,-z
-y,1/2+x,1/2-z
1/2-x,y,z
x,1/2-y,z
1/2-y,1/2-x,1/2+z
y,x,1/2+z
loop_
_atom_site_type_symbol
_atom_site_label
_atom_site_fract_x
_atom_site_fract_y
_atom_site_fract_z
Si Si1 0.017172 0.666260 0.024370
Si Si2 0.038664 0.030478 0.875089
Si Si3 0.450876 0.666454 0.735716
Si Si4 0.666988 0.172872 0.597895
O O1 0.013482 0.750000 0.061430
O O2 0.010277 0.661826 0.873073
O O3 0.098021 0.637505 0.050456
O O4 0.964916 0.615583 0.103205
O O5 0.117790 0.997904 0.857848
O O6 0.995712 0.004289 0.750000
O O7 0.000000 0.000000 0.000000
O O8 0.374534 0.625467 0.750000
O O9 0.442797 0.750000 0.705230
O O10 0.668829 0.168829 0.750000
O O11 0.750000 0.174204 0.553826
O O12 0.634225 0.250000 0.562974
#
# Coordination Sequence:
#
# PCOD9570094 Si02
#       4
#    16  16  16  16
#     4  10  19  33  54  81 112 152 194 241 295 348
#     4  11  20  38  59  83 116 159 199 242 294 356
#     4  10  21  37  58  85 118 156 197 241 296 357
#     4   8  14  25  42  70 110 148 182 225 276 333
#
# _framework density 17.405552
#
# number of rings (size 3 to 8) (size 9 to 14) (size 15 to 20)
#    0.000    2.250    5.000    1.500    0.000    1.250 
#    0.000    3.750    0.000    0.750    0.000    3.500 
#    0.000    0.000    0.000    0.000    0.000    0.000 
#
# Total GULP energy -356519.826020 kJ/mol
# GULP energy per Si atom -5570.622282 kJ/mol
# Density = 1.736594 g / cm^3
# Si number density = 17.405552 Si / 1000 Ang^3
#
#
#
# Elastic Constant Matrix: (Units=GPa)
#
#
# Indices 1 2 3 4 5 6 
#
# 1 112.1861 68.4000 31.4666 0.0000 0.0000 0.0000
# 2 68.4000 112.1854 31.4662 0.0000 0.0000 0.0000
# 3 31.4666 31.4662 73.6198 0.0000 0.0000 0.0000
# 4 0.0000 0.0000 0.0000 21.0489 0.0000 0.0000
# 5 0.0000 0.0000 0.0000 0.0000 21.0493 0.0000
# 6 0.0000 0.0000 0.0000 0.0000 0.0000 18.2463
#
#
#
# Elastic Compliance Matrix: (Units=1/GPa)
#
#
# Indices 1 2 3 4 5 6 
#
# 1 0.014673 -0.008166 -0.002781 0.000000 0.000000 0.000000
# 2 -0.008166 0.014673 -0.002781 0.000000 0.000000 0.000000
# 3 -0.002781 -0.002781 0.015961 0.000000 0.000000 0.000000
# 4 0.000000 0.000000 0.000000 0.047508 0.000000 0.000000
# 5 0.000000 0.000000 0.000000 0.000000 0.047507 0.000000
# 6 0.000000 0.000000 0.000000 0.000000 0.000000 0.054806
#
#
# Mechanical properties :
#
#
# Convention : Reuss Voigt Hill
#
# Bulk Modulus (GPa) = 56.02313 62.29520 59.15917
# Shear Modulus (GPa) = 21.87863 23.17947 22.52905
#
# Velocity S-wave (km/s) = 3.54925 3.65324 3.60162
# Velocity P-wave (km/s) = 7.00379 7.32551 7.16645
#
# Compressibility (1/GPa) = 0.01784977
#
# Stress axis : x y z
#
# Youngs Moduli (GPa) = 68.15435 68.15409 62.65398
#
# Poissons Ratio (x) = 0.55654 0.17425
# Poissons Ratio (y) = 0.55654 0.17424
# Poissons Ratio (z) = 0.18955 0.18954
#
# Static dielectric constant tensor:
#      x y z
#    x 1.637620 0.000000 0.000000 
#    y 0.000000 1.637620 0.000000 
#    z 0.000000 0.000000 1.636070 
# 
# From -- ./inp_files/3329.got.cif
#   From: 2010.05.17/outbox.cif.g08.bks.cpg/sg137_2_cif.got.tgz:3329.got - 2010.05.20 13:01:12.
