data_PCOD9570637
_publ_section_title
;
Structure prediction by ZEFSAII (Michael W. Deem and Ramdas Pophale) SiO2 
 PCOD9570637
Probable space group: P 42/N C M
;
_chemical_formula_sum "Si O2"
_cell_formula_units_Z 96
_cell_length_a 24.506670
_cell_length_b 24.506670
_cell_length_c 7.360657
_cell_angle_alpha 90.000000
_cell_angle_beta 90.000000
_cell_angle_gamma 90.000000
_cell_volume 4420.640375
_symmetry_space_group_name_H-M "P 42/N C M"
_symmetry_group_IT_number 138
_space_group.IT_coordinate_system_code '2'
_symmetry_cell_setting 'tetragonal'
loop_
_space_group_symop_operation_xyz
x,y,z
1/2-y,x,1/2+z
1/2-x,1/2-y,z
y,1/2-x,1/2+z
1/2+x,-y,1/2-z
-x,1/2+y,1/2-z
1/2+y,1/2+x,-z
-y,-x,-z
-x,-y,-z
1/2+y,-x,1/2-z
1/2+x,1/2+y,-z
-y,1/2+x,1/2-z
1/2-x,y,1/2+z
x,1/2-y,1/2+z
1/2-y,1/2-x,z
y,x,z
loop_
_atom_site_type_symbol
_atom_site_label
_atom_site_fract_x
_atom_site_fract_y
_atom_site_fract_z
Si Si1 0.697068 0.609983 0.852293
Si Si2 0.180712 0.094811 0.717989
Si Si3 0.191295 0.973520 0.787426
Si Si4 0.600473 0.111075 0.699924
Si Si5 0.679703 0.197012 0.792218
Si Si6 0.315574 0.511742 0.220520
O O1 0.659928 0.659928 0.786779
O O2 0.761809 0.619408 0.846571
O O3 0.685993 0.553259 0.745765
O O4 0.682460 0.599755 0.062752
O O5 0.129281 0.129281 0.651304
O O6 0.180664 0.030171 0.682390
O O7 0.147724 0.928329 0.722525
O O8 0.256401 0.963815 0.774244
O O9 0.181475 0.981775 0.001900
O O10 0.587879 0.087879 0.500000
O O11 0.631772 0.168914 0.682929
O O12 0.544784 0.131675 0.792948
O O13 0.679144 0.262140 0.788145
O O14 0.678004 0.178004 0.000000
#
# Coordination Sequence:
#
# PCOD9570637 Si02
#       6
#    16  16  16  16  16  16
#     4   9  18  33  52  74 100 128 158 193 236 287
#     4   9  18  33  52  74 100 128 158 193 236 287
#     4   9  18  32  49  69  95 127 161 199 241 285
#     4  10  19  31  47  68  93 123 162 201 238 283
#     4  11  21  32  45  63  89 120 156 201 251 294
#     4   9  18  32  49  69  95 127 161 199 241 285
#
# _framework density 21.716311000000001
#
# number of rings (size 3 to 8) (size 9 to 14) (size 15 to 20)
#    0.000    2.500    0.000    3.000    0.000    5.000 
#    0.000    2.500    0.000    5.000    0.000    0.000 
#    0.000   12.000    0.000    0.000    0.000    0.000 
#
# Total GULP energy -535511.188493 kJ/mol
# GULP energy per Si atom -5578.241547 kJ/mol
# Density = 2.166688 g / cm^3
# Si number density = 21.716311 Si / 1000 Ang^3
#
#
#
# Elastic Constant Matrix: (Units=GPa)
#
#
# Indices 1 2 3 4 5 6 
#
# 1 96.1656 73.6934 -19.4237 0.0000 0.0000 0.0000
# 2 73.6934 96.1656 -19.4237 0.0000 0.0000 0.0000
# 3 -19.4237 -19.4237 44.6468 0.0000 0.0000 0.0000
# 4 0.0000 0.0000 0.0000 15.9553 0.0000 0.0000
# 5 0.0000 0.0000 0.0000 0.0000 15.9553 0.0000
# 6 0.0000 0.0000 0.0000 0.0000 0.0000 38.2413
#
#
#
# Elastic Compliance Matrix: (Units=1/GPa)
#
#
# Indices 1 2 3 4 5 6 
#
# 1 0.025519 -0.018981 0.002844 0.000000 0.000000 0.000000
# 2 -0.018981 0.025519 0.002844 0.000000 0.000000 0.000000
# 3 0.002844 0.002844 0.024873 0.000000 0.000000 0.000000
# 4 0.000000 0.000000 0.000000 0.062675 0.000000 0.000000
# 5 0.000000 0.000000 0.000000 0.000000 0.062675 0.000000
# 6 0.000000 0.000000 0.000000 0.000000 0.000000 0.026150
#
#
# Mechanical properties :
#
#
# Convention : Reuss Voigt Hill
#
# Bulk Modulus (GPa) = 20.27358 34.07446 27.17402
# Shear Modulus (GPa) = 18.48863 27.50584 22.99723
#
# Velocity S-wave (km/s) = 2.92099 3.56279 3.25773
# Velocity P-wave (km/s) = 4.55326 5.71397 5.16631
#
# Compressibility (1/GPa) = 0.04932529
#
# Stress axis : x y z
#
# Youngs Moduli (GPa) = 39.18711 39.18711 40.20451
#
# Poissons Ratio (x) = 0.74381 -0.11435
# Poissons Ratio (y) = 0.74381 -0.11435
# Poissons Ratio (z) = -0.11146 -0.11146
#
# Static dielectric constant tensor:
#      x y z
#    x 1.805060 0.000000 0.000000 
#    y 0.000000 1.805060 0.000000 
#    z 0.000000 0.000000 1.870600 
# 
# From -- ./inp_files/1718.got.cif
#   From: 2010.05.17/outbox.cif.g08.bks.cpg/sg138_1_cif.got.tgz:1718.got - 2010.05.20 13:08:53.
