data_PCOD9570220
_publ_section_title
;
Structure prediction by ZEFSAII (Michael W. Deem and Ramdas Pophale) SiO2 
 PCOD9570220
Probable space group: P 42/N M C
;
_chemical_formula_sum "Si O2"
_cell_formula_units_Z 64
_cell_length_a 11.173367
_cell_length_b 11.173367
_cell_length_c 25.366450
_cell_angle_alpha 90.000000
_cell_angle_beta 90.000000
_cell_angle_gamma 90.000000
_cell_volume 3166.852384
_symmetry_space_group_name_H-M "P 42/N M C"
_symmetry_group_IT_number 137
_space_group.IT_coordinate_system_code '2'
_symmetry_cell_setting 'tetragonal'
loop_
_space_group_symop_operation_xyz
x,y,z
1/2-y,x,1/2+z
1/2-x,1/2-y,z
y,1/2-x,1/2+z
1/2+x,-y,-z
-x,1/2+y,-z
1/2+y,1/2+x,1/2-z
-y,-x,1/2-z
-x,-y,-z
1/2+y,-x,1/2-z
1/2+x,1/2+y,-z
-y,1/2+x,1/2-z
1/2-x,y,z
x,1/2-y,z
1/2-y,1/2-x,1/2+z
y,x,1/2+z
loop_
_atom_site_type_symbol
_atom_site_label
_atom_site_fract_x
_atom_site_fract_y
_atom_site_fract_z
Si Si1 0.380847 0.387463 0.953406
Si Si2 0.111559 0.379760 0.796348
Si Si3 0.881980 0.530472 0.928235
Si Si4 0.882617 0.967510 0.320653
O O1 0.250000 0.441113 0.938524
O O2 0.380337 0.250000 0.937523
O O3 0.500412 0.447979 0.931817
O O4 0.386393 0.396313 0.017137
O O5 0.250000 0.379854 0.812347
O O6 0.058107 0.250000 0.811467
O O7 0.108744 0.389954 0.732630
O O8 0.051984 0.500961 0.817152
O O9 0.750000 0.470602 0.927197
O O10 0.895863 0.605758 0.874974
O O11 0.750000 0.026167 0.319123
#
# Coordination Sequence:
#
# PCOD9570220 Si02
#       4
#    16  16  16  16
#     4   9  19  36  55  76 107 146 184 225 278 337
#     4   9  19  36  56  79 111 150 187 226 278 337
#     4  10  20  34  55  82 108 139 184 233 277 326
#     4  10  20  34  56  84 110 142 187 235 279 327
#
# _framework density 20.209340000000001
#
# number of rings (size 3 to 8) (size 9 to 14) (size 15 to 20)
#    0.000    2.500    0.000    1.500    0.000    5.500 
#    0.000    5.000    0.000   16.500    0.000    0.000 
#    0.000    0.000    0.000    0.000    0.000    0.000 
#
# Total GULP energy -356455.345217 kJ/mol
# GULP energy per Si atom -5569.614769 kJ/mol
# Density = 2.016334 g / cm^3
# Si number density = 20.209340 Si / 1000 Ang^3
#
#
#
# Elastic Constant Matrix: (Units=GPa)
#
#
# Indices 1 2 3 4 5 6 
#
# 1 138.1518 76.1277 18.0990 0.0000 0.0000 0.0000
# 2 76.1277 138.1518 18.0990 0.0000 0.0000 0.0000
# 3 18.0990 18.0990 125.1196 0.0000 0.0000 0.0000
# 4 0.0000 0.0000 0.0000 3.0539 0.0000 0.0000
# 5 0.0000 0.0000 0.0000 0.0000 3.0539 0.0000
# 6 0.0000 0.0000 0.0000 0.0000 0.0000 17.7879
#
#
#
# Elastic Compliance Matrix: (Units=1/GPa)
#
#
# Indices 1 2 3 4 5 6 
#
# 1 0.010453 -0.005670 -0.000692 0.000000 0.000000 0.000000
# 2 -0.005670 0.010453 -0.000692 0.000000 0.000000 0.000000
# 3 -0.000692 -0.000692 0.008193 0.000000 0.000000 0.000000
# 4 0.000000 0.000000 0.000000 0.327454 0.000000 0.000000
# 5 0.000000 0.000000 0.000000 0.000000 0.327454 0.000000
# 6 0.000000 0.000000 0.000000 0.000000 0.000000 0.056218
#
#
# Mechanical properties :
#
#
# Convention : Reuss Voigt Hill
#
# Bulk Modulus (GPa) = 66.70211 69.56382 68.13296
# Shear Modulus (GPa) = 6.58476 24.05230 15.31853
#
# Velocity S-wave (km/s) = 1.80703 3.45361 2.75615
# Velocity P-wave (km/s) = 6.11809 7.09926 6.62686
#
# Compressibility (1/GPa) = 0.01499203
#
# Stress axis : x y z
#
# Youngs Moduli (GPa) = 95.66424 95.66424 122.06220
#
# Poissons Ratio (x) = 0.54237 0.08446
# Poissons Ratio (y) = 0.54237 0.08446
# Poissons Ratio (z) = 0.06620 0.06620
#
# Static dielectric constant tensor:
#      x y z
#    x 1.721340 0.000000 0.000000 
#    y 0.000000 1.721340 0.000000 
#    z 0.000000 0.000000 1.759730 
# 
# From -- ./inp_files/8522.got.cif
#   From: 2010.05.17/outbox.cif.g08.bks.cpg/sg137_5_cif.got.tgz:8522.got - 2010.05.20 13:01:12.
