data_PCOD9570891
_publ_section_title
;
Structure prediction by ZEFSAII (Michael W. Deem and Ramdas Pophale) SiO2 
 PCOD9570891
Probable space group: P 42/N C M
;
_chemical_formula_sum "Si O2"
_cell_formula_units_Z 80
_cell_length_a 10.931520
_cell_length_b 10.931520
_cell_length_c 31.044430
_cell_angle_alpha 90.000000
_cell_angle_beta 90.000000
_cell_angle_gamma 90.000000
_cell_volume 3709.751317
_symmetry_space_group_name_H-M "P 42/N C M"
_symmetry_group_IT_number 138
_space_group.IT_coordinate_system_code '2'
_symmetry_cell_setting 'tetragonal'
loop_
_space_group_symop_operation_xyz
x,y,z
1/2-y,x,1/2+z
1/2-x,1/2-y,z
y,1/2-x,1/2+z
1/2+x,-y,1/2-z
-x,1/2+y,1/2-z
1/2+y,1/2+x,-z
-y,-x,-z
-x,-y,-z
1/2+y,-x,1/2-z
1/2+x,1/2+y,-z
-y,1/2+x,1/2-z
1/2-x,y,1/2+z
x,1/2-y,1/2+z
1/2-y,1/2-x,z
y,x,z
loop_
_atom_site_type_symbol
_atom_site_label
_atom_site_fract_x
_atom_site_fract_y
_atom_site_fract_z
Si Si1 0.257227 0.442487 0.076832
Si Si2 0.448672 0.752730 0.010843
Si Si3 0.666820 0.130599 0.193092
Si Si4 0.638310 0.431323 0.598441
Si Si5 0.555366 0.749560 0.767194
O O1 0.156980 0.343021 0.091213
O O2 0.388989 0.388989 0.090719
O O3 0.202588 0.574261 0.090697
O O4 0.256615 0.447109 0.024615
O O5 0.465130 0.763318 0.061845
O O6 0.379472 0.879472 0.000000
O O7 0.356981 0.643020 0.000000
O O8 0.750000 0.250000 0.197690
O O9 0.686447 0.071034 0.146746
O O10 0.529135 0.181190 0.198404
O O11 0.697666 0.034545 0.230584
O O12 0.531585 0.531585 0.594249
O O13 0.649339 0.850662 0.749200
O O14 0.638770 0.638770 0.784547
#
# Coordination Sequence:
#
# PCOD9570891 Si02
#       5
#    16  16  16  16  16
#     4   9  18  33  53  78 110 149 194 241 290 347
#     4   9  18  32  54  76 106 149 191 241 284 348
#     4  12  24  40  66  96 127 167 206 262 315 379
#     4  10  21  36  58  85 118 155 201 250 305 363
#     4  11  23  43  69  94 126 165 207 258 318 387
#
# _framework density 21.564789000000001
#
# number of rings (size 3 to 8) (size 9 to 14) (size 15 to 20)
#    0.000    1.800    2.000    2.400    5.600    3.600 
#    0.000    3.000    0.000    3.600    0.000    0.000 
#    0.000    0.000    0.000    0.000    0.000    0.000 
#
# Total GULP energy -446344.429680 kJ/mol
# GULP energy per Si atom -5579.305371 kJ/mol
# Density = 2.151571 g / cm^3
# Si number density = 21.564789 Si / 1000 Ang^3
#
#
#
# Elastic Constant Matrix: (Units=GPa)
#
#
# Indices 1 2 3 4 5 6 
#
# 1 35.9194 38.5253 -8.6618 0.0000 0.0000 0.0000
# 2 38.5253 35.9218 -8.6594 0.0000 0.0000 0.0000
# 3 -8.6618 -8.6594 78.5525 0.0000 0.0000 0.0000
# 4 0.0000 0.0000 0.0000 6.0036 0.0000 0.0000
# 5 0.0000 0.0000 0.0000 0.0000 6.0033 0.0000
# 6 0.0000 0.0000 0.0000 0.0000 0.0000 29.4975
#
#
#
# Elastic Compliance Matrix: (Units=1/GPa)
#
#
# Indices 1 2 3 4 5 6 
#
# 1 -0.185080 0.198859 0.001513 0.000000 0.000000 0.000000
# 2 0.198859 -0.185065 0.001527 0.000000 0.000000 0.000000
# 3 0.001513 0.001527 0.013066 0.000000 0.000000 0.000000
# 4 0.000000 0.000000 0.000000 0.166566 0.000000 0.000000
# 5 0.000000 0.000000 0.000000 0.000000 0.166575 0.000000
# 6 0.000000 0.000000 0.000000 0.000000 0.000000 0.033901
#
#
# Mechanical properties :
#
#
# Convention : Reuss Voigt Hill
#
# Bulk Modulus (GPa) = 21.40512 21.42243 21.41377
# Shear Modulus (GPa) = -13.21839 16.91352 1.84756
#
# Velocity S-wave (km/s) = -2.47849 2.80359 0.92661
# Velocity P-wave (km/s) = 1.32550 4.52059 3.33112
#
# Compressibility (1/GPa) = 0.04671780
#
# Stress axis : x y z
#
# Youngs Moduli (GPa) = -5.40307 -5.40352 76.53742
#
# Poissons Ratio (x) = 1.07454 -0.11583
# Poissons Ratio (y) = 1.07445 -0.11684
# Poissons Ratio (z) = 0.00818 0.00825
#
# Static dielectric constant tensor:
#      x y z
#    x 1.796100 0.000000 0.000000 
#    y 0.000000 1.796100 0.000000 
#    z 0.000000 0.000000 1.808090 
# 
# From -- ./inp_files/7917.got.cif
#   From: 2010.05.17/outbox.cif.g08.bks.cpg/sg138_4_cif.got.tgz:7917.got - 2010.05.20 13:08:53.
