data_PCOD9570556
_publ_section_title
;
Structure prediction by ZEFSAII (Michael W. Deem and Ramdas Pophale) SiO2 
 PCOD9570556
Probable space group: P 42/N C M
;
_chemical_formula_sum "Si O2"
_cell_formula_units_Z 80
_cell_length_a 16.705310
_cell_length_b 16.705310
_cell_length_c 13.071247
_cell_angle_alpha 90.000000
_cell_angle_beta 90.000000
_cell_angle_gamma 90.000000
_cell_volume 3647.758682
_symmetry_space_group_name_H-M "P 42/N C M"
_symmetry_group_IT_number 138
_space_group.IT_coordinate_system_code '2'
_symmetry_cell_setting 'tetragonal'
loop_
_space_group_symop_operation_xyz
x,y,z
1/2-y,x,1/2+z
1/2-x,1/2-y,z
y,1/2-x,1/2+z
1/2+x,-y,1/2-z
-x,1/2+y,1/2-z
1/2+y,1/2+x,-z
-y,-x,-z
-x,-y,-z
1/2+y,-x,1/2-z
1/2+x,1/2+y,-z
-y,1/2+x,1/2-z
1/2-x,y,1/2+z
x,1/2-y,1/2+z
1/2-y,1/2-x,z
y,x,z
loop_
_atom_site_type_symbol
_atom_site_label
_atom_site_fract_x
_atom_site_fract_y
_atom_site_fract_z
Si Si1 0.198826 0.439946 0.653660
Si Si2 0.007466 0.273803 0.372031
Si Si3 0.929300 0.438568 0.328603
Si Si4 0.317132 0.317132 0.881183
Si Si5 0.020022 0.604957 0.093598
Si Si6 0.316285 0.316285 0.634458
O O1 0.233760 0.469648 0.762429
O O2 0.348947 0.550301 0.860116
O O3 0.145619 0.515595 0.618323
O O4 0.278054 0.400446 0.603334
O O5 0.132801 0.132801 0.166222
O O6 0.093243 0.299311 0.416403
O O7 0.971545 0.198210 0.428769
O O8 0.916282 0.443006 0.205069
O O9 0.007094 0.492907 0.350464
O O10 0.250000 0.250000 0.903343
O O11 0.320334 0.320334 0.757740
O O12 0.928400 0.571601 0.100251
O O13 0.059821 0.559821 0.000000
O O14 0.250000 0.250000 0.609710
#
# Coordination Sequence:
#
# PCOD9570556 Si02
#       6
#    16  16  16   8  16   8
#     4   8  14  23  37  60  95 123 161 208 261 316
#     4  10  15  24  43  71  99 135 177 225 275 323
#     4   9  16  26  41  72 105 132 172 230 280 323
#     4   9  14  20  36  68  97 122 169 223 272 321
#     4   9  18  32  49  71 102 143 185 226 273 335
#     4   7  10  18  32  52  82 119 146 189 247 306
#
# _framework density 21.931274999999999
#
# number of rings (size 3 to 8) (size 9 to 14) (size 15 to 20)
#    0.000    3.200    1.000    4.200    0.000    0.000 
#    0.000    0.000    0.000    9.600    7.800   11.200 
#    0.000   12.800    0.000    0.200    0.000    0.000 
#
# Total GULP energy -446019.986692 kJ/mol
# GULP energy per Si atom -5575.249834 kJ/mol
# Density = 2.188136 g / cm^3
# Si number density = 21.931275 Si / 1000 Ang^3
#
#
#
# Elastic Constant Matrix: (Units=GPa)
#
#
# Indices 1 2 3 4 5 6 
#
# 1 148.6659 80.0249 19.8640 0.0000 0.0000 0.0000
# 2 80.0249 148.6659 19.8640 0.0000 0.0000 0.0000
# 3 19.8640 19.8640 68.1349 0.0000 0.0000 0.0000
# 4 0.0000 0.0000 0.0000 13.0807 0.0000 0.0000
# 5 0.0000 0.0000 0.0000 0.0000 13.0807 0.0000
# 6 0.0000 0.0000 0.0000 0.0000 0.0000 43.4399
#
#
#
# Elastic Compliance Matrix: (Units=1/GPa)
#
#
# Indices 1 2 3 4 5 6 
#
# 1 0.009587 -0.004981 -0.001343 0.000000 0.000000 0.000000
# 2 -0.004981 0.009587 -0.001343 0.000000 0.000000 0.000000
# 3 -0.001343 -0.001343 0.015460 0.000000 0.000000 0.000000
# 4 0.000000 0.000000 0.000000 0.076448 0.000000 0.000000
# 5 0.000000 0.000000 0.000000 0.000000 0.076448 0.000000
# 6 0.000000 0.000000 0.000000 0.000000 0.000000 0.023020
#
#
# Mechanical properties :
#
#
# Convention : Reuss Voigt Hill
#
# Bulk Modulus (GPa) = 51.81237 67.21919 59.51578
# Shear Modulus (GPa) = 21.52219 30.30120 25.91170
#
# Velocity S-wave (km/s) = 3.13604 3.72108 3.44102
# Velocity P-wave (km/s) = 6.06541 7.01273 6.55620
#
# Compressibility (1/GPa) = 0.01930041
#
# Stress axis : x y z
#
# Youngs Moduli (GPa) = 104.30495 104.30495 64.68411
#
# Poissons Ratio (x) = 0.51957 0.08686
# Poissons Ratio (y) = 0.51957 0.08686
# Poissons Ratio (z) = 0.14006 0.14006
#
# Static dielectric constant tensor:
#      x y z
#    x 1.812890 0.000000 0.000000 
#    y 0.000000 1.812890 0.000000 
#    z 0.000000 0.000000 1.885240 
# 
# From -- ./inp_files/5149.got.cif
#   From: 2010.05.17/outbox.cif.g08.bks.cpg/sg138_3_cif.got.tgz:5149.got - 2010.05.20 13:08:53.
