data_PCOD9570944
_publ_section_title
;
Structure prediction by ZEFSAII (Michael W. Deem and Ramdas Pophale) SiO2 
 PCOD9570944
Probable space group: P 42/N C M
;
_chemical_formula_sum "Si O2"
_cell_formula_units_Z 64
_cell_length_a 11.747354
_cell_length_b 11.747354
_cell_length_c 23.707764
_cell_angle_alpha 90.000000
_cell_angle_beta 90.000000
_cell_angle_gamma 90.000000
_cell_volume 3271.679161
_symmetry_space_group_name_H-M "P 42/N C M"
_symmetry_group_IT_number 138
_space_group.IT_coordinate_system_code '2'
_symmetry_cell_setting 'tetragonal'
loop_
_space_group_symop_operation_xyz
x,y,z
1/2-y,x,1/2+z
1/2-x,1/2-y,z
y,1/2-x,1/2+z
1/2+x,-y,1/2-z
-x,1/2+y,1/2-z
1/2+y,1/2+x,-z
-y,-x,-z
-x,-y,-z
1/2+y,-x,1/2-z
1/2+x,1/2+y,-z
-y,1/2+x,1/2-z
1/2-x,y,1/2+z
x,1/2-y,1/2+z
1/2-y,1/2-x,z
y,x,z
loop_
_atom_site_type_symbol
_atom_site_label
_atom_site_fract_x
_atom_site_fract_y
_atom_site_fract_z
Si Si1 0.907598 0.089571 0.795836
Si Si2 0.866455 0.176249 0.563988
Si Si3 0.439758 0.247193 0.132962
Si Si4 0.524418 0.156369 0.827221
O O1 0.945011 0.212116 0.817177
O O2 0.793824 0.031999 0.821618
O O3 0.898249 0.081503 0.728481
O O4 0.006452 0.006452 0.815154
O O5 0.750000 0.250000 0.572014
O O6 0.865571 0.134430 0.500000
O O7 0.983680 0.242396 0.576786
O O8 0.870812 0.080597 0.612626
O O9 0.371510 0.128491 0.144331
O O10 0.341435 0.341435 0.129810
O O11 0.396187 0.103813 0.826564
#
# Coordination Sequence:
#
# PCOD9570944 Si02
#       4
#    16  16  16  16
#     4  10  22  39  61  94 129 162 205 256 312 379
#     4  11  23  41  63  91 121 163 211 259 307 361
#     4  10  21  40  66  92 123 165 207 251 309 374
#     4  11  23  38  61  90 123 167 206 252 317 375
#
# _framework density 19.561820999999998
#
# number of rings (size 3 to 8) (size 9 to 14) (size 15 to 20)
#    0.000    1.500    2.500    2.250    0.000    5.500 
#    0.000    6.250    0.000    0.000    0.000    0.000 
#    0.000    0.000    0.000    0.000    0.000    0.000 
#
# Total GULP energy -356417.152714 kJ/mol
# GULP energy per Si atom -5569.018011 kJ/mol
# Density = 1.951730 g / cm^3
# Si number density = 19.561821 Si / 1000 Ang^3
#
#
#
# Elastic Constant Matrix: (Units=GPa)
#
#
# Indices 1 2 3 4 5 6 
#
# 1 112.9755 76.8523 46.6895 0.0000 0.0000 0.0000
# 2 76.8523 112.9755 46.6895 0.0000 0.0000 0.0000
# 3 46.6895 46.6895 133.5546 0.0000 0.0000 0.0000
# 4 0.0000 0.0000 0.0000 21.4052 0.0000 0.0000
# 5 0.0000 0.0000 0.0000 0.0000 21.4053 0.0000
# 6 0.0000 0.0000 0.0000 0.0000 0.0000 24.0992
#
#
#
# Elastic Compliance Matrix: (Units=1/GPa)
#
#
# Indices 1 2 3 4 5 6 
#
# 1 0.017023 -0.010661 -0.002224 0.000000 0.000000 0.000000
# 2 -0.010661 0.017023 -0.002224 0.000000 0.000000 0.000000
# 3 -0.002224 -0.002224 0.009043 0.000000 0.000000 0.000000
# 4 0.000000 0.000000 0.000000 0.046718 0.000000 0.000000
# 5 0.000000 0.000000 0.000000 0.000000 0.046718 0.000000
# 6 0.000000 0.000000 0.000000 0.000000 0.000000 0.041495
#
#
# Mechanical properties :
#
#
# Convention : Reuss Voigt Hill
#
# Bulk Modulus (GPa) = 77.69870 77.77425 77.73647
# Shear Modulus (GPa) = 23.52659 26.00021 24.76340
#
# Velocity S-wave (km/s) = 3.47173 3.64968 3.56182
# Velocity P-wave (km/s) = 7.47505 7.58978 7.53263
#
# Compressibility (1/GPa) = 0.01287023
#
# Stress axis : x y z
#
# Youngs Moduli (GPa) = 58.74562 58.74565 110.58733
#
# Poissons Ratio (x) = 0.62626 0.24596
# Poissons Ratio (y) = 0.62626 0.24596
# Poissons Ratio (z) = 0.13066 0.13066
#
# Static dielectric constant tensor:
#      x y z
#    x 1.777180 0.000000 0.000000 
#    y 0.000000 1.777180 0.000000 
#    z 0.000000 0.000000 1.679350 
# 
# From -- ./inp_files/5840.got.cif
#   From: 2010.05.17/outbox.cif.g08.bks.cpg/sg138_3_cif.got.tgz:5840.got - 2010.05.20 13:08:53.
