data_PCOD9570717
_publ_section_title
;
Structure prediction by ZEFSAII (Michael W. Deem and Ramdas Pophale) SiO2 
 PCOD9570717
Probable space group: P 42/N C M
;
_chemical_formula_sum "Si O2"
_cell_formula_units_Z 80
_cell_length_a 12.150709
_cell_length_b 12.150709
_cell_length_c 28.249766
_cell_angle_alpha 90.000000
_cell_angle_beta 90.000000
_cell_angle_gamma 90.000000
_cell_volume 4170.787802
_symmetry_space_group_name_H-M "P 42/N C M"
_symmetry_group_IT_number 138
_space_group.IT_coordinate_system_code '2'
_symmetry_cell_setting 'tetragonal'
loop_
_space_group_symop_operation_xyz
x,y,z
1/2-y,x,1/2+z
1/2-x,1/2-y,z
y,1/2-x,1/2+z
1/2+x,-y,1/2-z
-x,1/2+y,1/2-z
1/2+y,1/2+x,-z
-y,-x,-z
-x,-y,-z
1/2+y,-x,1/2-z
1/2+x,1/2+y,-z
-y,1/2+x,1/2-z
1/2-x,y,1/2+z
x,1/2-y,1/2+z
1/2-y,1/2-x,z
y,x,z
loop_
_atom_site_type_symbol
_atom_site_label
_atom_site_fract_x
_atom_site_fract_y
_atom_site_fract_z
Si Si1 0.428277 0.256850 0.096510
Si Si2 0.337613 0.650996 0.553465
Si Si3 0.923047 0.230338 0.351524
Si Si4 0.264002 0.927067 0.682018
Si Si5 0.929091 0.752971 0.231213
O O1 0.341833 0.158168 0.091682
O O2 0.367261 0.367261 0.079487
O O3 0.541413 0.222773 0.071691
O O4 0.462667 0.271135 0.151087
O O5 0.250000 0.750000 0.551976
O O6 0.374042 0.625959 0.500000
O O7 0.423453 0.695646 0.593168
O O8 0.851217 0.132467 0.328451
O O9 0.854433 0.341550 0.338516
O O10 0.035563 0.242875 0.323463
O O11 0.266997 0.964118 0.736185
O O12 0.840831 0.659170 0.242049
O O13 0.870060 0.870060 0.240299
#
# Coordination Sequence:
#
# PCOD9570717 Si02
#       5
#    16  16  16  16  16
#     4  10  20  35  59  91 121 149 194 253 303 348
#     4  10  20  41  64  85 115 154 199 247 302 368
#     4  10  20  37  57  86 110 148 196 249 292 349
#     4  10  19  36  58  84 112 152 195 239 289 348
#     4  11  24  37  51  79 120 161 197 237 291 356
#
# _framework density 19.181028000000001
#
# number of rings (size 3 to 8) (size 9 to 14) (size 15 to 20)
#    0.000    1.800    4.000    2.400    0.000   10.800 
#    0.000    3.000    0.000    2.400    0.000    0.000 
#    0.000    0.000    0.000    0.000    0.000    0.000 
#
# Total GULP energy -445835.339219 kJ/mol
# GULP energy per Si atom -5572.941740 kJ/mol
# Density = 1.913737 g / cm^3
# Si number density = 19.181028 Si / 1000 Ang^3
#
#
#
# Elastic Constant Matrix: (Units=GPa)
#
#
# Indices 1 2 3 4 5 6 
#
# 1 70.3462 22.8963 23.8254 0.0000 0.0000 0.0000
# 2 22.8963 70.3464 23.8255 0.0000 0.0000 0.0000
# 3 23.8254 23.8255 136.9101 0.0000 0.0000 0.0000
# 4 0.0000 0.0000 0.0000 -6.7141 0.0000 0.0000
# 5 0.0000 0.0000 0.0000 0.0000 -6.7101 0.0000
# 6 0.0000 0.0000 0.0000 0.0000 0.0000 6.0257
#
#
#
# Elastic Compliance Matrix: (Units=1/GPa)
#
#
# Indices 1 2 3 4 5 6 
#
# 1 0.016423 -0.004652 -0.002049 0.000000 0.000000 0.000000
# 2 -0.004652 0.016423 -0.002049 0.000000 0.000000 0.000000
# 3 -0.002049 -0.002049 0.008017 0.000000 0.000000 0.000000
# 4 0.000000 0.000000 0.000000 -0.148941 0.000000 0.000000
# 5 0.000000 0.000000 0.000000 0.000000 -0.149030 0.000000
# 6 0.000000 0.000000 0.000000 0.000000 0.000000 0.165956
#
#
# Mechanical properties :
#
#
# Convention : Reuss Voigt Hill
#
# Bulk Modulus (GPa) = 42.79696 46.52189 44.65943
# Shear Modulus (GPa) = -75.91248 12.32401 -31.79424
#
# Velocity S-wave (km/s) = -6.29784 2.53753 -4.07577
# Velocity P-wave (km/s) = 5.52477 5.73517 1.08836
#
# Compressibility (1/GPa) = 0.02336614
#
# Stress axis : x y z
#
# Youngs Moduli (GPa) = 60.88943 60.88953 124.73424
#
# Poissons Ratio (x) = 0.28323 0.25552
# Poissons Ratio (y) = 0.28323 0.25552
# Poissons Ratio (z) = 0.12473 0.12473
#
# Static dielectric constant tensor:
#      x y z
#    x 1.669390 0.000000 0.000000 
#    y 0.000000 1.669390 0.000000 
#    z 0.000000 0.000000 1.743210 
# 
# From -- ./inp_files/7892.got.cif
#   From: 2010.05.17/outbox.cif.g08.bks.cpg/sg138_4_cif.got.tgz:7892.got - 2010.05.20 13:08:53.
