data_PCOD9570171
_publ_section_title
;
Structure prediction by ZEFSAII (Michael W. Deem and Ramdas Pophale) SiO2 
 PCOD9570171
Probable space group: P 42/N M C
;
_chemical_formula_sum "Si O2"
_cell_formula_units_Z 56
_cell_length_a 24.923812
_cell_length_b 24.923812
_cell_length_c 4.930928
_cell_angle_alpha 90.000000
_cell_angle_beta 90.000000
_cell_angle_gamma 90.000000
_cell_volume 3063.074745
_symmetry_space_group_name_H-M "P 42/N M C"
_symmetry_group_IT_number 137
_space_group.IT_coordinate_system_code '2'
_symmetry_cell_setting 'tetragonal'
loop_
_space_group_symop_operation_xyz
x,y,z
1/2-y,x,1/2+z
1/2-x,1/2-y,z
y,1/2-x,1/2+z
1/2+x,-y,-z
-x,1/2+y,-z
1/2+y,1/2+x,1/2-z
-y,-x,1/2-z
-x,-y,-z
1/2+y,-x,1/2-z
1/2+x,1/2+y,-z
-y,1/2+x,1/2-z
1/2-x,y,z
x,1/2-y,z
1/2-y,1/2-x,1/2+z
y,x,1/2+z
loop_
_atom_site_type_symbol
_atom_site_label
_atom_site_fract_x
_atom_site_fract_y
_atom_site_fract_z
Si Si1 0.976361 0.691589 0.469767
Si Si2 0.923434 0.527228 0.056156
Si Si3 0.585395 0.085395 0.750000
Si Si4 0.551542 0.191238 0.027972
O O1 0.950654 0.750000 0.518448
O O2 0.947001 0.635729 0.524290
O O3 0.998966 0.690435 0.165389
O O4 0.028370 0.689178 0.669146
O O5 0.965675 0.557339 0.862157
O O6 0.917888 0.467192 0.941408
O O7 0.583505 0.139149 0.931467
O O8 0.577577 0.250000 0.987176
#
# Coordination Sequence:
#
# PCOD9570171 Si02
#       4
#    16  16   8  16
#     4   9  18  33  48  63  89 126 161 191 221 267
#     4  11  21  31  45  72 102 125 152 188 237 295
#     4  10  20  32  48  67  98 132 154 192 248 289
#     4   9  18  31  47  65  85 120 168 199 224 273
#
# _framework density 18.282283
#
# number of rings (size 3 to 8) (size 9 to 14) (size 15 to 20)
#    0.000    2.286    0.000    4.286    0.000    9.143 
#    0.000    0.000    0.000    0.429    0.000    0.000 
#    0.000   21.714    0.000    0.000    0.000    4.286 
#
# Total GULP energy -312180.646293 kJ/mol
# GULP energy per Si atom -5574.654398 kJ/mol
# Density = 1.824067 g / cm^3
# Si number density = 18.282283 Si / 1000 Ang^3
#
#
#
# Elastic Constant Matrix: (Units=GPa)
#
#
# Indices 1 2 3 4 5 6 
#
# 1 100.3579 0.8672 9.0923 0.0000 0.0000 0.0000
# 2 0.8672 100.3579 9.0923 0.0000 0.0000 0.0000
# 3 9.0923 9.0923 50.5479 0.0000 0.0000 0.0000
# 4 0.0000 0.0000 0.0000 21.1744 0.0000 0.0000
# 5 0.0000 0.0000 0.0000 0.0000 21.1744 0.0000
# 6 0.0000 0.0000 0.0000 0.0000 0.0000 3.9111
#
#
#
# Elastic Compliance Matrix: (Units=1/GPa)
#
#
# Indices 1 2 3 4 5 6 
#
# 1 0.010130 0.000079 -0.001836 0.000000 0.000000 0.000000
# 2 0.000079 0.010130 -0.001836 0.000000 0.000000 0.000000
# 3 -0.001836 -0.001836 0.020444 0.000000 0.000000 0.000000
# 4 0.000000 0.000000 0.000000 0.047227 0.000000 0.000000
# 5 0.000000 0.000000 0.000000 0.000000 0.047227 0.000000
# 6 0.000000 0.000000 0.000000 0.000000 0.000000 0.255685
#
#
# Mechanical properties :
#
#
# Convention : Reuss Voigt Hill
#
# Bulk Modulus (GPa) = 29.83624 32.15192 30.99408
# Shear Modulus (GPa) = 12.21889 24.73277 18.47583
#
# Velocity S-wave (km/s) = 2.58804 3.68207 3.18242
# Velocity P-wave (km/s) = 5.02850 5.97507 5.52210
#
# Compressibility (1/GPa) = 0.03351629
#
# Stress axis : x y z
#
# Youngs Moduli (GPa) = 98.71650 98.71650 48.91449
#
# Poissons Ratio (x) = -0.00778 0.08982
# Poissons Ratio (y) = -0.00778 0.08982
# Poissons Ratio (z) = 0.18127 0.18127
#
# Static dielectric constant tensor:
#      x y z
#    x 1.675630 0.000000 0.000000 
#    y 0.000000 1.675630 0.000000 
#    z 0.000000 0.000000 1.642230 
# 
# From -- ./inp_files/420.got.cif
#   From: 2010.05.17/outbox.cif.g08.bks.cpg/sg137_1_cif.got.tgz:420.got - 2010.05.20 13:01:12.
