data_PCOD9570669
_publ_section_title
;
Structure prediction by ZEFSAII (Michael W. Deem and Ramdas Pophale) SiO2 
 PCOD9570669
Probable space group: P 42/N C M
;
_chemical_formula_sum "Si O2"
_cell_formula_units_Z 72
_cell_length_a 21.177455
_cell_length_b 21.177455
_cell_length_c 10.022718
_cell_angle_alpha 90.000000
_cell_angle_beta 90.000000
_cell_angle_gamma 90.000000
_cell_volume 4495.034676
_symmetry_space_group_name_H-M "P 42/N C M"
_symmetry_group_IT_number 138
_space_group.IT_coordinate_system_code '2'
_symmetry_cell_setting 'tetragonal'
loop_
_space_group_symop_operation_xyz
x,y,z
1/2-y,x,1/2+z
1/2-x,1/2-y,z
y,1/2-x,1/2+z
1/2+x,-y,1/2-z
-x,1/2+y,1/2-z
1/2+y,1/2+x,-z
-y,-x,-z
-x,-y,-z
1/2+y,-x,1/2-z
1/2+x,1/2+y,-z
-y,1/2+x,1/2-z
1/2-x,y,1/2+z
x,1/2-y,1/2+z
1/2-y,1/2-x,z
y,x,z
loop_
_atom_site_type_symbol
_atom_site_label
_atom_site_fract_x
_atom_site_fract_y
_atom_site_fract_z
Si Si1 0.346173 0.846173 0.000000
Si Si2 0.437310 0.745054 0.068450
Si Si3 0.533655 0.966346 0.689145
Si Si4 0.929334 0.929334 0.898204
Si Si5 0.620044 0.075472 0.741312
Si Si6 0.178078 0.984112 0.186222
O O1 0.277063 0.868138 0.952170
O O2 0.393903 0.859832 0.879795
O O3 0.431477 0.679182 0.144853
O O4 0.476442 0.791090 0.167576
O O5 0.470022 0.729931 0.927355
O O6 0.564955 0.935046 0.558242
O O7 0.491893 0.913751 0.761765
O O8 0.481219 0.018782 0.648479
O O9 0.952842 0.861717 0.844785
O O10 0.571160 0.125298 0.676911
#
# Coordination Sequence:
#
# PCOD9570669 Si02
#       6
#     8  16   8   8  16  16
#     4  10  22  33  47  72 102 138 168 206 259 289
#     4  11  19  34  51  71  99 138 167 208 247 296
#     4   9  16  27  52  74  96 126 169 204 264 310
#     4   9  16  30  48  78  92 129 168 213 253 305
#     4  10  19  33  51  73 100 134 171 214 255 303
#     4  10  20  32  54  70 104 130 172 210 257 295
#
# _framework density 16.017674
#
# number of rings (size 3 to 8) (size 9 to 14) (size 15 to 20)
#    0.000    2.000    4.444    0.667    0.000    0.444 
#    0.000    3.333    0.000    0.000    0.000    0.000 
#    0.000    7.111    0.000    0.000    0.000    0.000 
#
# Total GULP energy -400918.695474 kJ/mol
# GULP energy per Si atom -5568.315215 kJ/mol
# Density = 1.598122 g / cm^3
# Si number density = 16.017674 Si / 1000 Ang^3
#
#
#
# Elastic Constant Matrix: (Units=GPa)
#
#
# Indices 1 2 3 4 5 6 
#
# 1 30.7451 61.4473 6.8618 0.0000 0.0000 0.0000
# 2 61.4473 30.7451 6.8618 0.0000 0.0000 0.0000
# 3 6.8618 6.8618 45.2679 0.0000 0.0000 0.0000
# 4 0.0000 0.0000 0.0000 9.2774 0.0000 0.0000
# 5 0.0000 0.0000 0.0000 0.0000 9.2774 0.0000
# 6 0.0000 0.0000 0.0000 0.0000 0.0000 22.7760
#
#
#
# Elastic Compliance Matrix: (Units=1/GPa)
#
#
# Indices 1 2 3 4 5 6 
#
# 1 -0.010737 0.021834 -0.001682 0.000000 0.000000 0.000000
# 2 0.021834 -0.010737 -0.001682 0.000000 0.000000 0.000000
# 3 -0.001682 -0.001682 0.022601 0.000000 0.000000 0.000000
# 4 0.000000 0.000000 0.000000 0.107788 0.000000 0.000000
# 5 0.000000 0.000000 0.000000 0.000000 0.107788 0.000000
# 6 0.000000 0.000000 0.000000 0.000000 0.000000 0.043906
#
#
# Mechanical properties :
#
#
# Convention : Reuss Voigt Hill
#
# Bulk Modulus (GPa) = 26.26974 28.56667 27.41821
# Shear Modulus (GPa) = 21.15428 10.37199 15.76314
#
# Velocity S-wave (km/s) = 3.63806 2.54743 3.14045
# Velocity P-wave (km/s) = 5.83810 5.15031 5.50496
#
# Compressibility (1/GPa) = 0.03806661
#
# Stress axis : x y z
#
# Youngs Moduli (GPa) = -93.13715 -93.13715 44.24649
#
# Poissons Ratio (x) = 2.03357 0.07443
# Poissons Ratio (y) = 2.03357 0.07443
# Poissons Ratio (z) = -0.15667 -0.15667
#
# Static dielectric constant tensor:
#      x y z
#    x 1.545810 0.000000 0.000000 
#    y 0.000000 1.545810 0.000000 
#    z 0.000000 0.000000 1.588610 
# 
# From -- ./inp_files/1614.got.cif
#   From: 2010.05.17/outbox.cif.g08.bks.cpg/sg138_1_cif.got.tgz:1614.got - 2010.05.20 13:08:53.
