data_PCOD9570288
_publ_section_title
;
Structure prediction by ZEFSAII (Michael W. Deem and Ramdas Pophale) SiO2 
 PCOD9570288
Probable space group: P 42/N M C
;
_chemical_formula_sum "Si O2"
_cell_formula_units_Z 60
_cell_length_a 16.000335
_cell_length_b 16.000335
_cell_length_c 13.243373
_cell_angle_alpha 90.000000
_cell_angle_beta 90.000000
_cell_angle_gamma 90.000000
_cell_volume 3390.445458
_symmetry_space_group_name_H-M "P 42/N M C"
_symmetry_group_IT_number 137
_space_group.IT_coordinate_system_code '2'
_symmetry_cell_setting 'tetragonal'
loop_
_space_group_symop_operation_xyz
x,y,z
1/2-y,x,1/2+z
1/2-x,1/2-y,z
y,1/2-x,1/2+z
1/2+x,-y,-z
-x,1/2+y,-z
1/2+y,1/2+x,1/2-z
-y,-x,1/2-z
-x,-y,-z
1/2+y,-x,1/2-z
1/2+x,1/2+y,-z
-y,1/2+x,1/2-z
1/2-x,y,z
x,1/2-y,z
1/2-y,1/2-x,1/2+z
y,x,1/2+z
loop_
_atom_site_type_symbol
_atom_site_label
_atom_site_fract_x
_atom_site_fract_y
_atom_site_fract_z
Si Si1 0.250000 0.413506 0.641489
Si Si2 0.471921 0.912702 0.855648
Si Si3 0.078557 0.250000 0.905404
Si Si4 0.906272 0.453102 0.583453
Si Si5 0.345412 0.845412 0.250000
Si Si6 0.250000 0.250000 0.777940
O O1 0.164863 0.465431 0.660618
O O2 0.250000 0.394683 0.522452
O O3 0.250000 0.331834 0.708869
O O4 0.423018 0.923018 0.750000
O O5 0.512122 0.003117 0.883190
O O6 0.430179 0.895348 0.965330
O O7 0.163338 0.250000 0.841012
O O8 0.021167 0.333359 0.890689
O O9 0.895548 0.373099 0.652798
O O10 0.359522 0.750000 0.225390
#
# Coordination Sequence:
#
# PCOD9570288 Si02
#       6
#     8  16   8  16   8   4
#     4  10  23  37  57  86 118 156 195 241 290 348
#     4  10  20  38  60  82 114 158 197 232 288 352
#     4  10  21  39  58  84 121 155 191 240 294 344
#     4  10  20  37  62  82 114 157 192 240 291 340
#     4  11  22  36  60  88 114 144 193 246 288 340
#     4  12  22  32  56  88 120 152 188 240 288 358
#
# _framework density 17.69679
#
# number of rings (size 3 to 8) (size 9 to 14) (size 15 to 20)
#    0.000    1.733    2.667    2.000    0.000    0.000 
#    2.400    0.000    5.867    0.400    0.000    0.000 
#    0.000    0.000    0.000    0.000    0.000    0.000 
#
# Total GULP energy -334032.171415 kJ/mol
# GULP energy per Si atom -5567.202857 kJ/mol
# Density = 1.765651 g / cm^3
# Si number density = 17.696790 Si / 1000 Ang^3
#
#
#
# Elastic Constant Matrix: (Units=GPa)
#
#
# Indices 1 2 3 4 5 6 
#
# 1 77.5955 15.1112 26.0937 0.0000 0.0000 0.0000
# 2 15.1112 77.5955 26.0937 0.0000 0.0000 0.0000
# 3 26.0937 26.0937 86.0639 0.0000 0.0000 0.0000
# 4 0.0000 0.0000 0.0000 19.3402 0.0000 0.0000
# 5 0.0000 0.0000 0.0000 0.0000 19.3402 0.0000
# 6 0.0000 0.0000 0.0000 0.0000 0.0000 4.8654
#
#
#
# Elastic Compliance Matrix: (Units=1/GPa)
#
#
# Indices 1 2 3 4 5 6 
#
# 1 0.014505 -0.001499 -0.003943 0.000000 0.000000 0.000000
# 2 -0.001499 0.014505 -0.003943 0.000000 0.000000 0.000000
# 3 -0.003943 -0.003943 0.014011 0.000000 0.000000 0.000000
# 4 0.000000 0.000000 0.000000 0.051706 0.000000 0.000000
# 5 0.000000 0.000000 0.000000 0.000000 0.051706 0.000000
# 6 0.000000 0.000000 0.000000 0.000000 0.000000 0.205535
#
#
# Mechanical properties :
#
#
# Convention : Reuss Voigt Hill
#
# Bulk Modulus (GPa) = 41.23738 41.76134 41.49936
# Shear Modulus (GPa) = 13.19881 20.30625 16.75253
#
# Velocity S-wave (km/s) = 2.73395 3.39108 3.08009
# Velocity P-wave (km/s) = 5.77224 6.24356 6.01252
#
# Compressibility (1/GPa) = 0.02424984
#
# Stress axis : x y z
#
# Youngs Moduli (GPa) = 68.94031 68.94031 71.37497
#
# Poissons Ratio (x) = 0.10332 0.28146
# Poissons Ratio (y) = 0.10332 0.28146
# Poissons Ratio (z) = 0.27186 0.27186
#
# Static dielectric constant tensor:
#      x y z
#    x 1.606280 0.000000 0.000000 
#    y 0.000000 1.606280 0.000000 
#    z 0.000000 0.000000 1.947850 
# 
# From -- ./inp_files/3411.got.cif
#   From: 2010.05.17/outbox.cif.g08.bks.cpg/sg137_2_cif.got.tgz:3411.got - 2010.05.20 13:01:12.
