data_PCOD9570593
_publ_section_title
;
Structure prediction by ZEFSAII (Michael W. Deem and Ramdas Pophale) SiO2 
 PCOD9570593
Probable space group: P 42/N C M
;
_chemical_formula_sum "Si O2"
_cell_formula_units_Z 80
_cell_length_a 16.057213
_cell_length_b 16.057213
_cell_length_c 14.042889
_cell_angle_alpha 90.000000
_cell_angle_beta 90.000000
_cell_angle_gamma 90.000000
_cell_volume 3620.735497
_symmetry_space_group_name_H-M "P 42/N C M"
_symmetry_group_IT_number 138
_space_group.IT_coordinate_system_code '2'
_symmetry_cell_setting 'tetragonal'
loop_
_space_group_symop_operation_xyz
x,y,z
1/2-y,x,1/2+z
1/2-x,1/2-y,z
y,1/2-x,1/2+z
1/2+x,-y,1/2-z
-x,1/2+y,1/2-z
1/2+y,1/2+x,-z
-y,-x,-z
-x,-y,-z
1/2+y,-x,1/2-z
1/2+x,1/2+y,-z
-y,1/2+x,1/2-z
1/2-x,y,1/2+z
x,1/2-y,1/2+z
1/2-y,1/2-x,z
y,x,z
loop_
_atom_site_type_symbol
_atom_site_label
_atom_site_fract_x
_atom_site_fract_y
_atom_site_fract_z
Si Si1 0.751920 0.886285 0.957753
Si Si2 0.167992 0.667869 0.698336
Si Si3 0.737571 0.458601 0.587822
Si Si4 0.304982 0.437001 0.734670
Si Si5 0.929908 0.063523 0.676250
O O1 0.666890 0.833111 0.979885
O O2 0.828360 0.828360 0.989263
O O3 0.754595 0.978049 0.002999
O O4 0.753621 0.896780 0.843930
O O5 0.153634 0.734049 0.787192
O O6 0.125785 0.709003 0.606296
O O7 0.118980 0.585195 0.726007
O O8 0.761091 0.513696 0.681223
O O9 0.640796 0.435740 0.596475
O O10 0.365743 0.365743 0.775078
O O11 0.365729 0.499453 0.675791
O O12 0.976252 0.976252 0.676791
#
# Coordination Sequence:
#
# PCOD9570593 Si02
#       5
#    16  16  16  16  16
#     4  10  21  34  49  74 106 141 180 214 253 311
#     4   8  15  29  50  74 100 134 172 209 255 313
#     4  10  18  31  53  77 102 133 174 223 265 301
#     4   9  19  35  52  73 106 143 175 213 261 312
#     4   9  17  29  50  78 102 129 169 214 262 311
#
# _framework density 22.094957999999998
#
# number of rings (size 3 to 8) (size 9 to 14) (size 15 to 20)
#    0.000    2.800    0.000    1.200    0.000    3.200 
#    0.000    5.000    0.000   19.200    0.000   57.400 
#    0.000    0.000    0.000    0.000    0.000    0.000 
#
# Total GULP energy -445737.753577 kJ/mol
# GULP energy per Si atom -5571.721920 kJ/mol
# Density = 2.204467 g / cm^3
# Si number density = 22.094958 Si / 1000 Ang^3
#
#
#
# Elastic Constant Matrix: (Units=GPa)
#
#
# Indices 1 2 3 4 5 6 
#
# 1 47.2963 14.8488 14.8046 0.0000 0.0000 0.0000
# 2 14.8488 47.2963 14.8046 0.0000 0.0000 0.0000
# 3 14.8046 14.8046 43.4200 0.0000 0.0000 0.0000
# 4 0.0000 0.0000 0.0000 15.4733 0.0000 0.0000
# 5 0.0000 0.0000 0.0000 0.0000 15.4733 0.0000
# 6 0.0000 0.0000 0.0000 0.0000 0.0000 37.4480
#
#
#
# Elastic Compliance Matrix: (Units=1/GPa)
#
#
# Indices 1 2 3 4 5 6 
#
# 1 0.025016 -0.005803 -0.006551 0.000000 0.000000 0.000000
# 2 -0.005803 0.025016 -0.006551 0.000000 0.000000 0.000000
# 3 -0.006551 -0.006551 0.027498 0.000000 0.000000 0.000000
# 4 0.000000 0.000000 0.000000 0.064627 0.000000 0.000000
# 5 0.000000 0.000000 0.000000 0.000000 0.064627 0.000000
# 6 0.000000 0.000000 0.000000 0.000000 0.000000 0.026704
#
#
# Mechanical properties :
#
#
# Convention : Reuss Voigt Hill
#
# Bulk Modulus (GPa) = 25.17626 25.21431 25.19528
# Shear Modulus (GPa) = 17.57237 19.91590 18.74414
#
# Velocity S-wave (km/s) = 2.82319 3.00555 2.91580
# Velocity P-wave (km/s) = 4.69537 4.84572 4.77114
#
# Compressibility (1/GPa) = 0.03971996
#
# Stress axis : x y z
#
# Youngs Moduli (GPa) = 39.97481 39.97481 36.36626
#
# Poissons Ratio (x) = 0.23198 0.23823
# Poissons Ratio (y) = 0.23198 0.23823
# Poissons Ratio (z) = 0.26187 0.26187
#
# Static dielectric constant tensor:
#      x y z
#    x 1.857190 0.000000 0.000000 
#    y 0.000000 1.857190 0.000000 
#    z 0.000000 0.000000 1.817150 
# 
# From -- ./inp_files/4074.got.cif
#   From: 2010.05.17/outbox.cif.g08.bks.cpg/sg138_3_cif.got.tgz:4074.got - 2010.05.20 13:08:53.
