data_PCOD9570634
_publ_section_title
;
Structure prediction by ZEFSAII (Michael W. Deem and Ramdas Pophale) SiO2 
 PCOD9570634
Probable space group: P 42/N C M
;
_chemical_formula_sum "Si O2"
_cell_formula_units_Z 80
_cell_length_a 14.479675
_cell_length_b 14.479675
_cell_length_c 20.812530
_cell_angle_alpha 90.000000
_cell_angle_beta 90.000000
_cell_angle_gamma 90.000000
_cell_volume 4363.575605
_symmetry_space_group_name_H-M "P 42/N C M"
_symmetry_group_IT_number 138
_space_group.IT_coordinate_system_code '2'
_symmetry_cell_setting 'tetragonal'
loop_
_space_group_symop_operation_xyz
x,y,z
1/2-y,x,1/2+z
1/2-x,1/2-y,z
y,1/2-x,1/2+z
1/2+x,-y,1/2-z
-x,1/2+y,1/2-z
1/2+y,1/2+x,-z
-y,-x,-z
-x,-y,-z
1/2+y,-x,1/2-z
1/2+x,1/2+y,-z
-y,1/2+x,1/2-z
1/2-x,y,1/2+z
x,1/2-y,1/2+z
1/2-y,1/2-x,z
y,x,z
loop_
_atom_site_type_symbol
_atom_site_label
_atom_site_fract_x
_atom_site_fract_y
_atom_site_fract_z
Si Si1 0.170582 0.867737 0.769766
Si Si2 0.562909 0.785322 0.754031
Si Si3 0.997390 0.354789 0.642110
Si Si4 0.402939 0.255621 0.392881
Si Si5 0.496114 0.653583 0.000666
O O1 0.281399 0.857795 0.775316
O O2 0.107629 0.859574 0.832849
O O3 0.154745 0.968943 0.741138
O O4 0.652385 0.847616 0.764279
O O5 0.551800 0.704573 0.805301
O O6 0.565460 0.747630 0.681098
O O7 0.043676 0.456325 0.638637
O O8 0.007927 0.310726 0.571971
O O9 0.323306 0.176695 0.397237
O O10 0.351822 0.351822 0.407350
O O11 0.481460 0.225984 0.443408
O O12 0.572156 0.572156 0.009422
O O13 0.397564 0.602437 0.000000
#
# Coordination Sequence:
#
# PCOD9570634 Si02
#       5
#    16  16  16  16  16
#     4   9  18  32  49  70  95 124 168 218 258 294
#     4  10  19  31  49  74 105 137 168 207 257 315
#     4  10  19  30  48  76 105 132 163 204 256 309
#     4   9  17  29  45  68 103 144 176 205 254 321
#     4   9  17  29  46  69 100 137 175 213 253 305
#
# _framework density 18.333587999999999
#
# number of rings (size 3 to 8) (size 9 to 14) (size 15 to 20)
#    0.000    2.600    0.000    2.400    0.000    5.200 
#    0.000    2.000    0.000    0.000    0.000  124.600 
#    0.000   60.800    0.000    0.000    0.000    0.000 
#
# Total GULP energy -445491.709836 kJ/mol
# GULP energy per Si atom -5568.646373 kJ/mol
# Density = 1.829186 g / cm^3
# Si number density = 18.333588 Si / 1000 Ang^3
#
#
#
# Elastic Constant Matrix: (Units=GPa)
#
#
# Indices 1 2 3 4 5 6 
#
# 1 56.0667 25.8642 43.3579 0.0000 0.0000 0.0000
# 2 25.8642 56.0668 43.3582 0.0000 0.0000 0.0000
# 3 43.3579 43.3582 131.3871 0.0000 0.0000 0.0000
# 4 0.0000 0.0000 0.0000 15.0905 0.0000 0.0000
# 5 0.0000 0.0000 0.0000 0.0000 15.0932 0.0000
# 6 0.0000 0.0000 0.0000 0.0000 0.0000 22.5525
#
#
#
# Elastic Compliance Matrix: (Units=1/GPa)
#
#
# Indices 1 2 3 4 5 6 
#
# 1 0.025933 -0.007177 -0.006190 0.000000 0.000000 0.000000
# 2 -0.007177 0.025933 -0.006190 0.000000 0.000000 0.000000
# 3 -0.006190 -0.006190 0.011696 0.000000 0.000000 0.000000
# 4 0.000000 0.000000 0.000000 0.066267 0.000000 0.000000
# 5 0.000000 0.000000 0.000000 0.000000 0.066255 0.000000
# 6 0.000000 0.000000 0.000000 0.000000 0.000000 0.044341
#
#
# Mechanical properties :
#
#
# Convention : Reuss Voigt Hill
#
# Bulk Modulus (GPa) = 40.89863 52.07571 46.48717
# Shear Modulus (GPa) = 17.37991 19.27657 18.32824
#
# Velocity S-wave (km/s) = 3.08227 3.24610 3.16525
# Velocity P-wave (km/s) = 5.91808 6.52041 6.22653
#
# Compressibility (1/GPa) = 0.02445069
#
# Stress axis : x y z
#
# Youngs Moduli (GPa) = 38.56056 38.56046 85.49665
#
# Poissons Ratio (x) = 0.27673 0.52920
# Poissons Ratio (y) = 0.27673 0.52921
# Poissons Ratio (z) = 0.23868 0.23868
#
# Static dielectric constant tensor:
#      x y z
#    x 1.666200 0.000000 0.000000 
#    y 0.000000 1.666200 0.000000 
#    z 0.000000 0.000000 1.632670 
# 
# From -- ./inp_files/5998.got.cif
#   From: 2010.05.17/outbox.cif.g08.bks.cpg/sg138_3_cif.got.tgz:5998.got - 2010.05.20 13:08:53.
