data_PCOD9570860
_publ_section_title
;
Structure prediction by ZEFSAII (Michael W. Deem and Ramdas Pophale) SiO2 
 PCOD9570860
Probable space group: P 42/N C M
;
_chemical_formula_sum "Si O2"
_cell_formula_units_Z 68
_cell_length_a 10.377773
_cell_length_b 10.377773
_cell_length_c 25.409052
_cell_angle_alpha 90.000000
_cell_angle_beta 90.000000
_cell_angle_gamma 90.000000
_cell_volume 2736.508464
_symmetry_space_group_name_H-M "P 42/N C M"
_symmetry_group_IT_number 138
_space_group.IT_coordinate_system_code '2'
_symmetry_cell_setting 'tetragonal'
loop_
_space_group_symop_operation_xyz
x,y,z
1/2-y,x,1/2+z
1/2-x,1/2-y,z
y,1/2-x,1/2+z
1/2+x,-y,1/2-z
-x,1/2+y,1/2-z
1/2+y,1/2+x,-z
-y,-x,-z
-x,-y,-z
1/2+y,-x,1/2-z
1/2+x,1/2+y,-z
-y,1/2+x,1/2-z
1/2-x,y,1/2+z
x,1/2-y,1/2+z
1/2-y,1/2-x,z
y,x,z
loop_
_atom_site_type_symbol
_atom_site_label
_atom_site_fract_x
_atom_site_fract_y
_atom_site_fract_z
Si Si1 0.750000 0.750000 0.769591
Si Si2 0.834220 0.050692 0.122055
Si Si3 0.244009 0.453556 0.106358
Si Si4 0.753864 0.038386 0.007718
Si Si5 0.743394 0.043380 0.234702
O O1 0.592017 0.749246 0.762691
O O2 0.760077 0.007274 0.069082
O O3 0.742813 0.034972 0.171646
O O4 0.905198 0.192960 0.118554
O O5 0.951543 0.951543 0.128386
O O6 0.104286 0.395715 0.122977
O O7 0.346902 0.346902 0.125840
O O8 0.244562 0.448345 0.042536
O O9 0.639177 0.139177 0.000000
O O10 0.888574 0.111427 0.000000
O O11 0.624154 0.128091 0.253238
#
# Coordination Sequence:
#
# PCOD9570860 Si02
#       5
#     4  16  16  16  16
#     4  12  24  52  80 112 148 190 248 324 384 464
#     4  10  20  41  67  97 135 186 245 302 368 441
#     4   9  18  34  57  92 135 181 230 287 353 428
#     4   9  18  32  58  87 130 181 231 289 354 424
#     4  11  26  48  79 111 152 195 250 316 389 462
#
# _framework density 24.849184000000001
#
# number of rings (size 3 to 8) (size 9 to 14) (size 15 to 20)
#    0.000    2.118    1.176    1.412    0.000   10.824 
#    4.235    0.000   10.353    0.000    0.000    0.000 
#    0.000    0.000    0.000    0.000    0.000    0.000 
#
# Total GULP energy -379047.267607 kJ/mol
# GULP energy per Si atom -5574.224524 kJ/mol
# Density = 2.479263 g / cm^3
# Si number density = 24.849184 Si / 1000 Ang^3
#
#
#
# Elastic Constant Matrix: (Units=GPa)
#
#
# Indices 1 2 3 4 5 6 
#
# 1 94.1462 38.5982 -7.6615 0.0000 0.0000 0.0000
# 2 38.5982 94.1464 -7.6614 0.0000 0.0000 0.0000
# 3 -7.6615 -7.6614 139.6886 0.0000 0.0000 0.0000
# 4 0.0000 0.0000 0.0000 27.6919 0.0000 0.0000
# 5 0.0000 0.0000 0.0000 0.0000 27.6984 0.0000
# 6 0.0000 0.0000 0.0000 0.0000 0.0000 15.4599
#
#
#
# Elastic Compliance Matrix: (Units=1/GPa)
#
#
# Indices 1 2 3 4 5 6 
#
# 1 0.012792 -0.005211 0.000416 0.000000 0.000000 0.000000
# 2 -0.005211 0.012792 0.000416 0.000000 0.000000 0.000000
# 3 0.000416 0.000416 0.007204 0.000000 0.000000 0.000000
# 4 0.000000 0.000000 0.000000 0.036112 0.000000 0.000000
# 5 0.000000 0.000000 0.000000 0.000000 0.036103 0.000000
# 6 0.000000 0.000000 0.000000 0.000000 0.000000 0.064684
#
#
# Mechanical properties :
#
#
# Convention : Reuss Voigt Hill
#
# Bulk Modulus (GPa) = 41.61440 41.61466 41.61453
# Shear Modulus (GPa) = 26.81620 34.48375 30.64998
#
# Velocity S-wave (km/s) = 3.28862 3.72926 3.51585
# Velocity P-wave (km/s) = 5.58598 5.94360 5.76756
#
# Compressibility (1/GPa) = 0.02403014
#
# Stress axis : x y z
#
# Youngs Moduli (GPa) = 78.17472 78.17490 138.80426
#
# Poissons Ratio (x) = 0.40734 -0.05772
# Poissons Ratio (y) = 0.40734 -0.05771
# Poissons Ratio (z) = -0.03251 -0.03250
#
# Static dielectric constant tensor:
#      x y z
#    x 1.941310 0.000000 0.000000 
#    y 0.000000 1.941300 0.000000 
#    z 0.000000 0.000000 2.097200 
# 
# From -- ./inp_files/7428.got.cif
#   From: 2010.05.17/outbox.cif.g08.bks.cpg/sg138_4_cif.got.tgz:7428.got - 2010.05.20 13:08:53.
