data_PCOD9570543
_publ_section_title
;
Structure prediction by ZEFSAII (Michael W. Deem and Ramdas Pophale) SiO2 
 PCOD9570543
Probable space group: P 42/N M C
;
_chemical_formula_sum "Si O2"
_cell_formula_units_Z 96
_cell_length_a 15.000000
_cell_length_b 15.000000
_cell_length_c 21.000000
_cell_angle_alpha 90.000000
_cell_angle_beta 90.000000
_cell_angle_gamma 90.000000
_cell_volume 4725.000000
_symmetry_space_group_name_H-M "P 42/N M C"
_symmetry_group_IT_number 137
_space_group.IT_coordinate_system_code '2'
_symmetry_cell_setting 'tetragonal'
loop_
_space_group_symop_operation_xyz
x,y,z
1/2-y,x,1/2+z
1/2-x,1/2-y,z
y,1/2-x,1/2+z
1/2+x,-y,-z
-x,1/2+y,-z
1/2+y,1/2+x,1/2-z
-y,-x,1/2-z
-x,-y,-z
1/2+y,-x,1/2-z
1/2+x,1/2+y,-z
-y,1/2+x,1/2-z
1/2-x,y,z
x,1/2-y,z
1/2-y,1/2-x,1/2+z
y,x,1/2+z
loop_
_atom_site_type_symbol
_atom_site_label
_atom_site_fract_x
_atom_site_fract_y
_atom_site_fract_z
Si Si1 0.854417 0.614519 0.360081
Si Si2 0.859296 0.033357 0.570078
Si Si3 0.053002 0.644139 0.312934
Si Si4 0.910263 0.352234 0.182795
Si Si5 0.142271 0.349974 0.489473
Si Si6 0.358041 0.651822 0.549581
O O1 0.750000 0.647576 0.348949
O O2 0.849742 0.510828 0.342496
O O3 0.874049 0.629725 0.435373
O O4 0.943945 0.645176 0.321754
O O5 0.750000 0.037939 0.577484
O O6 0.906078 0.087335 0.627441
O O7 0.884619 0.081007 0.503365
O O8 0.886391 0.930061 0.557553
O O9 0.093219 0.593219 0.250000
O O10 0.079871 0.750000 0.312995
O O11 0.901276 0.401276 0.250000
O O12 0.880088 0.250000 0.194434
O O13 0.858925 0.391577 0.121744
O O14 0.250000 0.348556 0.484248
O O15 0.108678 0.250000 0.474868
O O16 0.250000 0.643676 0.554931
O O17 0.379112 0.750000 0.525060
#
# Coordination Sequence:
#
# PCOD9570543 Si02
#       6
#    16  16  16  16  16  16
#     4  10  21  41  66  92 126 169 216 266 319 384
#     4  10  20  38  63  93 129 169 215 270 326 388
#     4  12  27  45  67  96 130 172 220 271 328 393
#     4  10  18  30  51  83 125 170 216 268 324 385
#     4   9  17  34  63  96 129 168 216 270 328 386
#     4   9  16  28  49  80 121 168 211 254 314 385
#
# _framework density 20.317460000000001
#
# number of rings (size 3 to 8) (size 9 to 14) (size 15 to 20)
#    0.000    2.000    1.667    2.500    0.000    4.333 
#    0.000    0.833    0.000    3.000    0.000    0.000 
#    0.000    0.000    0.000    0.000    0.000    0.000 
#
# Total GULP energy -535442.289862 kJ/mol
# GULP energy per Si atom -5577.523853 kJ/mol
# Density = 2.027122 g / cm^3
# Si number density = 20.317460 Si / 1000 Ang^3
#
#
#
# Elastic Constant Matrix: (Units=GPa)
#
#
# Indices 1 2 3 4 5 6 
#
# 1 119.3001 25.8531 46.0371 0.0000 0.0000 0.0000
# 2 25.8531 119.3001 46.0371 0.0000 0.0000 0.0000
# 3 46.0371 46.0371 121.1247 0.0000 0.0000 0.0000
# 4 0.0000 0.0000 0.0000 29.8420 0.0000 0.0000
# 5 0.0000 0.0000 0.0000 0.0000 29.8420 0.0000
# 6 0.0000 0.0000 0.0000 0.0000 0.0000 21.0758
#
#
#
# Elastic Compliance Matrix: (Units=1/GPa)
#
#
# Indices 1 2 3 4 5 6 
#
# 1 0.009890 -0.000812 -0.003450 0.000000 0.000000 0.000000
# 2 -0.000812 0.009890 -0.003450 0.000000 0.000000 0.000000
# 3 -0.003450 -0.003450 0.010879 0.000000 0.000000 0.000000
# 4 0.000000 0.000000 0.000000 0.033510 0.000000 0.000000
# 5 0.000000 0.000000 0.000000 0.000000 0.033510 0.000000
# 6 0.000000 0.000000 0.000000 0.000000 0.000000 0.047448
#
#
# Mechanical properties :
#
#
# Convention : Reuss Voigt Hill
#
# Bulk Modulus (GPa) = 65.64588 66.17546 65.91067
# Shear Modulus (GPa) = 30.18817 32.27179 31.22998
#
# Velocity S-wave (km/s) = 3.85882 3.98977 3.92484
# Velocity P-wave (km/s) = 7.22732 7.33933 7.28354
#
# Compressibility (1/GPa) = 0.01523325
#
# Stress axis : x y z
#
# Youngs Moduli (GPa) = 101.11655 101.11655 91.92226
#
# Poissons Ratio (x) = 0.08207 0.31716
# Poissons Ratio (y) = 0.08207 0.31716
# Poissons Ratio (z) = 0.34889 0.34889
#
# Static dielectric constant tensor:
#      x y z
#    x 1.767900 0.000000 0.000000 
#    y 0.000000 1.767900 0.000000 
#    z 0.000000 0.000000 1.687030 
# 
# From -- ./inp_files/7840.got.cif
#   From: 2010.05.17/outbox.ucp.g08.bks.cvg/sg137_4_cif.got.tgz:7840.got - 2010.06.11 11:41:14.
