data_PCOD9570830
_publ_section_title
;
Structure prediction by ZEFSAII (Michael W. Deem and Ramdas Pophale) SiO2 
 PCOD9570830
Probable space group: P 42/N C M
;
_chemical_formula_sum "Si O2"
_cell_formula_units_Z 80
_cell_length_a 13.584850
_cell_length_b 13.584850
_cell_length_c 23.349434
_cell_angle_alpha 90.000000
_cell_angle_beta 90.000000
_cell_angle_gamma 90.000000
_cell_volume 4309.094837
_symmetry_space_group_name_H-M "P 42/N C M"
_symmetry_group_IT_number 138
_space_group.IT_coordinate_system_code '2'
_symmetry_cell_setting 'tetragonal'
loop_
_space_group_symop_operation_xyz
x,y,z
1/2-y,x,1/2+z
1/2-x,1/2-y,z
y,1/2-x,1/2+z
1/2+x,-y,1/2-z
-x,1/2+y,1/2-z
1/2+y,1/2+x,-z
-y,-x,-z
-x,-y,-z
1/2+y,-x,1/2-z
1/2+x,1/2+y,-z
-y,1/2+x,1/2-z
1/2-x,y,1/2+z
x,1/2-y,1/2+z
1/2-y,1/2-x,z
y,x,z
loop_
_atom_site_type_symbol
_atom_site_label
_atom_site_fract_x
_atom_site_fract_y
_atom_site_fract_z
Si Si1 0.086539 0.246172 0.080102
Si Si2 0.592457 0.434634 0.201254
Si Si3 0.218204 0.543916 0.192568
Si Si4 0.143806 0.731686 0.123462
Si Si5 0.997790 0.156333 0.473656
O O1 0.172104 0.327897 0.076938
O O2 0.140792 0.140792 0.082910
O O3 0.024385 0.271712 0.136717
O O4 0.022588 0.263970 0.022849
O O5 0.508476 0.508476 0.179983
O O6 0.646223 0.482886 0.255786
O O7 0.548929 0.328158 0.217970
O O8 0.673348 0.400927 0.154896
O O9 0.176557 0.648509 0.169327
O O10 0.250000 0.750000 0.093214
O O11 0.060339 0.696548 0.080463
O O12 0.924440 0.075561 0.500000
O O13 0.097902 0.097902 0.458062
#
# Coordination Sequence:
#
# PCOD9570830 Si02
#       5
#    16  16  16  16  16
#     4  10  21  37  59  88 122 160 202 251 305 363
#     4  11  23  38  60  89 121 159 200 253 310 357
#     4  11  20  39  61  86 120 158 205 252 296 368
#     4  10  22  38  61  86 121 155 201 248 301 359
#     4  10  20  37  60  87 115 156 206 245 294 362
#
# _framework density 18.565384000000002
#
# number of rings (size 3 to 8) (size 9 to 14) (size 15 to 20)
#    0.000    1.600    4.000    1.200    0.000    2.000 
#    0.000    0.000    0.000    6.000    0.000    0.000 
#    0.000    0.000    0.000    0.000    0.000    0.000 
#
# Total GULP energy -445887.012921 kJ/mol
# GULP energy per Si atom -5573.587662 kJ/mol
# Density = 1.852313 g / cm^3
# Si number density = 18.565384 Si / 1000 Ang^3
#
#
#
# Elastic Constant Matrix: (Units=GPa)
#
#
# Indices 1 2 3 4 5 6 
#
# 1 91.7456 51.9436 40.8587 0.0000 0.0000 0.0000
# 2 51.9436 91.7459 40.8578 0.0000 0.0000 0.0000
# 3 40.8587 40.8578 58.3941 0.0000 0.0000 0.0000
# 4 0.0000 0.0000 0.0000 31.0301 0.0000 0.0000
# 5 0.0000 0.0000 0.0000 0.0000 31.0301 0.0000
# 6 0.0000 0.0000 0.0000 0.0000 0.0000 41.4765
#
#
#
# Elastic Compliance Matrix: (Units=1/GPa)
#
#
# Indices 1 2 3 4 5 6 
#
# 1 0.018342 -0.006783 -0.008088 0.000000 0.000000 0.000000
# 2 -0.006783 0.018341 -0.008087 0.000000 0.000000 0.000000
# 3 -0.008088 -0.008087 0.028443 0.000000 0.000000 0.000000
# 4 0.000000 0.000000 0.000000 0.032227 0.000000 0.000000
# 5 0.000000 0.000000 0.000000 0.000000 0.032227 0.000000
# 6 0.000000 0.000000 0.000000 0.000000 0.000000 0.024110
#
#
# Mechanical properties :
#
#
# Convention : Reuss Voigt Hill
#
# Bulk Modulus (GPa) = 52.05666 56.57842 54.31754
# Shear Modulus (GPa) = 24.27068 27.92237 26.09653
#
# Velocity S-wave (km/s) = 3.61959 3.88235 3.75327
# Velocity P-wave (km/s) = 6.75049 7.11606 6.93568
#
# Compressibility (1/GPa) = 0.01920984
#
# Stress axis : x y z
#
# Youngs Moduli (GPa) = 54.52000 54.52140 35.15790
#
# Poissons Ratio (x) = 0.36980 0.28436
# Poissons Ratio (y) = 0.36979 0.28434
# Poissons Ratio (z) = 0.44097 0.44094
#
# Static dielectric constant tensor:
#      x y z
#    x 1.662160 0.000000 0.000000 
#    y 0.000000 1.662160 0.000000 
#    z 0.000000 0.000000 1.638670 
# 
# From -- ./inp_files/5988.got.cif
#   From: 2010.05.17/outbox.cif.g08.bks.cpg/sg138_3_cif.got.tgz:5988.got - 2010.05.20 13:08:53.
