data_PCOD9570357
_publ_section_title
;
Structure prediction by ZEFSAII (Michael W. Deem and Ramdas Pophale) SiO2 
 PCOD9570357
Probable space group: P 42/N M C
;
_chemical_formula_sum "Si O2"
_cell_formula_units_Z 96
_cell_length_a 19.852836
_cell_length_b 19.852836
_cell_length_c 11.304656
_cell_angle_alpha 90.000000
_cell_angle_beta 90.000000
_cell_angle_gamma 90.000000
_cell_volume 4455.561692
_symmetry_space_group_name_H-M "P 42/N M C"
_symmetry_group_IT_number 137
_space_group.IT_coordinate_system_code '2'
_symmetry_cell_setting 'tetragonal'
loop_
_space_group_symop_operation_xyz
x,y,z
1/2-y,x,1/2+z
1/2-x,1/2-y,z
y,1/2-x,1/2+z
1/2+x,-y,-z
-x,1/2+y,-z
1/2+y,1/2+x,1/2-z
-y,-x,1/2-z
-x,-y,-z
1/2+y,-x,1/2-z
1/2+x,1/2+y,-z
-y,1/2+x,1/2-z
1/2-x,y,z
x,1/2-y,z
1/2-y,1/2-x,1/2+z
y,x,1/2+z
loop_
_atom_site_type_symbol
_atom_site_label
_atom_site_fract_x
_atom_site_fract_y
_atom_site_fract_z
Si Si1 0.675114 0.946126 0.833946
Si Si2 0.671953 0.671440 0.664619
Si Si3 0.545334 0.323622 0.310313
Si Si4 0.326763 0.621264 0.571385
Si Si5 0.944555 0.910617 0.550569
Si Si6 0.618151 0.040608 0.646380
O O1 0.750000 0.953334 0.886267
O O2 0.665416 0.870158 0.786938
O O3 0.669518 0.992568 0.717817
O O4 0.615819 0.966414 0.922659
O O5 0.750000 0.665463 0.627992
O O6 0.655952 0.750000 0.676805
O O7 0.622376 0.633545 0.576009
O O8 0.514559 0.250000 0.332153
O O9 0.615688 0.328646 0.382010
O O10 0.563063 0.329209 0.172244
O O11 0.498732 0.383445 0.355509
O O12 0.250000 0.647441 0.570946
O O13 0.346969 0.590756 0.445499
O O14 0.928081 0.988220 0.572234
O O15 0.579317 0.079317 0.750000
#
# Coordination Sequence:
#
# PCOD9570357 Si02
#       6
#    16  16  16  16  16  16
#     4  10  21  37  56  82 116 157 202 254 310 367
#     4   9  19  35  54  82 119 161 210 257 306 366
#     4  10  22  40  67  98 125 159 207 266 327 390
#     4  10  23  43  67  94 126 163 208 264 327 392
#     4  11  23  37  60  87 125 167 212 261 316 381
#     4  11  25  39  61  89 124 169 207 259 311 387
#
# _framework density 21.546104
#
# number of rings (size 3 to 8) (size 9 to 14) (size 15 to 20)
#    0.000    1.833    0.000    3.000    7.000    3.000 
#    0.000    4.167    0.000    0.000    0.000    0.000 
#    0.000    0.000    0.000    0.000    0.000    0.000 
#
# Total GULP energy -536268.896442 kJ/mol
# GULP energy per Si atom -5586.134338 kJ/mol
# Density = 2.149706 g / cm^3
# Si number density = 21.546104 Si / 1000 Ang^3
#
#
#
# Elastic Constant Matrix: (Units=GPa)
#
#
# Indices 1 2 3 4 5 6 
#
# 1 62.9815 16.1069 15.5564 0.0000 0.0000 0.0000
# 2 16.1069 62.9815 15.5564 0.0000 0.0000 0.0000
# 3 15.5564 15.5564 99.3009 0.0000 0.0000 0.0000
# 4 0.0000 0.0000 0.0000 20.1720 0.0000 0.0000
# 5 0.0000 0.0000 0.0000 0.0000 20.1720 0.0000
# 6 0.0000 0.0000 0.0000 0.0000 0.0000 27.6688
#
#
#
# Elastic Compliance Matrix: (Units=1/GPa)
#
#
# Indices 1 2 3 4 5 6 
#
# 1 0.017404 -0.003930 -0.002111 0.000000 0.000000 0.000000
# 2 -0.003930 0.017404 -0.002111 0.000000 0.000000 0.000000
# 3 -0.002111 -0.002111 0.010732 0.000000 0.000000 0.000000
# 4 0.000000 0.000000 0.000000 0.049574 0.000000 0.000000
# 5 0.000000 0.000000 0.000000 0.000000 0.049574 0.000000
# 6 0.000000 0.000000 0.000000 0.000000 0.000000 0.036142
#
#
# Mechanical properties :
#
#
# Convention : Reuss Voigt Hill
#
# Bulk Modulus (GPa) = 34.20305 35.52259 34.86282
# Shear Modulus (GPa) = 24.16892 25.47217 24.82055
#
# Velocity S-wave (km/s) = 3.35286 3.44207 3.39776
# Velocity P-wave (km/s) = 5.55857 5.68504 5.62216
#
# Compressibility (1/GPa) = 0.02923716
#
# Stress axis : x y z
#
# Youngs Moduli (GPa) = 57.45801 57.45801 93.18106
#
# Poissons Ratio (x) = 0.22578 0.19670
# Poissons Ratio (y) = 0.22578 0.19670
# Poissons Ratio (z) = 0.12129 0.12129
#
# Static dielectric constant tensor:
#      x y z
#    x 1.784930 0.000000 0.000000 
#    y 0.000000 1.784930 0.000000 
#    z 0.000000 0.000000 1.795510 
# 
# From -- ./inp_files/3774.got.cif
#   From: 2010.05.17/outbox.cif.g08.bks.cpg/sg137_2_cif.got.tgz:3774.got - 2010.05.20 13:01:12.
