data_PCOD9570236
_publ_section_title
;
Structure prediction by ZEFSAII (Michael W. Deem and Ramdas Pophale) SiO2 
 PCOD9570236
Probable space group: P 42/N M C
;
_chemical_formula_sum "Si O2"
_cell_formula_units_Z 64
_cell_length_a 15.280961
_cell_length_b 15.280961
_cell_length_c 15.034738
_cell_angle_alpha 90.000000
_cell_angle_beta 90.000000
_cell_angle_gamma 90.000000
_cell_volume 3510.728129
_symmetry_space_group_name_H-M "P 42/N M C"
_symmetry_group_IT_number 137
_space_group.IT_coordinate_system_code '2'
_symmetry_cell_setting 'tetragonal'
loop_
_space_group_symop_operation_xyz
x,y,z
1/2-y,x,1/2+z
1/2-x,1/2-y,z
y,1/2-x,1/2+z
1/2+x,-y,-z
-x,1/2+y,-z
1/2+y,1/2+x,1/2-z
-y,-x,1/2-z
-x,-y,-z
1/2+y,-x,1/2-z
1/2+x,1/2+y,-z
-y,1/2+x,1/2-z
1/2-x,y,z
x,1/2-y,z
1/2-y,1/2-x,1/2+z
y,x,1/2+z
loop_
_atom_site_type_symbol
_atom_site_label
_atom_site_fract_x
_atom_site_fract_y
_atom_site_fract_z
Si Si1 0.387677 0.848192 0.853830
Si Si2 0.148975 0.411287 0.588896
Si Si3 0.532447 0.851760 0.569641
Si Si4 0.644081 0.655188 0.224947
O O1 0.366388 0.866388 0.750000
O O2 0.355231 0.750000 0.875203
O O3 0.491398 0.847327 0.871125
O O4 0.355197 0.928699 0.914075
O O5 0.250000 0.387562 0.562500
O O6 0.079252 0.402792 0.510168
O O7 0.118342 0.353981 0.672728
O O8 0.557028 0.750000 0.556633
O O9 0.577757 0.885030 0.660709
O O10 0.750000 0.651140 0.226967
O O11 0.617825 0.750000 0.188784
#
# Coordination Sequence:
#
# PCOD9570236 Si02
#       4
#    16  16  16  16
#     4  11  22  38  57  79 111 152 197 241 281 329
#     4  10  20  35  55  81 114 149 187 235 290 346
#     4  11  21  34  54  82 113 149 189 233 290 343
#     4   9  17  30  49  76 111 147 182 222 275 343
#
# _framework density 18.229838000000001
#
# number of rings (size 3 to 8) (size 9 to 14) (size 15 to 20)
#    0.000    1.750    2.500    3.000    0.000    4.250 
#    0.000    0.000    0.000    0.000    0.000    0.000 
#    0.000    0.000    0.000    0.000    0.000    0.000 
#
# Total GULP energy -356699.375086 kJ/mol
# GULP energy per Si atom -5573.427736 kJ/mol
# Density = 1.818835 g / cm^3
# Si number density = 18.229838 Si / 1000 Ang^3
#
#
#
# Elastic Constant Matrix: (Units=GPa)
#
#
# Indices 1 2 3 4 5 6 
#
# 1 92.3773 12.3840 40.6398 0.0000 0.0000 0.0000
# 2 12.3840 92.3773 40.6398 0.0000 0.0000 0.0000
# 3 40.6398 40.6398 101.1355 0.0000 0.0000 0.0000
# 4 0.0000 0.0000 0.0000 23.1603 0.0000 0.0000
# 5 0.0000 0.0000 0.0000 0.0000 23.1603 0.0000
# 6 0.0000 0.0000 0.0000 0.0000 0.0000 13.7914
#
#
#
# Elastic Compliance Matrix: (Units=1/GPa)
#
#
# Indices 1 2 3 4 5 6 
#
# 1 0.013185 0.000684 -0.005573 0.000000 0.000000 0.000000
# 2 0.000684 0.013185 -0.005573 0.000000 0.000000 0.000000
# 3 -0.005573 -0.005573 0.014367 0.000000 0.000000 0.000000
# 4 0.000000 0.000000 0.000000 0.043177 0.000000 0.000000
# 5 0.000000 0.000000 0.000000 0.000000 0.043177 0.000000
# 6 0.000000 0.000000 0.000000 0.000000 0.000000 0.072509
#
#
# Mechanical properties :
#
#
# Convention : Reuss Voigt Hill
#
# Bulk Modulus (GPa) = 50.47237 52.57971 51.52604
# Shear Modulus (GPa) = 22.01381 24.83749 23.42565
#
# Velocity S-wave (km/s) = 3.47878 3.69516 3.58860
# Velocity P-wave (km/s) = 6.62440 6.86374 6.74513
#
# Compressibility (1/GPa) = 0.01981282
#
# Stress axis : x y z
#
# Youngs Moduli (GPa) = 75.84197 75.84197 69.60485
#
# Poissons Ratio (x) = -0.05190 0.38793
# Poissons Ratio (y) = -0.05190 0.38793
# Poissons Ratio (z) = 0.42269 0.42269
#
# Static dielectric constant tensor:
#      x y z
#    x 1.664680 0.000000 0.000000 
#    y 0.000000 1.664680 0.000000 
#    z 0.000000 0.000000 1.628400 
# 
# From -- ./inp_files/4705.got.cif
#   From: 2010.05.17/outbox.cif.g08.bks.cpg/sg137_3_cif.got.tgz:4705.got - 2010.05.20 13:01:12.
