data_PCOD9570217
_publ_section_title
;
Structure prediction by ZEFSAII (Michael W. Deem and Ramdas Pophale) SiO2 
 PCOD9570217
Probable space group: P 42/N M C
;
_chemical_formula_sum "Si O2"
_cell_formula_units_Z 48
_cell_length_a 17.272504
_cell_length_b 17.272504
_cell_length_c 7.074682
_cell_angle_alpha 90.000000
_cell_angle_beta 90.000000
_cell_angle_gamma 90.000000
_cell_volume 2110.656344
_symmetry_space_group_name_H-M "P 42/N M C"
_symmetry_group_IT_number 137
_space_group.IT_coordinate_system_code '2'
_symmetry_cell_setting 'tetragonal'
loop_
_space_group_symop_operation_xyz
x,y,z
1/2-y,x,1/2+z
1/2-x,1/2-y,z
y,1/2-x,1/2+z
1/2+x,-y,-z
-x,1/2+y,-z
1/2+y,1/2+x,1/2-z
-y,-x,1/2-z
-x,-y,-z
1/2+y,-x,1/2-z
1/2+x,1/2+y,-z
-y,1/2+x,1/2-z
1/2-x,y,z
x,1/2-y,z
1/2-y,1/2-x,1/2+z
y,x,1/2+z
loop_
_atom_site_type_symbol
_atom_site_label
_atom_site_fract_x
_atom_site_fract_y
_atom_site_fract_z
Si Si1 0.492392 0.332231 0.577279
Si Si2 0.338160 0.874506 0.526548
Si Si3 0.393955 0.019601 0.681918
O O1 0.471055 0.250000 0.660459
O O2 0.586232 0.342000 0.581361
O O3 0.474792 0.334879 0.352797
O O4 0.438538 0.401958 0.643575
O O5 0.348283 0.848283 0.750000
O O6 0.250000 0.854806 0.471379
O O7 0.352489 0.967783 0.522503
O O8 0.463009 0.963009 0.750000
#
# Coordination Sequence:
#
# PCOD9570217 Si02
#       3
#    16  16  16
#     4  10  20  34  55  79 104 138 177 219 262 305
#     4   9  16  28  50  78 105 132 164 207 258 315
#     4   9  17  34  54  76 103 139 178 208 249 318
#
# _framework density 22.741741999999999
#
# number of rings (size 3 to 8) (size 9 to 14) (size 15 to 20)
#    0.000    3.333    0.000    8.000    0.000    2.333 
#    0.000    8.333    0.000    8.000    0.000    0.000 
#    0.000    0.000    0.000    0.000    0.000    0.000 
#
# Total GULP energy -267653.851016 kJ/mol
# GULP energy per Si atom -5576.121896 kJ/mol
# Density = 2.268998 g / cm^3
# Si number density = 22.741742 Si / 1000 Ang^3
#
#
#
# Elastic Constant Matrix: (Units=GPa)
#
#
# Indices 1 2 3 4 5 6 
#
# 1 155.2184 63.3674 15.2082 0.0000 0.0000 0.0000
# 2 63.3674 155.2184 15.2082 0.0000 0.0000 0.0000
# 3 15.2082 15.2082 27.7259 0.0000 0.0000 0.0000
# 4 0.0000 0.0000 0.0000 18.8930 0.0000 0.0000
# 5 0.0000 0.0000 0.0000 0.0000 18.8930 0.0000
# 6 0.0000 0.0000 0.0000 0.0000 0.0000 12.0740
#
#
#
# Elastic Compliance Matrix: (Units=1/GPa)
#
#
# Indices 1 2 3 4 5 6 
#
# 1 0.007920 -0.002967 -0.002717 0.000000 0.000000 0.000000
# 2 -0.002967 0.007920 -0.002717 0.000000 0.000000 0.000000
# 3 -0.002717 -0.002717 0.039048 0.000000 0.000000 0.000000
# 4 0.000000 0.000000 0.000000 0.052930 0.000000 0.000000
# 5 0.000000 0.000000 0.000000 0.000000 0.052930 0.000000
# 6 0.000000 0.000000 0.000000 0.000000 0.000000 0.082823
#
#
# Mechanical properties :
#
#
# Convention : Reuss Voigt Hill
#
# Bulk Modulus (GPa) = 26.25603 58.41447 42.33525
# Shear Modulus (GPa) = 18.31055 26.26392 22.28724
#
# Velocity S-wave (km/s) = 2.84060 3.40204 3.13391
# Velocity P-wave (km/s) = 4.72536 6.41666 5.63483
#
# Compressibility (1/GPa) = 0.03808649
#
# Stress axis : x y z
#
# Youngs Moduli (GPa) = 126.26180 126.26180 25.60967
#
# Poissons Ratio (x) = 0.37464 0.06958
# Poissons Ratio (y) = 0.37464 0.06958
# Poissons Ratio (z) = 0.34302 0.34302
#
# Static dielectric constant tensor:
#      x y z
#    x 1.848840 0.000000 0.000000 
#    y 0.000000 1.848840 0.000000 
#    z 0.000000 0.000000 2.054840 
# 
# From -- ./inp_files/1274.got.cif
#   From: 2010.05.17/outbox.cif.g08.bks.cpg/sg137_1_cif.got.tgz:1274.got - 2010.05.20 13:01:12.
