data_PCOD9570847
_publ_section_title
;
Structure prediction by ZEFSAII (Michael W. Deem and Ramdas Pophale) SiO2 
 PCOD9570847
Probable space group: P 42/N C M
;
_chemical_formula_sum "Si O2"
_cell_formula_units_Z 64
_cell_length_a 12.388676
_cell_length_b 12.388676
_cell_length_c 19.771670
_cell_angle_alpha 90.000000
_cell_angle_beta 90.000000
_cell_angle_gamma 90.000000
_cell_volume 3034.541934
_symmetry_space_group_name_H-M "P 42/N C M"
_symmetry_group_IT_number 138
_space_group.IT_coordinate_system_code '2'
_symmetry_cell_setting 'tetragonal'
loop_
_space_group_symop_operation_xyz
x,y,z
1/2-y,x,1/2+z
1/2-x,1/2-y,z
y,1/2-x,1/2+z
1/2+x,-y,1/2-z
-x,1/2+y,1/2-z
1/2+y,1/2+x,-z
-y,-x,-z
-x,-y,-z
1/2+y,-x,1/2-z
1/2+x,1/2+y,-z
-y,1/2+x,1/2-z
1/2-x,y,1/2+z
x,1/2-y,1/2+z
1/2-y,1/2-x,z
y,x,z
loop_
_atom_site_type_symbol
_atom_site_label
_atom_site_fract_x
_atom_site_fract_y
_atom_site_fract_z
Si Si1 0.088556 0.828036 0.754078
Si Si2 0.096858 0.934480 0.392148
Si Si3 0.195116 0.024073 0.953641
Si Si4 0.437995 0.814468 0.403753
O O1 0.204261 0.885358 0.764723
O O2 0.043588 0.880206 0.686754
O O3 0.028044 0.831440 0.825782
O O4 0.113668 0.806394 0.404258
O O5 0.182574 0.005783 0.432416
O O6 0.977189 0.977189 0.408321
O O7 0.127714 0.127714 0.928826
O O8 0.137195 0.915533 0.924461
O O9 0.188727 0.021401 0.034896
#
# Coordination Sequence:
#
# PCOD9570847 Si02
#       4
#    16  16  16  16
#     4   9  17  35  60  88 117 147 195 252 297 342
#     4  11  23  38  60  91 125 160 195 245 306 363
#     4  11  23  39  62  89 120 160 203 250 301 353
#     4  10  20  39  63  88 115 152 210 257 291 342
#
# _framework density 21.090496000000002
#
# number of rings (size 3 to 8) (size 9 to 14) (size 15 to 20)
#    0.000    1.750    2.500    3.000    0.000    6.500 
#    0.000    0.000    0.000    2.250    0.000    3.500 
#    0.000    0.000    0.000    0.000    0.000    0.000 
#
# Total GULP energy -356718.300277 kJ/mol
# GULP energy per Si atom -5573.723442 kJ/mol
# Density = 2.104249 g / cm^3
# Si number density = 21.090496 Si / 1000 Ang^3
#
#
#
# Elastic Constant Matrix: (Units=GPa)
#
#
# Indices 1 2 3 4 5 6 
#
# 1 37.9494 32.2917 24.6375 0.0000 0.0000 0.0000
# 2 32.2917 37.9494 24.6375 0.0000 0.0000 0.0000
# 3 24.6375 24.6375 120.3134 0.0000 0.0000 0.0000
# 4 0.0000 0.0000 0.0000 -23.1991 0.0000 0.0000
# 5 0.0000 0.0000 0.0000 0.0000 -23.1991 0.0000
# 6 0.0000 0.0000 0.0000 0.0000 0.0000 24.8629
#
#
#
# Elastic Compliance Matrix: (Units=1/GPa)
#
#
# Indices 1 2 3 4 5 6 
#
# 1 0.096687 -0.080062 -0.003404 0.000000 0.000000 0.000000
# 2 -0.080062 0.096687 -0.003404 0.000000 0.000000 0.000000
# 3 -0.003404 -0.003404 0.009706 0.000000 0.000000 0.000000
# 4 0.000000 0.000000 0.000000 -0.043105 0.000000 0.000000
# 5 0.000000 0.000000 0.000000 0.000000 -0.043105 0.000000
# 6 0.000000 0.000000 0.000000 0.000000 0.000000 0.040221
#
#
# Mechanical properties :
#
#
# Convention : Reuss Voigt Hill
#
# Bulk Modulus (GPa) = 34.08537 39.92729 37.00633
# Shear Modulus (GPa) = 14.67955 3.33598 9.00777
#
# Velocity S-wave (km/s) = 2.64109 1.25904 2.06888
# Velocity P-wave (km/s) = 5.04946 4.59196 4.82613
#
# Compressibility (1/GPa) = 0.02933810
#
# Stress axis : x y z
#
# Youngs Moduli (GPa) = 10.34269 10.34269 103.02981
#
# Poissons Ratio (x) = 0.82805 0.35076
# Poissons Ratio (y) = 0.82805 0.35076
# Poissons Ratio (z) = 0.03521 0.03521
#
# Static dielectric constant tensor:
#      x y z
#    x 1.768460 0.000000 0.000000 
#    y 0.000000 1.768460 0.000000 
#    z 0.000000 0.000000 1.789740 
# 
# From -- ./inp_files/5834.got.cif
#   From: 2010.05.17/outbox.cif.g08.bks.cpg/sg138_3_cif.got.tgz:5834.got - 2010.05.20 13:08:53.
