data_PCOD9570872
_publ_section_title
;
Structure prediction by ZEFSAII (Michael W. Deem and Ramdas Pophale) SiO2 
 PCOD9570872
Probable space group: P 42/N C M
;
_chemical_formula_sum "Si O2"
_cell_formula_units_Z 80
_cell_length_a 16.974443
_cell_length_b 16.974443
_cell_length_c 15.170727
_cell_angle_alpha 90.000000
_cell_angle_beta 90.000000
_cell_angle_gamma 90.000000
_cell_volume 4371.167591
_symmetry_space_group_name_H-M "P 42/N C M"
_symmetry_group_IT_number 138
_space_group.IT_coordinate_system_code '2'
_symmetry_cell_setting 'tetragonal'
loop_
_space_group_symop_operation_xyz
x,y,z
1/2-y,x,1/2+z
1/2-x,1/2-y,z
y,1/2-x,1/2+z
1/2+x,-y,1/2-z
-x,1/2+y,1/2-z
1/2+y,1/2+x,-z
-y,-x,-z
-x,-y,-z
1/2+y,-x,1/2-z
1/2+x,1/2+y,-z
-y,1/2+x,1/2-z
1/2-x,y,1/2+z
x,1/2-y,1/2+z
1/2-y,1/2-x,z
y,x,z
loop_
_atom_site_type_symbol
_atom_site_label
_atom_site_fract_x
_atom_site_fract_y
_atom_site_fract_z
Si Si1 0.046950 0.586030 0.211563
Si Si2 0.746427 0.622157 0.985337
Si Si3 0.461551 0.327241 0.664260
Si Si4 0.478338 0.247850 0.847547
Si Si5 0.411852 0.542791 0.901539
O O1 0.125246 0.543550 0.173425
O O2 0.058142 0.593430 0.317732
O O3 0.974480 0.525521 0.197650
O O4 0.025972 0.667667 0.165826
O O5 0.808085 0.691916 0.967382
O O6 0.659646 0.659646 0.973324
O O7 0.771022 0.552517 0.919123
O O8 0.759685 0.592716 0.084108
O O9 0.395836 0.395836 0.662445
O O10 0.450058 0.276500 0.752052
O O11 0.528991 0.319900 0.886247
O O12 0.460112 0.460112 0.892199
O O13 0.427481 0.572520 0.000000
#
# Coordination Sequence:
#
# PCOD9570872 Si02
#       5
#    16  16  16  16  16
#     4   9  19  35  56  84 113 153 196 236 293 353
#     4  10  21  34  52  83 117 152 190 233 298 364
#     4   9  20  38  54  77 118 155 192 240 292 356
#     4  11  20  33  57  85 112 146 192 245 295 344
#     4   9  19  36  58  84 114 149 200 255 296 349
#
# _framework density 18.301746000000001
#
# number of rings (size 3 to 8) (size 9 to 14) (size 15 to 20)
#    0.000    2.400    0.000    3.600    2.800    2.400 
#    0.000    5.000    0.000    9.600    0.000    0.000 
#    0.000    0.000    0.000    0.000    0.000    0.000 
#
# Total GULP energy -445991.918878 kJ/mol
# GULP energy per Si atom -5574.898986 kJ/mol
# Density = 1.826009 g / cm^3
# Si number density = 18.301746 Si / 1000 Ang^3
#
#
#
# Elastic Constant Matrix: (Units=GPa)
#
#
# Indices 1 2 3 4 5 6 
#
# 1 78.6559 24.0953 44.3209 0.0000 0.0000 0.0000
# 2 24.0953 78.6566 44.3210 0.0000 0.0000 0.0000
# 3 44.3209 44.3210 65.6522 0.0000 0.0000 0.0000
# 4 0.0000 0.0000 0.0000 22.7164 0.0000 0.0000
# 5 0.0000 0.0000 0.0000 0.0000 22.7156 0.0000
# 6 0.0000 0.0000 0.0000 0.0000 0.0000 13.7864
#
#
#
# Elastic Compliance Matrix: (Units=1/GPa)
#
#
# Indices 1 2 3 4 5 6 
#
# 1 0.020816 0.002488 -0.015732 0.000000 0.000000 0.000000
# 2 0.002488 0.020816 -0.015732 0.000000 0.000000 0.000000
# 3 -0.015732 -0.015732 0.036473 0.000000 0.000000 0.000000
# 4 0.000000 0.000000 0.000000 0.044021 0.000000 0.000000
# 5 0.000000 0.000000 0.000000 0.000000 0.044023 0.000000
# 6 0.000000 0.000000 0.000000 0.000000 0.000000 0.072535
#
#
# Mechanical properties :
#
#
# Convention : Reuss Voigt Hill
#
# Bulk Modulus (GPa) = 49.62244 49.82657 49.72450
# Shear Modulus (GPa) = 16.48232 19.19217 17.83725
#
# Velocity S-wave (km/s) = 3.00423 3.24180 3.12528
# Velocity P-wave (km/s) = 6.26149 6.42624 6.34440
#
# Compressibility (1/GPa) = 0.02015217
#
# Stress axis : x y z
#
# Youngs Moduli (GPa) = 48.03916 48.03986 27.41736
#
# Poissons Ratio (x) = -0.11953 0.43134
# Poissons Ratio (y) = -0.11952 0.43134
# Poissons Ratio (z) = 0.75578 0.75578
#
# Static dielectric constant tensor:
#      x y z
#    x 1.637590 0.000000 0.000000 
#    y 0.000000 1.637590 0.000000 
#    z 0.000000 0.000000 1.642720 
# 
# From -- ./inp_files/4068.got.cif
#   From: 2010.05.17/outbox.cif.g08.bks.cpg/sg138_3_cif.got.tgz:4068.got - 2010.05.20 13:08:53.
