data_PCOD9570019
_publ_section_title
;
Structure prediction by ZEFSAII (Michael W. Deem and Ramdas Pophale) SiO2 
 PCOD9570019
Probable space group: P 42/N M C
;
_chemical_formula_sum "Si O2"
_cell_formula_units_Z 96
_cell_length_a 15.490300
_cell_length_b 15.490300
_cell_length_c 18.477175
_cell_angle_alpha 90.000000
_cell_angle_beta 90.000000
_cell_angle_gamma 90.000000
_cell_volume 4433.586946
_symmetry_space_group_name_H-M "P 42/N M C"
_symmetry_group_IT_number 137
_space_group.IT_coordinate_system_code '2'
_symmetry_cell_setting 'tetragonal'
loop_
_space_group_symop_operation_xyz
x,y,z
1/2-y,x,1/2+z
1/2-x,1/2-y,z
y,1/2-x,1/2+z
1/2+x,-y,-z
-x,1/2+y,-z
1/2+y,1/2+x,1/2-z
-y,-x,1/2-z
-x,-y,-z
1/2+y,-x,1/2-z
1/2+x,1/2+y,-z
-y,1/2+x,1/2-z
1/2-x,y,z
x,1/2-y,z
1/2-y,1/2-x,1/2+z
y,x,1/2+z
loop_
_atom_site_type_symbol
_atom_site_label
_atom_site_fract_x
_atom_site_fract_y
_atom_site_fract_z
Si Si1 0.649296 0.489650 0.586560
Si Si2 0.344517 0.914979 0.575913
Si Si3 0.152384 0.342121 0.713700
Si Si4 0.157947 0.977901 0.729789
Si Si5 0.967806 0.848259 0.559446
Si Si6 0.847651 0.487325 0.891028
O O1 0.750000 0.491890 0.610854
O O2 0.651291 0.459464 0.502153
O O3 0.598371 0.579876 0.587261
O O4 0.586570 0.418537 0.624279
O O5 0.250000 0.869345 0.579702
O O6 0.343243 0.982051 0.642349
O O7 0.432918 0.861997 0.585814
O O8 0.250000 0.343929 0.680030
O O9 0.145802 0.250000 0.751716
O O10 0.150138 0.427291 0.761209
O O11 0.070441 0.348927 0.660972
O O12 0.080408 0.919593 0.750000
O O13 0.250000 0.939272 0.750966
O O14 0.940816 0.750000 0.573080
O O15 0.977494 0.861178 0.472420
O O16 0.750000 0.450416 0.888381
#
# Coordination Sequence:
#
# PCOD9570019 Si02
#       6
#    16  16  16  16  16  16
#     4  10  19  31  47  68 100 137 168 199 235 280
#     4   9  18  33  51  69  94 129 165 204 249 289
#     4   9  17  31  54  81 102 120 148 194 252 302
#     4  10  20  33  50  72  97 125 161 205 246 284
#     4  10  19  29  44  68  98 132 166 196 232 285
#     4   9  17  30  50  75  98 120 154 200 245 289
#
# _framework density 21.652895999999998
#
# number of rings (size 3 to 8) (size 9 to 14) (size 15 to 20)
#    0.000    2.500    0.000    4.000    0.000    3.833 
#    0.000    6.667    0.000    4.000    0.000    4.667 
#    0.000    0.000    0.000    0.000    0.000    0.000 
#
# Total GULP energy -535129.776214 kJ/mol
# GULP energy per Si atom -5574.268502 kJ/mol
# Density = 2.160361 g / cm^3
# Si number density = 21.652896 Si / 1000 Ang^3
#
#
#
# Elastic Constant Matrix: (Units=GPa)
#
#
# Indices 1 2 3 4 5 6 
#
# 1 160.2466 105.2630 -2.6009 0.0000 0.0000 0.0000
# 2 105.2630 160.2417 -2.6023 0.0000 0.0000 0.0000
# 3 -2.6009 -2.6023 25.6219 0.0000 0.0000 0.0000
# 4 0.0000 0.0000 0.0000 14.7952 0.0000 0.0000
# 5 0.0000 0.0000 0.0000 0.0000 14.7958 0.0000
# 6 0.0000 0.0000 0.0000 0.0000 0.0000 1.3833
#
#
#
# Elastic Compliance Matrix: (Units=1/GPa)
#
#
# Indices 1 2 3 4 5 6 
#
# 1 0.010981 -0.007207 0.000383 0.000000 0.000000 0.000000
# 2 -0.007207 0.010981 0.000384 0.000000 0.000000 0.000000
# 3 0.000383 0.000384 0.039107 0.000000 0.000000 0.000000
# 4 0.000000 0.000000 0.000000 0.067589 0.000000 0.000000
# 5 0.000000 0.000000 0.000000 0.000000 0.067587 0.000000
# 6 0.000000 0.000000 0.000000 0.000000 0.000000 0.722927
#
#
# Mechanical properties :
#
#
# Convention : Reuss Voigt Hill
#
# Bulk Modulus (GPa) = 20.75229 60.69221 40.72225
# Shear Modulus (GPa) = 5.27362 22.59823 13.93593
#
# Velocity S-wave (km/s) = 1.56231 3.23408 2.53969
# Velocity P-wave (km/s) = 3.58599 6.48353 5.23906
#
# Compressibility (1/GPa) = 0.04818745
#
# Stress axis : x y z
#
# Youngs Moduli (GPa) = 91.06817 91.06523 25.57093
#
# Poissons Ratio (x) = 0.65631 -0.00979
# Poissons Ratio (y) = 0.65634 -0.00981
# Poissons Ratio (z) = -0.03485 -0.03494
#
# Static dielectric constant tensor:
#      x y z
#    x 1.813700 0.000000 0.000000 
#    y 0.000000 1.813700 0.000000 
#    z 0.000000 0.000000 1.829370 
# 
# From -- ./inp_files/7854.got.cif
#   From: 2010.05.17/outbox.cif.g08.bks.cpg/sg137_4_cif.got.tgz:7854.got - 2010.05.20 13:01:12.
