data_PCOD9570319
_publ_section_title
;
Structure prediction by ZEFSAII (Michael W. Deem and Ramdas Pophale) SiO2 
 PCOD9570319
Probable space group: P 42/N M C
;
_chemical_formula_sum "Si O2"
_cell_formula_units_Z 112
_cell_length_a 14.287402
_cell_length_b 14.287402
_cell_length_c 30.278563
_cell_angle_alpha 90.000000
_cell_angle_beta 90.000000
_cell_angle_gamma 90.000000
_cell_volume 6180.758702
_symmetry_space_group_name_H-M "P 42/N M C"
_symmetry_group_IT_number 137
_space_group.IT_coordinate_system_code '2'
_symmetry_cell_setting 'tetragonal'
loop_
_space_group_symop_operation_xyz
x,y,z
1/2-y,x,1/2+z
1/2-x,1/2-y,z
y,1/2-x,1/2+z
1/2+x,-y,-z
-x,1/2+y,-z
1/2+y,1/2+x,1/2-z
-y,-x,1/2-z
-x,-y,-z
1/2+y,-x,1/2-z
1/2+x,1/2+y,-z
-y,1/2+x,1/2-z
1/2-x,y,z
x,1/2-y,z
1/2-y,1/2-x,1/2+z
y,x,1/2+z
loop_
_atom_site_type_symbol
_atom_site_label
_atom_site_fract_x
_atom_site_fract_y
_atom_site_fract_z
Si Si1 0.143961 0.863898 0.299327
Si Si2 0.028555 0.138002 0.972524
Si Si3 0.013920 0.140287 0.299159
Si Si4 0.499327 0.861020 0.465301
Si Si5 0.858751 0.985192 0.299672
Si Si6 0.475246 0.360443 0.638894
Si Si7 0.360483 0.140709 0.383385
O O1 0.110337 0.889664 0.250000
O O2 0.250000 0.897926 0.306828
O O3 0.148325 0.750000 0.298825
O O4 0.071018 0.891632 0.336674
O O5 0.025933 0.250000 0.978579
O O6 0.073009 0.117633 0.924249
O O7 0.926470 0.090127 0.976199
O O8 0.096469 0.085659 0.007081
O O9 0.990267 0.250000 0.302234
O O10 0.054743 0.125243 0.249929
O O11 0.083630 0.118254 0.338977
O O12 0.922553 0.076899 0.303099
O O13 0.485983 0.750000 0.473749
O O14 0.518934 0.873881 0.413264
O O15 0.750000 0.007156 0.303981
O O16 0.892714 0.914856 0.337107
O O17 0.465271 0.250000 0.647144
O O18 0.250000 0.134205 0.374788
O O19 0.380543 0.250000 0.395328
#
# Coordination Sequence:
#
# PCOD9570319 Si02
#       7
#    16  16  16  16  16  16  16
#     4   8  15  29  49  76 110 145 179 213 250 301
#     4  10  21  38  60  85 110 141 183 230 280 332
#     4   9  19  35  54  76 103 136 178 232 286 330
#     4  10  22  39  58  82 114 148 184 227 275 331
#     4  10  21  35  51  72 103 143 186 230 271 318
#     4  10  21  35  53  80 113 151 183 211 259 326
#     4   9  17  32  57  86 111 135 169 219 280 339
#
# _framework density 18.120753000000001
#
# number of rings (size 3 to 8) (size 9 to 14) (size 15 to 20)
#    0.000    2.571    0.000    1.714    2.000    3.429 
#    0.000    6.429    0.000    0.000    0.000    4.000 
#    0.000    0.000    0.000    0.000    0.000    0.000 
#
# Total GULP energy -624920.417055 kJ/mol
# GULP energy per Si atom -5579.646581 kJ/mol
# Density = 1.807951 g / cm^3
# Si number density = 18.120753 Si / 1000 Ang^3
#
#
#
# Elastic Constant Matrix: (Units=GPa)
#
#
# Indices 1 2 3 4 5 6 
#
# 1 91.6983 46.4523 51.4230 0.0000 0.0000 0.0000
# 2 46.4523 91.6984 51.4231 0.0000 0.0000 0.0000
# 3 51.4230 51.4231 100.6977 0.0000 0.0000 0.0000
# 4 0.0000 0.0000 0.0000 20.9930 0.0000 0.0000
# 5 0.0000 0.0000 0.0000 0.0000 20.9929 0.0000
# 6 0.0000 0.0000 0.0000 0.0000 0.0000 21.1382
#
#
#
# Elastic Compliance Matrix: (Units=1/GPa)
#
#
# Indices 1 2 3 4 5 6 
#
# 1 0.016890 -0.005212 -0.005964 0.000000 0.000000 0.000000
# 2 -0.005212 0.016890 -0.005964 0.000000 0.000000 0.000000
# 3 -0.005964 -0.005964 0.016022 0.000000 0.000000 0.000000
# 4 0.000000 0.000000 0.000000 0.047635 0.000000 0.000000
# 5 0.000000 0.000000 0.000000 0.000000 0.047635 0.000000
# 6 0.000000 0.000000 0.000000 0.000000 0.000000 0.047308
#
#
# Mechanical properties :
#
#
# Convention : Reuss Voigt Hill
#
# Bulk Modulus (GPa) = 64.41944 64.74345 64.58144
# Shear Modulus (GPa) = 21.56743 21.61121 21.58932
#
# Velocity S-wave (km/s) = 3.45368 3.45718 3.45543
# Velocity P-wave (km/s) = 7.17852 7.19323 7.18588
#
# Compressibility (1/GPa) = 0.01552326
#
# Stress axis : x y z
#
# Youngs Moduli (GPa) = 59.20751 59.20759 62.41582
#
# Poissons Ratio (x) = 0.30857 0.37222
# Poissons Ratio (y) = 0.30857 0.37222
# Poissons Ratio (z) = 0.35309 0.35309
#
# Static dielectric constant tensor:
#      x y z
#    x 1.621600 0.000000 0.000000 
#    y 0.000000 1.621600 0.000000 
#    z 0.000000 0.000000 1.618900 
# 
# From -- ./inp_files/10698.got.cif
#   From: 2010.05.17/outbox.cif.g08.bks.cpg/sg137_6_cif.got.tgz:10698.got - 2010.05.20 13:01:12.
