data_PCOD9570998
_publ_section_title
;
Structure prediction by ZEFSAII (Michael W. Deem and Ramdas Pophale) SiO2 
 PCOD9570998
Probable space group: P 42/N C M
;
_chemical_formula_sum "Si O2"
_cell_formula_units_Z 56
_cell_length_a 14.144829
_cell_length_b 14.144829
_cell_length_c 12.202263
_cell_angle_alpha 90.000000
_cell_angle_beta 90.000000
_cell_angle_gamma 90.000000
_cell_volume 2441.382259
_symmetry_space_group_name_H-M "P 42/N C M"
_symmetry_group_IT_number 138
_space_group.IT_coordinate_system_code '2'
_symmetry_cell_setting 'tetragonal'
loop_
_space_group_symop_operation_xyz
x,y,z
1/2-y,x,1/2+z
1/2-x,1/2-y,z
y,1/2-x,1/2+z
1/2+x,-y,1/2-z
-x,1/2+y,1/2-z
1/2+y,1/2+x,-z
-y,-x,-z
-x,-y,-z
1/2+y,-x,1/2-z
1/2+x,1/2+y,-z
-y,1/2+x,1/2-z
1/2-x,y,1/2+z
x,1/2-y,1/2+z
1/2-y,1/2-x,z
y,x,z
loop_
_atom_site_type_symbol
_atom_site_label
_atom_site_fract_x
_atom_site_fract_y
_atom_site_fract_z
Si Si1 0.828861 0.058971 0.068498
Si Si2 0.051407 0.603512 0.239227
Si Si3 0.631904 0.131904 0.000000
Si Si4 0.599703 0.755221 0.700288
O O1 0.856165 0.104370 0.185689
O O2 0.798478 0.953228 0.095622
O O3 0.922406 0.077595 0.000000
O O4 0.742918 0.108709 0.005559
O O5 0.082496 0.597896 0.112219
O O6 0.988724 0.511277 0.264689
O O7 0.983049 0.694276 0.258514
O O8 0.659336 0.840665 0.755731
O O9 0.676392 0.676392 0.669360
#
# Coordination Sequence:
#
# PCOD9570998 Si02
#       4
#    16  16   8  16
#     4  11  24  41  66 104 138 184 227 294 348 421
#     4  10  22  42  71 104 141 183 237 295 358 429
#     4  10  24  42  68  96 141 188 235 288 353 430
#     4   9  20  42  69  97 135 182 230 283 348 425
#
# _framework density 22.937823999999999
#
# number of rings (size 3 to 8) (size 9 to 14) (size 15 to 20)
#    0.000    2.000    0.000    1.714    8.000    3.429 
#    0.000    1.429    0.000    3.429    0.000    1.000 
#    0.000    0.000    0.000    0.000    0.000    0.000 
#
# Total GULP energy -312208.047078 kJ/mol
# GULP energy per Si atom -5575.143698 kJ/mol
# Density = 2.288562 g / cm^3
# Si number density = 22.937824 Si / 1000 Ang^3
#
#
#
# Elastic Constant Matrix: (Units=GPa)
#
#
# Indices 1 2 3 4 5 6 
#
# 1 98.8052 72.0433 12.6892 0.0000 0.0000 0.0000
# 2 72.0433 98.8057 12.6874 0.0000 0.0000 0.0000
# 3 12.6892 12.6874 71.0759 0.0000 0.0000 0.0000
# 4 0.0000 0.0000 0.0000 12.8556 0.0000 0.0000
# 5 0.0000 0.0000 0.0000 0.0000 12.8553 0.0000
# 6 0.0000 0.0000 0.0000 0.0000 0.0000 60.8801
#
#
#
# Elastic Compliance Matrix: (Units=1/GPa)
#
#
# Indices 1 2 3 4 5 6 
#
# 1 0.021690 -0.015677 -0.001074 0.000000 0.000000 0.000000
# 2 -0.015677 0.021689 -0.001073 0.000000 0.000000 0.000000
# 3 -0.001074 -0.001073 0.014453 0.000000 0.000000 0.000000
# 4 0.000000 0.000000 0.000000 0.077787 0.000000 0.000000
# 5 0.000000 0.000000 0.000000 0.000000 0.077789 0.000000
# 6 0.000000 0.000000 0.000000 0.000000 0.000000 0.016426
#
#
# Mechanical properties :
#
#
# Convention : Reuss Voigt Hill
#
# Bulk Modulus (GPa) = 45.07666 51.50293 48.28980
# Shear Modulus (GPa) = 18.32344 28.73601 23.52972
#
# Velocity S-wave (km/s) = 2.82943 3.54330 3.20629
# Velocity P-wave (km/s) = 5.51077 6.26434 5.89960
#
# Compressibility (1/GPa) = 0.02218443
#
# Stress axis : x y z
#
# Youngs Moduli (GPa) = 46.10523 46.10579 69.19126
#
# Poissons Ratio (x) = 0.72279 0.07430
# Poissons Ratio (y) = 0.72278 0.07423
# Poissons Ratio (z) = 0.04951 0.04946
#
# Static dielectric constant tensor:
#      x y z
#    x 1.893880 0.000000 0.000000 
#    y 0.000000 1.893880 0.000000 
#    z 0.000000 0.000000 1.886880 
# 
# From -- ./inp_files/2514.got.cif
#   From: 2010.05.17/outbox.cif.g08.bks.cpg/sg138_2_cif.got.tgz:2514.got - 2010.05.20 13:08:53.
