data_PCOD9570622
_publ_section_title
;
Structure prediction by ZEFSAII (Michael W. Deem and Ramdas Pophale) SiO2 
 PCOD9570622
Probable space group: P 42/N C M
;
_chemical_formula_sum "Si O2"
_cell_formula_units_Z 72
_cell_length_a 15.305431
_cell_length_b 15.305431
_cell_length_c 17.160214
_cell_angle_alpha 90.000000
_cell_angle_beta 90.000000
_cell_angle_gamma 90.000000
_cell_volume 4019.886833
_symmetry_space_group_name_H-M "P 42/N C M"
_symmetry_group_IT_number 138
_space_group.IT_coordinate_system_code '2'
_symmetry_cell_setting 'tetragonal'
loop_
_space_group_symop_operation_xyz
x,y,z
1/2-y,x,1/2+z
1/2-x,1/2-y,z
y,1/2-x,1/2+z
1/2+x,-y,1/2-z
-x,1/2+y,1/2-z
1/2+y,1/2+x,-z
-y,-x,-z
-x,-y,-z
1/2+y,-x,1/2-z
1/2+x,1/2+y,-z
-y,1/2+x,1/2-z
1/2-x,y,1/2+z
x,1/2-y,1/2+z
1/2-y,1/2-x,z
y,x,z
loop_
_atom_site_type_symbol
_atom_site_label
_atom_site_fract_x
_atom_site_fract_y
_atom_site_fract_z
Si Si1 0.568811 0.176779 0.556018
Si Si2 0.618373 0.194888 0.732211
Si Si3 0.857899 0.142102 0.500000
Si Si4 0.000782 0.356119 0.869832
Si Si5 0.752452 0.607471 0.005066
O O1 0.596230 0.096230 0.500000
O O2 0.595980 0.163251 0.645372
O O3 0.624261 0.259360 0.524875
O O4 0.468789 0.209973 0.547641
O O5 0.644502 0.296861 0.734477
O O6 0.538955 0.180019 0.790734
O O7 0.878700 0.078269 0.571635
O O8 0.060034 0.439966 0.855510
O O9 0.058907 0.286225 0.917345
O O10 0.837057 0.662944 0.974216
O O11 0.678351 0.678351 0.021530
#
# Coordination Sequence:
#
# PCOD9570622 Si02
#       5
#    16  16   8  16  16
#     4  11  22  35  60  87 116 154 197 242 295 352
#     4  11  22  37  54  85 123 155 191 240 304 354
#     4  10  18  36  56  86 109 147 192 238 287 344
#     4  10  20  36  60  85 111 148 195 241 285 343
#     4   9  20  40  62  83 113 155 201 243 292 354
#
# _framework density 17.910952000000002
#
# number of rings (size 3 to 8) (size 9 to 14) (size 15 to 20)
#    0.000    1.778    2.222    3.333    3.111    2.222 
#    0.000    4.444    0.000    2.667    0.000    0.000 
#    0.000    0.000    0.000    0.000    0.000    0.000 
#
# Total GULP energy -401609.425891 kJ/mol
# GULP energy per Si atom -5577.908693 kJ/mol
# Density = 1.787019 g / cm^3
# Si number density = 17.910952 Si / 1000 Ang^3
#
#
#
# Elastic Constant Matrix: (Units=GPa)
#
#
# Indices 1 2 3 4 5 6 
#
# 1 68.6977 35.6792 24.8474 0.0000 0.0000 0.0000
# 2 35.6792 68.6975 24.8472 0.0000 0.0000 0.0000
# 3 24.8474 24.8472 93.0206 0.0000 0.0000 0.0000
# 4 0.0000 0.0000 0.0000 9.6428 0.0000 0.0000
# 5 0.0000 0.0000 0.0000 0.0000 9.6423 0.0000
# 6 0.0000 0.0000 0.0000 0.0000 0.0000 14.2963
#
#
#
# Elastic Compliance Matrix: (Units=1/GPa)
#
#
# Indices 1 2 3 4 5 6 
#
# 1 0.020631 -0.009655 -0.002932 0.000000 0.000000 0.000000
# 2 -0.009655 0.020631 -0.002932 0.000000 0.000000 0.000000
# 3 -0.002932 -0.002932 0.012317 0.000000 0.000000 0.000000
# 4 0.000000 0.000000 0.000000 0.103705 0.000000 0.000000
# 5 0.000000 0.000000 0.000000 0.000000 0.103709 0.000000
# 6 0.000000 0.000000 0.000000 0.000000 0.000000 0.069948
#
#
# Mechanical properties :
#
#
# Convention : Reuss Voigt Hill
#
# Bulk Modulus (GPa) = 44.36197 44.57371 44.46784
# Shear Modulus (GPa) = 13.53204 16.38574 14.95889
#
# Velocity S-wave (km/s) = 2.75165 3.02792 2.89309
# Velocity P-wave (km/s) = 5.90908 6.09629 6.00342
#
# Compressibility (1/GPa) = 0.02254183
#
# Stress axis : x y z
#
# Youngs Moduli (GPa) = 48.46989 48.46987 81.19054
#
# Poissons Ratio (x) = 0.46796 0.23806
# Poissons Ratio (y) = 0.46796 0.23805
# Poissons Ratio (z) = 0.14212 0.14211
#
# Static dielectric constant tensor:
#      x y z
#    x 1.630200 0.000000 0.000000 
#    y 0.000000 1.630190 0.000000 
#    z 0.000000 0.000000 1.590830 
# 
# From -- ./inp_files/4986.got.cif
#   From: 2010.05.17/outbox.cif.g08.bks.cpg/sg138_3_cif.got.tgz:4986.got - 2010.05.20 13:08:53.
