data_PCOD9570355
_publ_section_title
;
Structure prediction by ZEFSAII (Michael W. Deem and Ramdas Pophale) SiO2 
 PCOD9570355
Probable space group: P 42/N M C
;
_chemical_formula_sum "Si O2"
_cell_formula_units_Z 112
_cell_length_a 13.452522
_cell_length_b 13.452522
_cell_length_c 26.816114
_cell_angle_alpha 90.000000
_cell_angle_beta 90.000000
_cell_angle_gamma 90.000000
_cell_volume 4852.921487
_symmetry_space_group_name_H-M "P 42/N M C"
_symmetry_group_IT_number 137
_space_group.IT_coordinate_system_code '2'
_symmetry_cell_setting 'tetragonal'
loop_
_space_group_symop_operation_xyz
x,y,z
1/2-y,x,1/2+z
1/2-x,1/2-y,z
y,1/2-x,1/2+z
1/2+x,-y,-z
-x,1/2+y,-z
1/2+y,1/2+x,1/2-z
-y,-x,1/2-z
-x,-y,-z
1/2+y,-x,1/2-z
1/2+x,1/2+y,-z
-y,1/2+x,1/2-z
1/2-x,y,z
x,1/2-y,z
1/2-y,1/2-x,1/2+z
y,x,1/2+z
loop_
_atom_site_type_symbol
_atom_site_label
_atom_site_fract_x
_atom_site_fract_y
_atom_site_fract_z
Si Si1 0.858425 0.944584 0.842127
Si Si2 0.366313 0.364455 0.835131
Si Si3 0.068820 0.130375 0.945326
Si Si4 0.639403 0.365706 0.900369
Si Si5 0.868552 0.357332 0.410392
Si Si6 0.870204 0.571925 0.446514
Si Si7 0.071180 0.930352 0.696316
O O1 0.750000 0.921377 0.820868
O O2 0.866367 0.904072 0.898798
O O3 0.953675 0.904806 0.813212
O O4 0.868333 0.062679 0.852623
O O5 0.250000 0.365998 0.823076
O O6 0.402008 0.250000 0.829654
O O7 0.379557 0.396189 0.893306
O O8 0.419713 0.451218 0.804951
O O9 0.079891 0.250000 0.947332
O O10 0.951227 0.110910 0.937168
O O11 0.105370 0.094865 0.998996
O O12 0.750000 0.380004 0.921959
O O13 0.629713 0.250000 0.886815
O O14 0.750000 0.356205 0.418348
O O15 0.908006 0.250000 0.426805
O O16 0.904791 0.457863 0.436842
O O17 0.887916 0.372160 0.351419
O O18 0.750000 0.572176 0.445992
O O19 0.105903 0.894098 0.750000
#
# Coordination Sequence:
#
# PCOD9570355 Si02
#       7
#    16  16  16  16  16  16  16
#     4  10  21  37  55  80 111 146 187 228 278 338
#     4  10  21  38  60  87 118 149 184 230 284 338
#     4   9  17  32  55  83 115 151 189 226 270 326
#     4   9  17  31  52  77 109 147 183 222 269 324
#     4   9  19  37  58  82 114 148 186 235 285 335
#     4   9  19  34  55  83 116 154 191 228 272 328
#     4  11  23  39  60  82 108 142 185 239 294 346
#
# _framework density 23.078882
#
# number of rings (size 3 to 8) (size 9 to 14) (size 15 to 20)
#    0.000    2.429    1.429    0.429    0.000    3.714 
#    0.000    5.000    0.000    0.000    0.000    1.000 
#    0.000    0.000    0.000    0.000    0.000    0.000 
#
# Total GULP energy -625497.020723 kJ/mol
# GULP energy per Si atom -5584.794828 kJ/mol
# Density = 2.302635 g / cm^3
# Si number density = 23.078882 Si / 1000 Ang^3
#
#
#
# Elastic Constant Matrix: (Units=GPa)
#
#
# Indices 1 2 3 4 5 6 
#
# 1 60.0358 3.7189 -12.8165 0.0000 0.0000 0.0000
# 2 3.7189 60.0359 -12.8164 0.0000 0.0000 0.0000
# 3 -12.8165 -12.8164 52.3199 0.0000 0.0000 0.0000
# 4 0.0000 0.0000 0.0000 2.1014 0.0000 0.0000
# 5 0.0000 0.0000 0.0000 0.0000 2.1014 0.0000
# 6 0.0000 0.0000 0.0000 0.0000 0.0000 22.5669
#
#
#
# Elastic Compliance Matrix: (Units=1/GPa)
#
#
# Indices 1 2 3 4 5 6 
#
# 1 0.017578 -0.000179 0.004262 0.000000 0.000000 0.000000
# 2 -0.000179 0.017578 0.004262 0.000000 0.000000 0.000000
# 3 0.004262 0.004262 0.021201 0.000000 0.000000 0.000000
# 4 0.000000 0.000000 0.000000 0.475867 0.000000 0.000000
# 5 0.000000 0.000000 0.000000 0.000000 0.475872 0.000000
# 6 0.000000 0.000000 0.000000 0.000000 0.000000 0.044313
#
#
# Mechanical properties :
#
#
# Convention : Reuss Voigt Hill
#
# Bulk Modulus (GPa) = 13.68988 14.28486 13.98737
# Shear Modulus (GPa) = 4.71669 18.30764 11.51216
#
# Velocity S-wave (km/s) = 1.43114 2.81955 2.23585
# Velocity P-wave (km/s) = 2.94543 4.09913 3.56920
#
# Compressibility (1/GPa) = 0.07304666
#
# Stress axis : x y z
#
# Youngs Moduli (GPa) = 56.89032 56.89047 47.16705
#
# Poissons Ratio (x) = 0.01018 -0.20103
# Poissons Ratio (y) = 0.01018 -0.20103
# Poissons Ratio (z) = -0.24247 -0.24247
#
# Static dielectric constant tensor:
#      x y z
#    x 1.900310 0.000000 0.000000 
#    y 0.000000 1.900310 0.000000 
#    z 0.000000 0.000000 1.822240 
# 
# From -- ./inp_files/9837.got.cif
#   From: 2010.05.17/outbox.cif.g08.bks.cpg/sg137_5_cif.got.tgz:9837.got - 2010.05.20 13:01:12.
