data_PCOD9570826
_publ_section_title
;
Structure prediction by ZEFSAII (Michael W. Deem and Ramdas Pophale) SiO2 
 PCOD9570826
Probable space group: P 42/N C M
;
_chemical_formula_sum "Si O2"
_cell_formula_units_Z 112
_cell_length_a 24.290679
_cell_length_b 24.290679
_cell_length_c 11.572585
_cell_angle_alpha 90.000000
_cell_angle_beta 90.000000
_cell_angle_gamma 90.000000
_cell_volume 6828.254334
_symmetry_space_group_name_H-M "P 42/N C M"
_symmetry_group_IT_number 138
_space_group.IT_coordinate_system_code '2'
_symmetry_cell_setting 'tetragonal'
loop_
_space_group_symop_operation_xyz
x,y,z
1/2-y,x,1/2+z
1/2-x,1/2-y,z
y,1/2-x,1/2+z
1/2+x,-y,1/2-z
-x,1/2+y,1/2-z
1/2+y,1/2+x,-z
-y,-x,-z
-x,-y,-z
1/2+y,-x,1/2-z
1/2+x,1/2+y,-z
-y,1/2+x,1/2-z
1/2-x,y,1/2+z
x,1/2-y,1/2+z
1/2-y,1/2-x,z
y,x,z
loop_
_atom_site_type_symbol
_atom_site_label
_atom_site_fract_x
_atom_site_fract_y
_atom_site_fract_z
Si Si1 0.271955 0.652579 0.421446
Si Si2 0.861386 0.450467 0.707443
Si Si3 0.674358 0.151418 0.328325
Si Si4 0.038744 0.815943 0.957738
Si Si5 0.502627 0.086329 0.941177
Si Si6 0.518414 0.068827 0.669761
Si Si7 0.465058 0.696430 0.453448
O O1 0.301277 0.698724 0.500000
O O2 0.291803 0.656001 0.288592
O O3 0.207939 0.666375 0.397228
O O4 0.292184 0.594079 0.479689
O O5 0.866179 0.385152 0.714868
O O6 0.825086 0.462331 0.594996
O O7 0.924146 0.465503 0.675164
O O8 0.832270 0.464662 0.827186
O O9 0.693344 0.100318 0.406104
O O10 0.021084 0.873627 0.899656
O O11 0.009898 0.757411 0.936740
O O12 0.507466 0.081581 0.803980
O O13 0.449240 0.050761 0.979118
O O14 0.555074 0.055074 0.000000
O O15 0.503523 0.150302 0.972928
O O16 0.470161 0.029840 0.624364
#
# Coordination Sequence:
#
# PCOD9570826 Si02
#       7
#    16  16  16  16  16  16  16
#     4  12  25  39  51  66  94 135 187 241 283 319
#     4  11  21  35  55  73 101 140 179 225 279 330
#     4  11  23  40  48  66  95 136 185 233 273 321
#     4  11  25  37  53  77 109 140 183 223 279 344
#     4  10  20  37  59  82 105 136 187 238 278 326
#     4  10  21  38  61  83 108 142 183 234 283 334
#     4  12  22  38  56  76 106 141 181 233 285 331
#
# _framework density 16.402435000000001
#
# number of rings (size 3 to 8) (size 9 to 14) (size 15 to 20)
#    0.000    1.000    4.286    4.714    2.000    1.429 
#    2.571    0.000    0.000    0.000    0.000    0.000 
#    0.000    0.571    0.000    3.143    0.000    0.000 
#
# Total GULP energy -623963.415787 kJ/mol
# GULP energy per Si atom -5571.101927 kJ/mol
# Density = 1.636510 g / cm^3
# Si number density = 16.402435 Si / 1000 Ang^3
#
#
#
# Elastic Constant Matrix: (Units=GPa)
#
#
# Indices 1 2 3 4 5 6 
#
# 1 72.7956 41.1133 26.3311 0.0000 0.0000 0.0000
# 2 41.1133 72.7952 26.3312 0.0000 0.0000 0.0000
# 3 26.3311 26.3312 88.4118 0.0000 0.0000 0.0000
# 4 0.0000 0.0000 0.0000 16.6484 0.0000 0.0000
# 5 0.0000 0.0000 0.0000 0.0000 16.6483 0.0000
# 6 0.0000 0.0000 0.0000 0.0000 0.0000 11.8703
#
#
#
# Elastic Compliance Matrix: (Units=1/GPa)
#
#
# Indices 1 2 3 4 5 6 
#
# 1 0.020872 -0.010691 -0.003032 0.000000 0.000000 0.000000
# 2 -0.010691 0.020872 -0.003032 0.000000 0.000000 0.000000
# 3 -0.003032 -0.003032 0.013117 0.000000 0.000000 0.000000
# 4 0.000000 0.000000 0.000000 0.060066 0.000000 0.000000
# 5 0.000000 0.000000 0.000000 0.000000 0.060066 0.000000
# 6 0.000000 0.000000 0.000000 0.000000 0.000000 0.084244
#
#
# Mechanical properties :
#
#
# Convention : Reuss Voigt Hill
#
# Bulk Modulus (GPa) = 46.83849 46.83933 46.83891
# Shear Modulus (GPa) = 16.67420 18.38187 17.52803
#
# Velocity S-wave (km/s) = 3.19183 3.35129 3.27253
# Velocity P-wave (km/s) = 6.49627 6.60251 6.54960
#
# Compressibility (1/GPa) = 0.02134996
#
# Stress axis : x y z
#
# Youngs Moduli (GPa) = 47.91087 47.91055 76.23835
#
# Poissons Ratio (x) = 0.51223 0.23116
# Poissons Ratio (y) = 0.51223 0.23116
# Poissons Ratio (z) = 0.14527 0.14527
#
# Static dielectric constant tensor:
#      x y z
#    x 1.597710 0.000000 0.000000 
#    y 0.000000 1.597710 0.000000 
#    z 0.000000 0.000000 1.552280 
# 
# From -- ./inp_files/3306.got.cif
#   From: 2010.05.17/outbox.cif.g08.bks.cpg/sg138_2_cif.got.tgz:3306.got - 2010.05.20 13:08:53.
