data_PCOD9570877
_publ_section_title
;
Structure prediction by ZEFSAII (Michael W. Deem and Ramdas Pophale) SiO2 
 PCOD9570877
Probable space group: P 42/N C M
;
_chemical_formula_sum "Si O2"
_cell_formula_units_Z 96
_cell_length_a 24.499498
_cell_length_b 24.499498
_cell_length_c 8.756624
_cell_angle_alpha 90.000000
_cell_angle_beta 90.000000
_cell_angle_gamma 90.000000
_cell_volume 5255.948163
_symmetry_space_group_name_H-M "P 42/N C M"
_symmetry_group_IT_number 138
_space_group.IT_coordinate_system_code '2'
_symmetry_cell_setting 'tetragonal'
loop_
_space_group_symop_operation_xyz
x,y,z
1/2-y,x,1/2+z
1/2-x,1/2-y,z
y,1/2-x,1/2+z
1/2+x,-y,1/2-z
-x,1/2+y,1/2-z
1/2+y,1/2+x,-z
-y,-x,-z
-x,-y,-z
1/2+y,-x,1/2-z
1/2+x,1/2+y,-z
-y,1/2+x,1/2-z
1/2-x,y,1/2+z
x,1/2-y,1/2+z
1/2-y,1/2-x,z
y,x,z
loop_
_atom_site_type_symbol
_atom_site_label
_atom_site_fract_x
_atom_site_fract_y
_atom_site_fract_z
Si Si1 0.824594 0.912292 0.764329
Si Si2 0.821275 0.010419 0.343123
Si Si3 0.006516 0.094730 0.394542
Si Si4 0.042184 0.235217 0.946030
Si Si5 0.795608 0.182316 0.823918
Si Si6 0.618990 0.118824 0.827929
O O1 0.855142 0.855142 0.762686
O O2 0.778939 0.918350 0.634485
O O3 0.868923 0.958564 0.722331
O O4 0.798628 0.926889 0.925829
O O5 0.802195 0.979368 0.191641
O O6 0.771054 0.004204 0.464282
O O7 0.873395 0.989712 0.442576
O O8 0.840069 0.069926 0.289366
O O9 0.943444 0.097717 0.342063
O O10 0.036264 0.036264 0.401661
O O11 0.732745 0.179803 0.774391
O O12 0.830088 0.128770 0.781279
O O13 0.802632 0.197369 0.000000
O O14 0.635016 0.135016 0.000000
#
# Coordination Sequence:
#
# PCOD9570877 Si02
#       6
#    16  16  16  16  16  16
#     4   9  18  34  56  79 106 139 172 216 267 316
#     4   9  19  32  52  78 106 140 179 220 265 315
#     4   9  19  36  55  78 110 143 178 221 271 324
#     4   9  18  34  54  79 107 139 181 221 262 318
#     4  11  23  39  57  77 105 140 182 229 277 325
#     4  10  21  35  53  79 108 143 181 221 271 322
#
# _framework density 18.265018999999999
#
# number of rings (size 3 to 8) (size 9 to 14) (size 15 to 20)
#    0.000    2.500    0.000    2.000    0.000   11.667 
#    0.000    2.500    0.000    4.000    0.000    0.000 
#    0.000    0.000    0.000    0.000    0.000    0.000 
#
# Total GULP energy -534973.429005 kJ/mol
# GULP energy per Si atom -5572.639885 kJ/mol
# Density = 1.822345 g / cm^3
# Si number density = 18.265019 Si / 1000 Ang^3
#
#
#
# Elastic Constant Matrix: (Units=GPa)
#
#
# Indices 1 2 3 4 5 6 
#
# 1 80.0042 52.8426 32.4868 0.0000 0.0000 0.0000
# 2 52.8426 80.0040 32.4866 0.0000 0.0000 0.0000
# 3 32.4868 32.4866 96.0195 0.0000 0.0000 0.0000
# 4 0.0000 0.0000 0.0000 10.3455 0.0000 0.0000
# 5 0.0000 0.0000 0.0000 0.0000 10.3455 0.0000
# 6 0.0000 0.0000 0.0000 0.0000 0.0000 25.3010
#
#
#
# Elastic Compliance Matrix: (Units=1/GPa)
#
#
# Indices 1 2 3 4 5 6 
#
# 1 0.022918 -0.013898 -0.003052 0.000000 0.000000 0.000000
# 2 -0.013898 0.022918 -0.003052 0.000000 0.000000 0.000000
# 3 -0.003052 -0.003052 0.012480 0.000000 0.000000 0.000000
# 4 0.000000 0.000000 0.000000 0.096660 0.000000 0.000000
# 5 0.000000 0.000000 0.000000 0.000000 0.096660 0.000000
# 6 0.000000 0.000000 0.000000 0.000000 0.000000 0.039524
#
#
# Mechanical properties :
#
#
# Convention : Reuss Voigt Hill
#
# Bulk Modulus (GPa) = 54.60737 54.62885 54.61811
# Shear Modulus (GPa) = 14.82495 18.41251 16.61873
#
# Velocity S-wave (km/s) = 2.85205 3.17846 3.01967
# Velocity P-wave (km/s) = 6.38809 6.59121 6.49045
#
# Compressibility (1/GPa) = 0.01831254
#
# Stress axis : x y z
#
# Youngs Moduli (GPa) = 43.63305 43.63300 80.13065
#
# Poissons Ratio (x) = 0.60643 0.24455
# Poissons Ratio (y) = 0.60643 0.24454
# Poissons Ratio (z) = 0.13316 0.13316
#
# Static dielectric constant tensor:
#      x y z
#    x 1.653500 0.000000 0.000000 
#    y 0.000000 1.653500 0.000000 
#    z 0.000000 0.000000 1.616180 
# 
# From -- ./inp_files/1711.got.cif
#   From: 2010.05.17/outbox.cif.g08.bks.cpg/sg138_1_cif.got.tgz:1711.got - 2010.05.20 13:08:53.
