data_PCOD9570190
_publ_section_title
;
Structure prediction by ZEFSAII (Michael W. Deem and Ramdas Pophale) SiO2 
 PCOD9570190
Probable space group: P 42/N M C
;
_chemical_formula_sum "Si O2"
_cell_formula_units_Z 48
_cell_length_a 16.676838
_cell_length_b 16.676838
_cell_length_c 7.328141
_cell_angle_alpha 90.000000
_cell_angle_beta 90.000000
_cell_angle_gamma 90.000000
_cell_volume 2038.080046
_symmetry_space_group_name_H-M "P 42/N M C"
_symmetry_group_IT_number 137
_space_group.IT_coordinate_system_code '2'
_symmetry_cell_setting 'tetragonal'
loop_
_space_group_symop_operation_xyz
x,y,z
1/2-y,x,1/2+z
1/2-x,1/2-y,z
y,1/2-x,1/2+z
1/2+x,-y,-z
-x,1/2+y,-z
1/2+y,1/2+x,1/2-z
-y,-x,1/2-z
-x,-y,-z
1/2+y,-x,1/2-z
1/2+x,1/2+y,-z
-y,1/2+x,1/2-z
1/2-x,y,z
x,1/2-y,z
1/2-y,1/2-x,1/2+z
y,x,1/2+z
loop_
_atom_site_type_symbol
_atom_site_label
_atom_site_fract_x
_atom_site_fract_y
_atom_site_fract_z
Si Si1 0.511686 0.836076 0.921552
Si Si2 0.837463 0.555304 0.846425
Si Si3 0.377437 0.839759 0.464217
O O1 0.529461 0.750000 0.836752
O O2 0.528138 0.832566 0.137727
O O3 0.416310 0.849994 0.919548
O O4 0.579347 0.897244 0.856874
O O5 0.750000 0.595064 0.889014
O O6 0.843576 0.474203 0.963015
O O7 0.351094 0.851094 0.250000
O O8 0.352325 0.750000 0.519786
#
# Coordination Sequence:
#
# PCOD9570190 Si02
#       3
#    16  16  16
#     4  10  20  33  52  79 106 136 175 217 265 315
#     4   9  19  34  51  74 104 138 177 217 259 311
#     4   9  17  31  52  77 104 132 167 215 266 316
#
# _framework density 23.551579
#
# number of rings (size 3 to 8) (size 9 to 14) (size 15 to 20)
#    0.000    2.667    0.000    4.000    0.000    4.333 
#    0.000    3.333    0.000    0.000    0.000    9.333 
#    0.000   26.667    0.000    0.000    0.000    0.000 
#
# Total GULP energy -267900.831601 kJ/mol
# GULP energy per Si atom -5581.267325 kJ/mol
# Density = 2.349797 g / cm^3
# Si number density = 23.551579 Si / 1000 Ang^3
#
#
#
# Elastic Constant Matrix: (Units=GPa)
#
#
# Indices 1 2 3 4 5 6 
#
# 1 154.3601 106.3495 15.2332 0.0000 0.0000 0.0000
# 2 106.3495 154.3601 15.2332 0.0000 0.0000 0.0000
# 3 15.2332 15.2332 35.9556 0.0000 0.0000 0.0000
# 4 0.0000 0.0000 0.0000 29.2875 0.0000 0.0000
# 5 0.0000 0.0000 0.0000 0.0000 29.2875 0.0000
# 6 0.0000 0.0000 0.0000 0.0000 0.0000 141.8792
#
#
#
# Elastic Compliance Matrix: (Units=1/GPa)
#
#
# Indices 1 2 3 4 5 6 
#
# 1 0.012432 -0.008397 -0.001710 0.000000 0.000000 0.000000
# 2 -0.008397 0.012432 -0.001710 0.000000 0.000000 0.000000
# 3 -0.001710 -0.001710 0.029261 0.000000 0.000000 0.000000
# 4 0.000000 0.000000 0.000000 0.034144 0.000000 0.000000
# 5 0.000000 0.000000 0.000000 0.000000 0.034144 0.000000
# 6 0.000000 0.000000 0.000000 0.000000 0.000000 0.007048
#
#
# Mechanical properties :
#
#
# Convention : Reuss Voigt Hill
#
# Bulk Modulus (GPa) = 32.79447 68.70086 50.74766
# Shear Modulus (GPa) = 30.62635 53.94817 42.28726
#
# Velocity S-wave (km/s) = 3.61001 4.79125 4.24195
# Velocity P-wave (km/s) = 5.59741 7.73575 6.75177
#
# Compressibility (1/GPa) = 0.03049294
#
# Stress axis : x y z
#
# Youngs Moduli (GPa) = 80.43693 80.43693 34.17540
#
# Poissons Ratio (x) = 0.67540 0.05843
# Poissons Ratio (y) = 0.67540 0.05843
# Poissons Ratio (z) = 0.13752 0.13752
#
# Static dielectric constant tensor:
#      x y z
#    x 1.917900 0.000000 0.000000 
#    y 0.000000 1.917900 0.000000 
#    z 0.000000 0.000000 1.927990 
# 
# From -- ./inp_files/1264.got.cif
#   From: 2010.05.17/outbox.cif.g08.bks.cpg/sg137_1_cif.got.tgz:1264.got - 2010.05.20 13:01:12.
