data_PCOD9570663
_publ_section_title
;
Structure prediction by ZEFSAII (Michael W. Deem and Ramdas Pophale) SiO2 
 PCOD9570663
Probable space group: P 42/N C M
;
_chemical_formula_sum "Si O2"
_cell_formula_units_Z 96
_cell_length_a 19.413110
_cell_length_b 19.413110
_cell_length_c 15.277795
_cell_angle_alpha 90.000000
_cell_angle_beta 90.000000
_cell_angle_gamma 90.000000
_cell_volume 5757.724877
_symmetry_space_group_name_H-M "P 42/N C M"
_symmetry_group_IT_number 138
_space_group.IT_coordinate_system_code '2'
_symmetry_cell_setting 'tetragonal'
loop_
_space_group_symop_operation_xyz
x,y,z
1/2-y,x,1/2+z
1/2-x,1/2-y,z
y,1/2-x,1/2+z
1/2+x,-y,1/2-z
-x,1/2+y,1/2-z
1/2+y,1/2+x,-z
-y,-x,-z
-x,-y,-z
1/2+y,-x,1/2-z
1/2+x,1/2+y,-z
-y,1/2+x,1/2-z
1/2-x,y,1/2+z
x,1/2-y,1/2+z
1/2-y,1/2-x,z
y,x,z
loop_
_atom_site_type_symbol
_atom_site_label
_atom_site_fract_x
_atom_site_fract_y
_atom_site_fract_z
Si Si1 0.419350 0.963436 0.731551
Si Si2 0.015140 0.600720 0.572497
Si Si3 0.312661 0.069573 0.661979
Si Si4 0.014545 0.601435 0.069856
Si Si5 0.748303 0.537511 0.020284
Si Si6 0.254537 0.138071 0.322800
O O1 0.480280 0.019721 0.734071
O O2 0.356901 0.001648 0.682336
O O3 0.400377 0.951912 0.832909
O O4 0.448770 0.905181 0.667459
O O5 0.061562 0.561562 0.500000
O O6 0.943099 0.556902 0.573881
O O7 0.004181 0.679456 0.546267
O O8 0.368053 0.131948 0.647381
O O9 0.263904 0.059869 0.579258
O O10 0.268778 0.086042 0.747965
O O11 0.942782 0.557219 0.075309
O O12 0.999272 0.679112 0.039149
O O13 0.062171 0.562171 0.000000
O O14 0.746692 0.603253 0.083496
O O15 0.327795 0.172206 0.303930
O O16 0.197882 0.197882 0.321239
#
# Coordination Sequence:
#
# PCOD9570663 Si02
#       6
#    16  16  16  16  16  16
#     4   9  17  35  56  74 108 150 185 225 279 337
#     4  10  19  32  54  85 113 142 184 233 287 344
#     4  10  19  33  53  78 114 155 185 223 282 340
#     4  10  22  40  59  80 112 156 196 234 288 348
#     4  12  21  33  58  86 111 143 191 249 287 338
#     4  10  21  34  48  74 116 160 193 223 273 345
#
# _framework density 16.673252000000002
#
# number of rings (size 3 to 8) (size 9 to 14) (size 15 to 20)
#    0.000    1.833    3.333    2.000    0.000    2.667 
#    0.000    3.333    0.000    0.500    0.000    0.000 
#    0.000    0.000    0.000    0.000    0.000    0.000 
#
# Total GULP energy -535306.814937 kJ/mol
# GULP energy per Si atom -5576.112656 kJ/mol
# Density = 1.663530 g / cm^3
# Si number density = 16.673252 Si / 1000 Ang^3
#
#
#
# Elastic Constant Matrix: (Units=GPa)
#
#
# Indices 1 2 3 4 5 6 
#
# 1 55.4370 13.9790 9.6066 0.0000 0.0000 0.0000
# 2 13.9790 55.4370 9.6066 0.0000 0.0000 0.0000
# 3 9.6066 9.6066 99.7111 0.0000 0.0000 0.0000
# 4 0.0000 0.0000 0.0000 21.8976 0.0000 0.0000
# 5 0.0000 0.0000 0.0000 0.0000 21.8976 0.0000
# 6 0.0000 0.0000 0.0000 0.0000 0.0000 8.4711
#
#
#
# Elastic Compliance Matrix: (Units=1/GPa)
#
#
# Indices 1 2 3 4 5 6 
#
# 1 0.019461 -0.004660 -0.001426 0.000000 0.000000 0.000000
# 2 -0.004660 0.019461 -0.001426 0.000000 0.000000 0.000000
# 3 -0.001426 -0.001426 0.010304 0.000000 0.000000 0.000000
# 4 0.000000 0.000000 0.000000 0.045667 0.000000 0.000000
# 5 0.000000 0.000000 0.000000 0.000000 0.045667 0.000000
# 6 0.000000 0.000000 0.000000 0.000000 0.000000 0.118049
#
#
# Mechanical properties :
#
#
# Convention : Reuss Voigt Hill
#
# Bulk Modulus (GPa) = 29.23882 30.77438 30.00660
# Shear Modulus (GPa) = 17.54187 22.27944 19.91065
#
# Velocity S-wave (km/s) = 3.24712 3.65943 3.45942
# Velocity P-wave (km/s) = 5.62431 6.02931 5.83033
#
# Compressibility (1/GPa) = 0.03420110
#
# Stress axis : x y z
#
# Youngs Moduli (GPa) = 51.38569 51.38569 97.05213
#
# Poissons Ratio (x) = 0.23946 0.13839
# Poissons Ratio (y) = 0.23946 0.13839
# Poissons Ratio (z) = 0.07327 0.07327
#
# Static dielectric constant tensor:
#      x y z
#    x 1.564810 0.000000 0.000000 
#    y 0.000000 1.564810 0.000000 
#    z 0.000000 0.000000 1.575450 
# 
# From -- ./inp_files/4340.got.cif
#   From: 2010.05.17/outbox.cif.g08.bks.cpg/sg138_3_cif.got.tgz:4340.got - 2010.05.20 13:08:53.
