data_PCOD9570179
_publ_section_title
;
Structure prediction by ZEFSAII (Michael W. Deem and Ramdas Pophale) SiO2 
 PCOD9570179
Probable space group: P 42/N M C
;
_chemical_formula_sum "Si O2"
_cell_formula_units_Z 96
_cell_length_a 24.575735
_cell_length_b 24.575735
_cell_length_c 7.431030
_cell_angle_alpha 90.000000
_cell_angle_beta 90.000000
_cell_angle_gamma 90.000000
_cell_volume 4488.095044
_symmetry_space_group_name_H-M "P 42/N M C"
_symmetry_group_IT_number 137
_space_group.IT_coordinate_system_code '2'
_symmetry_cell_setting 'tetragonal'
loop_
_space_group_symop_operation_xyz
x,y,z
1/2-y,x,1/2+z
1/2-x,1/2-y,z
y,1/2-x,1/2+z
1/2+x,-y,-z
-x,1/2+y,-z
1/2+y,1/2+x,1/2-z
-y,-x,1/2-z
-x,-y,-z
1/2+y,-x,1/2-z
1/2+x,1/2+y,-z
-y,1/2+x,1/2-z
1/2-x,y,z
x,1/2-y,z
1/2-y,1/2-x,1/2+z
y,x,1/2+z
loop_
_atom_site_type_symbol
_atom_site_label
_atom_site_fract_x
_atom_site_fract_y
_atom_site_fract_z
Si Si1 0.106307 0.590252 0.461556
Si Si2 0.811900 0.188819 0.465843
Si Si3 0.973329 0.615928 0.101531
Si Si4 0.097153 0.484669 0.973333
Si Si5 0.688812 0.878277 0.696338
Si Si6 0.690413 0.589926 0.116941
O O1 0.092456 0.592456 0.250000
O O2 0.146260 0.640733 0.492517
O O3 0.131139 0.530296 0.488629
O O4 0.048549 0.592878 0.564270
O O5 0.809121 0.190880 0.250000
O O6 0.750000 0.178311 0.531219
O O7 0.828204 0.250000 0.527131
O O8 0.980787 0.613322 0.316959
O O9 0.924220 0.658443 0.076204
O O10 0.954862 0.554888 0.047188
O O11 0.143578 0.454759 0.856626
O O12 0.750000 0.866666 0.634965
O O13 0.647589 0.827919 0.696850
O O14 0.692164 0.899573 0.901253
O O15 0.750000 0.572681 0.177447
#
# Coordination Sequence:
#
# PCOD9570179 Si02
#       6
#    16  16  16  16  16  16
#     4  10  20  32  52  81 104 127 163 202 243 294
#     4   9  20  39  57  73  99 133 166 203 248 297
#     4   9  18  32  49  72 102 133 164 200 243 290
#     4   9  18  32  49  72 102 133 164 200 243 290
#     4   9  18  32  48  66  92 126 160 197 241 284
#     4   9  18  32  48  66  92 126 160 197 241 284
#
# _framework density 21.38992
#
# number of rings (size 3 to 8) (size 9 to 14) (size 15 to 20)
#    0.000    2.833    0.000    1.000    0.000    4.333 
#    0.000    5.833    0.000    0.000    0.000    0.000 
#    0.000    0.000    0.000    0.000    0.000    0.000 
#
# Total GULP energy -535594.051524 kJ/mol
# GULP energy per Si atom -5579.104703 kJ/mol
# Density = 2.134124 g / cm^3
# Si number density = 21.389920 Si / 1000 Ang^3
#
#
#
# Elastic Constant Matrix: (Units=GPa)
#
#
# Indices 1 2 3 4 5 6 
#
# 1 101.3688 56.7764 3.0546 0.0000 0.0000 0.0000
# 2 56.7764 101.3689 3.0547 0.0000 0.0000 0.0000
# 3 3.0546 3.0547 40.9060 0.0000 0.0000 0.0000
# 4 0.0000 0.0000 0.0000 22.2559 0.0000 0.0000
# 5 0.0000 0.0000 0.0000 0.0000 22.2559 0.0000
# 6 0.0000 0.0000 0.0000 0.0000 0.0000 19.5837
#
#
#
# Elastic Compliance Matrix: (Units=1/GPa)
#
#
# Indices 1 2 3 4 5 6 
#
# 1 0.014383 -0.008042 -0.000474 0.000000 0.000000 0.000000
# 2 -0.008042 0.014383 -0.000474 0.000000 0.000000 0.000000
# 3 -0.000474 -0.000474 0.024517 0.000000 0.000000 0.000000
# 4 0.000000 0.000000 0.000000 0.044932 0.000000 0.000000
# 5 0.000000 0.000000 0.000000 0.000000 0.044932 0.000000
# 6 0.000000 0.000000 0.000000 0.000000 0.000000 0.051063
#
#
# Mechanical properties :
#
#
# Convention : Reuss Voigt Hill
#
# Bulk Modulus (GPa) = 28.32381 41.04612 34.68497
# Shear Modulus (GPa) = 22.32569 24.86963 23.59766
#
# Velocity S-wave (km/s) = 3.23421 3.41351 3.32507
# Velocity P-wave (km/s) = 5.21702 5.89637 5.56707
#
# Compressibility (1/GPa) = 0.03530598
#
# Stress axis : x y z
#
# Youngs Moduli (GPa) = 69.52424 69.52430 40.78798
#
# Poissons Ratio (x) = 0.55911 0.01932
# Poissons Ratio (y) = 0.55910 0.01932
# Poissons Ratio (z) = 0.03292 0.03292
#
# Static dielectric constant tensor:
#      x y z
#    x 1.771700 0.000000 0.000000 
#    y 0.000000 1.771700 0.000000 
#    z 0.000000 0.000000 1.832880 
# 
# From -- ./inp_files/2151.got.cif
#   From: 2010.05.17/outbox.cif.g08.bks.cpg/sg137_2_cif.got.tgz:2151.got - 2010.05.20 13:01:12.
