data_PCOD9570966
_publ_section_title
;
Structure prediction by ZEFSAII (Michael W. Deem and Ramdas Pophale) SiO2 
 PCOD9570966
Probable space group: P 42/N C M
;
_chemical_formula_sum "Si O2"
_cell_formula_units_Z 60
_cell_length_a 12.738724
_cell_length_b 12.738724
_cell_length_c 18.755503
_cell_angle_alpha 90.000000
_cell_angle_beta 90.000000
_cell_angle_gamma 90.000000
_cell_volume 3043.550921
_symmetry_space_group_name_H-M "P 42/N C M"
_symmetry_group_IT_number 138
_space_group.IT_coordinate_system_code '2'
_symmetry_cell_setting 'tetragonal'
loop_
_space_group_symop_operation_xyz
x,y,z
1/2-y,x,1/2+z
1/2-x,1/2-y,z
y,1/2-x,1/2+z
1/2+x,-y,1/2-z
-x,1/2+y,1/2-z
1/2+y,1/2+x,-z
-y,-x,-z
-x,-y,-z
1/2+y,-x,1/2-z
1/2+x,1/2+y,-z
-y,1/2+x,1/2-z
1/2-x,y,1/2+z
x,1/2-y,1/2+z
1/2-y,1/2-x,z
y,x,z
loop_
_atom_site_type_symbol
_atom_site_label
_atom_site_fract_x
_atom_site_fract_y
_atom_site_fract_z
Si Si1 0.487772 0.012229 0.114917
Si Si2 0.906763 0.593238 0.358694
Si Si3 0.623170 0.623170 0.518863
Si Si4 0.371692 0.371692 0.981998
Si Si5 0.073580 0.426421 0.321184
Si Si6 0.022455 0.786778 0.295115
Si Si7 0.250000 0.750000 0.750000
O O1 0.536249 0.106137 0.160692
O O2 0.571894 0.928107 0.088821
O O3 0.433395 0.066606 0.046872
O O4 0.917244 0.582757 0.444248
O O5 0.790787 0.558300 0.334632
O O6 0.984704 0.515297 0.317860
O O7 0.747305 0.606800 0.515325
O O8 0.408156 0.408156 0.904496
O O9 0.175591 0.470371 0.279346
O O10 0.137990 0.736381 0.289249
#
# Coordination Sequence:
#
# PCOD9570966 Si02
#       7
#     8   8   8   8   8  16   4
#     4  10  22  42  64  98 125 172 217 273 331 387
#     4  12  23  45  67  93 133 180 211 275 341 389
#     4  10  22  38  67  91 129 168 217 268 329 390
#     4  11  24  41  62  98 135 173 215 272 327 409
#     4  11  26  40  62  99 127 173 212 274 320 398
#     4  11  25  42  71  91 133 171 223 274 331 392
#     4  12  24  44  64 102 124 168 220 274 328 384
#
# _framework density 19.713813999999999
#
# number of rings (size 3 to 8) (size 9 to 14) (size 15 to 20)
#    0.000    1.067    5.333    0.400    3.733    4.267 
#    0.000    0.000    0.000    1.600    0.000    0.000 
#    0.000    0.000    0.000    0.000    0.000    0.000 
#
# Total GULP energy -334934.254763 kJ/mol
# GULP energy per Si atom -5582.237579 kJ/mol
# Density = 1.966894 g / cm^3
# Si number density = 19.713814 Si / 1000 Ang^3
#
#
#
# Elastic Constant Matrix: (Units=GPa)
#
#
# Indices 1 2 3 4 5 6 
#
# 1 39.4715 53.9265 33.2866 0.0000 0.0000 0.0000
# 2 53.9265 39.4715 33.2866 0.0000 0.0000 0.0000
# 3 33.2866 33.2866 123.8481 0.0000 0.0000 0.0000
# 4 0.0000 0.0000 0.0000 29.3382 0.0000 0.0000
# 5 0.0000 0.0000 0.0000 0.0000 29.3382 0.0000
# 6 0.0000 0.0000 0.0000 0.0000 0.0000 38.8912
#
#
#
# Elastic Compliance Matrix: (Units=1/GPa)
#
#
# Indices 1 2 3 4 5 6 
#
# 1 -0.027968 0.041212 -0.003560 0.000000 0.000000 0.000000
# 2 0.041212 -0.027968 -0.003560 0.000000 0.000000 0.000000
# 3 -0.003560 -0.003560 0.009988 0.000000 0.000000 0.000000
# 4 0.000000 0.000000 0.000000 0.034085 0.000000 0.000000
# 5 0.000000 0.000000 0.000000 0.000000 0.034085 0.000000
# 6 0.000000 0.000000 0.000000 0.000000 0.000000 0.025713
#
#
# Mechanical properties :
#
#
# Convention : Reuss Voigt Hill
#
# Bulk Modulus (GPa) = 44.96881 49.31005 47.13943
# Shear Modulus (GPa) = -389.46263 24.99961 -182.23151
#
# Velocity S-wave (km/s) = -14.07079 3.56494 -9.62492
# Velocity P-wave (km/s) = 15.52812 6.48169 9.97773
#
# Compressibility (1/GPa) = 0.02223764
#
# Stress axis : x y z
#
# Youngs Moduli (GPa) = -35.75513 -35.75513 100.12171
#
# Poissons Ratio (x) = 1.47355 0.35640
# Poissons Ratio (y) = 1.47355 0.35640
# Poissons Ratio (z) = -0.12727 -0.12727
#
# Static dielectric constant tensor:
#      x y z
#    x 1.690620 0.000000 0.000000 
#    y 0.000000 1.690620 0.000000 
#    z 0.000000 0.000000 1.708400 
# 
# From -- ./inp_files/5929.got.cif
#   From: 2010.05.17/outbox.cif.g08.bks.cpg/sg138_3_cif.got.tgz:5929.got - 2010.05.20 13:08:53.
