data_PCOD9570354
_publ_section_title
;
Structure prediction by ZEFSAII (Michael W. Deem and Ramdas Pophale) SiO2 
 PCOD9570354
Probable space group: P 42/N M C
;
_chemical_formula_sum "Si O2"
_cell_formula_units_Z 96
_cell_length_a 23.833705
_cell_length_b 23.833705
_cell_length_c 8.090040
_cell_angle_alpha 90.000000
_cell_angle_beta 90.000000
_cell_angle_gamma 90.000000
_cell_volume 4595.510768
_symmetry_space_group_name_H-M "P 42/N M C"
_symmetry_group_IT_number 137
_space_group.IT_coordinate_system_code '2'
_symmetry_cell_setting 'tetragonal'
loop_
_space_group_symop_operation_xyz
x,y,z
1/2-y,x,1/2+z
1/2-x,1/2-y,z
y,1/2-x,1/2+z
1/2+x,-y,-z
-x,1/2+y,-z
1/2+y,1/2+x,1/2-z
-y,-x,1/2-z
-x,-y,-z
1/2+y,-x,1/2-z
1/2+x,1/2+y,-z
-y,1/2+x,1/2-z
1/2-x,y,z
x,1/2-y,z
1/2-y,1/2-x,1/2+z
y,x,1/2+z
loop_
_atom_site_type_symbol
_atom_site_label
_atom_site_fract_x
_atom_site_fract_y
_atom_site_fract_z
Si Si1 0.606524 0.416053 0.942188
Si Si2 0.188965 0.398236 0.974834
Si Si3 0.311492 0.979725 0.852861
Si Si4 0.503482 0.900388 0.905321
Si Si5 0.079066 0.119931 0.789331
Si Si6 0.185324 0.814064 0.048723
O O1 0.591405 0.408596 0.750000
O O2 0.637429 0.358345 0.000839
O O3 0.655200 0.459796 0.985291
O O4 0.550460 0.436676 0.038646
O O5 0.250000 0.370272 0.983803
O O6 0.166991 0.419917 0.150480
O O7 0.194529 0.453737 0.865530
O O8 0.136454 0.368342 0.890800
O O9 0.250000 0.954135 0.840305
O O10 0.351375 0.973091 0.696814
O O11 0.557456 0.921806 0.798679
O O12 0.530147 0.878971 0.076536
O O13 0.185261 0.814740 0.250000
O O14 0.250000 0.827771 0.999125
O O15 0.173691 0.750000 0.995823
#
# Coordination Sequence:
#
# PCOD9570354 Si02
#       6
#    16  16  16  16  16  16
#     4  11  21  34  53  80 112 148 193 239 282 338
#     4   9  18  35  59  83 110 144 181 222 273 335
#     4  10  21  37  55  79 111 145 185 235 284 329
#     4  10  21  38  57  81 111 149 191 233 289 348
#     4   9  19  38  60  84 113 146 186 232 283 340
#     4   8  15  29  49  73 103 141 184 232 283 328
#
# _framework density 20.889952999999998
#
# number of rings (size 3 to 8) (size 9 to 14) (size 15 to 20)
#    0.000    2.500    0.000    2.500    0.000    2.000 
#    0.000   23.333    0.000    1.500    0.000    2.333 
#    0.000    0.000    0.000    0.000    0.000    0.000 
#
# Total GULP energy -534415.823008 kJ/mol
# GULP energy per Si atom -5566.831490 kJ/mol
# Density = 2.084241 g / cm^3
# Si number density = 20.889953 Si / 1000 Ang^3
#
#
#
# Elastic Constant Matrix: (Units=GPa)
#
#
# Indices 1 2 3 4 5 6 
#
# 1 97.5818 -45.4362 5.6477 0.0000 0.0000 0.0000
# 2 -45.4362 97.5852 5.6516 0.0000 0.0000 0.0000
# 3 5.6477 5.6516 61.6002 0.0000 0.0000 0.0000
# 4 0.0000 0.0000 0.0000 680.5498 0.0000 0.0000
# 5 0.0000 0.0000 0.0000 0.0000 681.6618 0.0000
# 6 0.0000 0.0000 0.0000 0.0000 0.0000 11.8754
#
#
#
# Elastic Compliance Matrix: (Units=1/GPa)
#
#
# Indices 1 2 3 4 5 6 
#
# 1 0.013279 0.006287 -0.001794 0.000000 0.000000 0.000000
# 2 0.006287 0.013278 -0.001795 0.000000 0.000000 0.000000
# 3 -0.001794 -0.001795 0.016563 0.000000 0.000000 0.000000
# 4 0.000000 0.000000 0.000000 0.001469 0.000000 0.000000
# 5 0.000000 0.000000 0.000000 0.000000 0.001467 0.000000
# 6 0.000000 0.000000 0.000000 0.000000 0.000000 0.084208
#
#
# Mechanical properties :
#
#
# Convention : Reuss Voigt Hill
#
# Bulk Modulus (GPa) = 20.61190 20.94373 20.77781
# Shear Modulus (GPa) = 35.45079 294.21101 164.83090
#
# Velocity S-wave (km/s) = 4.12397 11.88042 8.89245
# Velocity P-wave (km/s) = 5.70653 14.07977 10.74254
#
# Compressibility (1/GPa) = 0.04851566
#
# Stress axis : x y z
#
# Youngs Moduli (GPa) = 75.30784 75.30987 60.37599
#
# Poissons Ratio (x) = -0.47344 0.10833
# Poissons Ratio (y) = -0.47343 0.10835
# Poissons Ratio (z) = 0.13512 0.13515
#
# Static dielectric constant tensor:
#      x y z
#    x 1.857230 0.000000 0.000000 
#    y 0.000000 1.857230 0.000000 
#    z 0.000000 0.000000 1.748760 
# 
# From -- ./inp_files/2124.got.cif
#   From: 2010.05.17/outbox.cif.g08.bks.cpg/sg137_2_cif.got.tgz:2124.got - 2010.05.20 13:01:12.
