data_PCOD9570885
_publ_section_title
;
Structure prediction by ZEFSAII (Michael W. Deem and Ramdas Pophale) SiO2 
 PCOD9570885
Probable space group: P 42/N C M
;
_chemical_formula_sum "Si O2"
_cell_formula_units_Z 80
_cell_length_a 17.468983
_cell_length_b 17.468983
_cell_length_c 14.225107
_cell_angle_alpha 90.000000
_cell_angle_beta 90.000000
_cell_angle_gamma 90.000000
_cell_volume 4341.009999
_symmetry_space_group_name_H-M "P 42/N C M"
_symmetry_group_IT_number 138
_space_group.IT_coordinate_system_code '2'
_symmetry_cell_setting 'tetragonal'
loop_
_space_group_symop_operation_xyz
x,y,z
1/2-y,x,1/2+z
1/2-x,1/2-y,z
y,1/2-x,1/2+z
1/2+x,-y,1/2-z
-x,1/2+y,1/2-z
1/2+y,1/2+x,-z
-y,-x,-z
-x,-y,-z
1/2+y,-x,1/2-z
1/2+x,1/2+y,-z
-y,1/2+x,1/2-z
1/2-x,y,1/2+z
x,1/2-y,1/2+z
1/2-y,1/2-x,z
y,x,z
loop_
_atom_site_type_symbol
_atom_site_label
_atom_site_fract_x
_atom_site_fract_y
_atom_site_fract_z
Si Si1 0.162430 0.466670 0.394453
Si Si2 0.755134 0.625603 0.252179
Si Si3 0.005351 0.229933 0.097658
Si Si4 0.582238 0.044495 0.298711
Si Si5 0.092821 0.968001 0.599114
O O1 0.104173 0.395828 0.411497
O O2 0.225302 0.438273 0.319691
O O3 0.201075 0.490520 0.491305
O O4 0.110942 0.533305 0.349294
O O5 0.831752 0.668249 0.219313
O O6 0.688820 0.688820 0.257534
O O7 0.767644 0.588401 0.353345
O O8 0.960768 0.166063 0.157864
O O9 0.974118 0.315973 0.103567
O O10 0.579863 0.061611 0.187764
O O11 0.534329 0.965672 0.315356
O O12 0.066469 0.933532 0.500000
O O13 0.051252 0.051252 0.609026
#
# Coordination Sequence:
#
# PCOD9570885 Si02
#       5
#    16  16  16  16  16
#     4  10  21  38  57  86 125 161 199 251 309 370
#     4  10  21  36  55  88 130 163 194 246 316 379
#     4  12  22  36  64  90 116 155 216 256 305 370
#     4  10  21  40  62  87 121 162 208 254 304 371
#     4  10  23  41  62  91 126 163 204 258 320 375
#
# _framework density 18.428891
#
# number of rings (size 3 to 8) (size 9 to 14) (size 15 to 20)
#    0.000    1.600    2.000    3.000    2.800    3.200 
#    0.000    2.000    0.000    7.800    0.000    0.000 
#    0.000    0.000    0.000    0.000    0.000    0.000 
#
# Total GULP energy -446855.188442 kJ/mol
# GULP energy per Si atom -5585.689856 kJ/mol
# Density = 1.838695 g / cm^3
# Si number density = 18.428891 Si / 1000 Ang^3
#
#
#
# Elastic Constant Matrix: (Units=GPa)
#
#
# Indices 1 2 3 4 5 6 
#
# 1 101.0462 30.5822 38.6571 0.0000 0.0000 0.0000
# 2 30.5822 101.0440 38.6565 0.0000 0.0000 0.0000
# 3 38.6571 38.6565 123.0400 0.0000 0.0000 0.0000
# 4 0.0000 0.0000 0.0000 24.8592 0.0000 0.0000
# 5 0.0000 0.0000 0.0000 0.0000 24.8597 0.0000
# 6 0.0000 0.0000 0.0000 0.0000 0.0000 16.5290
#
#
#
# Elastic Compliance Matrix: (Units=1/GPa)
#
#
# Indices 1 2 3 4 5 6 
#
# 1 0.011754 -0.002438 -0.002927 0.000000 0.000000 0.000000
# 2 -0.002438 0.011754 -0.002927 0.000000 0.000000 0.000000
# 3 -0.002927 -0.002927 0.009967 0.000000 0.000000 0.000000
# 4 0.000000 0.000000 0.000000 0.040227 0.000000 0.000000
# 5 0.000000 0.000000 0.000000 0.000000 0.040226 0.000000
# 6 0.000000 0.000000 0.000000 0.000000 0.000000 0.060500
#
#
# Mechanical properties :
#
#
# Convention : Reuss Voigt Hill
#
# Bulk Modulus (GPa) = 59.20173 60.10242 59.65207
# Shear Modulus (GPa) = 25.42701 27.73187 26.57944
#
# Velocity S-wave (km/s) = 3.71851 3.88339 3.80184
# Velocity P-wave (km/s) = 7.11552 7.26578 7.19104
#
# Compressibility (1/GPa) = 0.01689140
#
# Stress axis : x y z
#
# Youngs Moduli (GPa) = 85.07714 85.07534 100.33430
#
# Poissons Ratio (x) = 0.20739 0.29368
# Poissons Ratio (y) = 0.20739 0.29368
# Poissons Ratio (z) = 0.24902 0.24902
#
# Static dielectric constant tensor:
#      x y z
#    x 1.630910 0.000000 0.000000 
#    y 0.000000 1.630910 0.000000 
#    z 0.000000 0.000000 1.621950 
# 
# From -- ./inp_files/4072.got.cif
#   From: 2010.05.17/outbox.cif.g08.bks.cpg/sg138_3_cif.got.tgz:4072.got - 2010.05.20 13:08:53.
