data_PCOD9570684
_publ_section_title
;
Structure prediction by ZEFSAII (Michael W. Deem and Ramdas Pophale) SiO2 
 PCOD9570684
Probable space group: P 42/N C M
;
_chemical_formula_sum "Si O2"
_cell_formula_units_Z 112
_cell_length_a 15.776336
_cell_length_b 15.776336
_cell_length_c 26.218182
_cell_angle_alpha 90.000000
_cell_angle_beta 90.000000
_cell_angle_gamma 90.000000
_cell_volume 6525.516141
_symmetry_space_group_name_H-M "P 42/N C M"
_symmetry_group_IT_number 138
_space_group.IT_coordinate_system_code '2'
_symmetry_cell_setting 'tetragonal'
loop_
_space_group_symop_operation_xyz
x,y,z
1/2-y,x,1/2+z
1/2-x,1/2-y,z
y,1/2-x,1/2+z
1/2+x,-y,1/2-z
-x,1/2+y,1/2-z
1/2+y,1/2+x,-z
-y,-x,-z
-x,-y,-z
1/2+y,-x,1/2-z
1/2+x,1/2+y,-z
-y,1/2+x,1/2-z
1/2-x,y,1/2+z
x,1/2-y,1/2+z
1/2-y,1/2-x,z
y,x,z
loop_
_atom_site_type_symbol
_atom_site_label
_atom_site_fract_x
_atom_site_fract_y
_atom_site_fract_z
Si Si1 0.289981 0.430425 0.610169
Si Si2 0.690278 0.955482 0.105626
Si Si3 0.975136 0.663784 0.301350
Si Si4 0.744519 0.889923 0.708419
Si Si5 0.062697 0.577201 0.846454
Si Si6 0.339127 0.644327 0.248675
Si Si7 0.108286 0.246218 0.996805
O O1 0.341888 0.341888 0.617987
O O2 0.212582 0.442756 0.648809
O O3 0.356118 0.504697 0.623700
O O4 0.259269 0.433228 0.551953
O O5 0.620165 0.879836 0.104570
O O6 0.750272 0.934718 0.153692
O O7 0.737297 0.951371 0.051696
O O8 0.637458 0.039393 0.118665
O O9 0.922808 0.577193 0.295685
O O10 0.949814 0.724090 0.253611
O O11 0.075381 0.650379 0.296049
O O12 0.654922 0.845079 0.718324
O O13 0.814711 0.814711 0.707061
O O14 0.101794 0.616993 0.795640
O O15 0.001995 0.498005 0.832249
O O16 0.240838 0.642245 0.266034
O O17 0.181679 0.318322 0.994249
O O18 0.157172 0.157172 0.993416
#
# Coordination Sequence:
#
# PCOD9570684 Si02
#       7
#    16  16  16  16  16  16  16
#     4  10  20  32  49  75 110 145 178 218 265 324
#     4   9  16  27  46  69 101 142 178 217 260 307
#     4  11  20  33  52  74 105 140 174 212 266 327
#     4   9  16  25  41  68 100 135 171 206 251 311
#     4  10  19  34  53  76 107 139 178 224 266 313
#     4  11  22  37  55  75 102 137 176 222 268 313
#     4   9  17  29  45  70 107 147 182 215 260 322
#
# _framework density 17.163392000000002
#
# number of rings (size 3 to 8) (size 9 to 14) (size 15 to 20)
#    0.000    2.143    2.857    1.714    0.000    3.714 
#    0.000    2.857    0.000    0.000    0.000    1.000 
#    0.000    2.286    0.000    0.000    0.000    0.000 
#
# Total GULP energy -624613.391901 kJ/mol
# GULP energy per Si atom -5576.905285 kJ/mol
# Density = 1.712433 g / cm^3
# Si number density = 17.163392 Si / 1000 Ang^3
#
#
#
# Elastic Constant Matrix: (Units=GPa)
#
#
# Indices 1 2 3 4 5 6 
#
# 1 52.1961 8.4857 3.9570 0.0000 0.0000 0.0000
# 2 8.4857 52.1961 3.9570 0.0000 0.0000 0.0000
# 3 3.9570 3.9570 83.4426 0.0000 0.0000 0.0000
# 4 0.0000 0.0000 0.0000 6.7727 0.0000 0.0000
# 5 0.0000 0.0000 0.0000 0.0000 6.7727 0.0000
# 6 0.0000 0.0000 0.0000 0.0000 0.0000 14.6647
#
#
#
# Elastic Compliance Matrix: (Units=1/GPa)
#
#
# Indices 1 2 3 4 5 6 
#
# 1 0.019730 -0.003148 -0.000786 0.000000 0.000000 0.000000
# 2 -0.003148 0.019730 -0.000786 0.000000 0.000000 0.000000
# 3 -0.000786 -0.000786 0.012059 0.000000 0.000000 0.000000
# 4 0.000000 0.000000 0.000000 0.147651 0.000000 0.000000
# 5 0.000000 0.000000 0.000000 0.000000 0.147651 0.000000
# 6 0.000000 0.000000 0.000000 0.000000 0.000000 0.068191
#
#
# Mechanical properties :
#
#
# Convention : Reuss Voigt Hill
#
# Bulk Modulus (GPa) = 23.76573 24.51492 24.14033
# Shear Modulus (GPa) = 11.40306 17.07103 14.23704
#
# Velocity S-wave (km/s) = 2.58036 3.15718 2.88323
# Velocity P-wave (km/s) = 4.77017 5.25401 5.01792
#
# Compressibility (1/GPa) = 0.04207739
#
# Stress axis : x y z
#
# Youngs Moduli (GPa) = 50.68450 50.68450 82.92648
#
# Poissons Ratio (x) = 0.15955 0.06521
# Poissons Ratio (y) = 0.15955 0.06521
# Poissons Ratio (z) = 0.03986 0.03986
#
# Static dielectric constant tensor:
#      x y z
#    x 1.596710 0.000000 0.000000 
#    y 0.000000 1.596710 0.000000 
#    z 0.000000 0.000000 1.560920 
# 
# From -- ./inp_files/7562.got.cif
#   From: 2010.05.17/outbox.cif.g08.bks.cpg/sg138_4_cif.got.tgz:7562.got - 2010.05.20 13:08:53.
