data_PCOD9570300
_publ_section_title
;
Structure prediction by ZEFSAII (Michael W. Deem and Ramdas Pophale) SiO2 
 PCOD9570300
Probable space group: P 42/N M C
;
_chemical_formula_sum "Si O2"
_cell_formula_units_Z 56
_cell_length_a 18.223237
_cell_length_b 18.223237
_cell_length_c 8.716456
_cell_angle_alpha 90.000000
_cell_angle_beta 90.000000
_cell_angle_gamma 90.000000
_cell_volume 2894.616204
_symmetry_space_group_name_H-M "P 42/N M C"
_symmetry_group_IT_number 137
_space_group.IT_coordinate_system_code '2'
_symmetry_cell_setting 'tetragonal'
loop_
_space_group_symop_operation_xyz
x,y,z
1/2-y,x,1/2+z
1/2-x,1/2-y,z
y,1/2-x,1/2+z
1/2+x,-y,-z
-x,1/2+y,-z
1/2+y,1/2+x,1/2-z
-y,-x,1/2-z
-x,-y,-z
1/2+y,-x,1/2-z
1/2+x,1/2+y,-z
-y,1/2+x,1/2-z
1/2-x,y,z
x,1/2-y,z
1/2-y,1/2-x,1/2+z
y,x,1/2+z
loop_
_atom_site_type_symbol
_atom_site_label
_atom_site_fract_x
_atom_site_fract_y
_atom_site_fract_z
Si Si1 0.250000 0.250000 0.687202
Si Si2 0.250000 0.123086 0.437901
Si Si3 0.537149 0.603667 0.132938
Si Si4 0.750000 0.250000 0.750000
Si Si5 0.250000 0.750000 0.750000
Si Si6 0.250000 0.876304 0.998116
Si Si7 0.606519 0.473751 0.974220
O O1 0.250000 0.177318 0.582922
O O2 0.322072 0.250000 0.792494
O O3 0.177478 0.073534 0.429011
O O4 0.462906 0.580615 0.043842
O O5 0.516129 0.611864 0.311173
O O6 0.590299 0.534427 0.103101
O O7 0.677373 0.250000 0.645566
O O8 0.250000 0.821825 0.854885
O O9 0.321172 0.927272 0.999129
#
# Coordination Sequence:
#
# PCOD9570300 Si02
#       7
#     4   8  16   2   2   8  16
#     4  10  24  36  54  86 114 152 204 234 280 366
#     4  11  21  39  57  81 119 155 191 243 294 336
#     4  10  21  37  60  89 117 153 199 243 292 354
#     4  10  20  38  64  94 116 158 224 242 288 378
#     4  10  28  42  60  94 120 154 200 234 296 378
#     4  11  23  43  63  87 125 161 195 253 302 346
#     4  10  22  39  61  90 119 152 199 244 293 355
#
# _framework density 19.346261999999999
#
# number of rings (size 3 to 8) (size 9 to 14) (size 15 to 20)
#    0.000    1.714    0.000    4.286    0.000    9.143 
#    0.000    4.286    0.000    0.000    0.000    0.000 
#    0.000    0.000    0.000    0.000    0.000    0.000 
#
# Total GULP energy -313137.059183 kJ/mol
# GULP energy per Si atom -5591.733200 kJ/mol
# Density = 1.930223 g / cm^3
# Si number density = 19.346262 Si / 1000 Ang^3
#
#
#
# Elastic Constant Matrix: (Units=GPa)
#
#
# Indices 1 2 3 4 5 6 
#
# 1 149.6350 115.3077 53.6130 0.0000 0.0000 0.0000
# 2 115.3077 149.6350 53.6130 0.0000 0.0000 0.0000
# 3 53.6130 53.6130 88.2236 0.0000 0.0000 0.0000
# 4 0.0000 0.0000 0.0000 -2.4237 0.0000 0.0000
# 5 0.0000 0.0000 0.0000 0.0000 -2.4237 0.0000
# 6 0.0000 0.0000 0.0000 0.0000 0.0000 53.0543
#
#
#
# Elastic Compliance Matrix: (Units=1/GPa)
#
#
# Indices 1 2 3 4 5 6 
#
# 1 0.017068 -0.012063 -0.003042 0.000000 0.000000 0.000000
# 2 -0.012063 0.017068 -0.003042 0.000000 0.000000 0.000000
# 3 -0.003042 -0.003042 0.015032 0.000000 0.000000 0.000000
# 4 0.000000 0.000000 0.000000 -0.412591 0.000000 0.000000
# 5 0.000000 0.000000 0.000000 0.000000 -0.412591 0.000000
# 6 0.000000 0.000000 0.000000 0.000000 0.000000 0.018849
#
#
# Mechanical properties :
#
#
# Convention : Reuss Voigt Hill
#
# Bulk Modulus (GPa) = 77.66660 92.50677 85.08669
# Shear Modulus (GPa) = -6.97758 20.63870 6.83056
#
# Velocity S-wave (km/s) = -1.90119 3.26974 1.88105
# Velocity P-wave (km/s) = 5.95091 7.88512 6.98529
#
# Compressibility (1/GPa) = 0.01287555
#
# Stress axis : x y z
#
# Youngs Moduli (GPa) = 58.58780 58.58780 66.52566
#
# Poissons Ratio (x) = 0.70674 0.20236
# Poissons Ratio (y) = 0.70674 0.20236
# Poissons Ratio (z) = 0.17821 0.17821
#
# Static dielectric constant tensor:
#      x y z
#    x 1.643720 0.000000 0.000000 
#    y 0.000000 1.643720 0.000000 
#    z 0.000000 0.000000 1.681890 
# 
# From -- ./inp_files/1638.got.cif
#   From: 2010.05.17/outbox.cif.g08.bks.cpg/sg137_1_cif.got.tgz:1638.got - 2010.05.20 13:01:12.
