data_PCOD9570081
_publ_section_title
;
Structure prediction by ZEFSAII (Michael W. Deem and Ramdas Pophale) SiO2 
 PCOD9570081
Probable space group: P 42/N M C
;
_chemical_formula_sum "Si O2"
_cell_formula_units_Z 112
_cell_length_a 15.242079
_cell_length_b 15.242079
_cell_length_c 23.689677
_cell_angle_alpha 90.000000
_cell_angle_beta 90.000000
_cell_angle_gamma 90.000000
_cell_volume 5503.608793
_symmetry_space_group_name_H-M "P 42/N M C"
_symmetry_group_IT_number 137
_space_group.IT_coordinate_system_code '2'
_symmetry_cell_setting 'tetragonal'
loop_
_space_group_symop_operation_xyz
x,y,z
1/2-y,x,1/2+z
1/2-x,1/2-y,z
y,1/2-x,1/2+z
1/2+x,-y,-z
-x,1/2+y,-z
1/2+y,1/2+x,1/2-z
-y,-x,1/2-z
-x,-y,-z
1/2+y,-x,1/2-z
1/2+x,1/2+y,-z
-y,1/2+x,1/2-z
1/2-x,y,z
x,1/2-y,z
1/2-y,1/2-x,1/2+z
y,x,1/2+z
loop_
_atom_site_type_symbol
_atom_site_label
_atom_site_fract_x
_atom_site_fract_y
_atom_site_fract_z
Si Si1 0.467106 0.153732 0.366239
Si Si2 0.844917 0.094392 0.367425
Si Si3 0.651649 0.531294 0.268485
Si Si4 0.476913 0.151969 0.664451
Si Si5 0.353813 0.464686 0.445342
Si Si6 0.149773 0.406791 0.569721
Si Si7 0.649559 0.147653 0.901765
O O1 0.431417 0.250000 0.380908
O O2 0.569082 0.147143 0.382705
O O3 0.467898 0.144811 0.298535
O O4 0.411981 0.078928 0.396870
O O5 0.750000 0.136433 0.376669
O O6 0.849973 0.060510 0.302401
O O7 0.847762 0.003927 0.402791
O O8 0.750000 0.568159 0.282604
O O9 0.571732 0.586040 0.294032
O O10 0.471040 0.250000 0.687355
O O11 0.420435 0.145452 0.606489
O O12 0.577404 0.133600 0.647981
O O13 0.250000 0.450191 0.435111
O O14 0.375734 0.420166 0.504877
O O15 0.367108 0.569977 0.445389
O O16 0.250000 0.372012 0.573066
O O17 0.750000 0.132832 0.921964
O O18 0.644153 0.250000 0.884102
#
# Coordination Sequence:
#
# PCOD9570081 Si02
#       7
#    16  16  16  16  16  16  16
#     4  11  23  36  54  83 116 150 186 223 270 335
#     4   9  18  35  57  78 104 140 183 232 280 322
#     4   9  19  35  54  79 110 143 184 231 273 322
#     4  10  19  32  56  84 108 143 187 232 283 326
#     4  10  21  38  58  78 109 152 186 222 277 331
#     4   9  19  35  55  81 110 142 186 234 274 320
#     4   9  19  36  57  82 109 137 178 229 278 334
#
# _framework density 20.350283999999998
#
# number of rings (size 3 to 8) (size 9 to 14) (size 15 to 20)
#    0.000    2.429    0.000    3.429    0.000    5.143 
#    0.000    5.000    0.000    7.714    0.000    6.000 
#    0.000    0.000    0.000    0.000    0.000    0.000 
#
# Total GULP energy -624529.600891 kJ/mol
# GULP energy per Si atom -5576.157151 kJ/mol
# Density = 2.030397 g / cm^3
# Si number density = 20.350284 Si / 1000 Ang^3
#
#
#
# Elastic Constant Matrix: (Units=GPa)
#
#
# Indices 1 2 3 4 5 6 
#
# 1 62.5922 24.3096 7.2963 0.0000 0.0000 0.0000
# 2 24.3096 62.5922 7.2963 0.0000 0.0000 0.0000
# 3 7.2963 7.2963 45.4786 0.0000 0.0000 0.0000
# 4 0.0000 0.0000 0.0000 11.5351 0.0000 0.0000
# 5 0.0000 0.0000 0.0000 0.0000 11.5351 0.0000
# 6 0.0000 0.0000 0.0000 0.0000 0.0000 0.7118
#
#
#
# Elastic Compliance Matrix: (Units=1/GPa)
#
#
# Indices 1 2 3 4 5 6 
#
# 1 0.018974 -0.007148 -0.001897 0.000000 0.000000 0.000000
# 2 -0.007148 0.018974 -0.001897 0.000000 0.000000 0.000000
# 3 -0.001897 -0.001897 0.022597 0.000000 0.000000 0.000000
# 4 0.000000 0.000000 0.000000 0.086692 0.000000 0.000000
# 5 0.000000 0.000000 0.000000 0.000000 0.086692 0.000000
# 6 0.000000 0.000000 0.000000 0.000000 0.000000 1.404888
#
#
# Mechanical properties :
#
#
# Convention : Reuss Voigt Hill
#
# Bulk Modulus (GPa) = 25.86670 27.60749 26.73710
# Shear Modulus (GPa) = 2.98759 13.54043 8.26401
#
# Velocity S-wave (km/s) = 1.21296 2.58227 2.01735
# Velocity P-wave (km/s) = 3.83406 4.74199 4.31199
#
# Compressibility (1/GPa) = 0.03865975
#
# Stress axis : x y z
#
# Youngs Moduli (GPa) = 52.70457 52.70457 44.25338
#
# Poissons Ratio (x) = 0.37672 0.08396
# Poissons Ratio (y) = 0.37672 0.08396
# Poissons Ratio (z) = 0.09999 0.09999
#
# Static dielectric constant tensor:
#      x y z
#    x 1.733220 0.000000 0.000000 
#    y 0.000000 1.733220 0.000000 
#    z 0.000000 0.000000 1.709230 
# 
# From -- ./inp_files/8968.got.cif
#   From: 2010.05.17/outbox.cif.g08.bks.cpg/sg137_5_cif.got.tgz:8968.got - 2010.05.20 13:01:12.
