data_PCOD9570729
_publ_section_title
;
Structure prediction by ZEFSAII (Michael W. Deem and Ramdas Pophale) SiO2 
 PCOD9570729
Probable space group: P 42/N C M
;
_chemical_formula_sum "Si O2"
_cell_formula_units_Z 72
_cell_length_a 17.866869
_cell_length_b 17.866869
_cell_length_c 8.590909
_cell_angle_alpha 90.000000
_cell_angle_beta 90.000000
_cell_angle_gamma 90.000000
_cell_volume 2742.432993
_symmetry_space_group_name_H-M "P 42/N C M"
_symmetry_group_IT_number 138
_space_group.IT_coordinate_system_code '2'
_symmetry_cell_setting 'tetragonal'
loop_
_space_group_symop_operation_xyz
x,y,z
1/2-y,x,1/2+z
1/2-x,1/2-y,z
y,1/2-x,1/2+z
1/2+x,-y,1/2-z
-x,1/2+y,1/2-z
1/2+y,1/2+x,-z
-y,-x,-z
-x,-y,-z
1/2+y,-x,1/2-z
1/2+x,1/2+y,-z
-y,1/2+x,1/2-z
1/2-x,y,1/2+z
x,1/2-y,1/2+z
1/2-y,1/2-x,z
y,x,z
loop_
_atom_site_type_symbol
_atom_site_label
_atom_site_fract_x
_atom_site_fract_y
_atom_site_fract_z
Si Si1 0.076454 0.423547 0.527936
Si Si2 0.936924 0.265610 0.919380
Si Si3 0.982706 0.982706 0.286185
Si Si4 0.586924 0.707882 0.761183
Si Si5 0.620002 0.620002 0.315294
Si Si6 0.398535 0.644481 0.285259
O O1 0.063425 0.338323 0.584830
O O2 0.076360 0.423641 0.337737
O O3 0.025250 0.474751 0.632635
O O4 0.874651 0.313882 0.825500
O O5 0.918641 0.179617 0.881072
O O6 0.018415 0.287484 0.855641
O O7 0.928796 0.293060 0.094672
O O8 0.929940 0.929940 0.424371
O O9 0.055874 0.930566 0.316357
O O10 0.659130 0.659130 0.703010
O O11 0.607547 0.792660 0.803011
#
# Coordination Sequence:
#
# PCOD9570729 Si02
#       6
#     8  16   8  16   8  16
#     4   8  22  38  56  97 134 180 236 269 339 410
#     4  11  26  47  71 107 137 187 232 295 354 420
#     4  10  22  40  69  99 139 182 225 292 343 417
#     4  10  22  39  62  95 137 183 231 275 335 415
#     4  10  19  38  56  94 133 186 221 278 333 407
#     4  11  27  47  75 102 144 182 238 291 360 419
#
# _framework density 26.254059999999999
#
# number of rings (size 3 to 8) (size 9 to 14) (size 15 to 20)
#    1.333    0.444    2.222    0.333    9.333    2.222 
#    4.000    3.333    0.000    0.000    0.000    0.000 
#    0.000    0.000    0.000    0.000    0.000    0.000 
#
# Total GULP energy -402180.623914 kJ/mol
# GULP energy per Si atom -5585.841999 kJ/mol
# Density = 2.619430 g / cm^3
# Si number density = 26.254060 Si / 1000 Ang^3
#
#
#
# Elastic Constant Matrix: (Units=GPa)
#
#
# Indices 1 2 3 4 5 6 
#
# 1 66.3247 72.2795 26.2614 0.0000 0.0000 0.0000
# 2 72.2795 66.3247 26.2614 0.0000 0.0000 0.0000
# 3 26.2614 26.2614 80.9246 0.0000 0.0000 0.0000
# 4 0.0000 0.0000 0.0000 34.6234 0.0000 0.0000
# 5 0.0000 0.0000 0.0000 0.0000 34.6234 0.0000
# 6 0.0000 0.0000 0.0000 0.0000 0.0000 49.6525
#
#
#
# Elastic Compliance Matrix: (Units=1/GPa)
#
#
# Indices 1 2 3 4 5 6 
#
# 1 -0.079852 0.088079 -0.002670 0.000000 0.000000 0.000000
# 2 0.088079 -0.079852 -0.002670 0.000000 0.000000 0.000000
# 3 -0.002670 -0.002670 0.014090 0.000000 0.000000 0.000000
# 4 0.000000 0.000000 0.000000 0.028882 0.000000 0.000000
# 5 0.000000 0.000000 0.000000 0.000000 0.028882 0.000000
# 6 0.000000 0.000000 0.000000 0.000000 0.000000 0.020140
#
#
# Mechanical properties :
#
#
# Convention : Reuss Voigt Hill
#
# Bulk Modulus (GPa) = 50.34175 51.46430 50.90302
# Shear Modulus (GPa) = -22.06842 29.69797 3.81477
#
# Velocity S-wave (km/s) = -2.90241 3.36694 1.20672
# Velocity P-wave (km/s) = 2.82569 5.89577 4.62302
#
# Compressibility (1/GPa) = 0.01986423
#
# Stress axis : x y z
#
# Youngs Moduli (GPa) = -12.52312 -12.52312 70.97309
#
# Poissons Ratio (x) = 1.10302 0.18947
# Poissons Ratio (y) = 1.10302 0.18947
# Poissons Ratio (z) = -0.03343 -0.03343
#
# Static dielectric constant tensor:
#      x y z
#    x 2.014670 0.000000 0.000000 
#    y 0.000000 2.014670 0.000000 
#    z 0.000000 0.000000 2.206010 
# 
# From -- ./inp_files/2889.got.cif
#   From: 2010.05.17/outbox.cif.g08.bks.cpg/sg138_2_cif.got.tgz:2889.got - 2010.05.20 13:08:53.
