data_PCOD9570028
_publ_section_title
;
Structure prediction by ZEFSAII (Michael W. Deem and Ramdas Pophale) SiO2 
 PCOD9570028
Probable space group: P 42/N M C
;
_chemical_formula_sum "Si O2"
_cell_formula_units_Z 112
_cell_length_a 17.715529
_cell_length_b 17.715529
_cell_length_c 20.948147
_cell_angle_alpha 90.000000
_cell_angle_beta 90.000000
_cell_angle_gamma 90.000000
_cell_volume 6574.365779
_symmetry_space_group_name_H-M "P 42/N M C"
_symmetry_group_IT_number 137
_space_group.IT_coordinate_system_code '2'
_symmetry_cell_setting 'tetragonal'
loop_
_space_group_symop_operation_xyz
x,y,z
1/2-y,x,1/2+z
1/2-x,1/2-y,z
y,1/2-x,1/2+z
1/2+x,-y,-z
-x,1/2+y,-z
1/2+y,1/2+x,1/2-z
-y,-x,1/2-z
-x,-y,-z
1/2+y,-x,1/2-z
1/2+x,1/2+y,-z
-y,1/2+x,1/2-z
1/2-x,y,z
x,1/2-y,z
1/2-y,1/2-x,1/2+z
y,x,1/2+z
loop_
_atom_site_type_symbol
_atom_site_label
_atom_site_fract_x
_atom_site_fract_y
_atom_site_fract_z
Si Si1 0.583031 0.470683 0.478607
Si Si2 0.831480 0.859587 0.051688
Si Si3 0.895794 0.836021 0.914273
Si Si4 0.470958 0.836916 0.598097
Si Si5 0.165421 0.008853 0.392563
Si Si6 0.456499 0.443458 0.297434
Si Si7 0.660250 0.663866 0.274883
O O1 0.500000 0.500000 0.500000
O O2 0.611760 0.532354 0.427611
O O3 0.581002 0.388615 0.446741
O O4 0.636787 0.474080 0.540486
O O5 0.750000 0.832891 0.073717
O O6 0.901635 0.830358 0.091826
O O7 0.832963 0.949410 0.060789
O O8 0.845235 0.841340 0.977822
O O9 0.923238 0.750000 0.909107
O O10 0.850147 0.852842 0.850328
O O11 0.447730 0.750000 0.611239
O O12 0.491002 0.888554 0.659492
O O13 0.250000 0.983177 0.374684
O O14 0.097398 0.003941 0.341826
O O15 0.506756 0.493245 0.250000
O O16 0.397887 0.388732 0.261372
O O17 0.750000 0.653912 0.262645
O O18 0.640040 0.750000 0.257946
#
# Coordination Sequence:
#
# PCOD9570028 Si02
#       7
#    16  16  16  16  16  16  16
#     4  11  17  33  55  77 103 135 170 219 270 324
#     4   9  16  27  46  73 106 138 165 202 259 327
#     4  10  19  30  47  73 104 139 175 216 267 320
#     4  10  20  33  51  79 106 131 172 221 268 317
#     4  10  21  34  51  78 107 137 174 221 272 324
#     4  11  21  35  55  74 107 152 190 221 257 315
#     4  10  21  34  49  74 111 149 183 221 270 332
#
# _framework density 17.035864
#
# number of rings (size 3 to 8) (size 9 to 14) (size 15 to 20)
#    0.000    1.857    4.286    3.857    0.000    2.286 
#    0.000    0.000    0.000    1.714    0.000    0.000 
#    0.000    6.286    0.000    0.000    0.000    0.000 
#
# Total GULP energy -624370.294484 kJ/mol
# GULP energy per Si atom -5574.734772 kJ/mol
# Density = 1.699709 g / cm^3
# Si number density = 17.035864 Si / 1000 Ang^3
#
#
#
# Elastic Constant Matrix: (Units=GPa)
#
#
# Indices 1 2 3 4 5 6 
#
# 1 83.4275 48.6886 35.6060 0.0000 0.0000 0.0000
# 2 48.6886 83.4279 35.6063 0.0000 0.0000 0.0000
# 3 35.6060 35.6063 74.2577 0.0000 0.0000 0.0000
# 4 0.0000 0.0000 0.0000 14.4224 0.0000 0.0000
# 5 0.0000 0.0000 0.0000 0.0000 14.4228 0.0000
# 6 0.0000 0.0000 0.0000 0.0000 0.0000 17.5851
#
#
#
# Elastic Compliance Matrix: (Units=1/GPa)
#
#
# Indices 1 2 3 4 5 6 
#
# 1 0.019497 -0.009289 -0.004894 0.000000 0.000000 0.000000
# 2 -0.009289 0.019497 -0.004894 0.000000 0.000000 0.000000
# 3 -0.004894 -0.004894 0.018160 0.000000 0.000000 0.000000
# 4 0.000000 0.000000 0.000000 0.069337 0.000000 0.000000
# 5 0.000000 0.000000 0.000000 0.000000 0.069335 0.000000
# 6 0.000000 0.000000 0.000000 0.000000 0.000000 0.056866
#
#
# Mechanical properties :
#
#
# Convention : Reuss Voigt Hill
#
# Bulk Modulus (GPa) = 52.63882 53.43500 53.03691
# Shear Modulus (GPa) = 16.82483 17.36685 17.09584
#
# Velocity S-wave (km/s) = 3.14604 3.19631 3.17128
# Velocity P-wave (km/s) = 6.64550 6.71239 6.67903
#
# Compressibility (1/GPa) = 0.01899739
#
# Stress axis : x y z
#
# Youngs Moduli (GPa) = 51.29097 51.29100 55.06556
#
# Poissons Ratio (x) = 0.47646 0.26950
# Poissons Ratio (y) = 0.47646 0.26951
# Poissons Ratio (z) = 0.25103 0.25104
#
# Static dielectric constant tensor:
#      x y z
#    x 1.606450 0.000000 0.000000 
#    y 0.000000 1.606440 0.000000 
#    z 0.000000 0.000000 1.606290 
# 
# From -- ./inp_files/8123.got.cif
#   From: 2010.05.17/outbox.cif.g08.bks.cpg/sg137_5_cif.got.tgz:8123.got - 2010.05.20 13:01:12.
