data_PCOD9570398
_publ_section_title
;
Structure prediction by ZEFSAII (Michael W. Deem and Ramdas Pophale) SiO2 
 PCOD9570398
Probable space group: P 42/N M C
;
_chemical_formula_sum "Si O2"
_cell_formula_units_Z 72
_cell_length_a 19.651654
_cell_length_b 19.651654
_cell_length_c 9.895559
_cell_angle_alpha 90.000000
_cell_angle_beta 90.000000
_cell_angle_gamma 90.000000
_cell_volume 3821.541240
_symmetry_space_group_name_H-M "P 42/N M C"
_symmetry_group_IT_number 137
_space_group.IT_coordinate_system_code '2'
_symmetry_cell_setting 'tetragonal'
loop_
_space_group_symop_operation_xyz
x,y,z
1/2-y,x,1/2+z
1/2-x,1/2-y,z
y,1/2-x,1/2+z
1/2+x,-y,-z
-x,1/2+y,-z
1/2+y,1/2+x,1/2-z
-y,-x,1/2-z
-x,-y,-z
1/2+y,-x,1/2-z
1/2+x,1/2+y,-z
-y,1/2+x,1/2-z
1/2-x,y,z
x,1/2-y,z
1/2-y,1/2-x,1/2+z
y,x,1/2+z
loop_
_atom_site_type_symbol
_atom_site_label
_atom_site_fract_x
_atom_site_fract_y
_atom_site_fract_z
Si Si1 0.530111 0.053920 0.894568
Si Si2 0.828625 0.596252 0.986202
Si Si3 0.172092 0.827909 0.750000
Si Si4 0.827301 0.441624 0.018972
Si Si5 0.429938 0.169768 0.826107
O O1 0.520182 0.020182 0.750000
O O2 0.609605 0.068232 0.919336
O O3 0.490578 0.124786 0.887078
O O4 0.500000 0.000000 0.000000
O O5 0.750000 0.615299 0.980071
O O6 0.833944 0.521652 0.056671
O O7 0.851277 0.586167 0.829761
O O8 0.868607 0.650413 0.074459
O O9 0.250000 0.833551 0.695053
O O10 0.112828 0.834779 0.638999
O O11 0.750000 0.434364 0.963488
O O12 0.444207 0.250000 0.824737
#
# Coordination Sequence:
#
# PCOD9570398 Si02
#       5
#    16  16   8  16  16
#     4  12  23  38  63  90 123 163 205 253 311 367
#     4  10  22  41  63  90 127 165 201 251 311 368
#     4   9  20  38  60  90 126 166 210 254 301 364
#     4  10  21  38  62  87 124 165 204 253 309 367
#     4  11  23  41  63  92 123 161 209 254 304 370
#
# _framework density 18.840565999999999
#
# number of rings (size 3 to 8) (size 9 to 14) (size 15 to 20)
#    0.000    1.444    4.444    0.000    1.556    4.000 
#    0.000    4.444    0.000    0.000    0.000    0.000 
#    0.000    0.000    0.000    0.000    0.000    0.000 
#
# Total GULP energy -401392.987658 kJ/mol
# GULP energy per Si atom -5574.902606 kJ/mol
# Density = 1.879768 g / cm^3
# Si number density = 18.840566 Si / 1000 Ang^3
#
#
#
# Elastic Constant Matrix: (Units=GPa)
#
#
# Indices 1 2 3 4 5 6 
#
# 1 89.8965 30.7676 56.6071 0.0000 0.0000 0.0000
# 2 30.7676 89.8956 56.6077 0.0000 0.0000 0.0000
# 3 56.6071 56.6077 105.3895 0.0000 0.0000 0.0000
# 4 0.0000 0.0000 0.0000 30.0685 0.0000 0.0000
# 5 0.0000 0.0000 0.0000 0.0000 30.0681 0.0000
# 6 0.0000 0.0000 0.0000 0.0000 0.0000 29.0623
#
#
#
# Elastic Compliance Matrix: (Units=1/GPa)
#
#
# Indices 1 2 3 4 5 6 
#
# 1 0.016810 -0.000102 -0.008974 0.000000 0.000000 0.000000
# 2 -0.000102 0.016810 -0.008974 0.000000 0.000000 0.000000
# 3 -0.008974 -0.008974 0.019129 0.000000 0.000000 0.000000
# 4 0.000000 0.000000 0.000000 0.033257 0.000000 0.000000
# 5 0.000000 0.000000 0.000000 0.000000 0.033258 0.000000
# 6 0.000000 0.000000 0.000000 0.000000 0.000000 0.034409
#
#
# Mechanical properties :
#
#
# Convention : Reuss Voigt Hill
#
# Bulk Modulus (GPa) = 60.06766 63.68295 61.87531
# Shear Modulus (GPa) = 25.59856 27.25304 26.42580
#
# Velocity S-wave (km/s) = 3.69005 3.80743 3.74919
# Velocity P-wave (km/s) = 7.07860 7.29404 7.18713
#
# Compressibility (1/GPa) = 0.01664789
#
# Stress axis : x y z
#
# Youngs Moduli (GPa) = 59.48932 59.48775 52.27652
#
# Poissons Ratio (x) = 0.00609 0.46913
# Poissons Ratio (y) = 0.00609 0.46914
# Poissons Ratio (z) = 0.53385 0.53386
#
# Static dielectric constant tensor:
#      x y z
#    x 1.672720 0.000000 0.000000 
#    y 0.000000 1.672720 0.000000 
#    z 0.000000 0.000000 1.652700 
# 
# From -- ./inp_files/1955.got.cif
#   From: 2010.05.17/outbox.cif.g08.bks.cpg/sg137_1_cif.got.tgz:1955.got - 2010.05.20 13:01:12.
