data_PCOD9570678
_publ_section_title
;
Structure prediction by ZEFSAII (Michael W. Deem and Ramdas Pophale) SiO2 
 PCOD9570678
Probable space group: P 42/N C M
;
_chemical_formula_sum "Si O2"
_cell_formula_units_Z 80
_cell_length_a 16.855284
_cell_length_b 16.855284
_cell_length_c 15.782391
_cell_angle_alpha 90.000000
_cell_angle_beta 90.000000
_cell_angle_gamma 90.000000
_cell_volume 4483.786732
_symmetry_space_group_name_H-M "P 42/N C M"
_symmetry_group_IT_number 138
_space_group.IT_coordinate_system_code '2'
_symmetry_cell_setting 'tetragonal'
loop_
_space_group_symop_operation_xyz
x,y,z
1/2-y,x,1/2+z
1/2-x,1/2-y,z
y,1/2-x,1/2+z
1/2+x,-y,1/2-z
-x,1/2+y,1/2-z
1/2+y,1/2+x,-z
-y,-x,-z
-x,-y,-z
1/2+y,-x,1/2-z
1/2+x,1/2+y,-z
-y,1/2+x,1/2-z
1/2-x,y,1/2+z
x,1/2-y,1/2+z
1/2-y,1/2-x,z
y,x,z
loop_
_atom_site_type_symbol
_atom_site_label
_atom_site_fract_x
_atom_site_fract_y
_atom_site_fract_z
Si Si1 0.058993 0.312071 0.549779
Si Si2 0.422479 0.640936 0.619261
Si Si3 0.861469 0.986936 0.447794
Si Si4 0.408736 0.818542 0.571938
Si Si5 0.465674 0.594932 0.805957
O O1 0.139136 0.360865 0.532476
O O2 0.063560 0.218028 0.562384
O O3 0.994618 0.322661 0.474391
O O4 0.019098 0.350175 0.633127
O O5 0.359026 0.571099 0.600854
O O6 0.488807 0.628856 0.546252
O O7 0.392013 0.729716 0.603087
O O8 0.456402 0.629552 0.712437
O O9 0.936993 0.936993 0.418832
O O10 0.347312 0.847312 0.500000
O O11 0.409457 0.880741 0.648403
O O12 0.510369 0.510369 0.802544
#
# Coordination Sequence:
#
# PCOD9570678 Si02
#       5
#    16  16  16  16  16
#     4   9  19  35  56  81 108 140 182 226 271 324
#     4  10  20  34  55  80 108 143 185 222 274 330
#     4  10  20  36  56  76 107 145 182 224 274 327
#     4   9  19  36  56  77 111 146 181 222 273 331
#     4  10  19  33  56  81 108 143 182 226 273 326
#
# _framework density 17.842061000000001
#
# number of rings (size 3 to 8) (size 9 to 14) (size 15 to 20)
#    0.000    2.400    0.000    3.000    2.800    2.800 
#    0.000   17.000    0.000    0.000    0.000    2.800 
#    0.000    0.000    0.000    0.000    0.000    0.000 
#
# Total GULP energy -446083.213456 kJ/mol
# GULP energy per Si atom -5576.040168 kJ/mol
# Density = 1.780145 g / cm^3
# Si number density = 17.842061 Si / 1000 Ang^3
#
#
#
# Elastic Constant Matrix: (Units=GPa)
#
#
# Indices 1 2 3 4 5 6 
#
# 1 96.3418 54.1342 21.7012 0.0000 0.0000 0.0000
# 2 54.1342 96.3418 21.7012 0.0000 0.0000 0.0000
# 3 21.7012 21.7012 81.7150 0.0000 0.0000 0.0000
# 4 0.0000 0.0000 0.0000 12.9011 0.0000 0.0000
# 5 0.0000 0.0000 0.0000 0.0000 12.9011 0.0000
# 6 0.0000 0.0000 0.0000 0.0000 0.0000 19.1040
#
#
#
# Elastic Compliance Matrix: (Units=1/GPa)
#
#
# Indices 1 2 3 4 5 6 
#
# 1 0.015445 -0.008248 -0.001911 0.000000 0.000000 0.000000
# 2 -0.008248 0.015445 -0.001911 0.000000 0.000000 0.000000
# 3 -0.001911 -0.001911 0.013253 0.000000 0.000000 0.000000
# 4 0.000000 0.000000 0.000000 0.077513 0.000000 0.000000
# 5 0.000000 0.000000 0.000000 0.000000 0.077513 0.000000
# 6 0.000000 0.000000 0.000000 0.000000 0.000000 0.052345
#
#
# Mechanical properties :
#
#
# Convention : Reuss Voigt Hill
#
# Bulk Modulus (GPa) = 49.99650 52.16356 51.08003
# Shear Modulus (GPa) = 17.71039 20.77205 19.24122
#
# Velocity S-wave (km/s) = 3.15401 3.41577 3.28749
# Velocity P-wave (km/s) = 6.43010 6.69749 6.56516
#
# Compressibility (1/GPa) = 0.02000140
#
# Stress axis : x y z
#
# Youngs Moduli (GPa) = 64.74745 64.74745 75.45560
#
# Poissons Ratio (x) = 0.53402 0.14422
# Poissons Ratio (y) = 0.53402 0.14422
# Poissons Ratio (z) = 0.12375 0.12375
#
# Static dielectric constant tensor:
#      x y z
#    x 1.616120 0.000000 0.000000 
#    y 0.000000 1.616120 0.000000 
#    z 0.000000 0.000000 1.587630 
# 
# From -- ./inp_files/4055.got.cif
#   From: 2010.05.17/outbox.cif.g08.bks.cpg/sg138_3_cif.got.tgz:4055.got - 2010.05.20 13:08:53.
