data_PCOD9570068
_publ_section_title
;
Structure prediction by ZEFSAII (Michael W. Deem and Ramdas Pophale) SiO2 
 PCOD9570068
Probable space group: P 42/N M C
;
_chemical_formula_sum "Si O2"
_cell_formula_units_Z 32
_cell_length_a 7.510136
_cell_length_b 7.510136
_cell_length_c 28.804172
_cell_angle_alpha 90.000000
_cell_angle_beta 90.000000
_cell_angle_gamma 90.000000
_cell_volume 1624.617021
_symmetry_space_group_name_H-M "P 42/N M C"
_symmetry_group_IT_number 137
_space_group.IT_coordinate_system_code '2'
_symmetry_cell_setting 'tetragonal'
loop_
_space_group_symop_operation_xyz
x,y,z
1/2-y,x,1/2+z
1/2-x,1/2-y,z
y,1/2-x,1/2+z
1/2+x,-y,-z
-x,1/2+y,-z
1/2+y,1/2+x,1/2-z
-y,-x,1/2-z
-x,-y,-z
1/2+y,-x,1/2-z
1/2+x,1/2+y,-z
-y,1/2+x,1/2-z
1/2-x,y,z
x,1/2-y,z
1/2-y,1/2-x,1/2+z
y,x,1/2+z
loop_
_atom_site_type_symbol
_atom_site_label
_atom_site_fract_x
_atom_site_fract_y
_atom_site_fract_z
Si Si1 0.533969 0.750000 0.879096
Si Si2 0.036189 0.553997 0.052974
Si Si3 0.030676 0.250000 0.230308
O O1 0.750000 0.750000 0.881732
O O2 0.468858 0.581802 0.908583
O O3 0.494109 0.750000 0.824989
O O4 0.250000 0.558183 0.057329
O O5 0.964457 0.750000 0.060732
O O6 0.000000 0.500000 0.000000
O O7 0.250000 0.250000 0.237716
O O8 0.924776 0.424776 0.250000
#
# Coordination Sequence:
#
# PCOD9570068 Si02
#       3
#     8  16   8
#     4   9  19  37  59  80 117 163 200 259 329 385
#     4  10  19  32  52  80 116 157 200 243 301 380
#     4  10  23  45  70  97 133 170 227 295 342 402
#
# _framework density 19.696949
#
# number of rings (size 3 to 8) (size 9 to 14) (size 15 to 20)
#    0.000    2.250    2.500    0.000    0.000    2.500 
#    9.000    5.000    0.000    0.000    0.000    0.000 
#    0.000    0.000    0.000    0.000    0.000    0.000 
#
# Total GULP energy -178422.180833 kJ/mol
# GULP energy per Si atom -5575.693151 kJ/mol
# Density = 1.965212 g / cm^3
# Si number density = 19.696949 Si / 1000 Ang^3
#
#
#
# Elastic Constant Matrix: (Units=GPa)
#
#
# Indices 1 2 3 4 5 6 
#
# 1 143.5871 48.4870 73.9311 0.0000 0.0000 0.0000
# 2 48.4870 143.5871 73.9311 0.0000 0.0000 0.0000
# 3 73.9311 73.9311 194.0174 0.0000 0.0000 0.0000
# 4 0.0000 0.0000 0.0000 33.2702 0.0000 0.0000
# 5 0.0000 0.0000 0.0000 0.0000 33.2702 0.0000
# 6 0.0000 0.0000 0.0000 0.0000 0.0000 15.7064
#
#
#
# Elastic Compliance Matrix: (Units=1/GPa)
#
#
# Indices 1 2 3 4 5 6 
#
# 1 0.008941 -0.001574 -0.002807 0.000000 0.000000 0.000000
# 2 -0.001574 0.008941 -0.002807 0.000000 0.000000 0.000000
# 3 -0.002807 -0.002807 0.007294 0.000000 0.000000 0.000000
# 4 0.000000 0.000000 0.000000 0.030057 0.000000 0.000000
# 5 0.000000 0.000000 0.000000 0.000000 0.030057 0.000000
# 6 0.000000 0.000000 0.000000 0.000000 0.000000 0.063668
#
#
# Mechanical properties :
#
#
# Convention : Reuss Voigt Hill
#
# Bulk Modulus (GPa) = 92.60036 97.09890 94.84963
# Shear Modulus (GPa) = 29.95160 35.43883 32.69522
#
# Velocity S-wave (km/s) = 3.90375 4.24630 4.07862
# Velocity P-wave (km/s) = 8.21179 8.57000 8.39281
#
# Compressibility (1/GPa) = 0.01079909
#
# Stress axis : x y z
#
# Youngs Moduli (GPa) = 111.83949 111.83949 137.10384
#
# Poissons Ratio (x) = 0.17602 0.38491
# Poissons Ratio (y) = 0.17602 0.38491
# Poissons Ratio (z) = 0.31398 0.31398
#
# Static dielectric constant tensor:
#      x y z
#    x 1.721980 0.000000 0.000000 
#    y 0.000000 1.721980 0.000000 
#    z 0.000000 0.000000 1.642780 
# 
# From -- ./inp_files/6937.got.cif
#   From: 2010.05.17/outbox.cif.g08.bks.cpg/sg137_4_cif.got.tgz:6937.got - 2010.05.20 13:01:12.
