data_PCOD9570857
_publ_section_title
;
Structure prediction by ZEFSAII (Michael W. Deem and Ramdas Pophale) SiO2 
 PCOD9570857
Probable space group: P 42/N C M
;
_chemical_formula_sum "Si O2"
_cell_formula_units_Z 56
_cell_length_a 11.411627
_cell_length_b 11.411627
_cell_length_c 23.902861
_cell_angle_alpha 90.000000
_cell_angle_beta 90.000000
_cell_angle_gamma 90.000000
_cell_volume 3112.755590
_symmetry_space_group_name_H-M "P 42/N C M"
_symmetry_group_IT_number 138
_space_group.IT_coordinate_system_code '2'
_symmetry_cell_setting 'tetragonal'
loop_
_space_group_symop_operation_xyz
x,y,z
1/2-y,x,1/2+z
1/2-x,1/2-y,z
y,1/2-x,1/2+z
1/2+x,-y,1/2-z
-x,1/2+y,1/2-z
1/2+y,1/2+x,-z
-y,-x,-z
-x,-y,-z
1/2+y,-x,1/2-z
1/2+x,1/2+y,-z
-y,1/2+x,1/2-z
1/2-x,y,1/2+z
x,1/2-y,1/2+z
1/2-y,1/2-x,z
y,x,z
loop_
_atom_site_type_symbol
_atom_site_label
_atom_site_fract_x
_atom_site_fract_y
_atom_site_fract_z
Si Si1 0.986823 0.702243 0.139584
Si Si2 0.150326 0.150326 0.775231
Si Si3 0.344268 0.344268 0.550641
Si Si4 0.452351 0.047650 0.162583
Si Si5 0.243659 0.562354 0.482741
O O1 0.865146 0.634854 0.123290
O O2 0.952753 0.792866 0.187483
O O3 0.063271 0.593518 0.162300
O O4 0.040930 0.754099 0.083636
O O5 0.250000 0.250000 0.767624
O O6 0.106006 0.106006 0.715842
O O7 0.250000 0.250000 0.570153
O O8 0.404381 0.404381 0.604051
O O9 0.278925 0.443116 0.513993
O O10 0.121397 0.621397 0.500000
O O11 0.344938 0.655063 0.500000
#
# Coordination Sequence:
#
# PCOD9570857 Si02
#       5
#    16   8   8   8  16
#     4   9  19  38  63  81 120 164 198 250 314 375
#     4  10  21  39  63  88 109 163 210 257 301 372
#     4  12  23  38  63  89 129 162 200 263 314 370
#     4  10  20  41  60  84 123 160 203 250 316 372
#     4  11  21  39  64  93 125 160 209 255 321 385
#
# _framework density 17.990492
#
# number of rings (size 3 to 8) (size 9 to 14) (size 15 to 20)
#    0.857    0.857    4.286    0.857    2.000    0.571 
#    5.143    0.000    0.000    0.000    0.000    0.000 
#    0.000    0.000    0.000    0.000    0.000    0.000 
#
# Total GULP energy -312192.499325 kJ/mol
# GULP energy per Si atom -5574.866059 kJ/mol
# Density = 1.794954 g / cm^3
# Si number density = 17.990492 Si / 1000 Ang^3
#
#
#
# Elastic Constant Matrix: (Units=GPa)
#
#
# Indices 1 2 3 4 5 6 
#
# 1 46.9628 65.7165 49.4838 0.0000 0.0000 0.0000
# 2 65.7165 46.9625 49.4827 0.0000 0.0000 0.0000
# 3 49.4838 49.4827 157.4248 0.0000 0.0000 0.0000
# 4 0.0000 0.0000 0.0000 29.2569 0.0000 0.0000
# 5 0.0000 0.0000 0.0000 0.0000 29.2579 0.0000
# 6 0.0000 0.0000 0.0000 0.0000 0.0000 36.8774
#
#
#
# Elastic Compliance Matrix: (Units=1/GPa)
#
#
# Indices 1 2 3 4 5 6 
#
# 1 -0.020532 0.032791 -0.003853 0.000000 0.000000 0.000000
# 2 0.032791 -0.020531 -0.003854 0.000000 0.000000 0.000000
# 3 -0.003853 -0.003854 0.008775 0.000000 0.000000 0.000000
# 4 0.000000 0.000000 0.000000 0.034180 0.000000 0.000000
# 5 0.000000 0.000000 0.000000 0.000000 0.034179 0.000000
# 6 0.000000 0.000000 0.000000 0.000000 0.000000 0.027117
#
#
# Mechanical properties :
#
#
# Convention : Reuss Voigt Hill
#
# Bulk Modulus (GPa) = 55.93005 64.52398 60.22702
# Shear Modulus (GPa) = 263.44905 24.85625 144.15265
#
# Velocity S-wave (km/s) = 12.11428 3.72106 8.96109
# Velocity P-wave (km/s) = 15.06090 7.37599 11.85824
#
# Compressibility (1/GPa) = 0.01787948
#
# Stress axis : x y z
#
# Youngs Moduli (GPa) = -48.70502 -48.70569 113.96357
#
# Poissons Ratio (x) = 1.59710 0.43913
# Poissons Ratio (y) = 1.59708 0.43918
# Poissons Ratio (z) = -0.18767 -0.18770
#
# Static dielectric constant tensor:
#      x y z
#    x 1.630510 0.000000 0.000000 
#    y 0.000000 1.630520 0.000000 
#    z 0.000000 0.000000 1.565610 
# 
# From -- ./inp_files/5772.got.cif
#   From: 2010.05.17/outbox.cif.g08.bks.cpg/sg138_3_cif.got.tgz:5772.got - 2010.05.20 13:08:53.
