data_PCOD9570044
_publ_section_title
;
Structure prediction by ZEFSAII (Michael W. Deem and Ramdas Pophale) SiO2 
 PCOD9570044
Probable space group: P 42/N M C
;
_chemical_formula_sum "Si O2"
_cell_formula_units_Z 96
_cell_length_a 17.835175
_cell_length_b 17.835175
_cell_length_c 19.021908
_cell_angle_alpha 90.000000
_cell_angle_beta 90.000000
_cell_angle_gamma 90.000000
_cell_volume 6050.744670
_symmetry_space_group_name_H-M "P 42/N M C"
_symmetry_group_IT_number 137
_space_group.IT_coordinate_system_code '2'
_symmetry_cell_setting 'tetragonal'
loop_
_space_group_symop_operation_xyz
x,y,z
1/2-y,x,1/2+z
1/2-x,1/2-y,z
y,1/2-x,1/2+z
1/2+x,-y,-z
-x,1/2+y,-z
1/2+y,1/2+x,1/2-z
-y,-x,1/2-z
-x,-y,-z
1/2+y,-x,1/2-z
1/2+x,1/2+y,-z
-y,1/2+x,1/2-z
1/2-x,y,z
x,1/2-y,z
1/2-y,1/2-x,1/2+z
y,x,1/2+z
loop_
_atom_site_type_symbol
_atom_site_label
_atom_site_fract_x
_atom_site_fract_y
_atom_site_fract_z
Si Si1 0.044187 0.086719 0.125795
Si Si2 0.338364 0.411363 0.232569
Si Si3 0.659954 0.750000 0.539304
Si Si4 0.750000 0.660847 0.198439
Si Si5 0.459330 0.839036 0.743075
Si Si6 0.443171 0.447442 0.350030
Si Si7 0.659574 0.584561 0.515197
O O1 0.128917 0.082761 0.154840
O O2 0.001130 0.135107 0.185320
O O3 0.039941 0.126596 0.050799
O O4 0.009536 0.003586 0.127868
O O5 0.250000 0.424903 0.238588
O O6 0.354647 0.326437 0.260343
O O7 0.389402 0.463209 0.283097
O O8 0.750000 0.750000 0.545500
O O9 0.629076 0.750000 0.619439
O O10 0.642345 0.672468 0.502230
O O11 0.750000 0.750000 0.190150
O O12 0.377911 0.877911 0.750000
O O13 0.458762 0.750000 0.735703
O O14 0.503816 0.879494 0.678795
O O15 0.386060 0.432554 0.413659
O O16 0.750000 0.575088 0.523199
#
# Coordination Sequence:
#
# PCOD9570044 Si02
#       7
#    16  16   8   8  16  16  16
#     4  10  22  33  46  71 104 130 156 206 250 289
#     4  10  19  31  50  72  97 129 161 195 237 287
#     4   9  18  30  44  72  96 121 161 195 226 278
#     4   9  16  28  46  70  94 125 161 189 224 284
#     4   9  19  34  52  72  94 127 165 204 248 287
#     4  10  20  34  50  68  97 135 167 196 237 296
#     4  11  21  32  50  71  99 133 166 201 236 288
#
# _framework density 15.865817
#
# number of rings (size 3 to 8) (size 9 to 14) (size 15 to 20)
#    0.000    2.167    1.667    3.000    8.167    0.167 
#    0.000    0.000    0.000    0.000    0.000    0.000 
#    0.000   12.667    0.000    0.000    0.000    0.000 
#
# Total GULP energy -534435.408011 kJ/mol
# GULP energy per Si atom -5567.035500 kJ/mol
# Density = 1.582971 g / cm^3
# Si number density = 15.865817 Si / 1000 Ang^3
#
#
#
# Elastic Constant Matrix: (Units=GPa)
#
#
# Indices 1 2 3 4 5 6 
#
# 1 82.4635 34.9091 28.5297 0.0000 0.0000 0.0000
# 2 34.9091 82.4635 28.5297 0.0000 0.0000 0.0000
# 3 28.5297 28.5297 92.6948 0.0000 0.0000 0.0000
# 4 0.0000 0.0000 0.0000 14.5362 0.0000 0.0000
# 5 0.0000 0.0000 0.0000 0.0000 14.5362 0.0000
# 6 0.0000 0.0000 0.0000 0.0000 0.0000 20.2080
#
#
#
# Elastic Compliance Matrix: (Units=1/GPa)
#
#
# Indices 1 2 3 4 5 6 
#
# 1 0.015524 -0.005505 -0.003084 0.000000 0.000000 0.000000
# 2 -0.005505 0.015524 -0.003084 0.000000 0.000000 0.000000
# 3 -0.003084 -0.003084 0.012686 0.000000 0.000000 0.000000
# 4 0.000000 0.000000 0.000000 0.068794 0.000000 0.000000
# 5 0.000000 0.000000 0.000000 0.000000 0.068794 0.000000
# 6 0.000000 0.000000 0.000000 0.000000 0.000000 0.049485
#
#
# Mechanical properties :
#
#
# Convention : Reuss Voigt Hill
#
# Bulk Modulus (GPa) = 49.04463 49.06211 49.05337
# Shear Modulus (GPa) = 19.16092 20.89961 20.03026
#
# Velocity S-wave (km/s) = 3.47895 3.63336 3.55699
# Velocity P-wave (km/s) = 6.86416 6.97080 6.91768
#
# Compressibility (1/GPa) = 0.02038959
#
# Stress axis : x y z
#
# Youngs Moduli (GPa) = 64.41742 64.41742 78.82541
#
# Poissons Ratio (x) = 0.35460 0.24307
# Poissons Ratio (y) = 0.35460 0.24307
# Poissons Ratio (z) = 0.19864 0.19864
#
# Static dielectric constant tensor:
#      x y z
#    x 1.549940 0.000000 0.000000 
#    y 0.000000 1.549940 0.000000 
#    z 0.000000 0.000000 1.544990 
# 
# From -- ./inp_files/6550.got.cif
#   From: 2010.05.17/outbox.cif.g08.bks.cpg/sg137_4_cif.got.tgz:6550.got - 2010.05.20 13:01:12.
