data_PCOD9570628
_publ_section_title
;
Structure prediction by ZEFSAII (Michael W. Deem and Ramdas Pophale) SiO2 
 PCOD9570628
Probable space group: P 42/N C M
;
_chemical_formula_sum "Si O2"
_cell_formula_units_Z 60
_cell_length_a 16.430858
_cell_length_b 16.430858
_cell_length_c 9.861912
_cell_angle_alpha 90.000000
_cell_angle_beta 90.000000
_cell_angle_gamma 90.000000
_cell_volume 2662.450901
_symmetry_space_group_name_H-M "P 42/N C M"
_symmetry_group_IT_number 138
_space_group.IT_coordinate_system_code '2'
_symmetry_cell_setting 'tetragonal'
loop_
_space_group_symop_operation_xyz
x,y,z
1/2-y,x,1/2+z
1/2-x,1/2-y,z
y,1/2-x,1/2+z
1/2+x,-y,1/2-z
-x,1/2+y,1/2-z
1/2+y,1/2+x,-z
-y,-x,-z
-x,-y,-z
1/2+y,-x,1/2-z
1/2+x,1/2+y,-z
-y,1/2+x,1/2-z
1/2-x,y,1/2+z
x,1/2-y,1/2+z
1/2-y,1/2-x,z
y,x,z
loop_
_atom_site_type_symbol
_atom_site_label
_atom_site_fract_x
_atom_site_fract_y
_atom_site_fract_z
Si Si1 0.250000 0.250000 0.891850
Si Si2 0.489934 0.010067 0.837804
Si Si3 0.836827 0.836827 0.358570
Si Si4 0.936108 0.936108 0.928929
Si Si5 0.695509 0.441737 0.020825
Si Si6 0.676197 0.027086 0.817371
O O1 0.302006 0.197995 0.000430
O O2 0.301808 0.301808 0.783036
O O3 0.580123 0.039610 0.796225
O O4 0.435799 0.064202 0.735834
O O5 0.500000 0.000000 0.000000
O O6 0.932351 0.820386 0.354176
O O7 0.973622 0.850620 0.977740
O O8 0.000000 0.000000 0.000000
O O9 0.775970 0.427328 0.934212
O O10 0.630656 0.369345 0.000000
O O11 0.718001 0.451965 0.176601
#
# Coordination Sequence:
#
# PCOD9570628 Si02
#       6
#     4   8   8   8  16  16
#     4  10  20  36  52  80 134 168 192 258 338 400
#     4  11  23  40  66  97 128 163 228 287 327 401
#     4  10  21  37  56  88 123 168 209 262 323 409
#     4  10  18  42  64  88 125 174 215 274 341 393
#     4  11  23  41  66  95 130 177 220 282 348 404
#     4  11  23  39  63  94 126 166 227 274 335 410
#
# _framework density 22.535626000000001
#
# number of rings (size 3 to 8) (size 9 to 14) (size 15 to 20)
#    0.000    1.333    5.333    2.400    3.733    2.133 
#    0.000    0.000    0.000    6.400    0.000    0.000 
#    0.000    0.000    0.000    0.000    0.000    0.000 
#
# Total GULP energy -334925.576377 kJ/mol
# GULP energy per Si atom -5582.092940 kJ/mol
# Density = 2.248433 g / cm^3
# Si number density = 22.535626 Si / 1000 Ang^3
#
#
#
# Elastic Constant Matrix: (Units=GPa)
#
#
# Indices 1 2 3 4 5 6 
#
# 1 24.7643 26.5870 0.3622 0.0000 0.0000 0.0000
# 2 26.5870 24.7633 0.3618 0.0000 0.0000 0.0000
# 3 0.3622 0.3618 141.2565 0.0000 0.0000 0.0000
# 4 0.0000 0.0000 0.0000 33.4468 0.0000 0.0000
# 5 0.0000 0.0000 0.0000 0.0000 33.4473 0.0000
# 6 0.0000 0.0000 0.0000 0.0000 0.0000 13.6538
#
#
#
# Elastic Compliance Matrix: (Units=1/GPa)
#
#
# Indices 1 2 3 4 5 6 
#
# 1 -0.264501 0.283982 -0.000049 0.000000 0.000000 0.000000
# 2 0.283982 -0.264512 -0.000051 0.000000 0.000000 0.000000
# 3 -0.000049 -0.000051 0.007080 0.000000 0.000000 0.000000
# 4 0.000000 0.000000 0.000000 0.029898 0.000000 0.000000
# 5 0.000000 0.000000 0.000000 0.000000 0.029898 0.000000
# 6 0.000000 0.000000 0.000000 0.000000 0.000000 0.073240
#
#
# Mechanical properties :
#
#
# Convention : Reuss Voigt Hill
#
# Bulk Modulus (GPa) = 21.82019 27.26734 24.54377
# Shear Modulus (GPa) = -5.31132 27.00779 10.84823
#
# Velocity S-wave (km/s) = -1.53687 3.46562 2.19642
# Velocity P-wave (km/s) = 2.56013 5.30471 4.16498
#
# Compressibility (1/GPa) = 0.04582912
#
# Stress axis : x y z
#
# Youngs Moduli (GPa) = -3.78070 -3.78054 141.25143
#
# Poissons Ratio (x) = 1.07360 0.00695
# Poissons Ratio (y) = 1.07365 0.00715
# Poissons Ratio (z) = -0.00019 -0.00019
#
# Static dielectric constant tensor:
#      x y z
#    x 1.914700 0.000000 0.000000 
#    y 0.000000 1.914700 0.000000 
#    z 0.000000 0.000000 1.838030 
# 
# From -- ./inp_files/1238.got.cif
#   From: 2010.05.17/outbox.cif.g08.bks.cpg/sg138_1_cif.got.tgz:1238.got - 2010.05.20 13:08:53.
