data_PCOD9570898
_publ_section_title
;
Structure prediction by ZEFSAII (Michael W. Deem and Ramdas Pophale) SiO2 
 PCOD9570898
Probable space group: P 42/N C M
;
_chemical_formula_sum "Si O2"
_cell_formula_units_Z 56
_cell_length_a 17.471066
_cell_length_b 17.471066
_cell_length_c 9.926324
_cell_angle_alpha 90.000000
_cell_angle_beta 90.000000
_cell_angle_gamma 90.000000
_cell_volume 3029.892746
_symmetry_space_group_name_H-M "P 42/N C M"
_symmetry_group_IT_number 138
_space_group.IT_coordinate_system_code '2'
_symmetry_cell_setting 'tetragonal'
loop_
_space_group_symop_operation_xyz
x,y,z
1/2-y,x,1/2+z
1/2-x,1/2-y,z
y,1/2-x,1/2+z
1/2+x,-y,1/2-z
-x,1/2+y,1/2-z
1/2+y,1/2+x,-z
-y,-x,-z
-x,-y,-z
1/2+y,-x,1/2-z
1/2+x,1/2+y,-z
-y,1/2+x,1/2-z
1/2-x,y,1/2+z
x,1/2-y,1/2+z
1/2-y,1/2-x,z
y,x,z
loop_
_atom_site_type_symbol
_atom_site_label
_atom_site_fract_x
_atom_site_fract_y
_atom_site_fract_z
Si Si1 0.090910 0.090910 0.098074
Si Si2 0.396896 0.103105 0.283716
Si Si3 0.986459 0.986459 0.672682
Si Si4 0.019416 0.251728 0.698291
Si Si5 0.669789 0.057638 0.056618
O O1 0.033968 0.033968 0.174075
O O2 0.174310 0.065988 0.149530
O O3 0.086417 0.086417 0.939044
O O4 0.309956 0.078555 0.257806
O O5 0.449129 0.050872 0.185756
O O6 0.015406 0.908792 0.603131
O O7 0.956714 0.276645 0.811829
O O8 0.980615 0.212650 0.568955
O O9 0.639630 0.139630 0.000000
#
# Coordination Sequence:
#
# PCOD9570898 Si02
#       5
#     8   8   8  16  16
#     4  10  23  40  55 101 131 168 206 251 327 387
#     4  12  20  39  64  96 130 167 214 264 318 374
#     4  10  21  36  68  92 123 165 223 268 303 365
#     4  11  23  38  64  94 131 165 204 263 315 384
#     4  11  21  40  62  95 123 163 216 263 317 370
#
# _framework density 18.482502
#
# number of rings (size 3 to 8) (size 9 to 14) (size 15 to 20)
#    0.000    1.143    5.714    1.714    0.000    0.571 
#    0.000    2.857    0.000    2.571    0.000    0.000 
#    0.000    0.000    0.000    0.000    0.000    0.000 
#
# Total GULP energy -312116.312797 kJ/mol
# GULP energy per Si atom -5573.505586 kJ/mol
# Density = 1.844044 g / cm^3
# Si number density = 18.482502 Si / 1000 Ang^3
#
#
#
# Elastic Constant Matrix: (Units=GPa)
#
#
# Indices 1 2 3 4 5 6 
#
# 1 113.1113 4.5071 34.0195 0.0000 0.0000 0.0000
# 2 4.5071 113.1113 34.0195 0.0000 0.0000 0.0000
# 3 34.0195 34.0195 151.1602 0.0000 0.0000 0.0000
# 4 0.0000 0.0000 0.0000 29.1025 0.0000 0.0000
# 5 0.0000 0.0000 0.0000 0.0000 29.1025 0.0000
# 6 0.0000 0.0000 0.0000 0.0000 0.0000 36.1266
#
#
#
# Elastic Compliance Matrix: (Units=1/GPa)
#
#
# Indices 1 2 3 4 5 6 
#
# 1 0.009491 0.000283 -0.002200 0.000000 0.000000 0.000000
# 2 0.000283 0.009491 -0.002200 0.000000 0.000000 0.000000
# 3 -0.002200 -0.002200 0.007606 0.000000 0.000000 0.000000
# 4 0.000000 0.000000 0.000000 0.034361 0.000000 0.000000
# 5 0.000000 0.000000 0.000000 0.000000 0.034361 0.000000
# 6 0.000000 0.000000 0.000000 0.000000 0.000000 0.027680
#
#
# Mechanical properties :
#
#
# Convention : Reuss Voigt Hill
#
# Bulk Modulus (GPa) = 54.47942 58.05279 56.26611
# Shear Modulus (GPa) = 36.40542 39.18874 37.79708
#
# Velocity S-wave (km/s) = 4.44297 4.60968 4.52710
# Velocity P-wave (km/s) = 7.47397 7.73369 7.60494
#
# Compressibility (1/GPa) = 0.01835556
#
# Stress axis : x y z
#
# Youngs Moduli (GPa) = 105.36091 105.36091 131.48081
#
# Poissons Ratio (x) = -0.02986 0.28924
# Poissons Ratio (y) = -0.02986 0.28924
# Poissons Ratio (z) = 0.23178 0.23178
#
# Static dielectric constant tensor:
#      x y z
#    x 1.636540 0.000000 0.000000 
#    y 0.000000 1.636540 0.000000 
#    z 0.000000 0.000000 1.663530 
# 
# From -- ./inp_files/1211.got.cif
#   From: 2010.05.17/outbox.cif.g08.bks.cpg/sg138_1_cif.got.tgz:1211.got - 2010.05.20 13:08:53.
