data_PCOD9570819
_publ_section_title
;
Structure prediction by ZEFSAII (Michael W. Deem and Ramdas Pophale) SiO2 
 PCOD9570819
Probable space group: P 42/N C M
;
_chemical_formula_sum "Si O2"
_cell_formula_units_Z 88
_cell_length_a 10.964865
_cell_length_b 10.964865
_cell_length_c 32.269652
_cell_angle_alpha 90.000000
_cell_angle_beta 90.000000
_cell_angle_gamma 90.000000
_cell_volume 3879.724255
_symmetry_space_group_name_H-M "P 42/N C M"
_symmetry_group_IT_number 138
_space_group.IT_coordinate_system_code '2'
_symmetry_cell_setting 'tetragonal'
loop_
_space_group_symop_operation_xyz
x,y,z
1/2-y,x,1/2+z
1/2-x,1/2-y,z
y,1/2-x,1/2+z
1/2+x,-y,1/2-z
-x,1/2+y,1/2-z
1/2+y,1/2+x,-z
-y,-x,-z
-x,-y,-z
1/2+y,-x,1/2-z
1/2+x,1/2+y,-z
-y,1/2+x,1/2-z
1/2-x,y,1/2+z
x,1/2-y,1/2+z
1/2-y,1/2-x,z
y,x,z
loop_
_atom_site_type_symbol
_atom_site_label
_atom_site_fract_x
_atom_site_fract_y
_atom_site_fract_z
Si Si1 0.355094 0.144907 0.498701
Si Si2 0.954838 0.221912 0.247194
Si Si3 0.148430 0.351571 0.591253
Si Si4 0.861686 0.861686 0.680792
Si Si5 0.452099 0.767351 0.344640
Si Si6 0.829510 0.039043 0.537065
Si Si7 0.220628 0.571790 0.869163
O O1 0.250000 0.250000 0.499676
O O2 0.390096 0.109905 0.545496
O O3 0.467649 0.208652 0.476645
O O4 0.850159 0.117488 0.249510
O O5 0.006892 0.215278 0.200710
O O6 0.053046 0.203596 0.282945
O O7 0.250000 0.250000 0.585875
O O8 0.206350 0.457931 0.618232
O O9 0.933181 0.782111 0.644764
O O10 0.397696 0.631673 0.347277
O O11 0.337741 0.857385 0.352144
O O12 0.871349 0.128652 0.500000
O O13 0.801258 0.093142 0.582154
O O14 0.940758 0.940758 0.541715
#
# Coordination Sequence:
#
# PCOD9570819 Si02
#       7
#     8  16   8   8  16  16  16
#     4   9  20  40  59  94 131 169 217 279 346 400
#     4  11  20  38  61  89 125 167 217 268 338 396
#     4  11  25  42  69  94 130 172 218 275 349 408
#     4  12  21  36  67  89 119 175 223 269 325 415
#     4  11  23  42  61  97 134 168 220 286 342 402
#     4  10  20  36  63  95 131 177 232 283 342 414
#     4  11  22  39  66  95 125 174 230 277 341 413
#
# _framework density 22.682023999999998
#
# number of rings (size 3 to 8) (size 9 to 14) (size 15 to 20)
#    0.000    1.273    4.545    2.727    1.273    2.182 
#    0.000    7.273    0.000    2.182    0.000    0.000 
#    0.000    0.000    0.000    0.000    0.000    0.000 
#
# Total GULP energy -490090.440287 kJ/mol
# GULP energy per Si atom -5569.209549 kJ/mol
# Density = 2.263040 g / cm^3
# Si number density = 22.682024 Si / 1000 Ang^3
#
#
#
# Elastic Constant Matrix: (Units=GPa)
#
#
# Indices 1 2 3 4 5 6 
#
# 1 1.1704 47.2575 3.7265 0.0000 0.0000 0.0000
# 2 47.2575 1.1683 3.7258 0.0000 0.0000 0.0000
# 3 3.7265 3.7258 161.7811 0.0000 0.0000 0.0000
# 4 0.0000 0.0000 0.0000 0.8887 0.0000 0.0000
# 5 0.0000 0.0000 0.0000 0.0000 0.8887 0.0000
# 6 0.0000 0.0000 0.0000 0.0000 0.0000 29.6033
#
#
#
# Elastic Compliance Matrix: (Units=1/GPa)
#
#
# Indices 1 2 3 4 5 6 
#
# 1 -0.000487 0.021210 -0.000477 0.000000 0.000000 0.000000
# 2 0.021210 -0.000488 -0.000477 0.000000 0.000000 0.000000
# 3 -0.000477 -0.000477 0.006203 0.000000 0.000000 0.000000
# 4 0.000000 0.000000 0.000000 1.125192 0.000000 0.000000
# 5 0.000000 0.000000 0.000000 0.000000 1.125269 0.000000
# 6 0.000000 0.000000 0.000000 0.000000 0.000000 0.033780
#
#
# Mechanical properties :
#
#
# Convention : Reuss Voigt Hill
#
# Bulk Modulus (GPa) = 21.86257 30.39326 26.12791
# Shear Modulus (GPa) = 2.20828 13.57015 7.88921
#
# Velocity S-wave (km/s) = 0.98777 2.44863 1.86701
# Velocity P-wave (km/s) = 3.31068 4.62852 4.02391
#
# Compressibility (1/GPa) = 0.04574028
#
# Stress axis : x y z
#
# Youngs Moduli (GPa) = -2054.47186 -2050.54417 161.20769
#
# Poissons Ratio (x) = 43.49276 0.07694
# Poissons Ratio (y) = 43.57607 0.07695
# Poissons Ratio (z) = -0.98051 -0.97879
#
# Static dielectric constant tensor:
#      x y z
#    x 1.764290 0.000000 0.000000 
#    y 0.000000 1.764290 0.000000 
#    z 0.000000 0.000000 1.806960 
# 
# From -- ./inp_files/8142.got.cif
#   From: 2010.05.17/outbox.cif.g08.bks.cpg/sg138_5_cif.got.tgz:8142.got - 2010.05.20 13:08:53.
