data_PCOD9570866
_publ_section_title
;
Structure prediction by ZEFSAII (Michael W. Deem and Ramdas Pophale) SiO2 
 PCOD9570866
Probable space group: P 42/N C M
;
_chemical_formula_sum "Si O2"
_cell_formula_units_Z 112
_cell_length_a 14.762369
_cell_length_b 14.762369
_cell_length_c 26.827593
_cell_angle_alpha 90.000000
_cell_angle_beta 90.000000
_cell_angle_gamma 90.000000
_cell_volume 5846.471306
_symmetry_space_group_name_H-M "P 42/N C M"
_symmetry_group_IT_number 138
_space_group.IT_coordinate_system_code '2'
_symmetry_cell_setting 'tetragonal'
loop_
_space_group_symop_operation_xyz
x,y,z
1/2-y,x,1/2+z
1/2-x,1/2-y,z
y,1/2-x,1/2+z
1/2+x,-y,1/2-z
-x,1/2+y,1/2-z
1/2+y,1/2+x,-z
-y,-x,-z
-x,-y,-z
1/2+y,-x,1/2-z
1/2+x,1/2+y,-z
-y,1/2+x,1/2-z
1/2-x,y,1/2+z
x,1/2-y,1/2+z
1/2-y,1/2-x,z
y,x,z
loop_
_atom_site_type_symbol
_atom_site_label
_atom_site_fract_x
_atom_site_fract_y
_atom_site_fract_z
Si Si1 0.254562 0.400335 0.040244
Si Si2 0.172915 0.670810 0.815498
Si Si3 0.916350 0.769475 0.769965
Si Si4 0.101382 0.253992 0.932484
Si Si5 0.496522 0.205836 0.331339
Si Si6 0.933797 0.075134 0.231959
Si Si7 0.482841 0.336937 0.635236
O O1 0.180544 0.319457 0.036275
O O2 0.350971 0.350971 0.048405
O O3 0.222504 0.457505 0.087164
O O4 0.249107 0.447793 0.986081
O O5 0.250000 0.750000 0.813766
O O6 0.224068 0.578357 0.827366
O O7 0.117256 0.648918 0.764202
O O8 0.089689 0.675898 0.854293
O O9 0.822418 0.822418 0.772806
O O10 0.933543 0.704066 0.816026
O O11 0.930273 0.724829 0.715692
O O12 0.994845 0.845309 0.774626
O O13 0.148376 0.351625 0.923470
O O14 0.182853 0.182853 0.939457
O O15 0.048705 0.220915 0.884183
O O16 0.539574 0.108633 0.319161
O O17 0.991192 0.991192 0.255425
O O18 0.437361 0.437361 0.628071
#
# Coordination Sequence:
#
# PCOD9570866 Si02
#       7
#    16  16  16  16  16  16  16
#     4   8  16  33  58  85 114 152 195 241 297 358
#     4  11  24  37  56  81 113 157 201 240 293 362
#     4  10  21  33  49  80 115 146 181 234 299 354
#     4   9  18  34  56  84 116 149 189 238 298 365
#     4  11  21  33  56  79 113 150 194 240 295 356
#     4  10  21  37  56  80 113 152 199 244 289 356
#     4  11  21  36  58  85 116 151 196 247 291 346
#
# _framework density 19.156853999999999
#
# number of rings (size 3 to 8) (size 9 to 14) (size 15 to 20)
#    0.000    2.000    1.429    3.429    2.000    3.143 
#    0.000    0.714    0.000    6.857    0.000   10.000 
#    0.000    0.000    0.000    0.000    0.000    0.000 
#
# Total GULP energy -624381.665458 kJ/mol
# GULP energy per Si atom -5574.836299 kJ/mol
# Density = 1.911325 g / cm^3
# Si number density = 19.156854 Si / 1000 Ang^3
#
#
#
# Elastic Constant Matrix: (Units=GPa)
#
#
# Indices 1 2 3 4 5 6 
#
# 1 84.9979 45.4620 47.2629 0.0000 0.0000 0.0000
# 2 45.4620 84.9979 47.2629 0.0000 0.0000 0.0000
# 3 47.2629 47.2629 145.4309 0.0000 0.0000 0.0000
# 4 0.0000 0.0000 0.0000 12.4746 0.0000 0.0000
# 5 0.0000 0.0000 0.0000 0.0000 12.4746 0.0000
# 6 0.0000 0.0000 0.0000 0.0000 0.0000 34.3850
#
#
#
# Elastic Compliance Matrix: (Units=1/GPa)
#
#
# Indices 1 2 3 4 5 6 
#
# 1 0.017660 -0.007634 -0.003258 0.000000 0.000000 0.000000
# 2 -0.007634 0.017660 -0.003258 0.000000 0.000000 0.000000
# 3 -0.003258 -0.003258 0.008994 0.000000 0.000000 0.000000
# 4 0.000000 0.000000 0.000000 0.080163 0.000000 0.000000
# 5 0.000000 0.000000 0.000000 0.000000 0.080163 0.000000
# 6 0.000000 0.000000 0.000000 0.000000 0.000000 0.029082
#
#
# Mechanical properties :
#
#
# Convention : Reuss Voigt Hill
#
# Bulk Modulus (GPa) = 62.45026 66.15577 64.30302
# Shear Modulus (GPa) = 18.70141 23.56278 21.13209
#
# Velocity S-wave (km/s) = 3.12785 3.51093 3.32491
# Velocity P-wave (km/s) = 6.76127 7.14452 6.95554
#
# Compressibility (1/GPa) = 0.01601274
#
# Stress axis : x y z
#
# Youngs Moduli (GPa) = 56.62596 56.62596 111.18616
#
# Poissons Ratio (x) = 0.43227 0.36228
# Poissons Ratio (y) = 0.43227 0.36228
# Poissons Ratio (z) = 0.18450 0.18450
#
# Static dielectric constant tensor:
#      x y z
#    x 1.713750 0.000000 0.000000 
#    y 0.000000 1.713750 0.000000 
#    z 0.000000 0.000000 1.691510 
# 
# From -- ./inp_files/7057.got.cif
#   From: 2010.05.17/outbox.cif.g08.bks.cpg/sg138_4_cif.got.tgz:7057.got - 2010.05.20 13:08:53.
