data_PCOD9570984
_publ_section_title
;
Structure prediction by ZEFSAII (Michael W. Deem and Ramdas Pophale) SiO2 
 PCOD9570984
Probable space group: P 42/N C M
;
_chemical_formula_sum "Si O2"
_cell_formula_units_Z 64
_cell_length_a 11.573771
_cell_length_b 11.573771
_cell_length_c 21.958253
_cell_angle_alpha 90.000000
_cell_angle_beta 90.000000
_cell_angle_gamma 90.000000
_cell_volume 2941.355752
_symmetry_space_group_name_H-M "P 42/N C M"
_symmetry_group_IT_number 138
_space_group.IT_coordinate_system_code '2'
_symmetry_cell_setting 'tetragonal'
loop_
_space_group_symop_operation_xyz
x,y,z
1/2-y,x,1/2+z
1/2-x,1/2-y,z
y,1/2-x,1/2+z
1/2+x,-y,1/2-z
-x,1/2+y,1/2-z
1/2+y,1/2+x,-z
-y,-x,-z
-x,-y,-z
1/2+y,-x,1/2-z
1/2+x,1/2+y,-z
-y,1/2+x,1/2-z
1/2-x,y,1/2+z
x,1/2-y,1/2+z
1/2-y,1/2-x,z
y,x,z
loop_
_atom_site_type_symbol
_atom_site_label
_atom_site_fract_x
_atom_site_fract_y
_atom_site_fract_z
Si Si1 0.669915 0.021530 0.738138
Si Si2 0.348854 0.348854 0.311108
Si Si3 0.149762 0.149762 0.450284
Si Si4 0.124857 0.719786 0.352873
Si Si5 0.508666 0.311742 0.024546
O O1 0.572078 0.927923 0.751331
O O2 0.788593 0.953561 0.723581
O O3 0.694618 0.098747 0.796974
O O4 0.633632 0.094723 0.679106
O O5 0.250000 0.250000 0.314623
O O6 0.379013 0.379013 0.380479
O O7 0.250000 0.250000 0.449925
O O8 0.040422 0.206708 0.484256
O O9 0.250000 0.750000 0.378652
O O10 0.032652 0.724729 0.406241
O O11 0.408931 0.408931 0.023784
O O12 0.623441 0.376560 0.000000
#
# Coordination Sequence:
#
# PCOD9570984 Si02
#       5
#    16   8   8  16  16
#     4  11  23  40  63  94 127 173 216 268 326 383
#     4   9  20  38  65  95 128 165 214 264 316 388
#     4   9  18  38  63  99 131 162 217 271 319 393
#     4  12  24  42  61  90 130 168 215 268 328 388
#     4  10  22  40  66  94 125 172 213 267 331 395
#
# _framework density 21.758672000000001
#
# number of rings (size 3 to 8) (size 9 to 14) (size 15 to 20)
#    0.000    1.500    2.500    2.250    5.250    4.500 
#    0.000    0.000    0.000    3.000    0.000    0.000 
#    0.000    0.000    0.000    0.000    0.000    0.000 
#
# Total GULP energy -357986.679739 kJ/mol
# GULP energy per Si atom -5593.541871 kJ/mol
# Density = 2.170915 g / cm^3
# Si number density = 21.758672 Si / 1000 Ang^3
#
#
#
# Elastic Constant Matrix: (Units=GPa)
#
#
# Indices 1 2 3 4 5 6 
#
# 1 58.3157 24.8549 4.1081 0.0000 0.0000 0.0000
# 2 24.8549 58.3155 4.1069 0.0000 0.0000 0.0000
# 3 4.1081 4.1069 59.3498 0.0000 0.0000 0.0000
# 4 0.0000 0.0000 0.0000 26.1350 0.0000 0.0000
# 5 0.0000 0.0000 0.0000 0.0000 26.1356 0.0000
# 6 0.0000 0.0000 0.0000 0.0000 0.0000 35.6130
#
#
#
# Elastic Compliance Matrix: (Units=1/GPa)
#
#
# Indices 1 2 3 4 5 6 
#
# 1 0.020996 -0.008890 -0.000838 0.000000 0.000000 0.000000
# 2 -0.008890 0.020996 -0.000838 0.000000 0.000000 0.000000
# 3 -0.000838 -0.000838 0.016965 0.000000 0.000000 0.000000
# 4 0.000000 0.000000 0.000000 0.038263 0.000000 0.000000
# 5 0.000000 0.000000 0.000000 0.000000 0.038262 0.000000
# 6 0.000000 0.000000 0.000000 0.000000 0.000000 0.028080
#
#
# Mechanical properties :
#
#
# Convention : Reuss Voigt Hill
#
# Bulk Modulus (GPa) = 26.43661 26.90230 26.66946
# Shear Modulus (GPa) = 25.34193 27.10413 26.22303
#
# Velocity S-wave (km/s) = 3.41645 3.53323 3.47533
# Velocity P-wave (km/s) = 5.26679 5.38849 5.32799
#
# Compressibility (1/GPa) = 0.03782633
#
# Stress axis : x y z
#
# Youngs Moduli (GPa) = 47.62809 47.62808 58.94408
#
# Poissons Ratio (x) = 0.42340 0.04941
# Poissons Ratio (y) = 0.42340 0.04937
# Poissons Ratio (z) = 0.03992 0.03989
#
# Static dielectric constant tensor:
#      x y z
#    x 1.805490 0.000000 0.000000 
#    y 0.000000 1.805480 0.000000 
#    z 0.000000 0.000000 1.736250 
# 
# From -- ./inp_files/6769.got.cif
#   From: 2010.05.17/outbox.cif.g08.bks.cpg/sg138_4_cif.got.tgz:6769.got - 2010.05.20 13:08:53.
