data_PCOD9570783
_publ_section_title
;
Structure prediction by ZEFSAII (Michael W. Deem and Ramdas Pophale) SiO2 
 PCOD9570783
Probable space group: P 42/N C M
;
_chemical_formula_sum "Si O2"
_cell_formula_units_Z 96
_cell_length_a 18.515925
_cell_length_b 18.515925
_cell_length_c 15.931320
_cell_angle_alpha 90.000000
_cell_angle_beta 90.000000
_cell_angle_gamma 90.000000
_cell_volume 5461.885442
_symmetry_space_group_name_H-M "P 42/N C M"
_symmetry_group_IT_number 138
_space_group.IT_coordinate_system_code '2'
_symmetry_cell_setting 'tetragonal'
loop_
_space_group_symop_operation_xyz
x,y,z
1/2-y,x,1/2+z
1/2-x,1/2-y,z
y,1/2-x,1/2+z
1/2+x,-y,1/2-z
-x,1/2+y,1/2-z
1/2+y,1/2+x,-z
-y,-x,-z
-x,-y,-z
1/2+y,-x,1/2-z
1/2+x,1/2+y,-z
-y,1/2+x,1/2-z
1/2-x,y,1/2+z
x,1/2-y,1/2+z
1/2-y,1/2-x,z
y,x,z
loop_
_atom_site_type_symbol
_atom_site_label
_atom_site_fract_x
_atom_site_fract_y
_atom_site_fract_z
Si Si1 0.817105 0.935429 0.682882
Si Si2 0.134253 0.569499 0.922268
Si Si3 0.854662 0.420626 0.755858
Si Si4 0.945540 0.298968 0.681736
Si Si5 0.792534 0.085483 0.009153
Si Si6 0.843500 0.539994 0.633520
O O1 0.863483 0.863483 0.688447
O O2 0.734065 0.925681 0.655964
O O3 0.851658 0.989506 0.613471
O O4 0.818776 0.979999 0.770974
O O5 0.099426 0.612470 0.845151
O O6 0.213550 0.599303 0.950073
O O7 0.081091 0.581091 0.000000
O O8 0.889621 0.363612 0.693183
O O9 0.768825 0.416023 0.765230
O O10 0.870051 0.499157 0.717934
O O11 0.947778 0.280724 0.583874
O O12 0.829890 0.023676 0.066104
O O13 0.844138 0.155863 0.000000
O O14 0.901345 0.598656 0.605665
#
# Coordination Sequence:
#
# PCOD9570783 Si02
#       6
#    16  16  16  16  16  16
#     4   9  21  39  59  83 109 146 193 239 289 342
#     4  10  20  36  57  81 116 153 192 228 270 332
#     4  10  20  36  52  81 115 151 191 228 271 332
#     4  10  20  35  56  79 118 152 187 232 275 334
#     4  11  21  37  54  86 121 154 189 229 276 337
#     4  10  22  39  60  84 113 146 188 246 297 341
#
# _framework density 17.576349
#
# number of rings (size 3 to 8) (size 9 to 14) (size 15 to 20)
#    0.000    2.000    3.333    1.000    0.000    5.000 
#    0.000    0.000    0.000    0.000    0.000    4.667 
#    0.000    0.000    0.000    0.000    0.000    0.000 
#
# Total GULP energy -535049.201028 kJ/mol
# GULP energy per Si atom -5573.429177 kJ/mol
# Density = 1.753634 g / cm^3
# Si number density = 17.576349 Si / 1000 Ang^3
#
#
#
# Elastic Constant Matrix: (Units=GPa)
#
#
# Indices 1 2 3 4 5 6 
#
# 1 39.4373 30.7626 5.9162 0.0000 0.0000 0.0000
# 2 30.7626 39.4349 5.9161 0.0000 0.0000 0.0000
# 3 5.9162 5.9161 91.7324 0.0000 0.0000 0.0000
# 4 0.0000 0.0000 0.0000 17.1657 0.0000 0.0000
# 5 0.0000 0.0000 0.0000 0.0000 17.1657 0.0000
# 6 0.0000 0.0000 0.0000 0.0000 0.0000 50.8328
#
#
#
# Elastic Compliance Matrix: (Units=1/GPa)
#
#
# Indices 1 2 3 4 5 6 
#
# 1 0.064846 -0.050446 -0.000929 0.000000 0.000000 0.000000
# 2 -0.050446 0.064849 -0.000929 0.000000 0.000000 0.000000
# 3 -0.000929 -0.000929 0.011021 0.000000 0.000000 0.000000
# 4 0.000000 0.000000 0.000000 0.058256 0.000000 0.000000
# 5 0.000000 0.000000 0.000000 0.000000 0.058256 0.000000
# 6 0.000000 0.000000 0.000000 0.000000 0.000000 0.019672
#
#
# Mechanical properties :
#
#
# Convention : Reuss Voigt Hill
#
# Bulk Modulus (GPa) = 27.69358 28.42159 28.05758
# Shear Modulus (GPa) = 12.70509 25.56682 19.13596
#
# Velocity S-wave (km/s) = 2.69151 3.81808 3.30318
# Velocity P-wave (km/s) = 5.04473 5.97013 5.52683
#
# Compressibility (1/GPa) = 0.03610946
#
# Stress axis : x y z
#
# Youngs Moduli (GPa) = 15.42126 15.42032 90.73516
#
# Poissons Ratio (x) = 0.77789 0.08427
# Poissons Ratio (y) = 0.77794 0.08428
# Poissons Ratio (z) = 0.01432 0.01432
#
# Static dielectric constant tensor:
#      x y z
#    x 1.590130 0.000000 0.000000 
#    y 0.000000 1.590130 0.000000 
#    z 0.000000 0.000000 1.657920 
# 
# From -- ./inp_files/5228.got.cif
#   From: 2010.05.17/outbox.cif.g08.bks.cpg/sg138_3_cif.got.tgz:5228.got - 2010.05.20 13:08:53.
