data_PCOD9570594
_publ_section_title
;
Structure prediction by ZEFSAII (Michael W. Deem and Ramdas Pophale) SiO2 
 PCOD9570594
Probable space group: P 42/N C M
;
_chemical_formula_sum "Si O2"
_cell_formula_units_Z 96
_cell_length_a 23.445107
_cell_length_b 23.445107
_cell_length_c 10.261873
_cell_angle_alpha 90.000000
_cell_angle_beta 90.000000
_cell_angle_gamma 90.000000
_cell_volume 5640.674951
_symmetry_space_group_name_H-M "P 42/N C M"
_symmetry_group_IT_number 138
_space_group.IT_coordinate_system_code '2'
_symmetry_cell_setting 'tetragonal'
loop_
_space_group_symop_operation_xyz
x,y,z
1/2-y,x,1/2+z
1/2-x,1/2-y,z
y,1/2-x,1/2+z
1/2+x,-y,1/2-z
-x,1/2+y,1/2-z
1/2+y,1/2+x,-z
-y,-x,-z
-x,-y,-z
1/2+y,-x,1/2-z
1/2+x,1/2+y,-z
-y,1/2+x,1/2-z
1/2-x,y,1/2+z
x,1/2-y,1/2+z
1/2-y,1/2-x,z
y,x,z
loop_
_atom_site_type_symbol
_atom_site_label
_atom_site_fract_x
_atom_site_fract_y
_atom_site_fract_z
Si Si1 0.579771 0.173070 0.021225
Si Si2 0.195700 0.099469 0.158237
Si Si3 0.398480 0.809091 0.475977
Si Si4 0.103253 0.198592 0.855032
Si Si5 0.683343 0.021894 0.242626
Si Si6 0.320662 0.980086 0.286509
O O1 0.597824 0.240130 0.022374
O O2 0.548180 0.157147 0.154846
O O3 0.635130 0.135130 0.000000
O O4 0.536904 0.162932 0.901111
O O5 0.150204 0.150204 0.166366
O O6 0.247733 0.109610 0.258322
O O7 0.167090 0.039180 0.198353
O O8 0.216098 0.095360 0.007274
O O9 0.336806 0.836806 0.500000
O O10 0.426378 0.829250 0.340571
O O11 0.439886 0.831274 0.590386
O O12 0.157441 0.157441 0.846289
O O13 0.045683 0.164938 0.814196
O O14 0.752059 0.018725 0.232284
#
# Coordination Sequence:
#
# PCOD9570594 Si02
#       6
#    16  16  16  16  16  16
#     4  10  20  33  51  77 108 140 178 226 274 320
#     4  10  21  37  58  84 112 141 175 217 263 314
#     4  10  18  31  53  77 104 138 180 222 270 322
#     4  10  21  37  58  84 112 141 175 217 263 314
#     4   9  18  33  52  75 102 142 183 216 255 315
#     4   9  18  33  52  75 102 142 183 216 255 315
#
# _framework density 17.019238999999999
#
# number of rings (size 3 to 8) (size 9 to 14) (size 15 to 20)
#    0.000    2.333    1.667    1.000    7.000    1.333 
#    0.000    1.667    0.000   12.000    0.000    0.000 
#    0.000    0.000    0.000    0.000    0.000    0.000 
#
# Total GULP energy -534837.416681 kJ/mol
# GULP energy per Si atom -5571.223090 kJ/mol
# Density = 1.698050 g / cm^3
# Si number density = 17.019239 Si / 1000 Ang^3
#
#
#
# Elastic Constant Matrix: (Units=GPa)
#
#
# Indices 1 2 3 4 5 6 
#
# 1 44.8936 15.5604 13.2896 0.0000 0.0000 0.0000
# 2 15.5604 44.8936 13.2896 0.0000 0.0000 0.0000
# 3 13.2896 13.2896 86.0853 0.0000 0.0000 0.0000
# 4 0.0000 0.0000 0.0000 22.2978 0.0000 0.0000
# 5 0.0000 0.0000 0.0000 0.0000 22.2978 0.0000
# 6 0.0000 0.0000 0.0000 0.0000 0.0000 1.7737
#
#
#
# Elastic Compliance Matrix: (Units=1/GPa)
#
#
# Indices 1 2 3 4 5 6 
#
# 1 0.025918 -0.008173 -0.002740 0.000000 0.000000 0.000000
# 2 -0.008173 0.025918 -0.002740 0.000000 0.000000 0.000000
# 3 -0.002740 -0.002740 0.012462 0.000000 0.000000 0.000000
# 4 0.000000 0.000000 0.000000 0.044847 0.000000 0.000000
# 5 0.000000 0.000000 0.000000 0.000000 0.044847 0.000000
# 6 0.000000 0.000000 0.000000 0.000000 0.000000 0.563800
#
#
# Mechanical properties :
#
#
# Convention : Reuss Voigt Hill
#
# Bulk Modulus (GPa) = 27.03001 28.90573 27.96787
# Shear Modulus (GPa) = 6.60127 18.18939 12.39533
#
# Velocity S-wave (km/s) = 1.97158 3.27273 2.70165
# Velocity P-wave (km/s) = 4.59340 5.59482 5.11866
#
# Compressibility (1/GPa) = 0.03699592
#
# Stress axis : x y z
#
# Youngs Moduli (GPa) = 38.58249 38.58249 80.24241
#
# Poissons Ratio (x) = 0.31532 0.21983
# Poissons Ratio (y) = 0.31532 0.21983
# Poissons Ratio (z) = 0.10570 0.10570
#
# Static dielectric constant tensor:
#      x y z
#    x 1.571200 0.000000 0.000000 
#    y 0.000000 1.571200 0.000000 
#    z 0.000000 0.000000 1.603560 
# 
# From -- ./inp_files/1719.got.cif
#   From: 2010.05.17/outbox.cif.g08.bks.cpg/sg138_1_cif.got.tgz:1719.got - 2010.05.20 13:08:53.
