data_PCOD9570438
_publ_section_title
;
Structure prediction by ZEFSAII (Michael W. Deem and Ramdas Pophale) SiO2 
 PCOD9570438
Probable space group: P 42/N M C
;
_chemical_formula_sum "Si O2"
_cell_formula_units_Z 58
_cell_length_a 16.018356
_cell_length_b 16.018356
_cell_length_c 11.245289
_cell_angle_alpha 90.000000
_cell_angle_beta 90.000000
_cell_angle_gamma 90.000000
_cell_volume 2885.403166
_symmetry_space_group_name_H-M "P 42/N M C"
_symmetry_group_IT_number 137
_space_group.IT_coordinate_system_code '2'
_symmetry_cell_setting 'tetragonal'
loop_
_space_group_symop_operation_xyz
x,y,z
1/2-y,x,1/2+z
1/2-x,1/2-y,z
y,1/2-x,1/2+z
1/2+x,-y,-z
-x,1/2+y,-z
1/2+y,1/2+x,1/2-z
-y,-x,1/2-z
-x,-y,-z
1/2+y,-x,1/2-z
1/2+x,1/2+y,-z
-y,1/2+x,1/2-z
1/2-x,y,z
x,1/2-y,z
1/2-y,1/2-x,1/2+z
y,x,1/2+z
loop_
_atom_site_type_symbol
_atom_site_label
_atom_site_fract_x
_atom_site_fract_y
_atom_site_fract_z
Si Si1 0.086351 0.915070 0.389870
Si Si2 0.250000 0.750000 0.750000
Si Si3 0.602083 0.924865 0.034411
Si Si4 0.102336 0.750000 0.942323
Si Si5 0.916267 0.750000 0.900374
Si Si6 0.654546 0.750000 0.663826
O O1 0.102458 0.897543 0.250000
O O2 0.167912 0.895701 0.471251
O O3 0.003367 0.875314 0.450305
O O4 0.063799 0.013464 0.400997
O O5 0.172683 0.750000 0.841813
O O6 0.672095 0.901860 0.127950
O O7 0.593869 0.837587 0.966083
O O8 0.014703 0.750000 0.871416
O O9 0.844726 0.750000 0.803821
O O10 0.750000 0.750000 0.616652
#
# Coordination Sequence:
#
# PCOD9570438 Si02
#       6
#    16   2  16   8   8   8
#     4  10  22  44  67  95 128 174 217 271 329 394
#     4  12  28  48  62  92 120 164 232 294 320 392
#     4  10  22  40  62  96 133 171 214 252 326 391
#     4  10  26  42  68  90 126 164 229 281 328 380
#     4  10  22  42  58  93 132 172 206 261 309 400
#     4  12  24  35  64  95 135 172 206 258 318 385
#
# _framework density 20.101177
#
# number of rings (size 3 to 8) (size 9 to 14) (size 15 to 20)
#    0.000    1.655    1.379    1.655    5.793    2.207 
#    4.966    0.000    0.000    0.000    0.000    0.000 
#    0.000    0.000    0.000    0.000    0.000    0.000 
#
# Total GULP energy -323036.443321 kJ/mol
# GULP energy per Si atom -5569.593850 kJ/mol
# Density = 2.005543 g / cm^3
# Si number density = 20.101177 Si / 1000 Ang^3
#
#
#
# Elastic Constant Matrix: (Units=GPa)
#
#
# Indices 1 2 3 4 5 6 
#
# 1 68.8854 40.9435 36.5402 0.0000 0.0000 0.0000
# 2 40.9435 68.8862 36.5409 0.0000 0.0000 0.0000
# 3 36.5402 36.5409 93.8051 0.0000 0.0000 0.0000
# 4 0.0000 0.0000 0.0000 15.2237 0.0000 0.0000
# 5 0.0000 0.0000 0.0000 0.0000 15.2242 0.0000
# 6 0.0000 0.0000 0.0000 0.0000 0.0000 3.3119
#
#
#
# Elastic Compliance Matrix: (Units=1/GPa)
#
#
# Indices 1 2 3 4 5 6 
#
# 1 0.024039 -0.011749 -0.004788 0.000000 0.000000 0.000000
# 2 -0.011749 0.024039 -0.004788 0.000000 0.000000 0.000000
# 3 -0.004788 -0.004788 0.014390 0.000000 0.000000 0.000000
# 4 0.000000 0.000000 0.000000 0.065687 0.000000 0.000000
# 5 0.000000 0.000000 0.000000 0.000000 0.065685 0.000000
# 6 0.000000 0.000000 0.000000 0.000000 0.000000 0.301939
#
#
# Mechanical properties :
#
#
# Convention : Reuss Voigt Hill
#
# Bulk Modulus (GPa) = 50.45123 51.06954 50.76039
# Shear Modulus (GPa) = 9.17371 14.58877 11.88124
#
# Velocity S-wave (km/s) = 2.13862 2.69693 2.43383
# Velocity P-wave (km/s) = 5.59029 5.92953 5.76241
#
# Compressibility (1/GPa) = 0.01982112
#
# Stress axis : x y z
#
# Youngs Moduli (GPa) = 41.59820 41.59840 69.49080
#
# Poissons Ratio (x) = 0.48872 0.33270
# Poissons Ratio (y) = 0.48872 0.33271
# Poissons Ratio (z) = 0.19916 0.19917
#
# Static dielectric constant tensor:
#      x y z
#    x 1.881590 0.000000 0.000000 
#    y 0.000000 1.881600 0.000000 
#    z 0.000000 0.000000 1.711280 
# 
# From -- ./inp_files/1608.got.cif
#   From: 2010.05.17/outbox.cif.g08.bks.cpg/sg137_1_cif.got.tgz:1608.got - 2010.05.20 13:01:12.
