data_PCOD9570780
_publ_section_title
;
Structure prediction by ZEFSAII (Michael W. Deem and Ramdas Pophale) SiO2 
 PCOD9570780
Probable space group: P 42/N C M
;
_chemical_formula_sum "Si O2"
_cell_formula_units_Z 36
_cell_length_a 9.484833
_cell_length_b 9.484833
_cell_length_c 22.286183
_cell_angle_alpha 90.000000
_cell_angle_beta 90.000000
_cell_angle_gamma 90.000000
_cell_volume 2004.910866
_symmetry_space_group_name_H-M "P 42/N C M"
_symmetry_group_IT_number 138
_space_group.IT_coordinate_system_code '2'
_symmetry_cell_setting 'tetragonal'
loop_
_space_group_symop_operation_xyz
x,y,z
1/2-y,x,1/2+z
1/2-x,1/2-y,z
y,1/2-x,1/2+z
1/2+x,-y,1/2-z
-x,1/2+y,1/2-z
1/2+y,1/2+x,-z
-y,-x,-z
-x,-y,-z
1/2+y,-x,1/2-z
1/2+x,1/2+y,-z
-y,1/2+x,1/2-z
1/2-x,y,1/2+z
x,1/2-y,1/2+z
1/2-y,1/2-x,z
y,x,z
loop_
_atom_site_type_symbol
_atom_site_label
_atom_site_fract_x
_atom_site_fract_y
_atom_site_fract_z
Si Si1 0.250000 0.750000 0.500000
Si Si2 0.484768 0.250841 0.412061
Si Si3 0.451954 0.679586 0.224920
O O1 0.386945 0.748955 0.542199
O O2 0.377082 0.122919 0.425336
O O3 0.393673 0.393673 0.414948
O O4 0.537384 0.227970 0.343951
O O5 0.317298 0.578526 0.235329
O O6 0.592686 0.592686 0.239979
#
# Coordination Sequence:
#
# PCOD9570780 Si02
#       3
#     4  16  16
#     4  12  20  36  62  80 100 140 192 222 252 320
#     4  10  22  38  55  79 111 142 174 221 273 312
#     4  10  20  35  55  80 109 140 175 215 264 319
#
# _framework density 17.955909999999999
#
# number of rings (size 3 to 8) (size 9 to 14) (size 15 to 20)
#    0.000    1.778    0.000    5.333    0.000    2.667 
#    0.000    2.222    0.000    5.333    0.000    0.000 
#    0.000    0.000    0.000    0.000    0.000    0.000 
#
# Total GULP energy -201084.429297 kJ/mol
# GULP energy per Si atom -5585.678592 kJ/mol
# Density = 1.791504 g / cm^3
# Si number density = 17.955910 Si / 1000 Ang^3
#
#
#
# Elastic Constant Matrix: (Units=GPa)
#
#
# Indices 1 2 3 4 5 6 
#
# 1 128.8734 74.9497 91.7096 0.0000 0.0000 0.0000
# 2 74.9497 128.8734 91.7096 0.0000 0.0000 0.0000
# 3 91.7096 91.7096 107.7463 0.0000 0.0000 0.0000
# 4 0.0000 0.0000 0.0000 18.3969 0.0000 0.0000
# 5 0.0000 0.0000 0.0000 0.0000 18.3969 0.0000
# 6 0.0000 0.0000 0.0000 0.0000 0.0000 37.3728
#
#
#
# Elastic Compliance Matrix: (Units=1/GPa)
#
#
# Indices 1 2 3 4 5 6 
#
# 1 0.019754 0.001209 -0.017843 0.000000 0.000000 0.000000
# 2 0.001209 0.019754 -0.017843 0.000000 0.000000 0.000000
# 3 -0.017843 -0.017843 0.039655 0.000000 0.000000 0.000000
# 4 0.000000 0.000000 0.000000 0.054357 0.000000 0.000000
# 5 0.000000 0.000000 0.000000 0.000000 0.054357 0.000000
# 6 0.000000 0.000000 0.000000 0.000000 0.000000 0.026757
#
#
# Mechanical properties :
#
#
# Convention : Reuss Voigt Hill
#
# Bulk Modulus (GPa) = 97.94488 98.02564 97.98526
# Shear Modulus (GPa) = 17.42219 21.97493 19.69856
#
# Velocity S-wave (km/s) = 3.11831 3.50212 3.31577
# Velocity P-wave (km/s) = 8.22380 8.42995 8.32751
#
# Compressibility (1/GPa) = 0.01020982
#
# Stress axis : x y z
#
# Youngs Moduli (GPa) = 50.62323 50.62323 25.21734
#
# Poissons Ratio (x) = -0.06121 0.44995
# Poissons Ratio (y) = -0.06121 0.44995
# Poissons Ratio (z) = 0.90326 0.90326
#
# Static dielectric constant tensor:
#      x y z
#    x 1.615360 0.000000 0.000000 
#    y 0.000000 1.615360 0.000000 
#    z 0.000000 0.000000 1.572680 
# 
# From -- ./inp_files/4584.got.cif
#   From: 2010.05.17/outbox.cif.g08.bks.cpg/sg138_3_cif.got.tgz:4584.got - 2010.05.20 13:08:53.
