data_PCOD9570567
_publ_section_title
;
Structure prediction by ZEFSAII (Michael W. Deem and Ramdas Pophale) SiO2 
 PCOD9570567
Probable space group: P 42/N C M
;
_chemical_formula_sum "Si O2"
_cell_formula_units_Z 104
_cell_length_a 17.224217
_cell_length_b 17.224217
_cell_length_c 18.772005
_cell_angle_alpha 90.000000
_cell_angle_beta 90.000000
_cell_angle_gamma 90.000000
_cell_volume 5569.159265
_symmetry_space_group_name_H-M "P 42/N C M"
_symmetry_group_IT_number 138
_space_group.IT_coordinate_system_code '2'
_symmetry_cell_setting 'tetragonal'
loop_
_space_group_symop_operation_xyz
x,y,z
1/2-y,x,1/2+z
1/2-x,1/2-y,z
y,1/2-x,1/2+z
1/2+x,-y,1/2-z
-x,1/2+y,1/2-z
1/2+y,1/2+x,-z
-y,-x,-z
-x,-y,-z
1/2+y,-x,1/2-z
1/2+x,1/2+y,-z
-y,1/2+x,1/2-z
1/2-x,y,1/2+z
x,1/2-y,1/2+z
1/2-y,1/2-x,z
y,x,z
loop_
_atom_site_type_symbol
_atom_site_label
_atom_site_fract_x
_atom_site_fract_y
_atom_site_fract_z
Si Si1 0.669798 0.960653 0.825872
Si Si2 0.030364 0.761065 0.949383
Si Si3 0.048919 0.580928 0.145426
Si Si4 0.867946 0.367946 0.000000
Si Si5 0.053426 0.570635 0.413446
Si Si6 0.822001 0.548563 0.590543
Si Si7 0.068250 0.198977 0.289197
O O1 0.612913 0.887088 0.821927
O O2 0.743282 0.947210 0.775863
O O3 0.701639 0.978779 0.904395
O O4 0.617332 0.037116 0.811758
O O5 0.108497 0.718244 0.975598
O O6 0.048732 0.837752 0.903362
O O7 0.981339 0.785382 0.017824
O O8 0.984908 0.515093 0.129242
O O9 0.005944 0.646002 0.191466
O O10 0.080044 0.612968 0.069858
O O11 0.061216 0.561216 0.500000
O O12 0.126427 0.524424 0.381085
O O13 0.975487 0.524514 0.391940
O O14 0.884480 0.615521 0.576646
O O15 0.756746 0.577930 0.643871
O O16 0.141442 0.141442 0.279110
#
# Coordination Sequence:
#
# PCOD9570567 Si02
#       7
#    16  16  16   8  16  16  16
#     4  10  23  39  56  82 118 154 191 238 295 357
#     4  10  19  34  58  85 115 151 196 245 294 348
#     4   9  19  37  61  84 110 154 201 239 289 352
#     4  10  17  32  59  90 118 142 189 259 300 342
#     4   8  16  32  53  78 109 148 191 230 271 337
#     4  10  20  36  58  83 115 152 194 241 287 344
#     4  11  23  39  60  86 116 152 195 245 301 356
#
# _framework density 18.674272999999999
#
# number of rings (size 3 to 8) (size 9 to 14) (size 15 to 20)
#    0.000    2.308    1.538    2.077    0.000    4.923 
#    0.000    6.538    0.000    2.308    0.000    0.000 
#    0.000    0.000    0.000    0.000    0.000    0.000 
#
# Total GULP energy -579814.512161 kJ/mol
# GULP energy per Si atom -5575.139540 kJ/mol
# Density = 1.863177 g / cm^3
# Si number density = 18.674273 Si / 1000 Ang^3
#
#
#
# Elastic Constant Matrix: (Units=GPa)
#
#
# Indices 1 2 3 4 5 6 
#
# 1 114.8001 58.8315 36.3663 0.0000 0.0000 0.0000
# 2 58.8315 114.8001 36.3663 0.0000 0.0000 0.0000
# 3 36.3663 36.3663 49.0739 0.0000 0.0000 0.0000
# 4 0.0000 0.0000 0.0000 23.9033 0.0000 0.0000
# 5 0.0000 0.0000 0.0000 0.0000 23.9033 0.0000
# 6 0.0000 0.0000 0.0000 0.0000 0.0000 21.6818
#
#
#
# Elastic Compliance Matrix: (Units=1/GPa)
#
#
# Indices 1 2 3 4 5 6 
#
# 1 0.013110 -0.004758 -0.006189 0.000000 0.000000 0.000000
# 2 -0.004758 0.013110 -0.006189 0.000000 0.000000 0.000000
# 3 -0.006189 -0.006189 0.029550 0.000000 0.000000 0.000000
# 4 0.000000 0.000000 0.000000 0.041835 0.000000 0.000000
# 5 0.000000 0.000000 0.000000 0.000000 0.041835 0.000000
# 6 0.000000 0.000000 0.000000 0.000000 0.000000 0.046122
#
#
# Mechanical properties :
#
#
# Convention : Reuss Voigt Hill
#
# Bulk Modulus (GPa) = 46.51708 60.20027 53.35867
# Shear Modulus (GPa) = 22.02649 23.70502 22.86576
#
# Velocity S-wave (km/s) = 3.43813 3.56672 3.50301
# Velocity P-wave (km/s) = 6.38159 7.01919 6.70797
#
# Compressibility (1/GPa) = 0.02149748
#
# Stress axis : x y z
#
# Youngs Moduli (GPa) = 76.28026 76.28026 33.84042
#
# Poissons Ratio (x) = 0.36291 0.20945
# Poissons Ratio (y) = 0.36291 0.20945
# Poissons Ratio (z) = 0.47211 0.47211
#
# Static dielectric constant tensor:
#      x y z
#    x 1.658260 0.000000 0.000000 
#    y 0.000000 1.658260 0.000000 
#    z 0.000000 0.000000 1.642170 
# 
# From -- ./inp_files/5301.got.cif
#   From: 2010.05.17/outbox.cif.g08.bks.cpg/sg138_3_cif.got.tgz:5301.got - 2010.05.20 13:08:53.
