data_PCOD9570049
_publ_section_title
;
Structure prediction by ZEFSAII (Michael W. Deem and Ramdas Pophale) SiO2 
 PCOD9570049
Probable space group: P 42/N M C
;
_chemical_formula_sum "Si O2"
_cell_formula_units_Z 40
_cell_length_a 7.670857
_cell_length_b 7.670857
_cell_length_c 34.357395
_cell_angle_alpha 90.000000
_cell_angle_beta 90.000000
_cell_angle_gamma 90.000000
_cell_volume 2021.659455
_symmetry_space_group_name_H-M "P 42/N M C"
_symmetry_group_IT_number 137
_space_group.IT_coordinate_system_code '2'
_symmetry_cell_setting 'tetragonal'
loop_
_space_group_symop_operation_xyz
x,y,z
1/2-y,x,1/2+z
1/2-x,1/2-y,z
y,1/2-x,1/2+z
1/2+x,-y,-z
-x,1/2+y,-z
1/2+y,1/2+x,1/2-z
-y,-x,1/2-z
-x,-y,-z
1/2+y,-x,1/2-z
1/2+x,1/2+y,-z
-y,1/2+x,1/2-z
1/2-x,y,z
x,1/2-y,z
1/2-y,1/2-x,1/2+z
y,x,1/2+z
loop_
_atom_site_type_symbol
_atom_site_label
_atom_site_fract_x
_atom_site_fract_y
_atom_site_fract_z
Si Si1 0.538955 0.750000 0.311057
Si Si2 0.250000 0.035714 0.100238
Si Si3 0.040351 0.556118 0.544020
Si Si4 0.956794 0.043207 0.250000
O O1 0.750000 0.750000 0.313067
O O2 0.475469 0.750000 0.355279
O O3 0.491758 0.578657 0.286246
O O4 0.250000 0.250000 0.100554
O O5 0.417339 0.977785 0.075536
O O6 0.250000 0.560316 0.547188
O O7 0.972056 0.750000 0.550753
O O8 0.000000 0.500000 0.500000
O O9 0.750000 0.017434 0.242173
#
# Coordination Sequence:
#
# PCOD9570049 Si02
#       4
#     8   8  16   8
#     4   9  18  33  55  81 108 137 179 226 277 337
#     4   9  18  32  50  78 106 137 181 227 266 325
#     4  10  19  31  51  75 102 141 183 222 272 327
#     4   9  18  33  56  82 106 141 178 221 278 340
#
# _framework density 19.785724999999999
#
# number of rings (size 3 to 8) (size 9 to 14) (size 15 to 20)
#    0.000    2.600    2.000    0.000    0.000    2.000 
#    0.000    8.000    8.800    0.000    0.000    0.000 
#    0.000    0.000    0.000    0.000    0.000    0.000 
#
# Total GULP energy -223246.093686 kJ/mol
# GULP energy per Si atom -5581.152342 kJ/mol
# Density = 1.974069 g / cm^3
# Si number density = 19.785725 Si / 1000 Ang^3
#
#
#
# Elastic Constant Matrix: (Units=GPa)
#
#
# Indices 1 2 3 4 5 6 
#
# 1 101.4250 36.5865 75.1076 0.0000 0.0000 0.0000
# 2 36.5865 101.4260 75.1075 0.0000 0.0000 0.0000
# 3 75.1076 75.1075 226.3037 0.0000 0.0000 0.0000
# 4 0.0000 0.0000 0.0000 26.7547 0.0000 0.0000
# 5 0.0000 0.0000 0.0000 0.0000 26.7547 0.0000
# 6 0.0000 0.0000 0.0000 0.0000 0.0000 8.1100
#
#
#
# Elastic Compliance Matrix: (Units=1/GPa)
#
#
# Indices 1 2 3 4 5 6 
#
# 1 0.013383 -0.002040 -0.003765 0.000000 0.000000 0.000000
# 2 -0.002040 0.013383 -0.003765 0.000000 0.000000 0.000000
# 3 -0.003765 -0.003765 0.006918 0.000000 0.000000 0.000000
# 4 0.000000 0.000000 0.000000 0.037377 0.000000 0.000000
# 5 0.000000 0.000000 0.000000 0.000000 0.037377 0.000000
# 6 0.000000 0.000000 0.000000 0.000000 0.000000 0.123305
#
#
# Mechanical properties :
#
#
# Convention : Reuss Voigt Hill
#
# Bulk Modulus (GPa) = 68.74939 89.19532 78.97236
# Shear Modulus (GPa) = 19.55193 28.48074 24.01633
#
# Velocity S-wave (km/s) = 3.14695 3.79814 3.48777
# Velocity P-wave (km/s) = 6.93014 8.02577 7.49799
#
# Compressibility (1/GPa) = 0.01454558
#
# Stress axis : x y z
#
# Youngs Moduli (GPa) = 74.72064 74.72175 144.55502
#
# Poissons Ratio (x) = 0.15241 0.54422
# Poissons Ratio (y) = 0.15241 0.54421
# Poissons Ratio (z) = 0.28131 0.28130
#
# Static dielectric constant tensor:
#      x y z
#    x 1.712150 0.000000 0.000000 
#    y 0.000000 1.712150 0.000000 
#    z 0.000000 0.000000 1.642800 
# 
# From -- ./inp_files/9327.got.cif
#   From: 2010.05.17/outbox.cif.g08.bks.cpg/sg137_5_cif.got.tgz:9327.got - 2010.05.20 13:01:12.
