data_PCOD9570555
_publ_section_title
;
Structure prediction by ZEFSAII (Michael W. Deem and Ramdas Pophale) SiO2 
 PCOD9570555
Probable space group: P 42/N M C
;
_chemical_formula_sum "Si O2"
_cell_formula_units_Z 64
_cell_length_a 15.000000
_cell_length_b 15.000000
_cell_length_c 15.000000
_cell_angle_alpha 90.000000
_cell_angle_beta 90.000000
_cell_angle_gamma 90.000000
_cell_volume 3375.000000
_symmetry_space_group_name_H-M "P 42/N M C"
_symmetry_group_IT_number 137
_space_group.IT_coordinate_system_code '2'
_symmetry_cell_setting 'tetragonal'
loop_
_space_group_symop_operation_xyz
x,y,z
1/2-y,x,1/2+z
1/2-x,1/2-y,z
y,1/2-x,1/2+z
1/2+x,-y,-z
-x,1/2+y,-z
1/2+y,1/2+x,1/2-z
-y,-x,1/2-z
-x,-y,-z
1/2+y,-x,1/2-z
1/2+x,1/2+y,-z
-y,1/2+x,1/2-z
1/2-x,y,z
x,1/2-y,z
1/2-y,1/2-x,1/2+z
y,x,1/2+z
loop_
_atom_site_type_symbol
_atom_site_label
_atom_site_fract_x
_atom_site_fract_y
_atom_site_fract_z
Si Si1 0.151970 0.353620 0.899896
Si Si2 0.591330 0.519837 0.452112
Si Si3 0.857042 0.855793 0.297057
Si Si4 0.143695 0.850055 0.652420
O O1 0.250000 0.387767 0.929214
O O2 0.163378 0.250000 0.879285
O O3 0.127258 0.391643 0.803291
O O4 0.077464 0.358105 0.974006
O O5 0.500000 0.500000 0.500000
O O6 0.590676 0.584342 0.366870
O O7 0.626374 0.424274 0.420839
O O8 0.750000 0.864981 0.313621
O O9 0.878022 0.750000 0.306204
O O10 0.115371 0.884630 0.750000
O O11 0.250000 0.842216 0.660705
O O12 0.107855 0.750000 0.634683
#
# Coordination Sequence:
#
# PCOD9570555 Si02
#       4
#    16  16  16  16
#     4   9  19  37  60  84 109 142 185 231 285 349
#     4  12  24  32  52  84 119 148 181 229 287 338
#     4   9  19  37  60  83 110 147 186 228 285 347
#     4   9  20  39  59  77 103 149 202 240 274 323
#
# _framework density 18.962962999999998
#
# number of rings (size 3 to 8) (size 9 to 14) (size 15 to 20)
#    0.000    2.250    0.000    5.250    3.500    4.000 
#    0.000    0.000    0.000    0.000    0.000    0.000 
#    0.000    8.000    0.000    0.000    0.000    0.000 
#
# Total GULP energy -356412.308578 kJ/mol
# GULP energy per Si atom -5568.942322 kJ/mol
# Density = 1.891980 g / cm^3
# Si number density = 18.962963 Si / 1000 Ang^3
#
#
#
# Elastic Constant Matrix: (Units=GPa)
#
#
# Indices 1 2 3 4 5 6 
#
# 1 78.3865 25.2116 59.3550 0.0000 0.0000 0.0000
# 2 25.2116 78.3869 59.3552 0.0000 0.0000 0.0000
# 3 59.3550 59.3552 126.6361 0.0000 0.0000 0.0000
# 4 0.0000 0.0000 0.0000 38.5894 0.0000 0.0000
# 5 0.0000 0.0000 0.0000 0.0000 38.5895 0.0000
# 6 0.0000 0.0000 0.0000 0.0000 0.0000 15.2288
#
#
#
# Elastic Compliance Matrix: (Units=1/GPa)
#
#
# Indices 1 2 3 4 5 6 
#
# 1 0.019829 0.001023 -0.009773 0.000000 0.000000 0.000000
# 2 0.001023 0.019829 -0.009773 0.000000 0.000000 0.000000
# 3 -0.009773 -0.009773 0.017058 0.000000 0.000000 0.000000
# 4 0.000000 0.000000 0.000000 0.025914 0.000000 0.000000
# 5 0.000000 0.000000 0.000000 0.000000 0.025914 0.000000
# 6 0.000000 0.000000 0.000000 0.000000 0.000000 0.065665
#
#
# Mechanical properties :
#
#
# Convention : Reuss Voigt Hill
#
# Bulk Modulus (GPa) = 50.84317 63.47254 57.15786
# Shear Modulus (GPa) = 22.95564 27.78074 25.36819
#
# Velocity S-wave (km/s) = 3.48307 3.83168 3.66153
# Velocity P-wave (km/s) = 6.56093 7.28836 6.93419
#
# Compressibility (1/GPa) = 0.01966832
#
# Stress axis : x y z
#
# Youngs Moduli (GPa) = 50.43188 50.43210 58.62278
#
# Poissons Ratio (x) = -0.05159 0.57294
# Poissons Ratio (y) = -0.05159 0.57294
# Poissons Ratio (z) = 0.49288 0.49289
#
# Static dielectric constant tensor:
#      x y z
#    x 1.643980 0.000000 0.000000 
#    y 0.000000 1.643980 0.000000 
#    z 0.000000 0.000000 2.144290 
# 
# From -- ./inp_files/4712.got.cif
#   From: 2010.05.17/outbox.ucp.g08.bks.cvg/sg137_3_cif.got.tgz:4712.got - 2010.06.11 11:41:14.
