data_PCOD9570077
_publ_section_title
;
Structure prediction by ZEFSAII (Michael W. Deem and Ramdas Pophale) SiO2 
 PCOD9570077
Probable space group: P 42/N M C
;
_chemical_formula_sum "Si O2"
_cell_formula_units_Z 128
_cell_length_a 23.913619
_cell_length_b 23.913619
_cell_length_c 13.081446
_cell_angle_alpha 90.000000
_cell_angle_beta 90.000000
_cell_angle_gamma 90.000000
_cell_volume 7480.771063
_symmetry_space_group_name_H-M "P 42/N M C"
_symmetry_group_IT_number 137
_space_group.IT_coordinate_system_code '2'
_symmetry_cell_setting 'tetragonal'
loop_
_space_group_symop_operation_xyz
x,y,z
1/2-y,x,1/2+z
1/2-x,1/2-y,z
y,1/2-x,1/2+z
1/2+x,-y,-z
-x,1/2+y,-z
1/2+y,1/2+x,1/2-z
-y,-x,1/2-z
-x,-y,-z
1/2+y,-x,1/2-z
1/2+x,1/2+y,-z
-y,1/2+x,1/2-z
1/2-x,y,z
x,1/2-y,z
1/2-y,1/2-x,1/2+z
y,x,1/2+z
loop_
_atom_site_type_symbol
_atom_site_label
_atom_site_fract_x
_atom_site_fract_y
_atom_site_fract_z
Si Si1 0.315753 0.096273 0.160080
Si Si2 0.567076 0.071967 0.048483
Si Si3 0.688731 0.567717 0.066919
Si Si4 0.369610 0.080065 0.373255
Si Si5 0.441773 0.687378 0.642441
Si Si6 0.527387 0.495078 0.636422
Si Si7 0.685959 0.594821 0.410022
Si Si8 0.528956 0.185786 0.129222
O O1 0.250000 0.109832 0.170921
O O2 0.337919 0.070905 0.266383
O O3 0.355842 0.148285 0.133650
O O4 0.322006 0.060784 0.055121
O O5 0.631211 0.076309 0.084307
O O6 0.545059 0.135411 0.054524
O O7 0.527738 0.031485 0.118798
O O8 0.555323 0.040574 0.941574
O O9 0.750000 0.594215 0.077115
O O10 0.642266 0.605135 0.119509
O O11 0.689665 0.507293 0.116309
O O12 0.422632 0.039071 0.381338
O O13 0.331504 0.077810 0.474366
O O14 0.418811 0.750000 0.616828
O O15 0.437605 0.679305 0.764603
O O16 0.527129 0.472872 0.750000
O O17 0.750000 0.611909 0.408465
O O18 0.679181 0.537115 0.348304
O O19 0.536569 0.250000 0.092314
#
# Coordination Sequence:
#
# PCOD9570077 Si02
#       8
#    16  16  16  16  16  16  16  16
#     4  10  22  34  51  73 103 141 186 233 280 321
#     4  11  22  37  55  81 114 145 177 227 278 334
#     4   9  19  34  48  71 100 136 175 221 268 321
#     4  11  20  35  54  74 106 141 181 225 280 337
#     4  10  19  32  54  79 107 139 175 211 262 329
#     4  11  24  33  54  83 115 144 178 226 284 338
#     4  10  21  36  54  73 102 141 189 232 274 325
#     4  10  20  35  55  81 107 142 181 220 266 329
#
# _framework density 17.110534999999999
#
# number of rings (size 3 to 8) (size 9 to 14) (size 15 to 20)
#    0.000    1.750    2.500    2.250    3.500    1.750 
#    0.000    0.000    0.000    3.375    0.000    1.750 
#    0.000    0.000    0.000    1.125    0.000    0.125 
#
# Total GULP energy -713208.234999 kJ/mol
# GULP energy per Si atom -5571.939336 kJ/mol
# Density = 1.707159 g / cm^3
# Si number density = 17.110535 Si / 1000 Ang^3
#
#
#
# Elastic Constant Matrix: (Units=GPa)
#
#
# Indices 1 2 3 4 5 6 
#
# 1 58.1533 14.0356 4.7968 0.0000 0.0000 0.0000
# 2 14.0356 58.1539 4.7973 0.0000 0.0000 0.0000
# 3 4.7968 4.7973 69.0346 0.0000 0.0000 0.0000
# 4 0.0000 0.0000 0.0000 18.4885 0.0000 0.0000
# 5 0.0000 0.0000 0.0000 0.0000 18.4885 0.0000
# 6 0.0000 0.0000 0.0000 0.0000 0.0000 14.9332
#
#
#
# Elastic Compliance Matrix: (Units=1/GPa)
#
#
# Indices 1 2 3 4 5 6 
#
# 1 0.018324 -0.004342 -0.000971 0.000000 0.000000 0.000000
# 2 -0.004342 0.018324 -0.000972 0.000000 0.000000 0.000000
# 3 -0.000971 -0.000972 0.014621 0.000000 0.000000 0.000000
# 4 0.000000 0.000000 0.000000 0.054088 0.000000 0.000000
# 5 0.000000 0.000000 0.000000 0.000000 0.054088 0.000000
# 6 0.000000 0.000000 0.000000 0.000000 0.000000 0.066965
#
#
# Mechanical properties :
#
#
# Convention : Reuss Voigt Hill
#
# Bulk Modulus (GPa) = 25.84146 25.84460 25.84303
# Shear Modulus (GPa) = 19.85079 21.16285 20.50682
#
# Velocity S-wave (km/s) = 3.40979 3.52068 3.46568
# Velocity P-wave (km/s) = 5.53513 5.62709 5.58130
#
# Compressibility (1/GPa) = 0.03869751
#
# Stress axis : x y z
#
# Youngs Moduli (GPa) = 54.57286 54.57333 68.39710
#
# Poissons Ratio (x) = 0.23698 0.06645
# Poissons Ratio (y) = 0.23698 0.06646
# Poissons Ratio (z) = 0.05302 0.05302
#
# Static dielectric constant tensor:
#      x y z
#    x 1.587400 0.000000 0.000000 
#    y 0.000000 1.587400 0.000000 
#    z 0.000000 0.000000 1.630650 
# 
# From -- ./inp_files/4006.got.cif
#   From: 2010.05.17/outbox.cif.g08.bks.cpg/sg137_3_cif.got.tgz:4006.got - 2010.05.20 13:01:12.
