data_PCOD9570886
_publ_section_title
;
Structure prediction by ZEFSAII (Michael W. Deem and Ramdas Pophale) SiO2 
 PCOD9570886
Probable space group: P 42/N C M
;
_chemical_formula_sum "Si O2"
_cell_formula_units_Z 96
_cell_length_a 25.269815
_cell_length_b 25.269815
_cell_length_c 8.801788
_cell_angle_alpha 90.000000
_cell_angle_beta 90.000000
_cell_angle_gamma 90.000000
_cell_volume 5620.500993
_symmetry_space_group_name_H-M "P 42/N C M"
_symmetry_group_IT_number 138
_space_group.IT_coordinate_system_code '2'
_symmetry_cell_setting 'tetragonal'
loop_
_space_group_symop_operation_xyz
x,y,z
1/2-y,x,1/2+z
1/2-x,1/2-y,z
y,1/2-x,1/2+z
1/2+x,-y,1/2-z
-x,1/2+y,1/2-z
1/2+y,1/2+x,-z
-y,-x,-z
-x,-y,-z
1/2+y,-x,1/2-z
1/2+x,1/2+y,-z
-y,1/2+x,1/2-z
1/2-x,y,1/2+z
x,1/2-y,1/2+z
1/2-y,1/2-x,z
y,x,z
loop_
_atom_site_type_symbol
_atom_site_label
_atom_site_fract_x
_atom_site_fract_y
_atom_site_fract_z
Si Si1 0.135507 0.807818 0.121511
Si Si2 0.809096 0.360713 0.126388
Si Si3 0.804729 0.477610 0.452181
Si Si4 0.504538 0.415542 0.925334
Si Si5 0.585407 0.003560 0.935195
Si Si6 0.806719 0.021078 0.587030
O O1 0.145860 0.851549 0.249140
O O2 0.140517 0.749794 0.193333
O O3 0.080276 0.810751 0.031916
O O4 0.181152 0.818849 0.000000
O O5 0.813573 0.417044 0.044852
O O6 0.816420 0.316420 0.000000
O O7 0.858568 0.506173 0.501688
O O8 0.748652 0.498333 0.516323
O O9 0.803008 0.477562 0.269830
O O10 0.456170 0.456170 0.949891
O O11 0.511544 0.407976 0.745081
O O12 0.555807 0.444194 0.000000
O O13 0.545935 0.954066 0.958721
O O14 0.554650 0.054650 0.000000
O O15 0.640921 0.994486 0.019842
#
# Coordination Sequence:
#
# PCOD9570886 Si02
#       6
#    16  16  16  16  16  16
#     4  11  22  37  47  67  90 124 172 219 270 315
#     4  11  24  33  50  66  89 126 168 221 270 316
#     4  11  23  36  55  74 103 137 174 217 265 323
#     4  10  21  36  57  83 109 139 176 221 270 321
#     4  10  21  36  56  82 109 138 176 222 270 321
#     4  11  23  37  54  76 102 139 174 218 266 322
#
# _framework density 17.080327
#
# number of rings (size 3 to 8) (size 9 to 14) (size 15 to 20)
#    0.000    1.333    1.667    4.000   11.667    4.000 
#    0.000    0.000    0.000    0.000    0.000    0.000 
#    0.000    0.667    0.000    7.000    0.000    3.000 
#
# Total GULP energy -535870.049069 kJ/mol
# GULP energy per Si atom -5581.979678 kJ/mol
# Density = 1.704145 g / cm^3
# Si number density = 17.080327 Si / 1000 Ang^3
#
#
#
# Elastic Constant Matrix: (Units=GPa)
#
#
# Indices 1 2 3 4 5 6 
#
# 1 74.6362 17.1677 31.8711 0.0000 0.0000 0.0000
# 2 17.1677 74.6369 31.8717 0.0000 0.0000 0.0000
# 3 31.8711 31.8717 76.2186 0.0000 0.0000 0.0000
# 4 0.0000 0.0000 0.0000 26.0563 0.0000 0.0000
# 5 0.0000 0.0000 0.0000 0.0000 26.0561 0.0000
# 6 0.0000 0.0000 0.0000 0.0000 0.0000 17.6848
#
#
#
# Elastic Compliance Matrix: (Units=1/GPa)
#
#
# Indices 1 2 3 4 5 6 
#
# 1 0.016375 -0.001026 -0.006418 0.000000 0.000000 0.000000
# 2 -0.001026 0.016375 -0.006418 0.000000 0.000000 0.000000
# 3 -0.006418 -0.006418 0.018488 0.000000 0.000000 0.000000
# 4 0.000000 0.000000 0.000000 0.038378 0.000000 0.000000
# 5 0.000000 0.000000 0.000000 0.000000 0.038379 0.000000
# 6 0.000000 0.000000 0.000000 0.000000 0.000000 0.056546
#
#
# Mechanical properties :
#
#
# Convention : Reuss Voigt Hill
#
# Bulk Modulus (GPa) = 42.52996 43.03476 42.78236
# Shear Modulus (GPa) = 22.71657 23.59818 23.15737
#
# Velocity S-wave (km/s) = 3.65085 3.72102 3.68610
# Velocity P-wave (km/s) = 6.53649 6.61147 6.57408
#
# Compressibility (1/GPa) = 0.02351284
#
# Stress axis : x y z
#
# Youngs Moduli (GPa) = 61.06860 61.06883 54.08916
#
# Poissons Ratio (x) = 0.06264 0.34716
# Poissons Ratio (y) = 0.06264 0.34717
# Poissons Ratio (z) = 0.39196 0.39197
#
# Static dielectric constant tensor:
#      x y z
#    x 1.590180 0.000000 0.000000 
#    y 0.000000 1.590180 0.000000 
#    z 0.000000 0.000000 1.621990 
# 
# From -- ./inp_files/1722.got.cif
#   From: 2010.05.17/outbox.cif.g08.bks.cpg/sg138_1_cif.got.tgz:1722.got - 2010.05.20 13:08:53.
