data_PCOD9570168
_publ_section_title
;
Structure prediction by ZEFSAII (Michael W. Deem and Ramdas Pophale) SiO2 
 PCOD9570168
Probable space group: P 42/N M C
;
_chemical_formula_sum "Si O2"
_cell_formula_units_Z 72
_cell_length_a 30.863189
_cell_length_b 30.863189
_cell_length_c 5.261597
_cell_angle_alpha 90.000000
_cell_angle_beta 90.000000
_cell_angle_gamma 90.000000
_cell_volume 5011.862850
_symmetry_space_group_name_H-M "P 42/N M C"
_symmetry_group_IT_number 137
_space_group.IT_coordinate_system_code '2'
_symmetry_cell_setting 'tetragonal'
loop_
_space_group_symop_operation_xyz
x,y,z
1/2-y,x,1/2+z
1/2-x,1/2-y,z
y,1/2-x,1/2+z
1/2+x,-y,-z
-x,1/2+y,-z
1/2+y,1/2+x,1/2-z
-y,-x,1/2-z
-x,-y,-z
1/2+y,-x,1/2-z
1/2+x,1/2+y,-z
-y,1/2+x,1/2-z
1/2-x,y,z
x,1/2-y,z
1/2-y,1/2-x,1/2+z
y,x,1/2+z
loop_
_atom_site_type_symbol
_atom_site_label
_atom_site_fract_x
_atom_site_fract_y
_atom_site_fract_z
Si Si1 0.200927 0.638830 0.369586
Si Si2 0.027637 0.852676 0.721746
Si Si3 0.016350 0.056609 0.247359
Si Si4 0.042171 0.700031 0.245426
Si Si5 0.622591 0.122591 0.250000
O O1 0.183404 0.683404 0.250000
O O2 0.250000 0.643154 0.467969
O O3 0.200673 0.594642 0.202526
O O4 0.163164 0.628095 0.565932
O O5 0.018808 0.819940 0.490628
O O6 0.074256 0.873335 0.644517
O O7 0.995364 0.892889 0.745900
O O8 0.032801 0.827855 0.991147
O O9 0.043110 0.041783 0.493809
O O10 0.972229 0.027772 0.250000
O O11 0.030215 0.750000 0.200820
#
# Coordination Sequence:
#
# PCOD9570168 Si02
#       5
#    16  16  16  16   8
#     4  10  20  33  45  59  79 102 135 187 234 292
#     4  11  19  33  53  67  91 120 145 181 238 276
#     4  10  20  32  46  71  98 118 147 183 224 287
#     4  10  21  33  50  70  88 112 154 195 227 273
#     4  10  20  32  46  65  76 108 148 170 226 306
#
# _framework density 14.365916
#
# number of rings (size 3 to 8) (size 9 to 14) (size 15 to 20)
#    0.000    1.778    3.333    2.000    0.000    2.000 
#    0.000    0.000    0.000    0.000    0.000    0.000 
#    0.000    0.000    0.000    0.000    0.000    0.000 
#
# Total GULP energy -400911.361614 kJ/mol
# GULP energy per Si atom -5568.213356 kJ/mol
# Density = 1.433322 g / cm^3
# Si number density = 14.365916 Si / 1000 Ang^3
#
#
#
# Elastic Constant Matrix: (Units=GPa)
#
#
# Indices 1 2 3 4 5 6 
#
# 1 66.1502 50.4527 31.6593 0.0000 0.0000 0.0000
# 2 50.4527 66.1497 31.6593 0.0000 0.0000 0.0000
# 3 31.6593 31.6593 76.3112 0.0000 0.0000 0.0000
# 4 0.0000 0.0000 0.0000 12.9296 0.0000 0.0000
# 5 0.0000 0.0000 0.0000 0.0000 12.9287 0.0000
# 6 0.0000 0.0000 0.0000 0.0000 0.0000 24.1371
#
#
#
# Elastic Compliance Matrix: (Units=1/GPa)
#
#
# Indices 1 2 3 4 5 6 
#
# 1 0.037388 -0.026318 -0.004593 0.000000 0.000000 0.000000
# 2 -0.026318 0.037388 -0.004593 0.000000 0.000000 0.000000
# 3 -0.004593 -0.004593 0.016915 0.000000 0.000000 0.000000
# 4 0.000000 0.000000 0.000000 0.077342 0.000000 0.000000
# 5 0.000000 0.000000 0.000000 0.000000 0.077348 0.000000
# 6 0.000000 0.000000 0.000000 0.000000 0.000000 0.041430
#
#
# Mechanical properties :
#
#
# Convention : Reuss Voigt Hill
#
# Bulk Modulus (GPa) = 48.34538 48.46151 48.40344
# Shear Modulus (GPa) = 13.67201 16.32173 14.99687
#
# Velocity S-wave (km/s) = 3.08831 3.37433 3.23448
# Velocity P-wave (km/s) = 6.81489 6.99917 6.90764
#
# Compressibility (1/GPa) = 0.02068450
#
# Stress axis : x y z
#
# Youngs Moduli (GPa) = 26.74682 26.74655 59.11925
#
# Poissons Ratio (x) = 0.70391 0.27151
# Poissons Ratio (y) = 0.70392 0.27152
# Poissons Ratio (z) = 0.12284 0.12284
#
# Static dielectric constant tensor:
#      x y z
#    x 1.474710 0.000000 0.000000 
#    y 0.000000 1.474710 0.000000 
#    z 0.000000 0.000000 1.545140 
# 
# From -- ./inp_files/525.got.cif
#   From: 2010.05.17/outbox.cif.g08.bks.cpg/sg137_1_cif.got.tgz:525.got - 2010.05.20 13:01:12.
