data_PCOD9570452
_publ_section_title
;
Structure prediction by ZEFSAII (Michael W. Deem and Ramdas Pophale) SiO2 
 PCOD9570452
Probable space group: P 42/N M C
;
_chemical_formula_sum "Si O2"
_cell_formula_units_Z 56
_cell_length_a 14.488801
_cell_length_b 14.488801
_cell_length_c 12.736853
_cell_angle_alpha 90.000000
_cell_angle_beta 90.000000
_cell_angle_gamma 90.000000
_cell_volume 2673.788380
_symmetry_space_group_name_H-M "P 42/N M C"
_symmetry_group_IT_number 137
_space_group.IT_coordinate_system_code '2'
_symmetry_cell_setting 'tetragonal'
loop_
_space_group_symop_operation_xyz
x,y,z
1/2-y,x,1/2+z
1/2-x,1/2-y,z
y,1/2-x,1/2+z
1/2+x,-y,-z
-x,1/2+y,-z
1/2+y,1/2+x,1/2-z
-y,-x,1/2-z
-x,-y,-z
1/2+y,-x,1/2-z
1/2+x,1/2+y,-z
-y,1/2+x,1/2-z
1/2-x,y,z
x,1/2-y,z
1/2-y,1/2-x,1/2+z
y,x,1/2+z
loop_
_atom_site_type_symbol
_atom_site_label
_atom_site_fract_x
_atom_site_fract_y
_atom_site_fract_z
Si Si1 0.909834 0.567792 0.487830
Si Si2 0.250000 0.032552 0.134396
Si Si3 0.750000 0.141214 0.981009
Si Si4 0.750000 0.635929 0.642934
Si Si5 0.589735 0.351915 0.146278
O O1 0.938740 0.660452 0.430472
O O2 0.842892 0.598125 0.583695
O O3 0.849510 0.507972 0.408262
O O4 0.000000 0.500000 0.500000
O O5 0.250000 0.085571 0.244272
O O6 0.250000 0.920911 0.123188
O O7 0.750000 0.250000 0.957374
O O8 0.836891 0.120774 0.057071
O O9 0.750000 0.750000 0.646297
O O10 0.586901 0.413100 0.250000
O O11 0.617019 0.250000 0.184021
#
# Coordination Sequence:
#
# PCOD9570452 Si02
#       5
#    16   8   8   8  16
#     4  12  27  49  75 108 150 196 257 318 375 464
#     4  12  28  48  79 107 150 201 259 316 390 455
#     4  10  22  43  69 107 153 188 244 317 376 458
#     4  12  30  53  80 110 155 205 259 319 392 463
#     4  11  22  40  73 107 147 195 245 304 374 439
#
# _framework density 20.944067
#
# number of rings (size 3 to 8) (size 9 to 14) (size 15 to 20)
#    0.000    0.571    7.143    0.000    6.000    0.000 
#    0.000    0.000    3.143    0.000    0.000    0.000 
#    0.000    0.000    0.000    0.000    0.000    0.000 
#
# Total GULP energy -312229.335792 kJ/mol
# GULP energy per Si atom -5575.523853 kJ/mol
# Density = 2.089640 g / cm^3
# Si number density = 20.944067 Si / 1000 Ang^3
#
#
#
# Elastic Constant Matrix: (Units=GPa)
#
#
# Indices 1 2 3 4 5 6 
#
# 1 161.6497 59.4721 78.6394 0.0000 0.0000 0.0000
# 2 59.4721 161.6494 78.6387 0.0000 0.0000 0.0000
# 3 78.6394 78.6387 132.0727 0.0000 0.0000 0.0000
# 4 0.0000 0.0000 0.0000 141.8604 0.0000 0.0000
# 5 0.0000 0.0000 0.0000 0.0000 142.0887 0.0000
# 6 0.0000 0.0000 0.0000 0.0000 0.0000 -65.0792
#
#
#
# Elastic Compliance Matrix: (Units=1/GPa)
#
#
# Indices 1 2 3 4 5 6 
#
# 1 0.008816 -0.000971 -0.004671 0.000000 0.000000 0.000000
# 2 -0.000971 0.008816 -0.004671 0.000000 0.000000 0.000000
# 3 -0.004671 -0.004671 0.013134 0.000000 0.000000 0.000000
# 4 0.000000 0.000000 0.000000 0.007049 0.000000 0.000000
# 5 0.000000 0.000000 0.000000 0.000000 0.007038 0.000000
# 6 0.000000 0.000000 0.000000 0.000000 0.000000 -0.015366
#
#
# Mechanical properties :
#
#
# Convention : Reuss Voigt Hill
#
# Bulk Modulus (GPa) = 98.62250 98.76356 98.69303
# Shear Modulus (GPa) = 93.47119 59.68206 76.57663
#
# Velocity S-wave (km/s) = 6.68774 5.34395 6.05325
# Velocity P-wave (km/s) = 10.33563 9.23771 9.80205
#
# Compressibility (1/GPa) = 0.01013967
#
# Stress axis : x y z
#
# Youngs Moduli (GPa) = 113.43243 113.43302 76.13870
#
# Poissons Ratio (x) = 0.11015 0.35564
# Poissons Ratio (y) = 0.11015 0.35563
# Poissons Ratio (z) = 0.52984 0.52983
#
# Static dielectric constant tensor:
#      x y z
#    x 1.813170 0.000000 0.000000 
#    y 0.000000 1.813250 0.000000 
#    z 0.000000 0.000000 1.731500 
# 
# From -- ./inp_files/3190.got.cif
#   From: 2010.05.17/outbox.cif.g08.bks.cpg/sg137_2_cif.got.tgz:3190.got - 2010.05.20 13:01:12.
