data_PCOD9570268
_publ_section_title
;
Structure prediction by ZEFSAII (Michael W. Deem and Ramdas Pophale) SiO2 
 PCOD9570268
Probable space group: P 42/N M C
;
_chemical_formula_sum "Si O2"
_cell_formula_units_Z 96
_cell_length_a 13.125551
_cell_length_b 13.125551
_cell_length_c 22.724287
_cell_angle_alpha 90.000000
_cell_angle_beta 90.000000
_cell_angle_gamma 90.000000
_cell_volume 3914.942188
_symmetry_space_group_name_H-M "P 42/N M C"
_symmetry_group_IT_number 137
_space_group.IT_coordinate_system_code '2'
_symmetry_cell_setting 'tetragonal'
loop_
_space_group_symop_operation_xyz
x,y,z
1/2-y,x,1/2+z
1/2-x,1/2-y,z
y,1/2-x,1/2+z
1/2+x,-y,-z
-x,1/2+y,-z
1/2+y,1/2+x,1/2-z
-y,-x,1/2-z
-x,-y,-z
1/2+y,-x,1/2-z
1/2+x,1/2+y,-z
-y,1/2+x,1/2-z
1/2-x,y,z
x,1/2-y,z
1/2-y,1/2-x,1/2+z
y,x,1/2+z
loop_
_atom_site_type_symbol
_atom_site_label
_atom_site_fract_x
_atom_site_fract_y
_atom_site_fract_z
Si Si1 0.371778 0.632709 0.812465
Si Si2 0.863192 0.575168 0.881853
Si Si3 0.868359 0.434790 0.436500
Si Si4 0.127185 0.137028 0.374987
Si Si5 0.423032 0.871687 0.067876
Si Si6 0.959925 0.872342 0.250832
O O1 0.409782 0.590218 0.750000
O O2 0.250000 0.635909 0.806821
O O3 0.408675 0.750000 0.816206
O O4 0.393765 0.584404 0.875770
O O5 0.750000 0.612771 0.892476
O O6 0.866902 0.452382 0.890711
O O7 0.892280 0.594582 0.813747
O O8 0.944482 0.621853 0.926461
O O9 0.750000 0.403574 0.436673
O O10 0.903731 0.401685 0.500582
O O11 0.250000 0.143678 0.375092
O O12 0.089048 0.250000 0.390132
O O13 0.108565 0.042259 0.418471
O O14 0.102432 0.104927 0.307593
O O15 0.402657 0.750000 0.076180
O O16 0.064858 0.935142 0.250000
O O17 0.978583 0.750000 0.249426
#
# Coordination Sequence:
#
# PCOD9570268 Si02
#       6
#    16  16  16  16  16  16
#     4   8  15  32  59  89 121 158 203 257 317 378
#     4  11  24  39  59  87 123 163 202 251 308 371
#     4  10  22  39  61  88 123 164 204 254 312 374
#     4   9  18  35  60  88 118 156 205 256 305 363
#     4  10  21  40  63  88 121 161 208 259 311 372
#     4  10  20  36  59  86 121 161 202 254 308 368
#
# _framework density 24.521435
#
# number of rings (size 3 to 8) (size 9 to 14) (size 15 to 20)
#    0.000    2.333    1.667    1.000    0.000    3.500 
#    0.000    7.500    0.000    0.000    0.000    0.000 
#    0.000    0.333    0.000    0.000    0.000    0.000 
#
# Total GULP energy -536650.369517 kJ/mol
# GULP energy per Si atom -5590.108016 kJ/mol
# Density = 2.446562 g / cm^3
# Si number density = 24.521435 Si / 1000 Ang^3
#
#
#
# Elastic Constant Matrix: (Units=GPa)
#
#
# Indices 1 2 3 4 5 6 
#
# 1 66.9201 -4.6292 13.1479 0.0000 0.0000 0.0000
# 2 -4.6292 66.9213 13.1467 0.0000 0.0000 0.0000
# 3 13.1479 13.1467 138.6541 0.0000 0.0000 0.0000
# 4 0.0000 0.0000 0.0000 19.5612 0.0000 0.0000
# 5 0.0000 0.0000 0.0000 0.0000 19.5610 0.0000
# 6 0.0000 0.0000 0.0000 0.0000 0.0000 27.3725
#
#
#
# Elastic Compliance Matrix: (Units=1/GPa)
#
#
# Indices 1 2 3 4 5 6 
#
# 1 0.015350 0.001373 -0.001586 0.000000 0.000000 0.000000
# 2 0.001373 0.015349 -0.001586 0.000000 0.000000 0.000000
# 3 -0.001586 -0.001586 0.007513 0.000000 0.000000 0.000000
# 4 0.000000 0.000000 0.000000 0.051122 0.000000 0.000000
# 5 0.000000 0.000000 0.000000 0.000000 0.051122 0.000000
# 6 0.000000 0.000000 0.000000 0.000000 0.000000 0.036533
#
#
# Mechanical properties :
#
#
# Convention : Reuss Voigt Hill
#
# Bulk Modulus (GPa) = 28.88837 35.09180 31.99009
# Shear Modulus (GPa) = 26.02490 30.02093 28.02292
#
# Velocity S-wave (km/s) = 3.26131 3.50276 3.38419
# Velocity P-wave (km/s) = 5.09784 5.54083 5.32395
#
# Compressibility (1/GPa) = 0.03461600
#
# Stress axis : x y z
#
# Youngs Moduli (GPa) = 65.14760 65.14908 133.10429
#
# Poissons Ratio (x) = -0.08947 0.21107
# Poissons Ratio (y) = -0.08947 0.21105
# Poissons Ratio (z) = 0.10331 0.10330
#
# Static dielectric constant tensor:
#      x y z
#    x 1.963500 0.000000 0.000000 
#    y 0.000000 1.963500 0.000000 
#    z 0.000000 0.000000 1.936930 
# 
# From -- ./inp_files/7804.got.cif
#   From: 2010.05.17/outbox.cif.g08.bks.cpg/sg137_4_cif.got.tgz:7804.got - 2010.05.20 13:01:12.
