data_PCOD9570668
_publ_section_title
;
Structure prediction by ZEFSAII (Michael W. Deem and Ramdas Pophale) SiO2 
 PCOD9570668
Probable space group: P 42/N C M
;
_chemical_formula_sum "Si O2"
_cell_formula_units_Z 64
_cell_length_a 26.600877
_cell_length_b 26.600877
_cell_length_c 5.500849
_cell_angle_alpha 90.000000
_cell_angle_beta 90.000000
_cell_angle_gamma 90.000000
_cell_volume 3892.437372
_symmetry_space_group_name_H-M "P 42/N C M"
_symmetry_group_IT_number 138
_space_group.IT_coordinate_system_code '2'
_symmetry_cell_setting 'tetragonal'
loop_
_space_group_symop_operation_xyz
x,y,z
1/2-y,x,1/2+z
1/2-x,1/2-y,z
y,1/2-x,1/2+z
1/2+x,-y,1/2-z
-x,1/2+y,1/2-z
1/2+y,1/2+x,-z
-y,-x,-z
-x,-y,-z
1/2+y,-x,1/2-z
1/2+x,1/2+y,-z
-y,1/2+x,1/2-z
1/2-x,y,1/2+z
x,1/2-y,1/2+z
1/2-y,1/2-x,z
y,x,z
loop_
_atom_site_type_symbol
_atom_site_label
_atom_site_fract_x
_atom_site_fract_y
_atom_site_fract_z
Si Si1 0.114727 0.540749 0.652059
Si Si2 0.628658 0.371343 0.500000
Si Si3 0.265616 0.648883 0.650555
Si Si4 0.274176 0.535527 0.069469
Si Si5 0.023028 0.023028 0.250146
O O1 0.078310 0.578310 0.500000
O O2 0.166724 0.527047 0.523923
O O3 0.080925 0.493919 0.735727
O O4 0.132019 0.574764 0.878168
O O5 0.675701 0.364483 0.320663
O O6 0.256311 0.674040 0.389070
O O7 0.236693 0.595588 0.603044
O O8 0.256101 0.516139 0.333908
O O9 0.000000 0.000000 0.500000
O O10 0.000000 0.000000 0.000000
#
# Coordination Sequence:
#
# PCOD9570668 Si02
#       5
#    16   8  16  16   8
#     4  11  21  32  51  71  97 125 156 197 245 282
#     4  12  20  29  56  63  86 120 148 204 236 268
#     4  10  20  32  43  68  82 105 151 191 233 281
#     4  10  19  33  47  69  89 113 159 200 229 283
#     4  10  22  34  46  72 102 126 158 185 238 309
#
# _framework density 16.442139000000001
#
# number of rings (size 3 to 8) (size 9 to 14) (size 15 to 20)
#    0.000    1.500    6.250    3.000    0.000    0.000 
#    0.000    0.000    0.000    2.250    0.000    0.000 
#    0.000    0.000    0.000    0.000    0.000    3.750 
#
# Total GULP energy -356878.089929 kJ/mol
# GULP energy per Si atom -5576.220155 kJ/mol
# Density = 1.640472 g / cm^3
# Si number density = 16.442139 Si / 1000 Ang^3
#
#
#
# Elastic Constant Matrix: (Units=GPa)
#
#
# Indices 1 2 3 4 5 6 
#
# 1 57.2425 53.1479 12.4529 0.0000 0.0000 0.0000
# 2 53.1479 57.2466 12.4533 0.0000 0.0000 0.0000
# 3 12.4529 12.4533 108.4235 0.0000 0.0000 0.0000
# 4 0.0000 0.0000 0.0000 15.3512 0.0000 0.0000
# 5 0.0000 0.0000 0.0000 0.0000 15.3507 0.0000
# 6 0.0000 0.0000 0.0000 0.0000 0.0000 21.9404
#
#
#
# Elastic Compliance Matrix: (Units=1/GPa)
#
#
# Indices 1 2 3 4 5 6 
#
# 1 0.126705 -0.117400 -0.001068 0.000000 0.000000 0.000000
# 2 -0.117400 0.126695 -0.001068 0.000000 0.000000 0.000000
# 3 -0.001068 -0.001068 0.009468 0.000000 0.000000 0.000000
# 4 0.000000 0.000000 0.000000 0.065141 0.000000 0.000000
# 5 0.000000 0.000000 0.000000 0.000000 0.065144 0.000000
# 6 0.000000 0.000000 0.000000 0.000000 0.000000 0.045578
#
#
# Mechanical properties :
#
#
# Convention : Reuss Voigt Hill
#
# Bulk Modulus (GPa) = 42.02537 42.11341 42.06939
# Shear Modulus (GPa) = 7.29143 20.18570 13.73857
#
# Velocity S-wave (km/s) = 2.10813 3.50763 2.89376
# Velocity P-wave (km/s) = 5.61611 6.48639 6.06688
#
# Compressibility (1/GPa) = 0.02379515
#
# Stress axis : x y z
#
# Youngs Moduli (GPa) = 7.89238 7.89294 105.61394
#
# Poissons Ratio (x) = 0.92663 0.11281
# Poissons Ratio (y) = 0.92657 0.11280
# Poissons Ratio (z) = 0.00843 0.00843
#
# Static dielectric constant tensor:
#      x y z
#    x 1.577040 0.000000 0.000000 
#    y 0.000000 1.577030 0.000000 
#    z 0.000000 0.000000 1.817950 
# 
# From -- ./inp_files/385.got.cif
#   From: 2010.05.17/outbox.cif.g08.bks.cpg/sg138_1_cif.got.tgz:385.got - 2010.05.20 13:08:53.
