data_PCOD9570195
_publ_section_title
;
Structure prediction by ZEFSAII (Michael W. Deem and Ramdas Pophale) SiO2 
 PCOD9570195
Probable space group: P 42/N M C
;
_chemical_formula_sum "Si O2"
_cell_formula_units_Z 112
_cell_length_a 15.814308
_cell_length_b 15.814308
_cell_length_c 26.328918
_cell_angle_alpha 90.000000
_cell_angle_beta 90.000000
_cell_angle_gamma 90.000000
_cell_volume 6584.660647
_symmetry_space_group_name_H-M "P 42/N M C"
_symmetry_group_IT_number 137
_space_group.IT_coordinate_system_code '2'
_symmetry_cell_setting 'tetragonal'
loop_
_space_group_symop_operation_xyz
x,y,z
1/2-y,x,1/2+z
1/2-x,1/2-y,z
y,1/2-x,1/2+z
1/2+x,-y,-z
-x,1/2+y,-z
1/2+y,1/2+x,1/2-z
-y,-x,1/2-z
-x,-y,-z
1/2+y,-x,1/2-z
1/2+x,1/2+y,-z
-y,1/2+x,1/2-z
1/2-x,y,z
x,1/2-y,z
1/2-y,1/2-x,1/2+z
y,x,1/2+z
loop_
_atom_site_type_symbol
_atom_site_label
_atom_site_fract_x
_atom_site_fract_y
_atom_site_fract_z
Si Si1 0.153534 0.847685 0.188868
Si Si2 0.550772 0.999394 0.447319
Si Si3 0.848905 0.068900 0.201696
Si Si4 0.055113 0.484695 0.344345
Si Si5 0.350431 0.157415 0.398997
Si Si6 0.351581 0.345157 0.515874
Si Si7 0.649469 0.156224 0.409962
O O1 0.154194 0.845807 0.250000
O O2 0.250000 0.873652 0.172928
O O3 0.140809 0.750000 0.171331
O O4 0.073603 0.905784 0.173815
O O5 0.609292 0.917029 0.449909
O O6 0.500000 0.000000 0.500000
O O7 0.496523 0.996823 0.395980
O O8 0.605600 0.084131 0.442520
O O9 0.874324 0.125676 0.250000
O O10 0.750000 0.039269 0.207515
O O11 0.851253 0.120560 0.148707
O O12 0.925315 0.000671 0.193548
O O13 0.125510 0.418177 0.362691
O O14 0.250000 0.163290 0.401031
O O15 0.384704 0.250000 0.383069
O O16 0.379140 0.142315 0.457007
O O17 0.250000 0.350087 0.516802
O O18 0.376153 0.250000 0.530636
O O19 0.750000 0.148766 0.412642
O O20 0.623899 0.250000 0.427460
#
# Coordination Sequence:
#
# PCOD9570195 Si02
#       7
#    16  16  16  16  16  16  16
#     4   9  19  37  58  77 101 136 176 219 272 332
#     4  11  21  32  47  73 103 135 164 208 260 304
#     4  10  20  33  53  80 108 139 174 215 265 322
#     4  11  20  32  52  78 109 133 174 218 268 315
#     4   9  17  30  49  71  97 132 172 214 257 304
#     4   9  18  33  51  67  89 130 177 211 247 301
#     4   9  19  35  53  72  98 135 174 211 252 304
#
# _framework density 17.009229000000001
#
# number of rings (size 3 to 8) (size 9 to 14) (size 15 to 20)
#    0.000    2.286    1.429    3.429    0.000    2.429 
#    0.000    0.000    0.000    1.714    0.000    0.000 
#    0.000    4.571    0.000    0.000    0.000    0.000 
#
# Total GULP energy -623604.283711 kJ/mol
# GULP energy per Si atom -5567.895390 kJ/mol
# Density = 1.697051 g / cm^3
# Si number density = 17.009229 Si / 1000 Ang^3
#
#
#
# Elastic Constant Matrix: (Units=GPa)
#
#
# Indices 1 2 3 4 5 6 
#
# 1 111.7270 70.1017 38.4389 0.0000 0.0000 0.0000
# 2 70.1017 111.7270 38.4389 0.0000 0.0000 0.0000
# 3 38.4389 38.4389 48.6464 0.0000 0.0000 0.0000
# 4 0.0000 0.0000 0.0000 23.2573 0.0000 0.0000
# 5 0.0000 0.0000 0.0000 0.0000 23.2573 0.0000
# 6 0.0000 0.0000 0.0000 0.0000 0.0000 18.5028
#
#
#
# Elastic Compliance Matrix: (Units=1/GPa)
#
#
# Indices 1 2 3 4 5 6 
#
# 1 0.016141 -0.007882 -0.006526 0.000000 0.000000 0.000000
# 2 -0.007882 0.016141 -0.006526 0.000000 0.000000 0.000000
# 3 -0.006526 -0.006526 0.030870 0.000000 0.000000 0.000000
# 4 0.000000 0.000000 0.000000 0.042997 0.000000 0.000000
# 5 0.000000 0.000000 0.000000 0.000000 0.042997 0.000000
# 6 0.000000 0.000000 0.000000 0.000000 0.000000 0.054046
#
#
# Mechanical properties :
#
#
# Convention : Reuss Voigt Hill
#
# Bulk Modulus (GPa) = 46.98416 62.89547 54.93982
# Shear Modulus (GPa) = 19.82901 21.34487 20.58694
#
# Velocity S-wave (km/s) = 3.41806 3.54630 3.48277
# Velocity P-wave (km/s) = 6.57725 7.33661 6.96728
#
# Compressibility (1/GPa) = 0.02128377
#
# Stress axis : x y z
#
# Youngs Moduli (GPa) = 61.95274 61.95271 32.39433
#
# Poissons Ratio (x) = 0.48834 0.21140
# Poissons Ratio (y) = 0.48834 0.21140
# Poissons Ratio (z) = 0.40430 0.40430
#
# Static dielectric constant tensor:
#      x y z
#    x 1.533530 0.000000 0.000000 
#    y 0.000000 1.533520 0.000000 
#    z 0.000000 0.000000 1.551140 
# 
# From -- ./inp_files/8946.got.cif
#   From: 2010.05.17/outbox.cif.g08.bks.cpg/sg137_5_cif.got.tgz:8946.got - 2010.05.20 13:01:12.
