data_PCOD9570039
_publ_section_title
;
Structure prediction by ZEFSAII (Michael W. Deem and Ramdas Pophale) SiO2 
 PCOD9570039
Probable space group: P 42/N M C
;
_chemical_formula_sum "Si O2"
_cell_formula_units_Z 72
_cell_length_a 22.468653
_cell_length_b 22.468653
_cell_length_c 8.568042
_cell_angle_alpha 90.000000
_cell_angle_beta 90.000000
_cell_angle_gamma 90.000000
_cell_volume 4325.493473
_symmetry_space_group_name_H-M "P 42/N M C"
_symmetry_group_IT_number 137
_space_group.IT_coordinate_system_code '2'
_symmetry_cell_setting 'tetragonal'
loop_
_space_group_symop_operation_xyz
x,y,z
1/2-y,x,1/2+z
1/2-x,1/2-y,z
y,1/2-x,1/2+z
1/2+x,-y,-z
-x,1/2+y,-z
1/2+y,1/2+x,1/2-z
-y,-x,1/2-z
-x,-y,-z
1/2+y,-x,1/2-z
1/2+x,1/2+y,-z
-y,1/2+x,1/2-z
1/2-x,y,z
x,1/2-y,z
1/2-y,1/2-x,1/2+z
y,x,1/2+z
loop_
_atom_site_type_symbol
_atom_site_label
_atom_site_fract_x
_atom_site_fract_y
_atom_site_fract_z
Si Si1 0.680597 0.062532 0.442862
Si Si2 0.390912 0.422439 0.041117
Si Si3 0.319284 0.819284 0.750000
Si Si4 0.590244 0.498637 0.670531
Si Si5 0.557758 0.680888 0.764490
O O1 0.750000 0.057593 0.489831
O O2 0.671079 0.128988 0.377763
O O3 0.636321 0.043327 0.579768
O O4 0.670717 0.011930 0.309175
O O5 0.379815 0.464854 0.188104
O O6 0.403286 0.357734 0.114858
O O7 0.452779 0.435978 0.950021
O O8 0.341499 0.428297 0.909001
O O9 0.325723 0.750000 0.696562
O O10 0.539134 0.460866 0.750000
O O11 0.569898 0.750000 0.782098
#
# Coordination Sequence:
#
# PCOD9570039 Si02
#       5
#    16  16   8  16  16
#     4   9  19  33  50  74 100 131 172 211 252 294
#     4   9  19  33  50  76 101 131 169 199 257 305
#     4   9  18  34  54  72  96 134 178 216 246 290
#     4  10  19  31  48  72 104 132 160 209 254 303
#     4   9  18  34  54  75 103 134 168 208 246 304
#
# _framework density 16.645499999999998
#
# number of rings (size 3 to 8) (size 9 to 14) (size 15 to 20)
#    0.000    2.778    0.000    0.667    3.111    0.889 
#    4.000    4.444    0.000    2.000    0.000    0.000 
#    0.000    0.000    0.000    0.000    0.000    0.000 
#
# Total GULP energy -400977.159006 kJ/mol
# GULP energy per Si atom -5569.127208 kJ/mol
# Density = 1.660761 g / cm^3
# Si number density = 16.645500 Si / 1000 Ang^3
#
#
#
# Elastic Constant Matrix: (Units=GPa)
#
#
# Indices 1 2 3 4 5 6 
#
# 1 70.3740 64.1494 53.5434 0.0000 0.0000 0.0000
# 2 64.1494 70.3681 53.5440 0.0000 0.0000 0.0000
# 3 53.5434 53.5440 101.8412 0.0000 0.0000 0.0000
# 4 0.0000 0.0000 0.0000 14.0616 0.0000 0.0000
# 5 0.0000 0.0000 0.0000 0.0000 14.0646 0.0000
# 6 0.0000 0.0000 0.0000 0.0000 0.0000 23.6429
#
#
#
# Elastic Compliance Matrix: (Units=1/GPa)
#
#
# Indices 1 2 3 4 5 6 
#
# 1 0.086750 -0.073972 -0.006718 0.000000 0.000000 0.000000
# 2 -0.073972 0.086764 -0.006726 0.000000 0.000000 0.000000
# 3 -0.006718 -0.006726 0.016887 0.000000 0.000000 0.000000
# 4 0.000000 0.000000 0.000000 0.071116 0.000000 0.000000
# 5 0.000000 0.000000 0.000000 0.000000 0.071100 0.000000
# 6 0.000000 0.000000 0.000000 0.000000 0.000000 0.042296
#
#
# Mechanical properties :
#
#
# Convention : Reuss Voigt Hill
#
# Bulk Modulus (GPa) = 64.22636 65.00633 64.61635
# Shear Modulus (GPa) = 9.01007 15.11026 12.06016
#
# Velocity S-wave (km/s) = 2.32909 3.01619 2.69463
# Velocity P-wave (km/s) = 6.77506 7.16017 6.97028
#
# Compressibility (1/GPa) = 0.01556993
#
# Stress axis : x y z
#
# Youngs Moduli (GPa) = 11.52733 11.52554 59.21683
#
# Poissons Ratio (x) = 0.85257 0.39779
# Poissons Ratio (y) = 0.85270 0.39827
# Poissons Ratio (z) = 0.07744 0.07752
#
# Static dielectric constant tensor:
#      x y z
#    x 1.560260 0.000000 0.000000 
#    y 0.000000 1.560260 0.000000 
#    z 0.000000 0.000000 1.550440 
# 
# From -- ./inp_files/1900.got.cif
#   From: 2010.05.17/outbox.cif.g08.bks.cpg/sg137_1_cif.got.tgz:1900.got - 2010.05.20 13:01:12.
