data_PCOD9570912
_publ_section_title
;
Structure prediction by ZEFSAII (Michael W. Deem and Ramdas Pophale) SiO2 
 PCOD9570912
Probable space group: P 42/N C M
;
_chemical_formula_sum "Si O2"
_cell_formula_units_Z 48
_cell_length_a 11.406239
_cell_length_b 11.406239
_cell_length_c 16.491688
_cell_angle_alpha 90.000000
_cell_angle_beta 90.000000
_cell_angle_gamma 90.000000
_cell_volume 2145.606344
_symmetry_space_group_name_H-M "P 42/N C M"
_symmetry_group_IT_number 138
_space_group.IT_coordinate_system_code '2'
_symmetry_cell_setting 'tetragonal'
loop_
_space_group_symop_operation_xyz
x,y,z
1/2-y,x,1/2+z
1/2-x,1/2-y,z
y,1/2-x,1/2+z
1/2+x,-y,1/2-z
-x,1/2+y,1/2-z
1/2+y,1/2+x,-z
-y,-x,-z
-x,-y,-z
1/2+y,-x,1/2-z
1/2+x,1/2+y,-z
-y,1/2+x,1/2-z
1/2-x,y,1/2+z
x,1/2-y,1/2+z
1/2-y,1/2-x,z
y,x,z
loop_
_atom_site_type_symbol
_atom_site_label
_atom_site_fract_x
_atom_site_fract_y
_atom_site_fract_z
Si Si1 0.599765 0.088725 0.630331
Si Si2 0.165790 0.515008 0.936495
Si Si3 0.654916 0.473448 0.313617
O O1 0.698865 0.050532 0.565835
O O2 0.564921 0.223636 0.645186
O O3 0.483195 0.016806 0.613301
O O4 0.650490 0.045163 0.717511
O O5 0.117936 0.382064 0.948277
O O6 0.114751 0.559879 0.851163
O O7 0.094684 0.594684 0.000000
O O8 0.603584 0.603584 0.331712
#
# Coordination Sequence:
#
# PCOD9570912 Si02
#       3
#    16  16  16
#     4  11  22  37  63  95 128 170 216 263 327 393
#     4  10  22  41  64  91 123 165 215 269 329 385
#     4  10  21  37  59  92 130 168 215 266 315 383
#
# _framework density 22.371300999999999
#
# number of rings (size 3 to 8) (size 9 to 14) (size 15 to 20)
#    0.000    1.667    3.333    1.000    0.000    4.000 
#    0.000    6.667    0.000    6.000    0.000    0.000 
#    0.000    0.000    0.000    0.000    0.000    0.000 
#
# Total GULP energy -267712.109840 kJ/mol
# GULP energy per Si atom -5577.335622 kJ/mol
# Density = 2.232038 g / cm^3
# Si number density = 22.371301 Si / 1000 Ang^3
#
#
#
# Elastic Constant Matrix: (Units=GPa)
#
#
# Indices 1 2 3 4 5 6 
#
# 1 92.2212 113.9336 -5.5605 0.0000 0.0000 0.0000
# 2 113.9336 92.2212 -5.5605 0.0000 0.0000 0.0000
# 3 -5.5605 -5.5605 41.1600 0.0000 0.0000 0.0000
# 4 0.0000 0.0000 0.0000 10.6193 0.0000 0.0000
# 5 0.0000 0.0000 0.0000 0.0000 10.6193 0.0000
# 6 0.0000 0.0000 0.0000 0.0000 0.0000 18.3085
#
#
#
# Elastic Compliance Matrix: (Units=1/GPa)
#
#
# Indices 1 2 3 4 5 6 
#
# 1 -0.020585 0.025472 0.000660 0.000000 0.000000 0.000000
# 2 0.025472 -0.020585 0.000660 0.000000 0.000000 0.000000
# 3 0.000660 0.000660 0.024474 0.000000 0.000000 0.000000
# 4 0.000000 0.000000 0.000000 0.094168 0.000000 0.000000
# 5 0.000000 0.000000 0.000000 0.000000 0.094168 0.000000
# 6 0.000000 0.000000 0.000000 0.000000 0.000000 0.054619
#
#
# Mechanical properties :
#
#
# Convention : Reuss Voigt Hill
#
# Bulk Modulus (GPa) = 27.10986 47.91418 37.51202
# Shear Modulus (GPa) = 27.03117 16.09540 21.56329
#
# Velocity S-wave (km/s) = 3.47983 2.68520 3.10801
# Velocity P-wave (km/s) = 5.31884 5.57476 5.44830
#
# Compressibility (1/GPa) = 0.03688694
#
# Stress axis : x y z
#
# Youngs Moduli (GPa) = -48.57853 -48.57853 40.86002
#
# Poissons Ratio (x) = 1.23737 -0.02697
# Poissons Ratio (y) = 1.23737 -0.02697
# Poissons Ratio (z) = 0.03207 0.03207
#
# Static dielectric constant tensor:
#      x y z
#    x 1.833760 0.000000 0.000000 
#    y 0.000000 1.833760 0.000000 
#    z 0.000000 0.000000 1.916170 
# 
# From -- ./inp_files/4710.got.cif
#   From: 2010.05.17/outbox.cif.g08.bks.cpg/sg138_3_cif.got.tgz:4710.got - 2010.05.20 13:08:53.
