data_PCOD9570356
_publ_section_title
;
Structure prediction by ZEFSAII (Michael W. Deem and Ramdas Pophale) SiO2 
 PCOD9570356
Probable space group: P 42/N M C
;
_chemical_formula_sum "Si O2"
_cell_formula_units_Z 112
_cell_length_a 15.457718
_cell_length_b 15.457718
_cell_length_c 27.321768
_cell_angle_alpha 90.000000
_cell_angle_beta 90.000000
_cell_angle_gamma 90.000000
_cell_volume 6528.291818
_symmetry_space_group_name_H-M "P 42/N M C"
_symmetry_group_IT_number 137
_space_group.IT_coordinate_system_code '2'
_symmetry_cell_setting 'tetragonal'
loop_
_space_group_symop_operation_xyz
x,y,z
1/2-y,x,1/2+z
1/2-x,1/2-y,z
y,1/2-x,1/2+z
1/2+x,-y,-z
-x,1/2+y,-z
1/2+y,1/2+x,1/2-z
-y,-x,1/2-z
-x,-y,-z
1/2+y,-x,1/2-z
1/2+x,1/2+y,-z
-y,1/2+x,1/2-z
1/2-x,y,z
x,1/2-y,z
1/2-y,1/2-x,1/2+z
y,x,1/2+z
loop_
_atom_site_type_symbol
_atom_site_label
_atom_site_fract_x
_atom_site_fract_y
_atom_site_fract_z
Si Si1 0.649621 0.347829 0.673090
Si Si2 0.151338 0.917042 0.063786
Si Si3 0.552517 0.990903 0.405075
Si Si4 0.352653 0.153693 0.647690
Si Si5 0.649904 0.149169 0.044249
Si Si6 0.348982 0.146863 0.757952
Si Si7 0.489075 0.463521 0.801752
O O1 0.750000 0.362753 0.685083
O O2 0.626221 0.250000 0.688581
O O3 0.636688 0.351857 0.614260
O O4 0.587639 0.420175 0.694902
O O5 0.250000 0.955679 0.062372
O O6 0.143900 0.862173 0.014417
O O7 0.069575 0.982255 0.067033
O O8 0.590611 0.074342 0.432274
O O9 0.514751 0.019339 0.352313
O O10 0.623587 0.919065 0.390651
O O11 0.250000 0.160136 0.651396
O O12 0.387040 0.250000 0.636158
O O13 0.382649 0.129800 0.702544
O O14 0.750000 0.125766 0.057844
O O15 0.636891 0.250000 0.057238
O O16 0.250000 0.115590 0.761870
O O17 0.348126 0.250000 0.762810
O O18 0.411488 0.104501 0.796834
O O19 0.486055 0.513946 0.750000
#
# Coordination Sequence:
#
# PCOD9570356 Si02
#       7
#    16  16  16  16  16  16  16
#     4   9  18  31  48  73 106 142 173 201 240 301
#     4   9  18  33  54  79 105 132 163 205 258 314
#     4  11  20  32  52  77 106 130 169 209 259 308
#     4   9  17  30  49  72  98 129 166 209 253 299
#     4  10  21  37  56  75  98 132 173 215 259 311
#     4   9  18  33  51  68  91 131 178 215 251 298
#     4  11  21  32  46  72 103 137 168 210 259 303
#
# _framework density 17.156095000000001
#
# number of rings (size 3 to 8) (size 9 to 14) (size 15 to 20)
#    0.000    2.286    1.429    3.000    0.000    4.000 
#    0.000    0.714    0.000    0.000    0.000    1.000 
#    0.000    4.571    0.000    0.000    0.000    0.000 
#
# Total GULP energy -623964.543728 kJ/mol
# GULP energy per Si atom -5571.111998 kJ/mol
# Density = 1.711705 g / cm^3
# Si number density = 17.156095 Si / 1000 Ang^3
#
#
#
# Elastic Constant Matrix: (Units=GPa)
#
#
# Indices 1 2 3 4 5 6 
#
# 1 66.0402 30.4651 24.8342 0.0000 0.0000 0.0000
# 2 30.4651 66.0396 24.8341 0.0000 0.0000 0.0000
# 3 24.8342 24.8341 67.1711 0.0000 0.0000 0.0000
# 4 0.0000 0.0000 0.0000 22.9425 0.0000 0.0000
# 5 0.0000 0.0000 0.0000 0.0000 22.9425 0.0000
# 6 0.0000 0.0000 0.0000 0.0000 0.0000 29.7539
#
#
#
# Elastic Compliance Matrix: (Units=1/GPa)
#
#
# Indices 1 2 3 4 5 6 
#
# 1 0.020453 -0.007656 -0.004731 0.000000 0.000000 0.000000
# 2 -0.007656 0.020454 -0.004731 0.000000 0.000000 0.000000
# 3 -0.004731 -0.004731 0.018386 0.000000 0.000000 0.000000
# 4 0.000000 0.000000 0.000000 0.043587 0.000000 0.000000
# 5 0.000000 0.000000 0.000000 0.000000 0.043587 0.000000
# 6 0.000000 0.000000 0.000000 0.000000 0.000000 0.033609
#
#
# Mechanical properties :
#
#
# Convention : Reuss Voigt Hill
#
# Bulk Modulus (GPa) = 39.91219 39.94641 39.92930
# Shear Modulus (GPa) = 22.45518 23.06896 22.76207
#
# Velocity S-wave (km/s) = 3.62176 3.67093 3.64643
# Velocity P-wave (km/s) = 6.38782 6.42668 6.40728
#
# Compressibility (1/GPa) = 0.02505500
#
# Stress axis : x y z
#
# Youngs Moduli (GPa) = 48.89157 48.89111 54.38966
#
# Poissons Ratio (x) = 0.37432 0.25733
# Poissons Ratio (y) = 0.37433 0.25734
# Poissons Ratio (z) = 0.23132 0.23132
#
# Static dielectric constant tensor:
#      x y z
#    x 1.597210 0.000000 0.000000 
#    y 0.000000 1.597210 0.000000 
#    z 0.000000 0.000000 1.580710 
# 
# From -- ./inp_files/9753.got.cif
#   From: 2010.05.17/outbox.cif.g08.bks.cpg/sg137_5_cif.got.tgz:9753.got - 2010.05.20 13:01:12.
