data_PCOD9570574
_publ_section_title
;
Structure prediction by ZEFSAII (Michael W. Deem and Ramdas Pophale) SiO2 
 PCOD9570574
Probable space group: P 42/N C M
;
_chemical_formula_sum "Si O2"
_cell_formula_units_Z 80
_cell_length_a 14.661887
_cell_length_b 14.661887
_cell_length_c 16.176984
_cell_angle_alpha 90.000000
_cell_angle_beta 90.000000
_cell_angle_gamma 90.000000
_cell_volume 3477.581302
_symmetry_space_group_name_H-M "P 42/N C M"
_symmetry_group_IT_number 138
_space_group.IT_coordinate_system_code '2'
_symmetry_cell_setting 'tetragonal'
loop_
_space_group_symop_operation_xyz
x,y,z
1/2-y,x,1/2+z
1/2-x,1/2-y,z
y,1/2-x,1/2+z
1/2+x,-y,1/2-z
-x,1/2+y,1/2-z
1/2+y,1/2+x,-z
-y,-x,-z
-x,-y,-z
1/2+y,-x,1/2-z
1/2+x,1/2+y,-z
-y,1/2+x,1/2-z
1/2-x,y,1/2+z
x,1/2-y,1/2+z
1/2-y,1/2-x,z
y,x,z
loop_
_atom_site_type_symbol
_atom_site_label
_atom_site_fract_x
_atom_site_fract_y
_atom_site_fract_z
Si Si1 0.295917 0.056756 0.085846
Si Si2 0.102853 0.255854 0.753081
Si Si3 0.579356 0.437366 0.671599
Si Si4 0.400772 0.763889 0.044958
Si Si5 0.531213 0.380658 0.848299
O O1 0.351003 0.148998 0.059816
O O2 0.223006 0.072505 0.158781
O O3 0.368248 0.994875 0.135285
O O4 0.265425 0.991917 0.011537
O O5 0.158668 0.341333 0.788175
O O6 0.177645 0.177645 0.739168
O O7 0.030175 0.203276 0.810463
O O8 0.534995 0.534995 0.654086
O O9 0.669034 0.417047 0.621946
O O10 0.584419 0.420812 0.769153
O O11 0.399546 0.663054 0.085326
O O12 0.315891 0.815891 0.000000
O O13 0.458771 0.458771 0.876461
#
# Coordination Sequence:
#
# PCOD9570574 Si02
#       5
#    16  16  16  16  16
#     4   8  14  24  39  63  95 130 170 219 271 323
#     4   8  14  25  39  58  94 142 181 216 269 334
#     4   8  15  29  46  65  96 138 181 225 276 338
#     4  10  18  28  48  78 107 137 185 241 289 341
#     4   9  18  31  46  70 107 147 188 236 286 337
#
# _framework density 23.004494000000001
#
# number of rings (size 3 to 8) (size 9 to 14) (size 15 to 20)
#    0.000    3.400    0.000    3.000    0.000    4.800 
#    0.000    0.000    0.000    0.600    0.000   19.600 
#    0.000   30.400    0.000    0.000    0.000    1.200 
#
# Total GULP energy -445549.102347 kJ/mol
# GULP energy per Si atom -5569.363779 kJ/mol
# Density = 2.295214 g / cm^3
# Si number density = 23.004494 Si / 1000 Ang^3
#
#
#
# Elastic Constant Matrix: (Units=GPa)
#
#
# Indices 1 2 3 4 5 6 
#
# 1 26.5520 59.1052 28.9510 0.0000 0.0000 0.0000
# 2 59.1052 26.5520 28.9510 0.0000 0.0000 0.0000
# 3 28.9510 28.9510 55.2977 0.0000 0.0000 0.0000
# 4 0.0000 0.0000 0.0000 26.5593 0.0000 0.0000
# 5 0.0000 0.0000 0.0000 0.0000 26.5593 0.0000
# 6 0.0000 0.0000 0.0000 0.0000 0.0000 22.5609
#
#
#
# Elastic Compliance Matrix: (Units=1/GPa)
#
#
# Indices 1 2 3 4 5 6 
#
# 1 -0.006325 0.024394 -0.009460 0.000000 0.000000 0.000000
# 2 0.024394 -0.006325 -0.009460 0.000000 0.000000 0.000000
# 3 -0.009460 -0.009460 0.027990 0.000000 0.000000 0.000000
# 4 0.000000 0.000000 0.000000 0.037652 0.000000 0.000000
# 5 0.000000 0.000000 0.000000 0.000000 0.037652 0.000000
# 6 0.000000 0.000000 0.000000 0.000000 0.000000 0.044325
#
#
# Mechanical properties :
#
#
# Convention : Reuss Voigt Hill
#
# Bulk Modulus (GPa) = 38.04075 38.04623 38.04349
# Shear Modulus (GPa) = 37.65557 14.56218 26.10888
#
# Velocity S-wave (km/s) = 4.05023 2.51871 3.37255
# Velocity P-wave (km/s) = 6.20037 5.00330 5.63372
#
# Compressibility (1/GPa) = 0.02628760
#
# Stress axis : x y z
#
# Youngs Moduli (GPa) = -158.10605 -158.10605 35.72757
#
# Poissons Ratio (x) = 3.85685 0.33799
# Poissons Ratio (y) = 3.85685 0.33799
# Poissons Ratio (z) = -1.49570 -1.49570
#
# Static dielectric constant tensor:
#      x y z
#    x 2.551970 0.000000 0.000000 
#    y 0.000000 2.551970 0.000000 
#    z 0.000000 0.000000 1.872820 
# 
# From -- ./inp_files/4057.got.cif
#   From: 2010.05.17/outbox.cif.g08.bks.cpg/sg138_3_cif.got.tgz:4057.got - 2010.05.20 13:08:53.
