data_PCOD9570965
_publ_section_title
;
Structure prediction by ZEFSAII (Michael W. Deem and Ramdas Pophale) SiO2 
 PCOD9570965
Probable space group: P 42/N C M
;
_chemical_formula_sum "Si O2"
_cell_formula_units_Z 56
_cell_length_a 13.489331
_cell_length_b 13.489331
_cell_length_c 12.710852
_cell_angle_alpha 90.000000
_cell_angle_beta 90.000000
_cell_angle_gamma 90.000000
_cell_volume 2312.892698
_symmetry_space_group_name_H-M "P 42/N C M"
_symmetry_group_IT_number 138
_space_group.IT_coordinate_system_code '2'
_symmetry_cell_setting 'tetragonal'
loop_
_space_group_symop_operation_xyz
x,y,z
1/2-y,x,1/2+z
1/2-x,1/2-y,z
y,1/2-x,1/2+z
1/2+x,-y,1/2-z
-x,1/2+y,1/2-z
1/2+y,1/2+x,-z
-y,-x,-z
-x,-y,-z
1/2+y,-x,1/2-z
1/2+x,1/2+y,-z
-y,1/2+x,1/2-z
1/2-x,y,1/2+z
x,1/2-y,1/2+z
1/2-y,1/2-x,z
y,x,z
loop_
_atom_site_type_symbol
_atom_site_label
_atom_site_fract_x
_atom_site_fract_y
_atom_site_fract_z
Si Si1 0.835982 0.835982 0.425361
Si Si2 0.834749 0.665252 0.679549
Si Si3 0.788521 0.006130 0.580095
Si Si4 0.135622 0.864379 0.000000
Si Si5 0.389576 0.840835 0.267951
O O1 0.750000 0.750000 0.442045
O O2 0.846591 0.846591 0.302573
O O3 0.814017 0.940031 0.480623
O O4 0.750000 0.750000 0.663868
O O5 0.796423 0.563996 0.630374
O O6 0.744149 0.108139 0.538253
O O7 0.862691 0.032537 0.674551
O O8 0.124879 0.919916 0.113797
O O9 0.379818 0.719993 0.264156
#
# Coordination Sequence:
#
# PCOD9570965 Si02
#       5
#     8   8  16   8  16
#     4  11  22  40  64  87 119 173 211 257 314 373
#     4  11  22  39  60  84 121 155 209 251 303 381
#     4  11  20  39  60  92 118 161 204 259 305 378
#     4  10  22  38  64  90 122 161 204 257 320 370
#     4   9  20  37  60  87 118 156 203 252 305 376
#
# _framework density 24.212104
#
# number of rings (size 3 to 8) (size 9 to 14) (size 15 to 20)
#    0.000    1.714    2.857    1.714    0.000    9.714 
#    0.000    5.714    0.000    8.571    0.000    0.000 
#    0.000    0.000    0.000    0.000    0.000    0.000 
#
# Total GULP energy -312015.017923 kJ/mol
# GULP energy per Si atom -5571.696749 kJ/mol
# Density = 2.415700 g / cm^3
# Si number density = 24.212104 Si / 1000 Ang^3
#
#
#
# Elastic Constant Matrix: (Units=GPa)
#
#
# Indices 1 2 3 4 5 6 
#
# 1 51.6316 66.7202 33.3163 0.0000 0.0000 0.0000
# 2 66.7202 51.6287 33.3115 0.0000 0.0000 0.0000
# 3 33.3163 33.3115 192.4451 0.0000 0.0000 0.0000
# 4 0.0000 0.0000 0.0000 134.4695 0.0000 0.0000
# 5 0.0000 0.0000 0.0000 0.0000 134.4697 0.0000
# 6 0.0000 0.0000 0.0000 0.0000 0.0000 33.1564
#
#
#
# Elastic Compliance Matrix: (Units=1/GPa)
#
#
# Indices 1 2 3 4 5 6 
#
# 1 -0.028453 0.037815 -0.001620 0.000000 0.000000 0.000000
# 2 0.037815 -0.028454 -0.001621 0.000000 0.000000 0.000000
# 3 -0.001620 -0.001621 0.005757 0.000000 0.000000 0.000000
# 4 0.000000 0.000000 0.000000 0.007437 0.000000 0.000000
# 5 0.000000 0.000000 0.000000 0.000000 0.007437 0.000000
# 6 0.000000 0.000000 0.000000 0.000000 0.000000 0.030160
#
#
# Mechanical properties :
#
#
# Convention : Reuss Voigt Hill
#
# Bulk Modulus (GPa) = 55.55986 62.48905 59.02445
# Shear Modulus (GPa) = -72.18659 71.24297 -0.47181
#
# Velocity S-wave (km/s) = -5.46617 5.43032 -0.44191
# Velocity P-wave (km/s) = 4.10386 8.07359 4.91636
#
# Compressibility (1/GPa) = 0.01799861
#
# Stress axis : x y z
#
# Youngs Moduli (GPa) = -35.14555 -35.14463 173.69036
#
# Poissons Ratio (x) = 1.32901 0.28135
# Poissons Ratio (y) = 1.32904 0.28162
# Poissons Ratio (z) = -0.05693 -0.05698
#
# Static dielectric constant tensor:
#      x y z
#    x 2.040770 0.000000 0.000000 
#    y 0.000000 2.040780 0.000000 
#    z 0.000000 0.000000 1.971360 
# 
# From -- ./inp_files/2518.got.cif
#   From: 2010.05.17/outbox.cif.g08.bks.cpg/sg138_2_cif.got.tgz:2518.got - 2010.05.20 13:08:53.
