data_PCOD9570476
_publ_section_title
;
Structure prediction by ZEFSAII (Michael W. Deem and Ramdas Pophale) SiO2 
 PCOD9570476
Probable space group: P 42/N M C
;
_chemical_formula_sum "Si O2"
_cell_formula_units_Z 72
_cell_length_a 13.026438
_cell_length_b 13.026438
_cell_length_c 25.804178
_cell_angle_alpha 90.000000
_cell_angle_beta 90.000000
_cell_angle_gamma 90.000000
_cell_volume 4378.661601
_symmetry_space_group_name_H-M "P 42/N M C"
_symmetry_group_IT_number 137
_space_group.IT_coordinate_system_code '2'
_symmetry_cell_setting 'tetragonal'
loop_
_space_group_symop_operation_xyz
x,y,z
1/2-y,x,1/2+z
1/2-x,1/2-y,z
y,1/2-x,1/2+z
1/2+x,-y,-z
-x,1/2+y,-z
1/2+y,1/2+x,1/2-z
-y,-x,1/2-z
-x,-y,-z
1/2+y,-x,1/2-z
1/2+x,1/2+y,-z
-y,1/2+x,1/2-z
1/2-x,y,z
x,1/2-y,z
1/2-y,1/2-x,1/2+z
y,x,1/2+z
loop_
_atom_site_type_symbol
_atom_site_label
_atom_site_fract_x
_atom_site_fract_y
_atom_site_fract_z
Si Si1 0.750000 0.126564 0.531155
Si Si2 0.372329 0.250000 0.393873
Si Si3 0.629050 0.750000 0.480574
Si Si4 0.625772 0.374229 0.250000
Si Si5 0.932031 0.018120 0.948096
Si Si6 0.918958 0.036367 0.139591
Si Si7 0.750000 0.369046 0.416653
O O1 0.750000 0.250000 0.532532
O O2 0.860664 0.094665 0.553414
O O3 0.750000 0.079334 0.472801
O O4 0.250000 0.250000 0.380455
O O5 0.378292 0.250000 0.456572
O O6 0.440066 0.344781 0.372808
O O7 0.750000 0.750000 0.467432
O O8 0.564198 0.843726 0.458292
O O9 0.750000 0.389317 0.254585
O O10 0.585154 0.435341 0.199922
O O11 0.980558 0.991586 0.892685
O O12 0.000000 0.000000 0.000000
O O13 0.886768 0.145044 0.113696
O O14 0.750000 0.250000 0.428801
#
# Coordination Sequence:
#
# PCOD9570476 Si02
#       7
#     8   8   8   8  16  16   8
#     4  11  22  38  57  84 124 162 207 243 288 355
#     4  11  22  36  56  88 127 159 198 242 290 365
#     4  11  24  39  54  87 129 164 197 239 306 369
#     4  11  22  38  64  92 117 148 196 254 307 364
#     4  12  24  36  58  87 121 164 199 245 301 363
#     4  12  23  37  60  89 123 158 200 245 307 360
#     4  11  18  31  57  89 124 153 192 250 288 349
#
# _framework density 16.443382
#
# number of rings (size 3 to 8) (size 9 to 14) (size 15 to 20)
#    0.000    0.556    8.889    0.000    4.667    0.000 
#    0.000    0.000    2.444    0.000    0.000    0.000 
#    0.000    0.000    0.000    0.000    0.000    0.000 
#
# Total GULP energy -400912.524395 kJ/mol
# GULP energy per Si atom -5568.229505 kJ/mol
# Density = 1.640596 g / cm^3
# Si number density = 16.443382 Si / 1000 Ang^3
#
#
#
# Elastic Constant Matrix: (Units=GPa)
#
#
# Indices 1 2 3 4 5 6 
#
# 1 138.2361 62.2617 67.5080 0.0000 0.0000 0.0000
# 2 62.2617 138.2356 67.5080 0.0000 0.0000 0.0000
# 3 67.5080 67.5080 134.8303 0.0000 0.0000 0.0000
# 4 0.0000 0.0000 0.0000 20.7715 0.0000 0.0000
# 5 0.0000 0.0000 0.0000 0.0000 20.7715 0.0000
# 6 0.0000 0.0000 0.0000 0.0000 0.0000 30.9406
#
#
#
# Elastic Compliance Matrix: (Units=1/GPa)
#
#
# Indices 1 2 3 4 5 6 
#
# 1 0.010343 -0.002819 -0.003767 0.000000 0.000000 0.000000
# 2 -0.002819 0.010344 -0.003768 0.000000 0.000000 0.000000
# 3 -0.003767 -0.003768 0.011189 0.000000 0.000000 0.000000
# 4 0.000000 0.000000 0.000000 0.048143 0.000000 0.000000
# 5 0.000000 0.000000 0.000000 0.000000 0.048143 0.000000
# 6 0.000000 0.000000 0.000000 0.000000 0.000000 0.032320
#
#
# Mechanical properties :
#
#
# Convention : Reuss Voigt Hill
#
# Bulk Modulus (GPa) = 89.53596 89.53972 89.53784
# Shear Modulus (GPa) = 27.03977 28.76501 27.90239
#
# Velocity S-wave (km/s) = 4.05954 4.18704 4.12378
# Velocity P-wave (km/s) = 8.74885 8.82874 8.78889
#
# Compressibility (1/GPa) = 0.01116870
#
# Stress axis : x y z
#
# Youngs Moduli (GPa) = 96.67920 96.67868 89.37007
#
# Poissons Ratio (x) = 0.27252 0.33670
# Poissons Ratio (y) = 0.27253 0.33670
# Poissons Ratio (z) = 0.36424 0.36424
#
# Static dielectric constant tensor:
#      x y z
#    x 1.541770 0.000000 0.000000 
#    y 0.000000 1.541770 0.000000 
#    z 0.000000 0.000000 1.551910 
# 
# From -- ./inp_files/9639.got.cif
#   From: 2010.05.17/outbox.cif.g08.bks.cpg/sg137_5_cif.got.tgz:9639.got - 2010.05.20 13:01:12.
