data_PCOD9570442
_publ_section_title
;
Structure prediction by ZEFSAII (Michael W. Deem and Ramdas Pophale) SiO2 
 PCOD9570442
Probable space group: P 42/N M C
;
_chemical_formula_sum "Si O2"
_cell_formula_units_Z 96
_cell_length_a 15.042392
_cell_length_b 15.042392
_cell_length_c 20.743640
_cell_angle_alpha 90.000000
_cell_angle_beta 90.000000
_cell_angle_gamma 90.000000
_cell_volume 4693.737210
_symmetry_space_group_name_H-M "P 42/N M C"
_symmetry_group_IT_number 137
_space_group.IT_coordinate_system_code '2'
_symmetry_cell_setting 'tetragonal'
loop_
_space_group_symop_operation_xyz
x,y,z
1/2-y,x,1/2+z
1/2-x,1/2-y,z
y,1/2-x,1/2+z
1/2+x,-y,-z
-x,1/2+y,-z
1/2+y,1/2+x,1/2-z
-y,-x,1/2-z
-x,-y,-z
1/2+y,-x,1/2-z
1/2+x,1/2+y,-z
-y,1/2+x,1/2-z
1/2-x,y,z
x,1/2-y,z
1/2-y,1/2-x,1/2+z
y,x,1/2+z
loop_
_atom_site_type_symbol
_atom_site_label
_atom_site_fract_x
_atom_site_fract_y
_atom_site_fract_z
Si Si1 0.645002 0.750000 0.891078
Si Si2 0.356165 0.655003 0.651762
Si Si3 0.469009 0.418736 0.159312
Si Si4 0.356629 0.653828 0.499960
Si Si5 0.750000 0.646339 0.545703
Si Si6 0.848064 0.479426 0.739593
Si Si7 0.397899 0.009136 0.407069
O O1 0.750000 0.750000 0.869918
O O2 0.589990 0.837692 0.868681
O O3 0.645211 0.750000 0.968384
O O4 0.250000 0.659023 0.654870
O O5 0.391551 0.750000 0.676382
O O6 0.383926 0.563677 0.683083
O O7 0.379941 0.648294 0.575505
O O8 0.414100 0.462420 0.217268
O O9 0.497678 0.496972 0.109118
O O10 0.250000 0.655998 0.497956
O O11 0.390575 0.750000 0.475434
O O12 0.382739 0.570386 0.457414
O O13 0.750000 0.750000 0.567486
O O14 0.659297 0.593956 0.567260
O O15 0.750000 0.497247 0.762823
O O16 0.856198 0.496168 0.663888
O O17 0.878327 0.378327 0.750000
#
# Coordination Sequence:
#
# PCOD9570442 Si02
#       7
#     8  16  16  16   8  16  16
#     4  11  24  42  63  97 141 177 220 278 344 413
#     4   9  18  35  60  91 125 161 208 266 328 398
#     4  11  23  39  64  94 129 175 224 274 334 400
#     4   9  17  31  58  93 125 161 203 255 331 407
#     4  11  24  42  63  93 135 181 222 276 346 413
#     4  10  22  41  64  91 127 167 220 278 325 393
#     4  11  22  40  62  88 130 168 221 276 332 399
#
# _framework density 20.452786
#
# number of rings (size 3 to 8) (size 9 to 14) (size 15 to 20)
#    0.000    1.833    2.500    2.500    0.000    6.833 
#    1.500    3.333   11.000    0.000    0.000   10.500 
#    0.000    0.000    0.000    0.000    0.000    0.000 
#
# Total GULP energy -534938.785805 kJ/mol
# GULP energy per Si atom -5572.279019 kJ/mol
# Density = 2.040624 g / cm^3
# Si number density = 20.452786 Si / 1000 Ang^3
#
#
#
# Elastic Constant Matrix: (Units=GPa)
#
#
# Indices 1 2 3 4 5 6 
#
# 1 159.4233 65.7685 40.7016 0.0000 0.0000 0.0000
# 2 65.7685 159.4233 40.7016 0.0000 0.0000 0.0000
# 3 40.7016 40.7016 69.1329 0.0000 0.0000 0.0000
# 4 0.0000 0.0000 0.0000 141.5594 0.0000 0.0000
# 5 0.0000 0.0000 0.0000 0.0000 141.5594 0.0000
# 6 0.0000 0.0000 0.0000 0.0000 0.0000 6.8692
#
#
#
# Elastic Compliance Matrix: (Units=1/GPa)
#
#
# Indices 1 2 3 4 5 6 
#
# 1 0.008159 -0.002518 -0.003321 0.000000 0.000000 0.000000
# 2 -0.002518 0.008159 -0.003321 0.000000 0.000000 0.000000
# 3 -0.003321 -0.003321 0.018376 0.000000 0.000000 0.000000
# 4 0.000000 0.000000 0.000000 0.007064 0.000000 0.000000
# 5 0.000000 0.000000 0.000000 0.000000 0.007064 0.000000
# 6 0.000000 0.000000 0.000000 0.000000 0.000000 0.145577
#
#
# Mechanical properties :
#
#
# Convention : Reuss Voigt Hill
#
# Bulk Modulus (GPa) = 61.07575 75.81366 68.44471
# Shear Modulus (GPa) = 22.91697 74.05143 48.48420
#
# Velocity S-wave (km/s) = 3.35099 6.02367 4.87410
# Velocity P-wave (km/s) = 6.70066 9.24811 8.07547
#
# Compressibility (1/GPa) = 0.01637311
#
# Stress axis : x y z
#
# Youngs Moduli (GPa) = 122.55841 122.55841 54.41993
#
# Poissons Ratio (x) = 0.30862 0.18074
# Poissons Ratio (y) = 0.30862 0.18074
# Poissons Ratio (z) = 0.40705 0.40705
#
# Static dielectric constant tensor:
#      x y z
#    x 1.780190 0.000000 0.000000 
#    y 0.000000 1.780190 0.000000 
#    z 0.000000 0.000000 1.725870 
# 
# From -- ./inp_files/7913.got.cif
#   From: 2010.05.17/outbox.cif.g08.bks.cpg/sg137_4_cif.got.tgz:7913.got - 2010.05.20 13:01:12.
