data_PCOD9570133
_publ_section_title
;
Structure prediction by ZEFSAII (Michael W. Deem and Ramdas Pophale) SiO2 
 PCOD9570133
Probable space group: P 42/N M C
;
_chemical_formula_sum "Si O2"
_cell_formula_units_Z 128
_cell_length_a 21.981257
_cell_length_b 21.981257
_cell_length_c 11.785395
_cell_angle_alpha 90.000000
_cell_angle_beta 90.000000
_cell_angle_gamma 90.000000
_cell_volume 5694.415999
_symmetry_space_group_name_H-M "P 42/N M C"
_symmetry_group_IT_number 137
_space_group.IT_coordinate_system_code '2'
_symmetry_cell_setting 'tetragonal'
loop_
_space_group_symop_operation_xyz
x,y,z
1/2-y,x,1/2+z
1/2-x,1/2-y,z
y,1/2-x,1/2+z
1/2+x,-y,-z
-x,1/2+y,-z
1/2+y,1/2+x,1/2-z
-y,-x,1/2-z
-x,-y,-z
1/2+y,-x,1/2-z
1/2+x,1/2+y,-z
-y,1/2+x,1/2-z
1/2-x,y,z
x,1/2-y,z
1/2-y,1/2-x,1/2+z
y,x,1/2+z
loop_
_atom_site_type_symbol
_atom_site_label
_atom_site_fract_x
_atom_site_fract_y
_atom_site_fract_z
Si Si1 0.180719 0.177431 0.253431
Si Si2 0.131381 0.995403 0.733282
Si Si3 0.319706 0.500346 0.078103
Si Si4 0.822132 0.422824 0.720193
Si Si5 0.181706 0.893823 0.902964
Si Si6 0.394385 0.414255 0.907782
Si Si7 0.412696 0.317781 0.073221
Si Si8 0.320463 0.573608 0.547160
O O1 0.250000 0.155749 0.262027
O O2 0.179825 0.250000 0.271244
O O3 0.136237 0.146321 0.343413
O O4 0.153126 0.167540 0.127220
O O5 0.086484 0.037173 0.809234
O O6 0.179184 0.044557 0.684486
O O7 0.158336 0.943134 0.812120
O O8 0.123784 0.958517 0.616381
O O9 0.250000 0.478259 0.077246
O O10 0.338933 0.516933 0.206044
O O11 0.320603 0.566597 0.018262
O O12 0.359535 0.456133 0.000352
O O13 0.867066 0.367066 0.750000
O O14 0.750000 0.410211 0.743976
O O15 0.826874 0.434625 0.586510
O O16 0.250000 0.878668 0.873809
O O17 0.142728 0.833845 0.919314
O O18 0.433591 0.369195 0.985765
O O19 0.413356 0.250000 0.025338
O O20 0.250000 0.557288 0.576520
#
# Coordination Sequence:
#
# PCOD9570133 Si02
#       8
#    16  16  16  16  16  16  16  16
#     4   9  18  32  51  82 121 150 176 224 297 372
#     4  10  22  40  59  87 125 163 203 245 307 369
#     4   9  18  34  56  85 117 159 207 242 289 361
#     4  10  20  36  57  88 128 163 201 250 302 357
#     4  10  19  35  63  90 122 164 203 249 303 365
#     4  10  20  36  60  83 112 154 198 247 292 354
#     4  10  20  37  61  89 121 155 198 250 306 375
#     4  11  22  36  60  92 126 165 207 253 306 361
#
# _framework density 22.478162000000001
#
# number of rings (size 3 to 8) (size 9 to 14) (size 15 to 20)
#    0.000    2.125    1.250    2.250    0.000    5.375 
#    4.500    2.500    0.000    9.750    0.000    0.000 
#    0.000    0.000    0.000    0.000    0.000    0.000 
#
# Total GULP energy -712656.334506 kJ/mol
# GULP energy per Si atom -5567.627613 kJ/mol
# Density = 2.242700 g / cm^3
# Si number density = 22.478162 Si / 1000 Ang^3
#
#
#
# Elastic Constant Matrix: (Units=GPa)
#
#
# Indices 1 2 3 4 5 6 
#
# 1 60.7912 36.5488 34.5070 0.0000 0.0000 0.0000
# 2 36.5488 60.7912 34.5070 0.0000 0.0000 0.0000
# 3 34.5070 34.5070 108.7854 0.0000 0.0000 0.0000
# 4 0.0000 0.0000 0.0000 28.3734 0.0000 0.0000
# 5 0.0000 0.0000 0.0000 0.0000 28.3734 0.0000
# 6 0.0000 0.0000 0.0000 0.0000 0.0000 -10.4667
#
#
#
# Elastic Compliance Matrix: (Units=1/GPa)
#
#
# Indices 1 2 3 4 5 6 
#
# 1 0.027252 -0.013998 -0.004204 0.000000 0.000000 0.000000
# 2 -0.013998 0.027252 -0.004204 0.000000 0.000000 0.000000
# 3 -0.004204 -0.004204 0.011860 0.000000 0.000000 0.000000
# 4 0.000000 0.000000 0.000000 0.035244 0.000000 0.000000
# 5 0.000000 0.000000 0.000000 0.000000 0.035244 0.000000
# 6 0.000000 0.000000 0.000000 0.000000 0.000000 -0.095542
#
#
# Mechanical properties :
#
#
# Convention : Reuss Voigt Hill
#
# Bulk Modulus (GPa) = 46.40195 49.05484 47.72840
# Shear Modulus (GPa) = 53.58621 17.57633 35.58127
#
# Velocity S-wave (km/s) = 4.88784 2.79933 3.98292
# Velocity P-wave (km/s) = 7.24863 5.68499 6.51389
#
# Compressibility (1/GPa) = 0.02155082
#
# Stress axis : x y z
#
# Youngs Moduli (GPa) = 36.69439 36.69439 84.31988
#
# Poissons Ratio (x) = 0.51365 0.35450
# Poissons Ratio (y) = 0.51365 0.35450
# Poissons Ratio (z) = 0.15427 0.15427
#
# Static dielectric constant tensor:
#      x y z
#    x 1.865830 0.000000 0.000000 
#    y 0.000000 1.865830 0.000000 
#    z 0.000000 0.000000 1.934390 
# 
# From -- ./inp_files/4016.got.cif
#   From: 2010.05.17/outbox.cif.g08.bks.cpg/sg137_3_cif.got.tgz:4016.got - 2010.05.20 13:01:12.
