data_PCOD9570848
_publ_section_title
;
Structure prediction by ZEFSAII (Michael W. Deem and Ramdas Pophale) SiO2 
 PCOD9570848
Probable space group: P 42/N C M
;
_chemical_formula_sum "Si O2"
_cell_formula_units_Z 84
_cell_length_a 12.341843
_cell_length_b 12.341843
_cell_length_c 28.606287
_cell_angle_alpha 90.000000
_cell_angle_beta 90.000000
_cell_angle_gamma 90.000000
_cell_volume 4357.340778
_symmetry_space_group_name_H-M "P 42/N C M"
_symmetry_group_IT_number 138
_space_group.IT_coordinate_system_code '2'
_symmetry_cell_setting 'tetragonal'
loop_
_space_group_symop_operation_xyz
x,y,z
1/2-y,x,1/2+z
1/2-x,1/2-y,z
y,1/2-x,1/2+z
1/2+x,-y,1/2-z
-x,1/2+y,1/2-z
1/2+y,1/2+x,-z
-y,-x,-z
-x,-y,-z
1/2+y,-x,1/2-z
1/2+x,1/2+y,-z
-y,1/2+x,1/2-z
1/2-x,y,1/2+z
x,1/2-y,1/2+z
1/2-y,1/2-x,z
y,x,z
loop_
_atom_site_type_symbol
_atom_site_label
_atom_site_fract_x
_atom_site_fract_y
_atom_site_fract_z
Si Si1 0.750000 0.750000 0.898250
Si Si2 0.250850 0.070872 0.401469
Si Si3 0.522956 0.152926 0.705710
Si Si4 0.706470 0.526521 0.205913
Si Si5 0.824012 0.143692 0.553573
Si Si6 0.486220 0.319212 0.626800
O O1 0.615828 0.753762 0.894775
O O2 0.359667 0.140334 0.409868
O O3 0.150302 0.150302 0.411678
O O4 0.249932 0.041596 0.346475
O O5 0.241580 0.963086 0.431659
O O6 0.491786 0.202248 0.755717
O O7 0.534720 0.250157 0.669074
O O8 0.424180 0.075821 0.690346
O O9 0.627747 0.077298 0.707358
O O10 0.632219 0.632219 0.216995
O O11 0.750000 0.250000 0.558769
O O12 0.861741 0.138260 0.500000
O O13 0.925434 0.153936 0.588206
O O14 0.429665 0.429665 0.645112
#
# Coordination Sequence:
#
# PCOD9570848 Si02
#       6
#     4  16  16  16  16  16
#     4   8  20  40  62 106 114 170 206 276 332 362
#     4  10  22  44  66  92 127 171 214 263 321 389
#     4  11  21  38  57  88 124 163 212 260 312 379
#     4  10  23  36  58  86 122 169 210 253 313 377
#     4  11  25  45  66  96 130 169 211 267 328 386
#     4  10  20  39  66  91 125 157 211 268 322 372
#
# _framework density 19.277811
#
# number of rings (size 3 to 8) (size 9 to 14) (size 15 to 20)
#    0.571    1.143    0.952    2.857    2.667    3.810 
#    3.429    0.952    0.000    0.000    0.000    0.000 
#    0.000    0.000    0.000    0.000    0.000    0.000 
#
# Total GULP energy -468066.476787 kJ/mol
# GULP energy per Si atom -5572.219962 kJ/mol
# Density = 1.923393 g / cm^3
# Si number density = 19.277811 Si / 1000 Ang^3
#
#
#
# Elastic Constant Matrix: (Units=GPa)
#
#
# Indices 1 2 3 4 5 6 
#
# 1 69.1593 33.4574 30.2385 0.0000 0.0000 0.0000
# 2 33.4574 69.1594 30.2385 0.0000 0.0000 0.0000
# 3 30.2385 30.2385 52.8252 0.0000 0.0000 0.0000
# 4 0.0000 0.0000 0.0000 -215.6459 0.0000 0.0000
# 5 0.0000 0.0000 0.0000 0.0000 -215.3627 0.0000
# 6 0.0000 0.0000 0.0000 0.0000 0.0000 10.7666
#
#
#
# Elastic Compliance Matrix: (Units=1/GPa)
#
#
# Indices 1 2 3 4 5 6 
#
# 1 0.021358 -0.006652 -0.008418 0.000000 0.000000 0.000000
# 2 -0.006652 0.021358 -0.008418 0.000000 0.000000 0.000000
# 3 -0.008418 -0.008418 0.028568 0.000000 0.000000 0.000000
# 4 0.000000 0.000000 0.000000 -0.004637 0.000000 0.000000
# 5 0.000000 0.000000 0.000000 0.000000 -0.004643 0.000000
# 6 0.000000 0.000000 0.000000 0.000000 0.000000 0.092880
#
#
# Mechanical properties :
#
#
# Convention : Reuss Voigt Hill
#
# Bulk Modulus (GPa) = 41.13947 42.11253 41.62600
# Shear Modulus (GPa) = 23.81377 -77.56778 -26.87700
#
# Velocity S-wave (km/s) = 3.51849 -6.35013 -3.73794
# Velocity P-wave (km/s) = 6.15573 5.64562 1.73493
#
# Compressibility (1/GPa) = 0.02430756
#
# Stress axis : x y z
#
# Youngs Moduli (GPa) = 46.82088 46.82095 35.00413
#
# Poissons Ratio (x) = 0.31144 0.29467
# Poissons Ratio (y) = 0.31144 0.29467
# Poissons Ratio (z) = 0.39415 0.39415
#
# Static dielectric constant tensor:
#      x y z
#    x 1.699330 0.000000 0.000000 
#    y 0.000000 1.699330 0.000000 
#    z 0.000000 0.000000 1.642450 
# 
# From -- ./inp_files/8047.got.cif
#   From: 2010.05.17/outbox.cif.g08.bks.cpg/sg138_5_cif.got.tgz:8047.got - 2010.05.20 13:08:53.
