data_PCOD9570003
_publ_section_title
;
Structure prediction by ZEFSAII (Michael W. Deem and Ramdas Pophale) SiO2 
 PCOD9570003
Probable space group: P 42/N M C
;
_chemical_formula_sum "Si O2"
_cell_formula_units_Z 96
_cell_length_a 14.547585
_cell_length_b 14.547585
_cell_length_c 25.141607
_cell_angle_alpha 90.000000
_cell_angle_beta 90.000000
_cell_angle_gamma 90.000000
_cell_volume 5320.774338
_symmetry_space_group_name_H-M "P 42/N M C"
_symmetry_group_IT_number 137
_space_group.IT_coordinate_system_code '2'
_symmetry_cell_setting 'tetragonal'
loop_
_space_group_symop_operation_xyz
x,y,z
1/2-y,x,1/2+z
1/2-x,1/2-y,z
y,1/2-x,1/2+z
1/2+x,-y,-z
-x,1/2+y,-z
1/2+y,1/2+x,1/2-z
-y,-x,1/2-z
-x,-y,-z
1/2+y,-x,1/2-z
1/2+x,1/2+y,-z
-y,1/2+x,1/2-z
1/2-x,y,z
x,1/2-y,z
1/2-y,1/2-x,1/2+z
y,x,1/2+z
loop_
_atom_site_type_symbol
_atom_site_label
_atom_site_fract_x
_atom_site_fract_y
_atom_site_fract_z
Si Si1 0.145562 0.855658 0.950773
Si Si2 0.904017 0.497401 0.530727
Si Si3 0.434699 0.358631 0.290993
Si Si4 0.356805 0.359505 0.671122
Si Si5 0.144835 0.250000 0.845159
Si Si6 0.856140 0.750000 0.027405
Si Si7 0.974999 0.018696 0.372724
O O1 0.250000 0.890225 0.953904
O O2 0.146327 0.750000 0.933282
O O3 0.086667 0.913859 0.908984
O O4 0.095238 0.859512 0.007959
O O5 0.839557 0.583030 0.514026
O O6 0.000000 0.500000 0.500000
O O7 0.932774 0.501610 0.592320
O O8 0.454746 0.250000 0.303479
O O9 0.406850 0.362794 0.229384
O O10 0.342809 0.391952 0.321088
O O11 0.508638 0.426817 0.317296
O O12 0.250000 0.366719 0.653603
O O13 0.378650 0.250000 0.673603
O O14 0.423073 0.422227 0.635536
O O15 0.250000 0.250000 0.825423
O O16 0.146043 0.250000 0.908344
O O17 0.750000 0.750000 0.008350
#
# Coordination Sequence:
#
# PCOD9570003 Si02
#       7
#    16  16  16  16   8   8  16
#     4  10  21  38  57  74 105 148 189 229 281 347
#     4  10  22  36  55  82 116 146 188 237 290 343
#     4  10  18  32  55  84 114 142 179 226 280 335
#     4  10  21  37  55  77 113 156 191 231 283 342
#     4   9  16  28  52  83 109 137 175 222 274 328
#     4  11  20  36  61  89 117 149 190 244 289 340
#     4  11  21  34  56  85 112 142 187 239 284 342
#
# _framework density 18.042486
#
# number of rings (size 3 to 8) (size 9 to 14) (size 15 to 20)
#    0.000    1.833    3.333    1.500    0.000    3.333 
#    0.000    2.500    0.000    0.000    0.000    7.000 
#    0.000    0.000    0.000    0.000    0.000    0.000 
#
# Total GULP energy -534417.090557 kJ/mol
# GULP energy per Si atom -5566.844693 kJ/mol
# Density = 1.800142 g / cm^3
# Si number density = 18.042486 Si / 1000 Ang^3
#
#
#
# Elastic Constant Matrix: (Units=GPa)
#
#
# Indices 1 2 3 4 5 6 
#
# 1 105.6895 63.0105 30.2627 0.0000 0.0000 0.0000
# 2 63.0105 105.6895 30.2627 0.0000 0.0000 0.0000
# 3 30.2627 30.2627 36.8974 0.0000 0.0000 0.0000
# 4 0.0000 0.0000 0.0000 26.0032 0.0000 0.0000
# 5 0.0000 0.0000 0.0000 0.0000 26.0032 0.0000
# 6 0.0000 0.0000 0.0000 0.0000 0.0000 18.1861
#
#
#
# Elastic Compliance Matrix: (Units=1/GPa)
#
#
# Indices 1 2 3 4 5 6 
#
# 1 0.015915 -0.007516 -0.006889 0.000000 0.000000 0.000000
# 2 -0.007516 0.015915 -0.006889 0.000000 0.000000 0.000000
# 3 -0.006889 -0.006889 0.038403 0.000000 0.000000 0.000000
# 4 0.000000 0.000000 0.000000 0.038457 0.000000 0.000000
# 5 0.000000 0.000000 0.000000 0.000000 0.038457 0.000000
# 6 0.000000 0.000000 0.000000 0.000000 0.000000 0.054987
#
#
# Mechanical properties :
#
#
# Convention : Reuss Voigt Hill
#
# Bulk Modulus (GPa) = 36.17246 55.03869 45.60557
# Shear Modulus (GPa) = 19.69002 22.35453 21.02228
#
# Velocity S-wave (km/s) = 3.30709 3.52375 3.41714
# Velocity P-wave (km/s) = 5.88850 6.86491 6.39537
#
# Compressibility (1/GPa) = 0.02764534
#
# Stress axis : x y z
#
# Youngs Moduli (GPa) = 62.83381 62.83381 26.03989
#
# Poissons Ratio (x) = 0.47224 0.17939
# Poissons Ratio (y) = 0.47224 0.17939
# Poissons Ratio (z) = 0.43286 0.43286
#
# Static dielectric constant tensor:
#      x y z
#    x 1.633630 0.000000 0.000000 
#    y 0.000000 1.633630 0.000000 
#    z 0.000000 0.000000 1.658270 
# 
# From -- ./inp_files/8883.got.cif
#   From: 2010.05.17/outbox.cif.g08.bks.cpg/sg137_5_cif.got.tgz:8883.got - 2010.05.20 13:01:12.
