data_PCOD9570305
_publ_section_title
;
Structure prediction by ZEFSAII (Michael W. Deem and Ramdas Pophale) SiO2 
 PCOD9570305
Probable space group: P 42/N M C
;
_chemical_formula_sum "Si O2"
_cell_formula_units_Z 64
_cell_length_a 15.906574
_cell_length_b 15.906574
_cell_length_c 13.270231
_cell_angle_alpha 90.000000
_cell_angle_beta 90.000000
_cell_angle_gamma 90.000000
_cell_volume 3357.621857
_symmetry_space_group_name_H-M "P 42/N M C"
_symmetry_group_IT_number 137
_space_group.IT_coordinate_system_code '2'
_symmetry_cell_setting 'tetragonal'
loop_
_space_group_symop_operation_xyz
x,y,z
1/2-y,x,1/2+z
1/2-x,1/2-y,z
y,1/2-x,1/2+z
1/2+x,-y,-z
-x,1/2+y,-z
1/2+y,1/2+x,1/2-z
-y,-x,1/2-z
-x,-y,-z
1/2+y,-x,1/2-z
1/2+x,1/2+y,-z
-y,1/2+x,1/2-z
1/2-x,y,z
x,1/2-y,z
1/2-y,1/2-x,1/2+z
y,x,1/2+z
loop_
_atom_site_type_symbol
_atom_site_label
_atom_site_fract_x
_atom_site_fract_y
_atom_site_fract_z
Si Si1 0.155957 0.518942 0.287544
Si Si2 0.342149 0.583743 0.840466
Si Si3 0.600238 0.007775 0.485165
Si Si4 0.848003 0.586649 0.289491
O O1 0.082810 0.582810 0.250000
O O2 0.250000 0.550757 0.265595
O O3 0.143443 0.507184 0.407126
O O4 0.145338 0.426036 0.239409
O O5 0.350338 0.649663 0.750000
O O6 0.250000 0.576892 0.882586
O O7 0.404877 0.609714 0.927015
O O8 0.361569 0.495278 0.783393
O O9 0.500000 0.000000 0.500000
O O10 0.636694 0.941105 0.405181
O O11 0.750000 0.613267 0.276719
#
# Coordination Sequence:
#
# PCOD9570305 Si02
#       4
#    16  16  16  16
#     4  12  25  42  62  89 128 172 212 255 308 374
#     4   9  18  33  58  87 117 153 198 254 314 367
#     4  11  19  38  64  89 122 163 209 252 311 368
#     4  10  20  39  65  92 119 153 203 263 317 370
#
# _framework density 19.061111
#
# number of rings (size 3 to 8) (size 9 to 14) (size 15 to 20)
#    0.000    1.500    5.000    1.500    0.000    3.000 
#    0.000    1.250    0.000    3.000    0.000    0.000 
#    0.000    0.000    0.000    0.000    0.000    0.000 
#
# Total GULP energy -356862.310131 kJ/mol
# GULP energy per Si atom -5575.973596 kJ/mol
# Density = 1.901773 g / cm^3
# Si number density = 19.061111 Si / 1000 Ang^3
#
#
#
# Elastic Constant Matrix: (Units=GPa)
#
#
# Indices 1 2 3 4 5 6 
#
# 1 91.3155 29.7401 30.2539 0.0000 0.0000 0.0000
# 2 29.7401 91.3136 30.2538 0.0000 0.0000 0.0000
# 3 30.2539 30.2538 121.3835 0.0000 0.0000 0.0000
# 4 0.0000 0.0000 0.0000 11.3991 0.0000 0.0000
# 5 0.0000 0.0000 0.0000 0.0000 11.3990 0.0000
# 6 0.0000 0.0000 0.0000 0.0000 0.0000 8.3272
#
#
#
# Elastic Compliance Matrix: (Units=1/GPa)
#
#
# Indices 1 2 3 4 5 6 
#
# 1 0.012838 -0.003402 -0.002352 0.000000 0.000000 0.000000
# 2 -0.003402 0.012839 -0.002352 0.000000 0.000000 0.000000
# 3 -0.002352 -0.002352 0.009411 0.000000 0.000000 0.000000
# 4 0.000000 0.000000 0.000000 0.087726 0.000000 0.000000
# 5 0.000000 0.000000 0.000000 0.000000 0.087727 0.000000
# 6 0.000000 0.000000 0.000000 0.000000 0.000000 0.120088
#
#
# Mechanical properties :
#
#
# Convention : Reuss Voigt Hill
#
# Bulk Modulus (GPa) = 52.97825 53.83426 53.40625
# Shear Modulus (GPa) = 14.15899 20.47605 17.31752
#
# Velocity S-wave (km/s) = 2.72843 3.28110 3.01745
# Velocity P-wave (km/s) = 6.14654 6.53135 6.34186
#
# Compressibility (1/GPa) = 0.01887567
#
# Stress axis : x y z
#
# Youngs Moduli (GPa) = 77.89210 77.89039 106.26144
#
# Poissons Ratio (x) = 0.26499 0.24992
# Poissons Ratio (y) = 0.26500 0.24992
# Poissons Ratio (z) = 0.18319 0.18319
#
# Static dielectric constant tensor:
#      x y z
#    x 1.684180 0.000000 0.000000 
#    y 0.000000 1.684160 0.000000 
#    z 0.000000 0.000000 1.571760 
# 
# From -- ./inp_files/4704.got.cif
#   From: 2010.05.17/outbox.cif.g08.bks.cpg/sg137_3_cif.got.tgz:4704.got - 2010.05.20 13:01:12.
