data_PCOD9570664
_publ_section_title
;
Structure prediction by ZEFSAII (Michael W. Deem and Ramdas Pophale) SiO2 
 PCOD9570664
Probable space group: P 42/N C M
;
_chemical_formula_sum "Si O2"
_cell_formula_units_Z 128
_cell_length_a 24.357230
_cell_length_b 24.357230
_cell_length_c 12.390138
_cell_angle_alpha 90.000000
_cell_angle_beta 90.000000
_cell_angle_gamma 90.000000
_cell_volume 7350.754826
_symmetry_space_group_name_H-M "P 42/N C M"
_symmetry_group_IT_number 138
_space_group.IT_coordinate_system_code '2'
_symmetry_cell_setting 'tetragonal'
loop_
_space_group_symop_operation_xyz
x,y,z
1/2-y,x,1/2+z
1/2-x,1/2-y,z
y,1/2-x,1/2+z
1/2+x,-y,1/2-z
-x,1/2+y,1/2-z
1/2+y,1/2+x,-z
-y,-x,-z
-x,-y,-z
1/2+y,-x,1/2-z
1/2+x,1/2+y,-z
-y,1/2+x,1/2-z
1/2-x,y,1/2+z
x,1/2-y,1/2+z
1/2-y,1/2-x,z
y,x,z
loop_
_atom_site_type_symbol
_atom_site_label
_atom_site_fract_x
_atom_site_fract_y
_atom_site_fract_z
Si Si1 0.269925 0.838442 0.080245
Si Si2 0.685200 0.596901 0.317578
Si Si3 0.739977 0.430948 0.592462
Si Si4 0.863399 0.953303 0.097033
Si Si5 0.860744 0.324112 0.737516
Si Si6 0.128185 0.576527 0.393802
Si Si7 0.748223 0.839985 0.651591
Si Si8 0.746511 0.949422 0.014971
O O1 0.209285 0.838990 0.132475
O O2 0.310249 0.834285 0.182242
O O3 0.290476 0.790476 0.000000
O O4 0.277013 0.893982 0.010671
O O5 0.634992 0.634992 0.359266
O O6 0.663164 0.565005 0.211787
O O7 0.731109 0.637898 0.269167
O O8 0.713771 0.558107 0.404139
O O9 0.711737 0.405027 0.697522
O O10 0.805502 0.424336 0.602122
O O11 0.727447 0.494950 0.574149
O O12 0.908313 0.908313 0.067216
O O13 0.888574 0.013307 0.113180
O O14 0.812965 0.955359 0.012125
O O15 0.885855 0.381988 0.702181
O O16 0.102814 0.602814 0.500000
O O17 0.694393 0.805608 0.611960
O O18 0.797886 0.797886 0.654470
O O19 0.761812 0.892671 0.579652
#
# Coordination Sequence:
#
# PCOD9570664 Si02
#       8
#    16  16  16  16  16  16  16  16
#     4  10  22  37  52  78 108 141 178 213 269 333
#     4   9  18  33  55  81 108 144 180 215 268 326
#     4  10  22  37  52  81 109 142 182 223 270 329
#     4   9  21  39  56  79 109 144 187 227 266 316
#     4  11  21  38  56  76 112 142 174 220 277 323
#     4  11  21  37  58  81 105 142 183 225 271 324
#     4   9  18  32  50  80 118 145 174 217 269 332
#     4  10  19  32  57  80 109 141 182 224 268 320
#
# _framework density 17.413177999999998
#
# number of rings (size 3 to 8) (size 9 to 14) (size 15 to 20)
#    0.000    2.125    2.500    1.500    1.750    2.500 
#    2.250    1.250    0.000    1.500    0.000    1.750 
#    0.000    0.000    0.000    0.000    0.000    0.000 
#
# Total GULP energy -713591.384287 kJ/mol
# GULP energy per Si atom -5574.932690 kJ/mol
# Density = 1.737355 g / cm^3
# Si number density = 17.413178 Si / 1000 Ang^3
#
#
#
# Elastic Constant Matrix: (Units=GPa)
#
#
# Indices 1 2 3 4 5 6 
#
# 1 76.9490 20.3728 16.5791 0.0000 0.0000 0.0000
# 2 20.3728 76.9490 16.5791 0.0000 0.0000 0.0000
# 3 16.5791 16.5791 48.2612 0.0000 0.0000 0.0000
# 4 0.0000 0.0000 0.0000 18.7171 0.0000 0.0000
# 5 0.0000 0.0000 0.0000 0.0000 18.7171 0.0000
# 6 0.0000 0.0000 0.0000 0.0000 0.0000 17.3778
#
#
#
# Elastic Compliance Matrix: (Units=1/GPa)
#
#
# Indices 1 2 3 4 5 6 
#
# 1 0.014656 -0.003019 -0.003998 0.000000 0.000000 0.000000
# 2 -0.003019 0.014656 -0.003998 0.000000 0.000000 0.000000
# 3 -0.003998 -0.003998 0.023467 0.000000 0.000000 0.000000
# 4 0.000000 0.000000 0.000000 0.053427 0.000000 0.000000
# 5 0.000000 0.000000 0.000000 0.000000 0.053427 0.000000
# 6 0.000000 0.000000 0.000000 0.000000 0.000000 0.057545
#
#
# Mechanical properties :
#
#
# Convention : Reuss Voigt Hill
#
# Bulk Modulus (GPa) = 32.51947 34.35792 33.43870
# Shear Modulus (GPa) = 20.04349 20.87096 20.45722
#
# Velocity S-wave (km/s) = 3.39640 3.46580 3.43127
# Velocity P-wave (km/s) = 5.83922 5.98243 5.91126
#
# Compressibility (1/GPa) = 0.03075081
#
# Stress axis : x y z
#
# Youngs Moduli (GPa) = 68.23027 68.23027 42.61262
#
# Poissons Ratio (x) = 0.20599 0.17035
# Poissons Ratio (y) = 0.20599 0.17035
# Poissons Ratio (z) = 0.27277 0.27277
#
# Static dielectric constant tensor:
#      x y z
#    x 1.604350 0.000000 0.000000 
#    y 0.000000 1.604350 0.000000 
#    z 0.000000 0.000000 1.598900 
# 
# From -- ./inp_files/3332.got.cif
#   From: 2010.05.17/outbox.cif.g08.bks.cpg/sg138_2_cif.got.tgz:3332.got - 2010.05.20 13:08:53.
