data_PCOD9570836
_publ_section_title
;
Structure prediction by ZEFSAII (Michael W. Deem and Ramdas Pophale) SiO2 
 PCOD9570836
Probable space group: P 42/N C M
;
_chemical_formula_sum "Si O2"
_cell_formula_units_Z 88
_cell_length_a 11.138737
_cell_length_b 11.138737
_cell_length_c 30.612440
_cell_angle_alpha 90.000000
_cell_angle_beta 90.000000
_cell_angle_gamma 90.000000
_cell_volume 3798.130185
_symmetry_space_group_name_H-M "P 42/N C M"
_symmetry_group_IT_number 138
_space_group.IT_coordinate_system_code '2'
_symmetry_cell_setting 'tetragonal'
loop_
_space_group_symop_operation_xyz
x,y,z
1/2-y,x,1/2+z
1/2-x,1/2-y,z
y,1/2-x,1/2+z
1/2+x,-y,1/2-z
-x,1/2+y,1/2-z
1/2+y,1/2+x,-z
-y,-x,-z
-x,-y,-z
1/2+y,-x,1/2-z
1/2+x,1/2+y,-z
-y,1/2+x,1/2-z
1/2-x,y,1/2+z
x,1/2-y,1/2+z
1/2-y,1/2-x,z
y,x,z
loop_
_atom_site_type_symbol
_atom_site_label
_atom_site_fract_x
_atom_site_fract_y
_atom_site_fract_z
Si Si1 0.443067 0.764281 0.314244
Si Si2 0.645121 0.854880 0.252458
Si Si3 0.551471 0.746623 0.094361
Si Si4 0.553983 0.236300 0.811963
Si Si5 0.950252 0.746393 0.905922
Si Si6 0.800634 0.503146 0.500618
O O1 0.568269 0.782989 0.290342
O O2 0.374529 0.642579 0.301958
O O3 0.357791 0.875124 0.300728
O O4 0.458880 0.764685 0.366434
O O5 0.567013 0.783771 0.214610
O O6 0.655637 0.844364 0.098240
O O7 0.615288 0.615288 0.095630
O O8 0.469368 0.760394 0.136365
O O9 0.492176 0.764211 0.046975
O O10 0.868514 0.631487 0.895853
O O11 0.862341 0.862341 0.906721
O O12 0.002789 0.733203 0.954613
O O13 0.866104 0.633897 0.501708
O O14 0.903637 0.403637 0.500000
#
# Coordination Sequence:
#
# PCOD9570836 Si02
#       6
#    16   8  16  16  16  16
#     4  11  25  45  68  97 134 175 221 274 340 403
#     4  12  24  46  71  93 122 176 217 270 336 394
#     4  10  20  37  62  97 131 174 223 276 327 394
#     4  11  25  45  67  99 134 172 221 276 340 401
#     4  10  20  37  62  99 134 179 229 280 334 402
#     4   9  17  31  58  93 134 178 223 272 337 399
#
# _framework density 23.169294000000001
#
# number of rings (size 3 to 8) (size 9 to 14) (size 15 to 20)
#    0.000    1.636    1.818    2.727    2.545    5.091 
#    0.000    1.818    0.000    5.455    0.000    0.000 
#    0.000    0.000    0.000    0.000    0.000    0.000 
#
# Total GULP energy -490180.289118 kJ/mol
# GULP energy per Si atom -5570.230558 kJ/mol
# Density = 2.311656 g / cm^3
# Si number density = 23.169294 Si / 1000 Ang^3
#
#
#
# Elastic Constant Matrix: (Units=GPa)
#
#
# Indices 1 2 3 4 5 6 
#
# 1 43.8084 41.0725 26.2127 0.0000 0.0000 0.0000
# 2 41.0725 43.8084 26.2127 0.0000 0.0000 0.0000
# 3 26.2127 26.2127 205.7460 0.0000 0.0000 0.0000
# 4 0.0000 0.0000 0.0000 115.2640 0.0000 0.0000
# 5 0.0000 0.0000 0.0000 0.0000 115.2640 0.0000
# 6 0.0000 0.0000 0.0000 0.0000 0.0000 12.9814
#
#
#
# Elastic Compliance Matrix: (Units=1/GPa)
#
#
# Indices 1 2 3 4 5 6 
#
# 1 0.189149 -0.176361 -0.001629 0.000000 0.000000 0.000000
# 2 -0.176361 0.189149 -0.001629 0.000000 0.000000 0.000000
# 3 -0.001629 -0.001629 0.005275 0.000000 0.000000 0.000000
# 4 0.000000 0.000000 0.000000 0.008676 0.000000 0.000000
# 5 0.000000 0.000000 0.000000 0.000000 0.008676 0.000000
# 6 0.000000 0.000000 0.000000 0.000000 0.000000 0.077034
#
#
# Mechanical properties :
#
#
# Convention : Reuss Voigt Hill
#
# Bulk Modulus (GPa) = 41.09526 53.37320 47.23423
# Shear Modulus (GPa) = 5.91500 62.02618 33.97059
#
# Velocity S-wave (km/s) = 1.59953 5.17967 3.83324
# Velocity P-wave (km/s) = 4.60291 7.67191 6.32633
#
# Compressibility (1/GPa) = 0.02433371
#
# Stress axis : x y z
#
# Youngs Moduli (GPa) = 5.28685 5.28685 189.55613
#
# Poissons Ratio (x) = 0.93239 0.30882
# Poissons Ratio (y) = 0.93239 0.30882
# Poissons Ratio (z) = 0.00861 0.00861
#
# Static dielectric constant tensor:
#      x y z
#    x 1.868070 0.000000 0.000000 
#    y 0.000000 1.868070 0.000000 
#    z 0.000000 0.000000 1.871180 
# 
# From -- ./inp_files/8064.got.cif
#   From: 2010.05.17/outbox.cif.g08.bks.cpg/sg138_5_cif.got.tgz:8064.got - 2010.05.20 13:08:53.
