data_PCOD9570475
_publ_section_title
;
Structure prediction by ZEFSAII (Michael W. Deem and Ramdas Pophale) SiO2 
 PCOD9570475
Probable space group: P 42/N M C
;
_chemical_formula_sum "Si O2"
_cell_formula_units_Z 80
_cell_length_a 13.832075
_cell_length_b 13.832075
_cell_length_c 26.501792
_cell_angle_alpha 90.000000
_cell_angle_beta 90.000000
_cell_angle_gamma 90.000000
_cell_volume 5070.489775
_symmetry_space_group_name_H-M "P 42/N M C"
_symmetry_group_IT_number 137
_space_group.IT_coordinate_system_code '2'
_symmetry_cell_setting 'tetragonal'
loop_
_space_group_symop_operation_xyz
x,y,z
1/2-y,x,1/2+z
1/2-x,1/2-y,z
y,1/2-x,1/2+z
1/2+x,-y,-z
-x,1/2+y,-z
1/2+y,1/2+x,1/2-z
-y,-x,1/2-z
-x,-y,-z
1/2+y,-x,1/2-z
1/2+x,1/2+y,-z
-y,1/2+x,1/2-z
1/2-x,y,z
x,1/2-y,z
1/2-y,1/2-x,1/2+z
y,x,1/2+z
loop_
_atom_site_type_symbol
_atom_site_label
_atom_site_fract_x
_atom_site_fract_y
_atom_site_fract_z
Si Si1 0.004814 0.512356 0.877646
Si Si2 0.135582 0.498751 0.780587
Si Si3 0.864817 0.639819 0.311384
Si Si4 0.862563 0.363614 0.049238
Si Si5 0.639012 0.135540 0.928609
O O1 0.078796 0.485479 0.832739
O O2 0.065807 0.568329 0.920086
O O3 0.926903 0.583464 0.852127
O O4 0.942935 0.424561 0.900296
O O5 0.250000 0.511963 0.788223
O O6 0.119252 0.408020 0.743409
O O7 0.089046 0.589046 0.750000
O O8 0.750000 0.638131 0.320319
O O9 0.898954 0.750000 0.313124
O O10 0.750000 0.382391 0.062640
O O11 0.881661 0.250000 0.060036
O O12 0.871702 0.377636 0.989031
O O13 0.750000 0.106537 0.915459
O O14 0.630387 0.250000 0.918452
#
# Coordination Sequence:
#
# PCOD9570475 Si02
#       5
#    16  16  16  16  16
#     4  11  18  29  51  75  92 118 162 203 234 274
#     4   9  19  32  46  68  96 124 155 191 235 286
#     4   9  18  32  47  65  92 122 151 188 236 285
#     4   9  18  32  49  71 100 128 153 189 240 293
#     4   9  19  34  49  68  96 129 162 196 238 285
#
# _framework density 15.777568
#
# number of rings (size 3 to 8) (size 9 to 14) (size 15 to 20)
#    0.000    2.600    0.000    3.600    0.000    1.800 
#    0.000    0.000    0.000    1.800    0.000   21.000 
#    0.000    0.000    0.000    0.000    0.000    0.000 
#
# Total GULP energy -445889.406651 kJ/mol
# GULP energy per Si atom -5573.617583 kJ/mol
# Density = 1.574166 g / cm^3
# Si number density = 15.777568 Si / 1000 Ang^3
#
#
#
# Elastic Constant Matrix: (Units=GPa)
#
#
# Indices 1 2 3 4 5 6 
#
# 1 103.8984 65.4227 60.6449 0.0000 0.0000 0.0000
# 2 65.4227 103.8984 60.6449 0.0000 0.0000 0.0000
# 3 60.6449 60.6449 77.3015 0.0000 0.0000 0.0000
# 4 0.0000 0.0000 0.0000 19.1699 0.0000 0.0000
# 5 0.0000 0.0000 0.0000 0.0000 19.1699 0.0000
# 6 0.0000 0.0000 0.0000 0.0000 0.0000 31.6714
#
#
#
# Elastic Compliance Matrix: (Units=1/GPa)
#
#
# Indices 1 2 3 4 5 6 
#
# 1 0.019737 -0.006254 -0.010578 0.000000 0.000000 0.000000
# 2 -0.006254 0.019737 -0.010578 0.000000 0.000000 0.000000
# 3 -0.010578 -0.010578 0.029534 0.000000 0.000000 0.000000
# 4 0.000000 0.000000 0.000000 0.052165 0.000000 0.000000
# 5 0.000000 0.000000 0.000000 0.000000 0.052165 0.000000
# 6 0.000000 0.000000 0.000000 0.000000 0.000000 0.031574
#
#
# Mechanical properties :
#
#
# Convention : Reuss Voigt Hill
#
# Bulk Modulus (GPa) = 70.48008 73.16926 71.82467
# Shear Modulus (GPa) = 18.90646 20.56130 19.73388
#
# Velocity S-wave (km/s) = 3.46542 3.61390 3.54044
# Velocity P-wave (km/s) = 7.79617 7.99311 7.89526
#
# Compressibility (1/GPa) = 0.01418841
#
# Stress axis : x y z
#
# Youngs Moduli (GPa) = 50.66678 50.66678 33.85984
#
# Poissons Ratio (x) = 0.31685 0.35816
# Poissons Ratio (y) = 0.31685 0.35816
# Poissons Ratio (z) = 0.53595 0.53595
#
# Static dielectric constant tensor:
#      x y z
#    x 1.510280 0.000000 0.000000 
#    y 0.000000 1.510280 0.000000 
#    z 0.000000 0.000000 1.513010 
# 
# From -- ./inp_files/8694.got.cif
#   From: 2010.05.17/outbox.cif.g08.bks.cpg/sg137_5_cif.got.tgz:8694.got - 2010.05.20 13:01:12.
