data_PCOD9570488
_publ_section_title
;
Structure prediction by ZEFSAII (Michael W. Deem and Ramdas Pophale) SiO2 
 PCOD9570488
Probable space group: P 42/N M C
;
_chemical_formula_sum "Si O2"
_cell_formula_units_Z 64
_cell_length_a 19.695319
_cell_length_b 19.695319
_cell_length_c 8.966787
_cell_angle_alpha 90.000000
_cell_angle_beta 90.000000
_cell_angle_gamma 90.000000
_cell_volume 3478.266806
_symmetry_space_group_name_H-M "P 42/N M C"
_symmetry_group_IT_number 137
_space_group.IT_coordinate_system_code '2'
_symmetry_cell_setting 'tetragonal'
loop_
_space_group_symop_operation_xyz
x,y,z
1/2-y,x,1/2+z
1/2-x,1/2-y,z
y,1/2-x,1/2+z
1/2+x,-y,-z
-x,1/2+y,-z
1/2+y,1/2+x,1/2-z
-y,-x,1/2-z
-x,-y,-z
1/2+y,-x,1/2-z
1/2+x,1/2+y,-z
-y,1/2+x,1/2-z
1/2-x,y,z
x,1/2-y,z
1/2-y,1/2-x,1/2+z
y,x,1/2+z
loop_
_atom_site_type_symbol
_atom_site_label
_atom_site_fract_x
_atom_site_fract_y
_atom_site_fract_z
Si Si1 0.000476 0.895229 0.318988
Si Si2 0.001602 0.397634 0.320865
Si Si3 0.136972 0.750000 0.961814
Si Si4 0.750000 0.143516 0.954653
Si Si5 0.543973 0.250000 0.784221
Si Si6 0.250000 0.956768 0.797866
O O1 0.065275 0.934726 0.250000
O O2 0.999953 0.902585 0.498695
O O3 0.006466 0.817898 0.266455
O O4 0.936240 0.933703 0.247293
O O5 0.937247 0.437247 0.250000
O O6 0.996783 0.319324 0.274616
O O7 0.063992 0.750000 0.042729
O O8 0.183577 0.814386 0.001400
O O9 0.114407 0.750000 0.791163
O O10 0.750000 0.070730 0.033616
O O11 0.750000 0.120943 0.783988
#
# Coordination Sequence:
#
# PCOD9570488 Si02
#       6
#    16  16   8   8   8   8
#     4  11  23  40  61  88 119 157 203 253 301 354
#     4  11  23  40  61  88 119 157 203 253 301 354
#     4  11  24  32  58  82 124 159 202 224 294 361
#     4  11  20  40  50  86 120 163 190 242 282 359
#     4  12  24  37  60  85 120 160 201 248 297 357
#     4  12  24  37  60  85 120 160 201 248 297 357
#
# _framework density 18.39997
#
# number of rings (size 3 to 8) (size 9 to 14) (size 15 to 20)
#    0.000    0.750    2.500    7.500    7.000    2.000 
#    0.000    0.000    0.000    0.750    0.000    3.500 
#    0.000    0.000    0.000    0.000    0.000    0.000 
#
# Total GULP energy -357622.322949 kJ/mol
# GULP energy per Si atom -5587.848796 kJ/mol
# Density = 1.835809 g / cm^3
# Si number density = 18.399970 Si / 1000 Ang^3
#
#
#
# Elastic Constant Matrix: (Units=GPa)
#
#
# Indices 1 2 3 4 5 6 
#
# 1 139.1314 70.9466 35.5178 0.0000 0.0000 0.0000
# 2 70.9466 139.1325 35.5176 0.0000 0.0000 0.0000
# 3 35.5178 35.5176 85.6112 0.0000 0.0000 0.0000
# 4 0.0000 0.0000 0.0000 26.2496 0.0000 0.0000
# 5 0.0000 0.0000 0.0000 0.0000 26.2495 0.0000
# 6 0.0000 0.0000 0.0000 0.0000 0.0000 16.7351
#
#
#
# Elastic Compliance Matrix: (Units=1/GPa)
#
#
# Indices 1 2 3 4 5 6 
#
# 1 0.010101 -0.004565 -0.002297 0.000000 0.000000 0.000000
# 2 -0.004565 0.010101 -0.002297 0.000000 0.000000 0.000000
# 3 -0.002297 -0.002297 0.013587 0.000000 0.000000 0.000000
# 4 0.000000 0.000000 0.000000 0.038096 0.000000 0.000000
# 5 0.000000 0.000000 0.000000 0.000000 0.038096 0.000000
# 6 0.000000 0.000000 0.000000 0.000000 0.000000 0.059755
#
#
# Mechanical properties :
#
#
# Convention : Reuss Voigt Hill
#
# Bulk Modulus (GPa) = 64.63257 71.98211 68.30734
# Shear Modulus (GPa) = 25.87851 28.63974 27.25912
#
# Velocity S-wave (km/s) = 3.75433 3.94954 3.85317
# Velocity P-wave (km/s) = 7.34820 7.74624 7.54984
#
# Compressibility (1/GPa) = 0.01547208
#
# Stress axis : x y z
#
# Youngs Moduli (GPa) = 98.99592 98.99687 73.60136
#
# Poissons Ratio (x) = 0.45187 0.16907
# Poissons Ratio (y) = 0.45187 0.16907
# Poissons Ratio (z) = 0.22741 0.22740
#
# Static dielectric constant tensor:
#      x y z
#    x 1.618630 0.000000 0.000000 
#    y 0.000000 1.618630 0.000000 
#    z 0.000000 0.000000 1.643300 
# 
# From -- ./inp_files/1876.got.cif
#   From: 2010.05.17/outbox.cif.g08.bks.cpg/sg137_1_cif.got.tgz:1876.got - 2010.05.20 13:01:12.
