data_PCOD9570155
_publ_section_title
;
Structure prediction by ZEFSAII (Michael W. Deem and Ramdas Pophale) SiO2 
 PCOD9570155
Probable space group: P 42/N M C
;
_chemical_formula_sum "Si O2"
_cell_formula_units_Z 128
_cell_length_a 22.955859
_cell_length_b 22.955859
_cell_length_c 12.975151
_cell_angle_alpha 90.000000
_cell_angle_beta 90.000000
_cell_angle_gamma 90.000000
_cell_volume 6837.534298
_symmetry_space_group_name_H-M "P 42/N M C"
_symmetry_group_IT_number 137
_space_group.IT_coordinate_system_code '2'
_symmetry_cell_setting 'tetragonal'
loop_
_space_group_symop_operation_xyz
x,y,z
1/2-y,x,1/2+z
1/2-x,1/2-y,z
y,1/2-x,1/2+z
1/2+x,-y,-z
-x,1/2+y,-z
1/2+y,1/2+x,1/2-z
-y,-x,1/2-z
-x,-y,-z
1/2+y,-x,1/2-z
1/2+x,1/2+y,-z
-y,1/2+x,1/2-z
1/2-x,y,z
x,1/2-y,z
1/2-y,1/2-x,1/2+z
y,x,1/2+z
loop_
_atom_site_type_symbol
_atom_site_label
_atom_site_fract_x
_atom_site_fract_y
_atom_site_fract_z
Si Si1 0.817888 0.483084 0.890964
Si Si2 0.681402 0.102245 0.069482
Si Si3 0.683565 0.818018 0.304547
Si Si4 0.395617 0.317682 0.514973
Si Si5 0.535675 0.368921 0.237785
Si Si6 0.179842 0.923524 0.522195
Si Si7 0.395318 0.092881 0.817622
Si Si8 0.967854 0.381923 0.811396
O O1 0.750000 0.477571 0.905980
O O2 0.832940 0.464734 0.776615
O O3 0.842393 0.442855 0.982208
O O4 0.831309 0.550552 0.909112
O O5 0.750000 0.114010 0.057723
O O6 0.670775 0.070388 0.178915
O O7 0.642000 0.159249 0.052588
O O8 0.750000 0.836681 0.287420
O O9 0.678253 0.750000 0.275097
O O10 0.664633 0.821686 0.423818
O O11 0.637531 0.856804 0.245029
O O12 0.402325 0.250000 0.479342
O O13 0.402104 0.364715 0.427583
O O14 0.569917 0.430084 0.250000
O O15 0.540889 0.342643 0.122943
O O16 0.469247 0.378475 0.269207
O O17 0.250000 0.928361 0.509545
O O18 0.144722 0.943162 0.418521
O O19 0.464657 0.100451 0.824873
O O20 0.933445 0.433445 0.750000
#
# Coordination Sequence:
#
# PCOD9570155 Si02
#       8
#    16  16  16  16  16  16  16  16
#     4  10  19  38  64  85 115 163 213 249 296 373
#     4  10  20  40  70  94 126 171 213 255 310 381
#     4  10  23  41  59  85 122 158 201 263 323 378
#     4  10  21  39  62  89 116 155 210 259 308 376
#     4  10  23  43  62  96 132 167 207 264 322 373
#     4  11  25  42  64  98 136 167 209 269 326 374
#     4  12  24  39  64  93 119 166 216 260 315 386
#     4  12  25  41  60  91 132 171 205 259 319 375
#
# _framework density 18.720199000000001
#
# number of rings (size 3 to 8) (size 9 to 14) (size 15 to 20)
#    0.000    1.375    3.750    1.500    1.750    2.750 
#    0.000    3.750    0.000    2.250    0.000    0.000 
#    0.000    0.000    0.000    0.000    0.000    0.000 
#
# Total GULP energy -713427.187792 kJ/mol
# GULP energy per Si atom -5573.649905 kJ/mol
# Density = 1.867759 g / cm^3
# Si number density = 18.720199 Si / 1000 Ang^3
#
#
#
# Elastic Constant Matrix: (Units=GPa)
#
#
# Indices 1 2 3 4 5 6 
#
# 1 114.1128 38.3354 47.7099 0.0000 0.0000 0.0000
# 2 38.3354 114.1132 47.7090 0.0000 0.0000 0.0000
# 3 47.7099 47.7090 132.7681 0.0000 0.0000 0.0000
# 4 0.0000 0.0000 0.0000 21.3447 0.0000 0.0000
# 5 0.0000 0.0000 0.0000 0.0000 21.3453 0.0000
# 6 0.0000 0.0000 0.0000 0.0000 0.0000 13.3184
#
#
#
# Elastic Compliance Matrix: (Units=1/GPa)
#
#
# Indices 1 2 3 4 5 6 
#
# 1 0.010830 -0.002367 -0.003041 0.000000 0.000000 0.000000
# 2 -0.002367 0.010830 -0.003041 0.000000 0.000000 0.000000
# 3 -0.003041 -0.003041 0.009718 0.000000 0.000000 0.000000
# 4 0.000000 0.000000 0.000000 0.046850 0.000000 0.000000
# 5 0.000000 0.000000 0.000000 0.000000 0.046849 0.000000
# 6 0.000000 0.000000 0.000000 0.000000 0.000000 0.075084
#
#
# Mechanical properties :
#
#
# Convention : Reuss Voigt Hill
#
# Bulk Modulus (GPa) = 69.06504 69.83364 69.44934
# Shear Modulus (GPa) = 22.53423 26.35099 24.44261
#
# Velocity S-wave (km/s) = 3.47326 3.75590 3.61734
# Velocity P-wave (km/s) = 7.28410 7.49626 7.39094
#
# Compressibility (1/GPa) = 0.01447911
#
# Stress axis : x y z
#
# Youngs Moduli (GPa) = 92.33736 92.33825 102.90629
#
# Poissons Ratio (x) = 0.21854 0.31296
# Poissons Ratio (y) = 0.21854 0.31295
# Poissons Ratio (z) = 0.28082 0.28081
#
# Static dielectric constant tensor:
#      x y z
#    x 1.627730 0.000000 0.000000 
#    y 0.000000 1.627730 0.000000 
#    z 0.000000 0.000000 1.676380 
# 
# From -- ./inp_files/4005.got.cif
#   From: 2010.05.17/outbox.cif.g08.bks.cpg/sg137_3_cif.got.tgz:4005.got - 2010.05.20 13:01:12.
