data_PCOD9570148
_publ_section_title
;
Structure prediction by ZEFSAII (Michael W. Deem and Ramdas Pophale) SiO2 
 PCOD9570148
Probable space group: P 42/N M C
;
_chemical_formula_sum "Si O2"
_cell_formula_units_Z 80
_cell_length_a 25.256391
_cell_length_b 25.256391
_cell_length_c 5.713643
_cell_angle_alpha 90.000000
_cell_angle_beta 90.000000
_cell_angle_gamma 90.000000
_cell_volume 3644.648801
_symmetry_space_group_name_H-M "P 42/N M C"
_symmetry_group_IT_number 137
_space_group.IT_coordinate_system_code '2'
_symmetry_cell_setting 'tetragonal'
loop_
_space_group_symop_operation_xyz
x,y,z
1/2-y,x,1/2+z
1/2-x,1/2-y,z
y,1/2-x,1/2+z
1/2+x,-y,-z
-x,1/2+y,-z
1/2+y,1/2+x,1/2-z
-y,-x,1/2-z
-x,-y,-z
1/2+y,-x,1/2-z
1/2+x,1/2+y,-z
-y,1/2+x,1/2-z
1/2-x,y,z
x,1/2-y,z
1/2-y,1/2-x,1/2+z
y,x,1/2+z
loop_
_atom_site_type_symbol
_atom_site_label
_atom_site_fract_x
_atom_site_fract_y
_atom_site_fract_z
Si Si1 0.641618 0.880835 0.490874
Si Si2 0.309137 0.600669 0.221289
Si Si3 0.309745 0.491925 0.528061
Si Si4 0.469690 0.437931 0.610552
Si Si5 0.450645 0.872797 0.619056
O O1 0.655822 0.859472 0.226082
O O2 0.676351 0.933034 0.559332
O O3 0.582141 0.901068 0.425456
O O4 0.355533 0.644467 0.250000
O O5 0.250000 0.622294 0.253013
O O6 0.312369 0.546112 0.373101
O O7 0.320481 0.579747 0.960397
O O8 0.250000 0.490172 0.620606
O O9 0.354798 0.501958 0.718144
O O10 0.468759 0.465454 0.863273
O O11 0.522488 0.403086 0.594667
O O12 0.411584 0.911584 0.750000
#
# Coordination Sequence:
#
# PCOD9570148 Si02
#       5
#    16  16  16  16  16
#     4  10  19  37  59  85 127 162 197 247 294 363
#     4  11  24  42  63  84 112 151 207 268 323 373
#     4  11  23  40  61  88 119 161 203 250 306 367
#     4  10  20  35  56  86 127 165 201 239 292 362
#     4  12  23  37  60  84 121 162 203 254 309 373
#
# _framework density 21.949988000000001
#
# number of rings (size 3 to 8) (size 9 to 14) (size 15 to 20)
#    0.000    1.200    6.000    3.000    0.000    1.000 
#    0.000    0.000    0.000    0.000    0.000    0.000 
#    0.000    2.400    0.000    0.000    0.000    0.000 
#
# Total GULP energy -445608.335749 kJ/mol
# GULP energy per Si atom -5570.104197 kJ/mol
# Density = 2.190003 g / cm^3
# Si number density = 21.949988 Si / 1000 Ang^3
#
#
#
# Elastic Constant Matrix: (Units=GPa)
#
#
# Indices 1 2 3 4 5 6 
#
# 1 36.9154 63.1711 20.2665 0.0000 0.0000 0.0000
# 2 63.1711 36.9136 20.2657 0.0000 0.0000 0.0000
# 3 20.2665 20.2657 107.4666 0.0000 0.0000 0.0000
# 4 0.0000 0.0000 0.0000 20.1426 0.0000 0.0000
# 5 0.0000 0.0000 0.0000 0.0000 20.1427 0.0000
# 6 0.0000 0.0000 0.0000 0.0000 0.0000 26.9769
#
#
#
# Elastic Compliance Matrix: (Units=1/GPa)
#
#
# Indices 1 2 3 4 5 6 
#
# 1 -0.013634 0.024452 -0.002040 0.000000 0.000000 0.000000
# 2 0.024452 -0.013634 -0.002040 0.000000 0.000000 0.000000
# 3 -0.002040 -0.002040 0.010075 0.000000 0.000000 0.000000
# 4 0.000000 0.000000 0.000000 0.049646 0.000000 0.000000
# 5 0.000000 0.000000 0.000000 0.000000 0.049646 0.000000
# 6 0.000000 0.000000 0.000000 0.000000 0.000000 0.037069
#
#
# Mechanical properties :
#
#
# Convention : Reuss Voigt Hill
#
# Bulk Modulus (GPa) = 42.46313 43.18916 42.82614
# Shear Modulus (GPa) = 57.95513 18.62527 38.29020
#
# Velocity S-wave (km/s) = 5.14398 2.91612 4.18117
# Velocity P-wave (km/s) = 7.39379 5.57290 6.54696
#
# Compressibility (1/GPa) = 0.02354984
#
# Stress axis : x y z
#
# Youngs Moduli (GPa) = -73.34761 -73.34416 99.25936
#
# Poissons Ratio (x) = 1.79338 0.20248
# Poissons Ratio (y) = 1.79347 0.20250
# Poissons Ratio (z) = -0.14962 -0.14963
#
# Static dielectric constant tensor:
#      x y z
#    x 1.837450 0.000000 0.000000 
#    y 0.000000 1.837440 0.000000 
#    z 0.000000 0.000000 1.958810 
# 
# From -- ./inp_files/575.got.cif
#   From: 2010.05.17/outbox.cif.g08.bks.cpg/sg137_1_cif.got.tgz:575.got - 2010.05.20 13:01:12.
