data_PCOD9570304
_publ_section_title
;
Structure prediction by ZEFSAII (Michael W. Deem and Ramdas Pophale) SiO2 
 PCOD9570304
Probable space group: P 42/N M C
;
_chemical_formula_sum "Si O2"
_cell_formula_units_Z 48
_cell_length_a 16.924361
_cell_length_b 16.924361
_cell_length_c 8.279412
_cell_angle_alpha 90.000000
_cell_angle_beta 90.000000
_cell_angle_gamma 90.000000
_cell_volume 2371.505058
_symmetry_space_group_name_H-M "P 42/N M C"
_symmetry_group_IT_number 137
_space_group.IT_coordinate_system_code '2'
_symmetry_cell_setting 'tetragonal'
loop_
_space_group_symop_operation_xyz
x,y,z
1/2-y,x,1/2+z
1/2-x,1/2-y,z
y,1/2-x,1/2+z
1/2+x,-y,-z
-x,1/2+y,-z
1/2+y,1/2+x,1/2-z
-y,-x,1/2-z
-x,-y,-z
1/2+y,-x,1/2-z
1/2+x,1/2+y,-z
-y,1/2+x,1/2-z
1/2-x,y,z
x,1/2-y,z
1/2-y,1/2-x,1/2+z
y,x,1/2+z
loop_
_atom_site_type_symbol
_atom_site_label
_atom_site_fract_x
_atom_site_fract_y
_atom_site_fract_z
Si Si1 0.466038 0.412936 0.959680
Si Si2 0.387908 0.660266 0.928318
Si Si3 0.658182 0.500066 0.888884
O O1 0.517197 0.354201 0.071175
O O2 0.375065 0.431080 0.994089
O O3 0.500000 0.500000 0.000000
O O4 0.484846 0.386585 0.779325
O O5 0.353766 0.646235 0.750000
O O6 0.370592 0.750000 0.981997
O O7 0.356376 0.588530 0.040408
O O8 0.750000 0.508186 0.860362
#
# Coordination Sequence:
#
# PCOD9570304 Si02
#       3
#    16  16  16
#     4  10  20  39  63  85 116 160 205 243 288 361
#     4  11  22  37  60  90 126 165 201 244 301 365
#     4  11  23  40  65  92 120 160 206 255 309 364
#
# _framework density 20.240311999999999
#
# number of rings (size 3 to 8) (size 9 to 14) (size 15 to 20)
#    0.000    1.333    0.000   10.000    0.000    2.333 
#    0.000    3.333    0.000   20.000    0.000    0.000 
#    0.000    0.000    0.000    0.000    0.000    0.000 
#
# Total GULP energy -267664.303855 kJ/mol
# GULP energy per Si atom -5576.339664 kJ/mol
# Density = 2.019424 g / cm^3
# Si number density = 20.240312 Si / 1000 Ang^3
#
#
#
# Elastic Constant Matrix: (Units=GPa)
#
#
# Indices 1 2 3 4 5 6 
#
# 1 111.7602 61.3359 63.2218 0.0000 0.0000 0.0000
# 2 61.3359 111.7594 63.2224 0.0000 0.0000 0.0000
# 3 63.2218 63.2224 106.8090 0.0000 0.0000 0.0000
# 4 0.0000 0.0000 0.0000 15.8507 0.0000 0.0000
# 5 0.0000 0.0000 0.0000 0.0000 15.8504 0.0000
# 6 0.0000 0.0000 0.0000 0.0000 0.0000 15.7675
#
#
#
# Elastic Compliance Matrix: (Units=1/GPa)
#
#
# Indices 1 2 3 4 5 6 
#
# 1 0.015005 -0.004827 -0.006024 0.000000 0.000000 0.000000
# 2 -0.004827 0.015005 -0.006025 0.000000 0.000000 0.000000
# 3 -0.006024 -0.006025 0.016495 0.000000 0.000000 0.000000
# 4 0.000000 0.000000 0.000000 0.063089 0.000000 0.000000
# 5 0.000000 0.000000 0.000000 0.000000 0.063090 0.000000
# 6 0.000000 0.000000 0.000000 0.000000 0.000000 0.063422
#
#
# Mechanical properties :
#
#
# Convention : Reuss Voigt Hill
#
# Bulk Modulus (GPa) = 78.41650 78.43210 78.42430
# Shear Modulus (GPa) = 18.24103 18.99696 18.61899
#
# Velocity S-wave (km/s) = 3.00529 3.06693 3.03627
# Velocity P-wave (km/s) = 7.13227 7.16771 7.15001
#
# Compressibility (1/GPa) = 0.01275242
#
# Stress axis : x y z
#
# Youngs Moduli (GPa) = 66.64539 66.64408 60.62610
#
# Poissons Ratio (x) = 0.32169 0.36524
# Poissons Ratio (y) = 0.32169 0.36525
# Poissons Ratio (z) = 0.40150 0.40151
#
# Static dielectric constant tensor:
#      x y z
#    x 1.789660 0.000000 0.000000 
#    y 0.000000 1.789660 0.000000 
#    z 0.000000 0.000000 1.788000 
# 
# From -- ./inp_files/1289.got.cif
#   From: 2010.05.17/outbox.cif.g08.bks.cpg/sg137_1_cif.got.tgz:1289.got - 2010.05.20 13:01:12.
