data_PCOD9570561
_publ_section_title
;
Structure prediction by ZEFSAII (Michael W. Deem and Ramdas Pophale) SiO2 
 PCOD9570561
Probable space group: P 42/N C M
;
_chemical_formula_sum "Si O2"
_cell_formula_units_Z 96
_cell_length_a 24.999758
_cell_length_b 24.999758
_cell_length_c 8.330746
_cell_angle_alpha 90.000000
_cell_angle_beta 90.000000
_cell_angle_gamma 90.000000
_cell_volume 5206.615448
_symmetry_space_group_name_H-M "P 42/N C M"
_symmetry_group_IT_number 138
_space_group.IT_coordinate_system_code '2'
_symmetry_cell_setting 'tetragonal'
loop_
_space_group_symop_operation_xyz
x,y,z
1/2-y,x,1/2+z
1/2-x,1/2-y,z
y,1/2-x,1/2+z
1/2+x,-y,1/2-z
-x,1/2+y,1/2-z
1/2+y,1/2+x,-z
-y,-x,-z
-x,-y,-z
1/2+y,-x,1/2-z
1/2+x,1/2+y,-z
-y,1/2+x,1/2-z
1/2-x,y,1/2+z
x,1/2-y,1/2+z
1/2-y,1/2-x,z
y,x,z
loop_
_atom_site_type_symbol
_atom_site_label
_atom_site_fract_x
_atom_site_fract_y
_atom_site_fract_z
Si Si1 0.102609 0.313917 0.478071
Si Si2 0.040835 0.763749 0.301828
Si Si3 0.195085 0.388832 0.102375
Si Si4 0.104666 0.015991 0.122578
Si Si5 0.332422 0.581457 0.991064
Si Si6 0.013611 0.177581 0.403801
O O1 0.159764 0.340237 0.505677
O O2 0.104698 0.256145 0.554258
O O3 0.093788 0.313856 0.286372
O O4 0.059594 0.352159 0.560951
O O5 0.074674 0.714662 0.376710
O O6 0.020451 0.802509 0.443011
O O7 0.070113 0.800889 0.173352
O O8 0.994078 0.729667 0.211681
O O9 0.169778 0.330223 0.085928
O O10 0.167202 0.428081 0.975620
O O11 0.047143 0.047143 0.115307
O O12 0.121667 0.964164 0.018335
O O13 0.124932 0.999775 0.301202
O O14 0.362385 0.637616 0.000000
#
# Coordination Sequence:
#
# PCOD9570561 Si02
#       6
#    16  16  16  16  16  16
#     4  10  21  33  44  62  91 130 174 221 276 336
#     4   9  19  35  57  83 109 142 187 226 270 340
#     4  11  20  29  44  64  88 123 172 229 280 322
#     4  10  20  34  53  79 110 144 184 227 275 329
#     4  10  20  37  62  87 115 150 185 230 280 330
#     4  10  17  30  51  74 101 135 178 225 267 317
#
# _framework density 18.438081
#
# number of rings (size 3 to 8) (size 9 to 14) (size 15 to 20)
#    0.000    2.000    0.000    6.500    0.000    2.667 
#    0.000   10.000    0.000    2.500    0.000    0.000 
#    0.000    0.000    0.000    0.000    0.000    0.000 
#
# Total GULP energy -534567.531946 kJ/mol
# GULP energy per Si atom -5568.411791 kJ/mol
# Density = 1.839611 g / cm^3
# Si number density = 18.438081 Si / 1000 Ang^3
#
#
#
# Elastic Constant Matrix: (Units=GPa)
#
#
# Indices 1 2 3 4 5 6 
#
# 1 56.5944 52.7293 33.8015 0.0000 0.0000 0.0000
# 2 52.7293 56.5882 33.8007 0.0000 0.0000 0.0000
# 3 33.8015 33.8007 95.3348 0.0000 0.0000 0.0000
# 4 0.0000 0.0000 0.0000 21.2302 0.0000 0.0000
# 5 0.0000 0.0000 0.0000 0.0000 21.2287 0.0000
# 6 0.0000 0.0000 0.0000 0.0000 0.0000 36.4067
#
#
#
# Elastic Compliance Matrix: (Units=1/GPa)
#
#
# Indices 1 2 3 4 5 6 
#
# 1 0.135316 -0.123609 -0.004152 0.000000 0.000000 0.000000
# 2 -0.123609 0.135333 -0.004156 0.000000 0.000000 0.000000
# 3 -0.004152 -0.004156 0.013435 0.000000 0.000000 0.000000
# 4 0.000000 0.000000 0.000000 0.047103 0.000000 0.000000
# 5 0.000000 0.000000 0.000000 0.000000 0.047106 0.000000
# 6 0.000000 0.000000 0.000000 0.000000 0.000000 0.027467
#
#
# Mechanical properties :
#
#
# Convention : Reuss Voigt Hill
#
# Bulk Modulus (GPa) = 49.37944 49.90894 49.64419
# Shear Modulus (GPa) = 7.39268 21.65216 14.52242
#
# Velocity S-wave (km/s) = 2.00454 3.43055 2.80952
# Velocity P-wave (km/s) = 5.67423 6.54360 6.12436
#
# Compressibility (1/GPa) = 0.02025134
#
# Stress axis : x y z
#
# Youngs Moduli (GPa) = 7.39010 7.38916 74.43270
#
# Poissons Ratio (x) = 0.91336 0.30905
# Poissons Ratio (y) = 0.91348 0.30934
# Poissons Ratio (z) = 0.03068 0.03071
#
# Static dielectric constant tensor:
#      x y z
#    x 1.718800 0.000000 0.000000 
#    y 0.000000 1.718790 0.000000 
#    z 0.000000 0.000000 1.683060 
# 
# From -- ./inp_files/1750.got.cif
#   From: 2010.05.17/outbox.cif.g08.bks.cpg/sg138_1_cif.got.tgz:1750.got - 2010.05.20 13:08:53.
