data_PCOD9570813
_publ_section_title
;
Structure prediction by ZEFSAII (Michael W. Deem and Ramdas Pophale) SiO2 
 PCOD9570813
Probable space group: P 42/N C M
;
_chemical_formula_sum "Si O2"
_cell_formula_units_Z 64
_cell_length_a 13.827767
_cell_length_b 13.827767
_cell_length_c 17.360073
_cell_angle_alpha 90.000000
_cell_angle_beta 90.000000
_cell_angle_gamma 90.000000
_cell_volume 3319.369912
_symmetry_space_group_name_H-M "P 42/N C M"
_symmetry_group_IT_number 138
_space_group.IT_coordinate_system_code '2'
_symmetry_cell_setting 'tetragonal'
loop_
_space_group_symop_operation_xyz
x,y,z
1/2-y,x,1/2+z
1/2-x,1/2-y,z
y,1/2-x,1/2+z
1/2+x,-y,1/2-z
-x,1/2+y,1/2-z
1/2+y,1/2+x,-z
-y,-x,-z
-x,-y,-z
1/2+y,-x,1/2-z
1/2+x,1/2+y,-z
-y,1/2+x,1/2-z
1/2-x,y,1/2+z
x,1/2-y,1/2+z
1/2-y,1/2-x,z
y,x,z
loop_
_atom_site_type_symbol
_atom_site_label
_atom_site_fract_x
_atom_site_fract_y
_atom_site_fract_z
Si Si1 0.282310 0.608898 0.774723
Si Si2 0.088133 0.253018 0.688474
Si Si3 0.962593 0.124466 0.922123
Si Si4 0.090801 0.243512 0.512120
O O1 0.178464 0.660199 0.784447
O O2 0.265463 0.501207 0.743945
O O3 0.348251 0.603802 0.850721
O O4 0.146712 0.353289 0.701006
O O5 0.168146 0.168146 0.696397
O O6 0.053094 0.249682 0.599562
O O7 0.911425 0.088576 0.000000
O O8 0.041261 0.041261 0.901496
O O9 0.017506 0.222050 0.947728
O O10 0.176036 0.323965 0.510748
O O11 0.141023 0.141023 0.498671
#
# Coordination Sequence:
#
# PCOD9570813 Si02
#       4
#    16  16  16  16
#     4  11  24  39  53  78 116 154 191 230 280 340
#     4   9  18  35  60  86 112 146 188 236 290 343
#     4  10  20  36  60  84 107 144 191 234 279 335
#     4   8  15  30  53  81 109 135 172 225 279 329
#
# _framework density 19.280767999999998
#
# number of rings (size 3 to 8) (size 9 to 14) (size 15 to 20)
#    0.000    2.500    0.000    3.750    0.000    5.000 
#    0.000   11.250    0.000    3.000    0.000    0.000 
#    0.000    0.000    0.000    0.000    0.000    0.000 
#
# Total GULP energy -356884.839108 kJ/mol
# GULP energy per Si atom -5576.325611 kJ/mol
# Density = 1.923688 g / cm^3
# Si number density = 19.280768 Si / 1000 Ang^3
#
#
#
# Elastic Constant Matrix: (Units=GPa)
#
#
# Indices 1 2 3 4 5 6 
#
# 1 65.3038 23.4863 32.4077 0.0000 0.0000 0.0000
# 2 23.4863 65.3038 32.4085 0.0000 0.0000 0.0000
# 3 32.4077 32.4085 52.1257 0.0000 0.0000 0.0000
# 4 0.0000 0.0000 0.0000 24.6018 0.0000 0.0000
# 5 0.0000 0.0000 0.0000 0.0000 24.6010 0.0000
# 6 0.0000 0.0000 0.0000 0.0000 0.0000 19.8952
#
#
#
# Elastic Compliance Matrix: (Units=1/GPa)
#
#
# Indices 1 2 3 4 5 6 
#
# 1 0.022267 -0.001646 -0.012821 0.000000 0.000000 0.000000
# 2 -0.001646 0.022268 -0.012822 0.000000 0.000000 0.000000
# 3 -0.012821 -0.012822 0.035127 0.000000 0.000000 0.000000
# 4 0.000000 0.000000 0.000000 0.040647 0.000000 0.000000
# 5 0.000000 0.000000 0.000000 0.000000 0.040649 0.000000
# 6 0.000000 0.000000 0.000000 0.000000 0.000000 0.050263
#
#
# Mechanical properties :
#
#
# Convention : Reuss Voigt Hill
#
# Bulk Modulus (GPa) = 39.86298 39.92647 39.89473
# Shear Modulus (GPa) = 18.23749 20.11498 19.17624
#
# Velocity S-wave (km/s) = 3.07887 3.23347 3.15712
# Velocity P-wave (km/s) = 5.77574 5.89010 5.83320
#
# Compressibility (1/GPa) = 0.02508593
#
# Stress axis : x y z
#
# Youngs Moduli (GPa) = 44.90859 44.90766 28.46807
#
# Poissons Ratio (x) = 0.07391 0.36499
# Poissons Ratio (y) = 0.07391 0.36501
# Poissons Ratio (z) = 0.57577 0.57579
#
# Static dielectric constant tensor:
#      x y z
#    x 1.692320 0.000000 0.000000 
#    y 0.000000 1.692320 0.000000 
#    z 0.000000 0.000000 1.675850 
# 
# From -- ./inp_files/3886.got.cif
#   From: 2010.05.17/outbox.cif.g08.bks.cpg/sg138_2_cif.got.tgz:3886.got - 2010.05.20 13:08:53.
