data_PCOD9570599
_publ_section_title
;
Structure prediction by ZEFSAII (Michael W. Deem and Ramdas Pophale) SiO2 
 PCOD9570599
Probable space group: P 42/N C M
;
_chemical_formula_sum "Si O2"
_cell_formula_units_Z 88
_cell_length_a 13.480337
_cell_length_b 13.480337
_cell_length_c 20.770676
_cell_angle_alpha 90.000000
_cell_angle_beta 90.000000
_cell_angle_gamma 90.000000
_cell_volume 3774.436559
_symmetry_space_group_name_H-M "P 42/N C M"
_symmetry_group_IT_number 138
_space_group.IT_coordinate_system_code '2'
_symmetry_cell_setting 'tetragonal'
loop_
_space_group_symop_operation_xyz
x,y,z
1/2-y,x,1/2+z
1/2-x,1/2-y,z
y,1/2-x,1/2+z
1/2+x,-y,1/2-z
-x,1/2+y,1/2-z
1/2+y,1/2+x,-z
-y,-x,-z
-x,-y,-z
1/2+y,-x,1/2-z
1/2+x,1/2+y,-z
-y,1/2+x,1/2-z
1/2-x,y,1/2+z
x,1/2-y,1/2+z
1/2-y,1/2-x,z
y,x,z
loop_
_atom_site_type_symbol
_atom_site_label
_atom_site_fract_x
_atom_site_fract_y
_atom_site_fract_z
Si Si1 0.064691 0.064691 0.847570
Si Si2 0.514680 0.815942 0.879072
Si Si3 0.405266 0.405266 0.127215
Si Si4 0.325011 0.483922 0.477084
Si Si5 0.296252 0.037338 0.836494
Si Si6 0.121528 0.378473 0.485457
Si Si7 0.104361 0.763780 0.765522
O O1 0.178301 0.048340 0.826525
O O2 0.072304 0.072304 0.924438
O O3 0.980747 0.980747 0.836766
O O4 0.590846 0.909154 0.873466
O O5 0.573384 0.712047 0.866547
O O6 0.433977 0.803965 0.823371
O O7 0.467969 0.817069 0.951741
O O8 0.420799 0.420799 0.050922
O O9 0.428923 0.428923 0.476472
O O10 0.311764 0.521868 0.404025
O O11 0.237359 0.402211 0.481592
O O12 0.361581 0.138420 0.841753
O O13 0.323718 0.979809 0.771939
O O14 0.189283 0.841417 0.784579
#
# Coordination Sequence:
#
# PCOD9570599 Si02
#       7
#     8  16   8  16  16   8  16
#     4  10  18  31  54  89 130 168 205 253 313 374
#     4  10  21  38  63  92 125 163 214 264 319 380
#     4  10  18  31  54  89 130 168 205 253 313 374
#     4   8  15  31  56  89 123 158 199 263 323 374
#     4  10  21  38  63  92 125 163 214 264 319 380
#     4   8  14  24  46  82 125 168 205 242 299 376
#     4  11  26  46  63  86 126 172 213 262 331 404
#
# _framework density 23.314737999999998
#
# number of rings (size 3 to 8) (size 9 to 14) (size 15 to 20)
#    0.000    2.364    0.000    2.182    2.545    5.091 
#    0.000    3.636    0.000    5.455    0.000    0.000 
#    0.000    0.000    0.000    0.000    0.000    0.000 
#
# Total GULP energy -489935.077579 kJ/mol
# GULP energy per Si atom -5567.444063 kJ/mol
# Density = 2.326167 g / cm^3
# Si number density = 23.314738 Si / 1000 Ang^3
#
#
#
# Elastic Constant Matrix: (Units=GPa)
#
#
# Indices 1 2 3 4 5 6 
#
# 1 75.6024 32.2838 29.9309 0.0000 0.0000 0.0000
# 2 32.2838 75.6024 29.9309 0.0000 0.0000 0.0000
# 3 29.9309 29.9309 120.7554 0.0000 0.0000 0.0000
# 4 0.0000 0.0000 0.0000 25.6509 0.0000 0.0000
# 5 0.0000 0.0000 0.0000 0.0000 25.6509 0.0000
# 6 0.0000 0.0000 0.0000 0.0000 0.0000 42.3652
#
#
#
# Elastic Compliance Matrix: (Units=1/GPa)
#
#
# Indices 1 2 3 4 5 6 
#
# 1 0.016916 -0.006169 -0.002664 0.000000 0.000000 0.000000
# 2 -0.006169 0.016916 -0.002664 0.000000 0.000000 0.000000
# 3 -0.002664 -0.002664 0.009602 0.000000 0.000000 0.000000
# 4 0.000000 0.000000 0.000000 0.038985 0.000000 0.000000
# 5 0.000000 0.000000 0.000000 0.000000 0.038985 0.000000
# 6 0.000000 0.000000 0.000000 0.000000 0.000000 0.023604
#
#
# Mechanical properties :
#
#
# Convention : Reuss Voigt Hill
#
# Bulk Modulus (GPa) = 48.92217 50.69459 49.80838
# Shear Modulus (GPa) = 28.60179 30.72105 29.66142
#
# Velocity S-wave (km/s) = 3.50633 3.63391 3.57069
# Velocity P-wave (km/s) = 6.11730 6.27677 6.19755
#
# Compressibility (1/GPa) = 0.02044063
#
# Stress axis : x y z
#
# Youngs Moduli (GPa) = 59.11592 59.11592 104.14795
#
# Poissons Ratio (x) = 0.36468 0.27743
# Poissons Ratio (y) = 0.36468 0.27743
# Poissons Ratio (z) = 0.15747 0.15747
#
# Static dielectric constant tensor:
#      x y z
#    x 1.940480 0.000000 0.000000 
#    y 0.000000 1.940480 0.000000 
#    z 0.000000 0.000000 1.942760 
# 
# From -- ./inp_files/6181.got.cif
#   From: 2010.05.17/outbox.cif.g08.bks.cpg/sg138_4_cif.got.tgz:6181.got - 2010.05.20 13:08:53.
