data_PCOD9570131
_publ_section_title
;
Structure prediction by ZEFSAII (Michael W. Deem and Ramdas Pophale) SiO2 
 PCOD9570131
Probable space group: P 42/N M C
;
_chemical_formula_sum "Si O2"
_cell_formula_units_Z 96
_cell_length_a 24.228261
_cell_length_b 24.228261
_cell_length_c 10.108950
_cell_angle_alpha 90.000000
_cell_angle_beta 90.000000
_cell_angle_gamma 90.000000
_cell_volume 5934.040901
_symmetry_space_group_name_H-M "P 42/N M C"
_symmetry_group_IT_number 137
_space_group.IT_coordinate_system_code '2'
_symmetry_cell_setting 'tetragonal'
loop_
_space_group_symop_operation_xyz
x,y,z
1/2-y,x,1/2+z
1/2-x,1/2-y,z
y,1/2-x,1/2+z
1/2+x,-y,-z
-x,1/2+y,-z
1/2+y,1/2+x,1/2-z
-y,-x,1/2-z
-x,-y,-z
1/2+y,-x,1/2-z
1/2+x,1/2+y,-z
-y,1/2+x,1/2-z
1/2-x,y,z
x,1/2-y,z
1/2-y,1/2-x,1/2+z
y,x,1/2+z
loop_
_atom_site_type_symbol
_atom_site_label
_atom_site_fract_x
_atom_site_fract_y
_atom_site_fract_z
Si Si1 0.476685 0.926117 0.380080
Si Si2 0.149510 0.360417 0.168975
Si Si3 0.511992 0.427732 0.130401
Si Si4 0.808717 0.813731 0.082958
Si Si5 0.814895 0.970139 0.283515
Si Si6 0.185036 0.475658 0.036638
O O1 0.443628 0.943628 0.250000
O O2 0.445500 0.957007 0.498339
O O3 0.481923 0.861200 0.410384
O O4 0.538556 0.953473 0.370981
O O5 0.162515 0.356342 0.324428
O O6 0.088244 0.336370 0.161186
O O7 0.166266 0.418755 0.106668
O O8 0.183678 0.320262 0.072732
O O9 0.545208 0.454793 0.250000
O O10 0.509080 0.362328 0.155106
O O11 0.750000 0.841118 0.120371
O O12 0.806508 0.750000 0.115715
O O13 0.750000 0.979672 0.314435
O O14 0.820342 0.970852 0.123064
O O15 0.250000 0.486436 0.065026
#
# Coordination Sequence:
#
# PCOD9570131 Si02
#       6
#    16  16  16  16  16  16
#     4  10  21  35  58  84 110 143 184 233 286 339
#     4  12  22  35  51  71 102 143 183 227 281 323
#     4  10  19  35  58  79 109 145 189 231 279 338
#     4  11  22  34  46  62  89 134 190 238 276 315
#     4  11  22  36  56  82 111 146 191 237 283 329
#     4  11  22  37  56  81 113 148 187 233 288 335
#
# _framework density 16.177845000000001
#
# number of rings (size 3 to 8) (size 9 to 14) (size 15 to 20)
#    0.000    1.167    5.000    3.000    0.000    2.667 
#    0.000    2.500    0.000    0.000    0.000    0.000 
#    0.000    4.000    0.000    0.000    0.000    0.000 
#
# Total GULP energy -534733.774570 kJ/mol
# GULP energy per Si atom -5570.143485 kJ/mol
# Density = 1.614102 g / cm^3
# Si number density = 16.177845 Si / 1000 Ang^3
#
#
#
# Elastic Constant Matrix: (Units=GPa)
#
#
# Indices 1 2 3 4 5 6 
#
# 1 94.2822 46.4919 31.6312 0.0000 0.0000 0.0000
# 2 46.4919 94.2818 31.6316 0.0000 0.0000 0.0000
# 3 31.6312 31.6316 85.9735 0.0000 0.0000 0.0000
# 4 0.0000 0.0000 0.0000 18.6948 0.0000 0.0000
# 5 0.0000 0.0000 0.0000 0.0000 18.6953 0.0000
# 6 0.0000 0.0000 0.0000 0.0000 0.0000 16.5592
#
#
#
# Elastic Compliance Matrix: (Units=1/GPa)
#
#
# Indices 1 2 3 4 5 6 
#
# 1 0.014718 -0.006207 -0.003131 0.000000 0.000000 0.000000
# 2 -0.006207 0.014718 -0.003131 0.000000 0.000000 0.000000
# 3 -0.003131 -0.003131 0.013936 0.000000 0.000000 0.000000
# 4 0.000000 0.000000 0.000000 0.053491 0.000000 0.000000
# 5 0.000000 0.000000 0.000000 0.000000 0.053489 0.000000
# 6 0.000000 0.000000 0.000000 0.000000 0.000000 0.060389
#
#
# Mechanical properties :
#
#
# Convention : Reuss Voigt Hill
#
# Bulk Modulus (GPa) = 54.25345 54.89411 54.57378
# Shear Modulus (GPa) = 20.67621 21.77539 21.22580
#
# Velocity S-wave (km/s) = 3.57887 3.67277 3.62612
# Velocity P-wave (km/s) = 7.11942 7.21048 7.16509
#
# Compressibility (1/GPa) = 0.01843201
#
# Stress axis : x y z
#
# Youngs Moduli (GPa) = 67.94520 67.94471 71.75854
#
# Poissons Ratio (x) = 0.42173 0.22469
# Poissons Ratio (y) = 0.42174 0.22470
# Poissons Ratio (z) = 0.21275 0.21276
#
# Static dielectric constant tensor:
#      x y z
#    x 1.577110 0.000000 0.000000 
#    y 0.000000 1.577110 0.000000 
#    z 0.000000 0.000000 1.507050 
# 
# From -- ./inp_files/2131.got.cif
#   From: 2010.05.17/outbox.cif.g08.bks.cpg/sg137_2_cif.got.tgz:2131.got - 2010.05.20 13:01:12.
