data_PCOD9570646
_publ_section_title
;
Structure prediction by ZEFSAII (Michael W. Deem and Ramdas Pophale) SiO2 
 PCOD9570646
Probable space group: P 42/N C M
;
_chemical_formula_sum "Si O2"
_cell_formula_units_Z 112
_cell_length_a 16.357024
_cell_length_b 16.357024
_cell_length_c 25.393761
_cell_angle_alpha 90.000000
_cell_angle_beta 90.000000
_cell_angle_gamma 90.000000
_cell_volume 6794.157489
_symmetry_space_group_name_H-M "P 42/N C M"
_symmetry_group_IT_number 138
_space_group.IT_coordinate_system_code '2'
_symmetry_cell_setting 'tetragonal'
loop_
_space_group_symop_operation_xyz
x,y,z
1/2-y,x,1/2+z
1/2-x,1/2-y,z
y,1/2-x,1/2+z
1/2+x,-y,1/2-z
-x,1/2+y,1/2-z
1/2+y,1/2+x,-z
-y,-x,-z
-x,-y,-z
1/2+y,-x,1/2-z
1/2+x,1/2+y,-z
-y,1/2+x,1/2-z
1/2-x,y,1/2+z
x,1/2-y,1/2+z
1/2-y,1/2-x,z
y,x,z
loop_
_atom_site_type_symbol
_atom_site_label
_atom_site_fract_x
_atom_site_fract_y
_atom_site_fract_z
Si Si1 0.539020 0.668987 0.709270
Si Si2 0.811237 0.052841 0.389551
Si Si3 0.184456 0.683295 0.646579
Si Si4 0.996573 0.637056 0.000071
Si Si5 0.807500 0.441242 0.108027
Si Si6 0.188818 0.056984 0.713147
Si Si7 0.426146 0.940590 0.282738
O O1 0.609716 0.609716 0.689680
O O2 0.497491 0.708868 0.658552
O O3 0.571868 0.730308 0.753326
O O4 0.472426 0.614989 0.740048
O O5 0.739869 0.119335 0.384716
O O6 0.895517 0.104987 0.383453
O O7 0.814613 0.008937 0.445812
O O8 0.799856 0.990944 0.341345
O O9 0.250000 0.750000 0.672110
O O10 0.128364 0.738827 0.609261
O O11 0.122650 0.628787 0.682594
O O12 0.911779 0.588222 0.001013
O O13 0.068200 0.568200 0.000000
O O14 0.011182 0.687694 0.053224
O O15 0.138607 0.138607 0.703082
O O16 0.135095 0.998648 0.750935
O O17 0.497472 0.002529 0.306180
#
# Coordination Sequence:
#
# PCOD9570646 Si02
#       7
#    16  16  16  16  16  16  16
#     4  11  21  33  51  74 103 136 174 216 259 313
#     4  10  19  32  49  76 107 138 175 212 266 319
#     4  10  20  33  52  82 107 139 171 220 269 322
#     4   9  18  31  49  71 103 145 180 214 259 316
#     4  10  19  32  49  76 107 138 175 212 266 319
#     4  11  21  33  51  74 103 136 174 216 259 313
#     4  10  20  34  51  76 109 143 175 211 261 327
#
# _framework density 16.484750999999999
#
# number of rings (size 3 to 8) (size 9 to 14) (size 15 to 20)
#    0.000    1.857    4.286    0.857    0.000    2.000 
#    2.571    2.857    0.000    0.000    0.000    5.000 
#    0.000    6.857    0.000    0.000    0.000    0.000 
#
# Total GULP energy -623714.622601 kJ/mol
# GULP energy per Si atom -5568.880559 kJ/mol
# Density = 1.644723 g / cm^3
# Si number density = 16.484751 Si / 1000 Ang^3
#
#
#
# Elastic Constant Matrix: (Units=GPa)
#
#
# Indices 1 2 3 4 5 6 
#
# 1 34.7237 20.8352 27.0926 0.0000 0.0000 0.0000
# 2 20.8352 34.7237 27.0926 0.0000 0.0000 0.0000
# 3 27.0926 27.0926 98.4597 0.0000 0.0000 0.0000
# 4 0.0000 0.0000 0.0000 9.8255 0.0000 0.0000
# 5 0.0000 0.0000 0.0000 0.0000 9.8255 0.0000
# 6 0.0000 0.0000 0.0000 0.0000 0.0000 35.6693
#
#
#
# Elastic Compliance Matrix: (Units=1/GPa)
#
#
# Indices 1 2 3 4 5 6 
#
# 1 0.048301 -0.023700 -0.006769 0.000000 0.000000 0.000000
# 2 -0.023700 0.048301 -0.006769 0.000000 0.000000 0.000000
# 3 -0.006769 -0.006769 0.013882 0.000000 0.000000 0.000000
# 4 0.000000 0.000000 0.000000 0.101776 0.000000 0.000000
# 5 0.000000 0.000000 0.000000 0.000000 0.101776 0.000000
# 6 0.000000 0.000000 0.000000 0.000000 0.000000 0.028035
#
#
# Mechanical properties :
#
#
# Convention : Reuss Voigt Hill
#
# Bulk Modulus (GPa) = 27.77291 35.32755 31.55023
# Shear Modulus (GPa) = 11.66718 17.25649 14.46184
#
# Velocity S-wave (km/s) = 2.66325 3.23896 2.96511
# Velocity P-wave (km/s) = 5.13239 5.95523 5.55906
#
# Compressibility (1/GPa) = 0.03600632
#
# Stress axis : x y z
#
# Youngs Moduli (GPa) = 20.70338 20.70338 72.03699
#
# Poissons Ratio (x) = 0.49068 0.48764
# Poissons Ratio (y) = 0.49068 0.48764
# Poissons Ratio (z) = 0.14015 0.14015
#
# Static dielectric constant tensor:
#      x y z
#    x 1.570620 0.000000 0.000000 
#    y 0.000000 1.570620 0.000000 
#    z 0.000000 0.000000 1.529140 
# 
# From -- ./inp_files/7597.got.cif
#   From: 2010.05.17/outbox.cif.g08.bks.cpg/sg138_4_cif.got.tgz:7597.got - 2010.05.20 13:08:53.
