data_PCOD9570869
_publ_section_title
;
Structure prediction by ZEFSAII (Michael W. Deem and Ramdas Pophale) SiO2 
 PCOD9570869
Probable space group: P 42/N C M
;
_chemical_formula_sum "Si O2"
_cell_formula_units_Z 92
_cell_length_a 28.783934
_cell_length_b 28.783934
_cell_length_c 7.987713
_cell_angle_alpha 90.000000
_cell_angle_beta 90.000000
_cell_angle_gamma 90.000000
_cell_volume 6617.938890
_symmetry_space_group_name_H-M "P 42/N C M"
_symmetry_group_IT_number 138
_space_group.IT_coordinate_system_code '2'
_symmetry_cell_setting 'tetragonal'
loop_
_space_group_symop_operation_xyz
x,y,z
1/2-y,x,1/2+z
1/2-x,1/2-y,z
y,1/2-x,1/2+z
1/2+x,-y,1/2-z
-x,1/2+y,1/2-z
1/2+y,1/2+x,-z
-y,-x,-z
-x,-y,-z
1/2+y,-x,1/2-z
1/2+x,1/2+y,-z
-y,1/2+x,1/2-z
1/2-x,y,1/2+z
x,1/2-y,1/2+z
1/2-y,1/2-x,z
y,x,z
loop_
_atom_site_type_symbol
_atom_site_label
_atom_site_fract_x
_atom_site_fract_y
_atom_site_fract_z
Si Si1 0.392184 0.469744 0.893815
Si Si2 0.399067 0.286296 0.228711
Si Si3 0.250000 0.250000 0.651799
Si Si4 0.809259 0.690742 0.095163
Si Si5 0.044494 0.124667 0.259369
Si Si6 0.575316 0.495573 0.437344
Si Si7 0.109384 0.184517 0.847558
O O1 0.438213 0.438213 0.898882
O O2 0.400345 0.505766 0.744170
O O3 0.350655 0.434106 0.846914
O O4 0.384386 0.483400 0.086647
O O5 0.362631 0.299928 0.372740
O O6 0.441608 0.321260 0.260645
O O7 0.402780 0.230905 0.245755
O O8 0.382576 0.300335 0.041599
O O9 0.284399 0.284399 0.556380
O O10 0.216987 0.283014 0.755116
O O11 0.091727 0.091727 0.250846
O O12 0.016430 0.109133 0.421609
O O13 0.551625 0.448376 0.500000
O O14 0.533512 0.533512 0.425916
O O15 0.154581 0.154581 0.792202
#
# Coordination Sequence:
#
# PCOD9570869 Si02
#       7
#    16  16   4   8  16  16  16
#     4   8  16  31  44  57  82 102 122 159 200 247
#     4  11  20  32  43  53  73 100 138 171 215 262
#     4  10  24  30  40  50  72  90 124 184 232 254
#     4  11  20  34  38  52  69  93 129 176 220 263
#     4   9  17  31  44  57  79 104 126 160 208 255
#     4   9  17  28  45  68  82  96 124 153 199 263
#     4  10  21  34  41  57  74 103 139 178 215 259
#
# _framework density 13.901609000000001
#
# number of rings (size 3 to 8) (size 9 to 14) (size 15 to 20)
#    0.000    2.435    1.739    2.087    4.870    0.696 
#    1.565    3.478    0.000    0.000    0.000    0.000 
#    0.000    0.000    0.000    0.000    0.000    0.000 
#
# Total GULP energy -512485.915038 kJ/mol
# GULP energy per Si atom -5570.499076 kJ/mol
# Density = 1.386997 g / cm^3
# Si number density = 13.901609 Si / 1000 Ang^3
#
#
#
# Elastic Constant Matrix: (Units=GPa)
#
#
# Indices 1 2 3 4 5 6 
#
# 1 12.9273 7.5382 5.2075 0.0000 0.0000 0.0000
# 2 7.5382 12.9297 5.2094 0.0000 0.0000 0.0000
# 3 5.2075 5.2094 35.5503 0.0000 0.0000 0.0000
# 4 0.0000 0.0000 0.0000 12.0234 0.0000 0.0000
# 5 0.0000 0.0000 0.0000 0.0000 12.0223 0.0000
# 6 0.0000 0.0000 0.0000 0.0000 0.0000 16.1820
#
#
#
# Elastic Compliance Matrix: (Units=1/GPa)
#
#
# Indices 1 2 3 4 5 6 
#
# 1 0.119167 -0.066361 -0.007731 0.000000 0.000000 0.000000
# 2 -0.066361 0.119149 -0.007739 0.000000 0.000000 0.000000
# 3 -0.007731 -0.007739 0.030396 0.000000 0.000000 0.000000
# 4 0.000000 0.000000 0.000000 0.083171 0.000000 0.000000
# 5 0.000000 0.000000 0.000000 0.000000 0.083179 0.000000
# 6 0.000000 0.000000 0.000000 0.000000 0.000000 0.061797
#
#
# Mechanical properties :
#
#
# Convention : Reuss Voigt Hill
#
# Bulk Modulus (GPa) = 9.51941 10.81306 10.16624
# Shear Modulus (GPa) = 7.18867 10.94233 9.06550
#
# Velocity S-wave (km/s) = 2.27647 2.80862 2.55643
# Velocity P-wave (km/s) = 3.71111 4.27937 4.00533
#
# Compressibility (1/GPa) = 0.10504847
#
# Stress axis : x y z
#
# Youngs Moduli (GPa) = 8.39160 8.39283 32.89933
#
# Poissons Ratio (x) = 0.55696 0.25436
# Poissons Ratio (y) = 0.55688 0.25461
# Poissons Ratio (z) = 0.06488 0.06495
#
# Static dielectric constant tensor:
#      x y z
#    x 1.447040 0.000000 0.000000 
#    y 0.000000 1.447040 0.000000 
#    z 0.000000 0.000000 1.532630 
# 
# From -- ./inp_files/1857.got.cif
#   From: 2010.05.17/outbox.cif.g08.bks.cpg/sg138_1_cif.got.tgz:1857.got - 2010.05.20 13:08:53.
