data_PCOD9570290
_publ_section_title
;
Structure prediction by ZEFSAII (Michael W. Deem and Ramdas Pophale) SiO2 
 PCOD9570290
Probable space group: P 42/N M C
;
_chemical_formula_sum "Si O2"
_cell_formula_units_Z 48
_cell_length_a 22.138706
_cell_length_b 22.138706
_cell_length_c 4.716845
_cell_angle_alpha 90.000000
_cell_angle_beta 90.000000
_cell_angle_gamma 90.000000
_cell_volume 2311.830936
_symmetry_space_group_name_H-M "P 42/N M C"
_symmetry_group_IT_number 137
_space_group.IT_coordinate_system_code '2'
_symmetry_cell_setting 'tetragonal'
loop_
_space_group_symop_operation_xyz
x,y,z
1/2-y,x,1/2+z
1/2-x,1/2-y,z
y,1/2-x,1/2+z
1/2+x,-y,-z
-x,1/2+y,-z
1/2+y,1/2+x,1/2-z
-y,-x,1/2-z
-x,-y,-z
1/2+y,-x,1/2-z
1/2+x,1/2+y,-z
-y,1/2+x,1/2-z
1/2-x,y,z
x,1/2-y,z
1/2-y,1/2-x,1/2+z
y,x,1/2+z
loop_
_atom_site_type_symbol
_atom_site_label
_atom_site_fract_x
_atom_site_fract_y
_atom_site_fract_z
Si Si1 0.625989 0.068061 0.505144
Si Si2 0.750000 0.948415 0.721309
Si Si3 0.939536 0.882692 0.313782
Si Si4 0.032993 0.750000 0.733062
O O1 0.578890 0.078890 0.250000
O O2 0.689946 0.065651 0.342742
O O3 0.615806 0.006411 0.682104
O O4 0.618446 0.118446 0.750000
O O5 0.686284 0.917532 0.780328
O O6 0.750000 0.968876 0.396620
O O7 0.750000 0.011343 0.907690
O O8 0.930799 0.900336 0.638108
#
# Coordination Sequence:
#
# PCOD9570290 Si02
#       4
#    16   8  16   8
#     4  11  22  36  57  84 114 148 186 233 286 341
#     4  10  20  38  58  77 108 153 196 222 261 340
#     4  11  22  36  57  84 114 148 184 231 286 338
#     4  10  20  38  58  77 108 153 196 222 261 338
#
# _framework density 20.762767
#
# number of rings (size 3 to 8) (size 9 to 14) (size 15 to 20)
#    0.000    1.333    0.000   10.000    0.000    4.000 
#    0.000    0.000    0.000    6.000    0.000    0.000 
#    0.000    0.000    0.000    0.000    0.000    0.000 
#
# Total GULP energy -267892.847858 kJ/mol
# GULP energy per Si atom -5581.100997 kJ/mol
# Density = 2.071551 g / cm^3
# Si number density = 20.762767 Si / 1000 Ang^3
#
#
#
# Elastic Constant Matrix: (Units=GPa)
#
#
# Indices 1 2 3 4 5 6 
#
# 1 71.8608 27.9283 14.5633 0.0000 0.0000 0.0000
# 2 27.9283 71.8608 14.5633 0.0000 0.0000 0.0000
# 3 14.5633 14.5633 93.7059 0.0000 0.0000 0.0000
# 4 0.0000 0.0000 0.0000 35.4574 0.0000 0.0000
# 5 0.0000 0.0000 0.0000 0.0000 35.4574 0.0000
# 6 0.0000 0.0000 0.0000 0.0000 0.0000 1.9299
#
#
#
# Elastic Compliance Matrix: (Units=1/GPa)
#
#
# Indices 1 2 3 4 5 6 
#
# 1 0.016630 -0.006132 -0.001631 0.000000 0.000000 0.000000
# 2 -0.006132 0.016630 -0.001631 0.000000 0.000000 0.000000
# 3 -0.001631 -0.001631 0.011179 0.000000 0.000000 0.000000
# 4 0.000000 0.000000 0.000000 0.028203 0.000000 0.000000
# 5 0.000000 0.000000 0.000000 0.000000 0.028203 0.000000
# 6 0.000000 0.000000 0.000000 0.000000 0.000000 0.518167
#
#
# Mechanical properties :
#
#
# Convention : Reuss Voigt Hill
#
# Bulk Modulus (GPa) = 38.98989 39.05969 39.02479
# Shear Modulus (GPa) = 7.73574 26.59380 17.16477
#
# Velocity S-wave (km/s) = 1.93232 3.58277 2.87837
# Velocity P-wave (km/s) = 4.87832 5.99735 5.46654
#
# Compressibility (1/GPa) = 0.02564767
#
# Stress axis : x y z
#
# Youngs Moduli (GPa) = 60.13324 60.13324 89.45519
#
# Poissons Ratio (x) = 0.36876 0.14594
# Poissons Ratio (y) = 0.36876 0.14594
# Poissons Ratio (z) = 0.09810 0.09810
#
# Static dielectric constant tensor:
#      x y z
#    x 1.774750 0.000000 0.000000 
#    y 0.000000 1.774750 0.000000 
#    z 0.000000 0.000000 1.723100 
# 
# From -- ./inp_files/310.got.cif
#   From: 2010.05.17/outbox.cif.g08.bks.cpg/sg137_1_cif.got.tgz:310.got - 2010.05.20 13:01:12.
