data_PCOD9570440
_publ_section_title
;
Structure prediction by ZEFSAII (Michael W. Deem and Ramdas Pophale) SiO2 
 PCOD9570440
Probable space group: P 42/N M C
;
_chemical_formula_sum "Si O2"
_cell_formula_units_Z 84
_cell_length_a 12.124893
_cell_length_b 12.124893
_cell_length_c 31.282407
_cell_angle_alpha 90.000000
_cell_angle_beta 90.000000
_cell_angle_gamma 90.000000
_cell_volume 4598.921447
_symmetry_space_group_name_H-M "P 42/N M C"
_symmetry_group_IT_number 137
_space_group.IT_coordinate_system_code '2'
_symmetry_cell_setting 'tetragonal'
loop_
_space_group_symop_operation_xyz
x,y,z
1/2-y,x,1/2+z
1/2-x,1/2-y,z
y,1/2-x,1/2+z
1/2+x,-y,-z
-x,1/2+y,-z
1/2+y,1/2+x,1/2-z
-y,-x,1/2-z
-x,-y,-z
1/2+y,-x,1/2-z
1/2+x,1/2+y,-z
-y,1/2+x,1/2-z
1/2-x,y,z
x,1/2-y,z
1/2-y,1/2-x,1/2+z
y,x,1/2+z
loop_
_atom_site_type_symbol
_atom_site_label
_atom_site_fract_x
_atom_site_fract_y
_atom_site_fract_z
Si Si1 0.989661 0.031565 0.297061
Si Si2 0.880578 0.250000 0.079388
Si Si3 0.250000 0.378646 0.924822
Si Si4 0.985509 0.035582 0.451350
Si Si5 0.518591 0.628815 0.375953
Si Si6 0.619403 0.250000 0.182479
Si Si7 0.878835 0.750000 0.677995
Si Si8 0.750000 0.750000 0.376624
O O1 0.013515 0.986486 0.250000
O O2 0.860630 0.065327 0.299376
O O3 0.060373 0.141193 0.305359
O O4 0.008556 0.944557 0.334830
O O5 0.750000 0.250000 0.070659
O O6 0.931779 0.140070 0.059597
O O7 0.892049 0.250000 0.130907
O O8 0.250000 0.250000 0.936634
O O9 0.141512 0.439155 0.941862
O O10 0.250000 0.387894 0.873428
O O11 0.000000 0.000000 0.500000
O O12 0.013367 0.937870 0.418283
O O13 0.465438 0.750000 0.374312
O O14 0.650397 0.655804 0.376548
O O15 0.750000 0.250000 0.192060
O O16 0.750000 0.750000 0.689857
#
# Coordination Sequence:
#
# PCOD9570440 Si02
#       8
#    16   8   8  16  16   8   8   4
#     4  12  23  39  62  97 136 171 211 267 330 393
#     4  11  21  40  67  91 128 172 204 263 336 396
#     4  11  24  45  69  95 128 173 218 277 335 392
#     4  12  25  42  67  96 131 170 221 271 329 399
#     4  10  22  41  61  92 132 169 215 267 322 388
#     4  11  20  34  59  93 129 164 205 254 330 398
#     4  11  23  43  67  91 129 179 221 259 325 391
#     4   8  20  40  68  94 126 174 212 262 350 388
#
# _framework density 18.265153000000002
#
# number of rings (size 3 to 8) (size 9 to 14) (size 15 to 20)
#    0.571    0.381    5.714    1.714    2.667    0.762 
#    3.429    0.000    0.000    1.714    0.000    1.333 
#    0.000    0.000    0.000    0.000    0.000    0.000 
#
# Total GULP energy -468195.673902 kJ/mol
# GULP energy per Si atom -5573.758023 kJ/mol
# Density = 1.822358 g / cm^3
# Si number density = 18.265153 Si / 1000 Ang^3
#
#
#
# Elastic Constant Matrix: (Units=GPa)
#
#
# Indices 1 2 3 4 5 6 
#
# 1 118.7177 39.7833 50.9354 0.0000 0.0000 0.0000
# 2 39.7833 118.7182 50.9357 0.0000 0.0000 0.0000
# 3 50.9354 50.9357 142.8171 0.0000 0.0000 0.0000
# 4 0.0000 0.0000 0.0000 38.0361 0.0000 0.0000
# 5 0.0000 0.0000 0.0000 0.0000 38.0361 0.0000
# 6 0.0000 0.0000 0.0000 0.0000 0.0000 5.7885
#
#
#
# Elastic Compliance Matrix: (Units=1/GPa)
#
#
# Indices 1 2 3 4 5 6 
#
# 1 0.010427 -0.002242 -0.002919 0.000000 0.000000 0.000000
# 2 -0.002242 0.010427 -0.002919 0.000000 0.000000 0.000000
# 3 -0.002919 -0.002919 0.009084 0.000000 0.000000 0.000000
# 4 0.000000 0.000000 0.000000 0.026291 0.000000 0.000000
# 5 0.000000 0.000000 0.000000 0.000000 0.026291 0.000000
# 6 0.000000 0.000000 0.000000 0.000000 0.000000 0.172756
#
#
# Mechanical properties :
#
#
# Convention : Reuss Voigt Hill
#
# Bulk Modulus (GPa) = 72.58036 73.72909 73.15472
# Shear Modulus (GPa) = 18.11403 32.27872 25.19638
#
# Velocity S-wave (km/s) = 3.15259 4.20840 3.71816
# Velocity P-wave (km/s) = 7.28526 8.00424 7.65320
#
# Compressibility (1/GPa) = 0.01377783
#
# Stress axis : x y z
#
# Youngs Moduli (GPa) = 95.90433 95.90464 110.08001
#
# Poissons Ratio (x) = 0.21499 0.32136
# Poissons Ratio (y) = 0.21498 0.32136
# Poissons Ratio (z) = 0.27997 0.27998
#
# Static dielectric constant tensor:
#      x y z
#    x 1.624200 0.000000 0.000000 
#    y 0.000000 1.624200 0.000000 
#    z 0.000000 0.000000 1.619200 
# 
# From -- ./inp_files/10540.got.cif
#   From: 2010.05.17/outbox.cif.g08.bks.cpg/sg137_6_cif.got.tgz:10540.got - 2010.05.20 13:01:12.
