data_PCOD9570146
_publ_section_title
;
Structure prediction by ZEFSAII (Michael W. Deem and Ramdas Pophale) SiO2 
 PCOD9570146
Probable space group: P 42/N M C
;
_chemical_formula_sum "Si O2"
_cell_formula_units_Z 92
_cell_length_a 25.364448
_cell_length_b 25.364448
_cell_length_c 7.688879
_cell_angle_alpha 90.000000
_cell_angle_beta 90.000000
_cell_angle_gamma 90.000000
_cell_volume 4946.680459
_symmetry_space_group_name_H-M "P 42/N M C"
_symmetry_group_IT_number 137
_space_group.IT_coordinate_system_code '2'
_symmetry_cell_setting 'tetragonal'
loop_
_space_group_symop_operation_xyz
x,y,z
1/2-y,x,1/2+z
1/2-x,1/2-y,z
y,1/2-x,1/2+z
1/2+x,-y,-z
-x,1/2+y,-z
1/2+y,1/2+x,1/2-z
-y,-x,1/2-z
-x,-y,-z
1/2+y,-x,1/2-z
1/2+x,1/2+y,-z
-y,1/2+x,1/2-z
1/2-x,y,z
x,1/2-y,z
1/2-y,1/2-x,1/2+z
y,x,1/2+z
loop_
_atom_site_type_symbol
_atom_site_label
_atom_site_fract_x
_atom_site_fract_y
_atom_site_fract_z
Si Si1 0.895484 0.312470 0.810115
Si Si2 0.313505 0.985553 0.018534
Si Si3 0.689295 0.916530 0.488691
Si Si4 0.687283 0.463533 0.372786
Si Si5 0.659817 0.598108 0.885771
Si Si6 0.750000 0.847233 0.067513
Si Si7 0.250000 0.250000 0.185673
O O1 0.845448 0.345448 0.750000
O O2 0.884040 0.250000 0.824063
O O3 0.941038 0.318427 0.664659
O O4 0.919669 0.332942 0.993134
O O5 0.250000 0.999812 0.013404
O O6 0.330123 0.965619 0.827377
O O7 0.347702 0.036716 0.069941
O O8 0.750000 0.904292 0.432108
O O9 0.641322 0.886249 0.395584
O O10 0.684950 0.902179 0.693078
O O11 0.680864 0.978560 0.457142
O O12 0.750000 0.454520 0.364592
O O13 0.699729 0.617373 0.035247
O O14 0.750000 0.804628 0.912951
O O15 0.750000 0.806113 0.221293
#
# Coordination Sequence:
#
# PCOD9570146 Si02
#       7
#    16  16  16  16  16   8   4
#     4  10  21  39  66  96 129 157 186 229 280 349
#     4  10  19  37  59  84 114 156 202 244 286 342
#     4  11  22  36  50  78 111 151 204 263 308 357
#     4   9  19  36  59  85 116 152 200 240 282 341
#     4  12  21  34  52  74 108 152 203 259 306 351
#     4  11  22  34  44  64 104 152 197 248 312 364
#     4  10  24  34  40  62 108 154 196 246 320 390
#
# _framework density 18.598331000000002
#
# number of rings (size 3 to 8) (size 9 to 14) (size 15 to 20)
#    0.000    1.565    3.478    2.087    2.435    0.870 
#    1.565    0.000    0.000    1.043    0.000    4.870 
#    0.000    0.000    0.000    0.000    0.000    0.000 
#
# Total GULP energy -513232.794528 kJ/mol
# GULP energy per Si atom -5578.617332 kJ/mol
# Density = 1.855600 g / cm^3
# Si number density = 18.598331 Si / 1000 Ang^3
#
#
#
# Elastic Constant Matrix: (Units=GPa)
#
#
# Indices 1 2 3 4 5 6 
#
# 1 50.8296 24.9917 14.1739 0.0000 0.0000 0.0000
# 2 24.9917 50.8296 14.1739 0.0000 0.0000 0.0000
# 3 14.1739 14.1739 72.8943 0.0000 0.0000 0.0000
# 4 0.0000 0.0000 0.0000 13.6394 0.0000 0.0000
# 5 0.0000 0.0000 0.0000 0.0000 13.6394 0.0000
# 6 0.0000 0.0000 0.0000 0.0000 0.0000 14.0975
#
#
#
# Elastic Compliance Matrix: (Units=1/GPa)
#
#
# Indices 1 2 3 4 5 6 
#
# 1 0.026463 -0.012240 -0.002766 0.000000 0.000000 0.000000
# 2 -0.012240 0.026463 -0.002766 0.000000 0.000000 0.000000
# 3 -0.002766 -0.002766 0.014794 0.000000 0.000000 0.000000
# 4 0.000000 0.000000 0.000000 0.073317 0.000000 0.000000
# 5 0.000000 0.000000 0.000000 0.000000 0.073317 0.000000
# 6 0.000000 0.000000 0.000000 0.000000 0.000000 0.070935
#
#
# Mechanical properties :
#
#
# Convention : Reuss Voigt Hill
#
# Bulk Modulus (GPa) = 31.07763 31.24808 31.16286
# Shear Modulus (GPa) = 15.08038 16.35618 15.71828
#
# Velocity S-wave (km/s) = 2.85063 2.96876 2.91029
# Velocity P-wave (km/s) = 5.25175 5.34691 5.29954
#
# Compressibility (1/GPa) = 0.03217748
#
# Stress axis : x y z
#
# Youngs Moduli (GPa) = 37.78875 37.78875 67.59497
#
# Poissons Ratio (x) = 0.46254 0.18694
# Poissons Ratio (y) = 0.46254 0.18694
# Poissons Ratio (z) = 0.10451 0.10451
#
# Static dielectric constant tensor:
#      x y z
#    x 1.627150 0.000000 0.000000 
#    y 0.000000 1.627150 0.000000 
#    z 0.000000 0.000000 1.732300 
# 
# From -- ./inp_files/2204.got.cif
#   From: 2010.05.17/outbox.cif.g08.bks.cpg/sg137_2_cif.got.tgz:2204.got - 2010.05.20 13:01:12.
