data_PCOD9570841
_publ_section_title
;
Structure prediction by ZEFSAII (Michael W. Deem and Ramdas Pophale) SiO2 
 PCOD9570841
Probable space group: P 42/N C M
;
_chemical_formula_sum "Si O2"
_cell_formula_units_Z 64
_cell_length_a 13.686351
_cell_length_b 13.686351
_cell_length_c 16.379844
_cell_angle_alpha 90.000000
_cell_angle_beta 90.000000
_cell_angle_gamma 90.000000
_cell_volume 3068.210195
_symmetry_space_group_name_H-M "P 42/N C M"
_symmetry_group_IT_number 138
_space_group.IT_coordinate_system_code '2'
_symmetry_cell_setting 'tetragonal'
loop_
_space_group_symop_operation_xyz
x,y,z
1/2-y,x,1/2+z
1/2-x,1/2-y,z
y,1/2-x,1/2+z
1/2+x,-y,1/2-z
-x,1/2+y,1/2-z
1/2+y,1/2+x,-z
-y,-x,-z
-x,-y,-z
1/2+y,-x,1/2-z
1/2+x,1/2+y,-z
-y,1/2+x,1/2-z
1/2-x,y,1/2+z
x,1/2-y,1/2+z
1/2-y,1/2-x,z
y,x,z
loop_
_atom_site_type_symbol
_atom_site_label
_atom_site_fract_x
_atom_site_fract_y
_atom_site_fract_z
Si Si1 0.833466 0.992386 0.675414
Si Si2 0.535509 0.126439 0.263060
Si Si3 0.967267 0.129808 0.079209
Si Si4 0.661189 0.998966 0.988138
O O1 0.738322 0.007891 0.729154
O O2 0.901534 0.088042 0.686835
O O3 0.805458 0.975768 0.581373
O O4 0.902340 0.902340 0.701934
O O5 0.600253 0.095497 0.341756
O O6 0.438131 0.061870 0.266188
O O7 0.909010 0.090991 0.000000
O O8 0.987606 0.243846 0.066655
O O9 0.067366 0.067366 0.083683
O O10 0.587489 0.912512 0.961071
O O11 0.595379 0.095379 0.000000
#
# Coordination Sequence:
#
# PCOD9570841 Si02
#       4
#    16  16  16  16
#     4  10  22  40  60  85 118 157 198 243 297 350
#     4  10  22  40  60  87 122 153 193 246 295 354
#     4  10  20  38  61  87 118 151 192 247 300 349
#     4  10  22  39  59  86 120 156 197 246 294 349
#
# _framework density 20.859067
#
# number of rings (size 3 to 8) (size 9 to 14) (size 15 to 20)
#    0.000    2.000    2.500    0.000    3.500    2.000 
#    0.000    2.500    0.000    4.500    0.000    0.000 
#    0.000    0.000    0.000    0.000    0.000    0.000 
#
# Total GULP energy -357678.556382 kJ/mol
# GULP energy per Si atom -5588.727443 kJ/mol
# Density = 2.081159 g / cm^3
# Si number density = 20.859067 Si / 1000 Ang^3
#
#
#
# Elastic Constant Matrix: (Units=GPa)
#
#
# Indices 1 2 3 4 5 6 
#
# 1 140.9577 46.5452 16.9286 0.0000 0.0000 0.0000
# 2 46.5452 140.9566 16.9280 0.0000 0.0000 0.0000
# 3 16.9286 16.9280 71.5378 0.0000 0.0000 0.0000
# 4 0.0000 0.0000 0.0000 25.2000 0.0000 0.0000
# 5 0.0000 0.0000 0.0000 0.0000 25.2001 0.0000
# 6 0.0000 0.0000 0.0000 0.0000 0.0000 7.1982
#
#
#
# Elastic Compliance Matrix: (Units=1/GPa)
#
#
# Indices 1 2 3 4 5 6 
#
# 1 0.008082 -0.002510 -0.001318 0.000000 0.000000 0.000000
# 2 -0.002510 0.008082 -0.001318 0.000000 0.000000 0.000000
# 3 -0.001318 -0.001318 0.014603 0.000000 0.000000 0.000000
# 4 0.000000 0.000000 0.000000 0.039683 0.000000 0.000000
# 5 0.000000 0.000000 0.000000 0.000000 0.039682 0.000000
# 6 0.000000 0.000000 0.000000 0.000000 0.000000 0.138924
#
#
# Mechanical properties :
#
#
# Convention : Reuss Voigt Hill
#
# Bulk Modulus (GPa) = 48.84784 57.13953 52.99368
# Shear Modulus (GPa) = 18.78480 29.72301 24.25390
#
# Velocity S-wave (km/s) = 3.00419 3.77894 3.41361
# Velocity P-wave (km/s) = 5.95839 6.81859 6.40295
#
# Compressibility (1/GPa) = 0.02047173
#
# Stress axis : x y z
#
# Youngs Moduli (GPa) = 123.73832 123.73758 68.48116
#
# Poissons Ratio (x) = 0.31062 0.09029
# Poissons Ratio (y) = 0.31062 0.09028
# Poissons Ratio (z) = 0.16314 0.16313
#
# Static dielectric constant tensor:
#      x y z
#    x 1.707860 0.000000 0.000000 
#    y 0.000000 1.707860 0.000000 
#    z 0.000000 0.000000 1.809440 
# 
# From -- ./inp_files/5856.got.cif
#   From: 2010.05.17/outbox.cif.g08.bks.cpg/sg138_3_cif.got.tgz:5856.got - 2010.05.20 13:08:53.
