data_PCOD9570733
_publ_section_title
;
Structure prediction by ZEFSAII (Michael W. Deem and Ramdas Pophale) SiO2 
 PCOD9570733
Probable space group: P 42/N C M
;
_chemical_formula_sum "Si O2"
_cell_formula_units_Z 40
_cell_length_a 11.856116
_cell_length_b 11.856116
_cell_length_c 11.371454
_cell_angle_alpha 90.000000
_cell_angle_beta 90.000000
_cell_angle_gamma 90.000000
_cell_volume 1598.456708
_symmetry_space_group_name_H-M "P 42/N C M"
_symmetry_group_IT_number 138
_space_group.IT_coordinate_system_code '2'
_symmetry_cell_setting 'tetragonal'
loop_
_space_group_symop_operation_xyz
x,y,z
1/2-y,x,1/2+z
1/2-x,1/2-y,z
y,1/2-x,1/2+z
1/2+x,-y,1/2-z
-x,1/2+y,1/2-z
1/2+y,1/2+x,-z
-y,-x,-z
-x,-y,-z
1/2+y,-x,1/2-z
1/2+x,1/2+y,-z
-y,1/2+x,1/2-z
1/2-x,y,1/2+z
x,1/2-y,1/2+z
1/2-y,1/2-x,z
y,x,z
loop_
_atom_site_type_symbol
_atom_site_label
_atom_site_fract_x
_atom_site_fract_y
_atom_site_fract_z
Si Si1 0.750000 0.250000 0.750000
Si Si2 0.927822 0.927822 0.730580
Si Si3 0.405716 0.405716 0.587198
Si Si4 0.250000 0.250000 0.257517
Si Si5 0.279999 0.566810 0.083503
O O1 0.845955 0.209186 0.662360
O O2 0.836533 0.836533 0.680133
O O3 0.004095 0.856627 0.821425
O O4 0.006618 0.006618 0.648871
O O5 0.331703 0.331703 0.680290
O O6 0.481707 0.309061 0.526203
O O7 0.361679 0.638322 0.000000
#
# Coordination Sequence:
#
# PCOD9570733 Si02
#       5
#     4   8   8   4  16
#     4  12  22  40  60  94 136 168 238 284 344 414
#     4  10  19  40  68  94 134 180 225 290 352 401
#     4  10  20  41  67  94 141 182 225 289 347 404
#     4   8  20  34  60 104 122 168 240 270 332 432
#     4  11  23  41  66  99 134 183 235 285 347 418
#
# _framework density 25.024139000000002
#
# number of rings (size 3 to 8) (size 9 to 14) (size 15 to 20)
#    0.000    1.600    4.000    1.200    0.000    0.000 
#    0.000    8.000    0.000    0.000    0.000    1.400 
#    0.000    0.000    0.000    0.000    0.000    0.000 
#
# Total GULP energy -223355.930774 kJ/mol
# GULP energy per Si atom -5583.898269 kJ/mol
# Density = 2.496718 g / cm^3
# Si number density = 25.024139 Si / 1000 Ang^3
#
#
#
# Elastic Constant Matrix: (Units=GPa)
#
#
# Indices 1 2 3 4 5 6 
#
# 1 156.9262 99.0179 59.1932 0.0000 0.0000 0.0000
# 2 99.0179 156.9263 59.1933 0.0000 0.0000 0.0000
# 3 59.1932 59.1933 71.7116 0.0000 0.0000 0.0000
# 4 0.0000 0.0000 0.0000 41.0545 0.0000 0.0000
# 5 0.0000 0.0000 0.0000 0.0000 41.0537 0.0000
# 6 0.0000 0.0000 0.0000 0.0000 0.0000 29.3396
#
#
#
# Elastic Compliance Matrix: (Units=1/GPa)
#
#
# Indices 1 2 3 4 5 6 
#
# 1 0.011794 -0.005474 -0.005217 0.000000 0.000000 0.000000
# 2 -0.005474 0.011794 -0.005217 0.000000 0.000000 0.000000
# 3 -0.005217 -0.005217 0.022557 0.000000 0.000000 0.000000
# 4 0.000000 0.000000 0.000000 0.024358 0.000000 0.000000
# 5 0.000000 0.000000 0.000000 0.000000 0.024358 0.000000
# 6 0.000000 0.000000 0.000000 0.000000 0.000000 0.034084
#
#
# Mechanical properties :
#
#
# Convention : Reuss Voigt Hill
#
# Bulk Modulus (GPa) = 69.78398 91.15255 80.46827
# Shear Modulus (GPa) = 30.20445 33.50019 31.85232
#
# Velocity S-wave (km/s) = 3.47798 3.66281 3.57159
# Velocity P-wave (km/s) = 6.63895 7.37518 7.01672
#
# Compressibility (1/GPa) = 0.01432994
#
# Stress axis : x y z
#
# Youngs Moduli (GPa) = 84.78598 84.78589 44.33187
#
# Poissons Ratio (x) = 0.46414 0.23127
# Poissons Ratio (y) = 0.46414 0.23128
# Poissons Ratio (z) = 0.44232 0.44232
#
# Static dielectric constant tensor:
#      x y z
#    x 2.027580 0.000000 0.000000 
#    y 0.000000 2.027580 0.000000 
#    z 0.000000 0.000000 1.974360 
# 
# From -- ./inp_files/3687.got.cif
#   From: 2010.05.17/outbox.cif.g08.bks.cpg/sg138_2_cif.got.tgz:3687.got - 2010.05.20 13:08:53.
