data_PCOD9570824
_publ_section_title
;
Structure prediction by ZEFSAII (Michael W. Deem and Ramdas Pophale) SiO2 
 PCOD9570824
Probable space group: P 42/N C M
;
_chemical_formula_sum "Si O2"
_cell_formula_units_Z 80
_cell_length_a 16.268863
_cell_length_b 16.268863
_cell_length_c 13.735256
_cell_angle_alpha 90.000000
_cell_angle_beta 90.000000
_cell_angle_gamma 90.000000
_cell_volume 3635.391289
_symmetry_space_group_name_H-M "P 42/N C M"
_symmetry_group_IT_number 138
_space_group.IT_coordinate_system_code '2'
_symmetry_cell_setting 'tetragonal'
loop_
_space_group_symop_operation_xyz
x,y,z
1/2-y,x,1/2+z
1/2-x,1/2-y,z
y,1/2-x,1/2+z
1/2+x,-y,1/2-z
-x,1/2+y,1/2-z
1/2+y,1/2+x,-z
-y,-x,-z
-x,-y,-z
1/2+y,-x,1/2-z
1/2+x,1/2+y,-z
-y,1/2+x,1/2-z
1/2-x,y,1/2+z
x,1/2-y,1/2+z
1/2-y,1/2-x,z
y,x,z
loop_
_atom_site_type_symbol
_atom_site_label
_atom_site_fract_x
_atom_site_fract_y
_atom_site_fract_z
Si Si1 0.317209 0.317209 0.372112
Si Si2 0.869032 0.192566 0.282755
Si Si3 0.505939 0.737473 0.837891
Si Si4 0.552538 0.810045 0.636556
Si Si5 0.182406 0.182406 0.137477
Si Si6 0.265348 0.900732 0.478416
O O1 0.250000 0.250000 0.402411
O O2 0.276820 0.404664 0.396899
O O3 0.317131 0.317131 0.254997
O O4 0.788293 0.147190 0.246609
O O5 0.879731 0.196380 0.398405
O O6 0.951818 0.171155 0.224162
O O7 0.533638 0.800013 0.752286
O O8 0.589305 0.705103 0.887149
O O9 0.445738 0.764239 0.924219
O O10 0.618128 0.881873 0.622634
O O11 0.469360 0.820469 0.577005
O O12 0.250000 0.250000 0.107651
O O13 0.320897 0.820897 0.500000
#
# Coordination Sequence:
#
# PCOD9570824 Si02
#       6
#     8  16  16  16   8  16
#     4   7  12  30  54  77 107 149 203 240 279 343
#     4  10  21  40  64  88 122 165 210 264 327 381
#     4  10  20  37  58  90 127 158 208 264 311 369
#     4   9  19  36  58  85 122 166 203 253 312 370
#     4   9  18  36  63  87 123 169 206 246 304 371
#     4  11  22  37  57  91 124 157 208 263 319 379
#
# _framework density 22.005883999999998
#
# number of rings (size 3 to 8) (size 9 to 14) (size 15 to 20)
#    0.000    2.400    2.000    1.800    1.400    1.200 
#    3.600    0.000    2.200    0.000    0.000   12.600 
#    0.000    0.000    0.000    0.000    0.000    0.000 
#
# Total GULP energy -446157.748094 kJ/mol
# GULP energy per Si atom -5576.971851 kJ/mol
# Density = 2.195580 g / cm^3
# Si number density = 22.005884 Si / 1000 Ang^3
#
#
#
# Elastic Constant Matrix: (Units=GPa)
#
#
# Indices 1 2 3 4 5 6 
#
# 1 79.9477 48.0589 22.4282 0.0000 0.0000 0.0000
# 2 48.0589 79.9477 22.4282 0.0000 0.0000 0.0000
# 3 22.4282 22.4282 130.6991 0.0000 0.0000 0.0000
# 4 0.0000 0.0000 0.0000 18.1157 0.0000 0.0000
# 5 0.0000 0.0000 0.0000 0.0000 18.1157 0.0000
# 6 0.0000 0.0000 0.0000 0.0000 0.0000 20.4553
#
#
#
# Elastic Compliance Matrix: (Units=1/GPa)
#
#
# Indices 1 2 3 4 5 6 
#
# 1 0.019835 -0.011524 -0.001426 0.000000 0.000000 0.000000
# 2 -0.011524 0.019835 -0.001426 0.000000 0.000000 0.000000
# 3 -0.001426 -0.001426 0.008141 0.000000 0.000000 0.000000
# 4 0.000000 0.000000 0.000000 0.055201 0.000000 0.000000
# 5 0.000000 0.000000 0.000000 0.000000 0.055201 0.000000
# 6 0.000000 0.000000 0.000000 0.000000 0.000000 0.048887
#
#
# Mechanical properties :
#
#
# Convention : Reuss Voigt Hill
#
# Bulk Modulus (GPa) = 52.46816 52.93608 52.70212
# Shear Modulus (GPa) = 20.64359 24.51594 22.57977
#
# Velocity S-wave (km/s) = 3.06616 3.34138 3.20672
# Velocity P-wave (km/s) = 6.03570 6.24452 6.14100
#
# Compressibility (1/GPa) = 0.01905918
#
# Stress axis : x y z
#
# Youngs Moduli (GPa) = 50.41481 50.41481 122.83975
#
# Poissons Ratio (x) = 0.58096 0.17521
# Poissons Ratio (y) = 0.58096 0.17521
# Poissons Ratio (z) = 0.07191 0.07191
#
# Static dielectric constant tensor:
#      x y z
#    x 1.844450 0.000000 0.000000 
#    y 0.000000 1.844450 0.000000 
#    z 0.000000 0.000000 1.884910 
# 
# From -- ./inp_files/4145.got.cif
#   From: 2010.05.17/outbox.cif.g08.bks.cpg/sg138_3_cif.got.tgz:4145.got - 2010.05.20 13:08:53.
