data_PCOD9570004
_publ_section_title
;
Structure prediction by ZEFSAII (Michael W. Deem and Ramdas Pophale) SiO2 
 PCOD9570004
Probable space group: P 42/N M C
;
_chemical_formula_sum "Si O2"
_cell_formula_units_Z 82
_cell_length_a 16.770089
_cell_length_b 16.770089
_cell_length_c 16.059503
_cell_angle_alpha 90.000000
_cell_angle_beta 90.000000
_cell_angle_gamma 90.000000
_cell_volume 4516.508540
_symmetry_space_group_name_H-M "P 42/N M C"
_symmetry_group_IT_number 137
_space_group.IT_coordinate_system_code '2'
_symmetry_cell_setting 'tetragonal'
loop_
_space_group_symop_operation_xyz
x,y,z
1/2-y,x,1/2+z
1/2-x,1/2-y,z
y,1/2-x,1/2+z
1/2+x,-y,-z
-x,1/2+y,-z
1/2+y,1/2+x,1/2-z
-y,-x,1/2-z
-x,-y,-z
1/2+y,-x,1/2-z
1/2+x,1/2+y,-z
-y,1/2+x,1/2-z
1/2-x,y,z
x,1/2-y,z
1/2-y,1/2-x,1/2+z
y,x,1/2+z
loop_
_atom_site_type_symbol
_atom_site_label
_atom_site_fract_x
_atom_site_fract_y
_atom_site_fract_z
Si Si1 0.418960 0.098076 0.468230
Si Si2 0.083449 0.155895 0.785205
Si Si3 0.750000 0.918606 0.225942
Si Si4 0.447967 0.921621 0.911465
Si Si5 0.250000 0.750000 0.750000
Si Si6 0.986640 0.013360 0.750000
Si Si7 0.750000 0.655164 0.039330
Si Si8 0.079185 0.750000 0.834285
O O1 0.369931 0.084302 0.382644
O O2 0.513005 0.113508 0.449412
O O3 0.373370 0.172010 0.508543
O O4 0.415582 0.020446 0.524294
O O5 0.079217 0.250000 0.776472
O O6 0.166664 0.122118 0.747378
O O7 0.009813 0.105713 0.749586
O O8 0.750000 0.897457 0.125956
O O9 0.750000 0.008636 0.263031
O O10 0.476082 0.968661 0.829185
O O11 0.426669 0.832112 0.886152
O O12 0.167165 0.750000 0.798155
O O13 0.750000 0.750000 0.058006
#
# Coordination Sequence:
#
# PCOD9570004 Si02
#       8
#    16  16   8  16   2   8   8   8
#     4   9  20  36  57  82 113 149 189 229 295 335
#     4  10  19  33  57  83 112 145 196 230 287 349
#     4  10  18  32  56  80 114 154 179 238 292 344
#     4  10  21  37  57  81 110 157 191 234 274 345
#     4  12  32  36  52  92 116 156 208 234 280 352
#     4  10  19  36  54  76 114 149 188 226 286 334
#     4  10  20  34  60  82 117 141 189 233 290 346
#     4  12  24  36  58  82 125 152 203 237 287 337
#
# _framework density 18.155618
#
# number of rings (size 3 to 8) (size 9 to 14) (size 15 to 20)
#    0.000    1.951    1.951    3.220    8.195    0.000 
#    1.756    0.000    0.000    0.293    0.000    0.000 
#    0.000    0.000    0.000    0.000    0.000    0.000 
#
# Total GULP energy -456535.221527 kJ/mol
# GULP energy per Si atom -5567.502702 kJ/mol
# Density = 1.811429 g / cm^3
# Si number density = 18.155618 Si / 1000 Ang^3
#
#
#
# Elastic Constant Matrix: (Units=GPa)
#
#
# Indices 1 2 3 4 5 6 
#
# 1 161.7385 67.7993 23.9759 0.0000 0.0000 0.0000
# 2 67.7993 161.7385 23.9759 0.0000 0.0000 0.0000
# 3 23.9759 23.9759 24.2058 0.0000 0.0000 0.0000
# 4 0.0000 0.0000 0.0000 26.8469 0.0000 0.0000
# 5 0.0000 0.0000 0.0000 0.0000 26.8469 0.0000
# 6 0.0000 0.0000 0.0000 0.0000 0.0000 23.0149
#
#
#
# Elastic Compliance Matrix: (Units=1/GPa)
#
#
# Indices 1 2 3 4 5 6 
#
# 1 0.008069 -0.002576 -0.005441 0.000000 0.000000 0.000000
# 2 -0.002576 0.008069 -0.005441 0.000000 0.000000 0.000000
# 3 -0.005441 -0.005441 0.052091 0.000000 0.000000 0.000000
# 4 0.000000 0.000000 0.000000 0.037248 0.000000 0.000000
# 5 0.000000 0.000000 0.000000 0.000000 0.037248 0.000000
# 6 0.000000 0.000000 0.000000 0.000000 0.000000 0.043450
#
#
# Mechanical properties :
#
#
# Convention : Reuss Voigt Hill
#
# Bulk Modulus (GPa) = 24.20520 64.35388 44.27954
# Shear Modulus (GPa) = 22.03966 30.80386 26.42176
#
# Velocity S-wave (km/s) = 3.48793 4.12352 3.81897
# Velocity P-wave (km/s) = 5.43892 7.62849 6.62479
#
# Compressibility (1/GPa) = 0.04131343
#
# Stress axis : x y z
#
# Youngs Moduli (GPa) = 123.92767 123.92767 19.19706
#
# Poissons Ratio (x) = 0.31923 0.10445
# Poissons Ratio (y) = 0.31923 0.10445
# Poissons Ratio (z) = 0.67430 0.67430
#
# Static dielectric constant tensor:
#      x y z
#    x 1.613680 0.000000 0.000000 
#    y 0.000000 1.613680 0.000000 
#    z 0.000000 0.000000 1.670590 
# 
# From -- ./inp_files/7977.got.cif
#   From: 2010.05.17/outbox.cif.g08.bks.cpg/sg137_4_cif.got.tgz:7977.got - 2010.05.20 13:01:12.
