data_PCOD9570181
_publ_section_title
;
Structure prediction by ZEFSAII (Michael W. Deem and Ramdas Pophale) SiO2 
 PCOD9570181
Probable space group: P 42/N M C
;
_chemical_formula_sum "Si O2"
_cell_formula_units_Z 88
_cell_length_a 18.091731
_cell_length_b 18.091731
_cell_length_c 12.084805
_cell_angle_alpha 90.000000
_cell_angle_beta 90.000000
_cell_angle_gamma 90.000000
_cell_volume 3955.486353
_symmetry_space_group_name_H-M "P 42/N M C"
_symmetry_group_IT_number 137
_space_group.IT_coordinate_system_code '2'
_symmetry_cell_setting 'tetragonal'
loop_
_space_group_symop_operation_xyz
x,y,z
1/2-y,x,1/2+z
1/2-x,1/2-y,z
y,1/2-x,1/2+z
1/2+x,-y,-z
-x,1/2+y,-z
1/2+y,1/2+x,1/2-z
-y,-x,1/2-z
-x,-y,-z
1/2+y,-x,1/2-z
1/2+x,1/2+y,-z
-y,1/2+x,1/2-z
1/2-x,y,z
x,1/2-y,z
1/2-y,1/2-x,1/2+z
y,x,1/2+z
loop_
_atom_site_type_symbol
_atom_site_label
_atom_site_fract_x
_atom_site_fract_y
_atom_site_fract_z
Si Si1 0.167546 0.979995 0.075869
Si Si2 0.607710 0.392291 0.250000
Si Si3 0.441248 0.328943 0.963555
Si Si4 0.132217 0.051277 0.843077
Si Si5 0.864269 0.838637 0.336776
Si Si6 0.891544 0.167983 0.015716
O O1 0.250000 0.961868 0.111659
O O2 0.126935 0.902055 0.061485
O O3 0.169405 0.018108 0.953495
O O4 0.141939 0.047568 0.153139
O O5 0.618611 0.479688 0.230775
O O6 0.634789 0.351460 0.139571
O O7 0.435413 0.250000 0.901093
O O8 0.436760 0.403577 0.893270
O O9 0.375139 0.331969 0.052149
O O10 0.519848 0.329021 0.022179
O O11 0.166774 0.116020 0.767763
O O12 0.854501 0.750000 0.334393
O O13 0.865724 0.250000 0.980918
#
# Coordination Sequence:
#
# PCOD9570181 Si02
#       6
#    16   8  16  16  16  16
#     4   9  21  37  55  82 114 146 185 231 277 331
#     4  10  20  32  56  87 106 144 187 226 272 326
#     4  10  21  36  54  80 112 143 185 230 273 333
#     4  10  20  33  57  81 109 142 184 227 278 328
#     4  10  20  36  57  81 110 143 182 231 282 332
#     4  10  21  37  56  80 114 150 184 227 278 327
#
# _framework density 22.247578000000001
#
# number of rings (size 3 to 8) (size 9 to 14) (size 15 to 20)
#    0.000    2.182    1.818    0.545    2.545    6.545 
#    0.000    0.000    0.000    3.273    0.000    0.000 
#    0.000    5.818    0.000    0.000    0.000    0.000 
#
# Total GULP energy -490165.509565 kJ/mol
# GULP energy per Si atom -5570.062609 kJ/mol
# Density = 2.219694 g / cm^3
# Si number density = 22.247578 Si / 1000 Ang^3
#
#
#
# Elastic Constant Matrix: (Units=GPa)
#
#
# Indices 1 2 3 4 5 6 
#
# 1 102.4452 38.2302 4.2546 0.0000 0.0000 0.0000
# 2 38.2302 102.4459 4.2546 0.0000 0.0000 0.0000
# 3 4.2546 4.2546 37.8431 0.0000 0.0000 0.0000
# 4 0.0000 0.0000 0.0000 8.8069 0.0000 0.0000
# 5 0.0000 0.0000 0.0000 0.0000 8.8067 0.0000
# 6 0.0000 0.0000 0.0000 0.0000 0.0000 20.6447
#
#
#
# Elastic Compliance Matrix: (Units=1/GPa)
#
#
# Indices 1 2 3 4 5 6 
#
# 1 0.011365 -0.004208 -0.000805 0.000000 0.000000 0.000000
# 2 -0.004208 0.011365 -0.000805 0.000000 0.000000 0.000000
# 3 -0.000805 -0.000805 0.026606 0.000000 0.000000 0.000000
# 4 0.000000 0.000000 0.000000 0.113547 0.000000 0.000000
# 5 0.000000 0.000000 0.000000 0.000000 0.113550 0.000000
# 6 0.000000 0.000000 0.000000 0.000000 0.000000 0.048439
#
#
# Mechanical properties :
#
#
# Convention : Reuss Voigt Hill
#
# Bulk Modulus (GPa) = 26.52409 37.35701 31.94055
# Shear Modulus (GPa) = 14.32369 20.71798 17.52083
#
# Velocity S-wave (km/s) = 2.54014 3.05494 2.80936
# Velocity P-wave (km/s) = 4.53334 5.41032 4.99113
#
# Compressibility (1/GPa) = 0.03770158
#
# Stress axis : x y z
#
# Youngs Moduli (GPa) = 87.98977 87.99038 37.58575
#
# Poissons Ratio (x) = 0.37024 0.03024
# Poissons Ratio (y) = 0.37023 0.03024
# Poissons Ratio (z) = 0.07080 0.07080
#
# Static dielectric constant tensor:
#      x y z
#    x 1.834740 0.000000 0.000000 
#    y 0.000000 1.834740 0.000000 
#    z 0.000000 0.000000 1.861900 
# 
# From -- ./inp_files/5107.got.cif
#   From: 2010.05.17/outbox.cif.g08.bks.cpg/sg137_3_cif.got.tgz:5107.got - 2010.05.20 13:01:12.
