data_PCOD9570906
_publ_section_title
;
Structure prediction by ZEFSAII (Michael W. Deem and Ramdas Pophale) SiO2 
 PCOD9570906
Probable space group: P 42/N C M
;
_chemical_formula_sum "Si O2"
_cell_formula_units_Z 64
_cell_length_a 12.800622
_cell_length_b 12.800622
_cell_length_c 23.156467
_cell_angle_alpha 90.000000
_cell_angle_beta 90.000000
_cell_angle_gamma 90.000000
_cell_volume 3794.324287
_symmetry_space_group_name_H-M "P 42/N C M"
_symmetry_group_IT_number 138
_space_group.IT_coordinate_system_code '2'
_symmetry_cell_setting 'tetragonal'
loop_
_space_group_symop_operation_xyz
x,y,z
1/2-y,x,1/2+z
1/2-x,1/2-y,z
y,1/2-x,1/2+z
1/2+x,-y,1/2-z
-x,1/2+y,1/2-z
1/2+y,1/2+x,-z
-y,-x,-z
-x,-y,-z
1/2+y,-x,1/2-z
1/2+x,1/2+y,-z
-y,1/2+x,1/2-z
1/2-x,y,1/2+z
x,1/2-y,1/2+z
1/2-y,1/2-x,z
y,x,z
loop_
_atom_site_type_symbol
_atom_site_label
_atom_site_fract_x
_atom_site_fract_y
_atom_site_fract_z
Si Si1 0.056984 0.614245 0.282190
Si Si2 0.749022 0.579017 0.868171
Si Si3 0.602706 0.073088 0.934216
Si Si4 0.626187 0.269114 0.332998
O O1 0.099931 0.661708 0.222942
O O2 0.154362 0.580287 0.321854
O O3 0.981731 0.518270 0.269741
O O4 0.989450 0.701246 0.316417
O O5 0.842512 0.657489 0.849727
O O6 0.654821 0.654821 0.889336
O O7 0.799859 0.499412 0.914048
O O8 0.593839 0.168552 0.889774
O O9 0.501130 0.998871 0.929749
O O10 0.610589 0.110589 0.000000
O O11 0.750000 0.250000 0.335047
#
# Coordination Sequence:
#
# PCOD9570906 Si02
#       4
#    16  16  16  16
#     4  11  21  34  55  82 112 145 180 224 281 337
#     4   9  18  34  56  82 112 147 186 227 276 336
#     4  10  21  37  58  82 108 148 194 230 273 329
#     4  12  20  36  54  81 113 143 179 225 277 327
#
# _framework density 16.867298999999999
#
# number of rings (size 3 to 8) (size 9 to 14) (size 15 to 20)
#    0.000    1.500    5.000    0.750    0.000    3.500 
#    0.000    1.250    0.000    6.750    0.000    0.000 
#    0.000    0.000    0.000    0.000    0.000    0.000 
#
# Total GULP energy -357046.992665 kJ/mol
# GULP energy per Si atom -5578.859260 kJ/mol
# Density = 1.682891 g / cm^3
# Si number density = 16.867299 Si / 1000 Ang^3
#
#
#
# Elastic Constant Matrix: (Units=GPa)
#
#
# Indices 1 2 3 4 5 6 
#
# 1 81.3891 21.3002 49.7891 0.0000 0.0000 0.0000
# 2 21.3002 81.3891 49.7891 0.0000 0.0000 0.0000
# 3 49.7891 49.7891 128.3739 0.0000 0.0000 0.0000
# 4 0.0000 0.0000 0.0000 24.0359 0.0000 0.0000
# 5 0.0000 0.0000 0.0000 0.0000 24.0359 0.0000
# 6 0.0000 0.0000 0.0000 0.0000 0.0000 25.1749
#
#
#
# Elastic Compliance Matrix: (Units=1/GPa)
#
#
# Indices 1 2 3 4 5 6 
#
# 1 0.016125 -0.000517 -0.006054 0.000000 0.000000 0.000000
# 2 -0.000517 0.016125 -0.006054 0.000000 0.000000 0.000000
# 3 -0.006054 -0.006054 0.012485 0.000000 0.000000 0.000000
# 4 0.000000 0.000000 0.000000 0.041604 0.000000 0.000000
# 5 0.000000 0.000000 0.000000 0.000000 0.041604 0.000000
# 6 0.000000 0.000000 0.000000 0.000000 0.000000 0.039722
#
#
# Mechanical properties :
#
#
# Convention : Reuss Voigt Hill
#
# Bulk Modulus (GPa) = 51.31442 59.21211 55.26327
# Shear Modulus (GPa) = 25.07388 26.00092 25.53740
#
# Velocity S-wave (km/s) = 3.85975 3.93045 3.89526
# Velocity P-wave (km/s) = 7.09591 7.46852 7.28460
#
# Compressibility (1/GPa) = 0.01948770
#
# Stress axis : x y z
#
# Youngs Moduli (GPa) = 62.01482 62.01482 80.09312
#
# Poissons Ratio (x) = 0.03205 0.48485
# Poissons Ratio (y) = 0.03205 0.48485
# Poissons Ratio (z) = 0.37541 0.37541
#
# Static dielectric constant tensor:
#      x y z
#    x 1.587160 0.000000 0.000000 
#    y 0.000000 1.587160 0.000000 
#    z 0.000000 0.000000 1.536130 
# 
# From -- ./inp_files/5838.got.cif
#   From: 2010.05.17/outbox.cif.g08.bks.cpg/sg138_3_cif.got.tgz:5838.got - 2010.05.20 13:08:53.
