data_PCOD9570753
_publ_section_title
;
Structure prediction by ZEFSAII (Michael W. Deem and Ramdas Pophale) SiO2 
 PCOD9570753
Probable space group: P 42/N C M
;
_chemical_formula_sum "Si O2"
_cell_formula_units_Z 80
_cell_length_a 12.095617
_cell_length_b 12.095617
_cell_length_c 27.957632
_cell_angle_alpha 90.000000
_cell_angle_beta 90.000000
_cell_angle_gamma 90.000000
_cell_volume 4090.312011
_symmetry_space_group_name_H-M "P 42/N C M"
_symmetry_group_IT_number 138
_space_group.IT_coordinate_system_code '2'
_symmetry_cell_setting 'tetragonal'
loop_
_space_group_symop_operation_xyz
x,y,z
1/2-y,x,1/2+z
1/2-x,1/2-y,z
y,1/2-x,1/2+z
1/2+x,-y,1/2-z
-x,1/2+y,1/2-z
1/2+y,1/2+x,-z
-y,-x,-z
-x,-y,-z
1/2+y,-x,1/2-z
1/2+x,1/2+y,-z
-y,1/2+x,1/2-z
1/2-x,y,1/2+z
x,1/2-y,1/2+z
1/2-y,1/2-x,z
y,x,z
loop_
_atom_site_type_symbol
_atom_site_label
_atom_site_fract_x
_atom_site_fract_y
_atom_site_fract_z
Si Si1 0.426752 0.259914 0.097870
Si Si2 0.404679 0.593486 0.556510
Si Si3 0.919952 0.233332 0.353431
Si Si4 0.258200 0.926870 0.682951
Si Si5 0.930467 0.752987 0.229153
O O1 0.332931 0.167070 0.093342
O O2 0.373617 0.373617 0.079766
O O3 0.533316 0.208331 0.072829
O O4 0.461518 0.272272 0.152818
O O5 0.391558 0.608443 0.500000
O O6 0.507616 0.507616 0.564404
O O7 0.422613 0.700013 0.590661
O O8 0.859216 0.127444 0.329704
O O9 0.846581 0.339158 0.337860
O O10 0.034648 0.249186 0.326310
O O11 0.262359 0.961329 0.737970
O O12 0.845427 0.654574 0.238831
O O13 0.867545 0.867545 0.240106
#
# Coordination Sequence:
#
# PCOD9570753 Si02
#       5
#    16  16  16  16  16
#     4   9  17  31  53  80 105 131 175 232 279 327
#     4   9  18  35  59  82 107 144 185 226 282 346
#     4  10  21  36  53  78 109 141 181 227 273 329
#     4  10  20  34  53  78 106 140 178 219 275 336
#     4  11  23  36  52  77 109 147 189 231 277 332
#
# _framework density 19.558409999999999
#
# number of rings (size 3 to 8) (size 9 to 14) (size 15 to 20)
#    0.000    2.200    0.000    3.000    0.000    8.800 
#    0.000    9.000    0.000    4.800    0.000    0.000 
#    0.000    0.000    0.000    0.000    0.000    0.000 
#
# Total GULP energy -445807.693396 kJ/mol
# GULP energy per Si atom -5572.596167 kJ/mol
# Density = 1.951389 g / cm^3
# Si number density = 19.558410 Si / 1000 Ang^3
#
#
#
# Elastic Constant Matrix: (Units=GPa)
#
#
# Indices 1 2 3 4 5 6 
#
# 1 46.9485 15.4206 24.2770 0.0000 0.0000 0.0000
# 2 15.4206 46.9487 24.2771 0.0000 0.0000 0.0000
# 3 24.2770 24.2771 120.6143 0.0000 0.0000 0.0000
# 4 0.0000 0.0000 0.0000 6.9551 0.0000 0.0000
# 5 0.0000 0.0000 0.0000 0.0000 6.9544 0.0000
# 6 0.0000 0.0000 0.0000 0.0000 0.0000 17.2963
#
#
#
# Elastic Compliance Matrix: (Units=1/GPa)
#
#
# Indices 1 2 3 4 5 6 
#
# 1 0.025365 -0.006353 -0.003827 0.000000 0.000000 0.000000
# 2 -0.006353 0.025365 -0.003827 0.000000 0.000000 0.000000
# 3 -0.003827 -0.003827 0.009831 0.000000 0.000000 0.000000
# 4 0.000000 0.000000 0.000000 0.143780 0.000000 0.000000
# 5 0.000000 0.000000 0.000000 0.000000 0.143794 0.000000
# 6 0.000000 0.000000 0.000000 0.000000 0.000000 0.057816
#
#
# Mechanical properties :
#
#
# Convention : Reuss Voigt Hill
#
# Bulk Modulus (GPa) = 30.72245 38.05121 34.38683
# Shear Modulus (GPa) = 11.24066 16.27694 13.75880
#
# Velocity S-wave (km/s) = 2.39994 2.88796 2.65518
# Velocity P-wave (km/s) = 4.83960 5.53333 5.19805
#
# Compressibility (1/GPa) = 0.03254949
#
# Stress axis : x y z
#
# Youngs Moduli (GPa) = 39.42387 39.42399 101.71477
#
# Poissons Ratio (x) = 0.25044 0.38925
# Poissons Ratio (y) = 0.25044 0.38925
# Poissons Ratio (z) = 0.15087 0.15087
#
# Static dielectric constant tensor:
#      x y z
#    x 1.714230 0.000000 0.000000 
#    y 0.000000 1.714230 0.000000 
#    z 0.000000 0.000000 1.742870 
# 
# From -- ./inp_files/7891.got.cif
#   From: 2010.05.17/outbox.cif.g08.bks.cpg/sg138_4_cif.got.tgz:7891.got - 2010.05.20 13:08:53.
