data_PCOD9570744
_publ_section_title
;
Structure prediction by ZEFSAII (Michael W. Deem and Ramdas Pophale) SiO2 
 PCOD9570744
Probable space group: P 42/N C M
;
_chemical_formula_sum "Si O2"
_cell_formula_units_Z 80
_cell_length_a 12.601618
_cell_length_b 12.601618
_cell_length_c 27.118330
_cell_angle_alpha 90.000000
_cell_angle_beta 90.000000
_cell_angle_gamma 90.000000
_cell_volume 4306.411854
_symmetry_space_group_name_H-M "P 42/N C M"
_symmetry_group_IT_number 138
_space_group.IT_coordinate_system_code '2'
_symmetry_cell_setting 'tetragonal'
loop_
_space_group_symop_operation_xyz
x,y,z
1/2-y,x,1/2+z
1/2-x,1/2-y,z
y,1/2-x,1/2+z
1/2+x,-y,1/2-z
-x,1/2+y,1/2-z
1/2+y,1/2+x,-z
-y,-x,-z
-x,-y,-z
1/2+y,-x,1/2-z
1/2+x,1/2+y,-z
-y,1/2+x,1/2-z
1/2-x,y,1/2+z
x,1/2-y,1/2+z
1/2-y,1/2-x,z
y,x,z
loop_
_atom_site_type_symbol
_atom_site_label
_atom_site_fract_x
_atom_site_fract_y
_atom_site_fract_z
Si Si1 0.941184 0.387016 0.915235
Si Si2 0.382891 0.559140 0.204929
Si Si3 0.362133 0.719952 0.947426
Si Si4 0.646405 0.472402 0.110438
Si Si5 0.364953 0.963298 0.191816
O O1 0.835767 0.413110 0.947633
O O2 0.975617 0.263368 0.913375
O O3 0.906644 0.415166 0.859320
O O4 0.038106 0.461895 0.929599
O O5 0.453954 0.453954 0.198753
O O6 0.435461 0.644172 0.167352
O O7 0.261631 0.537054 0.191952
O O8 0.396016 0.597462 0.260930
O O9 0.250000 0.750000 0.920834
O O10 0.413528 0.624924 0.917390
O O11 0.327901 0.672100 0.000000
O O12 0.579978 0.579978 0.105332
O O13 0.421902 0.078099 0.197197
#
# Coordination Sequence:
#
# PCOD9570744 Si02
#       5
#    16  16  16  16  16
#     4  10  20  35  56  82 112 143 183 234 279 330
#     4  10  20  33  51  78 111 147 187 228 274 327
#     4   9  18  35  57  80 104 140 185 229 276 328
#     4  10  20  34  53  79 111 146 183 225 274 329
#     4  10  20  33  52  79 109 146 188 229 276 327
#
# _framework density 18.576951000000001
#
# number of rings (size 3 to 8) (size 9 to 14) (size 15 to 20)
#    0.000    2.200    2.000    1.200    0.000    3.200 
#    0.000    8.000    0.000    7.800    0.000    0.000 
#    0.000    0.000    0.000    0.000    0.000    0.000 
#
# Total GULP energy -445619.626422 kJ/mol
# GULP energy per Si atom -5570.245330 kJ/mol
# Density = 1.853467 g / cm^3
# Si number density = 18.576951 Si / 1000 Ang^3
#
#
#
# Elastic Constant Matrix: (Units=GPa)
#
#
# Indices 1 2 3 4 5 6 
#
# 1 85.8108 53.5981 14.4534 0.0000 0.0000 0.0000
# 2 53.5981 85.8107 14.4534 0.0000 0.0000 0.0000
# 3 14.4534 14.4534 73.2169 0.0000 0.0000 0.0000
# 4 0.0000 0.0000 0.0000 18.7315 0.0000 0.0000
# 5 0.0000 0.0000 0.0000 0.0000 18.7312 0.0000
# 6 0.0000 0.0000 0.0000 0.0000 0.0000 14.8956
#
#
#
# Elastic Compliance Matrix: (Units=1/GPa)
#
#
# Indices 1 2 3 4 5 6 
#
# 1 0.019261 -0.011782 -0.001476 0.000000 0.000000 0.000000
# 2 -0.011782 0.019262 -0.001476 0.000000 0.000000 0.000000
# 3 -0.001476 -0.001476 0.014241 0.000000 0.000000 0.000000
# 4 0.000000 0.000000 0.000000 0.053386 0.000000 0.000000
# 5 0.000000 0.000000 0.000000 0.000000 0.053387 0.000000
# 6 0.000000 0.000000 0.000000 0.000000 0.000000 0.067134
#
#
# Mechanical properties :
#
#
# Convention : Reuss Voigt Hill
#
# Bulk Modulus (GPa) = 42.92996 45.53867 44.23432
# Shear Modulus (GPa) = 18.94617 21.29389 20.12003
#
# Velocity S-wave (km/s) = 3.19701 3.38931 3.29456
# Velocity P-wave (km/s) = 6.06525 6.31532 6.19155
#
# Compressibility (1/GPa) = 0.02329376
#
# Stress axis : x y z
#
# Youngs Moduli (GPa) = 51.91705 51.91700 70.21993
#
# Poissons Ratio (x) = 0.61170 0.10368
# Poissons Ratio (y) = 0.61170 0.10368
# Poissons Ratio (z) = 0.07665 0.07665
#
# Static dielectric constant tensor:
#      x y z
#    x 1.665440 0.000000 0.000000 
#    y 0.000000 1.665440 0.000000 
#    z 0.000000 0.000000 1.688190 
# 
# From -- ./inp_files/7840.got.cif
#   From: 2010.05.17/outbox.cif.g08.bks.cpg/sg138_4_cif.got.tgz:7840.got - 2010.05.20 13:08:53.
