data_PCOD9570709
_publ_section_title
;
Structure prediction by ZEFSAII (Michael W. Deem and Ramdas Pophale) SiO2 
 PCOD9570709
Probable space group: P 42/N C M
;
_chemical_formula_sum "Si O2"
_cell_formula_units_Z 112
_cell_length_a 33.219334
_cell_length_b 33.219334
_cell_length_c 5.232152
_cell_angle_alpha 90.000000
_cell_angle_beta 90.000000
_cell_angle_gamma 90.000000
_cell_volume 5773.806096
_symmetry_space_group_name_H-M "P 42/N C M"
_symmetry_group_IT_number 138
_space_group.IT_coordinate_system_code '2'
_symmetry_cell_setting 'tetragonal'
loop_
_space_group_symop_operation_xyz
x,y,z
1/2-y,x,1/2+z
1/2-x,1/2-y,z
y,1/2-x,1/2+z
1/2+x,-y,1/2-z
-x,1/2+y,1/2-z
1/2+y,1/2+x,-z
-y,-x,-z
-x,-y,-z
1/2+y,-x,1/2-z
1/2+x,1/2+y,-z
-y,1/2+x,1/2-z
1/2-x,y,1/2+z
x,1/2-y,1/2+z
1/2-y,1/2-x,z
y,x,z
loop_
_atom_site_type_symbol
_atom_site_label
_atom_site_fract_x
_atom_site_fract_y
_atom_site_fract_z
Si Si1 0.055831 0.375675 0.939669
Si Si2 0.334000 0.727438 0.927529
Si Si3 0.226061 0.569180 0.548961
Si Si4 0.631553 0.431125 0.950448
Si Si5 0.032136 0.906306 0.451073
Si Si6 0.411623 0.157674 0.440599
Si Si7 0.723022 0.654722 0.986134
O O1 0.090798 0.409203 0.936364
O O2 0.058298 0.352678 0.670963
O O3 0.066239 0.345441 0.170365
O O4 0.014082 0.397831 0.991641
O O5 0.320785 0.741889 0.649374
O O6 0.314891 0.685110 0.000000
O O7 0.382131 0.726959 0.937497
O O8 0.247059 0.555063 0.810289
O O9 0.178794 0.560781 0.518043
O O10 0.619475 0.443188 0.662521
O O11 0.614056 0.385945 0.000000
O O12 0.607793 0.456934 0.164959
O O13 0.048627 0.951374 0.500000
O O14 0.377556 0.122445 0.440394
O O15 0.386825 0.198264 0.486714
O O16 0.755076 0.657329 0.214227
O O17 0.690894 0.690894 0.010040
#
# Coordination Sequence:
#
# PCOD9570709 Si02
#       7
#    16  16  16  16  16  16  16
#     4  10  19  35  59  83 111 144 178 220 266 319
#     4  10  20  31  44  64  88 115 149 187 232 286
#     4  10  20  34  53  73  93 124 169 216 252 289
#     4  10  20  36  56  77 107 143 176 215 266 326
#     4  10  21  35  56  86 112 139 173 212 269 335
#     4   9  19  35  56  80 106 148 195 225 264 326
#     4  11  22  36  56  83 117 155 199 252 303 354
#
# _framework density 19.397950000000002
#
# number of rings (size 3 to 8) (size 9 to 14) (size 15 to 20)
#    0.000    2.000    0.000    3.857    0.000    4.286 
#    0.000    4.286    0.000   22.286    0.000    0.000 
#    0.000    0.000    0.000    0.000    0.000    0.000 
#
# Total GULP energy -624982.019270 kJ/mol
# GULP energy per Si atom -5580.196601 kJ/mol
# Density = 1.935380 g / cm^3
# Si number density = 19.397950 Si / 1000 Ang^3
#
#
#
# Elastic Constant Matrix: (Units=GPa)
#
#
# Indices 1 2 3 4 5 6 
#
# 1 45.3418 -9.6232 -6.7480 0.0000 0.0000 0.0000
# 2 -9.6232 45.3436 -6.7493 0.0000 0.0000 0.0000
# 3 -6.7480 -6.7493 74.2857 0.0000 0.0000 0.0000
# 4 0.0000 0.0000 0.0000 21.3260 0.0000 0.0000
# 5 0.0000 0.0000 0.0000 0.0000 21.3255 0.0000
# 6 0.0000 0.0000 0.0000 0.0000 0.0000 13.5983
#
#
#
# Elastic Compliance Matrix: (Units=1/GPa)
#
#
# Indices 1 2 3 4 5 6 
#
# 1 0.023593 0.005399 0.002634 0.000000 0.000000 0.000000
# 2 0.005399 0.023592 0.002634 0.000000 0.000000 0.000000
# 3 0.002634 0.002634 0.013940 0.000000 0.000000 0.000000
# 4 0.000000 0.000000 0.000000 0.046891 0.000000 0.000000
# 5 0.000000 0.000000 0.000000 0.000000 0.046892 0.000000
# 6 0.000000 0.000000 0.000000 0.000000 0.000000 0.073538
#
#
# Mechanical properties :
#
#
# Convention : Reuss Voigt Hill
#
# Bulk Modulus (GPa) = 12.12748 13.19224 12.65986
# Shear Modulus (GPa) = 21.31298 23.78940 22.55119
#
# Velocity S-wave (km/s) = 3.31830 3.50578 3.41333
# Velocity P-wave (km/s) = 4.57678 4.81694 4.69840
#
# Compressibility (1/GPa) = 0.08245737
#
# Stress axis : x y z
#
# Youngs Moduli (GPa) = 42.38626 42.38781 71.73563
#
# Poissons Ratio (x) = -0.22885 -0.18893
# Poissons Ratio (y) = -0.22884 -0.18894
# Poissons Ratio (z) = -0.11163 -0.11164
#
# Static dielectric constant tensor:
#      x y z
#    x 1.668310 0.000000 0.000000 
#    y 0.000000 1.668310 0.000000 
#    z 0.000000 0.000000 1.828610 
# 
# From -- ./inp_files/547.got.cif
#   From: 2010.05.17/outbox.cif.g08.bks.cpg/sg138_1_cif.got.tgz:547.got - 2010.05.20 13:08:53.
