data_PCOD9570345
_publ_section_title
;
Structure prediction by ZEFSAII (Michael W. Deem and Ramdas Pophale) SiO2 
 PCOD9570345
Probable space group: P 42/N M C
;
_chemical_formula_sum "Si O2"
_cell_formula_units_Z 128
_cell_length_a 23.958076
_cell_length_b 23.958076
_cell_length_c 12.649534
_cell_angle_alpha 90.000000
_cell_angle_beta 90.000000
_cell_angle_gamma 90.000000
_cell_volume 7260.698502
_symmetry_space_group_name_H-M "P 42/N M C"
_symmetry_group_IT_number 137
_space_group.IT_coordinate_system_code '2'
_symmetry_cell_setting 'tetragonal'
loop_
_space_group_symop_operation_xyz
x,y,z
1/2-y,x,1/2+z
1/2-x,1/2-y,z
y,1/2-x,1/2+z
1/2+x,-y,-z
-x,1/2+y,-z
1/2+y,1/2+x,1/2-z
-y,-x,1/2-z
-x,-y,-z
1/2+y,-x,1/2-z
1/2+x,1/2+y,-z
-y,1/2+x,1/2-z
1/2-x,y,z
x,1/2-y,z
1/2-y,1/2-x,1/2+z
y,x,1/2+z
loop_
_atom_site_type_symbol
_atom_site_label
_atom_site_fract_x
_atom_site_fract_y
_atom_site_fract_z
Si Si1 0.185912 0.991049 0.226938
Si Si2 0.397411 0.683025 0.688510
Si Si3 0.613627 0.685847 0.371844
Si Si4 0.608502 0.686521 0.751164
Si Si5 0.072991 0.110317 0.440624
Si Si6 0.686182 0.009351 0.363057
Si Si7 0.016914 0.890117 0.067829
Si Si8 0.869409 0.051174 0.983482
O O1 0.250000 0.978606 0.254067
O O2 0.145745 0.978705 0.325026
O O3 0.168385 0.958293 0.120432
O O4 0.182249 0.056961 0.197803
O O5 0.346417 0.653584 0.750000
O O6 0.391307 0.750000 0.680005
O O7 0.451540 0.671317 0.763096
O O8 0.408173 0.656636 0.572540
O O9 0.617998 0.750000 0.408594
O O10 0.666919 0.665092 0.306902
O O11 0.605239 0.640713 0.463964
O O12 0.611403 0.750000 0.710692
O O13 0.594817 0.641333 0.662577
O O14 0.555257 0.683889 0.829144
O O15 0.008531 0.124337 0.460226
O O16 0.081451 0.044056 0.434145
O O17 0.750000 0.022985 0.390559
O O18 0.648196 0.019453 0.463729
O O19 0.069698 0.930557 0.056770
#
# Coordination Sequence:
#
# PCOD9570345 Si02
#       8
#    16  16  16  16  16  16  16  16
#     4  10  22  39  59  81 118 163 201 242 289 352
#     4  11  22  40  64  90 121 154 194 240 293 360
#     4  10  21  38  57  80 113 157 205 248 294 348
#     4  11  21  37  59  83 115 155 201 250 298 353
#     4  11  22  37  56  86 119 155 194 246 310 362
#     4  10  21  36  59  85 111 152 195 240 297 356
#     4  12  21  37  60  87 121 151 194 251 304 356
#     4  11  23  38  59  91 121 157 196 244 296 367
#
# _framework density 17.629158
#
# number of rings (size 3 to 8) (size 9 to 14) (size 15 to 20)
#    0.000    1.250    5.000    1.875    0.000    1.375 
#    0.000    0.625    0.000    1.500    0.000    0.000 
#    0.000    2.000    0.000    0.000    0.000    0.000 
#
# Total GULP energy -714226.470997 kJ/mol
# GULP energy per Si atom -5579.894305 kJ/mol
# Density = 1.758903 g / cm^3
# Si number density = 17.629158 Si / 1000 Ang^3
#
#
#
# Elastic Constant Matrix: (Units=GPa)
#
#
# Indices 1 2 3 4 5 6 
#
# 1 72.1958 23.3425 25.1867 0.0000 0.0000 0.0000
# 2 23.3425 72.1936 25.1881 0.0000 0.0000 0.0000
# 3 25.1867 25.1881 68.4671 0.0000 0.0000 0.0000
# 4 0.0000 0.0000 0.0000 22.4539 0.0000 0.0000
# 5 0.0000 0.0000 0.0000 0.0000 22.4541 0.0000
# 6 0.0000 0.0000 0.0000 0.0000 0.0000 25.0161
#
#
#
# Elastic Compliance Matrix: (Units=1/GPa)
#
#
# Indices 1 2 3 4 5 6 
#
# 1 0.016728 -0.003742 -0.004777 0.000000 0.000000 0.000000
# 2 -0.003742 0.016728 -0.004778 0.000000 0.000000 0.000000
# 3 -0.004777 -0.004778 0.018120 0.000000 0.000000 0.000000
# 4 0.000000 0.000000 0.000000 0.044536 0.000000 0.000000
# 5 0.000000 0.000000 0.000000 0.000000 0.044535 0.000000
# 6 0.000000 0.000000 0.000000 0.000000 0.000000 0.039974
#
#
# Mechanical properties :
#
#
# Convention : Reuss Voigt Hill
#
# Bulk Modulus (GPa) = 40.02636 40.03234 40.02935
# Shear Modulus (GPa) = 23.19727 23.26075 23.22901
#
# Velocity S-wave (km/s) = 3.63140 3.63636 3.63388
# Velocity P-wave (km/s) = 6.35111 6.35517 6.35314
#
# Compressibility (1/GPa) = 0.02498353
#
# Stress axis : x y z
#
# Youngs Moduli (GPa) = 59.78155 59.77850 55.18625
#
# Poissons Ratio (x) = 0.22368 0.26362
# Poissons Ratio (y) = 0.22370 0.26366
# Poissons Ratio (z) = 0.28557 0.28560
#
# Static dielectric constant tensor:
#      x y z
#    x 1.592860 0.000000 0.000000 
#    y 0.000000 1.592860 0.000000 
#    z 0.000000 0.000000 1.603930 
# 
# From -- ./inp_files/4032.got.cif
#   From: 2010.05.17/outbox.cif.g08.bks.cpg/sg137_3_cif.got.tgz:4032.got - 2010.05.20 13:01:12.
