data_PCOD9570537
_publ_section_title
;
Structure prediction by ZEFSAII (Michael W. Deem and Ramdas Pophale) SiO2 
 PCOD9570537
Probable space group: P 42/N M C
;
_chemical_formula_sum "Si O2"
_cell_formula_units_Z 42
_cell_length_a 7.799369
_cell_length_b 7.799369
_cell_length_c 33.996741
_cell_angle_alpha 90.000000
_cell_angle_beta 90.000000
_cell_angle_gamma 90.000000
_cell_volume 2068.027086
_symmetry_space_group_name_H-M "P 42/N M C"
_symmetry_group_IT_number 137
_space_group.IT_coordinate_system_code '2'
_symmetry_cell_setting 'tetragonal'
loop_
_space_group_symop_operation_xyz
x,y,z
1/2-y,x,1/2+z
1/2-x,1/2-y,z
y,1/2-x,1/2+z
1/2+x,-y,-z
-x,1/2+y,-z
1/2+y,1/2+x,1/2-z
-y,-x,1/2-z
-x,-y,-z
1/2+y,-x,1/2-z
1/2+x,1/2+y,-z
-y,1/2+x,1/2-z
1/2-x,y,z
x,1/2-y,z
1/2-y,1/2-x,1/2+z
y,x,1/2+z
loop_
_atom_site_type_symbol
_atom_site_label
_atom_site_fract_x
_atom_site_fract_y
_atom_site_fract_z
Si Si1 0.750000 0.250000 0.750000
Si Si2 0.959683 0.549685 0.871172
Si Si3 0.250000 0.444006 0.311927
Si Si4 0.956105 0.559356 0.456451
O O1 0.583568 0.250000 0.777641
O O2 0.750000 0.543028 0.871556
O O3 0.005647 0.750000 0.864290
O O4 0.025010 0.494989 0.914911
O O5 0.025553 0.417495 0.839034
O O6 0.250000 0.250000 0.296913
O O7 0.750000 0.564667 0.454502
O O8 0.028509 0.750000 0.454358
O O9 0.000000 0.500000 0.500000
#
# Coordination Sequence:
#
# PCOD9570537 Si02
#       4
#     2  16   8  16
#     4  12  28  52  68 104 140 164 220 276 336 420
#     4   9  19  40  66  91 130 178 221 271 330 389
#     4  12  26  44  74 104 128 172 216 268 344 408
#     4   9  19  33  51  81 122 168 214 263 313 368
#
# _framework density 20.309213
#
# number of rings (size 3 to 8) (size 9 to 14) (size 15 to 20)
#    0.000    2.286    1.905    2.286    2.667    4.571 
#    0.000    3.810    0.000    0.000    0.000    0.000 
#    0.000    0.000    0.000    0.000    0.000    0.000 
#
# Total GULP energy -234119.197050 kJ/mol
# GULP energy per Si atom -5574.266596 kJ/mol
# Density = 2.026299 g / cm^3
# Si number density = 20.309213 Si / 1000 Ang^3
#
#
#
# Elastic Constant Matrix: (Units=GPa)
#
#
# Indices 1 2 3 4 5 6 
#
# 1 91.9248 31.7148 68.3471 0.0000 0.0000 0.0000
# 2 31.7148 91.9248 68.3471 0.0000 0.0000 0.0000
# 3 68.3471 68.3471 175.5717 0.0000 0.0000 0.0000
# 4 0.0000 0.0000 0.0000 23.1802 0.0000 0.0000
# 5 0.0000 0.0000 0.0000 0.0000 23.1802 0.0000
# 6 0.0000 0.0000 0.0000 0.0000 0.0000 18.5992
#
#
#
# Elastic Compliance Matrix: (Units=1/GPa)
#
#
# Indices 1 2 3 4 5 6 
#
# 1 0.015404 -0.001205 -0.005527 0.000000 0.000000 0.000000
# 2 -0.001205 0.015404 -0.005527 0.000000 0.000000 0.000000
# 3 -0.005527 -0.005527 0.009999 0.000000 0.000000 0.000000
# 4 0.000000 0.000000 0.000000 0.043140 0.000000 0.000000
# 5 0.000000 0.000000 0.000000 0.000000 0.043140 0.000000
# 6 0.000000 0.000000 0.000000 0.000000 0.000000 0.053766
#
#
# Mechanical properties :
#
#
# Convention : Reuss Voigt Hill
#
# Bulk Modulus (GPa) = 61.39668 77.35993 69.37831
# Shear Modulus (GPa) = 23.71896 25.72606 24.72251
#
# Velocity S-wave (km/s) = 3.42115 3.56296 3.49278
# Velocity P-wave (km/s) = 6.77512 7.42294 7.10641
#
# Compressibility (1/GPa) = 0.01628752
#
# Stress axis : x y z
#
# Youngs Moduli (GPa) = 64.91887 64.91887 100.00809
#
# Poissons Ratio (x) = 0.07821 0.55279
# Poissons Ratio (y) = 0.07821 0.55279
# Poissons Ratio (z) = 0.35884 0.35884
#
# Static dielectric constant tensor:
#      x y z
#    x 1.735820 0.000000 0.000000 
#    y 0.000000 1.735820 0.000000 
#    z 0.000000 0.000000 1.750760 
# 
# From -- ./inp_files/9322.got.cif
#   From: 2010.05.17/outbox.cif.g08.bks.cpg/sg137_5_cif.got.tgz:9322.got - 2010.05.20 13:01:12.
