data_PCOD9570013
_publ_section_title
;
Structure prediction by ZEFSAII (Michael W. Deem and Ramdas Pophale) SiO2 
 PCOD9570013
Probable space group: P 42/N M C
;
_chemical_formula_sum "Si O2"
_cell_formula_units_Z 112
_cell_length_a 14.637436
_cell_length_b 14.637436
_cell_length_c 24.191232
_cell_angle_alpha 90.000000
_cell_angle_beta 90.000000
_cell_angle_gamma 90.000000
_cell_volume 5183.081106
_symmetry_space_group_name_H-M "P 42/N M C"
_symmetry_group_IT_number 137
_space_group.IT_coordinate_system_code '2'
_symmetry_cell_setting 'tetragonal'
loop_
_space_group_symop_operation_xyz
x,y,z
1/2-y,x,1/2+z
1/2-x,1/2-y,z
y,1/2-x,1/2+z
1/2+x,-y,-z
-x,1/2+y,-z
1/2+y,1/2+x,1/2-z
-y,-x,1/2-z
-x,-y,-z
1/2+y,-x,1/2-z
1/2+x,1/2+y,-z
-y,1/2+x,1/2-z
1/2-x,y,z
x,1/2-y,z
1/2-y,1/2-x,1/2+z
y,x,1/2+z
loop_
_atom_site_type_symbol
_atom_site_label
_atom_site_fract_x
_atom_site_fract_y
_atom_site_fract_z
Si Si1 0.526132 0.357801 0.508025
Si Si2 0.652693 0.390186 0.811369
Si Si3 0.898228 0.848302 0.276508
Si Si4 0.618998 0.548188 0.651563
Si Si5 0.646083 0.968419 0.529125
Si Si6 0.561969 0.144991 0.378674
Si Si7 0.654638 0.046474 0.291815
O O1 0.525785 0.250000 0.526318
O O2 0.424229 0.403551 0.505363
O O3 0.593200 0.433487 0.535510
O O4 0.560814 0.358381 0.444495
O O5 0.650759 0.349242 0.750000
O O6 0.750000 0.367913 0.838538
O O7 0.648040 0.498754 0.800207
O O8 0.559207 0.362617 0.840273
O O9 0.858846 0.750000 0.291842
O O10 0.905318 0.851934 0.209261
O O11 0.850948 0.938346 0.298974
O O12 0.654579 0.573869 0.590907
O O13 0.514130 0.575547 0.643970
O O14 0.750000 0.978097 0.507297
O O15 0.542156 0.250000 0.363645
O O16 0.648333 0.104575 0.347500
O O17 0.575700 0.075700 0.250000
O O18 0.750000 0.069582 0.263361
#
# Coordination Sequence:
#
# PCOD9570013 Si02
#       7
#    16  16  16  16  16  16  16
#     4   9  21  41  63  88 121 158 198 245 302 367
#     4   9  17  30  48  71 107 152 192 227 274 334
#     4  10  19  34  55  78 110 156 197 236 288 344
#     4  10  18  34  56  84 115 147 189 239 288 343
#     4  10  21  37  61  92 120 150 193 246 301 357
#     4  10  20  37  59  81 111 154 198 243 297 351
#     4  12  23  36  54  81 116 153 199 252 294 342
#
# _framework density 21.608768999999999
#
# number of rings (size 3 to 8) (size 9 to 14) (size 15 to 20)
#    0.000    2.000    2.857    1.286    0.000    3.714 
#    0.000    1.429    0.000    2.571    0.000    2.000 
#    0.000    0.000    0.000    0.000    0.000    0.000 
#
# Total GULP energy -623927.089587 kJ/mol
# GULP energy per Si atom -5570.777586 kJ/mol
# Density = 2.155959 g / cm^3
# Si number density = 21.608769 Si / 1000 Ang^3
#
#
#
# Elastic Constant Matrix: (Units=GPa)
#
#
# Indices 1 2 3 4 5 6 
#
# 1 109.8545 13.9026 0.8885 0.0000 0.0000 0.0000
# 2 13.9026 109.8545 0.8884 0.0000 0.0000 0.0000
# 3 0.8885 0.8884 32.4345 0.0000 0.0000 0.0000
# 4 0.0000 0.0000 0.0000 2.6979 0.0000 0.0000
# 5 0.0000 0.0000 0.0000 0.0000 2.6985 0.0000
# 6 0.0000 0.0000 0.0000 0.0000 0.0000 -148.0461
#
#
#
# Elastic Compliance Matrix: (Units=1/GPa)
#
#
# Indices 1 2 3 4 5 6 
#
# 1 0.009253 -0.001169 -0.000221 0.000000 0.000000 0.000000
# 2 -0.001169 0.009253 -0.000221 0.000000 0.000000 0.000000
# 3 -0.000221 -0.000221 0.030844 0.000000 0.000000 0.000000
# 4 0.000000 0.000000 0.000000 0.370659 0.000000 0.000000
# 5 0.000000 0.000000 0.000000 0.000000 0.370581 0.000000
# 6 0.000000 0.000000 0.000000 0.000000 0.000000 -0.006755
#
#
# Mechanical properties :
#
#
# Convention : Reuss Voigt Hill
#
# Bulk Modulus (GPa) = 21.68028 31.50028 26.59028
# Shear Modulus (GPa) = 6.23105 -12.76567 -3.26731
#
# Velocity S-wave (km/s) = 1.69995 -2.43320 -1.23098
# Velocity P-wave (km/s) = 3.72934 2.59138 3.21117
#
# Compressibility (1/GPa) = 0.04612486
#
# Stress axis : x y z
#
# Youngs Moduli (GPa) = 108.07652 108.07655 32.42172
#
# Poissons Ratio (x) = 0.12636 0.00718
# Poissons Ratio (y) = 0.12636 0.00718
# Poissons Ratio (z) = 0.02393 0.02393
#
# Static dielectric constant tensor:
#      x y z
#    x 1.683560 0.000000 0.000000 
#    y 0.000000 1.683540 0.000000 
#    z 0.000000 0.000000 1.796040 
# 
# From -- ./inp_files/8939.got.cif
#   From: 2010.05.17/outbox.cif.g08.bks.cpg/sg137_5_cif.got.tgz:8939.got - 2010.05.20 13:01:12.
