data_PCOD9570216
_publ_section_title
;
Structure prediction by ZEFSAII (Michael W. Deem and Ramdas Pophale) SiO2 
 PCOD9570216
Probable space group: P 42/N M C
;
_chemical_formula_sum "Si O2"
_cell_formula_units_Z 112
_cell_length_a 14.911976
_cell_length_b 14.911976
_cell_length_c 25.498559
_cell_angle_alpha 90.000000
_cell_angle_beta 90.000000
_cell_angle_gamma 90.000000
_cell_volume 5670.038789
_symmetry_space_group_name_H-M "P 42/N M C"
_symmetry_group_IT_number 137
_space_group.IT_coordinate_system_code '2'
_symmetry_cell_setting 'tetragonal'
loop_
_space_group_symop_operation_xyz
x,y,z
1/2-y,x,1/2+z
1/2-x,1/2-y,z
y,1/2-x,1/2+z
1/2+x,-y,-z
-x,1/2+y,-z
1/2+y,1/2+x,1/2-z
-y,-x,1/2-z
-x,-y,-z
1/2+y,-x,1/2-z
1/2+x,1/2+y,-z
-y,1/2+x,1/2-z
1/2-x,y,z
x,1/2-y,z
1/2-y,1/2-x,1/2+z
y,x,1/2+z
loop_
_atom_site_type_symbol
_atom_site_label
_atom_site_fract_x
_atom_site_fract_y
_atom_site_fract_z
Si Si1 0.147967 0.147981 0.053765
Si Si2 0.142943 0.648290 0.994218
Si Si3 0.006787 0.462884 0.808813
Si Si4 0.145634 0.462707 0.948305
Si Si5 0.348870 0.352857 0.257244
Si Si6 0.856223 0.020339 0.597121
Si Si7 0.028527 0.350745 0.155160
O O1 0.250000 0.142383 0.074827
O O2 0.136766 0.250000 0.032544
O O3 0.076858 0.136003 0.099673
O O4 0.139534 0.077542 0.007304
O O5 0.250000 0.642567 0.004967
O O6 0.123568 0.750000 0.975268
O O7 0.086464 0.634529 0.047384
O O8 0.122419 0.568137 0.953884
O O9 0.096068 0.407275 0.799338
O O10 0.947648 0.410213 0.851407
O O11 0.966768 0.466768 0.750000
O O12 0.028583 0.562591 0.829439
O O13 0.250000 0.453061 0.931598
O O14 0.073064 0.405288 0.917102
O O15 0.250000 0.392941 0.254166
O O16 0.343182 0.250000 0.272458
O O17 0.395082 0.354636 0.200305
O O18 0.750000 0.008952 0.606922
O O19 0.988926 0.250000 0.156962
#
# Coordination Sequence:
#
# PCOD9570216 Si02
#       7
#    16  16  16  16  16  16  16
#     4   9  16  27  46  75 108 137 169 214 269 328
#     4   9  19  36  56  78 108 149 192 227 261 312
#     4  10  21  36  52  74 104 136 176 225 273 324
#     4  10  20  34  54  82 115 147 180 221 270 326
#     4   9  17  31  52  76 101 132 172 219 274 332
#     4  11  22  36  55  80 112 147 183 225 275 329
#     4   9  17  30  50  74 101 135 174 219 270 322
#
# _framework density 19.752952000000001
#
# number of rings (size 3 to 8) (size 9 to 14) (size 15 to 20)
#    0.000    2.429    0.000    2.571    0.000    3.143 
#    0.000    5.714    0.000    0.429    0.000    3.000 
#    0.000    3.429    0.000    0.000    0.000    0.000 
#
# Total GULP energy -624745.523815 kJ/mol
# GULP energy per Si atom -5578.085034 kJ/mol
# Density = 1.970799 g / cm^3
# Si number density = 19.752952 Si / 1000 Ang^3
#
#
#
# Elastic Constant Matrix: (Units=GPa)
#
#
# Indices 1 2 3 4 5 6 
#
# 1 55.3006 12.1554 8.6830 0.0000 0.0000 0.0000
# 2 12.1554 55.3006 8.6830 0.0000 0.0000 0.0000
# 3 8.6830 8.6830 40.6192 0.0000 0.0000 0.0000
# 4 0.0000 0.0000 0.0000 10.2716 0.0000 0.0000
# 5 0.0000 0.0000 0.0000 0.0000 10.2716 0.0000
# 6 0.0000 0.0000 0.0000 0.0000 0.0000 27.7622
#
#
#
# Elastic Compliance Matrix: (Units=1/GPa)
#
#
# Indices 1 2 3 4 5 6 
#
# 1 0.019433 -0.003745 -0.003354 0.000000 0.000000 0.000000
# 2 -0.003745 0.019433 -0.003354 0.000000 0.000000 0.000000
# 3 -0.003354 -0.003354 0.026053 0.000000 0.000000 0.000000
# 4 0.000000 0.000000 0.000000 0.097356 0.000000 0.000000
# 5 0.000000 0.000000 0.000000 0.000000 0.097356 0.000000
# 6 0.000000 0.000000 0.000000 0.000000 0.000000 0.036020
#
#
# Mechanical properties :
#
#
# Convention : Reuss Voigt Hill
#
# Bulk Modulus (GPa) = 22.71992 23.36255 23.04124
# Shear Modulus (GPa) = 15.09544 17.77433 16.43488
#
# Velocity S-wave (km/s) = 2.76744 3.00297 2.88761
# Velocity P-wave (km/s) = 4.66247 4.88639 4.77574
#
# Compressibility (1/GPa) = 0.04401423
#
# Stress axis : x y z
#
# Youngs Moduli (GPa) = 51.45973 51.45973 38.38382
#
# Poissons Ratio (x) = 0.19271 0.12872
# Poissons Ratio (y) = 0.19271 0.12872
# Poissons Ratio (z) = 0.17257 0.17257
#
# Static dielectric constant tensor:
#      x y z
#    x 1.726320 0.000000 0.000000 
#    y 0.000000 1.726320 0.000000 
#    z 0.000000 0.000000 1.712720 
# 
# From -- ./inp_files/9794.got.cif
#   From: 2010.05.17/outbox.cif.g08.bks.cpg/sg137_5_cif.got.tgz:9794.got - 2010.05.20 13:01:12.
