data_PCOD9570326
_publ_section_title
;
Structure prediction by ZEFSAII (Michael W. Deem and Ramdas Pophale) SiO2 
 PCOD9570326
Probable space group: P 42/N M C
;
_chemical_formula_sum "Si O2"
_cell_formula_units_Z 64
_cell_length_a 13.724616
_cell_length_b 13.724616
_cell_length_c 20.058836
_cell_angle_alpha 90.000000
_cell_angle_beta 90.000000
_cell_angle_gamma 90.000000
_cell_volume 3778.384335
_symmetry_space_group_name_H-M "P 42/N M C"
_symmetry_group_IT_number 137
_space_group.IT_coordinate_system_code '2'
_symmetry_cell_setting 'tetragonal'
loop_
_space_group_symop_operation_xyz
x,y,z
1/2-y,x,1/2+z
1/2-x,1/2-y,z
y,1/2-x,1/2+z
1/2+x,-y,-z
-x,1/2+y,-z
1/2+y,1/2+x,1/2-z
-y,-x,1/2-z
-x,-y,-z
1/2+y,-x,1/2-z
1/2+x,1/2+y,-z
-y,1/2+x,1/2-z
1/2-x,y,z
x,1/2-y,z
1/2-y,1/2-x,1/2+z
y,x,1/2+z
loop_
_atom_site_type_symbol
_atom_site_label
_atom_site_fract_x
_atom_site_fract_y
_atom_site_fract_z
Si Si1 0.750000 0.364336 0.377077
Si Si2 0.750000 0.634656 0.354588
Si Si3 0.423550 0.498550 0.439050
Si Si4 0.921400 0.008536 0.321435
Si Si5 0.135432 0.750000 0.034025
Si Si6 0.864654 0.750000 0.014889
O O1 0.750000 0.250000 0.370903
O O2 0.653485 0.407359 0.344069
O O3 0.750000 0.390016 0.455338
O O4 0.750000 0.750000 0.343699
O O5 0.651775 0.584687 0.325459
O O6 0.750000 0.616003 0.434869
O O7 0.500000 0.500000 0.500000
O O8 0.490258 0.496246 0.373797
O O9 0.349280 0.589585 0.437842
O O10 0.346923 0.411176 0.452706
O O11 0.965731 0.034270 0.250000
O O12 0.250000 0.750000 0.041971
O O13 0.750000 0.750000 0.024342
#
# Coordination Sequence:
#
# PCOD9570326 Si02
#       6
#     8   8  16  16   8   8
#     4  10  21  35  58  93 119 144 183 228 295 364
#     4  10  21  41  62  85 113 152 199 238 288 357
#     4  11  19  38  59  83 118 148 194 245 280 346
#     4  11  23  38  57  85 119 160 189 229 298 347
#     4  10  21  37  62  89 111 144 193 248 292 329
#     4  10  21  37  62  89 115 148 195 248 299 336
#
# _framework density 16.938457
#
# number of rings (size 3 to 8) (size 9 to 14) (size 15 to 20)
#    0.000    1.500    5.000    1.500    3.500    3.000 
#    4.500    0.000    0.000    0.000    0.000    0.000 
#    0.000    0.000    0.000    0.000    0.000    0.000 
#
# Total GULP energy -356934.539198 kJ/mol
# GULP energy per Si atom -5577.102175 kJ/mol
# Density = 1.689990 g / cm^3
# Si number density = 16.938457 Si / 1000 Ang^3
#
#
#
# Elastic Constant Matrix: (Units=GPa)
#
#
# Indices 1 2 3 4 5 6 
#
# 1 148.0341 69.6034 77.1781 0.0000 0.0000 0.0000
# 2 69.6034 148.0343 77.1782 0.0000 0.0000 0.0000
# 3 77.1781 77.1782 148.6378 0.0000 0.0000 0.0000
# 4 0.0000 0.0000 0.0000 63.2653 0.0000 0.0000
# 5 0.0000 0.0000 0.0000 0.0000 63.3248 0.0000
# 6 0.0000 0.0000 0.0000 0.0000 0.0000 1.5248
#
#
#
# Elastic Compliance Matrix: (Units=1/GPa)
#
#
# Indices 1 2 3 4 5 6 
#
# 1 0.010012 -0.002738 -0.003777 0.000000 0.000000 0.000000
# 2 -0.002738 0.010012 -0.003777 0.000000 0.000000 0.000000
# 3 -0.003777 -0.003777 0.010650 0.000000 0.000000 0.000000
# 4 0.000000 0.000000 0.000000 0.015806 0.000000 0.000000
# 5 0.000000 0.000000 0.000000 0.000000 0.015792 0.000000
# 6 0.000000 0.000000 0.000000 0.000000 0.000000 0.655839
#
#
# Mechanical properties :
#
#
# Convention : Reuss Voigt Hill
#
# Bulk Modulus (GPa) = 99.10853 99.18062 99.14458
# Shear Modulus (GPa) = 6.73804 40.33941 23.53872
#
# Velocity S-wave (km/s) = 1.99664 4.88538 3.73186
# Velocity P-wave (km/s) = 7.99709 9.51332 8.78797
#
# Compressibility (1/GPa) = 0.01008995
#
# Stress axis : x y z
#
# Youngs Moduli (GPa) = 99.88342 99.88352 93.90034
#
# Poissons Ratio (x) = 0.27352 0.35462
# Poissons Ratio (y) = 0.27352 0.35462
# Poissons Ratio (z) = 0.37721 0.37721
#
# Static dielectric constant tensor:
#      x y z
#    x 1.565900 0.000000 0.000000 
#    y 0.000000 1.565910 0.000000 
#    z 0.000000 0.000000 1.626630 
# 
# From -- ./inp_files/6158.got.cif
#   From: 2010.05.17/outbox.cif.g08.bks.cpg/sg137_4_cif.got.tgz:6158.got - 2010.05.20 13:01:12.
