data_PCOD9570055
_publ_section_title
;
Structure prediction by ZEFSAII (Michael W. Deem and Ramdas Pophale) SiO2 
 PCOD9570055
Probable space group: P 42/N M C
;
_chemical_formula_sum "Si O2"
_cell_formula_units_Z 120
_cell_length_a 18.217704
_cell_length_b 18.217704
_cell_length_c 20.460475
_cell_angle_alpha 90.000000
_cell_angle_beta 90.000000
_cell_angle_gamma 90.000000
_cell_volume 6790.519406
_symmetry_space_group_name_H-M "P 42/N M C"
_symmetry_group_IT_number 137
_space_group.IT_coordinate_system_code '2'
_symmetry_cell_setting 'tetragonal'
loop_
_space_group_symop_operation_xyz
x,y,z
1/2-y,x,1/2+z
1/2-x,1/2-y,z
y,1/2-x,1/2+z
1/2+x,-y,-z
-x,1/2+y,-z
1/2+y,1/2+x,1/2-z
-y,-x,1/2-z
-x,-y,-z
1/2+y,-x,1/2-z
1/2+x,1/2+y,-z
-y,1/2+x,1/2-z
1/2-x,y,z
x,1/2-y,z
1/2-y,1/2-x,1/2+z
y,x,1/2+z
loop_
_atom_site_type_symbol
_atom_site_label
_atom_site_fract_x
_atom_site_fract_y
_atom_site_fract_z
Si Si1 0.664797 0.528798 0.114832
Si Si2 0.166370 0.979483 0.035826
Si Si3 0.881941 0.526087 0.617362
Si Si4 0.423025 0.835075 0.008061
Si Si5 0.567281 0.971619 0.855467
Si Si6 0.833654 0.045759 0.747968
Si Si7 0.329437 0.829437 0.750000
Si Si8 0.114867 0.571951 0.642378
O O1 0.750000 0.536654 0.135037
O O2 0.612011 0.599324 0.124099
O O3 0.624151 0.457849 0.145622
O O4 0.663713 0.509417 0.037680
O O5 0.250000 0.976325 0.058052
O O6 0.132402 0.897160 0.036143
O O7 0.119331 0.032629 0.081844
O O8 0.849808 0.498356 0.548299
O O9 0.836007 0.490662 0.676285
O O10 0.960797 0.486417 0.626219
O O11 0.401382 0.750000 0.017273
O O12 0.427649 0.853126 0.930979
O O13 0.511665 0.906301 0.841754
O O14 0.617474 0.994380 0.794880
O O15 0.876721 0.123280 0.750000
O O16 0.750000 0.052821 0.769894
O O17 0.333684 0.750000 0.716029
O O18 0.334468 0.892567 0.696681
#
# Coordination Sequence:
#
# PCOD9570055 Si02
#       8
#    16  16  16  16  16  16   8  16
#     4   9  17  30  51  76  98 125 166 215 263 305
#     4   9  17  30  48  76 107 134 167 213 260 306
#     4   9  18  31  50  73 102 131 169 215 257 304
#     4  10  19  32  49  72 102 140 176 210 255 314
#     4   9  18  31  51  73 101 135 175 218 254 300
#     4  10  20  33  51  77 105 139 171 209 263 320
#     4  11  24  38  52  76 112 144 169 212 272 328
#     4  10  20  33  53  74 102 136 178 216 258 309
#
# _framework density 17.671697000000002
#
# number of rings (size 3 to 8) (size 9 to 14) (size 15 to 20)
#    0.000    2.467    0.000    2.400    4.667    4.133 
#    0.000    0.000    0.000    6.400    0.000    0.000 
#    0.000    4.800    0.000    0.000    0.000    0.000 
#
# Total GULP energy -668501.807755 kJ/mol
# GULP energy per Si atom -5570.848398 kJ/mol
# Density = 1.763148 g / cm^3
# Si number density = 17.671697 Si / 1000 Ang^3
#
#
#
# Elastic Constant Matrix: (Units=GPa)
#
#
# Indices 1 2 3 4 5 6 
#
# 1 93.6920 48.1989 21.8621 0.0000 0.0000 0.0000
# 2 48.1989 93.6920 21.8624 0.0000 0.0000 0.0000
# 3 21.8621 21.8624 52.2351 0.0000 0.0000 0.0000
# 4 0.0000 0.0000 0.0000 11.1601 0.0000 0.0000
# 5 0.0000 0.0000 0.0000 0.0000 11.1599 0.0000
# 6 0.0000 0.0000 0.0000 0.0000 0.0000 15.9670
#
#
#
# Elastic Compliance Matrix: (Units=1/GPa)
#
#
# Indices 1 2 3 4 5 6 
#
# 1 0.015036 -0.006945 -0.003386 0.000000 0.000000 0.000000
# 2 -0.006945 0.015036 -0.003387 0.000000 0.000000 0.000000
# 3 -0.003386 -0.003387 0.021979 0.000000 0.000000 0.000000
# 4 0.000000 0.000000 0.000000 0.089605 0.000000 0.000000
# 5 0.000000 0.000000 0.000000 0.000000 0.089607 0.000000
# 6 0.000000 0.000000 0.000000 0.000000 0.000000 0.062629
#
#
# Mechanical properties :
#
#
# Convention : Reuss Voigt Hill
#
# Bulk Modulus (GPa) = 40.62481 47.05178 43.83830
# Shear Modulus (GPa) = 15.17295 17.50376 16.33836
#
# Velocity S-wave (km/s) = 2.93337 3.15063 3.04394
# Velocity P-wave (km/s) = 5.87464 6.31812 6.10041
#
# Compressibility (1/GPa) = 0.02461550
#
# Stress axis : x y z
#
# Youngs Moduli (GPa) = 66.50586 66.50563 45.49814
#
# Poissons Ratio (x) = 0.46189 0.15407
# Poissons Ratio (y) = 0.46189 0.15408
# Poissons Ratio (z) = 0.22521 0.22522
#
# Static dielectric constant tensor:
#      x y z
#    x 1.614030 0.000000 0.000000 
#    y 0.000000 1.614030 0.000000 
#    z 0.000000 0.000000 1.624960 
# 
# From -- ./inp_files/8183.got.cif
#   From: 2010.05.17/outbox.cif.g08.bks.cpg/sg137_5_cif.got.tgz:8183.got - 2010.05.20 13:01:12.
