data_PCOD9570385
_publ_section_title
;
Structure prediction by ZEFSAII (Michael W. Deem and Ramdas Pophale) SiO2 
 PCOD9570385
Probable space group: P 42/N M C
;
_chemical_formula_sum "Si O2"
_cell_formula_units_Z 64
_cell_length_a 13.252343
_cell_length_b 13.252343
_cell_length_c 15.100344
_cell_angle_alpha 90.000000
_cell_angle_beta 90.000000
_cell_angle_gamma 90.000000
_cell_volume 2651.991799
_symmetry_space_group_name_H-M "P 42/N M C"
_symmetry_group_IT_number 137
_space_group.IT_coordinate_system_code '2'
_symmetry_cell_setting 'tetragonal'
loop_
_space_group_symop_operation_xyz
x,y,z
1/2-y,x,1/2+z
1/2-x,1/2-y,z
y,1/2-x,1/2+z
1/2+x,-y,-z
-x,1/2+y,-z
1/2+y,1/2+x,1/2-z
-y,-x,1/2-z
-x,-y,-z
1/2+y,-x,1/2-z
1/2+x,1/2+y,-z
-y,1/2+x,1/2-z
1/2-x,y,z
x,1/2-y,z
1/2-y,1/2-x,1/2+z
y,x,1/2+z
loop_
_atom_site_type_symbol
_atom_site_label
_atom_site_fract_x
_atom_site_fract_y
_atom_site_fract_z
Si Si1 0.137660 0.922119 0.651844
Si Si2 0.636646 0.516913 0.998612
Si Si3 0.364687 0.364881 0.736476
Si Si4 0.016967 0.865032 0.101084
O O1 0.122816 0.877185 0.750000
O O2 0.250000 0.899112 0.619812
O O3 0.056978 0.878081 0.583897
O O4 0.128567 0.042339 0.669314
O O5 0.750000 0.551534 0.992472
O O6 0.561017 0.607491 0.022080
O O7 0.604612 0.445714 0.916537
O O8 0.250000 0.372331 0.775605
O O9 0.372740 0.250000 0.701685
O O10 0.451577 0.377704 0.809871
O O11 0.051568 0.750000 0.096882
#
# Coordination Sequence:
#
# PCOD9570385 Si02
#       4
#    16  16  16  16
#     4  11  21  34  55  85 119 154 192 240 300 362
#     4  11  23  39  60  89 122 156 198 247 300 361
#     4   9  18  36  61  84 111 153 200 244 296 357
#     4  10  21  38  60  83 113 155 199 242 289 350
#
# _framework density 24.132804
#
# number of rings (size 3 to 8) (size 9 to 14) (size 15 to 20)
#    0.000    1.750    2.500    2.250    0.000    4.750 
#    0.000    6.250    0.000   13.500    0.000    0.000 
#    0.000    0.000    0.000    0.000    0.000    0.000 
#
# Total GULP energy -358158.606033 kJ/mol
# GULP energy per Si atom -5596.228219 kJ/mol
# Density = 2.407788 g / cm^3
# Si number density = 24.132804 Si / 1000 Ang^3
#
#
#
# Elastic Constant Matrix: (Units=GPa)
#
#
# Indices 1 2 3 4 5 6 
#
# 1 70.1964 -40.5510 -13.2272 0.0000 0.0000 0.0000
# 2 -40.5510 70.1965 -13.2271 0.0000 0.0000 0.0000
# 3 -13.2272 -13.2271 89.5172 0.0000 0.0000 0.0000
# 4 0.0000 0.0000 0.0000 24.3160 0.0000 0.0000
# 5 0.0000 0.0000 0.0000 0.0000 24.3158 0.0000
# 6 0.0000 0.0000 0.0000 0.0000 0.0000 23.4560
#
#
#
# Elastic Compliance Matrix: (Units=1/GPa)
#
#
# Indices 1 2 3 4 5 6 
#
# 1 0.023942 0.014913 0.005741 0.000000 0.000000 0.000000
# 2 0.014913 0.023942 0.005741 0.000000 0.000000 0.000000
# 3 0.005741 0.005741 0.012868 0.000000 0.000000 0.000000
# 4 0.000000 0.000000 0.000000 0.041125 0.000000 0.000000
# 5 0.000000 0.000000 0.000000 0.000000 0.041125 0.000000
# 6 0.000000 0.000000 0.000000 0.000000 0.000000 0.042633
#
#
# Mechanical properties :
#
#
# Convention : Reuss Voigt Hill
#
# Bulk Modulus (GPa) = 8.80720 10.65550 9.73135
# Shear Modulus (GPa) = 29.29233 34.21193 31.75213
#
# Velocity S-wave (km/s) = 3.48774 3.76926 3.63123
# Velocity P-wave (km/s) = 4.45831 4.83405 4.64997
#
# Compressibility (1/GPa) = 0.11354350
#
# Stress axis : x y z
#
# Youngs Moduli (GPa) = 41.76685 41.76687 77.71386
#
# Poissons Ratio (x) = -0.62286 -0.44618
# Poissons Ratio (y) = -0.62286 -0.44618
# Poissons Ratio (z) = -0.23980 -0.23980
#
# Static dielectric constant tensor:
#      x y z
#    x 1.927390 0.000000 0.000000 
#    y 0.000000 1.927390 0.000000 
#    z 0.000000 0.000000 1.993230 
# 
# From -- ./inp_files/4730.got.cif
#   From: 2010.05.17/outbox.cif.g08.bks.cpg/sg137_3_cif.got.tgz:4730.got - 2010.05.20 13:01:12.
