data_PCOD9570967
_publ_section_title
;
Structure prediction by ZEFSAII (Michael W. Deem and Ramdas Pophale) SiO2 
 PCOD9570967
Probable space group: P 42/N C M
;
_chemical_formula_sum "Si O2"
_cell_formula_units_Z 48
_cell_length_a 9.301297
_cell_length_b 9.301297
_cell_length_c 21.775528
_cell_angle_alpha 90.000000
_cell_angle_beta 90.000000
_cell_angle_gamma 90.000000
_cell_volume 1883.890771
_symmetry_space_group_name_H-M "P 42/N C M"
_symmetry_group_IT_number 138
_space_group.IT_coordinate_system_code '2'
_symmetry_cell_setting 'tetragonal'
loop_
_space_group_symop_operation_xyz
x,y,z
1/2-y,x,1/2+z
1/2-x,1/2-y,z
y,1/2-x,1/2+z
1/2+x,-y,1/2-z
-x,1/2+y,1/2-z
1/2+y,1/2+x,-z
-y,-x,-z
-x,-y,-z
1/2+y,-x,1/2-z
1/2+x,1/2+y,-z
-y,1/2+x,1/2-z
1/2-x,y,1/2+z
x,1/2-y,1/2+z
1/2-y,1/2-x,z
y,x,z
loop_
_atom_site_type_symbol
_atom_site_label
_atom_site_fract_x
_atom_site_fract_y
_atom_site_fract_z
Si Si1 0.195859 0.550567 0.091431
Si Si2 0.699122 0.035697 0.772495
Si Si3 0.018665 0.265326 0.457039
O O1 0.261735 0.534866 0.158301
O O2 0.281618 0.523175 0.028737
O O3 0.073178 0.426823 0.091270
O O4 0.110399 0.699308 0.081284
O O5 0.583714 0.167364 0.769395
O O6 0.610842 0.889159 0.759568
O O7 0.093666 0.406335 0.431796
O O8 0.140528 0.140528 0.457024
#
# Coordination Sequence:
#
# PCOD9570967 Si02
#       3
#    16  16  16
#     4   8  15  28  46  73 108 141 178 226 278 333
#     4  10  22  39  58  82 114 153 196 240 284 334
#     4   8  13  23  44  75 107 137 172 221 281 338
#
# _framework density 25.479185999999999
#
# number of rings (size 3 to 8) (size 9 to 14) (size 15 to 20)
#    0.000    3.333    0.000    2.000    0.000    3.333 
#    0.000    6.667    0.000   16.000    0.000   18.667 
#    0.000    0.000    0.000    0.000    0.000    0.000 
#
# Total GULP energy -268488.774638 kJ/mol
# GULP energy per Si atom -5593.516138 kJ/mol
# Density = 2.542119 g / cm^3
# Si number density = 25.479186 Si / 1000 Ang^3
#
#
#
# Elastic Constant Matrix: (Units=GPa)
#
#
# Indices 1 2 3 4 5 6 
#
# 1 79.6667 28.3869 5.4921 0.0000 0.0000 0.0000
# 2 28.3869 79.6667 5.4921 0.0000 0.0000 0.0000
# 3 5.4921 5.4921 80.3518 0.0000 0.0000 0.0000
# 4 0.0000 0.0000 0.0000 0.7522 0.0000 0.0000
# 5 0.0000 0.0000 0.0000 0.0000 0.7522 0.0000
# 6 0.0000 0.0000 0.0000 0.0000 0.0000 43.7675
#
#
#
# Elastic Compliance Matrix: (Units=1/GPa)
#
#
# Indices 1 2 3 4 5 6 
#
# 1 0.014410 -0.005091 -0.000637 0.000000 0.000000 0.000000
# 2 -0.005091 0.014410 -0.000637 0.000000 0.000000 0.000000
# 3 -0.000637 -0.000637 0.012532 0.000000 0.000000 0.000000
# 4 0.000000 0.000000 0.000000 1.329398 0.000000 0.000000
# 5 0.000000 0.000000 0.000000 0.000000 1.329398 0.000000
# 6 0.000000 0.000000 0.000000 0.000000 0.000000 0.022848
#
#
# Mechanical properties :
#
#
# Convention : Reuss Voigt Hill
#
# Bulk Modulus (GPa) = 34.93667 35.38083 35.15875
# Shear Modulus (GPa) = 1.82132 22.40866 12.11499
#
# Velocity S-wave (km/s) = 0.84639 2.96884 2.18293
# Velocity P-wave (km/s) = 3.83364 5.06639 4.49250
#
# Compressibility (1/GPa) = 0.02862322
#
# Stress axis : x y z
#
# Youngs Moduli (GPa) = 69.39559 69.39559 79.79350
#
# Poissons Ratio (x) = 0.35327 0.05083
# Poissons Ratio (y) = 0.35327 0.05083
# Poissons Ratio (z) = 0.04420 0.04420
#
# Static dielectric constant tensor:
#      x y z
#    x 2.022200 0.000000 0.000000 
#    y 0.000000 2.022200 0.000000 
#    z 0.000000 0.000000 1.898150 
# 
# From -- ./inp_files/5613.got.cif
#   From: 2010.05.17/outbox.cif.g08.bks.cpg/sg138_3_cif.got.tgz:5613.got - 2010.05.20 13:08:53.
