data_PCOD9570443
_publ_section_title
;
Structure prediction by ZEFSAII (Michael W. Deem and Ramdas Pophale) SiO2 
 PCOD9570443
Probable space group: P 42/N M C
;
_chemical_formula_sum "Si O2"
_cell_formula_units_Z 64
_cell_length_a 11.633585
_cell_length_b 11.633585
_cell_length_c 23.475850
_cell_angle_alpha 90.000000
_cell_angle_beta 90.000000
_cell_angle_gamma 90.000000
_cell_volume 3177.228581
_symmetry_space_group_name_H-M "P 42/N M C"
_symmetry_group_IT_number 137
_space_group.IT_coordinate_system_code '2'
_symmetry_cell_setting 'tetragonal'
loop_
_space_group_symop_operation_xyz
x,y,z
1/2-y,x,1/2+z
1/2-x,1/2-y,z
y,1/2-x,1/2+z
1/2+x,-y,-z
-x,1/2+y,-z
1/2+y,1/2+x,1/2-z
-y,-x,1/2-z
-x,-y,-z
1/2+y,-x,1/2-z
1/2+x,1/2+y,-z
-y,1/2+x,1/2-z
1/2-x,y,z
x,1/2-y,z
1/2-y,1/2-x,1/2+z
y,x,1/2+z
loop_
_atom_site_type_symbol
_atom_site_label
_atom_site_fract_x
_atom_site_fract_y
_atom_site_fract_z
Si Si1 0.970413 0.556263 0.906387
Si Si2 0.385153 0.250000 0.798631
Si Si3 0.621973 0.618870 0.526028
Si Si4 0.888204 0.750000 0.338124
Si Si5 0.510955 0.387600 0.308131
O O1 0.860324 0.551436 0.865567
O O2 0.026794 0.448061 0.938155
O O3 0.069866 0.587930 0.861282
O O4 0.924620 0.626045 0.960829
O O5 0.250000 0.250000 0.813230
O O6 0.396545 0.250000 0.729874
O O7 0.427296 0.377144 0.817189
O O8 0.750000 0.624586 0.549180
O O9 0.573761 0.750000 0.527591
O O10 0.750000 0.750000 0.351615
O O11 0.558412 0.441588 0.250000
O O12 0.510900 0.250000 0.303740
#
# Coordination Sequence:
#
# PCOD9570443 Si02
#       5
#    16   8  16   8  16
#     4  11  22  37  64  93 122 157 209 260 306 368
#     4   9  20  38  62  88 116 162 206 243 296 373
#     4  10  22  41  65  90 120 162 210 260 312 370
#     4  11  20  38  67  91 121 169 214 249 300 373
#     4  11  23  39  62  93 127 160 205 258 315 373
#
# _framework density 20.143340999999999
#
# number of rings (size 3 to 8) (size 9 to 14) (size 15 to 20)
#    0.000    1.500    3.750    1.500    1.750    1.250 
#    0.000    0.625    0.000    8.625    0.000    0.000 
#    0.000    0.000    0.000    0.000    0.000    0.000 
#
# Total GULP energy -356379.846956 kJ/mol
# GULP energy per Si atom -5568.435109 kJ/mol
# Density = 2.009749 g / cm^3
# Si number density = 20.143341 Si / 1000 Ang^3
#
#
#
# Elastic Constant Matrix: (Units=GPa)
#
#
# Indices 1 2 3 4 5 6 
#
# 1 82.9526 46.9041 14.9795 0.0000 0.0000 0.0000
# 2 46.9041 82.9513 14.9793 0.0000 0.0000 0.0000
# 3 14.9795 14.9793 84.9127 0.0000 0.0000 0.0000
# 4 0.0000 0.0000 0.0000 9.2498 0.0000 0.0000
# 5 0.0000 0.0000 0.0000 0.0000 9.2495 0.0000
# 6 0.0000 0.0000 0.0000 0.0000 0.0000 17.7480
#
#
#
# Elastic Compliance Matrix: (Units=1/GPa)
#
#
# Indices 1 2 3 4 5 6 
#
# 1 0.017884 -0.009857 -0.001416 0.000000 0.000000 0.000000
# 2 -0.009857 0.017884 -0.001416 0.000000 0.000000 0.000000
# 3 -0.001416 -0.001416 0.012276 0.000000 0.000000 0.000000
# 4 0.000000 0.000000 0.000000 0.108110 0.000000 0.000000
# 5 0.000000 0.000000 0.000000 0.000000 0.108114 0.000000
# 6 0.000000 0.000000 0.000000 0.000000 0.000000 0.056345
#
#
# Mechanical properties :
#
#
# Convention : Reuss Voigt Hill
#
# Bulk Modulus (GPa) = 44.11699 44.94914 44.53307
# Shear Modulus (GPa) = 14.14237 18.84636 16.49436
#
# Velocity S-wave (km/s) = 2.65257 3.06210 2.86466
# Velocity P-wave (km/s) = 5.59737 5.90466 5.75307
#
# Compressibility (1/GPa) = 0.02266700
#
# Stress axis : x y z
#
# Youngs Moduli (GPa) = 55.91558 55.91472 81.45686
#
# Poissons Ratio (x) = 0.55113 0.11535
# Poissons Ratio (y) = 0.55114 0.11535
# Poissons Ratio (z) = 0.07918 0.07918
#
# Static dielectric constant tensor:
#      x y z
#    x 1.721470 0.000000 0.000000 
#    y 0.000000 1.721470 0.000000 
#    z 0.000000 0.000000 1.760400 
# 
# From -- ./inp_files/8610.got.cif
#   From: 2010.05.17/outbox.cif.g08.bks.cpg/sg137_5_cif.got.tgz:8610.got - 2010.05.20 13:01:12.
