data_PCOD9570825
_publ_section_title
;
Structure prediction by ZEFSAII (Michael W. Deem and Ramdas Pophale) SiO2 
 PCOD9570825
Probable space group: P 42/N C M
;
_chemical_formula_sum "Si O2"
_cell_formula_units_Z 96
_cell_length_a 21.122550
_cell_length_b 21.122550
_cell_length_c 11.794659
_cell_angle_alpha 90.000000
_cell_angle_beta 90.000000
_cell_angle_gamma 90.000000
_cell_volume 5262.330046
_symmetry_space_group_name_H-M "P 42/N C M"
_symmetry_group_IT_number 138
_space_group.IT_coordinate_system_code '2'
_symmetry_cell_setting 'tetragonal'
loop_
_space_group_symop_operation_xyz
x,y,z
1/2-y,x,1/2+z
1/2-x,1/2-y,z
y,1/2-x,1/2+z
1/2+x,-y,1/2-z
-x,1/2+y,1/2-z
1/2+y,1/2+x,-z
-y,-x,-z
-x,-y,-z
1/2+y,-x,1/2-z
1/2+x,1/2+y,-z
-y,1/2+x,1/2-z
1/2-x,y,1/2+z
x,1/2-y,1/2+z
1/2-y,1/2-x,z
y,x,z
loop_
_atom_site_type_symbol
_atom_site_label
_atom_site_fract_x
_atom_site_fract_y
_atom_site_fract_z
Si Si1 0.274729 0.973321 0.138446
Si Si2 0.849946 0.261877 0.273736
Si Si3 0.078488 0.830164 0.569405
Si Si4 0.863763 0.460086 0.463939
Si Si5 0.032152 0.135076 0.797912
Si Si6 0.067295 0.529582 0.760721
O O1 0.289763 0.906315 0.199447
O O2 0.201726 0.966653 0.103592
O O3 0.300087 0.025586 0.226364
O O4 0.309989 0.975304 0.018583
O O5 0.814337 0.203948 0.209521
O O6 0.883426 0.230408 0.382237
O O7 0.126789 0.873212 0.500000
O O8 0.049972 0.871100 0.670797
O O9 0.890052 0.390052 0.500000
O O10 0.858750 0.503346 0.575703
O O11 0.915562 0.480601 0.371033
O O12 0.099676 0.099676 0.800274
O O13 0.983479 0.086449 0.736493
O O14 0.032434 0.467567 0.807027
#
# Coordination Sequence:
#
# PCOD9570825 Si02
#       6
#    16  16  16  16  16  16
#     4  12  23  35  57  80 116 154 193 235 298 341
#     4  11  23  37  50  73 110 158 208 237 268 325
#     4  12  22  35  50  74 108 147 193 242 293 333
#     4  10  22  37  59  83 115 153 198 243 288 351
#     4  10  21  39  59  82 112 152 195 243 296 345
#     4  10  20  37  59  81 107 147 198 248 297 347
#
# _framework density 18.24287
#
# number of rings (size 3 to 8) (size 9 to 14) (size 15 to 20)
#    0.000    1.167    5.000    1.500    4.667    3.000 
#    0.000    0.000    0.000    0.000    0.000    0.000 
#    0.000    5.333    0.000    0.000    0.000    0.000 
#
# Total GULP energy -535522.000391 kJ/mol
# GULP energy per Si atom -5578.354171 kJ/mol
# Density = 1.820135 g / cm^3
# Si number density = 18.242870 Si / 1000 Ang^3
#
#
#
# Elastic Constant Matrix: (Units=GPa)
#
#
# Indices 1 2 3 4 5 6 
#
# 1 53.9009 38.7395 28.6994 0.0000 0.0000 0.0000
# 2 38.7395 53.9015 28.6995 0.0000 0.0000 0.0000
# 3 28.6994 28.6995 92.4045 0.0000 0.0000 0.0000
# 4 0.0000 0.0000 0.0000 11.7669 0.0000 0.0000
# 5 0.0000 0.0000 0.0000 0.0000 11.7659 0.0000
# 6 0.0000 0.0000 0.0000 0.0000 0.0000 29.4822
#
#
#
# Elastic Compliance Matrix: (Units=1/GPa)
#
#
# Indices 1 2 3 4 5 6 
#
# 1 0.039661 -0.026295 -0.004151 0.000000 0.000000 0.000000
# 2 -0.026295 0.039661 -0.004151 0.000000 0.000000 0.000000
# 3 -0.004151 -0.004151 0.013401 0.000000 0.000000 0.000000
# 4 0.000000 0.000000 0.000000 0.084984 0.000000 0.000000
# 5 0.000000 0.000000 0.000000 0.000000 0.084991 0.000000
# 6 0.000000 0.000000 0.000000 0.000000 0.000000 0.033919
#
#
# Mechanical properties :
#
#
# Convention : Reuss Voigt Hill
#
# Bulk Modulus (GPa) = 42.50243 43.60931 43.05587
# Shear Modulus (GPa) = 13.38132 17.54090 15.46111
#
# Velocity S-wave (km/s) = 2.71128 3.10420 2.91437
# Velocity P-wave (km/s) = 5.75761 6.06670 5.91417
#
# Compressibility (1/GPa) = 0.02352807
#
# Stress axis : x y z
#
# Youngs Moduli (GPa) = 25.21340 25.21370 74.62275
#
# Poissons Ratio (x) = 0.66299 0.30979
# Poissons Ratio (y) = 0.66298 0.30979
# Poissons Ratio (z) = 0.10467 0.10467
#
# Static dielectric constant tensor:
#      x y z
#    x 1.641780 0.000000 0.000000 
#    y 0.000000 1.641780 0.000000 
#    z 0.000000 0.000000 1.671080 
# 
# From -- ./inp_files/3105.got.cif
#   From: 2010.05.17/outbox.cif.g08.bks.cpg/sg138_2_cif.got.tgz:3105.got - 2010.05.20 13:08:53.
