data_PCOD9570901
_publ_section_title
;
Structure prediction by ZEFSAII (Michael W. Deem and Ramdas Pophale) SiO2 
 PCOD9570901
Probable space group: P 42/N C M
;
_chemical_formula_sum "Si O2"
_cell_formula_units_Z 64
_cell_length_a 19.318459
_cell_length_b 19.318459
_cell_length_c 8.298512
_cell_angle_alpha 90.000000
_cell_angle_beta 90.000000
_cell_angle_gamma 90.000000
_cell_volume 3097.028397
_symmetry_space_group_name_H-M "P 42/N C M"
_symmetry_group_IT_number 138
_space_group.IT_coordinate_system_code '2'
_symmetry_cell_setting 'tetragonal'
loop_
_space_group_symop_operation_xyz
x,y,z
1/2-y,x,1/2+z
1/2-x,1/2-y,z
y,1/2-x,1/2+z
1/2+x,-y,1/2-z
-x,1/2+y,1/2-z
1/2+y,1/2+x,-z
-y,-x,-z
-x,-y,-z
1/2+y,-x,1/2-z
1/2+x,1/2+y,-z
-y,1/2+x,1/2-z
1/2-x,y,1/2+z
x,1/2-y,1/2+z
1/2-y,1/2-x,z
y,x,z
loop_
_atom_site_type_symbol
_atom_site_label
_atom_site_fract_x
_atom_site_fract_y
_atom_site_fract_z
Si Si1 0.303916 0.414507 0.057621
Si Si2 0.905338 0.304096 0.069701
Si Si3 0.942096 0.159616 0.933497
Si Si4 0.549813 0.660038 0.573698
O O1 0.342600 0.342600 0.027548
O O2 0.334812 0.475226 0.945127
O O3 0.222212 0.414773 0.026936
O O4 0.320651 0.438142 0.239632
O O5 0.916779 0.324606 0.254054
O O6 0.834923 0.334923 0.000000
O O7 0.912916 0.222153 0.044211
O O8 0.969248 0.337552 0.969937
O O9 0.911451 0.088549 0.000000
O O10 0.588139 0.588139 0.540829
#
# Coordination Sequence:
#
# PCOD9570901 Si02
#       4
#    16  16  16  16
#     4  10  21  37  57  82 112 146 185 228 275 326
#     4  11  22  38  59  83 112 145 183 226 274 326
#     4  11  22  38  59  83 112 145 183 226 274 326
#     4  10  21  37  57  82 112 146 185 228 275 326
#
# _framework density 20.664968999999999
#
# number of rings (size 3 to 8) (size 9 to 14) (size 15 to 20)
#    0.000    1.500    0.000    9.000    0.000    6.000 
#    0.000    5.000    0.000    0.000    0.000    0.000 
#    0.000    0.000    0.000    0.000    0.000    0.000 
#
# Total GULP energy -357826.494979 kJ/mol
# GULP energy per Si atom -5591.038984 kJ/mol
# Density = 2.061794 g / cm^3
# Si number density = 20.664969 Si / 1000 Ang^3
#
#
#
# Elastic Constant Matrix: (Units=GPa)
#
#
# Indices 1 2 3 4 5 6 
#
# 1 20.3650 14.2421 -17.2211 0.0000 0.0000 0.0000
# 2 14.2421 20.3711 -17.2189 0.0000 0.0000 0.0000
# 3 -17.2211 -17.2189 75.7225 0.0000 0.0000 0.0000
# 4 0.0000 0.0000 0.0000 25.0074 0.0000 0.0000
# 5 0.0000 0.0000 0.0000 0.0000 25.0070 0.0000
# 6 0.0000 0.0000 0.0000 0.0000 0.0000 46.2846
#
#
#
# Elastic Compliance Matrix: (Units=1/GPa)
#
#
# Indices 1 2 3 4 5 6 
#
# 1 0.100313 -0.062948 0.008500 0.000000 0.000000 0.000000
# 2 -0.062948 0.100270 0.008485 0.000000 0.000000 0.000000
# 3 0.008500 0.008485 0.017069 0.000000 0.000000 0.000000
# 4 0.000000 0.000000 0.000000 0.039988 0.000000 0.000000
# 5 0.000000 0.000000 0.000000 0.000000 0.039989 0.000000
# 6 0.000000 0.000000 0.000000 0.000000 0.000000 0.021605
#
#
# Mechanical properties :
#
#
# Convention : Reuss Voigt Hill
#
# Bulk Modulus (GPa) = 7.95381 8.45140 8.20260
# Shear Modulus (GPa) = 11.03584 28.37023 19.70304
#
# Velocity S-wave (km/s) = 2.31343 3.70924 3.09115
# Velocity P-wave (km/s) = 3.31560 4.73743 4.08879
#
# Compressibility (1/GPa) = 0.12572596
#
# Stress axis : x y z
#
# Youngs Moduli (GPa) = 9.96877 9.97307 58.58705
#
# Poissons Ratio (x) = 0.62778 -0.49797
# Poissons Ratio (y) = 0.62751 -0.49712
# Poissons Ratio (z) = -0.08473 -0.08462
#
# Static dielectric constant tensor:
#      x y z
#    x 1.709220 0.000000 0.000000 
#    y 0.000000 1.709210 0.000000 
#    z 0.000000 0.000000 1.742290 
# 
# From -- ./inp_files/1386.got.cif
#   From: 2010.05.17/outbox.cif.g08.bks.cpg/sg138_1_cif.got.tgz:1386.got - 2010.05.20 13:08:53.
