data_PCOD9570849
_publ_section_title
;
Structure prediction by ZEFSAII (Michael W. Deem and Ramdas Pophale) SiO2 
 PCOD9570849
Probable space group: P 42/N C M
;
_chemical_formula_sum "Si O2"
_cell_formula_units_Z 112
_cell_length_a 15.376701
_cell_length_b 15.376701
_cell_length_c 23.685583
_cell_angle_alpha 90.000000
_cell_angle_beta 90.000000
_cell_angle_gamma 90.000000
_cell_volume 5600.288730
_symmetry_space_group_name_H-M "P 42/N C M"
_symmetry_group_IT_number 138
_space_group.IT_coordinate_system_code '2'
_symmetry_cell_setting 'tetragonal'
loop_
_space_group_symop_operation_xyz
x,y,z
1/2-y,x,1/2+z
1/2-x,1/2-y,z
y,1/2-x,1/2+z
1/2+x,-y,1/2-z
-x,1/2+y,1/2-z
1/2+y,1/2+x,-z
-y,-x,-z
-x,-y,-z
1/2+y,-x,1/2-z
1/2+x,1/2+y,-z
-y,1/2+x,1/2-z
1/2-x,y,1/2+z
x,1/2-y,1/2+z
1/2-y,1/2-x,z
y,x,z
loop_
_atom_site_type_symbol
_atom_site_label
_atom_site_fract_x
_atom_site_fract_y
_atom_site_fract_z
Si Si1 0.871152 0.485116 0.461554
Si Si2 0.071983 0.845681 0.355589
Si Si3 0.253240 0.107850 0.842328
Si Si4 0.827136 0.973842 0.474118
Si Si5 0.846801 0.137484 0.862274
Si Si6 0.493094 0.636569 0.230895
Si Si7 0.450458 0.706653 0.588333
O O1 0.903889 0.403889 0.500000
O O2 0.778284 0.527963 0.475044
O O3 0.869890 0.447831 0.398457
O O4 0.941881 0.558120 0.468770
O O5 0.128774 0.756449 0.353442
O O6 0.022677 0.855211 0.297122
O O7 0.135470 0.926516 0.365033
O O8 0.013180 0.844972 0.411987
O O9 0.344493 0.155508 0.833133
O O10 0.182102 0.182102 0.851902
O O11 0.217889 0.050209 0.790870
O O12 0.255382 0.043882 0.895423
O O13 0.888242 0.888242 0.481737
O O14 0.838717 0.038651 0.527787
O O15 0.904111 0.138630 0.805399
O O16 0.878632 0.218681 0.900960
O O17 0.550416 0.550416 0.218396
#
# Coordination Sequence:
#
# PCOD9570849 Si02
#       7
#    16  16  16  16  16  16  16
#     4  10  20  39  66  92 125 166 212 261 314 379
#     4  11  25  40  60  92 128 167 213 264 322 379
#     4   9  20  39  63  91 121 156 206 265 320 378
#     4  11  24  41  62  93 132 167 211 264 321 381
#     4  10  22  40  62  92 124 167 212 268 316 377
#     4  10  22  40  62  89 125 167 214 264 322 388
#     4  11  22  40  63  92 123 168 213 260 319 381
#
# _framework density 19.998968000000001
#
# number of rings (size 3 to 8) (size 9 to 14) (size 15 to 20)
#    0.000    1.714    1.429    2.143    4.000    4.286 
#    0.000    4.286    0.000    3.429    0.000    0.000 
#    0.000    0.000    0.000    0.000    0.000    0.000 
#
# Total GULP energy -624264.007919 kJ/mol
# GULP energy per Si atom -5573.785785 kJ/mol
# Density = 1.995345 g / cm^3
# Si number density = 19.998968 Si / 1000 Ang^3
#
#
#
# Elastic Constant Matrix: (Units=GPa)
#
#
# Indices 1 2 3 4 5 6 
#
# 1 59.8354 37.3294 23.3339 0.0000 0.0000 0.0000
# 2 37.3294 59.8354 23.3339 0.0000 0.0000 0.0000
# 3 23.3339 23.3339 116.5981 0.0000 0.0000 0.0000
# 4 0.0000 0.0000 0.0000 20.4534 0.0000 0.0000
# 5 0.0000 0.0000 0.0000 0.0000 20.4534 0.0000
# 6 0.0000 0.0000 0.0000 0.0000 0.0000 25.4003
#
#
#
# Elastic Compliance Matrix: (Units=1/GPa)
#
#
# Indices 1 2 3 4 5 6 
#
# 1 0.027909 -0.016523 -0.002279 0.000000 0.000000 0.000000
# 2 -0.016523 0.027909 -0.002279 0.000000 0.000000 0.000000
# 3 -0.002279 -0.002279 0.009488 0.000000 0.000000 0.000000
# 4 0.000000 0.000000 0.000000 0.048892 0.000000 0.000000
# 5 0.000000 0.000000 0.000000 0.000000 0.048892 0.000000
# 6 0.000000 0.000000 0.000000 0.000000 0.000000 0.039370
#
#
# Mechanical properties :
#
#
# Convention : Reuss Voigt Hill
#
# Bulk Modulus (GPa) = 43.20333 44.91813 44.06073
# Shear Modulus (GPa) = 19.81480 23.41286 21.61383
#
# Velocity S-wave (km/s) = 3.15110 3.42527 3.29104
# Velocity P-wave (km/s) = 5.90668 6.17675 6.04323
#
# Compressibility (1/GPa) = 0.02314637
#
# Stress axis : x y z
#
# Youngs Moduli (GPa) = 35.83016 35.83016 105.39091
#
# Poissons Ratio (x) = 0.59203 0.24015
# Poissons Ratio (y) = 0.59203 0.24015
# Poissons Ratio (z) = 0.08164 0.08164
#
# Static dielectric constant tensor:
#      x y z
#    x 1.717880 0.000000 0.000000 
#    y 0.000000 1.717880 0.000000 
#    z 0.000000 0.000000 1.705490 
# 
# From -- ./inp_files/7091.got.cif
#   From: 2010.05.17/outbox.cif.g08.bks.cpg/sg138_4_cif.got.tgz:7091.got - 2010.05.20 13:08:53.
