data_PCOD9570903
_publ_section_title
;
Structure prediction by ZEFSAII (Michael W. Deem and Ramdas Pophale) SiO2 
 PCOD9570903
Probable space group: P 42/N C M
;
_chemical_formula_sum "Si O2"
_cell_formula_units_Z 96
_cell_length_a 24.298383
_cell_length_b 24.298383
_cell_length_c 8.515143
_cell_angle_alpha 90.000000
_cell_angle_beta 90.000000
_cell_angle_gamma 90.000000
_cell_volume 5027.437640
_symmetry_space_group_name_H-M "P 42/N C M"
_symmetry_group_IT_number 138
_space_group.IT_coordinate_system_code '2'
_symmetry_cell_setting 'tetragonal'
loop_
_space_group_symop_operation_xyz
x,y,z
1/2-y,x,1/2+z
1/2-x,1/2-y,z
y,1/2-x,1/2+z
1/2+x,-y,1/2-z
-x,1/2+y,1/2-z
1/2+y,1/2+x,-z
-y,-x,-z
-x,-y,-z
1/2+y,-x,1/2-z
1/2+x,1/2+y,-z
-y,1/2+x,1/2-z
1/2-x,y,1/2+z
x,1/2-y,1/2+z
1/2-y,1/2-x,z
y,x,z
loop_
_atom_site_type_symbol
_atom_site_label
_atom_site_fract_x
_atom_site_fract_y
_atom_site_fract_z
Si Si1 0.817442 0.908398 0.191360
Si Si2 0.302555 0.109586 0.676089
Si Si3 0.887297 0.525421 0.198083
Si Si4 0.683453 0.304851 0.313602
Si Si5 0.901027 0.507740 0.828921
Si Si6 0.591985 0.386869 0.181533
O O1 0.859061 0.859061 0.229451
O O2 0.759801 0.895881 0.272262
O O3 0.847953 0.962453 0.254659
O O4 0.810172 0.909558 0.003680
O O5 0.329868 0.170133 0.688471
O O6 0.339103 0.069813 0.784784
O O7 0.942673 0.557328 0.253165
O O8 0.871914 0.471966 0.296812
O O9 0.895911 0.508908 0.017289
O O10 0.690516 0.309485 0.500000
O O11 0.740936 0.323852 0.234132
O O12 0.633062 0.342635 0.257757
O O13 0.954599 0.545402 0.788102
O O14 0.904019 0.446140 0.766144
O O15 0.606691 0.393310 0.000000
#
# Coordination Sequence:
#
# PCOD9570903 Si02
#       6
#    16  16  16  16  16  16
#     4  10  21  37  57  82 113 150 192 238 288 340
#     4  10  21  37  57  82 113 150 192 238 288 340
#     4  10  21  38  59  84 116 152 190 235 287 339
#     4  11  23  43  66  89 118 150 187 231 283 336
#     4  10  21  38  59  84 116 152 190 235 287 339
#     4  12  24  38  60  90 119 151 192 232 276 335
#
# _framework density 19.095213999999999
#
# number of rings (size 3 to 8) (size 9 to 14) (size 15 to 20)
#    0.000    1.500    0.000    6.000    0.000    7.667 
#    0.000    8.333    0.000    0.000    0.000    0.000 
#    0.000    0.000    0.000    0.000    0.000    0.000 
#
# Total GULP energy -536585.664245 kJ/mol
# GULP energy per Si atom -5589.434003 kJ/mol
# Density = 1.905175 g / cm^3
# Si number density = 19.095214 Si / 1000 Ang^3
#
#
#
# Elastic Constant Matrix: (Units=GPa)
#
#
# Indices 1 2 3 4 5 6 
#
# 1 92.3604 -1.6958 -6.6118 0.0000 0.0000 0.0000
# 2 -1.6958 92.3583 -6.6127 0.0000 0.0000 0.0000
# 3 -6.6118 -6.6127 47.3242 0.0000 0.0000 0.0000
# 4 0.0000 0.0000 0.0000 32.2736 0.0000 0.0000
# 5 0.0000 0.0000 0.0000 0.0000 32.2733 0.0000
# 6 0.0000 0.0000 0.0000 0.0000 0.0000 21.5129
#
#
#
# Elastic Compliance Matrix: (Units=1/GPa)
#
#
# Indices 1 2 3 4 5 6 
#
# 1 0.010946 0.000314 0.001573 0.000000 0.000000 0.000000
# 2 0.000314 0.010946 0.001573 0.000000 0.000000 0.000000
# 3 0.001573 0.001573 0.021570 0.000000 0.000000 0.000000
# 4 0.000000 0.000000 0.000000 0.030985 0.000000 0.000000
# 5 0.000000 0.000000 0.000000 0.000000 0.030985 0.000000
# 6 0.000000 0.000000 0.000000 0.000000 0.000000 0.046484
#
#
# Mechanical properties :
#
#
# Convention : Reuss Voigt Hill
#
# Bulk Modulus (GPa) = 19.84848 22.46691 21.15769
# Shear Modulus (GPa) = 30.90428 33.67617 32.29023
#
# Velocity S-wave (km/s) = 4.02734 4.20407 4.11665
# Velocity P-wave (km/s) = 5.66065 5.94617 5.80516
#
# Compressibility (1/GPa) = 0.05038169
#
# Stress axis : x y z
#
# Youngs Moduli (GPa) = 91.36158 91.35922 46.35971
#
# Poissons Ratio (x) = -0.02865 -0.07293
# Poissons Ratio (y) = -0.02865 -0.07294
# Poissons Ratio (z) = -0.14372 -0.14374
#
# Static dielectric constant tensor:
#      x y z
#    x 1.650750 0.000000 0.000000 
#    y 0.000000 1.650750 0.000000 
#    z 0.000000 0.000000 1.653590 
# 
# From -- ./inp_files/1753.got.cif
#   From: 2010.05.17/outbox.cif.g08.bks.cpg/sg138_1_cif.got.tgz:1753.got - 2010.05.20 13:08:53.
