data_PCOD9570832
_publ_section_title
;
Structure prediction by ZEFSAII (Michael W. Deem and Ramdas Pophale) SiO2 
 PCOD9570832
Probable space group: P 42/N C M
;
_chemical_formula_sum "Si O2"
_cell_formula_units_Z 96
_cell_length_a 21.225080
_cell_length_b 21.225080
_cell_length_c 12.021924
_cell_angle_alpha 90.000000
_cell_angle_beta 90.000000
_cell_angle_gamma 90.000000
_cell_volume 5415.925102
_symmetry_space_group_name_H-M "P 42/N C M"
_symmetry_group_IT_number 138
_space_group.IT_coordinate_system_code '2'
_symmetry_cell_setting 'tetragonal'
loop_
_space_group_symop_operation_xyz
x,y,z
1/2-y,x,1/2+z
1/2-x,1/2-y,z
y,1/2-x,1/2+z
1/2+x,-y,1/2-z
-x,1/2+y,1/2-z
1/2+y,1/2+x,-z
-y,-x,-z
-x,-y,-z
1/2+y,-x,1/2-z
1/2+x,1/2+y,-z
-y,1/2+x,1/2-z
1/2-x,y,1/2+z
x,1/2-y,1/2+z
1/2-y,1/2-x,z
y,x,z
loop_
_atom_site_type_symbol
_atom_site_label
_atom_site_fract_x
_atom_site_fract_y
_atom_site_fract_z
Si Si1 0.169819 0.574577 0.060711
Si Si2 0.130973 0.471848 0.705393
Si Si3 0.264309 0.985847 0.861125
Si Si4 0.244014 0.644785 0.234815
Si Si5 0.427504 0.971424 0.239399
Si Si6 0.866434 0.531899 0.556967
O O1 0.226523 0.614259 0.116086
O O2 0.131402 0.542229 0.160952
O O3 0.122726 0.622726 0.000000
O O4 0.194593 0.524943 0.971678
O O5 0.093507 0.406493 0.722292
O O6 0.197268 0.478390 0.765597
O O7 0.087961 0.526366 0.759193
O O8 0.134345 0.483377 0.573425
O O9 0.249707 0.914666 0.817502
O O10 0.202629 0.024209 0.893740
O O11 0.186680 0.692540 0.264655
O O12 0.468356 0.031645 0.201109
O O13 0.407396 0.985077 0.366227
O O14 0.900488 0.599513 0.569143
#
# Coordination Sequence:
#
# PCOD9570832 Si02
#       6
#    16  16  16  16  16  16
#     4  12  22  37  55  84 119 155 196 239 290 346
#     4  10  21  39  62  88 117 153 192 241 299 351
#     4  12  23  38  62  85 120 155 193 243 297 348
#     4  11  23  39  53  77 116 163 208 234 271 334
#     4  10  20  37  61  88 118 150 194 248 303 349
#     4  10  22  39  61  85 115 155 203 246 287 347
#
# _framework density 17.725503
#
# number of rings (size 3 to 8) (size 9 to 14) (size 15 to 20)
#    0.000    1.167    5.000    1.500    0.000    3.667 
#    3.000    0.000    0.000    0.500    0.000    2.333 
#    0.000    0.000    0.000    0.000    0.000    0.000 
#
# Total GULP energy -535973.969293 kJ/mol
# GULP energy per Si atom -5583.062180 kJ/mol
# Density = 1.768516 g / cm^3
# Si number density = 17.725503 Si / 1000 Ang^3
#
#
#
# Elastic Constant Matrix: (Units=GPa)
#
#
# Indices 1 2 3 4 5 6 
#
# 1 71.3525 37.4409 34.0934 0.0000 0.0000 0.0000
# 2 37.4409 71.3525 34.0934 0.0000 0.0000 0.0000
# 3 34.0934 34.0934 84.4867 0.0000 0.0000 0.0000
# 4 0.0000 0.0000 0.0000 27.6294 0.0000 0.0000
# 5 0.0000 0.0000 0.0000 0.0000 27.6294 0.0000
# 6 0.0000 0.0000 0.0000 0.0000 0.0000 17.4368
#
#
#
# Elastic Compliance Matrix: (Units=1/GPa)
#
#
# Indices 1 2 3 4 5 6 
#
# 1 0.020896 -0.008592 -0.004965 0.000000 0.000000 0.000000
# 2 -0.008592 0.020896 -0.004965 0.000000 0.000000 0.000000
# 3 -0.004965 -0.004965 0.015843 0.000000 0.000000 0.000000
# 4 0.000000 0.000000 0.000000 0.036193 0.000000 0.000000
# 5 0.000000 0.000000 0.000000 0.000000 0.036193 0.000000
# 6 0.000000 0.000000 0.000000 0.000000 0.000000 0.057350
#
#
# Mechanical properties :
#
#
# Convention : Reuss Voigt Hill
#
# Bulk Modulus (GPa) = 48.56582 48.71635 48.64109
# Shear Modulus (GPa) = 21.61883 22.64340 22.13111
#
# Velocity S-wave (km/s) = 3.49613 3.57802 3.53731
# Velocity P-wave (km/s) = 6.61480 6.67930 6.64713
#
# Compressibility (1/GPa) = 0.02059061
#
# Stress axis : x y z
#
# Youngs Moduli (GPa) = 47.85611 47.85611 63.11846
#
# Poissons Ratio (x) = 0.41120 0.31338
# Poissons Ratio (y) = 0.41120 0.31338
# Poissons Ratio (z) = 0.23760 0.23760
#
# Static dielectric constant tensor:
#      x y z
#    x 1.606700 0.000000 0.000000 
#    y 0.000000 1.606700 0.000000 
#    z 0.000000 0.000000 1.617230 
# 
# From -- ./inp_files/3099.got.cif
#   From: 2010.05.17/outbox.cif.g08.bks.cpg/sg138_2_cif.got.tgz:3099.got - 2010.05.20 13:08:53.
