data_PCOD9570294
_publ_section_title
;
Structure prediction by ZEFSAII (Michael W. Deem and Ramdas Pophale) SiO2 
 PCOD9570294
Probable space group: P 42/N M C
;
_chemical_formula_sum "Si O2"
_cell_formula_units_Z 96
_cell_length_a 13.817399
_cell_length_b 13.817399
_cell_length_c 21.847869
_cell_angle_alpha 90.000000
_cell_angle_beta 90.000000
_cell_angle_gamma 90.000000
_cell_volume 4171.206404
_symmetry_space_group_name_H-M "P 42/N M C"
_symmetry_group_IT_number 137
_space_group.IT_coordinate_system_code '2'
_symmetry_cell_setting 'tetragonal'
loop_
_space_group_symop_operation_xyz
x,y,z
1/2-y,x,1/2+z
1/2-x,1/2-y,z
y,1/2-x,1/2+z
1/2+x,-y,-z
-x,1/2+y,-z
1/2+y,1/2+x,1/2-z
-y,-x,1/2-z
-x,-y,-z
1/2+y,-x,1/2-z
1/2+x,1/2+y,-z
-y,1/2+x,1/2-z
1/2-x,y,z
x,1/2-y,z
1/2-y,1/2-x,1/2+z
y,x,1/2+z
loop_
_atom_site_type_symbol
_atom_site_label
_atom_site_fract_x
_atom_site_fract_y
_atom_site_fract_z
Si Si1 0.636830 0.974836 0.255824
Si Si2 0.135192 0.135819 0.116089
Si Si3 0.051762 0.359624 0.379341
Si Si4 0.359178 0.865837 0.314121
Si Si5 0.864171 0.142336 0.059662
Si Si6 0.449568 0.943566 0.435612
O O1 0.750000 0.005642 0.257664
O O2 0.619969 0.910244 0.316140
O O3 0.626047 0.918554 0.190905
O O4 0.564596 0.064596 0.250000
O O5 0.250000 0.113010 0.115940
O O6 0.125598 0.250000 0.101734
O O7 0.078698 0.064513 0.069853
O O8 0.075726 0.250000 0.398774
O O9 0.083799 0.446634 0.422466
O O10 0.934616 0.371512 0.385323
O O11 0.403102 0.903102 0.250000
O O12 0.250000 0.903003 0.321047
O O13 0.355419 0.750000 0.306331
O O14 0.412926 0.887583 0.375957
O O15 0.750000 0.150433 0.048128
O O16 0.902099 0.250000 0.072824
O O17 0.905722 0.095813 0.997788
#
# Coordination Sequence:
#
# PCOD9570294 Si02
#       6
#    16  16  16  16  16  16
#     4  10  20  38  61  88 119 158 209 259 309 363
#     4  10  22  38  58  88 125 165 206 252 307 371
#     4  10  23  40  59  83 120 165 209 258 306 359
#     4   9  19  34  54  87 125 156 193 246 307 369
#     4  10  22  41  65  95 125 154 198 259 322 376
#     4  12  21  36  64  90 119 161 206 248 304 375
#
# _framework density 23.014924000000001
#
# number of rings (size 3 to 8) (size 9 to 14) (size 15 to 20)
#    0.000    1.833    1.667    3.000    2.333    2.833 
#    0.000    2.500    0.000    4.000    0.000    7.000 
#    0.000    0.000    0.000    0.000    0.000    0.000 
#
# Total GULP energy -536440.534873 kJ/mol
# GULP energy per Si atom -5587.922238 kJ/mol
# Density = 2.296254 g / cm^3
# Si number density = 23.014924 Si / 1000 Ang^3
#
#
#
# Elastic Constant Matrix: (Units=GPa)
#
#
# Indices 1 2 3 4 5 6 
#
# 1 69.7970 -2.3882 11.4473 0.0000 0.0000 0.0000
# 2 -2.3882 69.7970 11.4473 0.0000 0.0000 0.0000
# 3 11.4473 11.4473 93.8934 0.0000 0.0000 0.0000
# 4 0.0000 0.0000 0.0000 27.2308 0.0000 0.0000
# 5 0.0000 0.0000 0.0000 0.0000 27.2308 0.0000
# 6 0.0000 0.0000 0.0000 0.0000 0.0000 23.6903
#
#
#
# Elastic Compliance Matrix: (Units=1/GPa)
#
#
# Indices 1 2 3 4 5 6 
#
# 1 0.014664 0.000811 -0.001887 0.000000 0.000000 0.000000
# 2 0.000811 0.014664 -0.001887 0.000000 0.000000 0.000000
# 3 -0.001887 -0.001887 0.011110 0.000000 0.000000 0.000000
# 4 0.000000 0.000000 0.000000 0.036723 0.000000 0.000000
# 5 0.000000 0.000000 0.000000 0.000000 0.036723 0.000000
# 6 0.000000 0.000000 0.000000 0.000000 0.000000 0.042211
#
#
# Mechanical properties :
#
#
# Convention : Reuss Voigt Hill
#
# Bulk Modulus (GPa) = 28.97312 30.50001 29.73657
# Shear Modulus (GPa) = 28.81405 29.82912 29.32159
#
# Velocity S-wave (km/s) = 3.54216 3.60401 3.57322
# Velocity P-wave (km/s) = 5.41714 5.53169 5.47471
#
# Compressibility (1/GPa) = 0.03451474
#
# Stress axis : x y z
#
# Youngs Moduli (GPa) = 68.19203 68.19203 90.00544
#
# Poissons Ratio (x) = -0.05532 0.16982
# Poissons Ratio (y) = -0.05532 0.16982
# Poissons Ratio (z) = 0.12866 0.12866
#
# Static dielectric constant tensor:
#      x y z
#    x 1.890510 0.000000 0.000000 
#    y 0.000000 1.890510 0.000000 
#    z 0.000000 0.000000 1.827000 
# 
# From -- ./inp_files/7888.got.cif
#   From: 2010.05.17/outbox.cif.g08.bks.cpg/sg137_4_cif.got.tgz:7888.got - 2010.05.20 13:01:12.
