data_PCOD9570608
_publ_section_title
;
Structure prediction by ZEFSAII (Michael W. Deem and Ramdas Pophale) SiO2 
 PCOD9570608
Probable space group: P 42/N C M
;
_chemical_formula_sum "Si O2"
_cell_formula_units_Z 72
_cell_length_a 20.335450
_cell_length_b 20.335450
_cell_length_c 7.919670
_cell_angle_alpha 90.000000
_cell_angle_beta 90.000000
_cell_angle_gamma 90.000000
_cell_volume 3275.025306
_symmetry_space_group_name_H-M "P 42/N C M"
_symmetry_group_IT_number 138
_space_group.IT_coordinate_system_code '2'
_symmetry_cell_setting 'tetragonal'
loop_
_space_group_symop_operation_xyz
x,y,z
1/2-y,x,1/2+z
1/2-x,1/2-y,z
y,1/2-x,1/2+z
1/2+x,-y,1/2-z
-x,1/2+y,1/2-z
1/2+y,1/2+x,-z
-y,-x,-z
-x,-y,-z
1/2+y,-x,1/2-z
1/2+x,1/2+y,-z
-y,1/2+x,1/2-z
1/2-x,y,1/2+z
x,1/2-y,1/2+z
1/2-y,1/2-x,z
y,x,z
loop_
_atom_site_type_symbol
_atom_site_label
_atom_site_fract_x
_atom_site_fract_y
_atom_site_fract_z
Si Si1 0.633994 0.633994 0.577634
Si Si2 0.306302 0.664318 0.806208
Si Si3 0.938651 0.938651 0.288134
Si Si4 0.396254 0.103747 0.572094
Si Si5 0.445022 0.259902 0.930026
Si Si6 0.526179 0.333027 0.643099
O O1 0.610524 0.610524 0.393007
O O2 0.594795 0.594795 0.726637
O O3 0.615033 0.709887 0.595885
O O4 0.227426 0.668658 0.797208
O O5 0.326309 0.598772 0.711238
O O6 0.330466 0.669535 0.000000
O O7 0.007114 0.909686 0.352093
O O8 0.933130 0.933130 0.083862
O O9 0.320067 0.082367 0.543423
O O10 0.505311 0.210889 0.983640
O O11 0.475943 0.298609 0.774654
#
# Coordination Sequence:
#
# PCOD9570608 Si02
#       6
#     8  16   8   8  16  16
#     4  10  18  33  49  77 120 162 206 261 298 355
#     4  11  23  40  63  91 120 149 187 244 309 362
#     4   8  20  34  57  86 120 157 202 250 292 354
#     4  10  18  33  49  78 122 158 210 260 297 354
#     4  10  19  32  53  80 111 159 206 246 302 351
#     4  10  19  36  58  84 115 155 197 243 293 358
#
# _framework density 21.984563999999999
#
# number of rings (size 3 to 8) (size 9 to 14) (size 15 to 20)
#    0.000    2.000    2.222    2.667    0.000    0.444 
#    0.000    1.667    0.000    2.667    0.000    7.778 
#    0.000    0.000    0.000    0.000    0.000    0.000 
#
# Total GULP energy -400945.480095 kJ/mol
# GULP energy per Si atom -5568.687224 kJ/mol
# Density = 2.193453 g / cm^3
# Si number density = 21.984564 Si / 1000 Ang^3
#
#
#
# Elastic Constant Matrix: (Units=GPa)
#
#
# Indices 1 2 3 4 5 6 
#
# 1 33.3612 92.7737 0.2463 0.0000 0.0000 0.0000
# 2 92.7737 33.3614 0.2471 0.0000 0.0000 0.0000
# 3 0.2463 0.2471 62.2301 0.0000 0.0000 0.0000
# 4 0.0000 0.0000 0.0000 12.2392 0.0000 0.0000
# 5 0.0000 0.0000 0.0000 0.0000 12.2439 0.0000
# 6 0.0000 0.0000 0.0000 0.0000 0.0000 -1.0924
#
#
#
# Elastic Compliance Matrix: (Units=1/GPa)
#
#
# Indices 1 2 3 4 5 6 
#
# 1 -0.004452 0.012380 -0.000032 0.000000 0.000000 0.000000
# 2 0.012380 -0.004452 -0.000031 0.000000 0.000000 0.000000
# 3 -0.000032 -0.000031 0.016070 0.000000 0.000000 0.000000
# 4 0.000000 0.000000 0.000000 0.081705 0.000000 0.000000
# 5 0.000000 0.000000 0.000000 0.000000 0.081673 0.000000
# 6 0.000000 0.000000 0.000000 0.000000 0.000000 -0.915407
#
#
# Mechanical properties :
#
#
# Convention : Reuss Voigt Hill
#
# Bulk Modulus (GPa) = 31.44635 35.05411 33.25023
# Shear Modulus (GPa) = -6.58851 7.05717 0.23433
#
# Velocity S-wave (km/s) = -1.73303 1.79361 0.32683
# Velocity P-wave (km/s) = 3.21409 4.50209 3.91147
#
# Compressibility (1/GPa) = 0.03180020
#
# Stress axis : x y z
#
# Youngs Moduli (GPa) = -224.63412 -224.63500 62.22910
#
# Poissons Ratio (x) = 2.78094 0.00196
# Poissons Ratio (y) = 2.78093 0.00195
# Poissons Ratio (z) = -0.00709 -0.00703
#
# Static dielectric constant tensor:
#      x y z
#    x 1.890480 0.000000 0.000000 
#    y 0.000000 1.890490 0.000000 
#    z 0.000000 0.000000 1.897670 
# 
# From -- ./inp_files/1543.got.cif
#   From: 2010.05.17/outbox.cif.g08.bks.cpg/sg138_1_cif.got.tgz:1543.got - 2010.05.20 13:08:53.
