data_PCOD9570501
_publ_section_title
;
Structure prediction by ZEFSAII (Michael W. Deem and Ramdas Pophale) SiO2 
 PCOD9570501
Probable space group: P 42/N M C
;
_chemical_formula_sum "Si O2"
_cell_formula_units_Z 112
_cell_length_a 14.322325
_cell_length_b 14.322325
_cell_length_c 23.545811
_cell_angle_alpha 90.000000
_cell_angle_beta 90.000000
_cell_angle_gamma 90.000000
_cell_volume 4829.928509
_symmetry_space_group_name_H-M "P 42/N M C"
_symmetry_group_IT_number 137
_space_group.IT_coordinate_system_code '2'
_symmetry_cell_setting 'tetragonal'
loop_
_space_group_symop_operation_xyz
x,y,z
1/2-y,x,1/2+z
1/2-x,1/2-y,z
y,1/2-x,1/2+z
1/2+x,-y,-z
-x,1/2+y,-z
1/2+y,1/2+x,1/2-z
-y,-x,1/2-z
-x,-y,-z
1/2+y,-x,1/2-z
1/2+x,1/2+y,-z
-y,1/2+x,1/2-z
1/2-x,y,z
x,1/2-y,z
1/2-y,1/2-x,1/2+z
y,x,1/2+z
loop_
_atom_site_type_symbol
_atom_site_label
_atom_site_fract_x
_atom_site_fract_y
_atom_site_fract_z
Si Si1 0.151501 0.446012 0.323579
Si Si2 0.853268 0.110385 0.817258
Si Si3 0.356150 0.051004 0.523478
Si Si4 0.643926 0.555538 0.079300
Si Si5 0.144421 0.496671 0.745105
Si Si6 0.141953 0.649020 0.917944
Si Si7 0.641850 0.894926 0.854258
O O1 0.250000 0.428518 0.294026
O O2 0.149326 0.552422 0.344572
O O3 0.134936 0.378157 0.375681
O O4 0.067777 0.424649 0.281764
O O5 0.869411 0.130590 0.750000
O O6 0.750000 0.145992 0.831996
O O7 0.854029 0.002355 0.834509
O O8 0.250000 0.079674 0.508077
O O9 0.426648 0.077760 0.473862
O O10 0.382941 0.105097 0.581497
O O11 0.352894 0.940280 0.535917
O O12 0.750000 0.560512 0.059545
O O13 0.629680 0.453847 0.108902
O O14 0.250000 0.496750 0.767509
O O15 0.146798 0.440723 0.685262
O O16 0.098597 0.598597 0.750000
O O17 0.250000 0.649135 0.938343
O O18 0.130227 0.750000 0.886932
O O19 0.750000 0.859670 0.848946
#
# Coordination Sequence:
#
# PCOD9570501 Si02
#       7
#    16  16  16  16  16  16  16
#     4  12  24  43  69  99 136 176 222 275 333 402
#     4  11  22  40  68  99 135 177 221 271 336 405
#     4  11  23  40  64  96 134 172 216 273 331 393
#     4  11  24  42  65  95 133 176 220 273 335 397
#     4  12  26  46  69  96 133 173 223 279 337 400
#     4   9  20  40  65  91 122 169 222 269 324 388
#     4  11  22  41  69  99 132 172 221 277 334 394
#
# _framework density 23.188749000000001
#
# number of rings (size 3 to 8) (size 9 to 14) (size 15 to 20)
#    0.000    1.000    2.857    3.857    0.000    5.429 
#    0.000    2.143    0.000    2.571    0.000    2.000 
#    0.000    0.000    0.000    0.000    0.000    0.000 
#
# Total GULP energy -625100.266405 kJ/mol
# GULP energy per Si atom -5581.252379 kJ/mol
# Density = 2.313597 g / cm^3
# Si number density = 23.188749 Si / 1000 Ang^3
#
#
#
# Elastic Constant Matrix: (Units=GPa)
#
#
# Indices 1 2 3 4 5 6 
#
# 1 128.0738 44.6988 4.2051 0.0000 0.0000 0.0000
# 2 44.6988 128.0737 4.2051 0.0000 0.0000 0.0000
# 3 4.2051 4.2051 49.5241 0.0000 0.0000 0.0000
# 4 0.0000 0.0000 0.0000 15.9148 0.0000 0.0000
# 5 0.0000 0.0000 0.0000 0.0000 15.9147 0.0000
# 6 0.0000 0.0000 0.0000 0.0000 0.0000 7.2295
#
#
#
# Elastic Compliance Matrix: (Units=1/GPa)
#
#
# Indices 1 2 3 4 5 6 
#
# 1 0.008903 -0.003091 -0.000494 0.000000 0.000000 0.000000
# 2 -0.003091 0.008903 -0.000493 0.000000 0.000000 0.000000
# 3 -0.000494 -0.000493 0.020276 0.000000 0.000000 0.000000
# 4 0.000000 0.000000 0.000000 0.062834 0.000000 0.000000
# 5 0.000000 0.000000 0.000000 0.000000 0.062835 0.000000
# 6 0.000000 0.000000 0.000000 0.000000 0.000000 0.138323
#
#
# Mechanical properties :
#
#
# Convention : Reuss Voigt Hill
#
# Bulk Modulus (GPa) = 33.41582 45.76553 39.59067
# Shear Modulus (GPa) = 15.61497 24.64932 20.13215
#
# Velocity S-wave (km/s) = 2.59778 3.26388 2.94970
# Velocity P-wave (km/s) = 4.84145 5.82948 5.35829
#
# Compressibility (1/GPa) = 0.02992595
#
# Stress axis : x y z
#
# Youngs Moduli (GPa) = 112.32186 112.32176 49.31943
#
# Poissons Ratio (x) = 0.34719 0.02434
# Poissons Ratio (y) = 0.34719 0.02434
# Poissons Ratio (z) = 0.05543 0.05543
#
# Static dielectric constant tensor:
#      x y z
#    x 1.892250 0.000000 0.000000 
#    y 0.000000 1.892250 0.000000 
#    z 0.000000 0.000000 1.841680 
# 
# From -- ./inp_files/8941.got.cif
#   From: 2010.05.17/outbox.cif.g08.bks.cpg/sg137_5_cif.got.tgz:8941.got - 2010.05.20 13:01:12.
