data_PCOD9570900
_publ_section_title
;
Structure prediction by ZEFSAII (Michael W. Deem and Ramdas Pophale) SiO2 
 PCOD9570900
Probable space group: P 42/N C M
;
_chemical_formula_sum "Si O2"
_cell_formula_units_Z 80
_cell_length_a 11.382271
_cell_length_b 11.382271
_cell_length_c 29.225154
_cell_angle_alpha 90.000000
_cell_angle_beta 90.000000
_cell_angle_gamma 90.000000
_cell_volume 3786.296773
_symmetry_space_group_name_H-M "P 42/N C M"
_symmetry_group_IT_number 138
_space_group.IT_coordinate_system_code '2'
_symmetry_cell_setting 'tetragonal'
loop_
_space_group_symop_operation_xyz
x,y,z
1/2-y,x,1/2+z
1/2-x,1/2-y,z
y,1/2-x,1/2+z
1/2+x,-y,1/2-z
-x,1/2+y,1/2-z
1/2+y,1/2+x,-z
-y,-x,-z
-x,-y,-z
1/2+y,-x,1/2-z
1/2+x,1/2+y,-z
-y,1/2+x,1/2-z
1/2-x,y,1/2+z
x,1/2-y,1/2+z
1/2-y,1/2-x,z
y,x,z
loop_
_atom_site_type_symbol
_atom_site_label
_atom_site_fract_x
_atom_site_fract_y
_atom_site_fract_z
Si Si1 0.057514 0.255371 0.269601
Si Si2 0.898153 0.098602 0.551488
Si Si3 0.754785 0.941281 0.887167
Si Si4 0.503953 0.185748 0.861269
Si Si5 0.224888 0.611722 0.188770
O O1 0.142725 0.357276 0.251994
O O2 0.135437 0.135437 0.267611
O O3 0.025263 0.280320 0.322566
O O4 0.942787 0.254753 0.238391
O O5 0.866874 0.133127 0.500000
O O6 0.799043 0.065913 0.589527
O O7 0.976465 0.200044 0.574067
O O8 0.984213 0.984213 0.549118
O O9 0.651479 0.848522 0.873162
O O10 0.862094 0.862094 0.903276
O O11 0.792772 0.025215 0.845636
O O12 0.593047 0.103549 0.831860
O O13 0.383969 0.116032 0.870029
O O14 0.250000 0.750000 0.184843
#
# Coordination Sequence:
#
# PCOD9570900 Si02
#       5
#    16  16  16  16  16
#     4  10  21  37  56  77 106 149 193 234 286 343
#     4   8  14  28  52  83 118 153 191 241 298 347
#     4   9  17  33  58  86 114 148 194 244 293 348
#     4   9  19  34  52  76 107 147 189 232 285 342
#     4  11  22  33  51  79 111 145 184 234 290 347
#
# _framework density 21.128826
#
# number of rings (size 3 to 8) (size 9 to 14) (size 15 to 20)
#    0.000    2.600    0.000    3.600    2.800    1.600 
#    0.000    2.000    0.000   15.600    0.000    5.600 
#    0.000    0.000    0.000    0.000    0.000    0.000 
#
# Total GULP energy -445714.432199 kJ/mol
# GULP energy per Si atom -5571.430402 kJ/mol
# Density = 2.108074 g / cm^3
# Si number density = 21.128826 Si / 1000 Ang^3
#
#
#
# Elastic Constant Matrix: (Units=GPa)
#
#
# Indices 1 2 3 4 5 6 
#
# 1 66.8747 17.7354 32.8430 0.0000 0.0000 0.0000
# 2 17.7354 66.8747 32.8429 0.0000 0.0000 0.0000
# 3 32.8430 32.8429 176.2922 0.0000 0.0000 0.0000
# 4 0.0000 0.0000 0.0000 17.1520 0.0000 0.0000
# 5 0.0000 0.0000 0.0000 0.0000 17.1519 0.0000
# 6 0.0000 0.0000 0.0000 0.0000 0.0000 16.9901
#
#
#
# Elastic Compliance Matrix: (Units=1/GPa)
#
#
# Indices 1 2 3 4 5 6 
#
# 1 0.017084 -0.003267 -0.002574 0.000000 0.000000 0.000000
# 2 -0.003267 0.017084 -0.002574 0.000000 0.000000 0.000000
# 3 -0.002574 -0.002574 0.006632 0.000000 0.000000 0.000000
# 4 0.000000 0.000000 0.000000 0.058302 0.000000 0.000000
# 5 0.000000 0.000000 0.000000 0.000000 0.058302 0.000000
# 6 0.000000 0.000000 0.000000 0.000000 0.000000 0.058858
#
#
# Mechanical properties :
#
#
# Convention : Reuss Voigt Hill
#
# Bulk Modulus (GPa) = 41.71956 52.98713 47.35335
# Shear Modulus (GPa) = 20.73989 25.36682 23.05335
#
# Velocity S-wave (km/s) = 3.13644 3.46870 3.30674
# Velocity P-wave (km/s) = 5.73624 6.41678 6.08603
#
# Compressibility (1/GPa) = 0.02396957
#
# Stress axis : x y z
#
# Youngs Moduli (GPa) = 58.53490 58.53498 150.79502
#
# Poissons Ratio (x) = 0.19120 0.38817
# Poissons Ratio (y) = 0.19120 0.38817
# Poissons Ratio (z) = 0.15068 0.15068
#
# Static dielectric constant tensor:
#      x y z
#    x 1.830820 0.000000 0.000000 
#    y 0.000000 1.830810 0.000000 
#    z 0.000000 0.000000 1.810820 
# 
# From -- ./inp_files/7915.got.cif
#   From: 2010.05.17/outbox.cif.g08.bks.cpg/sg138_4_cif.got.tgz:7915.got - 2010.05.20 13:08:53.
