data_PCOD9570630
_publ_section_title
;
Structure prediction by ZEFSAII (Michael W. Deem and Ramdas Pophale) SiO2 
 PCOD9570630
Probable space group: P 42/N C M
;
_chemical_formula_sum "Si O2"
_cell_formula_units_Z 112
_cell_length_a 17.472800
_cell_length_b 17.472800
_cell_length_c 20.840982
_cell_angle_alpha 90.000000
_cell_angle_beta 90.000000
_cell_angle_gamma 90.000000
_cell_volume 6362.725542
_symmetry_space_group_name_H-M "P 42/N C M"
_symmetry_group_IT_number 138
_space_group.IT_coordinate_system_code '2'
_symmetry_cell_setting 'tetragonal'
loop_
_space_group_symop_operation_xyz
x,y,z
1/2-y,x,1/2+z
1/2-x,1/2-y,z
y,1/2-x,1/2+z
1/2+x,-y,1/2-z
-x,1/2+y,1/2-z
1/2+y,1/2+x,-z
-y,-x,-z
-x,-y,-z
1/2+y,-x,1/2-z
1/2+x,1/2+y,-z
-y,1/2+x,1/2-z
1/2-x,y,1/2+z
x,1/2-y,1/2+z
1/2-y,1/2-x,z
y,x,z
loop_
_atom_site_type_symbol
_atom_site_label
_atom_site_fract_x
_atom_site_fract_y
_atom_site_fract_z
Si Si1 0.978837 0.103983 0.949740
Si Si2 0.201155 0.639329 0.237257
Si Si3 0.271441 0.002564 0.681680
Si Si4 0.874663 0.753650 0.423977
Si Si5 0.095944 0.272401 0.433758
Si Si6 0.437134 0.942063 0.694000
Si Si7 0.876602 0.752246 0.710409
O O1 0.955309 0.077949 0.879407
O O2 0.014503 0.187106 0.943592
O O3 0.911950 0.088051 0.000000
O O4 0.050144 0.050144 0.971510
O O5 0.162364 0.721960 0.222275
O O6 0.234935 0.582397 0.183344
O O7 0.135628 0.589127 0.271357
O O8 0.255170 0.049348 0.617298
O O9 0.242438 0.052808 0.741926
O O10 0.362019 0.994555 0.692672
O O11 0.824040 0.675961 0.419905
O O12 0.821076 0.821076 0.397239
O O13 0.888923 0.769317 0.499242
O O14 0.162974 0.337027 0.430022
O O15 0.099387 0.234243 0.363853
O O16 0.509969 0.990032 0.720008
O O17 0.822867 0.677134 0.711972
O O18 0.822809 0.822809 0.731544
#
# Coordination Sequence:
#
# PCOD9570630 Si02
#       7
#    16  16  16  16  16  16  16
#     4   9  16  26  42  67  98 126 155 199 253 304
#     4   9  20  37  53  71  97 134 174 212 255 304
#     4  11  20  31  49  73 100 130 168 214 261 305
#     4  10  19  30  45  70 106 141 168 199 248 309
#     4   9  17  29  44  63  94 137 175 203 242 305
#     4  10  19  31  50  76 101 124 158 209 264 310
#     4  10  19  30  45  69 103 140 175 210 254 315
#
# _framework density 17.602519999999998
#
# number of rings (size 3 to 8) (size 9 to 14) (size 15 to 20)
#    0.000    2.286    0.000    3.857    0.000    7.429 
#    0.000    0.000    0.000    0.000    0.000   35.000 
#    0.000   16.000    0.000    0.000    0.000    0.000 
#
# Total GULP energy -623606.627235 kJ/mol
# GULP energy per Si atom -5567.916315 kJ/mol
# Density = 1.756246 g / cm^3
# Si number density = 17.602520 Si / 1000 Ang^3
#
#
#
# Elastic Constant Matrix: (Units=GPa)
#
#
# Indices 1 2 3 4 5 6 
#
# 1 71.0419 38.2088 17.3055 0.0000 0.0000 0.0000
# 2 38.2088 71.0423 17.3047 0.0000 0.0000 0.0000
# 3 17.3055 17.3047 48.4165 0.0000 0.0000 0.0000
# 4 0.0000 0.0000 0.0000 -6.5631 0.0000 0.0000
# 5 0.0000 0.0000 0.0000 0.0000 -6.5623 0.0000
# 6 0.0000 0.0000 0.0000 0.0000 0.0000 29.2224
#
#
#
# Elastic Compliance Matrix: (Units=1/GPa)
#
#
# Indices 1 2 3 4 5 6 
#
# 1 0.020390 -0.010067 -0.003690 0.000000 0.000000 0.000000
# 2 -0.010067 0.020389 -0.003689 0.000000 0.000000 0.000000
# 3 -0.003690 -0.003689 0.023291 0.000000 0.000000 0.000000
# 4 0.000000 0.000000 0.000000 -0.152368 0.000000 0.000000
# 5 0.000000 0.000000 0.000000 0.000000 -0.152385 0.000000
# 6 0.000000 0.000000 0.000000 0.000000 0.000000 0.034220
#
#
# Mechanical properties :
#
#
# Convention : Reuss Voigt Hill
#
# Bulk Modulus (GPa) = 34.27220 37.34876 35.81048
# Shear Modulus (GPa) = -30.89402 11.06484 -9.91459
#
# Velocity S-wave (km/s) = -4.19392 2.50990 -2.37586
# Velocity P-wave (km/s) = 1.98486 5.44641 3.58634
#
# Compressibility (1/GPa) = 0.02917817
#
# Stress axis : x y z
#
# Youngs Moduli (GPa) = 49.04469 49.04539 42.93428
#
# Poissons Ratio (x) = 0.49376 0.15841
# Poissons Ratio (y) = 0.49375 0.15839
# Poissons Ratio (z) = 0.18096 0.18093
#
# Static dielectric constant tensor:
#      x y z
#    x 1.629590 0.000000 0.000000 
#    y 0.000000 1.629590 0.000000 
#    z 0.000000 0.000000 1.614230 
# 
# From -- ./inp_files/6436.got.cif
#   From: 2010.05.17/outbox.cif.g08.bks.cpg/sg138_4_cif.got.tgz:6436.got - 2010.05.20 13:08:53.
