data_PCOD9570240
_publ_section_title
;
Structure prediction by ZEFSAII (Michael W. Deem and Ramdas Pophale) SiO2 
 PCOD9570240
Probable space group: P 42/N M C
;
_chemical_formula_sum "Si O2"
_cell_formula_units_Z 72
_cell_length_a 19.787116
_cell_length_b 19.787116
_cell_length_c 8.276920
_cell_angle_alpha 90.000000
_cell_angle_beta 90.000000
_cell_angle_gamma 90.000000
_cell_volume 3240.662153
_symmetry_space_group_name_H-M "P 42/N M C"
_symmetry_group_IT_number 137
_space_group.IT_coordinate_system_code '2'
_symmetry_cell_setting 'tetragonal'
loop_
_space_group_symop_operation_xyz
x,y,z
1/2-y,x,1/2+z
1/2-x,1/2-y,z
y,1/2-x,1/2+z
1/2+x,-y,-z
-x,1/2+y,-z
1/2+y,1/2+x,1/2-z
-y,-x,1/2-z
-x,-y,-z
1/2+y,-x,1/2-z
1/2+x,1/2+y,-z
-y,1/2+x,1/2-z
1/2-x,y,z
x,1/2-y,z
1/2-y,1/2-x,1/2+z
y,x,1/2+z
loop_
_atom_site_type_symbol
_atom_site_label
_atom_site_fract_x
_atom_site_fract_y
_atom_site_fract_z
Si Si1 0.051271 0.324044 0.138752
Si Si2 0.325001 0.825001 0.750000
Si Si3 0.381748 0.927440 0.502876
Si Si4 0.323863 0.124537 0.294875
Si Si5 0.672068 0.478860 0.843358
O O1 0.018040 0.250000 0.158382
O O2 0.093941 0.322079 0.973537
O O3 0.995180 0.381788 0.112227
O O4 0.108022 0.333944 0.272995
O O5 0.333010 0.750000 0.684476
O O6 0.337505 0.876176 0.605717
O O7 0.449321 0.885389 0.461229
O O8 0.346614 0.948538 0.334019
O O9 0.250000 0.157046 0.263624
O O10 0.330653 0.059340 0.178069
O O11 0.750000 0.460851 0.884778
#
# Coordination Sequence:
#
# PCOD9570240 Si02
#       5
#    16   8  16  16  16
#     4  10  21  38  58  80 110 144 178 222 272 325
#     4  11  22  34  50  78 114 146 182 228 270 315
#     4  10  20  35  56  80 110 145 184 224 272 323
#     4   9  20  37  56  81 109 138 178 225 273 326
#     4   9  18  36  59  79 105 143 185 228 270 318
#
# _framework density 22.217680000000001
#
# number of rings (size 3 to 8) (size 9 to 14) (size 15 to 20)
#    0.000    2.333    0.000    4.000    0.000    4.000 
#    0.000    6.667    0.000    8.000    0.000    0.000 
#    0.000    0.000    0.000    0.000    0.000    0.000 
#
# Total GULP energy -401722.224149 kJ/mol
# GULP energy per Si atom -5579.475335 kJ/mol
# Density = 2.216711 g / cm^3
# Si number density = 22.217680 Si / 1000 Ang^3
#
#
#
# Elastic Constant Matrix: (Units=GPa)
#
#
# Indices 1 2 3 4 5 6 
#
# 1 42.9971 -2.0885 10.2267 0.0000 0.0000 0.0000
# 2 -2.0885 42.9971 10.2267 0.0000 0.0000 0.0000
# 3 10.2267 10.2267 29.8834 0.0000 0.0000 0.0000
# 4 0.0000 0.0000 0.0000 13.2445 0.0000 0.0000
# 5 0.0000 0.0000 0.0000 0.0000 13.2445 0.0000
# 6 0.0000 0.0000 0.0000 0.0000 0.0000 29.1490
#
#
#
# Elastic Compliance Matrix: (Units=1/GPa)
#
#
# Indices 1 2 3 4 5 6 
#
# 1 0.025835 0.003655 -0.010092 0.000000 0.000000 0.000000
# 2 0.003655 0.025835 -0.010092 0.000000 0.000000 0.000000
# 3 -0.010092 -0.010092 0.040371 0.000000 0.000000 0.000000
# 4 0.000000 0.000000 0.000000 0.075503 0.000000 0.000000
# 5 0.000000 0.000000 0.000000 0.000000 0.075503 0.000000
# 6 0.000000 0.000000 0.000000 0.000000 0.000000 0.034306
#
#
# Mechanical properties :
#
#
# Convention : Reuss Voigt Hill
#
# Bulk Modulus (GPa) = 16.95401 16.95638 16.95520
# Shear Modulus (GPa) = 15.14811 17.62843 16.38827
#
# Velocity S-wave (km/s) = 2.61397 2.81987 2.71887
# Velocity P-wave (km/s) = 4.09364 4.27208 4.18381
#
# Compressibility (1/GPa) = 0.05898309
#
# Stress axis : x y z
#
# Youngs Moduli (GPa) = 38.70667 38.70667 24.77029
#
# Poissons Ratio (x) = -0.14148 0.24999
# Poissons Ratio (y) = -0.14148 0.24999
# Poissons Ratio (z) = 0.39064 0.39064
#
# Static dielectric constant tensor:
#      x y z
#    x 1.826450 0.000000 0.000000 
#    y 0.000000 1.826450 0.000000 
#    z 0.000000 0.000000 1.828730 
# 
# From -- ./inp_files/1946.got.cif
#   From: 2010.05.17/outbox.cif.g08.bks.cpg/sg137_1_cif.got.tgz:1946.got - 2010.05.20 13:01:12.
