data_PCOD9570697
_publ_section_title
;
Structure prediction by ZEFSAII (Michael W. Deem and Ramdas Pophale) SiO2 
 PCOD9570697
Probable space group: P 42/N C M
;
_chemical_formula_sum "Si O2"
_cell_formula_units_Z 112
_cell_length_a 14.559923
_cell_length_b 14.559923
_cell_length_c 28.474146
_cell_angle_alpha 90.000000
_cell_angle_beta 90.000000
_cell_angle_gamma 90.000000
_cell_volume 6036.272872
_symmetry_space_group_name_H-M "P 42/N C M"
_symmetry_group_IT_number 138
_space_group.IT_coordinate_system_code '2'
_symmetry_cell_setting 'tetragonal'
loop_
_space_group_symop_operation_xyz
x,y,z
1/2-y,x,1/2+z
1/2-x,1/2-y,z
y,1/2-x,1/2+z
1/2+x,-y,1/2-z
-x,1/2+y,1/2-z
1/2+y,1/2+x,-z
-y,-x,-z
-x,-y,-z
1/2+y,-x,1/2-z
1/2+x,1/2+y,-z
-y,1/2+x,1/2-z
1/2-x,y,1/2+z
x,1/2-y,1/2+z
1/2-y,1/2-x,z
y,x,z
loop_
_atom_site_type_symbol
_atom_site_label
_atom_site_fract_x
_atom_site_fract_y
_atom_site_fract_z
Si Si1 0.809793 0.453538 0.115966
Si Si2 0.874339 0.020874 0.247554
Si Si3 0.845791 0.496689 0.012584
Si Si4 0.325669 0.678070 0.177853
Si Si5 0.393794 0.252862 0.314145
Si Si6 0.463885 0.817913 0.855291
Si Si7 0.252121 0.400792 0.068195
O O1 0.796329 0.477498 0.061865
O O2 0.733939 0.389497 0.141425
O O3 0.802518 0.545351 0.146807
O O4 0.906623 0.399420 0.119658
O O5 0.864666 0.117267 0.220835
O O6 0.854669 0.021909 0.302618
O O7 0.796850 0.958351 0.223070
O O8 0.971613 0.971613 0.238939
O O9 0.919890 0.580111 0.018120
O O10 0.907398 0.407398 0.000000
O O11 0.772474 0.525988 0.972759
O O12 0.250000 0.750000 0.195540
O O13 0.270339 0.601098 0.150145
O O14 0.326775 0.173226 0.334365
O O15 0.327871 0.327871 0.291133
O O16 0.551402 0.782981 0.883868
O O17 0.182035 0.317966 0.059145
O O18 0.353063 0.353063 0.069591
#
# Coordination Sequence:
#
# PCOD9570697 Si02
#       7
#    16  16  16  16  16  16  16
#     4  10  20  36  58  84 111 144 190 238 288 340
#     4  10  22  36  54  83 115 151 198 241 283 339
#     4  10  19  34  59  85 110 142 186 240 287 336
#     4   9  22  37  58  82 114 154 195 240 287 344
#     4   9  19  35  53  79 114 146 182 235 293 344
#     4  11  22  36  57  82 115 154 196 238 285 342
#     4  10  22  39  58  85 119 151 187 234 293 358
#
# _framework density 18.554496
#
# number of rings (size 3 to 8) (size 9 to 14) (size 15 to 20)
#    0.000    2.143    1.429    0.857    6.000    3.429 
#    0.000    3.571    0.000    0.857    0.000    0.000 
#    0.000    0.000    0.000    0.000    0.000    0.000 
#
# Total GULP energy -624460.789760 kJ/mol
# GULP energy per Si atom -5575.542766 kJ/mol
# Density = 1.851227 g / cm^3
# Si number density = 18.554496 Si / 1000 Ang^3
#
#
#
# Elastic Constant Matrix: (Units=GPa)
#
#
# Indices 1 2 3 4 5 6 
#
# 1 43.6779 44.8938 11.2088 0.0000 0.0000 0.0000
# 2 44.8938 43.6779 11.2088 0.0000 0.0000 0.0000
# 3 11.2088 11.2088 79.5276 0.0000 0.0000 0.0000
# 4 0.0000 0.0000 0.0000 7.2317 0.0000 0.0000
# 5 0.0000 0.0000 0.0000 0.0000 7.2317 0.0000
# 6 0.0000 0.0000 0.0000 0.0000 0.0000 24.9898
#
#
#
# Elastic Compliance Matrix: (Units=1/GPa)
#
#
# Indices 1 2 3 4 5 6 
#
# 1 -0.405353 0.417061 -0.001650 0.000000 0.000000 0.000000
# 2 0.417061 -0.405353 -0.001650 0.000000 0.000000 0.000000
# 3 -0.001650 -0.001650 0.013039 0.000000 0.000000 0.000000
# 4 0.000000 0.000000 0.000000 0.138280 0.000000 0.000000
# 5 0.000000 0.000000 0.000000 0.000000 0.138280 0.000000
# 6 0.000000 0.000000 0.000000 0.000000 0.000000 0.040016
#
#
# Mechanical properties :
#
#
# Convention : Reuss Voigt Hill
#
# Bulk Modulus (GPa) = 33.49555 33.50069 33.49812
# Shear Modulus (GPa) = -3.85012 14.52879 5.33933
#
# Velocity S-wave (km/s) = -1.44206 2.80131 1.69820
# Velocity P-wave (km/s) = 3.91395 5.34393 4.68383
#
# Compressibility (1/GPa) = 0.02985471
#
# Stress axis : x y z
#
# Youngs Moduli (GPa) = -2.46698 -2.46698 76.69070
#
# Poissons Ratio (x) = 1.02888 0.12655
# Poissons Ratio (y) = 1.02888 0.12655
# Poissons Ratio (z) = -0.00407 -0.00407
#
# Static dielectric constant tensor:
#      x y z
#    x 1.668210 0.000000 0.000000 
#    y 0.000000 1.668210 0.000000 
#    z 0.000000 0.000000 1.626880 
# 
# From -- ./inp_files/7078.got.cif
#   From: 2010.05.17/outbox.cif.g08.bks.cpg/sg138_4_cif.got.tgz:7078.got - 2010.05.20 13:08:53.
