data_PCOD9570309
_publ_section_title
;
Structure prediction by ZEFSAII (Michael W. Deem and Ramdas Pophale) SiO2 
 PCOD9570309
Probable space group: P 42/N M C
;
_chemical_formula_sum "Si O2"
_cell_formula_units_Z 64
_cell_length_a 14.495441
_cell_length_b 14.495441
_cell_length_c 14.547473
_cell_angle_alpha 90.000000
_cell_angle_beta 90.000000
_cell_angle_gamma 90.000000
_cell_volume 3056.683165
_symmetry_space_group_name_H-M "P 42/N M C"
_symmetry_group_IT_number 137
_space_group.IT_coordinate_system_code '2'
_symmetry_cell_setting 'tetragonal'
loop_
_space_group_symop_operation_xyz
x,y,z
1/2-y,x,1/2+z
1/2-x,1/2-y,z
y,1/2-x,1/2+z
1/2+x,-y,-z
-x,1/2+y,-z
1/2+y,1/2+x,1/2-z
-y,-x,1/2-z
-x,-y,-z
1/2+y,-x,1/2-z
1/2+x,1/2+y,-z
-y,1/2+x,1/2-z
1/2-x,y,z
x,1/2-y,z
1/2-y,1/2-x,1/2+z
y,x,1/2+z
loop_
_atom_site_type_symbol
_atom_site_label
_atom_site_fract_x
_atom_site_fract_y
_atom_site_fract_z
Si Si1 0.562612 0.924045 0.053798
Si Si2 0.149532 0.062561 0.123974
Si Si3 0.001496 0.356951 0.263268
Si Si4 0.114960 0.646475 0.141292
O O1 0.625037 0.969541 0.131866
O O2 0.491130 0.859029 0.107639
O O3 0.623769 0.886221 0.970658
O O4 0.500000 0.000000 0.000000
O O5 0.250000 0.090205 0.158944
O O6 0.070514 0.085268 0.197547
O O7 0.152849 0.951748 0.104605
O O8 0.006111 0.250000 0.239667
O O9 0.901178 0.401178 0.250000
O O10 0.133445 0.633445 0.250000
O O11 0.147821 0.750000 0.116184
#
# Coordination Sequence:
#
# PCOD9570309 Si02
#       4
#    16  16  16  16
#     4  10  20  42  66  93 131 175 213 264 329 393
#     4  11  23  43  69  99 136 176 217 270 338 400
#     4  12  24  44  68  95 130 173 224 276 328 391
#     4  11  21  36  65  97 131 173 213 264 330 391
#
# _framework density 20.937726999999999
#
# number of rings (size 3 to 8) (size 9 to 14) (size 15 to 20)
#    0.000    1.000    7.500    1.500    0.000    3.500 
#    0.000    0.000    0.000    7.500    0.000    0.000 
#    0.000    0.000    0.000    0.000    0.000    0.000 
#
# Total GULP energy -356563.724232 kJ/mol
# GULP energy per Si atom -5571.308191 kJ/mol
# Density = 2.089007 g / cm^3
# Si number density = 20.937727 Si / 1000 Ang^3
#
#
#
# Elastic Constant Matrix: (Units=GPa)
#
#
# Indices 1 2 3 4 5 6 
#
# 1 103.2712 48.1276 14.3413 0.0000 0.0000 0.0000
# 2 48.1276 103.2712 14.3413 0.0000 0.0000 0.0000
# 3 14.3413 14.3413 94.4134 0.0000 0.0000 0.0000
# 4 0.0000 0.0000 0.0000 -1.3522 0.0000 0.0000
# 5 0.0000 0.0000 0.0000 0.0000 -1.3522 0.0000
# 6 0.0000 0.0000 0.0000 0.0000 0.0000 1.0865
#
#
#
# Elastic Compliance Matrix: (Units=1/GPa)
#
#
# Indices 1 2 3 4 5 6 
#
# 1 0.012468 -0.005667 -0.001033 0.000000 0.000000 0.000000
# 2 -0.005667 0.012468 -0.001033 0.000000 0.000000 0.000000
# 3 -0.001033 -0.001033 0.010906 0.000000 0.000000 0.000000
# 4 0.000000 0.000000 0.000000 -0.739558 0.000000 0.000000
# 5 0.000000 0.000000 0.000000 0.000000 -0.739558 0.000000
# 6 0.000000 0.000000 0.000000 0.000000 0.000000 0.920396
#
#
# Mechanical properties :
#
#
# Convention : Reuss Voigt Hill
#
# Bulk Modulus (GPa) = 49.07977 50.50845 49.79411
# Shear Modulus (GPa) = -9.98759 14.61947 2.31594
#
# Velocity S-wave (km/s) = -2.18643 2.64528 1.05286
# Velocity P-wave (km/s) = 4.13736 5.78840 5.03107
#
# Compressibility (1/GPa) = 0.02037499
#
# Stress axis : x y z
#
# Youngs Moduli (GPa) = 80.20767 80.20767 91.69639
#
# Poissons Ratio (x) = 0.45453 0.09473
# Poissons Ratio (y) = 0.45453 0.09473
# Poissons Ratio (z) = 0.08286 0.08286
#
# Static dielectric constant tensor:
#      x y z
#    x 1.808220 0.000000 0.000000 
#    y 0.000000 1.808220 0.000000 
#    z 0.000000 0.000000 1.745720 
# 
# From -- ./inp_files/4694.got.cif
#   From: 2010.05.17/outbox.cif.g08.bks.cpg/sg137_3_cif.got.tgz:4694.got - 2010.05.20 13:01:12.
