data_PCOD9570353
_publ_section_title
;
Structure prediction by ZEFSAII (Michael W. Deem and Ramdas Pophale) SiO2 
 PCOD9570353
Probable space group: P 42/N M C
;
_chemical_formula_sum "Si O2"
_cell_formula_units_Z 96
_cell_length_a 14.212479
_cell_length_b 14.212479
_cell_length_c 23.020029
_cell_angle_alpha 90.000000
_cell_angle_beta 90.000000
_cell_angle_gamma 90.000000
_cell_volume 4649.920614
_symmetry_space_group_name_H-M "P 42/N M C"
_symmetry_group_IT_number 137
_space_group.IT_coordinate_system_code '2'
_symmetry_cell_setting 'tetragonal'
loop_
_space_group_symop_operation_xyz
x,y,z
1/2-y,x,1/2+z
1/2-x,1/2-y,z
y,1/2-x,1/2+z
1/2+x,-y,-z
-x,1/2+y,-z
1/2+y,1/2+x,1/2-z
-y,-x,1/2-z
-x,-y,-z
1/2+y,-x,1/2-z
1/2+x,1/2+y,-z
-y,1/2+x,1/2-z
1/2-x,y,z
x,1/2-y,z
1/2-y,1/2-x,1/2+z
y,x,1/2+z
loop_
_atom_site_type_symbol
_atom_site_label
_atom_site_fract_x
_atom_site_fract_y
_atom_site_fract_z
Si Si1 0.858417 0.136630 0.579638
Si Si2 0.364098 0.854950 0.546180
Si Si3 0.965272 0.457415 0.815306
Si Si4 0.135670 0.357825 0.505664
Si Si5 0.638939 0.526694 0.378319
Si Si6 0.138129 0.363610 0.874039
O O1 0.750000 0.104058 0.583527
O O2 0.858633 0.250000 0.578396
O O3 0.897865 0.107437 0.516333
O O4 0.911451 0.098957 0.635111
O O5 0.250000 0.851415 0.539424
O O6 0.399169 0.750000 0.555453
O O7 0.380377 0.921087 0.600049
O O8 0.069218 0.417794 0.830513
O O9 0.935552 0.435552 0.750000
O O10 0.955874 0.569204 0.825717
O O11 0.250000 0.359422 0.503181
O O12 0.105149 0.250000 0.513165
O O13 0.112616 0.413699 0.564017
O O14 0.106859 0.388239 0.440658
O O15 0.750000 0.540053 0.366683
O O16 0.250000 0.381081 0.866558
O O17 0.124940 0.250000 0.868963
#
# Coordination Sequence:
#
# PCOD9570353 Si02
#       6
#    16  16  16  16  16  16
#     4   9  19  37  60  86 115 140 165 212 280 345
#     4   8  15  31  57  86 110 132 165 215 278 343
#     4  12  26  38  52  77 110 151 199 236 257 302
#     4   8  15  31  57  86 111 135 170 222 284 344
#     4  10  21  37  55  76 109 149 181 221 278 325
#     4   9  19  38  63  87 110 138 176 228 287 337
#
# _framework density 20.645513999999999
#
# number of rings (size 3 to 8) (size 9 to 14) (size 15 to 20)
#    0.000    2.667    0.000    3.500    0.000    8.667 
#    0.000    4.167    0.000    2.000    0.000    1.167 
#    0.000    0.000    0.000    0.000    0.000    0.000 
#
# Total GULP energy -536059.230961 kJ/mol
# GULP energy per Si atom -5583.950323 kJ/mol
# Density = 2.059852 g / cm^3
# Si number density = 20.645514 Si / 1000 Ang^3
#
#
#
# Elastic Constant Matrix: (Units=GPa)
#
#
# Indices 1 2 3 4 5 6 
#
# 1 43.0532 -7.2984 -8.4583 0.0000 0.0000 0.0000
# 2 -7.2984 43.0532 -8.4583 0.0000 0.0000 0.0000
# 3 -8.4583 -8.4583 39.2881 0.0000 0.0000 0.0000
# 4 0.0000 0.0000 0.0000 5.0622 0.0000 0.0000
# 5 0.0000 0.0000 0.0000 0.0000 5.0622 0.0000
# 6 0.0000 0.0000 0.0000 0.0000 0.0000 19.1203
#
#
#
# Elastic Compliance Matrix: (Units=1/GPa)
#
#
# Indices 1 2 3 4 5 6 
#
# 1 0.025500 0.005640 0.006704 0.000000 0.000000 0.000000
# 2 0.005640 0.025500 0.006704 0.000000 0.000000 0.000000
# 3 0.006704 0.006704 0.028340 0.000000 0.000000 0.000000
# 4 0.000000 0.000000 0.000000 0.197541 0.000000 0.000000
# 5 0.000000 0.000000 0.000000 0.000000 0.197541 0.000000
# 6 0.000000 0.000000 0.000000 0.000000 0.000000 0.052300
#
#
# Mechanical properties :
#
#
# Convention : Reuss Voigt Hill
#
# Bulk Modulus (GPa) = 8.51521 8.55159 8.53340
# Shear Modulus (GPa) = 9.47379 15.82293 12.64836
#
# Velocity S-wave (km/s) = 2.14447 2.77141 2.47785
# Velocity P-wave (km/s) = 3.20392 3.79369 3.51121
#
# Compressibility (1/GPa) = 0.11743698
#
# Stress axis : x y z
#
# Youngs Moduli (GPa) = 39.21524 39.21524 35.28617
#
# Poissons Ratio (x) = -0.22117 -0.23657
# Poissons Ratio (y) = -0.22117 -0.23657
# Poissons Ratio (z) = -0.26291 -0.26291
#
# Static dielectric constant tensor:
#      x y z
#    x 1.787400 0.000000 0.000000 
#    y 0.000000 1.787400 0.000000 
#    z 0.000000 0.000000 1.679210 
# 
# From -- ./inp_files/7795.got.cif
#   From: 2010.05.17/outbox.cif.g08.bks.cpg/sg137_4_cif.got.tgz:7795.got - 2010.05.20 13:01:12.
