data_PCOD9570018
_publ_section_title
;
Structure prediction by ZEFSAII (Michael W. Deem and Ramdas Pophale) SiO2 
 PCOD9570018
Probable space group: P 42/N M C
;
_chemical_formula_sum "Si O2"
_cell_formula_units_Z 112
_cell_length_a 14.425593
_cell_length_b 14.425593
_cell_length_c 32.307608
_cell_angle_alpha 90.000000
_cell_angle_beta 90.000000
_cell_angle_gamma 90.000000
_cell_volume 6723.139996
_symmetry_space_group_name_H-M "P 42/N M C"
_symmetry_group_IT_number 137
_space_group.IT_coordinate_system_code '2'
_symmetry_cell_setting 'tetragonal'
loop_
_space_group_symop_operation_xyz
x,y,z
1/2-y,x,1/2+z
1/2-x,1/2-y,z
y,1/2-x,1/2+z
1/2+x,-y,-z
-x,1/2+y,-z
1/2+y,1/2+x,1/2-z
-y,-x,1/2-z
-x,-y,-z
1/2+y,-x,1/2-z
1/2+x,1/2+y,-z
-y,1/2+x,1/2-z
1/2-x,y,z
x,1/2-y,z
1/2-y,1/2-x,1/2+z
y,x,1/2+z
loop_
_atom_site_type_symbol
_atom_site_label
_atom_site_fract_x
_atom_site_fract_y
_atom_site_fract_z
Si Si1 0.637433 0.855167 0.743353
Si Si2 0.144546 0.137575 0.163909
Si Si3 0.523121 0.139102 0.543385
Si Si4 0.643506 0.358718 0.037865
Si Si5 0.140637 0.460136 0.581195
Si Si6 0.859216 0.138971 0.623978
Si Si7 0.862380 0.453755 0.709752
O O1 0.750000 0.850981 0.743980
O O2 0.604649 0.750000 0.735044
O O3 0.611374 0.886141 0.790034
O O4 0.610784 0.937825 0.712900
O O5 0.250000 0.102521 0.157089
O O6 0.150026 0.250000 0.164355
O O7 0.078735 0.112581 0.126086
O O8 0.512040 0.250000 0.545290
O O9 0.577720 0.118350 0.501269
O O10 0.423940 0.091485 0.548199
O O11 0.584528 0.110866 0.583202
O O12 0.750000 0.377532 0.049653
O O13 0.638424 0.250000 0.025379
O O14 0.569300 0.372605 0.074072
O O15 0.250000 0.439697 0.575463
O O16 0.750000 0.117669 0.618305
O O17 0.867149 0.250000 0.628544
O O18 0.891868 0.092107 0.666565
O O19 0.902299 0.402299 0.750000
O O20 0.750000 0.447432 0.711670
#
# Coordination Sequence:
#
# PCOD9570018 Si02
#       7
#    16  16  16  16  16  16  16
#     4   8  15  28  45  64  88 119 152 186 224 269
#     4   8  14  25  41  64  92 115 138 175 227 280
#     4  10  19  30  48  69  93 124 153 183 225 278
#     4   9  18  33  50  67  89 121 159 191 219 261
#     4  10  19  29  45  70  95 116 142 184 232 272
#     4   9  18  31  45  65  93 124 157 189 221 266
#     4  10  19  28  42  65  94 124 153 185 225 269
#
# _framework density 16.658882999999999
#
# number of rings (size 3 to 8) (size 9 to 14) (size 15 to 20)
#    0.000    2.857    0.000    2.571    2.000    3.286 
#    0.000    0.000    0.000    0.857    0.000    0.000 
#    0.000   11.714    0.000    0.000    0.000    0.000 
#
# Total GULP energy -624080.847646 kJ/mol
# GULP energy per Si atom -5572.150425 kJ/mol
# Density = 1.662097 g / cm^3
# Si number density = 16.658883 Si / 1000 Ang^3
#
#
#
# Elastic Constant Matrix: (Units=GPa)
#
#
# Indices 1 2 3 4 5 6 
#
# 1 45.7099 20.8905 27.4118 0.0000 0.0000 0.0000
# 2 20.8905 45.7099 27.4118 0.0000 0.0000 0.0000
# 3 27.4118 27.4118 52.1108 0.0000 0.0000 0.0000
# 4 0.0000 0.0000 0.0000 10.9433 0.0000 0.0000
# 5 0.0000 0.0000 0.0000 0.0000 10.9433 0.0000
# 6 0.0000 0.0000 0.0000 0.0000 0.0000 14.3491
#
#
#
# Elastic Compliance Matrix: (Units=1/GPa)
#
#
# Indices 1 2 3 4 5 6 
#
# 1 0.033386 -0.006905 -0.013930 0.000000 0.000000 0.000000
# 2 -0.006905 0.033386 -0.013930 0.000000 0.000000 0.000000
# 3 -0.013930 -0.013930 0.033845 0.000000 0.000000 0.000000
# 4 0.000000 0.000000 0.000000 0.091380 0.000000 0.000000
# 5 0.000000 0.000000 0.000000 0.000000 0.091380 0.000000
# 6 0.000000 0.000000 0.000000 0.000000 0.000000 0.069691
#
#
# Mechanical properties :
#
#
# Convention : Reuss Voigt Hill
#
# Bulk Modulus (GPa) = 32.16660 32.77317 32.46989
# Shear Modulus (GPa) = 11.54834 11.76823 11.65828
#
# Velocity S-wave (km/s) = 2.63577 2.66075 2.64829
# Velocity P-wave (km/s) = 5.34920 5.39956 5.37444
#
# Compressibility (1/GPa) = 0.03108815
#
# Stress axis : x y z
#
# Youngs Moduli (GPa) = 29.95224 29.95224 29.54621
#
# Poissons Ratio (x) = 0.20681 0.41159
# Poissons Ratio (y) = 0.20681 0.41159
# Poissons Ratio (z) = 0.41724 0.41724
#
# Static dielectric constant tensor:
#      x y z
#    x 1.575490 0.000000 0.000000 
#    y 0.000000 1.575490 0.000000 
#    z 0.000000 0.000000 1.553990 
# 
# From -- ./inp_files/9817.got.cif
#   From: 2010.05.17/outbox.cif.g08.bks.cpg/sg137_5_cif.got.tgz:9817.got - 2010.05.20 13:01:12.
