data_PCOD9570499
_publ_section_title
;
Structure prediction by ZEFSAII (Michael W. Deem and Ramdas Pophale) SiO2 
 PCOD9570499
Probable space group: P 42/N M C
;
_chemical_formula_sum "Si O2"
_cell_formula_units_Z 48
_cell_length_a 11.024301
_cell_length_b 11.024301
_cell_length_c 18.998445
_cell_angle_alpha 90.000000
_cell_angle_beta 90.000000
_cell_angle_gamma 90.000000
_cell_volume 2308.980051
_symmetry_space_group_name_H-M "P 42/N M C"
_symmetry_group_IT_number 137
_space_group.IT_coordinate_system_code '2'
_symmetry_cell_setting 'tetragonal'
loop_
_space_group_symop_operation_xyz
x,y,z
1/2-y,x,1/2+z
1/2-x,1/2-y,z
y,1/2-x,1/2+z
1/2+x,-y,-z
-x,1/2+y,-z
1/2+y,1/2+x,1/2-z
-y,-x,1/2-z
-x,-y,-z
1/2+y,-x,1/2-z
1/2+x,1/2+y,-z
-y,1/2+x,1/2-z
1/2-x,y,z
x,1/2-y,z
1/2-y,1/2-x,1/2+z
y,x,1/2+z
loop_
_atom_site_type_symbol
_atom_site_label
_atom_site_fract_x
_atom_site_fract_y
_atom_site_fract_z
Si Si1 0.250000 0.392517 0.453835
Si Si2 0.482588 0.459014 0.364672
Si Si3 0.389603 0.610398 0.250000
Si Si4 0.606171 0.750000 0.737125
Si Si5 0.250000 0.006285 0.606523
O O1 0.250000 0.250000 0.436920
O O2 0.373804 0.447371 0.420913
O O3 0.250000 0.412139 0.537165
O O4 0.467374 0.582221 0.319896
O O5 0.451331 0.362744 0.303880
O O6 0.618442 0.439559 0.393429
O O7 0.250000 0.590774 0.270157
O O8 0.750000 0.750000 0.728299
O O9 0.573326 0.750000 0.818635
#
# Coordination Sequence:
#
# PCOD9570499 Si02
#       5
#     8  16   8   8   8
#     4  12  25  48  70  94 143 191 231 282 365 431
#     4  12  23  44  70 100 140 180 231 294 346 418
#     4  11  22  38  70 103 132 176 242 289 336 402
#     4  12  21  43  75  96 134 189 240 279 345 434
#     4  12  27  39  68 111 138 180 236 295 352 426
#
# _framework density 20.788398999999998
#
# number of rings (size 3 to 8) (size 9 to 14) (size 15 to 20)
#    0.000    0.167    8.333    1.500    0.000    2.000 
#    0.000    1.667    3.667    0.000    0.000    0.000 
#    0.000    0.000    0.000    0.000    0.000    0.000 
#
# Total GULP energy -267979.134909 kJ/mol
# GULP energy per Si atom -5582.898644 kJ/mol
# Density = 2.074108 g / cm^3
# Si number density = 20.788399 Si / 1000 Ang^3
#
#
#
# Elastic Constant Matrix: (Units=GPa)
#
#
# Indices 1 2 3 4 5 6 
#
# 1 120.0110 18.6009 25.2457 0.0000 0.0000 0.0000
# 2 18.6009 120.0114 25.2454 0.0000 0.0000 0.0000
# 3 25.2457 25.2454 125.1826 0.0000 0.0000 0.0000
# 4 0.0000 0.0000 0.0000 28.9240 0.0000 0.0000
# 5 0.0000 0.0000 0.0000 0.0000 28.9235 0.0000
# 6 0.0000 0.0000 0.0000 0.0000 0.0000 17.1861
#
#
#
# Elastic Compliance Matrix: (Units=1/GPa)
#
#
# Indices 1 2 3 4 5 6 
#
# 1 0.008824 -0.001037 -0.001570 0.000000 0.000000 0.000000
# 2 -0.001037 0.008824 -0.001570 0.000000 0.000000 0.000000
# 3 -0.001570 -0.001570 0.008622 0.000000 0.000000 0.000000
# 4 0.000000 0.000000 0.000000 0.034573 0.000000 0.000000
# 5 0.000000 0.000000 0.000000 0.000000 0.034574 0.000000
# 6 0.000000 0.000000 0.000000 0.000000 0.000000 0.058187
#
#
# Mechanical properties :
#
#
# Convention : Reuss Voigt Hill
#
# Bulk Modulus (GPa) = 55.82438 55.93211 55.87825
# Shear Modulus (GPa) = 29.77437 34.74760 32.26099
#
# Velocity S-wave (km/s) = 3.78863 4.09282 3.94366
# Velocity P-wave (km/s) = 6.78603 7.02131 6.90467
#
# Compressibility (1/GPa) = 0.01791332
#
# Stress axis : x y z
#
# Youngs Moduli (GPa) = 113.33158 113.33208 115.98665
#
# Poissons Ratio (x) = 0.11756 0.18213
# Poissons Ratio (y) = 0.11756 0.18213
# Poissons Ratio (z) = 0.17796 0.17796
#
# Static dielectric constant tensor:
#      x y z
#    x 1.836490 0.000000 0.000000 
#    y 0.000000 1.836480 0.000000 
#    z 0.000000 0.000000 1.707840 
# 
# From -- ./inp_files/5837.got.cif
#   From: 2010.05.17/outbox.cif.g08.bks.cpg/sg137_3_cif.got.tgz:5837.got - 2010.05.20 13:01:12.
