data_PCOD9570473
_publ_section_title
;
Structure prediction by ZEFSAII (Michael W. Deem and Ramdas Pophale) SiO2 
 PCOD9570473
Probable space group: P 42/N M C
;
_chemical_formula_sum "Si O2"
_cell_formula_units_Z 80
_cell_length_a 14.052948
_cell_length_b 14.052948
_cell_length_c 27.363842
_cell_angle_alpha 90.000000
_cell_angle_beta 90.000000
_cell_angle_gamma 90.000000
_cell_volume 5403.957846
_symmetry_space_group_name_H-M "P 42/N M C"
_symmetry_group_IT_number 137
_space_group.IT_coordinate_system_code '2'
_symmetry_cell_setting 'tetragonal'
loop_
_space_group_symop_operation_xyz
x,y,z
1/2-y,x,1/2+z
1/2-x,1/2-y,z
y,1/2-x,1/2+z
1/2+x,-y,-z
-x,1/2+y,-z
1/2+y,1/2+x,1/2-z
-y,-x,1/2-z
-x,-y,-z
1/2+y,-x,1/2-z
1/2+x,1/2+y,-z
-y,1/2+x,1/2-z
1/2-x,y,z
x,1/2-y,z
1/2-y,1/2-x,1/2+z
y,x,1/2+z
loop_
_atom_site_type_symbol
_atom_site_label
_atom_site_fract_x
_atom_site_fract_y
_atom_site_fract_z
Si Si1 0.456671 0.538125 0.395047
Si Si2 0.364206 0.360863 0.446759
Si Si3 0.355639 0.863916 0.015419
Si Si4 0.362001 0.461877 0.548423
Si Si5 0.861435 0.137457 0.807774
O O1 0.419046 0.434107 0.411593
O O2 0.407110 0.609128 0.433921
O O3 0.568242 0.549534 0.406226
O O4 0.423421 0.570093 0.341970
O O5 0.250000 0.375819 0.440384
O O6 0.385211 0.250000 0.438616
O O7 0.384078 0.390496 0.503257
O O8 0.250000 0.896412 0.002434
O O9 0.354963 0.750000 0.021069
O O10 0.434649 0.884215 0.974767
O O11 0.250000 0.454826 0.559400
O O12 0.877151 0.122850 0.750000
O O13 0.750000 0.116169 0.818079
O O14 0.875491 0.250000 0.817942
#
# Coordination Sequence:
#
# PCOD9570473 Si02
#       5
#    16  16  16  16  16
#     4  11  18  26  45  64  82 113 149 176 205 252
#     4   9  17  28  41  61  91 120 143 170 205 249
#     4   9  16  26  42  65  90 111 136 175 216 251
#     4   9  19  30  38  57  88 119 149 177 203 237
#     4   9  18  32  49  69  89 104 125 168 223 267
#
# _framework density 14.803965
#
# number of rings (size 3 to 8) (size 9 to 14) (size 15 to 20)
#    0.000    2.600    0.000    6.600    0.000    5.600 
#    0.000    0.000    0.000    1.200    0.000    2.800 
#    0.000    0.000    0.000    1.800    0.000    0.200 
#
# Total GULP energy -446043.375564 kJ/mol
# GULP energy per Si atom -5575.542195 kJ/mol
# Density = 1.477027 g / cm^3
# Si number density = 14.803965 Si / 1000 Ang^3
#
#
#
# Elastic Constant Matrix: (Units=GPa)
#
#
# Indices 1 2 3 4 5 6 
#
# 1 74.0940 34.3416 40.8667 0.0000 0.0000 0.0000
# 2 34.3416 74.0944 40.8669 0.0000 0.0000 0.0000
# 3 40.8667 40.8669 57.9705 0.0000 0.0000 0.0000
# 4 0.0000 0.0000 0.0000 12.3921 0.0000 0.0000
# 5 0.0000 0.0000 0.0000 0.0000 12.3920 0.0000
# 6 0.0000 0.0000 0.0000 0.0000 0.0000 9.4914
#
#
#
# Elastic Compliance Matrix: (Units=1/GPa)
#
#
# Indices 1 2 3 4 5 6 
#
# 1 0.022417 -0.002739 -0.013872 0.000000 0.000000 0.000000
# 2 -0.002739 0.022417 -0.013873 0.000000 0.000000 0.000000
# 3 -0.013872 -0.013873 0.036809 0.000000 0.000000 0.000000
# 4 0.000000 0.000000 0.000000 0.080697 0.000000 0.000000
# 5 0.000000 0.000000 0.000000 0.000000 0.080697 0.000000
# 6 0.000000 0.000000 0.000000 0.000000 0.000000 0.105359
#
#
# Mechanical properties :
#
#
# Convention : Reuss Voigt Hill
#
# Bulk Modulus (GPa) = 48.36489 48.70102 48.53295
# Shear Modulus (GPa) = 12.01186 12.86068 12.43627
#
# Velocity S-wave (km/s) = 2.85159 2.95062 2.90153
# Velocity P-wave (km/s) = 6.60176 6.67660 6.63928
#
# Compressibility (1/GPa) = 0.02067616
#
# Stress axis : x y z
#
# Youngs Moduli (GPa) = 44.60895 44.60900 27.16709
#
# Poissons Ratio (x) = 0.12216 0.37687
# Poissons Ratio (y) = 0.12216 0.37688
# Poissons Ratio (z) = 0.61884 0.61884
#
# Static dielectric constant tensor:
#      x y z
#    x 1.518820 0.000000 0.000000 
#    y 0.000000 1.518820 0.000000 
#    z 0.000000 0.000000 1.455760 
# 
# From -- ./inp_files/8706.got.cif
#   From: 2010.05.17/outbox.cif.g08.bks.cpg/sg137_5_cif.got.tgz:8706.got - 2010.05.20 13:01:12.
