data_PCOD9570418
_publ_section_title
;
Structure prediction by ZEFSAII (Michael W. Deem and Ramdas Pophale) SiO2 
 PCOD9570418
Probable space group: P 42/N M C
;
_chemical_formula_sum "Si O2"
_cell_formula_units_Z 112
_cell_length_a 23.837881
_cell_length_b 23.837881
_cell_length_c 12.418661
_cell_angle_alpha 90.000000
_cell_angle_beta 90.000000
_cell_angle_gamma 90.000000
_cell_volume 7056.836687
_symmetry_space_group_name_H-M "P 42/N M C"
_symmetry_group_IT_number 137
_space_group.IT_coordinate_system_code '2'
_symmetry_cell_setting 'tetragonal'
loop_
_space_group_symop_operation_xyz
x,y,z
1/2-y,x,1/2+z
1/2-x,1/2-y,z
y,1/2-x,1/2+z
1/2+x,-y,-z
-x,1/2+y,-z
1/2+y,1/2+x,1/2-z
-y,-x,1/2-z
-x,-y,-z
1/2+y,-x,1/2-z
1/2+x,1/2+y,-z
-y,1/2+x,1/2-z
1/2-x,y,z
x,1/2-y,z
1/2-y,1/2-x,1/2+z
y,x,1/2+z
loop_
_atom_site_type_symbol
_atom_site_label
_atom_site_fract_x
_atom_site_fract_y
_atom_site_fract_z
Si Si1 0.011356 0.814017 0.639201
Si Si2 0.183561 0.099419 0.467507
Si Si3 0.866692 0.932043 0.753077
Si Si4 0.568407 0.456117 0.062519
Si Si5 0.368831 0.475894 0.648271
Si Si6 0.994867 0.447451 0.855548
Si Si7 0.685866 0.910348 0.972538
O O1 0.031761 0.750000 0.621793
O O2 0.047916 0.867557 0.600020
O O3 0.998599 0.824846 0.764599
O O4 0.953724 0.820132 0.570926
O O5 0.250000 0.104694 0.484230
O O6 0.169384 0.097388 0.340129
O O7 0.159694 0.047283 0.539124
O O8 0.145386 0.149859 0.511409
O O9 0.923259 0.899626 0.792490
O O10 0.833451 0.940606 0.862859
O O11 0.888162 0.986580 0.690064
O O12 0.524850 0.413614 0.120551
O O13 0.545624 0.519609 0.085049
O O14 0.556968 0.446716 0.936520
O O15 0.982363 0.482363 0.750000
O O16 0.750000 0.894497 0.963074
#
# Coordination Sequence:
#
# PCOD9570418 Si02
#       7
#    16  16  16  16  16  16  16
#     4  11  21  35  51  74 109 145 175 211 269 327
#     4  11  22  36  53  73 101 140 188 232 274 312
#     4  11  19  34  52  76 102 135 172 230 278 323
#     4  11  20  30  50  80 104 133 173 217 262 333
#     4  11  20  34  52  76 104 132 176 222 277 322
#     4  11  18  28  50  77 105 131 170 218 270 329
#     4  10  22  37  52  71 103 145 189 227 265 312
#
# _framework density 15.871133
#
# number of rings (size 3 to 8) (size 9 to 14) (size 15 to 20)
#    0.000    1.143    5.714    2.143    4.000    0.286 
#    0.000    0.000    0.000    1.714    0.000    0.000 
#    0.000    9.714    0.000    0.000    0.000    6.286 
#
# Total GULP energy -624170.990156 kJ/mol
# GULP energy per Si atom -5572.955269 kJ/mol
# Density = 1.583501 g / cm^3
# Si number density = 15.871133 Si / 1000 Ang^3
#
#
#
# Elastic Constant Matrix: (Units=GPa)
#
#
# Indices 1 2 3 4 5 6 
#
# 1 73.2348 33.9932 20.9173 0.0000 0.0000 0.0000
# 2 33.9932 73.2348 20.9173 0.0000 0.0000 0.0000
# 3 20.9173 20.9173 75.4658 0.0000 0.0000 0.0000
# 4 0.0000 0.0000 0.0000 17.2532 0.0000 0.0000
# 5 0.0000 0.0000 0.0000 0.0000 17.2532 0.0000
# 6 0.0000 0.0000 0.0000 0.0000 0.0000 14.3000
#
#
#
# Elastic Compliance Matrix: (Units=1/GPa)
#
#
# Indices 1 2 3 4 5 6 
#
# 1 0.017970 -0.007513 -0.002898 0.000000 0.000000 0.000000
# 2 -0.007513 0.017970 -0.002898 0.000000 0.000000 0.000000
# 3 -0.002898 -0.002898 0.014858 0.000000 0.000000 0.000000
# 4 0.000000 0.000000 0.000000 0.057960 0.000000 0.000000
# 5 0.000000 0.000000 0.000000 0.000000 0.057960 0.000000
# 6 0.000000 0.000000 0.000000 0.000000 0.000000 0.069930
#
#
# Mechanical properties :
#
#
# Convention : Reuss Voigt Hill
#
# Bulk Modulus (GPa) = 41.36030 41.51009 41.43520
# Shear Modulus (GPa) = 18.42793 19.50179 18.96486
#
# Velocity S-wave (km/s) = 3.41118 3.50917 3.46052
# Velocity P-wave (km/s) = 6.45225 6.52918 6.49083
#
# Compressibility (1/GPa) = 0.02417777
#
# Stress axis : x y z
#
# Youngs Moduli (GPa) = 55.64854 55.64854 67.30506
#
# Poissons Ratio (x) = 0.41810 0.19507
# Poissons Ratio (y) = 0.41810 0.19507
# Poissons Ratio (z) = 0.16129 0.16129
#
# Static dielectric constant tensor:
#      x y z
#    x 1.541310 0.000000 0.000000 
#    y 0.000000 1.541310 0.000000 
#    z 0.000000 0.000000 1.573730 
# 
# From -- ./inp_files/3970.got.cif
#   From: 2010.05.17/outbox.cif.g08.bks.cpg/sg137_2_cif.got.tgz:3970.got - 2010.05.20 13:01:12.
