data_PCOD9570280
_publ_section_title
;
Structure prediction by ZEFSAII (Michael W. Deem and Ramdas Pophale) SiO2 
 PCOD9570280
Probable space group: P 42/N M C
;
_chemical_formula_sum "Si O2"
_cell_formula_units_Z 48
_cell_length_a 7.977576
_cell_length_b 7.977576
_cell_length_c 38.439207
_cell_angle_alpha 90.000000
_cell_angle_beta 90.000000
_cell_angle_gamma 90.000000
_cell_volume 2446.337204
_symmetry_space_group_name_H-M "P 42/N M C"
_symmetry_group_IT_number 137
_space_group.IT_coordinate_system_code '2'
_symmetry_cell_setting 'tetragonal'
loop_
_space_group_symop_operation_xyz
x,y,z
1/2-y,x,1/2+z
1/2-x,1/2-y,z
y,1/2-x,1/2+z
1/2+x,-y,-z
-x,1/2+y,-z
1/2+y,1/2+x,1/2-z
-y,-x,1/2-z
-x,-y,-z
1/2+y,-x,1/2-z
1/2+x,1/2+y,-z
-y,1/2+x,1/2-z
1/2-x,y,z
x,1/2-y,z
1/2-y,1/2-x,1/2+z
y,x,1/2+z
loop_
_atom_site_type_symbol
_atom_site_label
_atom_site_fract_x
_atom_site_fract_y
_atom_site_fract_z
Si Si1 0.750000 0.946876 0.912992
Si Si2 0.049675 0.440411 0.461395
Si Si3 0.546253 0.561618 0.711666
Si Si4 0.250000 0.550930 0.166300
O O1 0.750000 0.750000 0.908566
O O2 0.583274 0.994038 0.934531
O O3 0.750000 0.024010 0.874706
O O4 0.250000 0.433657 0.459944
O O5 0.985662 0.250000 0.455081
O O6 0.000000 0.500000 0.500000
O O7 0.478344 0.521657 0.750000
O O8 0.750000 0.555892 0.713479
O O9 0.498363 0.750000 0.701102
O O10 0.486323 0.417560 0.685294
O O11 0.250000 0.750000 0.172301
#
# Coordination Sequence:
#
# PCOD9570280 Si02
#       4
#     8  16  16   8
#     4  12  26  42  62  92 132 174 212 266 328 382
#     4  11  23  40  66  95 124 162 214 268 321 384
#     4  10  20  36  63  93 122 161 209 259 316 382
#     4  10  22  40  62  88 130 170 210 262 324 378
#
# _framework density 19.621168999999998
#
# number of rings (size 3 to 8) (size 9 to 14) (size 15 to 20)
#    0.000    1.333    3.333    2.500    0.000    5.000 
#    0.000    3.333    0.000    0.000    0.000    0.000 
#    0.000    0.000    0.000    0.000    0.000    0.000 
#
# Total GULP energy -268163.821377 kJ/mol
# GULP energy per Si atom -5586.746279 kJ/mol
# Density = 1.957651 g / cm^3
# Si number density = 19.621169 Si / 1000 Ang^3
#
#
#
# Elastic Constant Matrix: (Units=GPa)
#
#
# Indices 1 2 3 4 5 6 
#
# 1 61.7340 33.8381 19.3447 0.0000 0.0000 0.0000
# 2 33.8381 61.7373 19.3448 0.0000 0.0000 0.0000
# 3 19.3447 19.3448 116.1648 0.0000 0.0000 0.0000
# 4 0.0000 0.0000 0.0000 16.7248 0.0000 0.0000
# 5 0.0000 0.0000 0.0000 0.0000 16.7250 0.0000
# 6 0.0000 0.0000 0.0000 0.0000 0.0000 19.5355
#
#
#
# Elastic Compliance Matrix: (Units=1/GPa)
#
#
# Indices 1 2 3 4 5 6 
#
# 1 0.023533 -0.012313 -0.001868 0.000000 0.000000 0.000000
# 2 -0.012313 0.023532 -0.001868 0.000000 0.000000 0.000000
# 3 -0.001868 -0.001868 0.009231 0.000000 0.000000 0.000000
# 4 0.000000 0.000000 0.000000 0.059791 0.000000 0.000000
# 5 0.000000 0.000000 0.000000 0.000000 0.059791 0.000000
# 6 0.000000 0.000000 0.000000 0.000000 0.000000 0.051189
#
#
# Mechanical properties :
#
#
# Convention : Reuss Voigt Hill
#
# Bulk Modulus (GPa) = 41.32877 42.74346 42.03612
# Shear Modulus (GPa) = 18.71037 21.73762 20.22400
#
# Velocity S-wave (km/s) = 3.09136 3.33207 3.21397
# Velocity P-wave (km/s) = 5.81817 6.05271 5.93660
#
# Compressibility (1/GPa) = 0.02419622
#
# Stress axis : x y z
#
# Youngs Moduli (GPa) = 42.49336 42.49568 108.33382
#
# Poissons Ratio (x) = 0.52325 0.20242
# Poissons Ratio (y) = 0.52322 0.20240
# Poissons Ratio (z) = 0.07940 0.07939
#
# Static dielectric constant tensor:
#      x y z
#    x 1.700240 0.000000 0.000000 
#    y 0.000000 1.700240 0.000000 
#    z 0.000000 0.000000 1.591870 
# 
# From -- ./inp_files/10014.got.cif
#   From: 2010.05.17/outbox.cif.g08.bks.cpg/sg137_6_cif.got.tgz:10014.got - 2010.05.20 13:01:12.
