data_PCOD9570649
_publ_section_title
;
Structure prediction by ZEFSAII (Michael W. Deem and Ramdas Pophale) SiO2 
 PCOD9570649
Probable space group: P 42/N C M
;
_chemical_formula_sum "Si O2"
_cell_formula_units_Z 80
_cell_length_a 13.633937
_cell_length_b 13.633937
_cell_length_c 25.082750
_cell_angle_alpha 90.000000
_cell_angle_beta 90.000000
_cell_angle_gamma 90.000000
_cell_volume 4662.487874
_symmetry_space_group_name_H-M "P 42/N C M"
_symmetry_group_IT_number 138
_space_group.IT_coordinate_system_code '2'
_symmetry_cell_setting 'tetragonal'
loop_
_space_group_symop_operation_xyz
x,y,z
1/2-y,x,1/2+z
1/2-x,1/2-y,z
y,1/2-x,1/2+z
1/2+x,-y,1/2-z
-x,1/2+y,1/2-z
1/2+y,1/2+x,-z
-y,-x,-z
-x,-y,-z
1/2+y,-x,1/2-z
1/2+x,1/2+y,-z
-y,1/2+x,1/2-z
1/2-x,y,1/2+z
x,1/2-y,1/2+z
1/2-y,1/2-x,z
y,x,z
loop_
_atom_site_type_symbol
_atom_site_label
_atom_site_fract_x
_atom_site_fract_y
_atom_site_fract_z
Si Si1 0.334488 0.006569 0.170713
Si Si2 0.992915 0.829192 0.203498
Si Si3 0.149554 0.513047 0.877339
Si Si4 0.540258 0.377480 0.136478
Si Si5 0.211968 0.647052 0.440847
O O1 0.311098 0.000983 0.233653
O O2 0.407707 0.921395 0.151024
O O3 0.392092 0.107909 0.161159
O O4 0.233018 0.995008 0.140565
O O5 0.987912 0.733932 0.165995
O O6 0.087179 0.893902 0.186503
O O7 0.898679 0.898679 0.193433
O O8 0.081142 0.418859 0.890433
O O9 0.203965 0.566508 0.927514
O O10 0.449385 0.449385 0.132490
O O11 0.614585 0.389381 0.087884
O O12 0.250000 0.750000 0.415648
O O13 0.178325 0.678325 0.500000
#
# Coordination Sequence:
#
# PCOD9570649 Si02
#       5
#    16  16  16  16  16
#     4  10  19  32  50  78 111 146 183 218 260 317
#     4   9  19  32  51  78 110 146 183 219 262 320
#     4  10  20  35  55  81 112 143 180 226 275 321
#     4  10  20  35  53  77 107 141 177 219 269 322
#     4  10  20  38  60  80 103 134 182 230 273 324
#
# _framework density 17.158221999999999
#
# number of rings (size 3 to 8) (size 9 to 14) (size 15 to 20)
#    0.000    2.200    2.000    1.200    0.000    3.600 
#    0.000    7.000    0.000    0.000    0.000    0.000 
#    0.000    0.000    0.000    0.000    0.000    0.000 
#
# Total GULP energy -445580.203561 kJ/mol
# GULP energy per Si atom -5569.752545 kJ/mol
# Density = 1.711917 g / cm^3
# Si number density = 17.158222 Si / 1000 Ang^3
#
#
#
# Elastic Constant Matrix: (Units=GPa)
#
#
# Indices 1 2 3 4 5 6 
#
# 1 92.6847 64.3102 28.3236 0.0000 0.0000 0.0000
# 2 64.3102 92.6847 28.3236 0.0000 0.0000 0.0000
# 3 28.3236 28.3236 46.3426 0.0000 0.0000 0.0000
# 4 0.0000 0.0000 0.0000 19.1078 0.0000 0.0000
# 5 0.0000 0.0000 0.0000 0.0000 19.1078 0.0000
# 6 0.0000 0.0000 0.0000 0.0000 0.0000 20.8928
#
#
#
# Elastic Compliance Matrix: (Units=1/GPa)
#
#
# Indices 1 2 3 4 5 6 
#
# 1 0.021707 -0.013536 -0.004994 0.000000 0.000000 0.000000
# 2 -0.013536 0.021707 -0.004994 0.000000 0.000000 0.000000
# 3 -0.004994 -0.004994 0.027683 0.000000 0.000000 0.000000
# 4 0.000000 0.000000 0.000000 0.052335 0.000000 0.000000
# 5 0.000000 0.000000 0.000000 0.000000 0.052335 0.000000
# 6 0.000000 0.000000 0.000000 0.000000 0.000000 0.047863
#
#
# Mechanical properties :
#
#
# Convention : Reuss Voigt Hill
#
# Bulk Modulus (GPa) = 41.58133 52.62518 47.10325
# Shear Modulus (GPa) = 17.94071 19.20531 18.57301
#
# Velocity S-wave (km/s) = 3.23709 3.34923 3.29364
# Velocity P-wave (km/s) = 6.18533 6.75970 6.47889
#
# Compressibility (1/GPa) = 0.02404926
#
# Stress axis : x y z
#
# Youngs Moduli (GPa) = 46.06745 46.06745 36.12286
#
# Poissons Ratio (x) = 0.62355 0.18041
# Poissons Ratio (y) = 0.62355 0.18041
# Poissons Ratio (z) = 0.23008 0.23008
#
# Static dielectric constant tensor:
#      x y z
#    x 1.583560 0.000000 0.000000 
#    y 0.000000 1.583560 0.000000 
#    z 0.000000 0.000000 1.637340 
# 
# From -- ./inp_files/7879.got.cif
#   From: 2010.05.17/outbox.cif.g08.bks.cpg/sg138_4_cif.got.tgz:7879.got - 2010.05.20 13:08:53.
