data_PCOD9570365
_publ_section_title
;
Structure prediction by ZEFSAII (Michael W. Deem and Ramdas Pophale) SiO2 
 PCOD9570365
Probable space group: P 42/N M C
;
_chemical_formula_sum "Si O2"
_cell_formula_units_Z 96
_cell_length_a 16.347384
_cell_length_b 16.347384
_cell_length_c 18.384554
_cell_angle_alpha 90.000000
_cell_angle_beta 90.000000
_cell_angle_gamma 90.000000
_cell_volume 4913.032389
_symmetry_space_group_name_H-M "P 42/N M C"
_symmetry_group_IT_number 137
_space_group.IT_coordinate_system_code '2'
_symmetry_cell_setting 'tetragonal'
loop_
_space_group_symop_operation_xyz
x,y,z
1/2-y,x,1/2+z
1/2-x,1/2-y,z
y,1/2-x,1/2+z
1/2+x,-y,-z
-x,1/2+y,-z
1/2+y,1/2+x,1/2-z
-y,-x,1/2-z
-x,-y,-z
1/2+y,-x,1/2-z
1/2+x,1/2+y,-z
-y,1/2+x,1/2-z
1/2-x,y,z
x,1/2-y,z
1/2-y,1/2-x,1/2+z
y,x,1/2+z
loop_
_atom_site_type_symbol
_atom_site_label
_atom_site_fract_x
_atom_site_fract_y
_atom_site_fract_z
Si Si1 0.064793 0.451940 0.706169
Si Si2 0.157639 0.624065 0.010923
Si Si3 0.157933 0.069924 0.980541
Si Si4 0.345934 0.155521 0.825341
Si Si5 0.155444 0.911260 0.174285
Si Si6 0.986929 0.841861 0.935697
O O1 0.104540 0.387379 0.761359
O O2 0.126330 0.484855 0.646350
O O3 0.026993 0.526993 0.750000
O O4 0.988207 0.404986 0.670107
O O5 0.250000 0.653850 0.992383
O O6 0.145969 0.636391 0.098001
O O7 0.158254 0.527183 0.992416
O O8 0.077865 0.655455 0.969222
O O9 0.250000 0.098897 0.003730
O O10 0.146770 0.101025 0.897970
O O11 0.079865 0.104283 0.022394
O O12 0.250000 0.156918 0.806102
O O13 0.371921 0.250000 0.838253
O O14 0.134591 0.865410 0.250000
O O15 0.250000 0.937905 0.176876
O O16 0.956185 0.750000 0.939558
#
# Coordination Sequence:
#
# PCOD9570365 Si02
#       6
#    16  16  16  16  16  16
#     4  11  23  39  60  85 119 158 204 248 298 368
#     4  10  22  42  65  89 124 167 211 261 314 371
#     4  10  21  39  63  92 126 163 206 255 312 376
#     4  10  21  37  58  86 121 159 198 247 308 369
#     4  10  22  38  60  89 121 160 204 254 311 371
#     4  12  25  39  63  94 125 161 207 259 316 376
#
# _framework density 19.539867000000001
#
# number of rings (size 3 to 8) (size 9 to 14) (size 15 to 20)
#    0.000    1.500    1.667    3.000    4.667    2.833 
#    0.000    2.500    0.000    0.000    0.000    0.000 
#    0.000    0.000    0.000    0.000    0.000    0.000 
#
# Total GULP energy -535907.268638 kJ/mol
# GULP energy per Si atom -5582.367382 kJ/mol
# Density = 1.949539 g / cm^3
# Si number density = 19.539867 Si / 1000 Ang^3
#
#
#
# Elastic Constant Matrix: (Units=GPa)
#
#
# Indices 1 2 3 4 5 6 
#
# 1 32.7187 54.0429 24.5748 0.0000 0.0000 0.0000
# 2 54.0429 32.7332 24.5751 0.0000 0.0000 0.0000
# 3 24.5748 24.5751 71.9357 0.0000 0.0000 0.0000
# 4 0.0000 0.0000 0.0000 46.4552 0.0000 0.0000
# 5 0.0000 0.0000 0.0000 0.0000 46.4543 0.0000
# 6 0.0000 0.0000 0.0000 0.0000 0.0000 102.9216
#
#
#
# Elastic Compliance Matrix: (Units=1/GPa)
#
#
# Indices 1 2 3 4 5 6 
#
# 1 -0.016315 0.030601 -0.004880 0.000000 0.000000 0.000000
# 2 0.030601 -0.016306 -0.004883 0.000000 0.000000 0.000000
# 3 -0.004880 -0.004883 0.017237 0.000000 0.000000 0.000000
# 4 0.000000 0.000000 0.000000 0.021526 0.000000 0.000000
# 5 0.000000 0.000000 0.000000 0.000000 0.021527 0.000000
# 6 0.000000 0.000000 0.000000 0.000000 0.000000 0.009716
#
#
# Mechanical properties :
#
#
# Convention : Reuss Voigt Hill
#
# Bulk Modulus (GPa) = 38.03767 38.19702 38.11735
# Shear Modulus (GPa) = 1117.49668 41.44587 579.47127
#
# Velocity S-wave (km/s) = 23.94050 4.61053 17.23956
# Velocity P-wave (km/s) = 27.99474 6.92339 20.39165
#
# Compressibility (1/GPa) = 0.02628973
#
# Stress axis : x y z
#
# Youngs Moduli (GPa) = -61.29255 -61.32843 58.01531
#
# Poissons Ratio (x) = 1.87669 0.28314
# Poissons Ratio (y) = 1.87559 0.28331
# Poissons Ratio (z) = -0.29913 -0.29949
#
# Static dielectric constant tensor:
#      x y z
#    x 1.684980 0.000000 0.000000 
#    y 0.000000 1.684980 0.000000 
#    z 0.000000 0.000000 1.695090 
# 
# From -- ./inp_files/7887.got.cif
#   From: 2010.05.17/outbox.cif.g08.bks.cpg/sg137_4_cif.got.tgz:7887.got - 2010.05.20 13:01:12.
