data_PCOD9570166
_publ_section_title
;
Structure prediction by ZEFSAII (Michael W. Deem and Ramdas Pophale) SiO2 
 PCOD9570166
Probable space group: P 42/N M C
;
_chemical_formula_sum "Si O2"
_cell_formula_units_Z 112
_cell_length_a 15.152602
_cell_length_b 15.152602
_cell_length_c 24.215036
_cell_angle_alpha 90.000000
_cell_angle_beta 90.000000
_cell_angle_gamma 90.000000
_cell_volume 5559.804892
_symmetry_space_group_name_H-M "P 42/N M C"
_symmetry_group_IT_number 137
_space_group.IT_coordinate_system_code '2'
_symmetry_cell_setting 'tetragonal'
loop_
_space_group_symop_operation_xyz
x,y,z
1/2-y,x,1/2+z
1/2-x,1/2-y,z
y,1/2-x,1/2+z
1/2+x,-y,-z
-x,1/2+y,-z
1/2+y,1/2+x,1/2-z
-y,-x,1/2-z
-x,-y,-z
1/2+y,-x,1/2-z
1/2+x,1/2+y,-z
-y,1/2+x,1/2-z
1/2-x,y,z
x,1/2-y,z
1/2-y,1/2-x,1/2+z
y,x,1/2+z
loop_
_atom_site_type_symbol
_atom_site_label
_atom_site_fract_x
_atom_site_fract_y
_atom_site_fract_z
Si Si1 0.350408 0.580280 0.307419
Si Si2 0.153145 0.853519 0.429559
Si Si3 0.031900 0.354956 0.087333
Si Si4 0.470121 0.416040 0.287941
Si Si5 0.144873 0.150764 0.690178
Si Si6 0.472647 0.146438 0.513023
Si Si7 0.051712 0.652074 0.603097
O O1 0.369310 0.630691 0.250000
O O2 0.250000 0.546154 0.305200
O O3 0.357875 0.635758 0.363633
O O4 0.421750 0.502928 0.311054
O O5 0.250000 0.892405 0.444384
O O6 0.156898 0.750000 0.442733
O O7 0.066468 0.885524 0.461251
O O8 0.036569 0.250000 0.084120
O O9 0.089243 0.387383 0.140274
O O10 0.081288 0.399173 0.035968
O O11 0.931064 0.384059 0.095581
O O12 0.551130 0.448871 0.250000
O O13 0.398637 0.373523 0.247232
O O14 0.504216 0.358180 0.338179
O O15 0.250000 0.157367 0.683631
O O16 0.107132 0.250000 0.688445
O O17 0.457778 0.250000 0.529455
O O18 0.482950 0.144608 0.447302
O O19 0.092889 0.750000 0.598443
#
# Coordination Sequence:
#
# PCOD9570166 Si02
#       7
#    16  16  16  16  16  16  16
#     4  10  20  31  50  83 122 162 203 247 303 374
#     4   9  18  33  54  83 123 167 206 248 302 371
#     4  11  23  41  65  95 129 168 216 270 324 386
#     4  11  21  38  60  85 121 161 210 263 319 387
#     4  10  21  38  62  91 121 158 209 265 322 386
#     4  10  22  40  65  95 129 168 215 264 321 386
#     4  11  24  43  65  91 126 171 219 273 330 386
#
# _framework density 20.144590999999998
#
# number of rings (size 3 to 8) (size 9 to 14) (size 15 to 20)
#    0.000    1.714    1.429    3.000    2.000    2.429 
#    0.000    4.286    0.000    1.714    0.000    0.000 
#    0.000    0.000    0.000    0.000    0.000    0.000 
#
# Total GULP energy -625455.727995 kJ/mol
# GULP energy per Si atom -5584.426143 kJ/mol
# Density = 2.009874 g / cm^3
# Si number density = 20.144591 Si / 1000 Ang^3
#
#
#
# Elastic Constant Matrix: (Units=GPa)
#
#
# Indices 1 2 3 4 5 6 
#
# 1 100.5128 42.2014 40.9718 0.0000 0.0000 0.0000
# 2 42.2014 100.5134 40.9713 0.0000 0.0000 0.0000
# 3 40.9718 40.9713 97.5512 0.0000 0.0000 0.0000
# 4 0.0000 0.0000 0.0000 12.8163 0.0000 0.0000
# 5 0.0000 0.0000 0.0000 0.0000 12.8157 0.0000
# 6 0.0000 0.0000 0.0000 0.0000 0.0000 17.6004
#
#
#
# Elastic Compliance Matrix: (Units=1/GPa)
#
#
# Indices 1 2 3 4 5 6 
#
# 1 0.013192 -0.003958 -0.003878 0.000000 0.000000 0.000000
# 2 -0.003958 0.013191 -0.003878 0.000000 0.000000 0.000000
# 3 -0.003878 -0.003878 0.013509 0.000000 0.000000 0.000000
# 4 0.000000 0.000000 0.000000 0.078025 0.000000 0.000000
# 5 0.000000 0.000000 0.000000 0.000000 0.078029 0.000000
# 6 0.000000 0.000000 0.000000 0.000000 0.000000 0.056817
#
#
# Mechanical properties :
#
#
# Convention : Reuss Voigt Hill
#
# Bulk Modulus (GPa) = 60.74048 60.76293 60.75171
# Shear Modulus (GPa) = 17.75070 20.27536 19.01303
#
# Velocity S-wave (km/s) = 2.97166 3.17597 3.07551
# Velocity P-wave (km/s) = 6.48013 6.60893 6.54484
#
# Compressibility (1/GPa) = 0.01646348
#
# Stress axis : x y z
#
# Youngs Moduli (GPa) = 75.80598 75.80697 74.02632
#
# Poissons Ratio (x) = 0.30002 0.28709
# Poissons Ratio (y) = 0.30002 0.28708
# Poissons Ratio (z) = 0.29400 0.29399
#
# Static dielectric constant tensor:
#      x y z
#    x 1.723510 0.000000 0.000000 
#    y 0.000000 1.723510 0.000000 
#    z 0.000000 0.000000 1.723190 
# 
# From -- ./inp_files/8975.got.cif
#   From: 2010.05.17/outbox.cif.g08.bks.cpg/sg137_5_cif.got.tgz:8975.got - 2010.05.20 13:01:12.
