data_PCOD9570265
_publ_section_title
;
Structure prediction by ZEFSAII (Michael W. Deem and Ramdas Pophale) SiO2 
 PCOD9570265
Probable space group: P 42/N M C
;
_chemical_formula_sum "Si O2"
_cell_formula_units_Z 112
_cell_length_a 15.066632
_cell_length_b 15.066632
_cell_length_c 24.495466
_cell_angle_alpha 90.000000
_cell_angle_beta 90.000000
_cell_angle_gamma 90.000000
_cell_volume 5560.554062
_symmetry_space_group_name_H-M "P 42/N M C"
_symmetry_group_IT_number 137
_space_group.IT_coordinate_system_code '2'
_symmetry_cell_setting 'tetragonal'
loop_
_space_group_symop_operation_xyz
x,y,z
1/2-y,x,1/2+z
1/2-x,1/2-y,z
y,1/2-x,1/2+z
1/2+x,-y,-z
-x,1/2+y,-z
1/2+y,1/2+x,1/2-z
-y,-x,1/2-z
-x,-y,-z
1/2+y,-x,1/2-z
1/2+x,1/2+y,-z
-y,1/2+x,1/2-z
1/2-x,y,z
x,1/2-y,z
1/2-y,1/2-x,1/2+z
y,x,1/2+z
loop_
_atom_site_type_symbol
_atom_site_label
_atom_site_fract_x
_atom_site_fract_y
_atom_site_fract_z
Si Si1 0.522614 0.595203 0.088034
Si Si2 0.650139 0.111641 0.313021
Si Si3 0.069325 0.850743 0.577927
Si Si4 0.478891 0.345261 0.031837
Si Si5 0.148404 0.096783 0.693133
Si Si6 0.649324 0.853909 0.185211
Si Si7 0.646290 0.522772 0.902131
O O1 0.591758 0.518523 0.069576
O O2 0.573889 0.633603 0.140085
O O3 0.424443 0.558243 0.102682
O O4 0.515862 0.652100 0.033432
O O5 0.630057 0.130057 0.250000
O O6 0.750000 0.142715 0.324230
O O7 0.585025 0.153152 0.356941
O O8 0.645990 0.006471 0.322833
O O9 0.069561 0.750000 0.556586
O O10 0.139651 0.920600 0.553329
O O11 0.447349 0.250000 0.051893
O O12 0.407470 0.415991 0.054329
O O13 0.250000 0.129619 0.687111
O O14 0.127460 0.099996 0.757477
O O15 0.078932 0.144745 0.654149
O O16 0.750000 0.881158 0.167182
O O17 0.654040 0.750000 0.197863
O O18 0.750000 0.503520 0.915871
#
# Coordination Sequence:
#
# PCOD9570265 Si02
#       7
#    16  16  16  16  16  16  16
#     4  11  23  40  61  83 120 156 200 253 297 361
#     4  11  21  33  52  83 122 159 194 233 284 358
#     4  11  22  38  59  84 118 159 196 237 297 368
#     4  11  24  41  60  86 114 151 199 251 304 357
#     4  10  20  36  58  86 120 155 198 249 302 364
#     4  10  21  37  60  91 123 159 201 249 311 370
#     4  11  23  39  61  87 116 155 201 249 303 363
#
# _framework density 20.141877999999998
#
# number of rings (size 3 to 8) (size 9 to 14) (size 15 to 20)
#    0.000    1.286    2.857    5.143    0.000    7.571 
#    0.000    0.000    0.000    1.286    0.000    0.000 
#    0.000    4.571    0.000    0.000    0.000    0.000 
#
# Total GULP energy -624952.255680 kJ/mol
# GULP energy per Si atom -5579.930854 kJ/mol
# Density = 2.009603 g / cm^3
# Si number density = 20.141878 Si / 1000 Ang^3
#
#
#
# Elastic Constant Matrix: (Units=GPa)
#
#
# Indices 1 2 3 4 5 6 
#
# 1 103.5916 16.8439 22.1543 0.0000 0.0000 0.0000
# 2 16.8439 103.5916 22.1543 0.0000 0.0000 0.0000
# 3 22.1543 22.1543 100.6012 0.0000 0.0000 0.0000
# 4 0.0000 0.0000 0.0000 6.5535 0.0000 0.0000
# 5 0.0000 0.0000 0.0000 0.0000 6.5535 0.0000
# 6 0.0000 0.0000 0.0000 0.0000 0.0000 12.7764
#
#
#
# Elastic Compliance Matrix: (Units=1/GPa)
#
#
# Indices 1 2 3 4 5 6 
#
# 1 0.010281 -0.001246 -0.001990 0.000000 0.000000 0.000000
# 2 -0.001246 0.010281 -0.001990 0.000000 0.000000 0.000000
# 3 -0.001990 -0.001990 0.010817 0.000000 0.000000 0.000000
# 4 0.000000 0.000000 0.000000 0.152589 0.000000 0.000000
# 5 0.000000 0.000000 0.000000 0.000000 0.152589 0.000000
# 6 0.000000 0.000000 0.000000 0.000000 0.000000 0.078270
#
#
# Mechanical properties :
#
#
# Convention : Reuss Voigt Hill
#
# Bulk Modulus (GPa) = 47.78259 47.78773 47.78516
# Shear Modulus (GPa) = 11.56725 21.61882 16.59304
#
# Velocity S-wave (km/s) = 2.39903 3.27972 2.87332
# Velocity P-wave (km/s) = 5.60788 6.17407 5.89777
#
# Compressibility (1/GPa) = 0.02092812
#
# Stress axis : x y z
#
# Youngs Moduli (GPa) = 97.26253 97.26253 92.45051
#
# Poissons Ratio (x) = 0.12121 0.18395
# Poissons Ratio (y) = 0.12121 0.18395
# Poissons Ratio (z) = 0.19353 0.19353
#
# Static dielectric constant tensor:
#      x y z
#    x 1.735730 0.000000 0.000000 
#    y 0.000000 1.735730 0.000000 
#    z 0.000000 0.000000 1.727340 
# 
# From -- ./inp_files/8995.got.cif
#   From: 2010.05.17/outbox.cif.g08.bks.cpg/sg137_5_cif.got.tgz:8995.got - 2010.05.20 13:01:12.
