data_PCOD9570096
_publ_section_title
;
Structure prediction by ZEFSAII (Michael W. Deem and Ramdas Pophale) SiO2 
 PCOD9570096
Probable space group: P 42/N M C
;
_chemical_formula_sum "Si O2"
_cell_formula_units_Z 80
_cell_length_a 18.416860
_cell_length_b 18.416860
_cell_length_c 13.234142
_cell_angle_alpha 90.000000
_cell_angle_beta 90.000000
_cell_angle_gamma 90.000000
_cell_volume 4488.765974
_symmetry_space_group_name_H-M "P 42/N M C"
_symmetry_group_IT_number 137
_space_group.IT_coordinate_system_code '2'
_symmetry_cell_setting 'tetragonal'
loop_
_space_group_symop_operation_xyz
x,y,z
1/2-y,x,1/2+z
1/2-x,1/2-y,z
y,1/2-x,1/2+z
1/2+x,-y,-z
-x,1/2+y,-z
1/2+y,1/2+x,1/2-z
-y,-x,1/2-z
-x,-y,-z
1/2+y,-x,1/2-z
1/2+x,1/2+y,-z
-y,1/2+x,1/2-z
1/2-x,y,z
x,1/2-y,z
1/2-y,1/2-x,1/2+z
y,x,1/2+z
loop_
_atom_site_type_symbol
_atom_site_label
_atom_site_fract_x
_atom_site_fract_y
_atom_site_fract_z
Si Si1 0.666766 0.968206 0.076301
Si Si2 0.394195 0.467948 0.349228
Si Si3 0.131613 0.831127 0.636456
Si Si4 0.030130 0.073906 0.623937
Si Si5 0.169652 0.985731 0.551724
O O1 0.750000 0.946487 0.065262
O O2 0.616392 0.909336 0.129767
O O3 0.663903 0.044104 0.136378
O O4 0.628681 0.981250 0.968247
O O5 0.468554 0.511761 0.375244
O O6 0.384214 0.476236 0.230046
O O7 0.338810 0.497796 0.432250
O O8 0.160136 0.839864 0.750000
O O9 0.150590 0.750000 0.598390
O O10 0.158672 0.900304 0.573541
O O11 0.106425 0.031941 0.606911
O O12 0.250000 0.006609 0.586978
#
# Coordination Sequence:
#
# PCOD9570096 Si02
#       5
#    16  16  16  16  16
#     4  10  19  33  55  80 106 138 178 218 264 315
#     4  10  19  35  56  77 103 139 181 226 264 306
#     4  11  21  33  49  76 113 148 176 207 255 315
#     4  10  19  36  57  75 105 140 180 224 268 305
#     4  11  21  34  53  81 110 140 178 220 264 315
#
# _framework density 17.82227
#
# number of rings (size 3 to 8) (size 9 to 14) (size 15 to 20)
#    0.000    1.600    4.000    3.000    0.000    4.600 
#    0.000    0.000    0.000    9.600    0.000   11.200 
#    0.000    0.000    0.000    0.000    0.000    0.000 
#
# Total GULP energy -446331.415206 kJ/mol
# GULP energy per Si atom -5579.142690 kJ/mol
# Density = 1.778171 g / cm^3
# Si number density = 17.822270 Si / 1000 Ang^3
#
#
#
# Elastic Constant Matrix: (Units=GPa)
#
#
# Indices 1 2 3 4 5 6 
#
# 1 73.6370 13.2883 2.7701 0.0000 0.0000 0.0000
# 2 13.2883 73.6370 2.7701 0.0000 0.0000 0.0000
# 3 2.7701 2.7701 54.7645 0.0000 0.0000 0.0000
# 4 0.0000 0.0000 0.0000 10.0622 0.0000 0.0000
# 5 0.0000 0.0000 0.0000 0.0000 10.0622 0.0000
# 6 0.0000 0.0000 0.0000 0.0000 0.0000 11.4176
#
#
#
# Elastic Compliance Matrix: (Units=1/GPa)
#
#
# Indices 1 2 3 4 5 6 
#
# 1 0.014056 -0.002515 -0.000584 0.000000 0.000000 0.000000
# 2 -0.002515 0.014056 -0.000584 0.000000 0.000000 0.000000
# 3 -0.000584 -0.000584 0.018319 0.000000 0.000000 0.000000
# 4 0.000000 0.000000 0.000000 0.099381 0.000000 0.000000
# 5 0.000000 0.000000 0.000000 0.000000 0.099381 0.000000
# 6 0.000000 0.000000 0.000000 0.000000 0.000000 0.087584
#
#
# Mechanical properties :
#
#
# Convention : Reuss Voigt Hill
#
# Bulk Modulus (GPa) = 25.59730 26.63282 26.11506
# Shear Modulus (GPa) = 14.15773 18.52242 16.34008
#
# Velocity S-wave (km/s) = 2.82154 3.22729 3.03121
# Velocity P-wave (km/s) = 5.00085 5.37245 5.18998
#
# Compressibility (1/GPa) = 0.03906662
#
# Stress axis : x y z
#
# Youngs Moduli (GPa) = 71.14469 71.14469 54.58798
#
# Poissons Ratio (x) = 0.17890 0.03187
# Poissons Ratio (y) = 0.17890 0.03187
# Poissons Ratio (z) = 0.04153 0.04153
#
# Static dielectric constant tensor:
#      x y z
#    x 1.612280 0.000000 0.000000 
#    y 0.000000 1.612280 0.000000 
#    z 0.000000 0.000000 1.630210 
# 
# From -- ./inp_files/4943.got.cif
#   From: 2010.05.17/outbox.cif.g08.bks.cpg/sg137_3_cif.got.tgz:4943.got - 2010.05.20 13:01:12.
