data_PCOD9570158
_publ_section_title
;
Structure prediction by ZEFSAII (Michael W. Deem and Ramdas Pophale) SiO2 
 PCOD9570158
Probable space group: P 42/N M C
;
_chemical_formula_sum "Si O2"
_cell_formula_units_Z 128
_cell_length_a 22.828897
_cell_length_b 22.828897
_cell_length_c 10.993739
_cell_angle_alpha 90.000000
_cell_angle_beta 90.000000
_cell_angle_gamma 90.000000
_cell_volume 5729.480947
_symmetry_space_group_name_H-M "P 42/N M C"
_symmetry_group_IT_number 137
_space_group.IT_coordinate_system_code '2'
_symmetry_cell_setting 'tetragonal'
loop_
_space_group_symop_operation_xyz
x,y,z
1/2-y,x,1/2+z
1/2-x,1/2-y,z
y,1/2-x,1/2+z
1/2+x,-y,-z
-x,1/2+y,-z
1/2+y,1/2+x,1/2-z
-y,-x,1/2-z
-x,-y,-z
1/2+y,-x,1/2-z
1/2+x,1/2+y,-z
-y,1/2+x,1/2-z
1/2-x,y,z
x,1/2-y,z
1/2-y,1/2-x,1/2+z
y,x,1/2+z
loop_
_atom_site_type_symbol
_atom_site_label
_atom_site_fract_x
_atom_site_fract_y
_atom_site_fract_z
Si Si1 0.662366 0.511828 0.671742
Si Si2 0.317937 0.914809 0.786410
Si Si3 0.035897 0.048200 0.692366
Si Si4 0.818884 0.820315 0.543648
Si Si5 0.000435 0.356589 0.089460
Si Si6 0.871690 0.816401 0.292271
Si Si7 0.902582 0.447569 0.999099
Si Si8 0.103754 0.685754 0.303516
O O1 0.593955 0.516323 0.704646
O O2 0.673052 0.526266 0.531130
O O3 0.686714 0.559148 0.767126
O O4 0.684683 0.447313 0.702150
O O5 0.357019 0.857019 0.750000
O O6 0.250000 0.901806 0.820186
O O7 0.317371 0.959349 0.672807
O O8 0.356599 0.948727 0.889204
O O9 0.004609 0.070368 0.567738
O O10 0.104777 0.044815 0.669147
O O11 0.012280 0.987721 0.750000
O O12 0.750000 0.836047 0.529492
O O13 0.822218 0.750000 0.554123
O O14 0.853492 0.839383 0.423355
O O15 0.843815 0.846319 0.668914
O O16 0.956119 0.406687 0.038612
O O17 0.847111 0.750000 0.291449
O O18 0.864278 0.415830 0.895928
O O19 0.165332 0.665332 0.250000
O O20 0.105885 0.750000 0.358714
#
# Coordination Sequence:
#
# PCOD9570158 Si02
#       8
#    16  16  16  16  16  16  16  16
#     4  11  23  38  58  87 125 161 198 245 309 377
#     4  10  23  40  62  91 125 168 217 267 321 381
#     4  11  21  36  63  91 119 158 202 248 299 370
#     4   9  18  36  61  85 113 153 206 260 305 357
#     4  11  22  37  62  89 124 161 202 249 309 376
#     4  10  21  36  56  84 117 156 198 246 306 367
#     4  10  19  40  61  89 121 156 203 257 313 373
#     4  11  22  41  65  89 120 161 207 263 323 381
#
# _framework density 22.340592999999998
#
# number of rings (size 3 to 8) (size 9 to 14) (size 15 to 20)
#    0.000    1.625    2.500    3.375    3.500    2.750 
#    0.000    0.000    0.000    3.000    0.000    0.000 
#    0.000    0.000    0.000    0.000    0.000    0.000 
#
# Total GULP energy -714507.528770 kJ/mol
# GULP energy per Si atom -5582.090069 kJ/mol
# Density = 2.228974 g / cm^3
# Si number density = 22.340593 Si / 1000 Ang^3
#
#
#
# Elastic Constant Matrix: (Units=GPa)
#
#
# Indices 1 2 3 4 5 6 
#
# 1 71.1278 26.1444 18.9193 0.0000 0.0000 0.0000
# 2 26.1444 71.1276 18.9187 0.0000 0.0000 0.0000
# 3 18.9193 18.9187 112.7256 0.0000 0.0000 0.0000
# 4 0.0000 0.0000 0.0000 17.0696 0.0000 0.0000
# 5 0.0000 0.0000 0.0000 0.0000 17.0698 0.0000
# 6 0.0000 0.0000 0.0000 0.0000 0.0000 23.6741
#
#
#
# Elastic Compliance Matrix: (Units=1/GPa)
#
#
# Indices 1 2 3 4 5 6 
#
# 1 0.016614 -0.005616 -0.001846 0.000000 0.000000 0.000000
# 2 -0.005616 0.016614 -0.001846 0.000000 0.000000 0.000000
# 3 -0.001846 -0.001846 0.009491 0.000000 0.000000 0.000000
# 4 0.000000 0.000000 0.000000 0.058584 0.000000 0.000000
# 5 0.000000 0.000000 0.000000 0.000000 0.058583 0.000000
# 6 0.000000 0.000000 0.000000 0.000000 0.000000 0.042240
#
#
# Mechanical properties :
#
#
# Convention : Reuss Voigt Hill
#
# Bulk Modulus (GPa) = 41.48680 42.54954 42.01817
# Shear Modulus (GPa) = 21.85538 24.29596 23.07567
#
# Velocity S-wave (km/s) = 3.13114 3.30134 3.21737
# Velocity P-wave (km/s) = 5.62872 5.79819 5.71408
#
# Compressibility (1/GPa) = 0.02410405
#
# Stress axis : x y z
#
# Youngs Moduli (GPa) = 60.18850 60.18853 105.36632
#
# Poissons Ratio (x) = 0.33802 0.19450
# Poissons Ratio (y) = 0.33802 0.19449
# Poissons Ratio (z) = 0.11111 0.11110
#
# Static dielectric constant tensor:
#      x y z
#    x 1.856980 0.000000 0.000000 
#    y 0.000000 1.856980 0.000000 
#    z 0.000000 0.000000 1.857760 
# 
# From -- ./inp_files/4046.got.cif
#   From: 2010.05.17/outbox.cif.g08.bks.cpg/sg137_3_cif.got.tgz:4046.got - 2010.05.20 13:01:12.
