data_PCOD9570211
_publ_section_title
;
Structure prediction by ZEFSAII (Michael W. Deem and Ramdas Pophale) SiO2 
 PCOD9570211
Probable space group: P 42/N M C
;
_chemical_formula_sum "Si O2"
_cell_formula_units_Z 64
_cell_length_a 12.678893
_cell_length_b 12.678893
_cell_length_c 22.081922
_cell_angle_alpha 90.000000
_cell_angle_beta 90.000000
_cell_angle_gamma 90.000000
_cell_volume 3549.764526
_symmetry_space_group_name_H-M "P 42/N M C"
_symmetry_group_IT_number 137
_space_group.IT_coordinate_system_code '2'
_symmetry_cell_setting 'tetragonal'
loop_
_space_group_symop_operation_xyz
x,y,z
1/2-y,x,1/2+z
1/2-x,1/2-y,z
y,1/2-x,1/2+z
1/2+x,-y,-z
-x,1/2+y,-z
1/2+y,1/2+x,1/2-z
-y,-x,1/2-z
-x,-y,-z
1/2+y,-x,1/2-z
1/2+x,1/2+y,-z
-y,1/2+x,1/2-z
1/2-x,y,z
x,1/2-y,z
1/2-y,1/2-x,1/2+z
y,x,1/2+z
loop_
_atom_site_type_symbol
_atom_site_label
_atom_site_fract_x
_atom_site_fract_y
_atom_site_fract_z
Si Si1 0.985750 0.874908 0.204498
Si Si2 0.631458 0.053666 0.565893
Si Si3 0.130213 0.413077 0.025934
Si Si4 0.622603 0.750000 0.873511
Si Si5 0.750000 0.622135 0.235357
O O1 0.991370 0.750000 0.221957
O O2 0.862232 0.907841 0.206226
O O3 0.031130 0.883687 0.136856
O O4 0.054432 0.945569 0.250000
O O5 0.750000 0.094914 0.556542
O O6 0.536831 0.123164 0.539941
O O7 0.619132 0.944557 0.528948
O O8 0.250000 0.381954 0.013519
O O9 0.093060 0.351012 0.086188
O O10 0.750000 0.750000 0.868880
O O11 0.583417 0.750000 0.805083
O O12 0.750000 0.750000 0.234996
#
# Coordination Sequence:
#
# PCOD9570211 Si02
#       5
#    16  16  16   8   8
#     4  10  21  36  55  82 112 146 182 226 273 328
#     4  10  21  35  53  80 111 140 180 223 275 322
#     4  10  20  34  54  79 107 143 179 226 271 322
#     4   9  16  30  52  76 102 138 182 221 260 315
#     4   9  18  32  52  79 107 145 183 219 267 319
#
# _framework density 18.029366
#
# number of rings (size 3 to 8) (size 9 to 14) (size 15 to 20)
#    0.000    2.250    1.250    1.500    1.750    3.750 
#    0.000    2.500    0.000    0.375    0.000    0.000 
#    0.000    0.000    0.000    0.000    0.000    0.000 
#
# Total GULP energy -356818.902079 kJ/mol
# GULP energy per Si atom -5575.295345 kJ/mol
# Density = 1.798833 g / cm^3
# Si number density = 18.029366 Si / 1000 Ang^3
#
#
#
# Elastic Constant Matrix: (Units=GPa)
#
#
# Indices 1 2 3 4 5 6 
#
# 1 72.4191 6.3110 2.7180 0.0000 0.0000 0.0000
# 2 6.3110 72.4195 2.7165 0.0000 0.0000 0.0000
# 3 2.7180 2.7165 39.9439 0.0000 0.0000 0.0000
# 4 0.0000 0.0000 0.0000 18.6822 0.0000 0.0000
# 5 0.0000 0.0000 0.0000 0.0000 18.6819 0.0000
# 6 0.0000 0.0000 0.0000 0.0000 0.0000 3.6838
#
#
#
# Elastic Compliance Matrix: (Units=1/GPa)
#
#
# Indices 1 2 3 4 5 6 
#
# 1 0.013944 -0.001183 -0.000868 0.000000 0.000000 0.000000
# 2 -0.001183 0.013944 -0.000868 0.000000 0.000000 0.000000
# 3 -0.000868 -0.000868 0.025153 0.000000 0.000000 0.000000
# 4 0.000000 0.000000 0.000000 0.053527 0.000000 0.000000
# 5 0.000000 0.000000 0.000000 0.000000 0.053528 0.000000
# 6 0.000000 0.000000 0.000000 0.000000 0.000000 0.271458
#
#
# Mechanical properties :
#
#
# Convention : Reuss Voigt Hill
#
# Bulk Modulus (GPa) = 21.18474 23.14148 22.16311
# Shear Modulus (GPa) = 11.03444 19.74537 15.38990
#
# Velocity S-wave (km/s) = 2.47660 3.31294 2.92482
# Velocity P-wave (km/s) = 4.46696 5.24379 4.87089
#
# Compressibility (1/GPa) = 0.04720380
#
# Stress axis : x y z
#
# Youngs Moduli (GPa) = 71.71459 71.71522 39.75630
#
# Poissons Ratio (x) = 0.08481 0.03452
# Poissons Ratio (y) = 0.08481 0.03450
# Poissons Ratio (z) = 0.06228 0.06224
#
# Static dielectric constant tensor:
#      x y z
#    x 1.621000 0.000000 0.000000 
#    y 0.000000 1.621000 0.000000 
#    z 0.000000 0.000000 1.600670 
# 
# From -- ./inp_files/8588.got.cif
#   From: 2010.05.17/outbox.cif.g08.bks.cpg/sg137_5_cif.got.tgz:8588.got - 2010.05.20 13:01:12.
