data_PCOD9570972
_publ_section_title
;
Structure prediction by ZEFSAII (Michael W. Deem and Ramdas Pophale) SiO2 
 PCOD9570972
Probable space group: P 42/N C M
;
_chemical_formula_sum "Si O2"
_cell_formula_units_Z 64
_cell_length_a 13.793403
_cell_length_b 13.793403
_cell_length_c 17.223253
_cell_angle_alpha 90.000000
_cell_angle_beta 90.000000
_cell_angle_gamma 90.000000
_cell_volume 3276.861089
_symmetry_space_group_name_H-M "P 42/N C M"
_symmetry_group_IT_number 138
_space_group.IT_coordinate_system_code '2'
_symmetry_cell_setting 'tetragonal'
loop_
_space_group_symop_operation_xyz
x,y,z
1/2-y,x,1/2+z
1/2-x,1/2-y,z
y,1/2-x,1/2+z
1/2+x,-y,1/2-z
-x,1/2+y,1/2-z
1/2+y,1/2+x,-z
-y,-x,-z
-x,-y,-z
1/2+y,-x,1/2-z
1/2+x,1/2+y,-z
-y,1/2+x,1/2-z
1/2-x,y,1/2+z
x,1/2-y,1/2+z
1/2-y,1/2-x,z
y,x,z
loop_
_atom_site_type_symbol
_atom_site_label
_atom_site_fract_x
_atom_site_fract_y
_atom_site_fract_z
Si Si1 0.519514 0.367236 0.685508
Si Si2 0.833538 0.833538 0.404454
Si Si3 0.831628 0.831628 0.584496
Si Si4 0.297252 0.854457 0.919580
Si Si5 0.318451 0.479532 0.861915
O O1 0.475620 0.475620 0.681266
O O2 0.435817 0.307407 0.638041
O O3 0.624472 0.365210 0.648403
O O4 0.515830 0.334900 0.774614
O O5 0.750000 0.750000 0.397058
O O6 0.855792 0.855792 0.494991
O O7 0.750000 0.750000 0.575656
O O8 0.778955 0.915797 0.630973
O O9 0.250000 0.750000 0.912960
O O10 0.209457 0.930835 0.916152
O O11 0.356311 0.856311 0.000000
O O12 0.409313 0.409313 0.882827
#
# Coordination Sequence:
#
# PCOD9570972 Si02
#       5
#    16   8   8  16  16
#     4   9  22  37  60  92 125 163 212 260 319 370
#     4   9  18  35  61  93 134 162 217 265 324 376
#     4   9  18  33  61  93 121 166 197 265 318 368
#     4  11  25  43  63  90 127 169 212 261 326 391
#     4  10  22  39  63  92 127 162 215 262 324 376
#
# _framework density 19.530887
#
# number of rings (size 3 to 8) (size 9 to 14) (size 15 to 20)
#    0.750    1.500    0.000    1.500    7.000    0.500 
#    0.000    3.750    0.000    0.000    0.000    0.000 
#    0.000    0.000    0.000    0.000    0.000    0.000 
#
# Total GULP energy -356358.956787 kJ/mol
# GULP energy per Si atom -5568.108700 kJ/mol
# Density = 1.948643 g / cm^3
# Si number density = 19.530887 Si / 1000 Ang^3
#
#
#
# Elastic Constant Matrix: (Units=GPa)
#
#
# Indices 1 2 3 4 5 6 
#
# 1 72.0675 43.6310 26.2264 0.0000 0.0000 0.0000
# 2 43.6310 72.0675 26.2264 0.0000 0.0000 0.0000
# 3 26.2264 26.2264 74.1598 0.0000 0.0000 0.0000
# 4 0.0000 0.0000 0.0000 29.8316 0.0000 0.0000
# 5 0.0000 0.0000 0.0000 0.0000 29.8316 0.0000
# 6 0.0000 0.0000 0.0000 0.0000 0.0000 24.9752
#
#
#
# Elastic Compliance Matrix: (Units=1/GPa)
#
#
# Indices 1 2 3 4 5 6 
#
# 1 0.022730 -0.012436 -0.003640 0.000000 0.000000 0.000000
# 2 -0.012436 0.022730 -0.003640 0.000000 0.000000 0.000000
# 3 -0.003640 -0.003640 0.016059 0.000000 0.000000 0.000000
# 4 0.000000 0.000000 0.000000 0.033521 0.000000 0.000000
# 5 0.000000 0.000000 0.000000 0.000000 0.033521 0.000000
# 6 0.000000 0.000000 0.000000 0.000000 0.000000 0.040040
#
#
# Mechanical properties :
#
#
# Convention : Reuss Voigt Hill
#
# Bulk Modulus (GPa) = 45.27946 45.60692 45.44319
# Shear Modulus (GPa) = 23.21300 25.07510 24.14405
#
# Velocity S-wave (km/s) = 3.45124 3.58700 3.51978
# Velocity P-wave (km/s) = 6.25422 6.36846 6.31160
#
# Compressibility (1/GPa) = 0.02208507
#
# Stress axis : x y z
#
# Youngs Moduli (GPa) = 43.99520 43.99520 62.26983
#
# Poissons Ratio (x) = 0.54714 0.22668
# Poissons Ratio (y) = 0.54714 0.22668
# Poissons Ratio (z) = 0.16015 0.16015
#
# Static dielectric constant tensor:
#      x y z
#    x 1.748020 0.000000 0.000000 
#    y 0.000000 1.748020 0.000000 
#    z 0.000000 0.000000 1.704970 
# 
# From -- ./inp_files/4949.got.cif
#   From: 2010.05.17/outbox.cif.g08.bks.cpg/sg138_3_cif.got.tgz:4949.got - 2010.05.20 13:08:53.
