data_PCOD9570834
_publ_section_title
;
Structure prediction by ZEFSAII (Michael W. Deem and Ramdas Pophale) SiO2 
 PCOD9570834
Probable space group: P 42/N C M
;
_chemical_formula_sum "Si O2"
_cell_formula_units_Z 112
_cell_length_a 15.474651
_cell_length_b 15.474651
_cell_length_c 22.433224
_cell_angle_alpha 90.000000
_cell_angle_beta 90.000000
_cell_angle_gamma 90.000000
_cell_volume 5371.968027
_symmetry_space_group_name_H-M "P 42/N C M"
_symmetry_group_IT_number 138
_space_group.IT_coordinate_system_code '2'
_symmetry_cell_setting 'tetragonal'
loop_
_space_group_symop_operation_xyz
x,y,z
1/2-y,x,1/2+z
1/2-x,1/2-y,z
y,1/2-x,1/2+z
1/2+x,-y,1/2-z
-x,1/2+y,1/2-z
1/2+y,1/2+x,-z
-y,-x,-z
-x,-y,-z
1/2+y,-x,1/2-z
1/2+x,1/2+y,-z
-y,1/2+x,1/2-z
1/2-x,y,1/2+z
x,1/2-y,1/2+z
1/2-y,1/2-x,z
y,x,z
loop_
_atom_site_type_symbol
_atom_site_label
_atom_site_fract_x
_atom_site_fract_y
_atom_site_fract_z
Si Si1 0.141518 0.505418 0.974723
Si Si2 0.836823 0.196041 0.847095
Si Si3 0.433817 0.929866 0.428673
Si Si4 0.073605 0.288133 0.557790
Si Si5 0.445613 0.915860 0.145567
Si Si6 0.812656 0.549438 0.827964
Si Si7 0.197333 0.552428 0.751553
O O1 0.153312 0.532009 0.905495
O O2 0.076209 0.423792 0.980679
O O3 0.088562 0.588562 0.000000
O O4 0.227348 0.474747 0.009414
O O5 0.750000 0.250000 0.864767
O O6 0.895755 0.153440 0.898411
O O7 0.814120 0.116124 0.803757
O O8 0.893073 0.254852 0.802887
O O9 0.428096 0.928096 0.500000
O O10 0.505578 0.857195 0.416509
O O11 0.477533 0.022468 0.411245
O O12 0.156114 0.343887 0.535518
O O13 0.094310 0.231174 0.615546
O O14 0.470039 0.888375 0.212187
O O15 0.504234 0.995767 0.125448
O O16 0.350751 0.957278 0.148413
O O17 0.892044 0.607957 0.807086
O O18 0.749364 0.528086 0.773933
#
# Coordination Sequence:
#
# PCOD9570834 Si02
#       7
#    16  16  16  16  16  16  16
#     4  10  20  37  62  91 122 157 206 264 312 369
#     4  12  22  38  64  95 129 163 212 277 325 376
#     4  10  25  46  63  90 132 173 214 260 326 411
#     4  11  23  40  64  92 125 166 208 262 327 383
#     4  10  22  39  61  89 123 163 206 254 316 385
#     4  11  22  39  62  91 122 162 218 266 311 381
#     4  12  22  39  60  91 127 164 205 262 323 382
#
# _framework density 20.848970000000001
#
# number of rings (size 3 to 8) (size 9 to 14) (size 15 to 20)
#    0.000    1.143    5.714    0.429    2.000    3.143 
#    0.000    0.714    0.000    0.857    0.000    0.000 
#    0.000    0.000    0.000    0.000    0.000    0.000 
#
# Total GULP energy -624372.670354 kJ/mol
# GULP energy per Si atom -5574.755985 kJ/mol
# Density = 2.080152 g / cm^3
# Si number density = 20.848970 Si / 1000 Ang^3
#
#
#
# Elastic Constant Matrix: (Units=GPa)
#
#
# Indices 1 2 3 4 5 6 
#
# 1 66.1049 31.8169 31.0572 0.0000 0.0000 0.0000
# 2 31.8169 66.1049 31.0572 0.0000 0.0000 0.0000
# 3 31.0572 31.0572 71.9158 0.0000 0.0000 0.0000
# 4 0.0000 0.0000 0.0000 23.6832 0.0000 0.0000
# 5 0.0000 0.0000 0.0000 0.0000 23.6832 0.0000
# 6 0.0000 0.0000 0.0000 0.0000 0.0000 48.6143
#
#
#
# Elastic Compliance Matrix: (Units=1/GPa)
#
#
# Indices 1 2 3 4 5 6 
#
# 1 0.021615 -0.007550 -0.006074 0.000000 0.000000 0.000000
# 2 -0.007550 0.021615 -0.006074 0.000000 0.000000 0.000000
# 3 -0.006074 -0.006074 0.019151 0.000000 0.000000 0.000000
# 4 0.000000 0.000000 0.000000 0.042224 0.000000 0.000000
# 5 0.000000 0.000000 0.000000 0.000000 0.042224 0.000000
# 6 0.000000 0.000000 0.000000 0.000000 0.000000 0.020570
#
#
# Mechanical properties :
#
#
# Convention : Reuss Voigt Hill
#
# Bulk Modulus (GPa) = 43.50600 43.55424 43.53012
# Shear Modulus (GPa) = 23.31469 26.54246 24.92857
#
# Velocity S-wave (km/s) = 3.34768 3.57190 3.46160
# Velocity P-wave (km/s) = 5.98791 6.16011 6.07462
#
# Compressibility (1/GPa) = 0.02298534
#
# Stress axis : x y z
#
# Youngs Moduli (GPa) = 46.26426 46.26426 52.21543
#
# Poissons Ratio (x) = 0.34928 0.31716
# Poissons Ratio (y) = 0.34928 0.31716
# Poissons Ratio (z) = 0.28101 0.28101
#
# Static dielectric constant tensor:
#      x y z
#    x 1.814830 0.000000 0.000000 
#    y 0.000000 1.814830 0.000000 
#    z 0.000000 0.000000 1.777390 
# 
# From -- ./inp_files/7053.got.cif
#   From: 2010.05.17/outbox.cif.g08.bks.cpg/sg138_4_cif.got.tgz:7053.got - 2010.05.20 13:08:53.
