data_PCOD9570115
_publ_section_title
;
Structure prediction by ZEFSAII (Michael W. Deem and Ramdas Pophale) SiO2 
 PCOD9570115
Probable space group: P 42/N M C
;
_chemical_formula_sum "Si O2"
_cell_formula_units_Z 80
_cell_length_a 14.000317
_cell_length_b 14.000317
_cell_length_c 19.133166
_cell_angle_alpha 90.000000
_cell_angle_beta 90.000000
_cell_angle_gamma 90.000000
_cell_volume 3750.270364
_symmetry_space_group_name_H-M "P 42/N M C"
_symmetry_group_IT_number 137
_space_group.IT_coordinate_system_code '2'
_symmetry_cell_setting 'tetragonal'
loop_
_space_group_symop_operation_xyz
x,y,z
1/2-y,x,1/2+z
1/2-x,1/2-y,z
y,1/2-x,1/2+z
1/2+x,-y,-z
-x,1/2+y,-z
1/2+y,1/2+x,1/2-z
-y,-x,1/2-z
-x,-y,-z
1/2+y,-x,1/2-z
1/2+x,1/2+y,-z
-y,1/2+x,1/2-z
1/2-x,y,z
x,1/2-y,z
1/2-y,1/2-x,1/2+z
y,x,1/2+z
loop_
_atom_site_type_symbol
_atom_site_label
_atom_site_fract_x
_atom_site_fract_y
_atom_site_fract_z
Si Si1 0.439839 0.057889 0.890616
Si Si2 0.642589 0.611993 0.249815
Si Si3 0.640894 0.640200 0.969101
Si Si4 0.468202 0.647225 0.859835
Si Si5 0.059515 0.854538 0.319034
O O1 0.381373 0.115593 0.831897
O O2 0.410457 0.086038 0.967885
O O3 0.552889 0.068128 0.869945
O O4 0.413472 0.947157 0.879787
O O5 0.750000 0.648202 0.264303
O O6 0.643913 0.503962 0.280043
O O7 0.548845 0.650509 0.289007
O O8 0.750000 0.606816 0.953943
O O9 0.648671 0.750000 0.991557
O O10 0.567682 0.641517 0.904425
O O11 0.423746 0.750000 0.874899
O O12 0.121648 0.878353 0.250000
O O13 0.084699 0.750000 0.348120
#
# Coordination Sequence:
#
# PCOD9570115 Si02
#       5
#    16  16  16  16  16
#     4  10  19  34  55  81 108 137 176 223 270 312
#     4   9  18  33  55  80 103 129 167 217 267 313
#     4  10  21  36  54  78 108 141 179 226 276 318
#     4   9  18  33  52  75 105 139 172 207 256 319
#     4   9  19  33  49  74 106 137 173 215 262 321
#
# _framework density 21.331795
#
# number of rings (size 3 to 8) (size 9 to 14) (size 15 to 20)
#    0.000    2.600    0.000    3.000    0.000    7.000 
#    0.000    4.000    0.000    2.400    0.000   19.600 
#    0.000    0.000    0.000    0.000    0.000    0.000 
#
# Total GULP energy -445607.103926 kJ/mol
# GULP energy per Si atom -5570.088799 kJ/mol
# Density = 2.128324 g / cm^3
# Si number density = 21.331795 Si / 1000 Ang^3
#
#
#
# Elastic Constant Matrix: (Units=GPa)
#
#
# Indices 1 2 3 4 5 6 
#
# 1 62.4289 15.9831 12.4381 0.0000 0.0000 0.0000
# 2 15.9831 62.4296 12.4384 0.0000 0.0000 0.0000
# 3 12.4381 12.4384 64.3386 0.0000 0.0000 0.0000
# 4 0.0000 0.0000 0.0000 4.2288 0.0000 0.0000
# 5 0.0000 0.0000 0.0000 0.0000 4.2292 0.0000
# 6 0.0000 0.0000 0.0000 0.0000 0.0000 1.2321
#
#
#
# Elastic Compliance Matrix: (Units=1/GPa)
#
#
# Indices 1 2 3 4 5 6 
#
# 1 0.017558 -0.003972 -0.002627 0.000000 0.000000 0.000000
# 2 -0.003972 0.017558 -0.002627 0.000000 0.000000 0.000000
# 3 -0.002627 -0.002627 0.016558 0.000000 0.000000 0.000000
# 4 0.000000 0.000000 0.000000 0.236474 0.000000 0.000000
# 5 0.000000 0.000000 0.000000 0.000000 0.236453 0.000000
# 6 0.000000 0.000000 0.000000 0.000000 0.000000 0.811637
#
#
# Mechanical properties :
#
#
# Convention : Reuss Voigt Hill
#
# Bulk Modulus (GPa) = 30.09804 30.10182 30.09993
# Shear Modulus (GPa) = 3.66096 11.82718 7.74407
#
# Velocity S-wave (km/s) = 1.31146 2.35721 1.90740
# Velocity P-wave (km/s) = 4.05380 4.64225 4.35797
#
# Compressibility (1/GPa) = 0.03322476
#
# Stress axis : x y z
#
# Youngs Moduli (GPa) = 56.95271 56.95324 60.39256
#
# Poissons Ratio (x) = 0.22622 0.15862
# Poissons Ratio (y) = 0.22621 0.15863
# Poissons Ratio (z) = 0.14959 0.14959
#
# Static dielectric constant tensor:
#      x y z
#    x 1.808480 0.000000 0.000000 
#    y 0.000000 1.808480 0.000000 
#    z 0.000000 0.000000 1.772060 
# 
# From -- ./inp_files/7554.got.cif
#   From: 2010.05.17/outbox.cif.g08.bks.cpg/sg137_4_cif.got.tgz:7554.got - 2010.05.20 13:01:12.
