data_PCOD9570184
_publ_section_title
;
Structure prediction by ZEFSAII (Michael W. Deem and Ramdas Pophale) SiO2 
 PCOD9570184
Probable space group: P 42/N M C
;
_chemical_formula_sum "Si O2"
_cell_formula_units_Z 80
_cell_length_a 13.214340
_cell_length_b 13.214340
_cell_length_c 22.221149
_cell_angle_alpha 90.000000
_cell_angle_beta 90.000000
_cell_angle_gamma 90.000000
_cell_volume 3880.229965
_symmetry_space_group_name_H-M "P 42/N M C"
_symmetry_group_IT_number 137
_space_group.IT_coordinate_system_code '2'
_symmetry_cell_setting 'tetragonal'
loop_
_space_group_symop_operation_xyz
x,y,z
1/2-y,x,1/2+z
1/2-x,1/2-y,z
y,1/2-x,1/2+z
1/2+x,-y,-z
-x,1/2+y,-z
1/2+y,1/2+x,1/2-z
-y,-x,1/2-z
-x,-y,-z
1/2+y,-x,1/2-z
1/2+x,1/2+y,-z
-y,1/2+x,1/2-z
1/2-x,y,z
x,1/2-y,z
1/2-y,1/2-x,1/2+z
y,x,1/2+z
loop_
_atom_site_type_symbol
_atom_site_label
_atom_site_fract_x
_atom_site_fract_y
_atom_site_fract_z
Si Si1 0.366264 0.371687 0.626549
Si Si2 0.364667 0.126241 0.257539
Si Si3 0.869026 0.072040 0.053504
Si Si4 0.436337 0.367707 0.995159
Si Si5 0.061547 0.870645 0.684902
O O1 0.250000 0.406381 0.625250
O O2 0.365443 0.250000 0.631180
O O3 0.409601 0.402953 0.691447
O O4 0.405855 0.396949 0.560768
O O5 0.250000 0.093432 0.268622
O O6 0.363717 0.250000 0.254940
O O7 0.445975 0.094042 0.306255
O O8 0.750000 0.091890 0.044496
O O9 0.903566 0.106806 0.120779
O O10 0.890657 0.950960 0.049513
O O11 0.942799 0.122055 0.004342
O O12 0.408001 0.250000 0.984836
O O13 0.111665 0.888336 0.750000
O O14 0.058117 0.750000 0.677540
#
# Coordination Sequence:
#
# PCOD9570184 Si02
#       5
#    16  16  16  16  16
#     4   8  13  23  43  69  93 123 167 212 252 298
#     4   8  14  25  42  65  92 124 165 210 251 290
#     4  10  22  36  51  77 107 136 178 224 262 310
#     4  10  20  35  54  74 102 140 176 216 270 321
#     4  10  20  33  49  72 106 143 173 204 247 304
#
# _framework density 20.617335000000001
#
# number of rings (size 3 to 8) (size 9 to 14) (size 15 to 20)
#    0.000    2.800    0.000    3.000    0.000    5.000 
#    0.000    4.000    0.000    0.000    0.000    0.000 
#    0.000    0.400    0.000    0.000    0.000    0.000 
#
# Total GULP energy -445432.048260 kJ/mol
# GULP energy per Si atom -5567.900603 kJ/mol
# Density = 2.057041 g / cm^3
# Si number density = 20.617335 Si / 1000 Ang^3
#
#
#
# Elastic Constant Matrix: (Units=GPa)
#
#
# Indices 1 2 3 4 5 6 
#
# 1 32.8888 6.1060 2.0625 0.0000 0.0000 0.0000
# 2 6.1060 32.8903 2.0628 0.0000 0.0000 0.0000
# 3 2.0625 2.0628 59.1648 0.0000 0.0000 0.0000
# 4 0.0000 0.0000 0.0000 19.7480 0.0000 0.0000
# 5 0.0000 0.0000 0.0000 0.0000 19.7479 0.0000
# 6 0.0000 0.0000 0.0000 0.0000 0.0000 17.7249
#
#
#
# Elastic Compliance Matrix: (Units=1/GPa)
#
#
# Indices 1 2 3 4 5 6 
#
# 1 0.031538 -0.005799 -0.000897 0.000000 0.000000 0.000000
# 2 -0.005799 0.031537 -0.000897 0.000000 0.000000 0.000000
# 3 -0.000897 -0.000897 0.016965 0.000000 0.000000 0.000000
# 4 0.000000 0.000000 0.000000 0.050638 0.000000 0.000000
# 5 0.000000 0.000000 0.000000 0.000000 0.050638 0.000000
# 6 0.000000 0.000000 0.000000 0.000000 0.000000 0.056418
#
#
# Mechanical properties :
#
#
# Convention : Reuss Voigt Hill
#
# Bulk Modulus (GPa) = 15.41949 16.15627 15.78788
# Shear Modulus (GPa) = 18.21241 19.09168 18.65204
#
# Velocity S-wave (km/s) = 2.97535 3.04633 3.01105
# Velocity P-wave (km/s) = 4.39304 4.49742 4.44553
#
# Compressibility (1/GPa) = 0.06485297
#
# Stress axis : x y z
#
# Youngs Moduli (GPa) = 31.70751 31.70892 58.94659
#
# Poissons Ratio (x) = 0.18387 0.05289
# Poissons Ratio (y) = 0.18386 0.05290
# Poissons Ratio (z) = 0.02845 0.02845
#
# Static dielectric constant tensor:
#      x y z
#    x 1.775200 0.000000 0.000000 
#    y 0.000000 1.775200 0.000000 
#    z 0.000000 0.000000 1.812050 
# 
# From -- ./inp_files/8719.got.cif
#   From: 2010.05.17/outbox.cif.g08.bks.cpg/sg137_5_cif.got.tgz:8719.got - 2010.05.20 13:01:12.
