data_PCOD9570331
_publ_section_title
;
Structure prediction by ZEFSAII (Michael W. Deem and Ramdas Pophale) SiO2 
 PCOD9570331
Probable space group: P 42/N M C
;
_chemical_formula_sum "Si O2"
_cell_formula_units_Z 96
_cell_length_a 14.893256
_cell_length_b 14.893256
_cell_length_c 22.031602
_cell_angle_alpha 90.000000
_cell_angle_beta 90.000000
_cell_angle_gamma 90.000000
_cell_volume 4886.809245
_symmetry_space_group_name_H-M "P 42/N M C"
_symmetry_group_IT_number 137
_space_group.IT_coordinate_system_code '2'
_symmetry_cell_setting 'tetragonal'
loop_
_space_group_symop_operation_xyz
x,y,z
1/2-y,x,1/2+z
1/2-x,1/2-y,z
y,1/2-x,1/2+z
1/2+x,-y,-z
-x,1/2+y,-z
1/2+y,1/2+x,1/2-z
-y,-x,1/2-z
-x,-y,-z
1/2+y,-x,1/2-z
1/2+x,1/2+y,-z
-y,1/2+x,1/2-z
1/2-x,y,z
x,1/2-y,z
1/2-y,1/2-x,1/2+z
y,x,1/2+z
loop_
_atom_site_type_symbol
_atom_site_label
_atom_site_fract_x
_atom_site_fract_y
_atom_site_fract_z
Si Si1 0.854030 0.652261 0.318882
Si Si2 0.994994 0.478463 0.135784
Si Si3 0.144009 0.537955 0.445271
Si Si4 0.848805 0.582799 0.188042
Si Si5 0.144988 0.854946 0.936874
Si Si6 0.345055 0.144363 0.951953
O O1 0.750000 0.642123 0.337030
O O2 0.885881 0.750000 0.339262
O O3 0.911663 0.571988 0.344587
O O4 0.856167 0.647278 0.245486
O O5 0.039925 0.566509 0.104948
O O6 0.931822 0.515989 0.189088
O O7 0.921841 0.424539 0.095311
O O8 0.250000 0.531209 0.425288
O O9 0.138985 0.618710 0.492343
O O10 0.119617 0.442078 0.478216
O O11 0.750000 0.539186 0.192608
O O12 0.851818 0.628056 0.121058
O O13 0.250000 0.874876 0.926382
O O14 0.128599 0.750000 0.918880
O O15 0.250000 0.102299 0.972243
O O16 0.338581 0.250000 0.962677
#
# Coordination Sequence:
#
# PCOD9570331 Si02
#       6
#    16  16  16  16  16  16
#     4  10  21  36  53  76 108 143 176 212 259 312
#     4  11  20  34  55  81 105 135 175 221 259 304
#     4   9  19  34  52  77 106 136 172 214 261 313
#     4   9  17  30  50  75 102 132 167 207 254 308
#     4  10  21  37  55  74 101 138 177 218 265 314
#     4   8  13  24  45  72 100 129 162 203 250 299
#
# _framework density 19.64472
#
# number of rings (size 3 to 8) (size 9 to 14) (size 15 to 20)
#    0.000    2.500    0.000    2.500    0.000    4.000 
#    0.000    0.833    0.000    3.000    0.000    7.000 
#    0.000    0.000    0.000    0.000    0.000    0.000 
#
# Total GULP energy -534530.004844 kJ/mol
# GULP energy per Si atom -5568.020884 kJ/mol
# Density = 1.960001 g / cm^3
# Si number density = 19.644720 Si / 1000 Ang^3
#
#
#
# Elastic Constant Matrix: (Units=GPa)
#
#
# Indices 1 2 3 4 5 6 
#
# 1 108.5977 55.5595 26.1641 0.0000 0.0000 0.0000
# 2 55.5595 108.5977 26.1641 0.0000 0.0000 0.0000
# 3 26.1641 26.1641 22.8213 0.0000 0.0000 0.0000
# 4 0.0000 0.0000 0.0000 17.4666 0.0000 0.0000
# 5 0.0000 0.0000 0.0000 0.0000 17.4666 0.0000
# 6 0.0000 0.0000 0.0000 0.0000 0.0000 22.6033
#
#
#
# Elastic Compliance Matrix: (Units=1/GPa)
#
#
# Indices 1 2 3 4 5 6 
#
# 1 0.014227 -0.004627 -0.011006 0.000000 0.000000 0.000000
# 2 -0.004627 0.014227 -0.011006 0.000000 0.000000 0.000000
# 3 -0.011006 -0.011006 0.069056 0.000000 0.000000 0.000000
# 4 0.000000 0.000000 0.000000 0.057252 0.000000 0.000000
# 5 0.000000 0.000000 0.000000 0.000000 0.057252 0.000000
# 6 0.000000 0.000000 0.000000 0.000000 0.000000 0.044241
#
#
# Mechanical properties :
#
#
# Convention : Reuss Voigt Hill
#
# Bulk Modulus (GPa) = 22.60872 50.64358 36.62615
# Shear Modulus (GPa) = 15.41877 20.31590 17.86733
#
# Velocity S-wave (km/s) = 2.80461 3.21933 3.01910
# Velocity P-wave (km/s) = 4.69272 6.29718 5.55320
#
# Compressibility (1/GPa) = 0.04423073
#
# Stress axis : x y z
#
# Youngs Moduli (GPa) = 70.28750 70.28750 14.48097
#
# Poissons Ratio (x) = 0.32522 0.15938
# Poissons Ratio (y) = 0.32522 0.15938
# Poissons Ratio (z) = 0.77362 0.77362
#
# Static dielectric constant tensor:
#      x y z
#    x 1.719290 0.000000 0.000000 
#    y 0.000000 1.719290 0.000000 
#    z 0.000000 0.000000 1.705500 
# 
# From -- ./inp_files/7881.got.cif
#   From: 2010.05.17/outbox.cif.g08.bks.cpg/sg137_4_cif.got.tgz:7881.got - 2010.05.20 13:01:12.
