data_PCOD9570394
_publ_section_title
;
Structure prediction by ZEFSAII (Michael W. Deem and Ramdas Pophale) SiO2 
 PCOD9570394
Probable space group: P 42/N M C
;
_chemical_formula_sum "Si O2"
_cell_formula_units_Z 96
_cell_length_a 14.936525
_cell_length_b 14.936525
_cell_length_c 19.686775
_cell_angle_alpha 90.000000
_cell_angle_beta 90.000000
_cell_angle_gamma 90.000000
_cell_volume 4392.115153
_symmetry_space_group_name_H-M "P 42/N M C"
_symmetry_group_IT_number 137
_space_group.IT_coordinate_system_code '2'
_symmetry_cell_setting 'tetragonal'
loop_
_space_group_symop_operation_xyz
x,y,z
1/2-y,x,1/2+z
1/2-x,1/2-y,z
y,1/2-x,1/2+z
1/2+x,-y,-z
-x,1/2+y,-z
1/2+y,1/2+x,1/2-z
-y,-x,1/2-z
-x,-y,-z
1/2+y,-x,1/2-z
1/2+x,1/2+y,-z
-y,1/2+x,1/2-z
1/2-x,y,z
x,1/2-y,z
1/2-y,1/2-x,1/2+z
y,x,1/2+z
loop_
_atom_site_type_symbol
_atom_site_label
_atom_site_fract_x
_atom_site_fract_y
_atom_site_fract_z
Si Si1 0.849628 0.352917 0.432134
Si Si2 0.852352 0.538226 0.998420
Si Si3 0.152653 0.536488 0.702906
Si Si4 0.031108 0.354982 0.895753
Si Si5 0.851453 0.902540 0.753082
Si Si6 0.148968 0.954921 0.137572
O O1 0.750000 0.364995 0.462522
O O2 0.852678 0.250000 0.405477
O O3 0.860288 0.424010 0.371916
O O4 0.933591 0.361466 0.481247
O O5 0.750000 0.566260 0.015207
O O6 0.923803 0.592799 0.041785
O O7 0.862298 0.535707 0.917375
O O8 0.075733 0.575733 0.750000
O O9 0.250000 0.569906 0.726619
O O10 0.150269 0.430435 0.710718
O O11 0.030285 0.250000 0.910078
O O12 0.089147 0.370030 0.827131
O O13 0.932199 0.389026 0.876983
O O14 0.750000 0.869060 0.762674
O O15 0.854782 0.000378 0.788488
O O16 0.250000 0.918511 0.126989
#
# Coordination Sequence:
#
# PCOD9570394 Si02
#       6
#    16  16  16  16  16  16
#     4   9  18  32  52  82 116 147 184 232 288 351
#     4  10  21  38  61  87 117 154 191 233 287 345
#     4  11  21  33  54  82 114 151 188 232 286 347
#     4  11  23  38  60  88 118 154 196 241 287 341
#     4  10  22  40  60  83 113 153 200 246 292 341
#     4  10  21  39  62  85 114 152 194 243 295 345
#
# _framework density 21.857351999999999
#
# number of rings (size 3 to 8) (size 9 to 14) (size 15 to 20)
#    0.000    1.833    0.000    4.500    0.000    4.500 
#    0.000    5.833    0.000    6.000    0.000    0.000 
#    0.000    0.000    0.000    0.000    0.000    0.167 
#
# Total GULP energy -536355.618859 kJ/mol
# GULP energy per Si atom -5587.037696 kJ/mol
# Density = 2.180760 g / cm^3
# Si number density = 21.857352 Si / 1000 Ang^3
#
#
#
# Elastic Constant Matrix: (Units=GPa)
#
#
# Indices 1 2 3 4 5 6 
#
# 1 65.8761 20.1364 11.2628 0.0000 0.0000 0.0000
# 2 20.1364 65.8761 11.2628 0.0000 0.0000 0.0000
# 3 11.2628 11.2628 60.7325 0.0000 0.0000 0.0000
# 4 0.0000 0.0000 0.0000 11.4409 0.0000 0.0000
# 5 0.0000 0.0000 0.0000 0.0000 11.4409 0.0000
# 6 0.0000 0.0000 0.0000 0.0000 0.0000 20.8179
#
#
#
# Elastic Compliance Matrix: (Units=1/GPa)
#
#
# Indices 1 2 3 4 5 6 
#
# 1 0.017041 -0.004822 -0.002266 0.000000 0.000000 0.000000
# 2 -0.004822 0.017041 -0.002266 0.000000 0.000000 0.000000
# 3 -0.002266 -0.002266 0.017306 0.000000 0.000000 0.000000
# 4 0.000000 0.000000 0.000000 0.087406 0.000000 0.000000
# 5 0.000000 0.000000 0.000000 0.000000 0.087406 0.000000
# 6 0.000000 0.000000 0.000000 0.000000 0.000000 0.048036
#
#
# Mechanical properties :
#
#
# Convention : Reuss Voigt Hill
#
# Bulk Modulus (GPa) = 30.59884 30.86766 30.73325
# Shear Modulus (GPa) = 16.45619 18.72812 17.59215
#
# Velocity S-wave (km/s) = 2.74686 2.93035 2.84009
# Velocity P-wave (km/s) = 4.90816 5.05986 4.98459
#
# Compressibility (1/GPa) = 0.03268098
#
# Stress axis : x y z
#
# Youngs Moduli (GPa) = 58.68111 58.68111 57.78291
#
# Poissons Ratio (x) = 0.28294 0.13094
# Poissons Ratio (y) = 0.28294 0.13094
# Poissons Ratio (z) = 0.13298 0.13298
#
# Static dielectric constant tensor:
#      x y z
#    x 1.802060 0.000000 0.000000 
#    y 0.000000 1.802060 0.000000 
#    z 0.000000 0.000000 1.804630 
# 
# From -- ./inp_files/7825.got.cif
#   From: 2010.05.17/outbox.cif.g08.bks.cpg/sg137_4_cif.got.tgz:7825.got - 2010.05.20 13:01:12.
