data_PCOD9570683
_publ_section_title
;
Structure prediction by ZEFSAII (Michael W. Deem and Ramdas Pophale) SiO2 
 PCOD9570683
Probable space group: P 42/N C M
;
_chemical_formula_sum "Si O2"
_cell_formula_units_Z 128
_cell_length_a 23.695655
_cell_length_b 23.695655
_cell_length_c 13.417831
_cell_angle_alpha 90.000000
_cell_angle_beta 90.000000
_cell_angle_gamma 90.000000
_cell_volume 7533.898305
_symmetry_space_group_name_H-M "P 42/N C M"
_symmetry_group_IT_number 138
_space_group.IT_coordinate_system_code '2'
_symmetry_cell_setting 'tetragonal'
loop_
_space_group_symop_operation_xyz
x,y,z
1/2-y,x,1/2+z
1/2-x,1/2-y,z
y,1/2-x,1/2+z
1/2+x,-y,1/2-z
-x,1/2+y,1/2-z
1/2+y,1/2+x,-z
-y,-x,-z
-x,-y,-z
1/2+y,-x,1/2-z
1/2+x,1/2+y,-z
-y,1/2+x,1/2-z
1/2-x,y,1/2+z
x,1/2-y,1/2+z
1/2-y,1/2-x,z
y,x,z
loop_
_atom_site_type_symbol
_atom_site_label
_atom_site_fract_x
_atom_site_fract_y
_atom_site_fract_z
Si Si1 0.853186 0.553053 0.657480
Si Si2 0.267177 0.024313 0.491737
Si Si3 0.929036 0.252932 0.324754
Si Si4 0.932219 0.661222 0.885087
Si Si5 0.686588 0.071196 0.372118
Si Si6 0.658181 0.253215 0.492715
Si Si7 0.929244 0.117794 0.800842
Si Si8 0.027436 0.934050 0.396225
O O1 0.902874 0.597127 0.656814
O O2 0.808940 0.563975 0.570273
O O3 0.825332 0.558673 0.767508
O O4 0.880843 0.490709 0.646779
O O5 0.215648 0.055064 0.547144
O O6 0.248735 0.979534 0.405469
O O7 0.303867 0.987048 0.569215
O O8 0.935649 0.207060 0.240372
O O9 0.872240 0.247742 0.387149
O O10 0.924404 0.315496 0.277519
O O11 0.872877 0.627124 0.898231
O O12 0.981115 0.615346 0.906826
O O13 0.730395 0.113950 0.425922
O O14 0.623198 0.096402 0.367165
O O15 0.708110 0.208110 0.500000
O O16 0.685298 0.314703 0.500000
O O17 0.935487 0.081911 0.699757
O O18 0.060057 0.939944 0.500000
O O19 0.991680 0.991680 0.379254
#
# Coordination Sequence:
#
# PCOD9570683 Si02
#       8
#    16  16  16  16  16  16  16  16
#     4   9  19  37  61  83 110 146 184 217 264 334
#     4  10  20  35  57  81 111 136 181 226 272 332
#     4  10  22  35  48  74 103 139 186 234 282 322
#     4   9  18  36  58  81 109 145 180 218 272 324
#     4  11  22  34  50  75 107 141 185 235 283 319
#     4  10  21  36  50  63  92 138 192 239 279 319
#     4  10  19  34  52  71 107 146 180 230 278 323
#     4   9  18  32  52  79 108 138 179 221 263 322
#
# _framework density 16.989875000000001
#
# number of rings (size 3 to 8) (size 9 to 14) (size 15 to 20)
#    0.000    2.250    1.250    3.375    3.500    0.000 
#    0.000    3.125    0.000    3.375    0.000    1.750 
#    0.000    0.000    0.000    0.000    0.000    0.000 
#
# Total GULP energy -713077.282643 kJ/mol
# GULP energy per Si atom -5570.916271 kJ/mol
# Density = 1.695121 g / cm^3
# Si number density = 16.989875 Si / 1000 Ang^3
#
#
#
# Elastic Constant Matrix: (Units=GPa)
#
#
# Indices 1 2 3 4 5 6 
#
# 1 47.9606 33.1183 40.8653 0.0000 0.0000 0.0000
# 2 33.1183 47.9588 40.8664 0.0000 0.0000 0.0000
# 3 40.8653 40.8664 96.3566 0.0000 0.0000 0.0000
# 4 0.0000 0.0000 0.0000 25.0721 0.0000 0.0000
# 5 0.0000 0.0000 0.0000 0.0000 25.0711 0.0000
# 6 0.0000 0.0000 0.0000 0.0000 0.0000 23.6276
#
#
#
# Elastic Compliance Matrix: (Units=1/GPa)
#
#
# Indices 1 2 3 4 5 6 
#
# 1 0.044460 -0.022917 -0.009136 0.000000 0.000000 0.000000
# 2 -0.022917 0.044464 -0.009139 0.000000 0.000000 0.000000
# 3 -0.009136 -0.009139 0.018129 0.000000 0.000000 0.000000
# 4 0.000000 0.000000 0.000000 0.039885 0.000000 0.000000
# 5 0.000000 0.000000 0.000000 0.000000 0.039887 0.000000
# 6 0.000000 0.000000 0.000000 0.000000 0.000000 0.042323
#
#
# Mechanical properties :
#
#
# Convention : Reuss Voigt Hill
#
# Bulk Modulus (GPa) = 40.53704 46.88621 43.71163
# Shear Modulus (GPa) = 15.63699 19.91587 17.77643
#
# Velocity S-wave (km/s) = 3.03705 3.42748 3.23816
# Velocity P-wave (km/s) = 6.01744 6.58179 6.30593
#
# Compressibility (1/GPa) = 0.02466879
#
# Stress axis : x y z
#
# Youngs Moduli (GPa) = 22.49213 22.49009 55.16119
#
# Poissons Ratio (x) = 0.51541 0.50396
# Poissons Ratio (y) = 0.51545 0.50410
# Poissons Ratio (z) = 0.20549 0.20553
#
# Static dielectric constant tensor:
#      x y z
#    x 1.593810 0.000000 0.000000 
#    y 0.000000 1.593810 0.000000 
#    z 0.000000 0.000000 1.587530 
# 
# From -- ./inp_files/3363.got.cif
#   From: 2010.05.17/outbox.cif.g08.bks.cpg/sg138_2_cif.got.tgz:3363.got - 2010.05.20 13:08:53.
