data_PCOD9570263
_publ_section_title
;
Structure prediction by ZEFSAII (Michael W. Deem and Ramdas Pophale) SiO2 
 PCOD9570263
Probable space group: P 42/N M C
;
_chemical_formula_sum "Si O2"
_cell_formula_units_Z 76
_cell_length_a 17.436172
_cell_length_b 17.436172
_cell_length_c 14.412018
_cell_angle_alpha 90.000000
_cell_angle_beta 90.000000
_cell_angle_gamma 90.000000
_cell_volume 4381.543067
_symmetry_space_group_name_H-M "P 42/N M C"
_symmetry_group_IT_number 137
_space_group.IT_coordinate_system_code '2'
_symmetry_cell_setting 'tetragonal'
loop_
_space_group_symop_operation_xyz
x,y,z
1/2-y,x,1/2+z
1/2-x,1/2-y,z
y,1/2-x,1/2+z
1/2+x,-y,-z
-x,1/2+y,-z
1/2+y,1/2+x,1/2-z
-y,-x,1/2-z
-x,-y,-z
1/2+y,-x,1/2-z
1/2+x,1/2+y,-z
-y,1/2+x,1/2-z
1/2-x,y,z
x,1/2-y,z
1/2-y,1/2-x,1/2+z
y,x,1/2+z
loop_
_atom_site_type_symbol
_atom_site_label
_atom_site_fract_x
_atom_site_fract_y
_atom_site_fract_z
Si Si1 0.888471 0.516666 0.937609
Si Si2 0.750000 0.079698 0.018770
Si Si3 0.250000 0.750000 0.991391
Si Si4 0.969130 0.337953 0.753675
Si Si5 0.122388 0.750000 0.734440
Si Si6 0.575014 0.250000 0.072190
Si Si7 0.992381 0.619068 0.045520
O O1 0.860650 0.524137 0.831800
O O2 0.959629 0.458078 0.935214
O O3 0.823012 0.469813 0.990672
O O4 0.916193 0.591859 0.992066
O O5 0.750000 0.094635 0.128920
O O6 0.750000 0.163422 0.967252
O O7 0.167764 0.750000 0.939349
O O8 0.896216 0.396216 0.750000
O O9 0.943315 0.250000 0.741831
O O10 0.011809 0.344754 0.852327
O O11 0.175629 0.675629 0.750000
O O12 0.061000 0.750000 0.817604
O O13 0.540162 0.323683 0.020457
#
# Coordination Sequence:
#
# PCOD9570263 Si02
#       7
#    16   8   4  16   8   8  16
#     4  10  21  36  54  81 115 155 194 235 285 347
#     4  12  20  34  56  80 115 151 189 239 295 347
#     4  12  20  33  56  85 116 154 184 245 300 361
#     4  10  20  36  57  85 119 152 192 237 292 352
#     4  11  18  30  48  80 114 145 178 230 296 355
#     4  12  20  34  56  80 115 151 189 239 295 347
#     4  10  21  36  54  81 115 155 194 235 285 347
#
# _framework density 17.345486999999999
#
# number of rings (size 3 to 8) (size 9 to 14) (size 15 to 20)
#    0.000    1.368    6.316    0.000    0.000    1.895 
#    0.000    4.211    0.000    0.632    0.000    1.474 
#    0.000    0.000    0.000    0.000    0.000    0.000 
#
# Total GULP energy -423272.616629 kJ/mol
# GULP energy per Si atom -5569.376535 kJ/mol
# Density = 1.730601 g / cm^3
# Si number density = 17.345487 Si / 1000 Ang^3
#
#
#
# Elastic Constant Matrix: (Units=GPa)
#
#
# Indices 1 2 3 4 5 6 
#
# 1 54.0757 36.0239 39.8839 0.0000 0.0000 0.0000
# 2 36.0239 54.0757 39.8839 0.0000 0.0000 0.0000
# 3 39.8839 39.8839 161.3526 0.0000 0.0000 0.0000
# 4 0.0000 0.0000 0.0000 4.6095 0.0000 0.0000
# 5 0.0000 0.0000 0.0000 0.0000 4.6095 0.0000
# 6 0.0000 0.0000 0.0000 0.0000 0.0000 37.4311
#
#
#
# Elastic Compliance Matrix: (Units=1/GPa)
#
#
# Indices 1 2 3 4 5 6 
#
# 1 0.034802 -0.020594 -0.003512 0.000000 0.000000 0.000000
# 2 -0.020594 0.034802 -0.003512 0.000000 0.000000 0.000000
# 3 -0.003512 -0.003512 0.007934 0.000000 0.000000 0.000000
# 4 0.000000 0.000000 0.000000 0.216942 0.000000 0.000000
# 5 0.000000 0.000000 0.000000 0.000000 0.216942 0.000000
# 6 0.000000 0.000000 0.000000 0.000000 0.000000 0.026716
#
#
# Mechanical properties :
#
#
# Convention : Reuss Voigt Hill
#
# Bulk Modulus (GPa) = 44.83910 55.67640 50.25775
# Shear Modulus (GPa) = 8.32213 19.57752 13.94982
#
# Velocity S-wave (km/s) = 2.19278 3.36323 2.83898
# Velocity P-wave (km/s) = 5.68487 6.87386 6.30744
#
# Compressibility (1/GPa) = 0.02230196
#
# Stress axis : x y z
#
# Youngs Moduli (GPa) = 28.73389 28.73389 126.04220
#
# Poissons Ratio (x) = 0.59175 0.44266
# Poissons Ratio (y) = 0.59175 0.44266
# Poissons Ratio (z) = 0.10091 0.10091
#
# Static dielectric constant tensor:
#      x y z
#    x 1.593290 0.000000 0.000000 
#    y 0.000000 1.593290 0.000000 
#    z 0.000000 0.000000 1.642250 
# 
# From -- ./inp_files/5045.got.cif
#   From: 2010.05.17/outbox.cif.g08.bks.cpg/sg137_3_cif.got.tgz:5045.got - 2010.05.20 13:01:12.
