data_PCOD9570953
_publ_section_title
;
Structure prediction by ZEFSAII (Michael W. Deem and Ramdas Pophale) SiO2 
 PCOD9570953
Probable space group: P 42/N C M
;
_chemical_formula_sum "Si O2"
_cell_formula_units_Z 80
_cell_length_a 11.960854
_cell_length_b 11.960854
_cell_length_c 25.683767
_cell_angle_alpha 90.000000
_cell_angle_beta 90.000000
_cell_angle_gamma 90.000000
_cell_volume 3674.371804
_symmetry_space_group_name_H-M "P 42/N C M"
_symmetry_group_IT_number 138
_space_group.IT_coordinate_system_code '2'
_symmetry_cell_setting 'tetragonal'
loop_
_space_group_symop_operation_xyz
x,y,z
1/2-y,x,1/2+z
1/2-x,1/2-y,z
y,1/2-x,1/2+z
1/2+x,-y,1/2-z
-x,1/2+y,1/2-z
1/2+y,1/2+x,-z
-y,-x,-z
-x,-y,-z
1/2+y,-x,1/2-z
1/2+x,1/2+y,-z
-y,1/2+x,1/2-z
1/2-x,y,1/2+z
x,1/2-y,1/2+z
1/2-y,1/2-x,z
y,x,z
loop_
_atom_site_type_symbol
_atom_site_label
_atom_site_fract_x
_atom_site_fract_y
_atom_site_fract_z
Si Si1 0.630760 0.456357 0.312359
Si Si2 0.647921 0.474800 0.951895
Si Si3 0.334636 0.849371 0.081584
Si Si4 0.507393 0.681129 0.108792
Si Si5 0.779435 0.962094 0.722652
O O1 0.540302 0.540302 0.337328
O O2 0.682994 0.385695 0.358614
O O3 0.561230 0.370390 0.277175
O O4 0.710357 0.525289 0.275007
O O5 0.600378 0.600378 0.952870
O O6 0.780442 0.451915 0.950388
O O7 0.587422 0.412053 0.903108
O O8 0.590227 0.409774 0.000000
O O9 0.250000 0.750000 0.066808
O O10 0.458052 0.793801 0.081631
O O11 0.622832 0.622832 0.090359
O O12 0.521026 0.708936 0.169742
O O13 0.847062 0.847062 0.718957
#
# Coordination Sequence:
#
# PCOD9570953 Si02
#       5
#    16  16  16  16  16
#     4  10  22  35  51  78 109 144 188 232 279 340
#     4   9  18  33  55  83 110 138 182 238 287 338
#     4   9  19  33  51  78 105 143 181 230 281 337
#     4   9  18  32  50  73 104 139 180 228 279 336
#     4  10  22  36  53  76 108 148 189 234 282 343
#
# _framework density 21.772428999999999
#
# number of rings (size 3 to 8) (size 9 to 14) (size 15 to 20)
#    0.000    2.600    0.000    0.600    8.400    6.000 
#    0.000    0.000    0.000    1.200    0.000   12.600 
#    0.000    0.000    0.000    0.000    0.000    0.000 
#
# Total GULP energy -445390.770305 kJ/mol
# GULP energy per Si atom -5567.384629 kJ/mol
# Density = 2.172287 g / cm^3
# Si number density = 21.772429 Si / 1000 Ang^3
#
#
#
# Elastic Constant Matrix: (Units=GPa)
#
#
# Indices 1 2 3 4 5 6 
#
# 1 61.8522 57.6300 25.5291 0.0000 0.0000 0.0000
# 2 57.6300 61.8523 25.5291 0.0000 0.0000 0.0000
# 3 25.5291 25.5291 53.3264 0.0000 0.0000 0.0000
# 4 0.0000 0.0000 0.0000 6.9805 0.0000 0.0000
# 5 0.0000 0.0000 0.0000 0.0000 6.9795 0.0000
# 6 0.0000 0.0000 0.0000 0.0000 0.0000 63.1226
#
#
#
# Elastic Compliance Matrix: (Units=1/GPa)
#
#
# Indices 1 2 3 4 5 6 
#
# 1 0.123682 -0.113160 -0.005037 0.000000 0.000000 0.000000
# 2 -0.113160 0.123682 -0.005037 0.000000 0.000000 0.000000
# 3 -0.005037 -0.005037 0.023575 0.000000 0.000000 0.000000
# 4 0.000000 0.000000 0.000000 0.143257 0.000000 0.000000
# 5 0.000000 0.000000 0.000000 0.000000 0.143276 0.000000
# 6 0.000000 0.000000 0.000000 0.000000 0.000000 0.015842
#
#
# Mechanical properties :
#
#
# Convention : Reuss Voigt Hill
#
# Bulk Modulus (GPa) = 40.86553 43.82303 42.34428
# Shear Modulus (GPa) = 6.03908 19.97270 13.00589
#
# Velocity S-wave (km/s) = 1.66726 3.03205 2.44674
# Velocity P-wave (km/s) = 4.74515 5.69466 5.24145
#
# Compressibility (1/GPa) = 0.02447050
#
# Stress axis : x y z
#
# Youngs Moduli (GPa) = 8.08524 8.08526 42.41704
#
# Poissons Ratio (x) = 0.91493 0.21366
# Poissons Ratio (y) = 0.91493 0.21366
# Poissons Ratio (z) = 0.04073 0.04073
#
# Static dielectric constant tensor:
#      x y z
#    x 1.854580 0.000000 0.000000 
#    y 0.000000 1.854580 0.000000 
#    z 0.000000 0.000000 1.784610 
# 
# From -- ./inp_files/7912.got.cif
#   From: 2010.05.17/outbox.cif.g08.bks.cpg/sg138_4_cif.got.tgz:7912.got - 2010.05.20 13:08:53.
