data_PCOD9570779
_publ_section_title
;
Structure prediction by ZEFSAII (Michael W. Deem and Ramdas Pophale) SiO2 
 PCOD9570779
Probable space group: P 42/N C M
;
_chemical_formula_sum "Si O2"
_cell_formula_units_Z 96
_cell_length_a 15.276319
_cell_length_b 15.276319
_cell_length_c 23.604965
_cell_angle_alpha 90.000000
_cell_angle_beta 90.000000
_cell_angle_gamma 90.000000
_cell_volume 5508.594425
_symmetry_space_group_name_H-M "P 42/N C M"
_symmetry_group_IT_number 138
_space_group.IT_coordinate_system_code '2'
_symmetry_cell_setting 'tetragonal'
loop_
_space_group_symop_operation_xyz
x,y,z
1/2-y,x,1/2+z
1/2-x,1/2-y,z
y,1/2-x,1/2+z
1/2+x,-y,1/2-z
-x,1/2+y,1/2-z
1/2+y,1/2+x,-z
-y,-x,-z
-x,-y,-z
1/2+y,-x,1/2-z
1/2+x,1/2+y,-z
-y,1/2+x,1/2-z
1/2-x,y,1/2+z
x,1/2-y,1/2+z
1/2-y,1/2-x,z
y,x,z
loop_
_atom_site_type_symbol
_atom_site_label
_atom_site_fract_x
_atom_site_fract_y
_atom_site_fract_z
Si Si1 0.493500 0.863076 0.647670
Si Si2 0.949682 0.088461 0.640794
Si Si3 0.028737 0.611628 0.443755
Si Si4 0.385286 0.695394 0.254943
Si Si5 0.186099 0.453288 0.907563
Si Si6 0.814118 0.446285 0.975854
O O1 0.566074 0.933926 0.663287
O O2 0.422245 0.912949 0.608713
O O3 0.450030 0.823262 0.703309
O O4 0.537344 0.785963 0.610926
O O5 0.923825 0.161482 0.685886
O O6 0.967612 0.127778 0.578814
O O7 0.869966 0.020619 0.631034
O O8 0.032430 0.032430 0.660772
O O9 0.066635 0.566635 0.500000
O O10 0.044238 0.714278 0.454697
O O11 0.930841 0.569160 0.436472
O O12 0.296476 0.641346 0.243218
O O13 0.141010 0.358991 0.901774
O O14 0.175198 0.487676 0.971732
O O15 0.852612 0.352612 0.000000
#
# Coordination Sequence:
#
# PCOD9570779 Si02
#       6
#    16  16  16  16  16  16
#     4  11  22  38  57  81 113 153 194 226 280 345
#     4  10  20  37  57  81 114 146 183 234 291 341
#     4  10  20  35  54  79 117 154 183 227 287 348
#     4  11  22  37  58  85 114 144 187 238 287 336
#     4  10  20  36  56  81 113 146 188 237 282 333
#     4  10  20  35  58  89 114 147 191 237 291 340
#
# _framework density 17.427313000000002
#
# number of rings (size 3 to 8) (size 9 to 14) (size 15 to 20)
#    0.000    1.667    3.333    2.000    0.000    2.667 
#    0.000    0.000    0.000    1.500    0.000    0.000 
#    0.000    0.000    0.000    0.000    0.000    0.000 
#
# Total GULP energy -535293.748610 kJ/mol
# GULP energy per Si atom -5575.976548 kJ/mol
# Density = 1.738765 g / cm^3
# Si number density = 17.427313 Si / 1000 Ang^3
#
#
#
# Elastic Constant Matrix: (Units=GPa)
#
#
# Indices 1 2 3 4 5 6 
#
# 1 70.2921 44.3706 16.5996 0.0000 0.0000 0.0000
# 2 44.3706 70.2921 16.5996 0.0000 0.0000 0.0000
# 3 16.5996 16.5996 82.9577 0.0000 0.0000 0.0000
# 4 0.0000 0.0000 0.0000 10.7236 0.0000 0.0000
# 5 0.0000 0.0000 0.0000 0.0000 10.7236 0.0000
# 6 0.0000 0.0000 0.0000 0.0000 0.0000 15.2293
#
#
#
# Elastic Compliance Matrix: (Units=1/GPa)
#
#
# Indices 1 2 3 4 5 6 
#
# 1 0.023918 -0.014660 -0.001852 0.000000 0.000000 0.000000
# 2 -0.014660 0.023918 -0.001852 0.000000 0.000000 0.000000
# 3 -0.001852 -0.001852 0.012796 0.000000 0.000000 0.000000
# 4 0.000000 0.000000 0.000000 0.093252 0.000000 0.000000
# 5 0.000000 0.000000 0.000000 0.000000 0.093252 0.000000
# 6 0.000000 0.000000 0.000000 0.000000 0.000000 0.065663
#
#
# Mechanical properties :
#
#
# Convention : Reuss Voigt Hill
#
# Bulk Modulus (GPa) = 41.83899 42.07573 41.95736
# Shear Modulus (GPa) = 13.98617 17.06676 15.52647
#
# Velocity S-wave (km/s) = 2.83599 3.13279 2.98808
# Velocity P-wave (km/s) = 5.89777 6.10588 6.00273
#
# Compressibility (1/GPa) = 0.02390115
#
# Stress axis : x y z
#
# Youngs Moduli (GPa) = 41.80995 41.80995 78.15142
#
# Poissons Ratio (x) = 0.61294 0.14477
# Poissons Ratio (y) = 0.61294 0.14477
# Poissons Ratio (z) = 0.07745 0.07745
#
# Static dielectric constant tensor:
#      x y z
#    x 1.592610 0.000000 0.000000 
#    y 0.000000 1.592610 0.000000 
#    z 0.000000 0.000000 1.570310 
# 
# From -- ./inp_files/6205.got.cif
#   From: 2010.05.17/outbox.cif.g08.bks.cpg/sg138_4_cif.got.tgz:6205.got - 2010.05.20 13:08:53.
