data_PCOD9570293
_publ_section_title
;
Structure prediction by ZEFSAII (Michael W. Deem and Ramdas Pophale) SiO2 
 PCOD9570293
Probable space group: P 42/N M C
;
_chemical_formula_sum "Si O2"
_cell_formula_units_Z 64
_cell_length_a 14.824670
_cell_length_b 14.824670
_cell_length_c 14.827897
_cell_angle_alpha 90.000000
_cell_angle_beta 90.000000
_cell_angle_gamma 90.000000
_cell_volume 3258.739388
_symmetry_space_group_name_H-M "P 42/N M C"
_symmetry_group_IT_number 137
_space_group.IT_coordinate_system_code '2'
_symmetry_cell_setting 'tetragonal'
loop_
_space_group_symop_operation_xyz
x,y,z
1/2-y,x,1/2+z
1/2-x,1/2-y,z
y,1/2-x,1/2+z
1/2+x,-y,-z
-x,1/2+y,-z
1/2+y,1/2+x,1/2-z
-y,-x,1/2-z
-x,-y,-z
1/2+y,-x,1/2-z
1/2+x,1/2+y,-z
-y,1/2+x,1/2-z
1/2-x,y,z
x,1/2-y,z
1/2-y,1/2-x,1/2+z
y,x,1/2+z
loop_
_atom_site_type_symbol
_atom_site_label
_atom_site_fract_x
_atom_site_fract_y
_atom_site_fract_z
Si Si1 0.579883 0.142807 0.152017
Si Si2 0.530381 0.895729 0.347722
Si Si3 0.006906 0.350680 0.850137
Si Si4 0.651694 0.528358 0.050487
O O1 0.625626 0.125626 0.250000
O O2 0.581470 0.250000 0.131505
O O3 0.479686 0.099911 0.158014
O O4 0.624967 0.073846 0.079876
O O5 0.540060 0.846141 0.253214
O O6 0.541790 0.849110 0.443393
O O7 0.426137 0.929236 0.350739
O O8 0.983642 0.250000 0.881356
O O9 0.082457 0.399779 0.909369
O O10 0.750000 0.545602 0.089113
#
# Coordination Sequence:
#
# PCOD9570293 Si02
#       4
#    16  16  16  16
#     4  11  21  37  61  87 119 159 201 246 300 356
#     4  10  21  39  61  86 115 157 204 244 298 362
#     4  10  20  38  61  83 112 154 198 245 298 353
#     4  11  23  38  57  87 122 156 198 248 302 360
#
# _framework density 19.639495
#
# number of rings (size 3 to 8) (size 9 to 14) (size 15 to 20)
#    0.000    1.500    5.000    4.500    0.000    6.250 
#    0.000    0.000    0.000   16.500    0.000    0.000 
#    0.000    0.000    0.000    0.000    0.000    0.000 
#
# Total GULP energy -356695.368671 kJ/mol
# GULP energy per Si atom -5573.365135 kJ/mol
# Density = 1.959479 g / cm^3
# Si number density = 19.639495 Si / 1000 Ang^3
#
#
#
# Elastic Constant Matrix: (Units=GPa)
#
#
# Indices 1 2 3 4 5 6 
#
# 1 91.0444 20.1145 15.0815 0.0000 0.0000 0.0000
# 2 20.1145 91.0444 15.0815 0.0000 0.0000 0.0000
# 3 15.0815 15.0815 104.7604 0.0000 0.0000 0.0000
# 4 0.0000 0.0000 0.0000 -6.2773 0.0000 0.0000
# 5 0.0000 0.0000 0.0000 0.0000 -6.2773 0.0000
# 6 0.0000 0.0000 0.0000 0.0000 0.0000 -0.8551
#
#
#
# Elastic Compliance Matrix: (Units=1/GPa)
#
#
# Indices 1 2 3 4 5 6 
#
# 1 0.011730 -0.002368 -0.001348 0.000000 0.000000 0.000000
# 2 -0.002368 0.011730 -0.001348 0.000000 0.000000 0.000000
# 3 -0.001348 -0.001348 0.009934 0.000000 0.000000 0.000000
# 4 0.000000 0.000000 0.000000 -0.159304 0.000000 0.000000
# 5 0.000000 0.000000 0.000000 0.000000 -0.159304 0.000000
# 6 0.000000 0.000000 0.000000 0.000000 0.000000 -1.169406
#
#
# Mechanical properties :
#
#
# Convention : Reuss Voigt Hill
#
# Bulk Modulus (GPa) = 42.98056 43.04491 43.01274
# Shear Modulus (GPa) = -3.48011 13.08949 4.80469
#
# Velocity S-wave (km/s) = -1.33261 2.58444 1.56581
# Velocity P-wave (km/s) = 4.42318 5.55616 5.02172
#
# Compressibility (1/GPa) = 0.02326633
#
# Stress axis : x y z
#
# Youngs Moduli (GPa) = 85.25052 85.25052 100.66804
#
# Poissons Ratio (x) = 0.20190 0.13568
# Poissons Ratio (y) = 0.20190 0.13568
# Poissons Ratio (z) = 0.11490 0.11490
#
# Static dielectric constant tensor:
#      x y z
#    x 1.668370 0.000000 0.000000 
#    y 0.000000 1.668370 0.000000 
#    z 0.000000 0.000000 1.714500 
# 
# From -- ./inp_files/4697.got.cif
#   From: 2010.05.17/outbox.cif.g08.bks.cpg/sg137_3_cif.got.tgz:4697.got - 2010.05.20 13:01:12.
