data_PCOD9570693
_publ_section_title
;
Structure prediction by ZEFSAII (Michael W. Deem and Ramdas Pophale) SiO2 
 PCOD9570693
Probable space group: P 42/N C M
;
_chemical_formula_sum "Si O2"
_cell_formula_units_Z 96
_cell_length_a 17.210330
_cell_length_b 17.210330
_cell_length_c 15.678732
_cell_angle_alpha 90.000000
_cell_angle_beta 90.000000
_cell_angle_gamma 90.000000
_cell_volume 4643.969217
_symmetry_space_group_name_H-M "P 42/N C M"
_symmetry_group_IT_number 138
_space_group.IT_coordinate_system_code '2'
_symmetry_cell_setting 'tetragonal'
loop_
_space_group_symop_operation_xyz
x,y,z
1/2-y,x,1/2+z
1/2-x,1/2-y,z
y,1/2-x,1/2+z
1/2+x,-y,1/2-z
-x,1/2+y,1/2-z
1/2+y,1/2+x,-z
-y,-x,-z
-x,-y,-z
1/2+y,-x,1/2-z
1/2+x,1/2+y,-z
-y,1/2+x,1/2-z
1/2-x,y,1/2+z
x,1/2-y,1/2+z
1/2-y,1/2-x,z
y,x,z
loop_
_atom_site_type_symbol
_atom_site_label
_atom_site_fract_x
_atom_site_fract_y
_atom_site_fract_z
Si Si1 0.687903 0.567683 0.713946
Si Si2 0.676670 0.192723 0.096146
Si Si3 0.794800 0.040904 0.945603
Si Si4 0.218972 0.563232 0.358970
Si Si5 0.452572 0.923932 0.313706
Si Si6 0.750117 0.622731 0.896214
O O1 0.637916 0.637916 0.675059
O O2 0.748367 0.522354 0.656438
O O3 0.626287 0.502686 0.746737
O O4 0.730852 0.600197 0.798087
O O5 0.750000 0.250000 0.091959
O O6 0.600900 0.244809 0.112857
O O7 0.710907 0.124628 0.154855
O O8 0.661093 0.161093 0.000000
O O9 0.877857 0.030448 0.901575
O O10 0.752561 0.958086 0.945750
O O11 0.801649 0.072854 0.041042
O O12 0.140463 0.575279 0.305512
O O13 0.490902 0.009099 0.315527
O O14 0.829218 0.670783 0.902546
O O15 0.680382 0.680382 0.923726
#
# Coordination Sequence:
#
# PCOD9570693 Si02
#       6
#    16  16  16  16  16  16
#     4   9  21  39  54  74 110 148 181 223 273 324
#     4   9  17  32  51  76 112 145 170 207 269 332
#     4  10  19  34  58  84 111 142 182 227 277 330
#     4  11  21  34  57  85 110 141 184 232 274 319
#     4  10  21  37  55  79 112 145 177 222 282 338
#     4   9  19  38  60  79 107 150 190 225 277 340
#
# _framework density 20.671972
#
# number of rings (size 3 to 8) (size 9 to 14) (size 15 to 20)
#    0.000    2.333    1.667    2.000    0.000    6.000 
#    0.000    2.500    0.000    5.000    0.000    0.000 
#    0.000    0.000    0.000    0.000    0.000    0.000 
#
# Total GULP energy -535243.374718 kJ/mol
# GULP energy per Si atom -5575.451820 kJ/mol
# Density = 2.062492 g / cm^3
# Si number density = 20.671972 Si / 1000 Ang^3
#
#
#
# Elastic Constant Matrix: (Units=GPa)
#
#
# Indices 1 2 3 4 5 6 
#
# 1 95.1015 33.8375 3.9106 0.0000 0.0000 0.0000
# 2 33.8375 95.1015 3.9106 0.0000 0.0000 0.0000
# 3 3.9106 3.9106 13.0293 0.0000 0.0000 0.0000
# 4 0.0000 0.0000 0.0000 14.7348 0.0000 0.0000
# 5 0.0000 0.0000 0.0000 0.0000 14.7348 0.0000
# 6 0.0000 0.0000 0.0000 0.0000 0.0000 39.0068
#
#
#
# Elastic Compliance Matrix: (Units=1/GPa)
#
#
# Indices 1 2 3 4 5 6 
#
# 1 0.012111 -0.004212 -0.002371 0.000000 0.000000 0.000000
# 2 -0.004212 0.012111 -0.002371 0.000000 0.000000 0.000000
# 3 -0.002371 -0.002371 0.078173 0.000000 0.000000 0.000000
# 4 0.000000 0.000000 0.000000 0.067866 0.000000 0.000000
# 5 0.000000 0.000000 0.000000 0.000000 0.067866 0.000000
# 6 0.000000 0.000000 0.000000 0.000000 0.000000 0.025637
#
#
# Mechanical properties :
#
#
# Convention : Reuss Voigt Hill
#
# Bulk Modulus (GPa) = 11.83596 31.83889 21.83743
# Shear Modulus (GPa) = 16.13764 24.46686 20.30225
#
# Velocity S-wave (km/s) = 2.79705 3.44405 3.13727
# Velocity P-wave (km/s) = 4.02111 5.59023 4.86929
#
# Compressibility (1/GPa) = 0.08448825
#
# Stress axis : x y z
#
# Youngs Moduli (GPa) = 82.56882 82.56882 12.79211
#
# Poissons Ratio (x) = 0.34775 0.03033
# Poissons Ratio (y) = 0.34775 0.03033
# Poissons Ratio (z) = 0.19577 0.19577
#
# Static dielectric constant tensor:
#      x y z
#    x 1.764320 0.000000 0.000000 
#    y 0.000000 1.764320 0.000000 
#    z 0.000000 0.000000 1.761880 
# 
# From -- ./inp_files/5192.got.cif
#   From: 2010.05.17/outbox.cif.g08.bks.cpg/sg138_3_cif.got.tgz:5192.got - 2010.05.20 13:08:53.
