data_PCOD9570118
_publ_section_title
;
Structure prediction by ZEFSAII (Michael W. Deem and Ramdas Pophale) SiO2 
 PCOD9570118
Probable space group: P 42/N M C
;
_chemical_formula_sum "Si O2"
_cell_formula_units_Z 80
_cell_length_a 14.102170
_cell_length_b 14.102170
_cell_length_c 19.453047
_cell_angle_alpha 90.000000
_cell_angle_beta 90.000000
_cell_angle_gamma 90.000000
_cell_volume 3868.650775
_symmetry_space_group_name_H-M "P 42/N M C"
_symmetry_group_IT_number 137
_space_group.IT_coordinate_system_code '2'
_symmetry_cell_setting 'tetragonal'
loop_
_space_group_symop_operation_xyz
x,y,z
1/2-y,x,1/2+z
1/2-x,1/2-y,z
y,1/2-x,1/2+z
1/2+x,-y,-z
-x,1/2+y,-z
1/2+y,1/2+x,1/2-z
-y,-x,1/2-z
-x,-y,-z
1/2+y,-x,1/2-z
1/2+x,1/2+y,-z
-y,1/2+x,1/2-z
1/2-x,y,z
x,1/2-y,z
1/2-y,1/2-x,1/2+z
y,x,1/2+z
loop_
_atom_site_type_symbol
_atom_site_label
_atom_site_fract_x
_atom_site_fract_y
_atom_site_fract_z
Si Si1 0.144182 0.635938 0.563763
Si Si2 0.636890 0.476252 0.194423
Si Si3 0.138516 0.357746 0.996274
Si Si4 0.474335 0.139873 0.851811
Si Si5 0.040947 0.862446 0.420596
O O1 0.250000 0.596952 0.574131
O O2 0.149939 0.750000 0.570485
O O3 0.068804 0.607056 0.620954
O O4 0.107144 0.618787 0.487350
O O5 0.594778 0.405223 0.250000
O O6 0.750000 0.481194 0.198272
O O7 0.590824 0.579716 0.199461
O O8 0.250000 0.376576 0.979589
O O9 0.130777 0.250000 0.021900
O O10 0.110887 0.435984 0.052428
O O11 0.079932 0.364068 0.925814
O O12 0.486961 0.250000 0.834203
O O13 0.572757 0.084067 0.861493
O O14 0.042758 0.750000 0.405527
#
# Coordination Sequence:
#
# PCOD9570118 Si02
#       5
#    16  16  16  16  16
#     4   9  17  30  51  81 117 153 188 233 289 346
#     4  11  23  40  60  84 113 150 198 250 300 352
#     4   9  17  30  50  79 116 155 192 231 278 340
#     4  11  22  36  58  86 116 154 199 241 289 352
#     4  10  19  34  55  85 124 158 194 237 289 354
#
# _framework density 20.679044999999999
#
# number of rings (size 3 to 8) (size 9 to 14) (size 15 to 20)
#    0.000    2.000    2.000    2.400    0.000    3.400 
#    0.000    2.000    0.000    0.000    0.000    0.000 
#    0.000    0.000    0.000    0.000    0.000    0.000 
#
# Total GULP energy -447009.874475 kJ/mol
# GULP energy per Si atom -5587.623431 kJ/mol
# Density = 2.063198 g / cm^3
# Si number density = 20.679045 Si / 1000 Ang^3
#
#
#
# Elastic Constant Matrix: (Units=GPa)
#
#
# Indices 1 2 3 4 5 6 
#
# 1 100.5546 17.4246 5.5470 0.0000 0.0000 0.0000
# 2 17.4246 100.5610 5.5477 0.0000 0.0000 0.0000
# 3 5.5470 5.5477 5.5124 0.0000 0.0000 0.0000
# 4 0.0000 0.0000 0.0000 23.7302 0.0000 0.0000
# 5 0.0000 0.0000 0.0000 0.0000 23.7301 0.0000
# 6 0.0000 0.0000 0.0000 0.0000 0.0000 24.3159
#
#
#
# Elastic Compliance Matrix: (Units=1/GPa)
#
#
# Indices 1 2 3 4 5 6 
#
# 1 0.010696 -0.001334 -0.009421 0.000000 0.000000 0.000000
# 2 -0.001334 0.010695 -0.009422 0.000000 0.000000 0.000000
# 3 -0.009421 -0.009422 0.200372 0.000000 0.000000 0.000000
# 4 0.000000 0.000000 0.000000 0.042140 0.000000 0.000000
# 5 0.000000 0.000000 0.000000 0.000000 0.042141 0.000000
# 6 0.000000 0.000000 0.000000 0.000000 0.000000 0.041125
#
#
# Mechanical properties :
#
#
# Convention : Reuss Voigt Hill
#
# Bulk Modulus (GPa) = 5.51236 29.29630 17.40433
# Shear Modulus (GPa) = 11.16094 26.22915 18.69505
#
# Velocity S-wave (km/s) = 2.32571 3.56531 3.01002
# Velocity P-wave (km/s) = 3.14378 5.58091 4.52934
#
# Compressibility (1/GPa) = 0.18141050
#
# Stress axis : x y z
#
# Youngs Moduli (GPa) = 93.49627 93.50115 4.99072
#
# Poissons Ratio (x) = 0.12469 0.04702
# Poissons Ratio (y) = 0.12468 0.04702
# Poissons Ratio (z) = 0.88080 0.88094
#
# Static dielectric constant tensor:
#      x y z
#    x 1.760380 0.000000 0.000000 
#    y 0.000000 1.760380 0.000000 
#    z 0.000000 0.000000 1.731280 
# 
# From -- ./inp_files/7560.got.cif
#   From: 2010.05.17/outbox.cif.g08.bks.cpg/sg137_4_cif.got.tgz:7560.got - 2010.05.20 13:01:12.
