data_PCOD9570820
_publ_section_title
;
Structure prediction by ZEFSAII (Michael W. Deem and Ramdas Pophale) SiO2 
 PCOD9570820
Probable space group: P 42/N C M
;
_chemical_formula_sum "Si O2"
_cell_formula_units_Z 116
_cell_length_a 17.982909
_cell_length_b 17.982909
_cell_length_c 18.476893
_cell_angle_alpha 90.000000
_cell_angle_beta 90.000000
_cell_angle_gamma 90.000000
_cell_volume 5975.150340
_symmetry_space_group_name_H-M "P 42/N C M"
_symmetry_group_IT_number 138
_space_group.IT_coordinate_system_code '2'
_symmetry_cell_setting 'tetragonal'
loop_
_space_group_symop_operation_xyz
x,y,z
1/2-y,x,1/2+z
1/2-x,1/2-y,z
y,1/2-x,1/2+z
1/2+x,-y,1/2-z
-x,1/2+y,1/2-z
1/2+y,1/2+x,-z
-y,-x,-z
-x,-y,-z
1/2+y,-x,1/2-z
1/2+x,1/2+y,-z
-y,1/2+x,1/2-z
1/2-x,y,1/2+z
x,1/2-y,1/2+z
1/2-y,1/2-x,z
y,x,z
loop_
_atom_site_type_symbol
_atom_site_label
_atom_site_fract_x
_atom_site_fract_y
_atom_site_fract_z
Si Si1 0.565405 0.692022 0.676950
Si Si2 0.631287 0.755989 0.812747
Si Si3 0.074030 0.549344 0.336301
Si Si4 0.166524 0.603743 0.770324
Si Si5 0.001343 0.194392 0.089653
Si Si6 0.056400 0.180354 0.927483
Si Si7 0.750000 0.250000 0.000000
Si Si8 0.232005 0.638527 0.130070
O O1 0.618576 0.618576 0.677491
O O2 0.600583 0.752567 0.731647
O O3 0.482244 0.678184 0.707554
O O4 0.563851 0.735714 0.601457
O O5 0.663682 0.836319 0.832826
O O6 0.698806 0.698806 0.813898
O O7 0.571147 0.718128 0.863266
O O8 0.108407 0.584261 0.264010
O O9 0.039084 0.619865 0.379782
O O10 0.136186 0.505274 0.380618
O O11 0.007293 0.492708 0.321081
O O12 0.171313 0.654887 0.840800
O O13 0.218810 0.634467 0.704795
O O14 0.944911 0.262582 0.101175
O O15 0.027012 0.180425 0.008902
O O16 0.132429 0.132429 0.923044
O O17 0.744013 0.316388 0.941358
#
# Coordination Sequence:
#
# PCOD9570820 Si02
#       8
#    16  16  16  16  16  16   4  16
#     4  11  23  42  66  93 127 170 220 274 326 384
#     4  10  20  38  63  92 128 169 214 260 312 377
#     4  10  20  36  64  96 128 165 212 271 325 378
#     4  11  22  42  65  92 127 166 213 267 322 389
#     4  11  23  39  63  94 131 170 211 264 322 383
#     4  11  24  38  62  95 131 168 214 269 323 386
#     4  12  28  42  64  96 128 174 212 264 336 384
#     4  11  25  40  66  93 129 169 212 268 322 395
#
# _framework density 19.413737000000001
#
# number of rings (size 3 to 8) (size 9 to 14) (size 15 to 20)
#    0.000    1.241    2.759    4.138    5.793    2.483 
#    0.000    0.690    0.000    0.828    0.000    0.000 
#    0.000    0.000    0.000    0.000    0.000    0.000 
#
# Total GULP energy -646791.455184 kJ/mol
# GULP energy per Si atom -5575.788407 kJ/mol
# Density = 1.936955 g / cm^3
# Si number density = 19.413737 Si / 1000 Ang^3
#
#
#
# Elastic Constant Matrix: (Units=GPa)
#
#
# Indices 1 2 3 4 5 6 
#
# 1 75.2827 24.8605 27.4374 0.0000 0.0000 0.0000
# 2 24.8605 75.2827 27.4374 0.0000 0.0000 0.0000
# 3 27.4374 27.4374 88.3196 0.0000 0.0000 0.0000
# 4 0.0000 0.0000 0.0000 20.8162 0.0000 0.0000
# 5 0.0000 0.0000 0.0000 0.0000 20.8162 0.0000
# 6 0.0000 0.0000 0.0000 0.0000 0.0000 18.0803
#
#
#
# Elastic Compliance Matrix: (Units=1/GPa)
#
#
# Indices 1 2 3 4 5 6 
#
# 1 0.015933 -0.003899 -0.003739 0.000000 0.000000 0.000000
# 2 -0.003899 0.015933 -0.003739 0.000000 0.000000 0.000000
# 3 -0.003739 -0.003739 0.013645 0.000000 0.000000 0.000000
# 4 0.000000 0.000000 0.000000 0.048039 0.000000 0.000000
# 5 0.000000 0.000000 0.000000 0.000000 0.048039 0.000000
# 6 0.000000 0.000000 0.000000 0.000000 0.000000 0.055309
#
#
# Mechanical properties :
#
#
# Convention : Reuss Voigt Hill
#
# Bulk Modulus (GPa) = 43.93738 44.26172 44.09955
# Shear Modulus (GPa) = 22.00328 22.55255 22.27792
#
# Velocity S-wave (km/s) = 3.37023 3.41204 3.39120
# Velocity P-wave (km/s) = 6.15027 6.19446 6.17241
#
# Compressibility (1/GPa) = 0.02275966
#
# Stress axis : x y z
#
# Youngs Moduli (GPa) = 62.76118 62.76118 73.28500
#
# Poissons Ratio (x) = 0.24471 0.27398
# Poissons Ratio (y) = 0.24471 0.27398
# Poissons Ratio (z) = 0.23464 0.23464
#
# Static dielectric constant tensor:
#      x y z
#    x 1.376580 0.000000 0.000000 
#    y 0.000000 1.376580 0.000000 
#    z 0.000000 0.000000 1.685410 
# 
# From -- ./inp_files/5354.got.cif
#   From: 2010.05.17/outbox.cif.g08.bks.cpg/sg138_3_cif.got.tgz:5354.got - 2010.05.20 13:08:53.
