data_PCOD9570025
_publ_section_title
;
Structure prediction by ZEFSAII (Michael W. Deem and Ramdas Pophale) SiO2 
 PCOD9570025
Probable space group: P 42/N M C
;
_chemical_formula_sum "Si O2"
_cell_formula_units_Z 96
_cell_length_a 29.842575
_cell_length_b 29.842575
_cell_length_c 5.594179
_cell_angle_alpha 90.000000
_cell_angle_beta 90.000000
_cell_angle_gamma 90.000000
_cell_volume 4982.059921
_symmetry_space_group_name_H-M "P 42/N M C"
_symmetry_group_IT_number 137
_space_group.IT_coordinate_system_code '2'
_symmetry_cell_setting 'tetragonal'
loop_
_space_group_symop_operation_xyz
x,y,z
1/2-y,x,1/2+z
1/2-x,1/2-y,z
y,1/2-x,1/2+z
1/2+x,-y,-z
-x,1/2+y,-z
1/2+y,1/2+x,1/2-z
-y,-x,1/2-z
-x,-y,-z
1/2+y,-x,1/2-z
1/2+x,1/2+y,-z
-y,1/2+x,1/2-z
1/2-x,y,z
x,1/2-y,z
1/2-y,1/2-x,1/2+z
y,x,1/2+z
loop_
_atom_site_type_symbol
_atom_site_label
_atom_site_fract_x
_atom_site_fract_y
_atom_site_fract_z
Si Si1 0.125052 0.086133 0.749991
Si Si2 0.250000 0.044159 0.249993
Si Si3 0.750000 0.548354 0.250007
Si Si4 0.802957 0.658307 0.250009
Si Si5 0.013340 0.843594 0.250007
Si Si6 0.161450 0.511656 0.749992
Si Si7 0.444460 0.484587 0.249993
O O1 0.103364 0.103364 0.499991
O O2 0.173723 0.109329 0.749992
O O3 0.129453 0.032484 0.749992
O O4 0.250000 0.071620 0.493200
O O5 0.202654 0.016365 0.249992
O O6 0.250000 0.071620 0.006785
O O7 0.708889 0.513299 0.250007
O O8 0.750000 0.659216 0.250008
O O9 0.819439 0.680561 0.500009
O O10 0.037698 0.843864 0.503788
O O11 0.986383 0.890641 0.250007
O O12 0.037698 0.843864 0.996227
O O13 0.465598 0.534403 0.250000
O O14 0.462868 0.462868 0.499992
#
# Coordination Sequence:
#
# PCOD9570025 Si02
#       7
#    16   8   8  16  16  16  16
#     4  10  21  33  42  59  81  97 121 157 198 253
#     4   8  16  30  44  66  92 110 150 186 232 282
#     4   8  16  28  42  62  80 104 135 166 208 267
#     4  10  21  35  48  61  73  89 114 148 192 243
#     4  10  19  32  49  70  92 120 154 191 232 275
#     4  10  19  30  47  64  83 111 138 170 217 265
#     4  10  21  35  50  71  99 132 169 202 234 280
#
# _framework density 19.269138999999999
#
# number of rings (size 3 to 8) (size 9 to 14) (size 15 to 20)
#    0.000    2.333    0.000    2.500    1.167    5.000 
#    0.000    0.000    0.000    0.000    0.000    0.000 
#    0.000    0.000    0.000    0.000    0.000    2.917 
#
# Total GULP energy -534537.199391 kJ/mol
# GULP energy per Si atom -5568.095827 kJ/mol
# Density = 1.922528 g / cm^3
# Si number density = 19.269139 Si / 1000 Ang^3
#
#
#
# Elastic Constant Matrix: (Units=GPa)
#
#
# Indices 1 2 3 4 5 6 
#
# 1 49.8140 25.4254 5.8575 0.0000 0.0000 0.0000
# 2 25.4254 49.8078 5.8565 0.0000 0.0000 0.0000
# 3 5.8575 5.8565 236.2024 0.0000 0.0000 0.0000
# 4 0.0000 0.0000 0.0000 14.0490 0.0000 0.0000
# 5 0.0000 0.0000 0.0000 0.0000 14.0494 0.0000
# 6 0.0000 0.0000 0.0000 0.0000 0.0000 4.1123
#
#
#
# Elastic Compliance Matrix: (Units=1/GPa)
#
#
# Indices 1 2 3 4 5 6 
#
# 1 0.027174 -0.013833 -0.000331 0.000000 0.000000 0.000000
# 2 -0.013833 0.027177 -0.000331 0.000000 0.000000 0.000000
# 3 -0.000331 -0.000331 0.004250 0.000000 0.000000 0.000000
# 4 0.000000 0.000000 0.000000 0.071179 0.000000 0.000000
# 5 0.000000 0.000000 0.000000 0.000000 0.071177 0.000000
# 6 0.000000 0.000000 0.000000 0.000000 0.000000 0.243171
#
#
# Mechanical properties :
#
#
# Convention : Reuss Voigt Hill
#
# Bulk Modulus (GPa) = 33.76943 45.56700 39.66822
# Shear Modulus (GPa) = 10.35222 26.35446 18.35334
#
# Velocity S-wave (km/s) = 2.32037 3.70226 3.08956
# Velocity P-wave (km/s) = 4.97413 6.47878 5.77566
#
# Compressibility (1/GPa) = 0.02961258
#
# Stress axis : x y z
#
# Youngs Moduli (GPa) = 36.80012 36.79558 235.29050
#
# Poissons Ratio (x) = 0.50898 0.07786
# Poissons Ratio (y) = 0.50904 0.07784
# Poissons Ratio (z) = 0.01218 0.01217
#
# Static dielectric constant tensor:
#      x y z
#    x 1.707170 0.000000 0.000000 
#    y 0.000000 1.707170 0.000000 
#    z 0.000000 0.000000 1.824420 
# 
# From -- ./inp_files/653.got.cif
#   From: 2010.05.17/outbox.cif.g08.bks.cpg/sg137_1_cif.got.tgz:653.got - 2010.05.20 13:01:12.
