data_PCOD9570657
_publ_section_title
;
Structure prediction by ZEFSAII (Michael W. Deem and Ramdas Pophale) SiO2 
 PCOD9570657
Probable space group: P 42/N C M
;
_chemical_formula_sum "Si O2"
_cell_formula_units_Z 112
_cell_length_a 14.993689
_cell_length_b 14.993689
_cell_length_c 29.768294
_cell_angle_alpha 90.000000
_cell_angle_beta 90.000000
_cell_angle_gamma 90.000000
_cell_volume 6692.231305
_symmetry_space_group_name_H-M "P 42/N C M"
_symmetry_group_IT_number 138
_space_group.IT_coordinate_system_code '2'
_symmetry_cell_setting 'tetragonal'
loop_
_space_group_symop_operation_xyz
x,y,z
1/2-y,x,1/2+z
1/2-x,1/2-y,z
y,1/2-x,1/2+z
1/2+x,-y,1/2-z
-x,1/2+y,1/2-z
1/2+y,1/2+x,-z
-y,-x,-z
-x,-y,-z
1/2+y,-x,1/2-z
1/2+x,1/2+y,-z
-y,1/2+x,1/2-z
1/2-x,y,1/2+z
x,1/2-y,1/2+z
1/2-y,1/2-x,z
y,x,z
loop_
_atom_site_type_symbol
_atom_site_label
_atom_site_fract_x
_atom_site_fract_y
_atom_site_fract_z
Si Si1 0.548600 0.691832 0.533076
Si Si2 0.884931 0.036002 0.043413
Si Si3 0.388045 0.699960 0.698346
Si Si4 0.692517 0.109087 0.297618
Si Si5 0.950295 0.094972 0.385957
Si Si6 0.987433 0.135945 0.114688
Si Si7 0.038598 0.184386 0.572177
O O1 0.649021 0.649021 0.538346
O O2 0.522116 0.794831 0.541534
O O3 0.489152 0.639303 0.569087
O O4 0.523931 0.673984 0.481188
O O5 0.902387 0.098157 0.086795
O O6 0.900780 0.099221 0.000000
O O7 0.965330 0.965330 0.043107
O O8 0.429352 0.680258 0.747409
O O9 0.371659 0.805556 0.695982
O O10 0.291571 0.651164 0.700051
O O11 0.435491 0.663471 0.654264
O O12 0.675610 0.042139 0.337880
O O13 0.862320 0.041276 0.400548
O O14 0.021437 0.021437 0.370606
O O15 0.036118 0.212434 0.085509
O O16 0.055082 0.055082 0.121559
O O17 0.129289 0.129289 0.582587
#
# Coordination Sequence:
#
# PCOD9570657 Si02
#       7
#    16  16  16  16  16  16  16
#     4  10  20  34  53  76 103 137 175 212 259 314
#     4  10  20  34  50  72 102 136 175 216 254 298
#     4   9  17  32  54  74 102 133 166 210 260 316
#     4   9  18  32  51  77 101 131 169 212 260 309
#     4  10  19  32  52  75 102 134 166 210 261 309
#     4  11  21  34  53  75 105 139 174 220 262 302
#     4  10  20  34  51  73 104 139 173 213 260 312
#
# _framework density 16.735823
#
# number of rings (size 3 to 8) (size 9 to 14) (size 15 to 20)
#    0.000    2.143    2.857    2.143    0.000    2.857 
#    0.000    1.429    0.000    0.000    0.000    0.000 
#    0.000    2.286    0.000    0.000    0.000    0.000 
#
# Total GULP energy -623650.234240 kJ/mol
# GULP energy per Si atom -5568.305663 kJ/mol
# Density = 1.669773 g / cm^3
# Si number density = 16.735823 Si / 1000 Ang^3
#
#
#
# Elastic Constant Matrix: (Units=GPa)
#
#
# Indices 1 2 3 4 5 6 
#
# 1 48.9612 4.6297 23.6270 0.0000 0.0000 0.0000
# 2 4.6297 48.9615 23.6269 0.0000 0.0000 0.0000
# 3 23.6270 23.6269 104.5917 0.0000 0.0000 0.0000
# 4 0.0000 0.0000 0.0000 20.7209 0.0000 0.0000
# 5 0.0000 0.0000 0.0000 0.0000 20.7210 0.0000
# 6 0.0000 0.0000 0.0000 0.0000 0.0000 17.7022
#
#
#
# Elastic Compliance Matrix: (Units=1/GPa)
#
#
# Indices 1 2 3 4 5 6 
#
# 1 0.022929 0.000372 -0.005264 0.000000 0.000000 0.000000
# 2 0.000372 0.022929 -0.005264 0.000000 0.000000 0.000000
# 3 -0.005264 -0.005264 0.011939 0.000000 0.000000 0.000000
# 4 0.000000 0.000000 0.000000 0.048261 0.000000 0.000000
# 5 0.000000 0.000000 0.000000 0.000000 0.048260 0.000000
# 6 0.000000 0.000000 0.000000 0.000000 0.000000 0.056490
#
#
# Mechanical properties :
#
#
# Convention : Reuss Voigt Hill
#
# Bulk Modulus (GPa) = 26.67620 34.03128 30.35374
# Shear Modulus (GPa) = 20.52422 21.87086 21.19754
#
# Velocity S-wave (km/s) = 3.50575 3.61893 3.56279
# Velocity P-wave (km/s) = 5.68869 6.15148 5.92461
#
# Compressibility (1/GPa) = 0.03748659
#
# Stress axis : x y z
#
# Youngs Moduli (GPa) = 43.61248 43.61278 83.75866
#
# Poissons Ratio (x) = -0.01622 0.44088
# Poissons Ratio (y) = -0.01622 0.44087
# Poissons Ratio (z) = 0.22956 0.22956
#
# Static dielectric constant tensor:
#      x y z
#    x 1.563950 0.000000 0.000000 
#    y 0.000000 1.563950 0.000000 
#    z 0.000000 0.000000 1.570100 
# 
# From -- ./inp_files/7588.got.cif
#   From: 2010.05.17/outbox.cif.g08.bks.cpg/sg138_4_cif.got.tgz:7588.got - 2010.05.20 13:08:53.
