data_PCOD9570976
_publ_section_title
;
Structure prediction by ZEFSAII (Michael W. Deem and Ramdas Pophale) SiO2 
 PCOD9570976
Probable space group: P 42/N C M
;
_chemical_formula_sum "Si O2"
_cell_formula_units_Z 68
_cell_length_a 12.873144
_cell_length_b 12.873144
_cell_length_c 23.318919
_cell_angle_alpha 90.000000
_cell_angle_beta 90.000000
_cell_angle_gamma 90.000000
_cell_volume 3864.360805
_symmetry_space_group_name_H-M "P 42/N C M"
_symmetry_group_IT_number 138
_space_group.IT_coordinate_system_code '2'
_symmetry_cell_setting 'tetragonal'
loop_
_space_group_symop_operation_xyz
x,y,z
1/2-y,x,1/2+z
1/2-x,1/2-y,z
y,1/2-x,1/2+z
1/2+x,-y,1/2-z
-x,1/2+y,1/2-z
1/2+y,1/2+x,-z
-y,-x,-z
-x,-y,-z
1/2+y,-x,1/2-z
1/2+x,1/2+y,-z
-y,1/2+x,1/2-z
1/2-x,y,1/2+z
x,1/2-y,1/2+z
1/2-y,1/2-x,z
y,x,z
loop_
_atom_site_type_symbol
_atom_site_label
_atom_site_fract_x
_atom_site_fract_y
_atom_site_fract_z
Si Si1 0.540488 0.248181 0.316145
Si Si2 0.664534 0.835467 0.622379
Si Si3 0.250000 0.750000 0.500000
Si Si4 0.864141 0.034343 0.306505
Si Si5 0.012906 0.487095 0.433701
Si Si6 0.305870 0.616121 0.107105
O O1 0.429237 0.218650 0.342705
O O2 0.555204 0.370525 0.310149
O O3 0.545060 0.192577 0.254674
O O4 0.637362 0.207445 0.355446
O O5 0.750000 0.750000 0.605556
O O6 0.600871 0.899130 0.574731
O O7 0.156276 0.739770 0.453918
O O8 0.779303 0.056187 0.355692
O O9 0.926781 0.926781 0.311140
O O10 0.046237 0.594760 0.405998
O O11 0.000000 0.500000 0.500000
#
# Coordination Sequence:
#
# PCOD9570976 Si02
#       6
#    16   8   4  16   8  16
#     4  11  21  37  62  86 120 161 202 247 308 379
#     4  10  22  40  56  92 124 157 197 254 313 366
#     4  12  20  38  68  88 116 162 214 250 296 350
#     4  12  23  38  60  93 122 158 203 259 313 368
#     4  10  22  42  68  86 120 168 211 246 297 365
#     4  11  23  39  64  91 119 161 209 252 300 366
#
# _framework density 17.596699000000001
#
# number of rings (size 3 to 8) (size 9 to 14) (size 15 to 20)
#    0.000    0.941    7.059    0.706    0.000    0.000 
#    2.118    2.353    0.000    0.000    0.000    0.000 
#    0.000    0.000    0.000    0.000    0.000    0.000 
#
# Total GULP energy -379199.446438 kJ/mol
# GULP energy per Si atom -5576.462448 kJ/mol
# Density = 1.755665 g / cm^3
# Si number density = 17.596699 Si / 1000 Ang^3
#
#
#
# Elastic Constant Matrix: (Units=GPa)
#
#
# Indices 1 2 3 4 5 6 
#
# 1 95.1852 59.8891 49.4261 0.0000 0.0000 0.0000
# 2 59.8891 95.1852 49.4261 0.0000 0.0000 0.0000
# 3 49.4261 49.4261 126.1419 0.0000 0.0000 0.0000
# 4 0.0000 0.0000 0.0000 12.6746 0.0000 0.0000
# 5 0.0000 0.0000 0.0000 0.0000 12.6746 0.0000
# 6 0.0000 0.0000 0.0000 0.0000 0.0000 26.8140
#
#
#
# Elastic Compliance Matrix: (Units=1/GPa)
#
#
# Indices 1 2 3 4 5 6 
#
# 1 0.018464 -0.009868 -0.003368 0.000000 0.000000 0.000000
# 2 -0.009868 0.018464 -0.003368 0.000000 0.000000 0.000000
# 3 -0.003368 -0.003368 0.010567 0.000000 0.000000 0.000000
# 4 0.000000 0.000000 0.000000 0.078898 0.000000 0.000000
# 5 0.000000 0.000000 0.000000 0.000000 0.078898 0.000000
# 6 0.000000 0.000000 0.000000 0.000000 0.000000 0.037294
#
#
# Mechanical properties :
#
#
# Convention : Reuss Voigt Hill
#
# Bulk Modulus (GPa) = 69.99869 70.44386 70.22128
# Shear Modulus (GPa) = 17.82190 20.95071 19.38630
#
# Velocity S-wave (km/s) = 3.18590 3.45426 3.32279
# Velocity P-wave (km/s) = 7.30747 7.48522 7.39688
#
# Compressibility (1/GPa) = 0.01428598
#
# Stress axis : x y z
#
# Youngs Moduli (GPa) = 54.16061 54.16061 94.63520
#
# Poissons Ratio (x) = 0.53447 0.31873
# Poissons Ratio (y) = 0.53447 0.31873
# Poissons Ratio (z) = 0.18241 0.18241
#
# Static dielectric constant tensor:
#      x y z
#    x 1.597420 0.000000 0.000000 
#    y 0.000000 1.597420 0.000000 
#    z 0.000000 0.000000 1.586010 
# 
# From -- ./inp_files/7440.got.cif
#   From: 2010.05.17/outbox.cif.g08.bks.cpg/sg138_4_cif.got.tgz:7440.got - 2010.05.20 13:08:53.
