data_PCOD9570410
_publ_section_title
;
Structure prediction by ZEFSAII (Michael W. Deem and Ramdas Pophale) SiO2 
 PCOD9570410
Probable space group: P 42/N M C
;
_chemical_formula_sum "Si O2"
_cell_formula_units_Z 48
_cell_length_a 16.936186
_cell_length_b 16.936186
_cell_length_c 8.011539
_cell_angle_alpha 90.000000
_cell_angle_beta 90.000000
_cell_angle_gamma 90.000000
_cell_volume 2297.984952
_symmetry_space_group_name_H-M "P 42/N M C"
_symmetry_group_IT_number 137
_space_group.IT_coordinate_system_code '2'
_symmetry_cell_setting 'tetragonal'
loop_
_space_group_symop_operation_xyz
x,y,z
1/2-y,x,1/2+z
1/2-x,1/2-y,z
y,1/2-x,1/2+z
1/2+x,-y,-z
-x,1/2+y,-z
1/2+y,1/2+x,1/2-z
-y,-x,1/2-z
-x,-y,-z
1/2+y,-x,1/2-z
1/2+x,1/2+y,-z
-y,1/2+x,1/2-z
1/2-x,y,z
x,1/2-y,z
1/2-y,1/2-x,1/2+z
y,x,1/2+z
loop_
_atom_site_type_symbol
_atom_site_label
_atom_site_fract_x
_atom_site_fract_y
_atom_site_fract_z
Si Si1 0.492481 0.333745 0.531476
Si Si2 0.342885 0.884489 0.558681
Si Si3 0.592783 0.977240 0.643434
O O1 0.471956 0.250000 0.454434
O O2 0.588257 0.338498 0.541528
O O3 0.457349 0.405092 0.425331
O O4 0.457967 0.343017 0.716633
O O5 0.362381 0.862381 0.750000
O O6 0.250000 0.869045 0.525999
O O7 0.365594 0.973799 0.505031
O O8 0.532556 0.032556 0.750000
#
# Coordination Sequence:
#
# PCOD9570410 Si02
#       3
#    16  16  16
#     4  11  22  38  63  88 115 154 196 245 296 344
#     4  11  22  36  58  88 122 156 192 237 288 346
#     4  10  21  40  60  85 116 157 203 238 280 352
#
# _framework density 20.887865999999999
#
# number of rings (size 3 to 8) (size 9 to 14) (size 15 to 20)
#    0.000    1.333    0.000    9.000    0.000    2.333 
#    0.000    3.333    0.000   18.000    0.000    0.000 
#    0.000    0.000    0.000    0.000    0.000    0.000 
#
# Total GULP energy -267693.407721 kJ/mol
# GULP energy per Si atom -5576.945994 kJ/mol
# Density = 2.084032 g / cm^3
# Si number density = 20.887866 Si / 1000 Ang^3
#
#
#
# Elastic Constant Matrix: (Units=GPa)
#
#
# Indices 1 2 3 4 5 6 
#
# 1 117.3782 53.2359 39.6178 0.0000 0.0000 0.0000
# 2 53.2359 117.3782 39.6178 0.0000 0.0000 0.0000
# 3 39.6178 39.6178 76.7704 0.0000 0.0000 0.0000
# 4 0.0000 0.0000 0.0000 9.1089 0.0000 0.0000
# 5 0.0000 0.0000 0.0000 0.0000 9.1089 0.0000
# 6 0.0000 0.0000 0.0000 0.0000 0.0000 10.4888
#
#
#
# Elastic Compliance Matrix: (Units=1/GPa)
#
#
# Indices 1 2 3 4 5 6 
#
# 1 0.011649 -0.003941 -0.003978 0.000000 0.000000 0.000000
# 2 -0.003941 0.011649 -0.003978 0.000000 0.000000 0.000000
# 3 -0.003978 -0.003978 0.017132 0.000000 0.000000 0.000000
# 4 0.000000 0.000000 0.000000 0.109782 0.000000 0.000000
# 5 0.000000 0.000000 0.000000 0.000000 0.109782 0.000000
# 6 0.000000 0.000000 0.000000 0.000000 0.000000 0.095340
#
#
# Mechanical properties :
#
#
# Convention : Reuss Voigt Hill
#
# Bulk Modulus (GPa) = 60.10833 64.05218 62.08026
# Shear Modulus (GPa) = 12.99800 17.67836 15.33818
#
# Velocity S-wave (km/s) = 2.49725 2.91236 2.71276
# Velocity P-wave (km/s) = 6.09542 6.48386 6.29264
#
# Compressibility (1/GPa) = 0.01663663
#
# Stress axis : x y z
#
# Youngs Moduli (GPa) = 85.84060 85.84060 58.37142
#
# Poissons Ratio (x) = 0.33828 0.23221
# Poissons Ratio (y) = 0.33828 0.23221
# Poissons Ratio (z) = 0.34148 0.34148
#
# Static dielectric constant tensor:
#      x y z
#    x 1.784230 0.000000 0.000000 
#    y 0.000000 1.784230 0.000000 
#    z 0.000000 0.000000 1.821380 
# 
# From -- ./inp_files/1281.got.cif
#   From: 2010.05.17/outbox.cif.g08.bks.cpg/sg137_1_cif.got.tgz:1281.got - 2010.05.20 13:01:12.
