data_PCOD9570982
_publ_section_title
;
Structure prediction by ZEFSAII (Michael W. Deem and Ramdas Pophale) SiO2 
 PCOD9570982
Probable space group: P 42/N C M
;
_chemical_formula_sum "Si O2"
_cell_formula_units_Z 48
_cell_length_a 12.786080
_cell_length_b 12.786080
_cell_length_c 11.308298
_cell_angle_alpha 90.000000
_cell_angle_beta 90.000000
_cell_angle_gamma 90.000000
_cell_volume 1848.724001
_symmetry_space_group_name_H-M "P 42/N C M"
_symmetry_group_IT_number 138
_space_group.IT_coordinate_system_code '2'
_symmetry_cell_setting 'tetragonal'
loop_
_space_group_symop_operation_xyz
x,y,z
1/2-y,x,1/2+z
1/2-x,1/2-y,z
y,1/2-x,1/2+z
1/2+x,-y,1/2-z
-x,1/2+y,1/2-z
1/2+y,1/2+x,-z
-y,-x,-z
-x,-y,-z
1/2+y,-x,1/2-z
1/2+x,1/2+y,-z
-y,1/2+x,1/2-z
1/2-x,y,1/2+z
x,1/2-y,1/2+z
1/2-y,1/2-x,z
y,x,z
loop_
_atom_site_type_symbol
_atom_site_label
_atom_site_fract_x
_atom_site_fract_y
_atom_site_fract_z
Si Si1 0.028441 0.028441 0.294256
Si Si2 0.597071 0.210341 0.765214
Si Si3 0.000299 0.325707 0.484230
Si Si4 0.388318 0.388318 0.549728
O O1 0.120635 0.978187 0.217943
O O2 0.944662 0.944662 0.339559
O O3 0.070399 0.070399 0.421112
O O4 0.646259 0.301695 0.685990
O O5 0.531987 0.264725 0.865466
O O6 0.888169 0.388169 0.500000
O O7 0.084382 0.415619 0.463403
O O8 0.067401 0.231725 0.552147
#
# Coordination Sequence:
#
# PCOD9570982 Si02
#       4
#     8  16  16   8
#     4   9  20  40  60  88 123 159 216 264 312 398
#     4  10  23  39  61  92 126 170 208 254 327 387
#     4  10  22  40  65  96 130 167 224 275 318 385
#     4   9  19  38  66  90 121 170 211 276 333 361
#
# _framework density 25.963856
#
# number of rings (size 3 to 8) (size 9 to 14) (size 15 to 20)
#    0.000    2.333    0.000    0.500   11.667    0.000 
#    0.000    0.000    3.667    0.000    0.000    0.000 
#    0.000    0.000    0.000    0.000    0.000    0.000 
#
# Total GULP energy -267260.830247 kJ/mol
# GULP energy per Si atom -5567.933963 kJ/mol
# Density = 2.590476 g / cm^3
# Si number density = 25.963856 Si / 1000 Ang^3
#
#
#
# Elastic Constant Matrix: (Units=GPa)
#
#
# Indices 1 2 3 4 5 6 
#
# 1 154.4462 61.3659 10.5926 0.0000 0.0000 0.0000
# 2 61.3659 154.4462 10.5926 0.0000 0.0000 0.0000
# 3 10.5926 10.5926 24.9089 0.0000 0.0000 0.0000
# 4 0.0000 0.0000 0.0000 38.3345 0.0000 0.0000
# 5 0.0000 0.0000 0.0000 0.0000 38.3345 0.0000
# 6 0.0000 0.0000 0.0000 0.0000 0.0000 66.6948
#
#
#
# Elastic Compliance Matrix: (Units=1/GPa)
#
#
# Indices 1 2 3 4 5 6 
#
# 1 0.007789 -0.002954 -0.002056 0.000000 0.000000 0.000000
# 2 -0.002954 0.007789 -0.002056 0.000000 0.000000 0.000000
# 3 -0.002056 -0.002056 0.041895 0.000000 0.000000 0.000000
# 4 0.000000 0.000000 0.000000 0.026086 0.000000 0.000000
# 5 0.000000 0.000000 0.000000 0.000000 0.026086 0.000000
# 6 0.000000 0.000000 0.000000 0.000000 0.000000 0.014994
#
#
# Mechanical properties :
#
#
# Convention : Reuss Voigt Hill
#
# Bulk Modulus (GPa) = 23.07288 55.43374 39.25331
# Shear Modulus (GPa) = 32.63276 45.42279 39.02777
#
# Velocity S-wave (km/s) = 3.54906 4.18719 3.88126
# Velocity P-wave (km/s) = 5.06954 6.69130 5.93607
#
# Compressibility (1/GPa) = 0.04334093
#
# Stress axis : x y z
#
# Youngs Moduli (GPa) = 128.37857 128.37857 23.86909
#
# Poissons Ratio (x) = 0.37922 0.04908
# Poissons Ratio (y) = 0.37922 0.04908
# Poissons Ratio (z) = 0.26399 0.26399
#
# Static dielectric constant tensor:
#      x y z
#    x 2.087460 0.000000 0.000000 
#    y 0.000000 2.087460 0.000000 
#    z 0.000000 0.000000 2.153950 
# 
# From -- ./inp_files/4785.got.cif
#   From: 2010.05.17/outbox.cif.g08.bks.cpg/sg138_3_cif.got.tgz:4785.got - 2010.05.20 13:08:53.
