data_PCOD9570109
_publ_section_title
;
Structure prediction by ZEFSAII (Michael W. Deem and Ramdas Pophale) SiO2 
 PCOD9570109
Probable space group: P 42/N M C
;
_chemical_formula_sum "Si O2"
_cell_formula_units_Z 112
_cell_length_a 14.431490
_cell_length_b 14.431490
_cell_length_c 25.628291
_cell_angle_alpha 90.000000
_cell_angle_beta 90.000000
_cell_angle_gamma 90.000000
_cell_volume 5337.550440
_symmetry_space_group_name_H-M "P 42/N M C"
_symmetry_group_IT_number 137
_space_group.IT_coordinate_system_code '2'
_symmetry_cell_setting 'tetragonal'
loop_
_space_group_symop_operation_xyz
x,y,z
1/2-y,x,1/2+z
1/2-x,1/2-y,z
y,1/2-x,1/2+z
1/2+x,-y,-z
-x,1/2+y,-z
1/2+y,1/2+x,1/2-z
-y,-x,1/2-z
-x,-y,-z
1/2+y,-x,1/2-z
1/2+x,1/2+y,-z
-y,1/2+x,1/2-z
1/2-x,y,z
x,1/2-y,z
1/2-y,1/2-x,1/2+z
y,x,1/2+z
loop_
_atom_site_type_symbol
_atom_site_label
_atom_site_fract_x
_atom_site_fract_y
_atom_site_fract_z
Si Si1 0.142483 0.394536 0.345587
Si Si2 0.893041 0.146884 0.868694
Si Si3 0.354593 0.137028 0.554246
Si Si4 0.639182 0.537769 0.046138
Si Si5 0.142061 0.486865 0.746568
Si Si6 0.137090 0.854278 0.008783
Si Si7 0.646097 0.947666 0.838753
O O1 0.250000 0.359345 0.345755
O O2 0.149885 0.505030 0.344619
O O3 0.086202 0.376830 0.398878
O O4 0.077551 0.361618 0.298429
O O5 0.852342 0.250000 0.862447
O O6 0.895308 0.129411 0.931455
O O7 0.848895 0.058548 0.841180
O O8 0.250000 0.105841 0.561709
O O9 0.354095 0.250000 0.551952
O O10 0.396365 0.103159 0.500022
O O11 0.415966 0.113599 0.603973
O O12 0.750000 0.533242 0.040950
O O13 0.606736 0.434003 0.031556
O O14 0.250000 0.506345 0.735024
O O15 0.093579 0.424202 0.702529
O O16 0.079712 0.579712 0.750000
O O17 0.250000 0.856565 0.011770
O O18 0.109762 0.750000 0.993552
O O19 0.750000 0.910611 0.829225
#
# Coordination Sequence:
#
# PCOD9570109 Si02
#       7
#    16  16  16  16  16  16  16
#     4  11  24  42  65  94 130 172 220 275 339 403
#     4  10  20  36  60  94 135 175 215 266 330 401
#     4   9  17  30  52  88 129 165 208 266 329 390
#     4  10  19  33  57  88 123 168 220 276 329 391
#     4  12  27  49  73  97 127 168 219 279 339 400
#     4   9  17  32  55  86 129 180 224 262 318 393
#     4  11  21  39  68 100 133 171 217 271 333 402
#
# _framework density 20.983409000000002
#
# number of rings (size 3 to 8) (size 9 to 14) (size 15 to 20)
#    0.000    1.714    2.857    2.143    0.000    4.714 
#    0.000    0.714    0.000    1.714    0.000    0.000 
#    0.000    0.000    0.000    0.000    0.000    0.143 
#
# Total GULP energy -625330.112811 kJ/mol
# GULP energy per Si atom -5583.304579 kJ/mol
# Density = 2.093565 g / cm^3
# Si number density = 20.983409 Si / 1000 Ang^3
#
#
#
# Elastic Constant Matrix: (Units=GPa)
#
#
# Indices 1 2 3 4 5 6 
#
# 1 137.8443 36.6108 47.4014 0.0000 0.0000 0.0000
# 2 36.6108 137.8443 47.4014 0.0000 0.0000 0.0000
# 3 47.4014 47.4014 102.0788 0.0000 0.0000 0.0000
# 4 0.0000 0.0000 0.0000 39.3355 0.0000 0.0000
# 5 0.0000 0.0000 0.0000 0.0000 39.3355 0.0000
# 6 0.0000 0.0000 0.0000 0.0000 0.0000 11.1898
#
#
#
# Elastic Compliance Matrix: (Units=1/GPa)
#
#
# Indices 1 2 3 4 5 6 
#
# 1 0.008772 -0.001106 -0.003560 0.000000 0.000000 0.000000
# 2 -0.001106 0.008772 -0.003560 0.000000 0.000000 0.000000
# 3 -0.003560 -0.003560 0.013103 0.000000 0.000000 0.000000
# 4 0.000000 0.000000 0.000000 0.025422 0.000000 0.000000
# 5 0.000000 0.000000 0.000000 0.000000 0.025422 0.000000
# 6 0.000000 0.000000 0.000000 0.000000 0.000000 0.089367
#
#
# Mechanical properties :
#
#
# Convention : Reuss Voigt Hill
#
# Bulk Modulus (GPa) = 70.44384 71.17720 70.81052
# Shear Modulus (GPa) = 26.03578 34.39573 30.21576
#
# Velocity S-wave (km/s) = 3.52629 4.05308 3.79883
# Velocity P-wave (km/s) = 7.08687 7.47647 7.28428
#
# Compressibility (1/GPa) = 0.01419571
#
# Stress axis : x y z
#
# Youngs Moduli (GPa) = 113.99282 113.99282 76.31984
#
# Poissons Ratio (x) = 0.12604 0.27171
# Poissons Ratio (y) = 0.12604 0.27171
# Poissons Ratio (z) = 0.40583 0.40583
#
# Static dielectric constant tensor:
#      x y z
#    x 1.837220 0.000000 0.000000 
#    y 0.000000 1.837220 0.000000 
#    z 0.000000 0.000000 1.725190 
# 
# From -- ./inp_files/8942.got.cif
#   From: 2010.05.17/outbox.cif.g08.bks.cpg/sg137_5_cif.got.tgz:8942.got - 2010.05.20 13:01:12.
