data_PCOD9570782
_publ_section_title
;
Structure prediction by ZEFSAII (Michael W. Deem and Ramdas Pophale) SiO2 
 PCOD9570782
Probable space group: P 42/N C M
;
_chemical_formula_sum "Si O2"
_cell_formula_units_Z 80
_cell_length_a 10.877179
_cell_length_b 10.877179
_cell_length_c 34.064449
_cell_angle_alpha 90.000000
_cell_angle_beta 90.000000
_cell_angle_gamma 90.000000
_cell_volume 4030.267938
_symmetry_space_group_name_H-M "P 42/N C M"
_symmetry_group_IT_number 138
_space_group.IT_coordinate_system_code '2'
_symmetry_cell_setting 'tetragonal'
loop_
_space_group_symop_operation_xyz
x,y,z
1/2-y,x,1/2+z
1/2-x,1/2-y,z
y,1/2-x,1/2+z
1/2+x,-y,1/2-z
-x,1/2+y,1/2-z
1/2+y,1/2+x,-z
-y,-x,-z
-x,-y,-z
1/2+y,-x,1/2-z
1/2+x,1/2+y,-z
-y,1/2+x,1/2-z
1/2-x,y,1/2+z
x,1/2-y,1/2+z
1/2-y,1/2-x,z
y,x,z
loop_
_atom_site_type_symbol
_atom_site_label
_atom_site_fract_x
_atom_site_fract_y
_atom_site_fract_z
Si Si1 0.457316 0.255267 0.999990
Si Si2 0.008965 0.201495 0.794280
Si Si3 0.701467 0.508946 0.794272
Si Si4 0.645187 0.145175 0.849760
Si Si5 0.396405 0.603632 0.441103
O O1 0.347266 0.152735 0.999990
O O2 0.385790 0.385790 0.999987
O O3 0.545955 0.222445 0.036898
O O4 0.545977 0.222423 0.963090
O O5 0.133420 0.133420 0.805399
O O6 0.900869 0.099154 0.793828
O O7 0.017971 0.250032 0.750006
O O8 0.969811 0.303273 0.825435
O O9 0.633396 0.633396 0.805401
O O10 0.803273 0.469793 0.825418
O O11 0.750000 0.250000 0.847664
O O12 0.622253 0.122194 0.895216
O O13 0.500017 0.500017 0.446482
#
# Coordination Sequence:
#
# PCOD9570782 Si02
#       5
#    16  16  16  16  16
#     4   8  15  31  54  76 102 138 178 224 278 332
#     4  10  20  35  56  77 101 141 188 229 276 337
#     4  10  20  35  56  77 101 141 188 229 276 337
#     4  10  21  35  53  76 114 148 176 224 284 337
#     4   9  18  32  52  78 102 134 182 224 268 334
#
# _framework density 19.849798
#
# number of rings (size 3 to 8) (size 9 to 14) (size 15 to 20)
#    0.000    2.600    2.000    1.200    0.000    3.600 
#    0.000    2.000    0.000    1.200    0.000    0.000 
#    0.000    0.000    0.000    0.000    0.000    0.000 
#
# Total GULP energy -446281.919300 kJ/mol
# GULP energy per Si atom -5578.523991 kJ/mol
# Density = 1.980462 g / cm^3
# Si number density = 19.849798 Si / 1000 Ang^3
#
#
#
# Elastic Constant Matrix: (Units=GPa)
#
#
# Indices 1 2 3 4 5 6 
#
# 1 81.6110 72.5027 68.3390 0.0000 0.0000 0.0000
# 2 72.5027 81.6110 68.3390 0.0000 0.0000 0.0000
# 3 68.3390 68.3390 193.6891 0.0000 0.0000 0.0000
# 4 0.0000 0.0000 0.0000 28.5054 0.0000 0.0000
# 5 0.0000 0.0000 0.0000 0.0000 28.5054 0.0000
# 6 0.0000 0.0000 0.0000 0.0000 0.0000 30.3528
#
#
#
# Elastic Compliance Matrix: (Units=1/GPa)
#
#
# Indices 1 2 3 4 5 6 
#
# 1 0.059617 -0.050173 -0.003332 0.000000 0.000000 0.000000
# 2 -0.050173 0.059617 -0.003332 0.000000 0.000000 0.000000
# 3 -0.003332 -0.003332 0.007514 0.000000 0.000000 0.000000
# 4 0.000000 0.000000 0.000000 0.035081 0.000000 0.000000
# 5 0.000000 0.000000 0.000000 0.000000 0.035081 0.000000
# 6 0.000000 0.000000 0.000000 0.000000 0.000000 0.032946
#
#
# Mechanical properties :
#
#
# Convention : Reuss Voigt Hill
#
# Bulk Modulus (GPa) = 76.48995 86.14138 81.31567
# Shear Modulus (GPa) = 14.37243 27.32141 20.84692
#
# Velocity S-wave (km/s) = 2.69375 3.71402 3.24425
# Velocity P-wave (km/s) = 6.94932 7.86656 7.42212
#
# Compressibility (1/GPa) = 0.01307361
#
# Stress axis : x y z
#
# Youngs Moduli (GPa) = 16.77377 16.77377 133.08163
#
# Poissons Ratio (x) = 0.84159 0.44343
# Poissons Ratio (y) = 0.84159 0.44343
# Poissons Ratio (z) = 0.05589 0.05589
#
# Static dielectric constant tensor:
#      x y z
#    x 1.722380 0.000000 0.000000 
#    y 0.000000 1.722380 0.000000 
#    z 0.000000 0.000000 1.650880 
# 
# From -- ./inp_files/7919.got.cif
#   From: 2010.05.17/outbox.cif.g08.bks.cpg/sg138_4_cif.got.tgz:7919.got - 2010.05.20 13:08:53.
