data_PCOD9570239
_publ_section_title
;
Structure prediction by ZEFSAII (Michael W. Deem and Ramdas Pophale) SiO2 
 PCOD9570239
Probable space group: P 42/N M C
;
_chemical_formula_sum "Si O2"
_cell_formula_units_Z 112
_cell_length_a 14.961176
_cell_length_b 14.961176
_cell_length_c 26.536318
_cell_angle_alpha 90.000000
_cell_angle_beta 90.000000
_cell_angle_gamma 90.000000
_cell_volume 5939.804168
_symmetry_space_group_name_H-M "P 42/N M C"
_symmetry_group_IT_number 137
_space_group.IT_coordinate_system_code '2'
_symmetry_cell_setting 'tetragonal'
loop_
_space_group_symop_operation_xyz
x,y,z
1/2-y,x,1/2+z
1/2-x,1/2-y,z
y,1/2-x,1/2+z
1/2+x,-y,-z
-x,1/2+y,-z
1/2+y,1/2+x,1/2-z
-y,-x,1/2-z
-x,-y,-z
1/2+y,-x,1/2-z
1/2+x,1/2+y,-z
-y,1/2+x,1/2-z
1/2-x,y,z
x,1/2-y,z
1/2-y,1/2-x,1/2+z
y,x,1/2+z
loop_
_atom_site_type_symbol
_atom_site_label
_atom_site_fract_x
_atom_site_fract_y
_atom_site_fract_z
Si Si1 0.151360 0.885072 0.308114
Si Si2 0.003929 0.144116 0.973972
Si Si3 0.986663 0.149352 0.312269
Si Si4 0.503225 0.856324 0.482458
Si Si5 0.854138 0.991776 0.305684
Si Si6 0.469680 0.346911 0.636806
Si Si7 0.348417 0.066353 0.360289
O O1 0.139154 0.860846 0.250000
O O2 0.250000 0.855552 0.325232
O O3 0.068597 0.849174 0.339558
O O4 0.148493 0.991566 0.316652
O O5 0.003166 0.250000 0.988924
O O6 0.013829 0.143238 0.913122
O O7 0.916209 0.086960 0.990766
O O8 0.089782 0.086344 0.992713
O O9 0.956299 0.250000 0.318062
O O10 0.021153 0.137849 0.254688
O O11 0.067383 0.128295 0.350123
O O12 0.904053 0.083536 0.318539
O O13 0.496718 0.750000 0.496208
O O14 0.521138 0.860694 0.422601
O O15 0.750000 0.992209 0.318567
O O16 0.909225 0.918763 0.335906
O O17 0.429213 0.250000 0.646082
O O18 0.250000 0.109837 0.359744
#
# Coordination Sequence:
#
# PCOD9570239 Si02
#       7
#    16  16  16  16  16  16  16
#     4  11  21  34  54  86 126 161 191 224 270 337
#     4  10  21  40  63  86 116 154 195 243 296 351
#     4  10  20  35  56  80 108 145 191 242 294 347
#     4  10  22  39  61  89 117 150 196 246 294 349
#     4  10  21  37  55  76 108 148 192 242 293 345
#     4  11  22  37  58  84 117 156 192 230 283 347
#     4  10  20  36  59  85 117 156 191 228 283 350
#
# _framework density 18.855840000000001
#
# number of rings (size 3 to 8) (size 9 to 14) (size 15 to 20)
#    0.000    1.714    2.857    1.286    0.000    5.286 
#    0.000    7.143    0.000    0.000    0.000    4.000 
#    0.000    0.000    0.000    0.000    0.000    0.000 
#
# Total GULP energy -624693.791765 kJ/mol
# GULP energy per Si atom -5577.623141 kJ/mol
# Density = 1.881292 g / cm^3
# Si number density = 18.855840 Si / 1000 Ang^3
#
#
#
# Elastic Constant Matrix: (Units=GPa)
#
#
# Indices 1 2 3 4 5 6 
#
# 1 135.4781 73.7732 33.6891 0.0000 0.0000 0.0000
# 2 73.7732 135.4781 33.6891 0.0000 0.0000 0.0000
# 3 33.6891 33.6891 28.5734 0.0000 0.0000 0.0000
# 4 0.0000 0.0000 0.0000 1.4060 0.0000 0.0000
# 5 0.0000 0.0000 0.0000 0.0000 1.4060 0.0000
# 6 0.0000 0.0000 0.0000 0.0000 0.0000 -19.8590
#
#
#
# Elastic Compliance Matrix: (Units=1/GPa)
#
#
# Indices 1 2 3 4 5 6 
#
# 1 0.011955 -0.004251 -0.009083 0.000000 0.000000 0.000000
# 2 -0.004251 0.011955 -0.009083 0.000000 0.000000 0.000000
# 3 -0.009083 -0.009083 0.056415 0.000000 0.000000 0.000000
# 4 0.000000 0.000000 0.000000 0.711248 0.000000 0.000000
# 5 0.000000 0.000000 0.000000 0.000000 0.711248 0.000000
# 6 0.000000 0.000000 0.000000 0.000000 0.000000 -0.050355
#
#
# Mechanical properties :
#
#
# Convention : Reuss Voigt Hill
#
# Bulk Modulus (GPa) = 28.17584 64.64805 46.41194
# Shear Modulus (GPa) = 3.31317 7.14914 5.23115
#
# Velocity S-wave (km/s) = 1.32700 1.94928 1.66743
# Velocity P-wave (km/s) = 4.16210 6.27902 5.32678
#
# Compressibility (1/GPa) = 0.03549140
#
# Stress axis : x y z
#
# Youngs Moduli (GPa) = 83.64791 83.64791 17.72567
#
# Poissons Ratio (x) = 0.35561 0.16100
# Poissons Ratio (y) = 0.35561 0.16100
# Poissons Ratio (z) = 0.75975 0.75975
#
# Static dielectric constant tensor:
#      x y z
#    x 1.667190 0.000000 0.000000 
#    y 0.000000 1.667190 0.000000 
#    z 0.000000 0.000000 1.646300 
# 
# From -- ./inp_files/10699.got.cif
#   From: 2010.05.17/outbox.cif.g08.bks.cpg/sg137_6_cif.got.tgz:10699.got - 2010.05.20 13:01:12.
