data_PCOD9570165
_publ_section_title
;
Structure prediction by ZEFSAII (Michael W. Deem and Ramdas Pophale) SiO2 
 PCOD9570165
Probable space group: P 42/N M C
;
_chemical_formula_sum "Si O2"
_cell_formula_units_Z 112
_cell_length_a 14.757894
_cell_length_b 14.757894
_cell_length_c 25.074232
_cell_angle_alpha 90.000000
_cell_angle_beta 90.000000
_cell_angle_gamma 90.000000
_cell_volume 5461.053274
_symmetry_space_group_name_H-M "P 42/N M C"
_symmetry_group_IT_number 137
_space_group.IT_coordinate_system_code '2'
_symmetry_cell_setting 'tetragonal'
loop_
_space_group_symop_operation_xyz
x,y,z
1/2-y,x,1/2+z
1/2-x,1/2-y,z
y,1/2-x,1/2+z
1/2+x,-y,-z
-x,1/2+y,-z
1/2+y,1/2+x,1/2-z
-y,-x,1/2-z
-x,-y,-z
1/2+y,-x,1/2-z
1/2+x,1/2+y,-z
-y,1/2+x,1/2-z
1/2-x,y,z
x,1/2-y,z
1/2-y,1/2-x,1/2+z
y,x,1/2+z
loop_
_atom_site_type_symbol
_atom_site_label
_atom_site_fract_x
_atom_site_fract_y
_atom_site_fract_z
Si Si1 0.352536 0.591645 0.305333
Si Si2 0.147111 0.853448 0.419874
Si Si3 0.018233 0.358590 0.107504
Si Si4 0.352901 0.382331 0.324499
Si Si5 0.143748 0.149444 0.699756
Si Si6 0.462637 0.141686 0.528487
Si Si7 0.009115 0.648992 0.591817
O O1 0.405226 0.594775 0.250000
O O2 0.250000 0.618500 0.290678
O O3 0.378972 0.647740 0.357254
O O4 0.352343 0.490401 0.327076
O O5 0.250000 0.892702 0.424502
O O6 0.153830 0.750000 0.438782
O O7 0.061675 0.893004 0.451221
O O8 0.003428 0.250000 0.108734
O O9 0.071977 0.391452 0.160802
O O10 0.084475 0.387224 0.059212
O O11 0.925982 0.414963 0.102703
O O12 0.250000 0.351090 0.336754
O O13 0.371174 0.360811 0.262421
O O14 0.431296 0.350734 0.363412
O O15 0.250000 0.156407 0.686006
O O16 0.101904 0.250000 0.691910
O O17 0.454272 0.250000 0.540644
O O18 0.462393 0.130549 0.465142
O O19 0.049695 0.750000 0.588665
#
# Coordination Sequence:
#
# PCOD9570165 Si02
#       7
#    16  16  16  16  16  16  16
#     4  10  20  31  49  83 122 159 195 234 291 371
#     4   9  18  33  54  82 121 165 200 239 301 376
#     4  11  24  41  63  91 124 163 207 262 322 378
#     4  10  22  38  60  89 119 156 201 255 320 381
#     4   9  19  37  61  89 117 147 190 246 312 380
#     4  10  22  40  64  93 124 160 208 263 319 382
#     4  11  25  43  63  90 123 166 218 266 312 370
#
# _framework density 20.508865
#
# number of rings (size 3 to 8) (size 9 to 14) (size 15 to 20)
#    0.000    2.000    0.000    2.571    4.000    3.857 
#    0.000    4.286    0.000    0.000    0.000    2.000 
#    0.000    0.000    0.000    0.000    0.000    0.000 
#
# Total GULP energy -625109.203279 kJ/mol
# GULP energy per Si atom -5581.332172 kJ/mol
# Density = 2.046219 g / cm^3
# Si number density = 20.508865 Si / 1000 Ang^3
#
#
#
# Elastic Constant Matrix: (Units=GPa)
#
#
# Indices 1 2 3 4 5 6 
#
# 1 104.2484 31.7926 45.7883 0.0000 0.0000 0.0000
# 2 31.7926 104.2480 45.7892 0.0000 0.0000 0.0000
# 3 45.7883 45.7892 95.3338 0.0000 0.0000 0.0000
# 4 0.0000 0.0000 0.0000 21.9655 0.0000 0.0000
# 5 0.0000 0.0000 0.0000 0.0000 21.9655 0.0000
# 6 0.0000 0.0000 0.0000 0.0000 0.0000 -4.5829
#
#
#
# Elastic Compliance Matrix: (Units=1/GPa)
#
#
# Indices 1 2 3 4 5 6 
#
# 1 0.012332 -0.001469 -0.005217 0.000000 0.000000 0.000000
# 2 -0.001469 0.012332 -0.005218 0.000000 0.000000 0.000000
# 3 -0.005217 -0.005218 0.015501 0.000000 0.000000 0.000000
# 4 0.000000 0.000000 0.000000 0.045526 0.000000 0.000000
# 5 0.000000 0.000000 0.000000 0.000000 0.045526 0.000000
# 6 0.000000 0.000000 0.000000 0.000000 0.000000 -0.218201
#
#
# Mechanical properties :
#
#
# Convention : Reuss Voigt Hill
#
# Bulk Modulus (GPa) = 61.13453 61.17450 61.15452
# Shear Modulus (GPa) = -86.62237 19.90027 -33.36105
#
# Velocity S-wave (km/s) = -6.50602 3.11838 -4.03757
# Velocity P-wave (km/s) = 5.15404 6.54667 2.85436
#
# Compressibility (1/GPa) = 0.01635737
#
# Stress axis : x y z
#
# Youngs Moduli (GPa) = 81.08891 81.08756 64.51058
#
# Poissons Ratio (x) = 0.11914 0.33657
# Poissons Ratio (y) = 0.11915 0.33659
# Poissons Ratio (z) = 0.42307 0.42308
#
# Static dielectric constant tensor:
#      x y z
#    x 1.753340 0.000000 0.000000 
#    y 0.000000 1.753340 0.000000 
#    z 0.000000 0.000000 1.724920 
# 
# From -- ./inp_files/8974.got.cif
#   From: 2010.05.17/outbox.cif.g08.bks.cpg/sg137_5_cif.got.tgz:8974.got - 2010.05.20 13:01:12.
