data_PCOD9570575
_publ_section_title
;
Structure prediction by ZEFSAII (Michael W. Deem and Ramdas Pophale) SiO2 
 PCOD9570575
Probable space group: P 42/N C M
;
_chemical_formula_sum "Si O2"
_cell_formula_units_Z 44
_cell_length_a 12.478797
_cell_length_b 12.478797
_cell_length_c 11.778783
_cell_angle_alpha 90.000000
_cell_angle_beta 90.000000
_cell_angle_gamma 90.000000
_cell_volume 1834.196501
_symmetry_space_group_name_H-M "P 42/N C M"
_symmetry_group_IT_number 138
_space_group.IT_coordinate_system_code '2'
_symmetry_cell_setting 'tetragonal'
loop_
_space_group_symop_operation_xyz
x,y,z
1/2-y,x,1/2+z
1/2-x,1/2-y,z
y,1/2-x,1/2+z
1/2+x,-y,1/2-z
-x,1/2+y,1/2-z
1/2+y,1/2+x,-z
-y,-x,-z
-x,-y,-z
1/2+y,-x,1/2-z
1/2+x,1/2+y,-z
-y,1/2+x,1/2-z
1/2-x,y,1/2+z
x,1/2-y,1/2+z
1/2-y,1/2-x,z
y,x,z
loop_
_atom_site_type_symbol
_atom_site_label
_atom_site_fract_x
_atom_site_fract_y
_atom_site_fract_z
Si Si1 0.486204 0.739037 0.166613
Si Si2 0.508107 0.508107 0.839906
Si Si3 0.750000 0.250000 0.750000
Si Si4 0.930101 0.569900 0.078604
Si Si5 0.165738 0.334263 0.661191
O O1 0.472439 0.615553 0.142858
O O2 0.363685 0.777799 0.189056
O O3 0.538182 0.807380 0.065449
O O4 0.577542 0.763422 0.264196
O O5 0.535031 0.535031 0.707101
O O6 0.587080 0.587080 0.906837
O O7 0.000000 0.500000 0.000000
O O8 0.250000 0.250000 0.612459
#
# Coordination Sequence:
#
# PCOD9570575 Si02
#       5
#    16   8   4   8   8
#     4  10  19  31  58  86 122 162 213 257 308 385
#     4  10  18  33  58  90 118 164 218 248 310 395
#     4  12  16  32  54  92 112 156 218 264 288 380
#     4  10  22  37  56  93 128 158 203 270 337 367
#     4  10  18  28  51  91 122 148 197 271 307 349
#
# _framework density 23.988705
#
# number of rings (size 3 to 8) (size 9 to 14) (size 15 to 20)
#    0.000    2.182    9.091    0.000    0.000    0.000 
#    0.000    0.909    0.000    8.727    0.000   12.727 
#    0.000    0.000    0.000    0.000    0.000    0.000 
#
# Total GULP energy -245006.729516 kJ/mol
# GULP energy per Si atom -5568.334762 kJ/mol
# Density = 2.393411 g / cm^3
# Si number density = 23.988705 Si / 1000 Ang^3
#
#
#
# Elastic Constant Matrix: (Units=GPa)
#
#
# Indices 1 2 3 4 5 6 
#
# 1 203.3400 73.4961 8.0195 0.0000 0.0000 0.0000
# 2 73.4961 203.3400 8.0195 0.0000 0.0000 0.0000
# 3 8.0195 8.0195 37.1087 0.0000 0.0000 0.0000
# 4 0.0000 0.0000 0.0000 2.8072 0.0000 0.0000
# 5 0.0000 0.0000 0.0000 0.0000 2.8072 0.0000
# 6 0.0000 0.0000 0.0000 0.0000 0.0000 68.8311
#
#
#
# Elastic Compliance Matrix: (Units=1/GPa)
#
#
# Indices 1 2 3 4 5 6 
#
# 1 0.005680 -0.002022 -0.000791 0.000000 0.000000 0.000000
# 2 -0.002022 0.005680 -0.000791 0.000000 0.000000 0.000000
# 3 -0.000791 -0.000791 0.027290 0.000000 0.000000 0.000000
# 4 0.000000 0.000000 0.000000 0.356222 0.000000 0.000000
# 5 0.000000 0.000000 0.000000 0.000000 0.356222 0.000000
# 6 0.000000 0.000000 0.000000 0.000000 0.000000 0.014528
#
#
# Mechanical properties :
#
#
# Convention : Reuss Voigt Hill
#
# Bulk Modulus (GPa) = 31.80308 69.20653 50.50480
# Shear Modulus (GPa) = 6.38318 38.50603 22.44461
#
# Velocity S-wave (km/s) = 1.63300 4.01081 3.06213
# Velocity P-wave (km/s) = 4.10389 7.09655 5.79668
#
# Compressibility (1/GPa) = 0.03144350
#
# Stress axis : x y z
#
# Youngs Moduli (GPa) = 176.06249 176.06249 36.64408
#
# Poissons Ratio (x) = 0.35596 0.02897
# Poissons Ratio (y) = 0.35596 0.02897
# Poissons Ratio (z) = 0.13918 0.13918
#
# Static dielectric constant tensor:
#      x y z
#    x 1.949510 0.000000 0.000000 
#    y 0.000000 1.949510 0.000000 
#    z 0.000000 0.000000 2.000260 
# 
# From -- ./inp_files/4690.got.cif
#   From: 2010.05.17/outbox.cif.g08.bks.cpg/sg138_3_cif.got.tgz:4690.got - 2010.05.20 13:08:53.
