data_PCOD9570470
_publ_section_title
;
Structure prediction by ZEFSAII (Michael W. Deem and Ramdas Pophale) SiO2 
 PCOD9570470
Probable space group: P 42/N M C
;
_chemical_formula_sum "Si O2"
_cell_formula_units_Z 44
_cell_length_a 15.286540
_cell_length_b 15.286540
_cell_length_c 9.664258
_cell_angle_alpha 90.000000
_cell_angle_beta 90.000000
_cell_angle_gamma 90.000000
_cell_volume 2258.327430
_symmetry_space_group_name_H-M "P 42/N M C"
_symmetry_group_IT_number 137
_space_group.IT_coordinate_system_code '2'
_symmetry_cell_setting 'tetragonal'
loop_
_space_group_symop_operation_xyz
x,y,z
1/2-y,x,1/2+z
1/2-x,1/2-y,z
y,1/2-x,1/2+z
1/2+x,-y,-z
-x,1/2+y,-z
1/2+y,1/2+x,1/2-z
-y,-x,1/2-z
-x,-y,-z
1/2+y,-x,1/2-z
1/2+x,1/2+y,-z
-y,1/2+x,1/2-z
1/2-x,y,z
x,1/2-y,z
1/2-y,1/2-x,1/2+z
y,x,1/2+z
loop_
_atom_site_type_symbol
_atom_site_label
_atom_site_fract_x
_atom_site_fract_y
_atom_site_fract_z
Si Si1 0.750000 0.892536 0.102359
Si Si2 0.350465 0.854187 0.103518
Si Si3 0.750000 0.750000 0.352292
Si Si4 0.979672 0.079483 0.397516
O O1 0.750000 0.831971 0.242758
O O2 0.839130 0.951618 0.102265
O O3 0.750000 0.832138 0.961638
O O4 0.388677 0.888677 0.250000
O O5 0.250000 0.881643 0.105486
O O6 0.355158 0.750000 0.107943
O O7 0.387031 0.889441 0.962616
O O8 0.960643 0.039358 0.250000
O O9 0.000000 0.000000 0.500000
#
# Coordination Sequence:
#
# PCOD9570470 Si02
#       4
#     8  16   4  16
#     4  11  24  48  67 100 135 179 240 279 342 415
#     4   9  19  38  62  89 124 169 213 265 338 409
#     4  10  24  46  76  90 130 188 230 288 332 390
#     4  12  25  41  65  99 137 174 227 285 350 405
#
# _framework density 19.483446000000001
#
# number of rings (size 3 to 8) (size 9 to 14) (size 15 to 20)
#    0.000    1.455    1.818    4.364    2.545    0.000 
#    6.545    1.818    0.000    0.000    0.000    0.000 
#    0.000    0.000    0.000    0.000    0.000    0.000 
#
# Total GULP energy -244936.066479 kJ/mol
# GULP energy per Si atom -5566.728784 kJ/mol
# Density = 1.943910 g / cm^3
# Si number density = 19.483446 Si / 1000 Ang^3
#
#
#
# Elastic Constant Matrix: (Units=GPa)
#
#
# Indices 1 2 3 4 5 6 
#
# 1 455.3963 430.7063 290.5315 0.0000 0.0000 0.0000
# 2 430.7063 455.3972 290.5324 0.0000 0.0000 0.0000
# 3 290.5315 290.5324 337.6889 0.0000 0.0000 0.0000
# 4 0.0000 0.0000 0.0000 40.2267 0.0000 0.0000
# 5 0.0000 0.0000 0.0000 0.0000 40.2266 0.0000
# 6 0.0000 0.0000 0.0000 0.0000 0.0000 30.2789
#
#
#
# Elastic Compliance Matrix: (Units=1/GPa)
#
#
# Indices 1 2 3 4 5 6 
#
# 1 0.021545 -0.018956 -0.002228 0.000000 0.000000 0.000000
# 2 -0.018956 0.021546 -0.002228 0.000000 0.000000 0.000000
# 3 -0.002228 -0.002228 0.006795 0.000000 0.000000 0.000000
# 4 0.000000 0.000000 0.000000 0.024859 0.000000 0.000000
# 5 0.000000 0.000000 0.000000 0.000000 0.024859 0.000000
# 6 0.000000 0.000000 0.000000 0.000000 0.000000 0.033026
#
#
# Mechanical properties :
#
#
# Convention : Reuss Voigt Hill
#
# Bulk Modulus (GPa) = 326.55202 363.55810 345.05506
# Shear Modulus (GPa) = 27.70474 37.92727 32.81600
#
# Velocity S-wave (km/s) = 3.77498 4.41686 4.10848
# Velocity P-wave (km/s) = 13.67367 14.59504 14.14186
#
# Compressibility (1/GPa) = 0.00306230
#
# Stress axis : x y z
#
# Youngs Moduli (GPa) = 46.41345 46.41331 147.17198
#
# Poissons Ratio (x) = 0.87981 0.32786
# Poissons Ratio (y) = 0.87982 0.32789
# Poissons Ratio (z) = 0.10340 0.10341
#
# Static dielectric constant tensor:
#      x y z
#    x 1.744930 0.000000 0.000000 
#    y 0.000000 1.744930 0.000000 
#    z 0.000000 0.000000 1.818800 
# 
# From -- ./inp_files/1346.got.cif
#   From: 2010.05.17/outbox.cif.g08.bks.cpg/sg137_1_cif.got.tgz:1346.got - 2010.05.20 13:01:12.
