data_PCOD9570414
_publ_section_title
;
Structure prediction by ZEFSAII (Michael W. Deem and Ramdas Pophale) SiO2 
 PCOD9570414
Probable space group: P 42/N M C
;
_chemical_formula_sum "Si O2"
_cell_formula_units_Z 48
_cell_length_a 20.121213
_cell_length_b 20.121213
_cell_length_c 7.670034
_cell_angle_alpha 90.000000
_cell_angle_beta 90.000000
_cell_angle_gamma 90.000000
_cell_volume 3105.314606
_symmetry_space_group_name_H-M "P 42/N M C"
_symmetry_group_IT_number 137
_space_group.IT_coordinate_system_code '2'
_symmetry_cell_setting 'tetragonal'
loop_
_space_group_symop_operation_xyz
x,y,z
1/2-y,x,1/2+z
1/2-x,1/2-y,z
y,1/2-x,1/2+z
1/2+x,-y,-z
-x,1/2+y,-z
1/2+y,1/2+x,1/2-z
-y,-x,1/2-z
-x,-y,-z
1/2+y,-x,1/2-z
1/2+x,1/2+y,-z
-y,1/2+x,1/2-z
1/2-x,y,z
x,1/2-y,z
1/2-y,1/2-x,1/2+z
y,x,1/2+z
loop_
_atom_site_type_symbol
_atom_site_label
_atom_site_fract_x
_atom_site_fract_y
_atom_site_fract_z
Si Si1 0.171831 0.828170 0.250000
Si Si2 0.750000 0.969177 0.398541
Si Si3 0.750000 0.640395 0.693340
Si Si4 0.140423 0.250000 0.396231
Si Si5 0.674799 0.098949 0.394509
O O1 0.250000 0.837721 0.207851
O O2 0.155885 0.872459 0.417360
O O3 0.750000 0.922992 0.568159
O O4 0.750000 0.922954 0.229007
O O5 0.687644 0.020033 0.398593
O O6 0.686432 0.686421 0.648541
O O7 0.750000 0.624836 0.898562
O O8 0.624765 0.124765 0.250000
O O9 0.750000 0.126054 0.355594
#
# Coordination Sequence:
#
# PCOD9570414 Si02
#       5
#     8   8   8   8  16
#     4   9  16  28  50  76 104 138 180 230 274 298
#     4  10  22  33  51  92 104 150 176 214 278 330
#     4  11  19  35  60  87 108 132 165 234 283 338
#     4  11  19  35  62  83 116 124 169 230 295 314
#     4   9  19  32  50  76 116 139 189 217 267 311
#
# _framework density 15.457371
#
# number of rings (size 3 to 8) (size 9 to 14) (size 15 to 20)
#    1.000    1.167    3.333    2.000    0.000    4.333 
#    0.000    0.000    0.000    2.000    0.000    0.000 
#    0.000    0.000    0.000    0.000    0.000    0.000 
#
# Total GULP energy -267227.309291 kJ/mol
# GULP energy per Si atom -5567.235610 kJ/mol
# Density = 1.542219 g / cm^3
# Si number density = 15.457371 Si / 1000 Ang^3
#
#
#
# Elastic Constant Matrix: (Units=GPa)
#
#
# Indices 1 2 3 4 5 6 
#
# 1 93.9829 47.5439 80.1681 0.0000 0.0000 0.0000
# 2 47.5439 93.9818 80.1683 0.0000 0.0000 0.0000
# 3 80.1681 80.1683 178.1648 0.0000 0.0000 0.0000
# 4 0.0000 0.0000 0.0000 -9.3903 0.0000 0.0000
# 5 0.0000 0.0000 0.0000 0.0000 -9.3960 0.0000
# 6 0.0000 0.0000 0.0000 0.0000 0.0000 10.6400
#
#
#
# Elastic Compliance Matrix: (Units=1/GPa)
#
#
# Indices 1 2 3 4 5 6 
#
# 1 0.017973 -0.003560 -0.006485 0.000000 0.000000 0.000000
# 2 -0.003560 0.017974 -0.006486 0.000000 0.000000 0.000000
# 3 -0.006485 -0.006486 0.011449 0.000000 0.000000 0.000000
# 4 0.000000 0.000000 0.000000 -0.106493 0.000000 0.000000
# 5 0.000000 0.000000 0.000000 0.000000 -0.106428 0.000000
# 6 0.000000 0.000000 0.000000 0.000000 0.000000 0.093985
#
#
# Mechanical properties :
#
#
# Convention : Reuss Voigt Hill
#
# Bulk Modulus (GPa) = 69.76465 86.87667 78.32066
# Shear Modulus (GPa) = -148.37443 8.92068 -69.72688
#
# Velocity S-wave (km/s) = -9.80805 2.40493 -6.72362
# Velocity P-wave (km/s) = 9.11220 8.00235 3.08177
#
# Compressibility (1/GPa) = 0.01433391
#
# Stress axis : x y z
#
# Youngs Moduli (GPa) = 55.63779 55.63653 87.34153
#
# Poissons Ratio (x) = 0.19808 0.56645
# Poissons Ratio (y) = 0.19809 0.56646
# Poissons Ratio (z) = 0.36083 0.36084
#
# Static dielectric constant tensor:
#      x y z
#    x 1.505500 0.000000 0.000000 
#    y 0.000000 1.505500 0.000000 
#    z 0.000000 0.000000 1.504550 
# 
# From -- ./inp_files/1681.got.cif
#   From: 2010.05.17/outbox.cif.g08.bks.cpg/sg137_1_cif.got.tgz:1681.got - 2010.05.20 13:01:12.
