data_PCOD9570651
_publ_section_title
;
Structure prediction by ZEFSAII (Michael W. Deem and Ramdas Pophale) SiO2 
 PCOD9570651
Probable space group: P 42/N C M
;
_chemical_formula_sum "Si O2"
_cell_formula_units_Z 64
_cell_length_a 18.656006
_cell_length_b 18.656006
_cell_length_c 8.207735
_cell_angle_alpha 90.000000
_cell_angle_beta 90.000000
_cell_angle_gamma 90.000000
_cell_volume 2856.673931
_symmetry_space_group_name_H-M "P 42/N C M"
_symmetry_group_IT_number 138
_space_group.IT_coordinate_system_code '2'
_symmetry_cell_setting 'tetragonal'
loop_
_space_group_symop_operation_xyz
x,y,z
1/2-y,x,1/2+z
1/2-x,1/2-y,z
y,1/2-x,1/2+z
1/2+x,-y,1/2-z
-x,1/2+y,1/2-z
1/2+y,1/2+x,-z
-y,-x,-z
-x,-y,-z
1/2+y,-x,1/2-z
1/2+x,1/2+y,-z
-y,1/2+x,1/2-z
1/2-x,y,1/2+z
x,1/2-y,1/2+z
1/2-y,1/2-x,z
y,x,z
loop_
_atom_site_type_symbol
_atom_site_label
_atom_site_fract_x
_atom_site_fract_y
_atom_site_fract_z
Si Si1 0.344748 0.725813 0.157571
Si Si2 0.166153 0.333848 0.925610
Si Si3 0.019624 0.019624 0.682840
Si Si4 0.861855 0.027894 0.092368
Si Si5 0.913042 0.913042 0.860828
Si Si6 0.306036 0.306036 0.766970
O O1 0.306753 0.676241 0.296632
O O2 0.428041 0.709376 0.134634
O O3 0.303933 0.696068 0.000000
O O4 0.121386 0.378615 0.797233
O O5 0.249789 0.348462 0.878173
O O6 0.155673 0.344328 0.117873
O O7 0.970131 0.970131 0.796596
O O8 0.098782 0.998646 0.743802
O O9 0.000000 0.000000 0.500000
O O10 0.913254 0.086747 0.000000
O O11 0.859551 0.959340 0.973914
O O12 0.250000 0.250000 0.677782
#
# Coordination Sequence:
#
# PCOD9570651 Si02
#       6
#    16   8   8  16   8   8
#     4  10  19  32  51  74  98 130 169 213 264 314
#     4   9  15  30  52  70  95 132 178 198 259 306
#     4   9  17  31  52  73  94 125 160 205 248 291
#     4   8  17  34  51  67  98 131 162 199 254 305
#     4   9  17  33  53  73  99 142 172 203 251 321
#     4   8  14  29  49  71  97 134 161 210 254 297
#
# _framework density 22.403677999999999
#
# number of rings (size 3 to 8) (size 9 to 14) (size 15 to 20)
#    0.750    2.250    1.250    3.000    0.000    2.000 
#    0.000   12.500    0.000    0.000    0.000    0.000 
#    0.000    0.000    0.000    0.000    0.000    0.000 
#
# Total GULP energy -356346.421766 kJ/mol
# GULP energy per Si atom -5567.912840 kJ/mol
# Density = 2.235269 g / cm^3
# Si number density = 22.403678 Si / 1000 Ang^3
#
#
#
# Elastic Constant Matrix: (Units=GPa)
#
#
# Indices 1 2 3 4 5 6 
#
# 1 24.2184 46.6079 0.5462 0.0000 0.0000 0.0000
# 2 46.6079 24.2174 0.5452 0.0000 0.0000 0.0000
# 3 0.5462 0.5452 94.7465 0.0000 0.0000 0.0000
# 4 0.0000 0.0000 0.0000 26.1339 0.0000 0.0000
# 5 0.0000 0.0000 0.0000 0.0000 26.1342 0.0000
# 6 0.0000 0.0000 0.0000 0.0000 0.0000 41.0877
#
#
#
# Elastic Compliance Matrix: (Units=1/GPa)
#
#
# Indices 1 2 3 4 5 6 
#
# 1 -0.015271 0.029392 -0.000081 0.000000 0.000000 0.000000
# 2 0.029392 -0.015271 -0.000082 0.000000 0.000000 0.000000
# 3 -0.000081 -0.000082 0.010555 0.000000 0.000000 0.000000
# 4 0.000000 0.000000 0.000000 0.038264 0.000000 0.000000
# 5 0.000000 0.000000 0.000000 0.000000 0.038264 0.000000
# 6 0.000000 0.000000 0.000000 0.000000 0.000000 0.024338
#
#
# Mechanical properties :
#
#
# Convention : Reuss Voigt Hill
#
# Bulk Modulus (GPa) = 25.99366 26.50898 26.25132
# Shear Modulus (GPa) = 141.86206 25.03669 83.44938
#
# Velocity S-wave (km/s) = 7.96607 3.34657 6.10974
# Velocity P-wave (km/s) = 9.81013 5.17598 7.84313
#
# Compressibility (1/GPa) = 0.03847092
#
# Stress axis : x y z
#
# Youngs Moduli (GPa) = -65.48415 -65.48151 94.73812
#
# Poissons Ratio (x) = 1.92461 0.00768
# Poissons Ratio (y) = 1.92468 0.00773
# Poissons Ratio (z) = -0.00531 -0.00534
#
# Static dielectric constant tensor:
#      x y z
#    x 1.887930 0.000000 0.000000 
#    y 0.000000 1.887930 0.000000 
#    z 0.000000 0.000000 1.904710 
# 
# From -- ./inp_files/1466.got.cif
#   From: 2010.05.17/outbox.cif.g08.bks.cpg/sg138_1_cif.got.tgz:1466.got - 2010.05.20 13:08:53.
