data_PCOD9570479
_publ_section_title
;
Structure prediction by ZEFSAII (Michael W. Deem and Ramdas Pophale) SiO2 
 PCOD9570479
Probable space group: P 42/N M C
;
_chemical_formula_sum "Si O2"
_cell_formula_units_Z 88
_cell_length_a 18.638210
_cell_length_b 18.638210
_cell_length_c 13.226781
_cell_angle_alpha 90.000000
_cell_angle_beta 90.000000
_cell_angle_gamma 90.000000
_cell_volume 4594.757171
_symmetry_space_group_name_H-M "P 42/N M C"
_symmetry_group_IT_number 137
_space_group.IT_coordinate_system_code '2'
_symmetry_cell_setting 'tetragonal'
loop_
_space_group_symop_operation_xyz
x,y,z
1/2-y,x,1/2+z
1/2-x,1/2-y,z
y,1/2-x,1/2+z
1/2+x,-y,-z
-x,1/2+y,-z
1/2+y,1/2+x,1/2-z
-y,-x,1/2-z
-x,-y,-z
1/2+y,-x,1/2-z
1/2+x,1/2+y,-z
-y,1/2+x,1/2-z
1/2-x,y,z
x,1/2-y,z
1/2-y,1/2-x,1/2+z
y,x,1/2+z
loop_
_atom_site_type_symbol
_atom_site_label
_atom_site_fract_x
_atom_site_fract_y
_atom_site_fract_z
Si Si1 0.830007 0.330007 0.750000
Si Si2 0.667558 0.926705 0.678666
Si Si3 0.440331 0.335100 0.433387
Si Si4 0.573965 0.964223 0.872070
Si Si5 0.564536 0.130918 0.928457
Si Si6 0.589964 0.413102 0.139120
O O1 0.838999 0.250000 0.708929
O O2 0.884128 0.340222 0.841482
O O3 0.750000 0.913993 0.706747
O O4 0.625158 0.857538 0.638906
O O5 0.621351 0.959462 0.771092
O O6 0.664024 0.986765 0.590671
O O7 0.445514 0.250000 0.448320
O O8 0.430978 0.378083 0.538594
O O9 0.513898 0.366839 0.386007
O O10 0.495773 0.930095 0.855718
O O11 0.558935 0.045695 0.906451
O O12 0.595467 0.137809 0.041157
O O13 0.612739 0.387262 0.250000
#
# Coordination Sequence:
#
# PCOD9570479 Si02
#       6
#     8  16  16  16  16  16
#     4  11  24  40  60  94 136 164 196 264 337 386
#     4  12  22  36  60  90 125 167 208 256 309 370
#     4  11  23  38  57  89 124 162 206 253 310 374
#     4  11  19  38  63  89 116 154 207 268 308 353
#     4  11  20  35  61  93 120 155 208 259 312 369
#     4  11  20  39  66  90 119 158 204 263 309 355
#
# _framework density 19.152263000000001
#
# number of rings (size 3 to 8) (size 9 to 14) (size 15 to 20)
#    0.000    0.818    7.273    2.182    0.000    3.273 
#    0.000    4.545    0.000    2.182    0.000    1.273 
#    0.000    0.000    0.000    0.000    0.000    0.000 
#
# Total GULP energy -491383.152717 kJ/mol
# GULP energy per Si atom -5583.899463 kJ/mol
# Density = 1.910867 g / cm^3
# Si number density = 19.152263 Si / 1000 Ang^3
#
#
#
# Elastic Constant Matrix: (Units=GPa)
#
#
# Indices 1 2 3 4 5 6 
#
# 1 52.6686 29.9648 12.8082 0.0000 0.0000 0.0000
# 2 29.9648 52.6690 12.8084 0.0000 0.0000 0.0000
# 3 12.8082 12.8084 105.4337 0.0000 0.0000 0.0000
# 4 0.0000 0.0000 0.0000 12.5971 0.0000 0.0000
# 5 0.0000 0.0000 0.0000 0.0000 12.5971 0.0000
# 6 0.0000 0.0000 0.0000 0.0000 0.0000 14.0869
#
#
#
# Elastic Compliance Matrix: (Units=1/GPa)
#
#
# Indices 1 2 3 4 5 6 
#
# 1 0.028310 -0.015735 -0.001528 0.000000 0.000000 0.000000
# 2 -0.015735 0.028310 -0.001528 0.000000 0.000000 0.000000
# 3 -0.001528 -0.001528 0.009856 0.000000 0.000000 0.000000
# 4 0.000000 0.000000 0.000000 0.079384 0.000000 0.000000
# 5 0.000000 0.000000 0.000000 0.000000 0.079383 0.000000
# 6 0.000000 0.000000 0.000000 0.000000 0.000000 0.070988
#
#
# Mechanical properties :
#
#
# Convention : Reuss Voigt Hill
#
# Bulk Modulus (GPa) = 34.60741 35.77046 35.18893
# Shear Modulus (GPa) = 14.55845 18.20221 16.38033
#
# Velocity S-wave (km/s) = 2.76006 3.08619 2.92767
# Velocity P-wave (km/s) = 5.31659 5.60507 5.46273
#
# Compressibility (1/GPa) = 0.02889555
#
# Stress axis : x y z
#
# Youngs Moduli (GPa) = 35.32287 35.32313 101.46306
#
# Poissons Ratio (x) = 0.55581 0.15500
# Poissons Ratio (y) = 0.55580 0.15501
# Poissons Ratio (z) = 0.05396 0.05396
#
# Static dielectric constant tensor:
#      x y z
#    x 1.659250 0.000000 0.000000 
#    y 0.000000 1.659250 0.000000 
#    z 0.000000 0.000000 1.725460 
# 
# From -- ./inp_files/5105.got.cif
#   From: 2010.05.17/outbox.cif.g08.bks.cpg/sg137_3_cif.got.tgz:5105.got - 2010.05.20 13:01:12.
