data_PCOD9570601
_publ_section_title
;
Structure prediction by ZEFSAII (Michael W. Deem and Ramdas Pophale) SiO2 
 PCOD9570601
Probable space group: P 42/N C M
;
_chemical_formula_sum "Si O2"
_cell_formula_units_Z 104
_cell_length_a 17.140735
_cell_length_b 17.140735
_cell_length_c 18.618636
_cell_angle_alpha 90.000000
_cell_angle_beta 90.000000
_cell_angle_gamma 90.000000
_cell_volume 5470.244558
_symmetry_space_group_name_H-M "P 42/N C M"
_symmetry_group_IT_number 138
_space_group.IT_coordinate_system_code '2'
_symmetry_cell_setting 'tetragonal'
loop_
_space_group_symop_operation_xyz
x,y,z
1/2-y,x,1/2+z
1/2-x,1/2-y,z
y,1/2-x,1/2+z
1/2+x,-y,1/2-z
-x,1/2+y,1/2-z
1/2+y,1/2+x,-z
-y,-x,-z
-x,-y,-z
1/2+y,-x,1/2-z
1/2+x,1/2+y,-z
-y,1/2+x,1/2-z
1/2-x,y,1/2+z
x,1/2-y,1/2+z
1/2-y,1/2-x,z
y,x,z
loop_
_atom_site_type_symbol
_atom_site_label
_atom_site_fract_x
_atom_site_fract_y
_atom_site_fract_z
Si Si1 0.382586 0.882586 0.000000
Si Si2 0.567156 0.122328 0.245336
Si Si3 0.440202 0.180323 0.149207
Si Si4 0.311217 0.680380 0.362119
Si Si5 0.510693 0.235178 0.361049
Si Si6 0.965678 0.661909 0.266238
Si Si7 0.448926 0.176393 0.979018
O O1 0.364176 0.822925 0.934424
O O2 0.371580 0.970087 0.971309
O O3 0.505271 0.120428 0.180125
O O4 0.635146 0.176344 0.209382
O O5 0.520130 0.158587 0.312447
O O6 0.609096 0.043300 0.268797
O O7 0.357045 0.142956 0.171616
O O8 0.462507 0.263719 0.181813
O O9 0.440170 0.187178 0.063934
O O10 0.250000 0.750000 0.361260
O O11 0.263188 0.599953 0.368041
O O12 0.467906 0.299617 0.312262
O O13 0.465892 0.243513 0.436050
O O14 0.892135 0.607866 0.278254
O O15 0.375781 0.124220 0.954120
#
# Coordination Sequence:
#
# PCOD9570601 Si02
#       7
#     8  16  16  16  16  16  16
#     4  10  18  32  44  78 108 156 198 230 284 338
#     4  10  20  36  54  81 117 157 193 233 293 355
#     4  10  21  37  60  85 113 149 194 245 296 350
#     4  10  20  28  47  72 116 159 193 225 273 338
#     4   9  21  32  52  81 114 152 191 233 288 350
#     4  10  21  38  59  85 114 149 195 241 292 351
#     4  10  19  34  54  80 114 147 191 247 297 346
#
# _framework density 19.011946999999999
#
# number of rings (size 3 to 8) (size 9 to 14) (size 15 to 20)
#    0.000    2.154    1.538    1.385    6.462    0.308 
#    0.000    0.769    0.000    5.538    0.000    4.308 
#    0.000    0.000    0.000    0.000    0.000    0.000 
#
# Total GULP energy -579378.351542 kJ/mol
# GULP energy per Si atom -5570.945688 kJ/mol
# Density = 1.896867 g / cm^3
# Si number density = 19.011947 Si / 1000 Ang^3
#
#
#
# Elastic Constant Matrix: (Units=GPa)
#
#
# Indices 1 2 3 4 5 6 
#
# 1 60.1151 45.4825 28.4827 0.0000 0.0000 0.0000
# 2 45.4825 60.1151 28.4827 0.0000 0.0000 0.0000
# 3 28.4827 28.4827 75.5684 0.0000 0.0000 0.0000
# 4 0.0000 0.0000 0.0000 10.3391 0.0000 0.0000
# 5 0.0000 0.0000 0.0000 0.0000 10.3391 0.0000
# 6 0.0000 0.0000 0.0000 0.0000 0.0000 32.3761
#
#
#
# Elastic Compliance Matrix: (Units=1/GPa)
#
#
# Indices 1 2 3 4 5 6 
#
# 1 0.040114 -0.028227 -0.004480 0.000000 0.000000 0.000000
# 2 -0.028227 0.040114 -0.004480 0.000000 0.000000 0.000000
# 3 -0.004480 -0.004480 0.016610 0.000000 0.000000 0.000000
# 4 0.000000 0.000000 0.000000 0.096720 0.000000 0.000000
# 5 0.000000 0.000000 0.000000 0.000000 0.096720 0.000000
# 6 0.000000 0.000000 0.000000 0.000000 0.000000 0.030887
#
#
# Mechanical properties :
#
#
# Convention : Reuss Voigt Hill
#
# Bulk Modulus (GPa) = 44.51789 44.52161 44.51975
# Shear Modulus (GPa) = 12.40609 16.83423 14.62016
#
# Velocity S-wave (km/s) = 2.55726 2.97889 2.77609
# Velocity P-wave (km/s) = 5.67327 5.94140 5.80888
#
# Compressibility (1/GPa) = 0.02246288
#
# Stress axis : x y z
#
# Youngs Moduli (GPa) = 24.92911 24.92911 60.20319
#
# Poissons Ratio (x) = 0.70367 0.26973
# Poissons Ratio (y) = 0.70367 0.26973
# Poissons Ratio (z) = 0.11169 0.11169
#
# Static dielectric constant tensor:
#      x y z
#    x 1.671380 0.000000 0.000000 
#    y 0.000000 1.671380 0.000000 
#    z 0.000000 0.000000 1.720290 
# 
# From -- ./inp_files/5317.got.cif
#   From: 2010.05.17/outbox.cif.g08.bks.cpg/sg138_3_cif.got.tgz:5317.got - 2010.05.20 13:08:53.
