data_PCOD9570283
_publ_section_title
;
Structure prediction by ZEFSAII (Michael W. Deem and Ramdas Pophale) SiO2 
 PCOD9570283
Probable space group: P 42/N M C
;
_chemical_formula_sum "Si O2"
_cell_formula_units_Z 112
_cell_length_a 13.916946
_cell_length_b 13.916946
_cell_length_c 27.106004
_cell_angle_alpha 90.000000
_cell_angle_beta 90.000000
_cell_angle_gamma 90.000000
_cell_volume 5249.928423
_symmetry_space_group_name_H-M "P 42/N M C"
_symmetry_group_IT_number 137
_space_group.IT_coordinate_system_code '2'
_symmetry_cell_setting 'tetragonal'
loop_
_space_group_symop_operation_xyz
x,y,z
1/2-y,x,1/2+z
1/2-x,1/2-y,z
y,1/2-x,1/2+z
1/2+x,-y,-z
-x,1/2+y,-z
1/2+y,1/2+x,1/2-z
-y,-x,1/2-z
-x,-y,-z
1/2+y,-x,1/2-z
1/2+x,1/2+y,-z
-y,1/2+x,1/2-z
1/2-x,y,z
x,1/2-y,z
1/2-y,1/2-x,1/2+z
y,x,1/2+z
loop_
_atom_site_type_symbol
_atom_site_label
_atom_site_fract_x
_atom_site_fract_y
_atom_site_fract_z
Si Si1 0.363394 0.363348 0.355866
Si Si2 0.049627 0.957877 0.900335
Si Si3 0.365767 0.639473 0.803412
Si Si4 0.644886 0.365000 0.606508
Si Si5 0.636465 0.135481 0.004311
Si Si6 0.525150 0.863160 0.246580
Si Si7 0.359588 0.055152 0.146601
O O1 0.250000 0.368763 0.367447
O O2 0.390276 0.250000 0.356270
O O3 0.429559 0.425131 0.392744
O O4 0.377787 0.409939 0.301718
O O5 0.104430 0.914601 0.852574
O O6 0.085766 0.921595 0.952498
O O7 0.941934 0.918196 0.891416
O O8 0.399936 0.600065 0.750000
O O9 0.250000 0.639353 0.800221
O O10 0.397668 0.750000 0.808131
O O11 0.750000 0.403517 0.620331
O O12 0.654822 0.250000 0.600839
O O13 0.614676 0.396953 0.551550
O O14 0.561003 0.374589 0.645803
O O15 0.750000 0.114577 0.007491
O O16 0.624533 0.250000 0.011521
O O17 0.436306 0.936306 0.250000
O O18 0.494615 0.750000 0.247055
O O19 0.585824 0.876404 0.297316
O O20 0.250000 0.076145 0.132074
#
# Coordination Sequence:
#
# PCOD9570283 Si02
#       7
#    16  16  16  16  16  16  16
#     4  10  22  38  54  76 110 151 191 229 276 336
#     4  12  21  32  57  81 110 146 188 227 277 324
#     4   9  19  34  52  79 111 139 173 223 281 337
#     4   8  16  34  58  82 111 143 176 225 291 349
#     4   9  18  34  58  90 119 139 171 226 289 347
#     4  10  20  37  56  79 110 141 186 241 285 327
#     4  10  22  36  52  75 108 147 191 235 277 328
#
# _framework density 21.333625000000001
#
# number of rings (size 3 to 8) (size 9 to 14) (size 15 to 20)
#    0.000    2.286    1.429    3.000    2.000    3.000 
#    0.000    2.143    0.000    2.571    0.000    1.000 
#    0.000   11.429    0.000    0.000    0.000    0.000 
#
# Total GULP energy -625087.848842 kJ/mol
# GULP energy per Si atom -5581.141508 kJ/mol
# Density = 2.128507 g / cm^3
# Si number density = 21.333625 Si / 1000 Ang^3
#
#
#
# Elastic Constant Matrix: (Units=GPa)
#
#
# Indices 1 2 3 4 5 6 
#
# 1 65.3688 19.0284 25.9138 0.0000 0.0000 0.0000
# 2 19.0284 65.3684 25.9137 0.0000 0.0000 0.0000
# 3 25.9138 25.9137 87.1505 0.0000 0.0000 0.0000
# 4 0.0000 0.0000 0.0000 30.9658 0.0000 0.0000
# 5 0.0000 0.0000 0.0000 0.0000 30.9657 0.0000
# 6 0.0000 0.0000 0.0000 0.0000 0.0000 19.8851
#
#
#
# Elastic Compliance Matrix: (Units=1/GPa)
#
#
# Indices 1 2 3 4 5 6 
#
# 1 0.018038 -0.003542 -0.004310 0.000000 0.000000 0.000000
# 2 -0.003542 0.018038 -0.004310 0.000000 0.000000 0.000000
# 3 -0.004310 -0.004310 0.014038 0.000000 0.000000 0.000000
# 4 0.000000 0.000000 0.000000 0.032294 0.000000 0.000000
# 5 0.000000 0.000000 0.000000 0.000000 0.032294 0.000000
# 6 0.000000 0.000000 0.000000 0.000000 0.000000 0.050289
#
#
# Mechanical properties :
#
#
# Convention : Reuss Voigt Hill
#
# Bulk Modulus (GPa) = 38.77761 39.95550 39.36656
# Shear Modulus (GPa) = 25.26402 26.16544 25.71473
#
# Velocity S-wave (km/s) = 3.44500 3.50592 3.47560
# Velocity P-wave (km/s) = 5.83441 5.92944 5.88211
#
# Compressibility (1/GPa) = 0.02578808
#
# Stress axis : x y z
#
# Youngs Moduli (GPa) = 55.43999 55.43964 71.23705
#
# Poissons Ratio (x) = 0.19637 0.30705
# Poissons Ratio (y) = 0.19637 0.30705
# Poissons Ratio (z) = 0.23896 0.23896
#
# Static dielectric constant tensor:
#      x y z
#    x 1.819310 0.000000 0.000000 
#    y 0.000000 1.819310 0.000000 
#    z 0.000000 0.000000 1.737820 
# 
# From -- ./inp_files/9816.got.cif
#   From: 2010.05.17/outbox.cif.g08.bks.cpg/sg137_5_cif.got.tgz:9816.got - 2010.05.20 13:01:12.
