data_PCOD9570340
_publ_section_title
;
Structure prediction by ZEFSAII (Michael W. Deem and Ramdas Pophale) SiO2 
 PCOD9570340
Probable space group: P 42/N M C
;
_chemical_formula_sum "Si O2"
_cell_formula_units_Z 112
_cell_length_a 14.700567
_cell_length_b 14.700567
_cell_length_c 26.388326
_cell_angle_alpha 90.000000
_cell_angle_beta 90.000000
_cell_angle_gamma 90.000000
_cell_volume 5702.693262
_symmetry_space_group_name_H-M "P 42/N M C"
_symmetry_group_IT_number 137
_space_group.IT_coordinate_system_code '2'
_symmetry_cell_setting 'tetragonal'
loop_
_space_group_symop_operation_xyz
x,y,z
1/2-y,x,1/2+z
1/2-x,1/2-y,z
y,1/2-x,1/2+z
1/2+x,-y,-z
-x,1/2+y,-z
1/2+y,1/2+x,1/2-z
-y,-x,1/2-z
-x,-y,-z
1/2+y,-x,1/2-z
1/2+x,1/2+y,-z
-y,1/2+x,1/2-z
1/2-x,y,z
x,1/2-y,z
1/2-y,1/2-x,1/2+z
y,x,1/2+z
loop_
_atom_site_type_symbol
_atom_site_label
_atom_site_fract_x
_atom_site_fract_y
_atom_site_fract_z
Si Si1 0.544465 0.464191 0.194708
Si Si2 0.969196 0.397595 0.498567
Si Si3 0.849313 0.141605 0.595388
Si Si4 0.360044 0.143400 0.841796
Si Si5 0.145154 0.347568 0.955726
Si Si6 0.358434 0.857148 0.604333
Si Si7 0.141695 0.553901 0.201162
O O1 0.572673 0.427328 0.250000
O O2 0.587169 0.565717 0.188608
O O3 0.582374 0.405044 0.148109
O O4 0.434443 0.474570 0.196710
O O5 0.915586 0.380879 0.549708
O O6 0.907910 0.374463 0.449623
O O7 0.000000 0.500000 0.500000
O O8 0.067914 0.353262 0.492847
O O9 0.750000 0.099377 0.588032
O O10 0.840603 0.250000 0.593306
O O11 0.887940 0.122726 0.650665
O O12 0.250000 0.128454 0.837750
O O13 0.376667 0.250000 0.828546
O O14 0.394479 0.130720 0.900206
O O15 0.250000 0.334827 0.942714
O O16 0.109108 0.250000 0.974877
O O17 0.250000 0.873874 0.600405
O O18 0.372111 0.750000 0.616419
O O19 0.113333 0.613333 0.250000
O O20 0.250000 0.530327 0.202851
#
# Coordination Sequence:
#
# PCOD9570340 Si02
#       7
#    16  16  16  16  16  16  16
#     4  11  23  38  61  93 126 162 211 269 323 383
#     4  12  23  36  56  87 126 161 197 249 311 374
#     4  10  21  36  56  83 114 154 201 245 295 362
#     4   9  18  35  61  90 118 152 202 263 322 377
#     4   9  18  34  58  84 112 153 203 251 300 361
#     4  11  24  43  66  91 126 172 215 259 317 382
#     4  10  22  41  63  89 125 167 211 264 326 387
#
# _framework density 19.639844
#
# number of rings (size 3 to 8) (size 9 to 14) (size 15 to 20)
#    0.000    1.714    1.429    4.286    0.000    7.000 
#    0.000    0.714    0.000    0.429    0.000    0.000 
#    0.000    0.000    0.000    0.000    0.000    0.000 
#
# Total GULP energy -624399.776602 kJ/mol
# GULP energy per Si atom -5574.998005 kJ/mol
# Density = 1.959514 g / cm^3
# Si number density = 19.639844 Si / 1000 Ang^3
#
#
#
# Elastic Constant Matrix: (Units=GPa)
#
#
# Indices 1 2 3 4 5 6 
#
# 1 87.1865 41.1398 53.3913 0.0000 0.0000 0.0000
# 2 41.1398 87.1867 53.3913 0.0000 0.0000 0.0000
# 3 53.3913 53.3913 154.5524 0.0000 0.0000 0.0000
# 4 0.0000 0.0000 0.0000 16.6728 0.0000 0.0000
# 5 0.0000 0.0000 0.0000 0.0000 16.6728 0.0000
# 6 0.0000 0.0000 0.0000 0.0000 0.0000 8.5409
#
#
#
# Elastic Compliance Matrix: (Units=1/GPa)
#
#
# Indices 1 2 3 4 5 6 
#
# 1 0.016327 -0.005390 -0.003778 0.000000 0.000000 0.000000
# 2 -0.005390 0.016327 -0.003778 0.000000 0.000000 0.000000
# 3 -0.003778 -0.003778 0.009081 0.000000 0.000000 0.000000
# 4 0.000000 0.000000 0.000000 0.059978 0.000000 0.000000
# 5 0.000000 0.000000 0.000000 0.000000 0.059978 0.000000
# 6 0.000000 0.000000 0.000000 0.000000 0.000000 0.117083
#
#
# Mechanical properties :
#
#
# Convention : Reuss Voigt Hill
#
# Bulk Modulus (GPa) = 63.12658 69.41894 66.27276
# Shear Modulus (GPa) = 16.13184 20.44420 18.28802
#
# Velocity S-wave (km/s) = 2.86909 3.22988 3.05482
# Velocity P-wave (km/s) = 6.57171 7.02369 6.80146
#
# Compressibility (1/GPa) = 0.01584119
#
# Stress axis : x y z
#
# Youngs Moduli (GPa) = 61.24921 61.24932 110.12455
#
# Poissons Ratio (x) = 0.33015 0.41606
# Poissons Ratio (y) = 0.33015 0.41606
# Poissons Ratio (z) = 0.23140 0.23140
#
# Static dielectric constant tensor:
#      x y z
#    x 1.695210 0.000000 0.000000 
#    y 0.000000 1.695210 0.000000 
#    z 0.000000 0.000000 0.941160 
# 
# From -- ./inp_files/8997.got.cif
#   From: 2010.05.17/outbox.cif.g08.bks.cpg/sg137_5_cif.got.tgz:8997.got - 2010.05.20 13:01:12.
