data_PCOD9570660
_publ_section_title
;
Structure prediction by ZEFSAII (Michael W. Deem and Ramdas Pophale) SiO2 
 PCOD9570660
Probable space group: P 42/N C M
;
_chemical_formula_sum "Si O2"
_cell_formula_units_Z 80
_cell_length_a 14.162181
_cell_length_b 14.162181
_cell_length_c 20.488864
_cell_angle_alpha 90.000000
_cell_angle_beta 90.000000
_cell_angle_gamma 90.000000
_cell_volume 4109.397581
_symmetry_space_group_name_H-M "P 42/N C M"
_symmetry_group_IT_number 138
_space_group.IT_coordinate_system_code '2'
_symmetry_cell_setting 'tetragonal'
loop_
_space_group_symop_operation_xyz
x,y,z
1/2-y,x,1/2+z
1/2-x,1/2-y,z
y,1/2-x,1/2+z
1/2+x,-y,1/2-z
-x,1/2+y,1/2-z
1/2+y,1/2+x,-z
-y,-x,-z
-x,-y,-z
1/2+y,-x,1/2-z
1/2+x,1/2+y,-z
-y,1/2+x,1/2-z
1/2-x,y,1/2+z
x,1/2-y,1/2+z
1/2-y,1/2-x,z
y,x,z
loop_
_atom_site_type_symbol
_atom_site_label
_atom_site_fract_x
_atom_site_fract_y
_atom_site_fract_z
Si Si1 0.707004 0.149700 0.927057
Si Si2 0.879291 0.476900 0.158643
Si Si3 0.852016 0.138597 0.228507
Si Si4 0.001767 0.346954 0.520354
Si Si5 0.680338 0.522200 0.129455
O O1 0.750000 0.250000 0.902899
O O2 0.615431 0.133597 0.884484
O O3 0.673836 0.173836 0.000000
O O4 0.775068 0.057827 0.934230
O O5 0.904142 0.436499 0.229383
O O6 0.782824 0.536610 0.160936
O O7 0.960515 0.539486 0.129769
O O8 0.751342 0.128945 0.266913
O O9 0.847741 0.079601 0.161343
O O10 0.095081 0.404920 0.544577
O O11 0.022723 0.303501 0.448757
O O12 0.926789 0.426789 0.500000
O O13 0.599710 0.599710 0.143051
#
# Coordination Sequence:
#
# PCOD9570660 Si02
#       5
#    16  16  16  16  16
#     4  11  20  34  58  80 111 146 185 235 280 329
#     4  11  23  36  55  84 116 149 187 230 282 334
#     4   9  20  33  57  84 110 142 187 238 280 325
#     4  10  19  32  53  82 110 143 185 231 279 331
#     4  10  20  36  55  78 112 149 187 231 279 331
#
# _framework density 19.467573999999999
#
# number of rings (size 3 to 8) (size 9 to 14) (size 15 to 20)
#    0.000    1.800    4.000    0.600    8.400    0.800 
#    0.000    0.000    0.000    0.600    0.000    0.000 
#    0.000    0.000    0.000    0.000    0.000    0.000 
#
# Total GULP energy -445506.574633 kJ/mol
# GULP energy per Si atom -5568.832183 kJ/mol
# Density = 1.942326 g / cm^3
# Si number density = 19.467574 Si / 1000 Ang^3
#
#
#
# Elastic Constant Matrix: (Units=GPa)
#
#
# Indices 1 2 3 4 5 6 
#
# 1 96.8962 78.5498 32.6937 0.0000 0.0000 0.0000
# 2 78.5498 96.8962 32.6937 0.0000 0.0000 0.0000
# 3 32.6937 32.6937 32.1983 0.0000 0.0000 0.0000
# 4 0.0000 0.0000 0.0000 -8.6875 0.0000 0.0000
# 5 0.0000 0.0000 0.0000 0.0000 -8.6875 0.0000
# 6 0.0000 0.0000 0.0000 0.0000 0.0000 46.9138
#
#
#
# Elastic Compliance Matrix: (Units=1/GPa)
#
#
# Indices 1 2 3 4 5 6 
#
# 1 0.031838 -0.022668 -0.009311 0.000000 0.000000 0.000000
# 2 -0.022668 0.031838 -0.009311 0.000000 0.000000 0.000000
# 3 -0.009311 -0.009311 0.049966 0.000000 0.000000 0.000000
# 4 0.000000 0.000000 0.000000 -0.115109 0.000000 0.000000
# 5 0.000000 0.000000 0.000000 0.000000 -0.115109 0.000000
# 6 0.000000 0.000000 0.000000 0.000000 0.000000 0.021316
#
#
# Mechanical properties :
#
#
# Convention : Reuss Voigt Hill
#
# Bulk Modulus (GPa) = 32.19383 57.09614 44.64498
# Shear Modulus (GPa) = -2151.01190 11.37801 -1069.81695
#
# Velocity S-wave (km/s) = -33.27640 2.42018 -23.46766
# Velocity P-wave (km/s) = 38.20801 6.09936 26.67068
#
# Compressibility (1/GPa) = 0.03106186
#
# Stress axis : x y z
#
# Youngs Moduli (GPa) = 31.40883 31.40883 20.01360
#
# Poissons Ratio (x) = 0.71198 0.18635
# Poissons Ratio (y) = 0.71198 0.18635
# Poissons Ratio (z) = 0.29245 0.29245
#
# Static dielectric constant tensor:
#      x y z
#    x 1.717480 0.000000 0.000000 
#    y 0.000000 1.717480 0.000000 
#    z 0.000000 0.000000 1.771710 
# 
# From -- ./inp_files/6868.got.cif
#   From: 2010.05.17/outbox.cif.g08.bks.cpg/sg138_4_cif.got.tgz:6868.got - 2010.05.20 13:08:53.
