data_PCOD9570463
_publ_section_title
;
Structure prediction by ZEFSAII (Michael W. Deem and Ramdas Pophale) SiO2 
 PCOD9570463
Probable space group: P 42/N M C
;
_chemical_formula_sum "Si O2"
_cell_formula_units_Z 56
_cell_length_a 18.795403
_cell_length_b 18.795403
_cell_length_c 7.759104
_cell_angle_alpha 90.000000
_cell_angle_beta 90.000000
_cell_angle_gamma 90.000000
_cell_volume 2741.036742
_symmetry_space_group_name_H-M "P 42/N M C"
_symmetry_group_IT_number 137
_space_group.IT_coordinate_system_code '2'
_symmetry_cell_setting 'tetragonal'
loop_
_space_group_symop_operation_xyz
x,y,z
1/2-y,x,1/2+z
1/2-x,1/2-y,z
y,1/2-x,1/2+z
1/2+x,-y,-z
-x,1/2+y,-z
1/2+y,1/2+x,1/2-z
-y,-x,1/2-z
-x,-y,-z
1/2+y,-x,1/2-z
1/2+x,1/2+y,-z
-y,1/2+x,1/2-z
1/2-x,y,z
x,1/2-y,z
1/2-y,1/2-x,1/2+z
y,x,1/2+z
loop_
_atom_site_type_symbol
_atom_site_label
_atom_site_fract_x
_atom_site_fract_y
_atom_site_fract_z
Si Si1 0.331497 0.070403 0.216833
Si Si2 0.541419 0.667671 0.877598
Si Si3 0.897120 0.397120 0.250000
Si Si4 0.917258 0.333223 0.603983
O O1 0.250000 0.090109 0.176370
O O2 0.385196 0.134661 0.189235
O O3 0.334082 0.044882 0.414979
O O4 0.352141 0.001326 0.103974
O O5 0.531134 0.750000 0.823707
O O6 0.476976 0.619349 0.811302
O O7 0.884362 0.349143 0.417788
O O8 0.878308 0.378308 0.750000
O O9 0.912880 0.250000 0.646451
#
# Coordination Sequence:
#
# PCOD9570463 Si02
#       4
#    16  16   8  16
#     4  10  23  43  66  96 135 173 217 277 333 391
#     4  11  24  41  65  98 132 173 224 271 328 397
#     4  12  24  40  70  97 134 172 223 272 324 388
#     4  11  24  43  67  97 133 173 220 274 330 391
#
# _framework density 20.430226999999999
#
# number of rings (size 3 to 8) (size 9 to 14) (size 15 to 20)
#    0.000    1.143    2.857    2.571    2.000    7.714 
#    0.000    2.857    0.000    3.857    0.000    0.000 
#    0.000    0.000    0.000    0.000    0.000    0.000 
#
# Total GULP energy -313163.724293 kJ/mol
# GULP energy per Si atom -5592.209362 kJ/mol
# Density = 2.038373 g / cm^3
# Si number density = 20.430227 Si / 1000 Ang^3
#
#
#
# Elastic Constant Matrix: (Units=GPa)
#
#
# Indices 1 2 3 4 5 6 
#
# 1 92.5510 71.9912 14.5862 0.0000 0.0000 0.0000
# 2 71.9912 92.5510 14.5862 0.0000 0.0000 0.0000
# 3 14.5862 14.5862 64.0089 0.0000 0.0000 0.0000
# 4 0.0000 0.0000 0.0000 30.3801 0.0000 0.0000
# 5 0.0000 0.0000 0.0000 0.0000 30.3801 0.0000
# 6 0.0000 0.0000 0.0000 0.0000 0.0000 10.6888
#
#
#
# Elastic Compliance Matrix: (Units=1/GPa)
#
#
# Indices 1 2 3 4 5 6 
#
# 1 0.027486 -0.021153 -0.001443 0.000000 0.000000 0.000000
# 2 -0.021153 0.027486 -0.001443 0.000000 0.000000 0.000000
# 3 -0.001443 -0.001443 0.016281 0.000000 0.000000 0.000000
# 4 0.000000 0.000000 0.000000 0.032916 0.000000 0.000000
# 5 0.000000 0.000000 0.000000 0.000000 0.032916 0.000000
# 6 0.000000 0.000000 0.000000 0.000000 0.000000 0.093556
#
#
# Mechanical properties :
#
#
# Convention : Reuss Voigt Hill
#
# Bulk Modulus (GPa) = 43.15117 50.15982 46.65549
# Shear Modulus (GPa) = 17.45542 24.15295 20.80418
#
# Velocity S-wave (km/s) = 2.92617 3.44207 3.19455
# Velocity P-wave (km/s) = 5.70821 6.35627 6.04094
#
# Compressibility (1/GPa) = 0.02317434
#
# Stress axis : x y z
#
# Youngs Moduli (GPa) = 36.38214 36.38214 61.42288
#
# Poissons Ratio (x) = 0.76958 0.08865
# Poissons Ratio (y) = 0.76958 0.08865
# Poissons Ratio (z) = 0.05251 0.05251
#
# Static dielectric constant tensor:
#      x y z
#    x 1.700570 0.000000 0.000000 
#    y 0.000000 1.700570 0.000000 
#    z 0.000000 0.000000 1.755790 
# 
# From -- ./inp_files/1510.got.cif
#   From: 2010.05.17/outbox.cif.g08.bks.cpg/sg137_1_cif.got.tgz:1510.got - 2010.05.20 13:01:12.
