data_PCOD9571900
_publ_section_title
;
Structure prediction by ZEFSAII (Michael W. Deem and Ramdas Pophale) SiO2 
 PCOD9571900
Probable space group: I 4/M M M
;
_chemical_formula_sum "Si O2"
_cell_formula_units_Z 160
_cell_length_a 24.357503
_cell_length_b 24.357503
_cell_length_c 14.362549
_cell_angle_alpha 90.000000
_cell_angle_beta 90.000000
_cell_angle_gamma 90.000000
_cell_volume 8521.127287
_symmetry_space_group_name_H-M "I 4/M M M"
_symmetry_group_IT_number 139
_symmetry_cell_setting 'tetragonal'
loop_
_space_group_symop_operation_xyz
x,y,z
-y,x,z
-x,-y,z
y,-x,z
x,-y,-z
-x,y,-z
y,x,-z
-y,-x,-z
-x,-y,-z
y,-x,-z
x,y,-z
-y,x,-z
-x,y,z
x,-y,z
-y,-x,z
y,x,z
1/2+x,1/2+y,1/2+z
1/2-y,1/2+x,1/2+z
1/2-x,1/2-y,1/2+z
1/2+y,1/2-x,1/2+z
1/2+x,1/2-y,1/2-z
1/2-x,1/2+y,1/2-z
1/2+y,1/2+x,1/2-z
1/2-y,1/2-x,1/2-z
1/2-x,1/2-y,1/2-z
1/2+y,1/2-x,1/2-z
1/2+x,1/2+y,1/2-z
1/2-y,1/2+x,1/2-z
1/2-x,1/2+y,1/2+z
1/2+x,1/2-y,1/2+z
1/2-y,1/2-x,1/2+z
1/2+y,1/2+x,1/2+z
loop_
_atom_site_type_symbol
_atom_site_label
_atom_site_fract_x
_atom_site_fract_y
_atom_site_fract_z
Si Si1 0.062329 0.153367 0.893544
Si Si2 0.828763 0.618785 0.604413
Si Si3 0.336303 0.754571 0.889035
Si Si4 0.936671 0.253134 0.250255
Si Si5 0.062369 0.562634 0.362055
O O1 0.105914 0.105914 0.876755
O O2 0.068149 0.201179 0.818671
O O3 0.000000 0.132167 0.887714
O O4 0.070231 0.173723 0.000000
O O5 0.807925 0.606515 0.500000
O O6 0.817183 0.682462 0.626189
O O7 0.803588 0.580843 0.684214
O O8 0.893523 0.606292 0.604444
O O9 0.289699 0.710302 0.861864
O O10 0.392379 0.747253 0.831907
O O11 0.345676 0.749060 0.000000
O O12 0.000000 0.258650 0.280785
O O13 0.076755 0.500000 0.390938
O O14 0.063018 0.563018 0.250000
O O15 0.000000 0.573839 0.391333
#
# Coordination Sequence:
#
# PCOD9571900 Si02
#       5
#    32  32  32  32  32
#     4   9  18  32  51  78 110 142 176 212 256 318
#     4  11  23  36  53  79 110 145 185 228 273 326
#     4  10  23  42  61  82 108 142 189 240 287 337
#     4  11  22  36  57  82 110 144 179 223 280 335
#     4   9  18  33  52  74 104 144 188 232 277 326
#
# _framework density 18.776858000000001
#
# number of rings (size 3 to 8) (size 9 to 14) (size 15 to 20)
#    0.000    2.000    0.000    4.200    0.000    8.200 
#    0.000    6.000    0.000    0.000    0.000    0.000 
#    0.000    0.000    0.000   18.600    0.000    0.400 
#
# Total GULP energy -446815.574655 kJ/mol
# GULP energy per Si atom -5585.194683 kJ/mol
# Density = 1.873412 g / cm^3
# Si number density = 18.776858 Si / 1000 Ang^3
#
#
#
# Elastic Constant Matrix: (Units=GPa)
#
#
# Indices 1 2 3 4 5 6 
#
# 1 80.8700 44.6809 13.5988 0.0000 0.0000 0.0000
# 2 44.6809 80.8700 13.5988 0.0000 0.0000 0.0000
# 3 13.5988 13.5988 49.5791 0.0000 0.0000 0.0000
# 4 0.0000 0.0000 0.0000 40.1466 0.0000 0.0000
# 5 0.0000 0.0000 0.0000 0.0000 40.1466 0.0000
# 6 0.0000 0.0000 0.0000 0.0000 0.0000 26.9552
#
#
#
# Elastic Compliance Matrix: (Units=1/GPa)
#
#
# Indices 1 2 3 4 5 6 
#
# 1 0.018050 -0.009582 -0.002323 0.000000 0.000000 0.000000
# 2 -0.009582 0.018050 -0.002323 0.000000 0.000000 0.000000
# 3 -0.002323 -0.002323 0.021444 0.000000 0.000000 0.000000
# 4 0.000000 0.000000 0.000000 0.024909 0.000000 0.000000
# 5 0.000000 0.000000 0.000000 0.000000 0.024909 0.000000
# 6 0.000000 0.000000 0.000000 0.000000 0.000000 0.037099
#
#
# Mechanical properties :
#
#
# Convention : Reuss Voigt Hill
#
# Bulk Modulus (GPa) = 34.37680 39.45291 36.91485
# Shear Modulus (GPa) = 27.38041 30.74571 29.06306
#
# Velocity S-wave (km/s) = 3.82278 4.05090 3.93849
# Velocity P-wave (km/s) = 6.15083 6.55262 6.35490
#
# Compressibility (1/GPa) = 0.02908939
#
# Stress axis : x y z
#
# Youngs Moduli (GPa) = 55.40064 55.40064 46.63324
#
# Poissons Ratio (x) = 0.53086 0.10831
# Poissons Ratio (y) = 0.53086 0.10831
# Poissons Ratio (z) = 0.12868 0.12868
#
# Static dielectric constant tensor:
#      x y z
#    x 1.643500 0.000000 0.000000 
#    y 0.000000 1.643500 0.000000 
#    z 0.000000 0.000000 1.672020 
# 
# From -- ./inp_files/5920.got.cif
#   From: 2010.05.17/outbox.cif.g08.bks.cpg/sg139_3_cif.got.tgz:5920.got - 2010.05.20 13:14:44.
