data_PCOD9571424
_publ_section_title
;
Structure prediction by ZEFSAII (Michael W. Deem and Ramdas Pophale) SiO2 
 PCOD9571424
Probable space group: I 4/M M M
;
_chemical_formula_sum "Si O2"
_cell_formula_units_Z 144
_cell_length_a 19.289735
_cell_length_b 19.289735
_cell_length_c 19.846414
_cell_angle_alpha 90.000000
_cell_angle_beta 90.000000
_cell_angle_gamma 90.000000
_cell_volume 7384.729117
_symmetry_space_group_name_H-M "I 4/M M M"
_symmetry_group_IT_number 139
_symmetry_cell_setting 'tetragonal'
loop_
_space_group_symop_operation_xyz
x,y,z
-y,x,z
-x,-y,z
y,-x,z
x,-y,-z
-x,y,-z
y,x,-z
-y,-x,-z
-x,-y,-z
y,-x,-z
x,y,-z
-y,x,-z
-x,y,z
x,-y,z
-y,-x,z
y,x,z
1/2+x,1/2+y,1/2+z
1/2-y,1/2+x,1/2+z
1/2-x,1/2-y,1/2+z
1/2+y,1/2-x,1/2+z
1/2+x,1/2-y,1/2-z
1/2-x,1/2+y,1/2-z
1/2+y,1/2+x,1/2-z
1/2-y,1/2-x,1/2-z
1/2-x,1/2-y,1/2-z
1/2+y,1/2-x,1/2-z
1/2+x,1/2+y,1/2-z
1/2-y,1/2+x,1/2-z
1/2-x,1/2+y,1/2+z
1/2+x,1/2-y,1/2+z
1/2-y,1/2-x,1/2+z
1/2+y,1/2+x,1/2+z
loop_
_atom_site_type_symbol
_atom_site_label
_atom_site_fract_x
_atom_site_fract_y
_atom_site_fract_z
Si Si1 0.082978 0.194013 0.000000
Si Si2 0.843659 0.577426 0.923938
Si Si3 0.424597 0.685360 0.896273
Si Si4 0.657270 0.230268 0.625732
Si Si5 0.420478 0.688555 0.264779
O O1 0.114053 0.233209 0.934530
O O2 0.117941 0.117941 0.000000
O O3 0.000000 0.193575 0.000000
O O4 0.864708 0.500000 0.898441
O O5 0.760455 0.575764 0.928146
O O6 0.853972 0.648188 0.882780
O O7 0.872040 0.585380 0.000000
O O8 0.500000 0.652531 0.907512
O O9 0.363696 0.636305 0.919422
O O10 0.417332 0.697083 0.815644
O O11 0.735244 0.264757 0.621091
O O12 0.625091 0.255642 0.695884
O O13 0.500000 0.692117 0.286193
O O14 0.385276 0.614725 0.280826
#
# Coordination Sequence:
#
# PCOD9571424 Si02
#       5
#    16  32  32  32  32
#     4  10  20  33  51  77 105 135 168 202 246 300
#     4  10  20  34  52  72  97 130 170 217 264 307
#     4   9  18  31  48  73 103 134 169 208 252 305
#     4  10  19  32  52  75 100 134 172 211 255 303
#     4   9  18  32  50  75 106 138 171 206 249 302
#
# _framework density 19.499701000000002
#
# number of rings (size 3 to 8) (size 9 to 14) (size 15 to 20)
#    0.000    2.444    1.111    1.333    0.000    2.778 
#    0.000    5.556    0.000    7.333    0.000    3.111 
#    0.000   10.667    0.000    0.000    0.000    0.000 
#
# Total GULP energy -401220.145515 kJ/mol
# GULP energy per Si atom -5572.502021 kJ/mol
# Density = 1.945532 g / cm^3
# Si number density = 19.499701 Si / 1000 Ang^3
#
#
#
# Elastic Constant Matrix: (Units=GPa)
#
#
# Indices 1 2 3 4 5 6 
#
# 1 93.4426 20.0443 19.1801 0.0000 0.0000 0.0000
# 2 20.0443 93.4426 19.1801 0.0000 0.0000 0.0000
# 3 19.1801 19.1801 37.8705 0.0000 0.0000 0.0000
# 4 0.0000 0.0000 0.0000 14.8344 0.0000 0.0000
# 5 0.0000 0.0000 0.0000 0.0000 14.8344 0.0000
# 6 0.0000 0.0000 0.0000 0.0000 0.0000 15.7001
#
#
#
# Elastic Compliance Matrix: (Units=1/GPa)
#
#
# Indices 1 2 3 4 5 6 
#
# 1 0.012128 -0.001496 -0.005385 0.000000 0.000000 0.000000
# 2 -0.001496 0.012128 -0.005385 0.000000 0.000000 0.000000
# 3 -0.005385 -0.005385 0.031860 0.000000 0.000000 0.000000
# 4 0.000000 0.000000 0.000000 0.067411 0.000000 0.000000
# 5 0.000000 0.000000 0.000000 0.000000 0.067411 0.000000
# 6 0.000000 0.000000 0.000000 0.000000 0.000000 0.063694
#
#
# Mechanical properties :
#
#
# Convention : Reuss Voigt Hill
#
# Bulk Modulus (GPa) = 31.66058 37.95164 34.80611
# Shear Modulus (GPa) = 17.25977 20.16386 18.71182
#
# Velocity S-wave (km/s) = 2.97834 3.21917 3.10109
# Velocity P-wave (km/s) = 5.30085 5.77255 5.54172
#
# Compressibility (1/GPa) = 0.03158501
#
# Stress axis : x y z
#
# Youngs Moduli (GPa) = 82.45408 82.45408 31.38740
#
# Poissons Ratio (x) = 0.12338 0.16901
# Poissons Ratio (y) = 0.12338 0.16901
# Poissons Ratio (z) = 0.44398 0.44398
#
# Static dielectric constant tensor:
#      x y z
#    x 1.692470 0.000000 0.000000 
#    y 0.000000 1.692470 0.000000 
#    z 0.000000 0.000000 1.720910 
# 
# From -- ./inp_files/8146.got.cif
#   From: 2010.05.17/outbox.cif.g08.bks.cpg/sg139_5_cif.got.tgz:8146.got - 2010.05.20 13:14:44.
