data_PCOD9571036
_publ_section_title
;
Structure prediction by ZEFSAII (Michael W. Deem and Ramdas Pophale) SiO2 
 PCOD9571036
Probable space group: P 42/N C M
;
_chemical_formula_sum "Si O2"
_cell_formula_units_Z 64
_cell_length_a 20.032465
_cell_length_b 20.032465
_cell_length_c 7.540602
_cell_angle_alpha 90.000000
_cell_angle_beta 90.000000
_cell_angle_gamma 90.000000
_cell_volume 3026.040973
_symmetry_space_group_name_H-M "P 42/N C M"
_symmetry_group_IT_number 138
_space_group.IT_coordinate_system_code '2'
_symmetry_cell_setting 'tetragonal'
loop_
_space_group_symop_operation_xyz
x,y,z
1/2-y,x,1/2+z
1/2-x,1/2-y,z
y,1/2-x,1/2+z
1/2+x,-y,1/2-z
-x,1/2+y,1/2-z
1/2+y,1/2+x,-z
-y,-x,-z
-x,-y,-z
1/2+y,-x,1/2-z
1/2+x,1/2+y,-z
-y,1/2+x,1/2-z
1/2-x,y,1/2+z
x,1/2-y,1/2+z
1/2-y,1/2-x,z
y,x,z
loop_
_atom_site_type_symbol
_atom_site_label
_atom_site_fract_x
_atom_site_fract_y
_atom_site_fract_z
Si Si1 0.991762 0.396430 0.912531
Si Si2 0.654307 0.955256 0.415537
Si Si3 0.843320 0.212925 0.817073
Si Si4 0.499326 0.705574 0.285736
O O1 0.051333 0.448668 0.945446
O O2 0.989857 0.385881 0.701635
O O3 0.926561 0.426561 0.000000
O O4 0.005374 0.331569 0.027461
O O5 0.613337 0.886664 0.393517
O O6 0.664096 0.971243 0.621209
O O7 0.726090 0.960840 0.321459
O O8 0.790673 0.178514 0.682882
O O9 0.920706 0.213110 0.762157
O O10 0.825487 0.174514 0.000000
#
# Coordination Sequence:
#
# PCOD9571036 Si02
#       4
#    16  16  16  16
#     4  10  24  43  67 100 141 180 225 289 349 414
#     4  11  25  45  69 103 137 178 239 291 352 415
#     4  11  25  41  61  97 141 180 225 275 332 417
#     4  12  24  43  73 100 133 192 229 290 350 422
#
# _framework density 21.149746
#
# number of rings (size 3 to 8) (size 9 to 14) (size 15 to 20)
#    0.000    1.000    2.500    3.750    7.000    0.000 
#    0.000    3.750    0.000    6.000    0.000    0.000 
#    0.000    0.000    0.000    0.000    0.000    0.000 
#
# Total GULP energy -357257.831670 kJ/mol
# GULP energy per Si atom -5582.153620 kJ/mol
# Density = 2.110161 g / cm^3
# Si number density = 21.149746 Si / 1000 Ang^3
#
#
#
# Elastic Constant Matrix: (Units=GPa)
#
#
# Indices 1 2 3 4 5 6 
#
# 1 67.6864 48.8099 12.6810 0.0000 0.0000 0.0000
# 2 48.8099 67.6867 12.6813 0.0000 0.0000 0.0000
# 3 12.6810 12.6813 91.5577 0.0000 0.0000 0.0000
# 4 0.0000 0.0000 0.0000 16.6737 0.0000 0.0000
# 5 0.0000 0.0000 0.0000 0.0000 16.6740 0.0000
# 6 0.0000 0.0000 0.0000 0.0000 0.0000 27.4550
#
#
#
# Elastic Compliance Matrix: (Units=1/GPa)
#
#
# Indices 1 2 3 4 5 6 
#
# 1 0.030913 -0.022062 -0.001226 0.000000 0.000000 0.000000
# 2 -0.022062 0.030913 -0.001226 0.000000 0.000000 0.000000
# 3 -0.001226 -0.001226 0.011262 0.000000 0.000000 0.000000
# 4 0.000000 0.000000 0.000000 0.059975 0.000000 0.000000
# 5 0.000000 0.000000 0.000000 0.000000 0.059974 0.000000
# 6 0.000000 0.000000 0.000000 0.000000 0.000000 0.036423
#
#
# Mechanical properties :
#
#
# Convention : Reuss Voigt Hill
#
# Bulk Modulus (GPa) = 41.56308 41.69723 41.63016
# Shear Modulus (GPa) = 17.45153 22.34444 19.89799
#
# Velocity S-wave (km/s) = 2.87564 3.25389 3.07060
# Velocity P-wave (km/s) = 5.54258 5.82023 5.68310
#
# Compressibility (1/GPa) = 0.02405981
#
# Stress axis : x y z
#
# Youngs Moduli (GPa) = 32.34863 32.34871 88.79691
#
# Poissons Ratio (x) = 0.71369 0.10885
# Poissons Ratio (y) = 0.71369 0.10886
# Poissons Ratio (z) = 0.03965 0.03966
#
# Static dielectric constant tensor:
#      x y z
#    x 1.897230 0.000000 0.000000 
#    y 0.000000 1.897230 0.000000 
#    z 0.000000 0.000000 1.793230 
# 
# From -- ./inp_files/1387.got.cif
#   From: 2010.05.17/outbox.cif.g08.bks.cpg/sg138_1_cif.got.tgz:1387.got - 2010.05.20 13:08:53.
