data_PCOD9571773
_publ_section_title
;
Structure prediction by ZEFSAII (Michael W. Deem and Ramdas Pophale) SiO2 
 PCOD9571773
Probable space group: I 4/M M M
;
_chemical_formula_sum "Si O2"
_cell_formula_units_Z 160
_cell_length_a 21.551148
_cell_length_b 21.551148
_cell_length_c 19.196756
_cell_angle_alpha 90.000000
_cell_angle_beta 90.000000
_cell_angle_gamma 90.000000
_cell_volume 8915.971336
_symmetry_space_group_name_H-M "I 4/M M M"
_symmetry_group_IT_number 139
_symmetry_cell_setting 'tetragonal'
loop_
_space_group_symop_operation_xyz
x,y,z
-y,x,z
-x,-y,z
y,-x,z
x,-y,-z
-x,y,-z
y,x,-z
-y,-x,-z
-x,-y,-z
y,-x,-z
x,y,-z
-y,x,-z
-x,y,z
x,-y,z
-y,-x,z
y,x,z
1/2+x,1/2+y,1/2+z
1/2-y,1/2+x,1/2+z
1/2-x,1/2-y,1/2+z
1/2+y,1/2-x,1/2+z
1/2+x,1/2-y,1/2-z
1/2-x,1/2+y,1/2-z
1/2+y,1/2+x,1/2-z
1/2-y,1/2-x,1/2-z
1/2-x,1/2-y,1/2-z
1/2+y,1/2-x,1/2-z
1/2+x,1/2+y,1/2-z
1/2-y,1/2+x,1/2-z
1/2-x,1/2+y,1/2+z
1/2+x,1/2-y,1/2+z
1/2-y,1/2-x,1/2+z
1/2+y,1/2+x,1/2+z
loop_
_atom_site_type_symbol
_atom_site_label
_atom_site_fract_x
_atom_site_fract_y
_atom_site_fract_z
Si Si1 0.366608 0.866608 0.250000
Si Si2 0.331248 0.000000 0.576048
Si Si3 0.073583 0.751524 0.923185
Si Si4 0.000000 0.215186 0.321191
Si Si5 0.571787 0.106978 0.393955
Si Si6 0.619810 0.277397 0.730393
Si Si7 0.399945 0.500000 0.916693
O O1 0.410762 0.885654 0.313094
O O2 0.372870 0.792784 0.241739
O O3 0.377475 0.058817 0.579094
O O4 0.299284 0.000000 0.500000
O O5 0.283036 0.000000 0.640856
O O6 0.079132 0.676577 0.922919
O O7 0.107073 0.774721 0.853088
O O8 0.000000 0.765210 0.916261
O O9 0.094475 0.774026 0.000000
O O10 0.940947 0.202335 0.272376
O O11 0.000000 0.166473 0.383170
O O12 0.500000 0.087791 0.404659
O O13 0.678212 0.321789 0.743992
O O14 0.440090 0.440090 0.895481
O O15 0.396530 0.500000 0.000000
#
# Coordination Sequence:
#
# PCOD9571773 Si02
#       7
#    16  16  32  16  32  32  16
#     4  10  21  38  57  84 116 146 192 233 285 332
#     4  12  24  37  54  82 119 157 193 230 277 336
#     4   9  18  35  57  82 113 147 186 233 279 330
#     4  12  22  39  55  89 117 151 190 238 285 343
#     4  10  21  34  56  83 116 151 190 233 276 324
#     4  11  22  37  60  84 113 150 189 235 285 340
#     4   9  19  38  64  89 112 144 188 239 297 356
#
# _framework density 17.945325
#
# number of rings (size 3 to 8) (size 9 to 14) (size 15 to 20)
#    0.000    1.700    3.000    2.400    2.800    2.000 
#    0.000    0.000    0.000    0.000    0.000    0.000 
#    0.000    1.600    0.000    0.000    0.000    0.000 
#
# Total GULP energy -445882.535513 kJ/mol
# GULP energy per Si atom -5573.531694 kJ/mol
# Density = 1.790448 g / cm^3
# Si number density = 17.945325 Si / 1000 Ang^3
#
#
#
# Elastic Constant Matrix: (Units=GPa)
#
#
# Indices 1 2 3 4 5 6 
#
# 1 61.5758 14.9446 19.0029 0.0000 0.0000 0.0000
# 2 14.9446 61.5758 19.0029 0.0000 0.0000 0.0000
# 3 19.0029 19.0029 77.6789 0.0000 0.0000 0.0000
# 4 0.0000 0.0000 0.0000 -32.1241 0.0000 0.0000
# 5 0.0000 0.0000 0.0000 0.0000 -32.1241 0.0000
# 6 0.0000 0.0000 0.0000 0.0000 0.0000 10.9239
#
#
#
# Elastic Compliance Matrix: (Units=1/GPa)
#
#
# Indices 1 2 3 4 5 6 
#
# 1 0.018160 -0.003284 -0.003639 0.000000 0.000000 0.000000
# 2 -0.003284 0.018160 -0.003639 0.000000 0.000000 0.000000
# 3 -0.003639 -0.003639 0.014654 0.000000 0.000000 0.000000
# 4 0.000000 0.000000 0.000000 -0.031129 0.000000 0.000000
# 5 0.000000 0.000000 0.000000 0.000000 -0.031129 0.000000
# 6 0.000000 0.000000 0.000000 0.000000 0.000000 0.091542
#
#
# Mechanical properties :
#
#
# Convention : Reuss Voigt Hill
#
# Bulk Modulus (GPa) = 33.50172 34.08125 33.79148
# Shear Modulus (GPa) = 44.90987 -0.80621 22.05183
#
# Velocity S-wave (km/s) = 5.00802 -0.67099 3.50928
# Velocity P-wave (km/s) = 7.22147 4.29332 5.94064
#
# Compressibility (1/GPa) = 0.02984921
#
# Stress axis : x y z
#
# Youngs Moduli (GPa) = 55.06494 55.06494 68.24057
#
# Poissons Ratio (x) = 0.18086 0.24834
# Poissons Ratio (y) = 0.18086 0.24834
# Poissons Ratio (z) = 0.20039 0.20039
#
# Static dielectric constant tensor:
#      x y z
#    x 1.606710 0.000000 0.000000 
#    y 0.000000 1.606710 0.000000 
#    z 0.000000 0.000000 1.659690 
# 
# From -- ./inp_files/8499.got.cif
#   From: 2010.05.17/outbox.cif.g08.bks.cpg/sg139_5_cif.got.tgz:8499.got - 2010.05.20 13:14:44.
