data_PCOD9571172
_publ_section_title
;
Structure prediction by ZEFSAII (Michael W. Deem and Ramdas Pophale) SiO2 
 PCOD9571172
Probable space group: I 4/M M M
;
_chemical_formula_sum "Si O2"
_cell_formula_units_Z 160
_cell_length_a 22.450293
_cell_length_b 22.450293
_cell_length_c 16.228714
_cell_angle_alpha 90.000000
_cell_angle_beta 90.000000
_cell_angle_gamma 90.000000
_cell_volume 8179.525929
_symmetry_space_group_name_H-M "I 4/M M M"
_symmetry_group_IT_number 139
_symmetry_cell_setting 'tetragonal'
loop_
_space_group_symop_operation_xyz
x,y,z
-y,x,z
-x,-y,z
y,-x,z
x,-y,-z
-x,y,-z
y,x,-z
-y,-x,-z
-x,-y,-z
y,-x,-z
x,y,-z
-y,x,-z
-x,y,z
x,-y,z
-y,-x,z
y,x,z
1/2+x,1/2+y,1/2+z
1/2-y,1/2+x,1/2+z
1/2-x,1/2-y,1/2+z
1/2+y,1/2-x,1/2+z
1/2+x,1/2-y,1/2-z
1/2-x,1/2+y,1/2-z
1/2+y,1/2+x,1/2-z
1/2-y,1/2-x,1/2-z
1/2-x,1/2-y,1/2-z
1/2+y,1/2-x,1/2-z
1/2+x,1/2+y,1/2-z
1/2-y,1/2+x,1/2-z
1/2-x,1/2+y,1/2+z
1/2+x,1/2-y,1/2+z
1/2-y,1/2-x,1/2+z
1/2+y,1/2+x,1/2+z
loop_
_atom_site_type_symbol
_atom_site_label
_atom_site_fract_x
_atom_site_fract_y
_atom_site_fract_z
Si Si1 0.266371 0.266371 0.404462
Si Si2 0.430677 0.569324 0.764223
Si Si3 0.850763 0.664358 0.594239
Si Si4 0.131020 0.131020 0.598554
Si Si5 0.247636 0.068910 0.673333
Si Si6 0.431881 0.248986 0.629442
Si Si7 0.645930 0.354071 0.637271
O O1 0.282653 0.282653 0.500000
O O2 0.283903 0.198788 0.396082
O O3 0.304299 0.304299 0.338819
O O4 0.418368 0.500000 0.747935
O O5 0.414755 0.585246 0.857933
O O6 0.389967 0.610034 0.705851
O O7 0.871269 0.662425 0.500000
O O8 0.904091 0.687673 0.650377
O O9 0.810619 0.605928 0.610702
O O10 0.131373 0.131373 0.500000
O O11 0.194778 0.107342 0.632017
O O12 0.241738 0.070316 0.771911
O O13 0.242391 0.000000 0.646657
O O14 0.500000 0.243279 0.603353
O O15 0.400927 0.309068 0.594558
#
# Coordination Sequence:
#
# PCOD9571172 Si02
#       7
#    16  16  32  16  32  32  16
#     4   8  17  32  52  81 112 138 171 227 290 341
#     4  11  22  35  51  72 105 152 197 233 267 312
#     4  10  20  34  54  82 113 144 182 230 287 342
#     4  12  24  37  54  79 111 147 189 234 278 325
#     4  11  22  37  57  81 112 151 192 233 278 330
#     4  10  20  35  57  82 112 149 188 231 277 332
#     4  10  17  32  56  80 108 144 186 226 271 322
#
# _framework density 19.561035
#
# number of rings (size 3 to 8) (size 9 to 14) (size 15 to 20)
#    0.000    1.700    2.000    3.000    0.000    4.000 
#    0.000    4.500    0.000    2.400    0.000    4.900 
#    0.000    0.000    0.000    0.000    0.000    0.000 
#
# Total GULP energy -445969.948344 kJ/mol
# GULP energy per Si atom -5574.624354 kJ/mol
# Density = 1.951651 g / cm^3
# Si number density = 19.561035 Si / 1000 Ang^3
#
#
#
# Elastic Constant Matrix: (Units=GPa)
#
#
# Indices 1 2 3 4 5 6 
#
# 1 88.7921 83.1046 28.1938 0.0000 0.0000 0.0000
# 2 83.1046 88.7921 28.1938 0.0000 0.0000 0.0000
# 3 28.1938 28.1938 74.8353 0.0000 0.0000 0.0000
# 4 0.0000 0.0000 0.0000 9.6497 0.0000 0.0000
# 5 0.0000 0.0000 0.0000 0.0000 9.6497 0.0000
# 6 0.0000 0.0000 0.0000 0.0000 0.0000 29.9960
#
#
#
# Elastic Compliance Matrix: (Units=1/GPa)
#
#
# Indices 1 2 3 4 5 6 
#
# 1 0.091231 -0.084593 -0.002501 0.000000 0.000000 0.000000
# 2 -0.084593 0.091231 -0.002501 0.000000 0.000000 0.000000
# 3 -0.002501 -0.002501 0.015247 0.000000 0.000000 0.000000
# 4 0.000000 0.000000 0.000000 0.103630 0.000000 0.000000
# 5 0.000000 0.000000 0.000000 0.000000 0.103630 0.000000
# 6 0.000000 0.000000 0.000000 0.000000 0.000000 0.033338
#
#
# Mechanical properties :
#
#
# Convention : Reuss Voigt Hill
#
# Bulk Modulus (GPa) = 53.99705 59.04488 56.52096
# Shear Modulus (GPa) = 8.01707 17.38758 12.70233
#
# Velocity S-wave (km/s) = 2.02667 2.98466 2.55104
# Velocity P-wave (km/s) = 5.75681 6.49061 6.13469
#
# Compressibility (1/GPa) = 0.01851953
#
# Stress axis : x y z
#
# Youngs Moduli (GPa) = 10.96118 10.96118 65.58682
#
# Poissons Ratio (x) = 0.92724 0.16402
# Poissons Ratio (y) = 0.92724 0.16402
# Poissons Ratio (z) = 0.02741 0.02741
#
# Static dielectric constant tensor:
#      x y z
#    x 1.707330 0.000000 0.000000 
#    y 0.000000 1.707330 0.000000 
#    z 0.000000 0.000000 1.714400 
# 
# From -- ./inp_files/8505.got.cif
#   From: 2010.05.17/outbox.cif.g08.bks.cpg/sg139_5_cif.got.tgz:8505.got - 2010.05.20 13:14:44.
