data_PCOD9571241
_publ_section_title
;
Structure prediction by ZEFSAII (Michael W. Deem and Ramdas Pophale) SiO2 
 PCOD9571241
Probable space group: I 4/M M M
;
_chemical_formula_sum "Si O2"
_cell_formula_units_Z 144
_cell_length_a 21.549737
_cell_length_b 21.549737
_cell_length_c 18.579340
_cell_angle_alpha 90.000000
_cell_angle_beta 90.000000
_cell_angle_gamma 90.000000
_cell_volume 8628.081343
_symmetry_space_group_name_H-M "I 4/M M M"
_symmetry_group_IT_number 139
_symmetry_cell_setting 'tetragonal'
loop_
_space_group_symop_operation_xyz
x,y,z
-y,x,z
-x,-y,z
y,-x,z
x,-y,-z
-x,y,-z
y,x,-z
-y,-x,-z
-x,-y,-z
y,-x,-z
x,y,-z
-y,x,-z
-x,y,z
x,-y,z
-y,-x,z
y,x,z
1/2+x,1/2+y,1/2+z
1/2-y,1/2+x,1/2+z
1/2-x,1/2-y,1/2+z
1/2+y,1/2-x,1/2+z
1/2+x,1/2-y,1/2-z
1/2-x,1/2+y,1/2-z
1/2+y,1/2+x,1/2-z
1/2-y,1/2-x,1/2-z
1/2-x,1/2-y,1/2-z
1/2+y,1/2-x,1/2-z
1/2+x,1/2+y,1/2-z
1/2-y,1/2+x,1/2-z
1/2-x,1/2+y,1/2+z
1/2+x,1/2-y,1/2+z
1/2-y,1/2-x,1/2+z
1/2+y,1/2+x,1/2+z
loop_
_atom_site_type_symbol
_atom_site_label
_atom_site_fract_x
_atom_site_fract_y
_atom_site_fract_z
Si Si1 0.163279 0.736056 0.812786
Si Si2 0.572553 0.669157 0.765891
Si Si3 0.223202 0.927195 0.421154
Si Si4 0.000000 0.427335 0.587379
Si Si5 0.373343 0.859639 0.916519
O O1 0.217360 0.782641 0.841778
O O2 0.195711 0.695711 0.750000
O O3 0.110964 0.778930 0.776911
O O4 0.134045 0.688423 0.869614
O O5 0.500000 0.672112 0.750802
O O6 0.603486 0.603486 0.748331
O O7 0.582621 0.682465 0.850881
O O8 0.194868 0.914524 0.500000
O O9 0.286448 0.889002 0.415082
O O10 0.241016 0.000000 0.420662
O O11 0.064428 0.394759 0.610957
O O12 0.000000 0.500000 0.606146
O O13 0.000000 0.421764 0.500000
O O14 0.363664 0.877995 0.000000
#
# Coordination Sequence:
#
# PCOD9571241 Si02
#       5
#    32  32  32  16  32
#     4  10  20  34  50  72 103 136 169 210 261 305
#     4  10  21  36  54  75 100 134 171 213 264 312
#     4   9  16  28  48  74 102 134 174 208 241 293
#     4   9  18  32  50  74 104 138 174 208 244 292
#     4  10  18  30  52  76 102 138 174 208 247 293
#
# _framework density 16.689689000000001
#
# number of rings (size 3 to 8) (size 9 to 14) (size 15 to 20)
#    0.000    2.333    3.333    0.000    0.000    2.000 
#    0.000    2.222    0.000    0.000    0.000    3.111 
#    0.000    0.000    0.000    4.889    0.000    0.000 
#
# Total GULP energy -401134.065661 kJ/mol
# GULP energy per Si atom -5571.306468 kJ/mol
# Density = 1.665170 g / cm^3
# Si number density = 16.689689 Si / 1000 Ang^3
#
#
#
# Elastic Constant Matrix: (Units=GPa)
#
#
# Indices 1 2 3 4 5 6 
#
# 1 87.6854 63.1433 36.8350 0.0000 0.0000 0.0000
# 2 63.1433 87.6854 36.8350 0.0000 0.0000 0.0000
# 3 36.8350 36.8350 53.6763 0.0000 0.0000 0.0000
# 4 0.0000 0.0000 0.0000 17.1077 0.0000 0.0000
# 5 0.0000 0.0000 0.0000 0.0000 17.1077 0.0000
# 6 0.0000 0.0000 0.0000 0.0000 0.0000 15.3889
#
#
#
# Elastic Compliance Matrix: (Units=1/GPa)
#
#
# Indices 1 2 3 4 5 6 
#
# 1 0.025360 -0.015387 -0.006844 0.000000 0.000000 0.000000
# 2 -0.015387 0.025360 -0.006844 0.000000 0.000000 0.000000
# 3 -0.006844 -0.006844 0.028023 0.000000 0.000000 0.000000
# 4 0.000000 0.000000 0.000000 0.058453 0.000000 0.000000
# 5 0.000000 0.000000 0.000000 0.000000 0.058453 0.000000
# 6 0.000000 0.000000 0.000000 0.000000 0.000000 0.064982
#
#
# Mechanical properties :
#
#
# Convention : Reuss Voigt Hill
#
# Bulk Modulus (GPa) = 48.55857 55.85266 52.20561
# Shear Modulus (GPa) = 15.35421 16.06979 15.71200
#
# Velocity S-wave (km/s) = 3.03641 3.10636 3.07158
# Velocity P-wave (km/s) = 6.43826 6.81205 6.62779
#
# Compressibility (1/GPa) = 0.02059369
#
# Stress axis : x y z
#
# Youngs Moduli (GPa) = 39.43291 39.43291 35.68478
#
# Poissons Ratio (x) = 0.60674 0.24422
# Poissons Ratio (y) = 0.60674 0.24422
# Poissons Ratio (z) = 0.26987 0.26987
#
# Static dielectric constant tensor:
#      x y z
#    x 1.570270 0.000000 0.000000 
#    y 0.000000 1.570270 0.000000 
#    z 0.000000 0.000000 1.574320 
# 
# From -- ./inp_files/8179.got.cif
#   From: 2010.05.17/outbox.cif.g08.bks.cpg/sg139_5_cif.got.tgz:8179.got - 2010.05.20 13:14:44.
