data_PCOD9571960
_publ_section_title
;
Structure prediction by ZEFSAII (Michael W. Deem and Ramdas Pophale) SiO2 
 PCOD9571960
Probable space group: I 4/M M M
;
_chemical_formula_sum "Si O2"
_cell_formula_units_Z 88
_cell_length_a 27.000000
_cell_length_b 27.000000
_cell_length_c 15.000000
_cell_angle_alpha 90.000000
_cell_angle_beta 90.000000
_cell_angle_gamma 90.000000
_cell_volume 10935.000000
_symmetry_space_group_name_H-M "I 4/M M M"
_symmetry_group_IT_number 139
_symmetry_cell_setting 'tetragonal'
loop_
_space_group_symop_operation_xyz
x,y,z
-y,x,z
-x,-y,z
y,-x,z
x,-y,-z
-x,y,-z
y,x,-z
-y,-x,-z
-x,-y,-z
y,-x,-z
x,y,-z
-y,x,-z
-x,y,z
x,-y,z
-y,-x,z
y,x,z
1/2+x,1/2+y,1/2+z
1/2-y,1/2+x,1/2+z
1/2-x,1/2-y,1/2+z
1/2+y,1/2-x,1/2+z
1/2+x,1/2-y,1/2-z
1/2-x,1/2+y,1/2-z
1/2+y,1/2+x,1/2-z
1/2-y,1/2-x,1/2-z
1/2-x,1/2-y,1/2-z
1/2+y,1/2-x,1/2-z
1/2+x,1/2+y,1/2-z
1/2-y,1/2+x,1/2-z
1/2-x,1/2+y,1/2+z
1/2+x,1/2-y,1/2+z
1/2-y,1/2-x,1/2+z
1/2+y,1/2+x,1/2+z
loop_
_atom_site_type_symbol
_atom_site_label
_atom_site_fract_x
_atom_site_fract_y
_atom_site_fract_z
Si Si1 0.841985 0.841985 0.398633
Si Si2 0.627838 0.372163 0.711858
Si Si3 0.110693 0.265586 0.397759
Si Si4 0.316516 0.557311 0.400769
Si Si5 0.807194 0.650082 0.395536
Si Si6 0.716738 0.941897 0.213210
Si Si7 0.201865 0.201865 0.892471
O O1 0.856129 0.856129 0.500000
O O2 0.869162 0.869162 0.317421
O O3 0.855951 0.784144 0.388438
O O4 0.577231 0.356173 0.667969
O O5 0.666797 0.333204 0.666880
O O6 0.090165 0.264643 0.500000
O O7 0.146896 0.312511 0.390484
O O8 0.072701 0.269043 0.314926
O O9 0.317451 0.580803 0.500000
O O10 0.324488 0.500000 0.412039
O O11 0.264290 0.563219 0.351591
O O12 0.802100 0.634301 0.500000
O O13 0.815039 0.603016 0.330279
O O14 0.757812 0.682753 0.372509
O O15 0.700366 0.000000 0.209161
O O16 0.196708 0.196708 0.000000
#
# Coordination Sequence:
#
# PCOD9571960 Si02
#       7
#    16  16  32  32  32  32  16
#     4  10  19  32  48  72 102 133 166 202 235 274
#     4  12  18  30  51  68  93 129 163 204 246 291
#     4  10  20  34  50  69  97 133 167 199 237 282
#     4  10  20  32  47  69  95 124 161 204 250 298
#     4  10  19  31  49  72  99 128 161 199 240 290
#     4  11  21  32  46  67  98 132 164 199 237 283
#     4  10  17  26  44  73  98 123 156 190 234 287
#
# _framework density 8.0475539999999999
#
# number of rings (size 3 to 8) (size 9 to 14) (size 15 to 20)
#    0.000    1.636    3.636    2.455    0.000    3.636 
#    0.000    2.727    0.000    0.818    0.000    1.273 
#    0.000    5.818    0.000   16.818    0.000    0.091 
#
# Total GULP energy -490033.271408 kJ/mol
# GULP energy per Si atom -5568.559902 kJ/mol
# Density = 0.802924 g / cm^3
# Si number density = 8.047554 Si / 1000 Ang^3
#
#
#
# Elastic Constant Matrix: (Units=GPa)
#
#
# Indices 1 2 3 4 5 6 
#
# 1 35.4570 21.6573 28.7552 0.0000 0.0000 0.0000
# 2 21.6573 35.4570 28.7552 0.0000 0.0000 0.0000
# 3 28.7552 28.7552 127.1928 0.0000 0.0000 0.0000
# 4 0.0000 0.0000 0.0000 25.0423 0.0000 0.0000
# 5 0.0000 0.0000 0.0000 0.0000 25.0423 0.0000
# 6 0.0000 0.0000 0.0000 0.0000 0.0000 9.1009
#
#
#
# Elastic Compliance Matrix: (Units=1/GPa)
#
#
# Indices 1 2 3 4 5 6 
#
# 1 0.047567 -0.024898 -0.005125 0.000000 0.000000 0.000000
# 2 -0.024898 0.047567 -0.005125 0.000000 0.000000 0.000000
# 3 -0.005125 -0.005125 0.010179 0.000000 0.000000 0.000000
# 4 0.000000 0.000000 0.000000 0.039932 0.000000 0.000000
# 5 0.000000 0.000000 0.000000 0.000000 0.039932 0.000000
# 6 0.000000 0.000000 0.000000 0.000000 0.000000 0.109879
#
#
# Mechanical properties :
#
#
# Convention : Reuss Voigt Hill
#
# Bulk Modulus (GPa) = 28.55674 39.60466 34.08070
# Shear Modulus (GPa) = 13.26166 19.76639 16.51402
#
# Velocity S-wave (km/s) = 2.87358 3.50823 3.20664
# Velocity P-wave (km/s) = 5.36572 6.40861 5.91021
#
# Compressibility (1/GPa) = 0.03501800
#
# Stress axis : x y z
#
# Youngs Moduli (GPa) = 21.02277 21.02277 98.23826
#
# Poissons Ratio (x) = 0.52343 0.50347
# Poissons Ratio (y) = 0.52343 0.50347
# Poissons Ratio (z) = 0.10774 0.10774
#
# Static dielectric constant tensor:
#      x y z
#    x 1.564210 0.000000 0.000000 
#    y 0.000000 1.564210 0.000000 
#    z 0.000000 0.000000 1.567090 
# 
# From -- ./inp_files/6432.got.cif
#   From: 2010.05.17/outbox.ucp.g08.bks.cvg/sg139_4_cif.got.tgz:6432.got - 2010.06.11 11:42:03.
