data_PCOD9571892
_publ_section_title
;
Structure prediction by ZEFSAII (Michael W. Deem and Ramdas Pophale) SiO2 
 PCOD9571892
Probable space group: I 4/M M M
;
_chemical_formula_sum "Si O2"
_cell_formula_units_Z 160
_cell_length_a 21.958406
_cell_length_b 21.958406
_cell_length_c 16.764841
_cell_angle_alpha 90.000000
_cell_angle_beta 90.000000
_cell_angle_gamma 90.000000
_cell_volume 8083.530109
_symmetry_space_group_name_H-M "I 4/M M M"
_symmetry_group_IT_number 139
_symmetry_cell_setting 'tetragonal'
loop_
_space_group_symop_operation_xyz
x,y,z
-y,x,z
-x,-y,z
y,-x,z
x,-y,-z
-x,y,-z
y,x,-z
-y,-x,-z
-x,-y,-z
y,-x,-z
x,y,-z
-y,x,-z
-x,y,z
x,-y,z
-y,-x,z
y,x,z
1/2+x,1/2+y,1/2+z
1/2-y,1/2+x,1/2+z
1/2-x,1/2-y,1/2+z
1/2+y,1/2-x,1/2+z
1/2+x,1/2-y,1/2-z
1/2-x,1/2+y,1/2-z
1/2+y,1/2+x,1/2-z
1/2-y,1/2-x,1/2-z
1/2-x,1/2-y,1/2-z
1/2+y,1/2-x,1/2-z
1/2+x,1/2+y,1/2-z
1/2-y,1/2+x,1/2-z
1/2-x,1/2+y,1/2+z
1/2+x,1/2-y,1/2+z
1/2-y,1/2-x,1/2+z
1/2+y,1/2+x,1/2+z
loop_
_atom_site_type_symbol
_atom_site_label
_atom_site_fract_x
_atom_site_fract_y
_atom_site_fract_z
Si Si1 0.132524 0.613622 0.408828
Si Si2 0.826923 0.926879 0.500000
Si Si3 0.500000 0.929986 0.095993
Si Si4 0.568398 0.773571 0.282326
Si Si5 0.331054 0.567853 0.412040
Si Si6 0.750694 0.147336 0.628896
O O1 0.139765 0.589712 0.500000
O O2 0.169518 0.579612 0.340229
O O3 0.154101 0.683733 0.408406
O O4 0.061615 0.606218 0.385116
O O5 0.892156 0.892156 0.500000
O O6 0.789564 0.900514 0.424091
O O7 0.830649 0.000000 0.500000
O O8 0.500000 0.000000 0.127015
O O9 0.500000 0.934630 0.000000
O O10 0.500000 0.776130 0.248136
O O11 0.572702 0.717137 0.342580
O O12 0.618434 0.763328 0.214851
O O13 0.301804 0.575403 0.500000
O O14 0.357671 0.500000 0.409578
O O15 0.382551 0.617450 0.403636
O O16 0.791143 0.208858 0.632048
#
# Coordination Sequence:
#
# PCOD9571892 Si02
#       6
#    32  16  16  32  32  32
#     4  11  23  39  64  90 123 166 205 259 316 378
#     4  10  22  41  68  94 124 164 208 266 323 385
#     4   9  20  38  62  92 122 161 209 257 311 379
#     4  11  23  38  60  88 120 158 202 255 311 370
#     4   9  18  33  53  80 114 152 194 239 294 359
#     4  11  24  42  62  89 123 163 211 257 316 385
#
# _framework density 19.793331999999999
#
# number of rings (size 3 to 8) (size 9 to 14) (size 15 to 20)
#    0.000    1.700    1.000    3.000    2.800    4.700 
#    0.000    1.000    0.000    0.000    0.000    2.800 
#    0.000    0.000    0.000    0.000    0.000    0.000 
#
# Total GULP energy -446652.309020 kJ/mol
# GULP energy per Si atom -5583.153863 kJ/mol
# Density = 1.974828 g / cm^3
# Si number density = 19.793332 Si / 1000 Ang^3
#
#
#
# Elastic Constant Matrix: (Units=GPa)
#
#
# Indices 1 2 3 4 5 6 
#
# 1 71.7913 17.0444 15.9897 0.0000 0.0000 0.0000
# 2 17.0444 71.7913 15.9897 0.0000 0.0000 0.0000
# 3 15.9897 15.9897 77.6677 0.0000 0.0000 0.0000
# 4 0.0000 0.0000 0.0000 21.1154 0.0000 0.0000
# 5 0.0000 0.0000 0.0000 0.0000 21.1154 0.0000
# 6 0.0000 0.0000 0.0000 0.0000 0.0000 37.2075
#
#
#
# Elastic Compliance Matrix: (Units=1/GPa)
#
#
# Indices 1 2 3 4 5 6 
#
# 1 0.015212 -0.003054 -0.002503 0.000000 0.000000 0.000000
# 2 -0.003054 0.015212 -0.002503 0.000000 0.000000 0.000000
# 3 -0.002503 -0.002503 0.013906 0.000000 0.000000 0.000000
# 4 0.000000 0.000000 0.000000 0.047359 0.000000 0.000000
# 5 0.000000 0.000000 0.000000 0.000000 0.047359 0.000000
# 6 0.000000 0.000000 0.000000 0.000000 0.000000 0.026876
#
#
# Mechanical properties :
#
#
# Convention : Reuss Voigt Hill
#
# Bulk Modulus (GPa) = 35.44889 35.47756 35.46322
# Shear Modulus (GPa) = 26.11693 27.36942 26.74317
#
# Velocity S-wave (km/s) = 3.63641 3.72258 3.67975
# Velocity P-wave (km/s) = 5.96487 6.03653 6.00081
#
# Compressibility (1/GPa) = 0.02820963
#
# Stress axis : x y z
#
# Youngs Moduli (GPa) = 65.73841 65.73841 71.91172
#
# Poissons Ratio (x) = 0.20077 0.17999
# Poissons Ratio (y) = 0.20077 0.17999
# Poissons Ratio (z) = 0.16454 0.16454
#
# Static dielectric constant tensor:
#      x y z
#    x 1.684880 0.000000 0.000000 
#    y 0.000000 1.684880 0.000000 
#    z 0.000000 0.000000 1.723760 
# 
# From -- ./inp_files/8428.got.cif
#   From: 2010.05.17/outbox.cif.g08.bks.cpg/sg139_5_cif.got.tgz:8428.got - 2010.05.20 13:14:44.
