data_PCOD9571084
_publ_section_title
;
Structure prediction by ZEFSAII (Michael W. Deem and Ramdas Pophale) SiO2 
 PCOD9571084
Probable space group: P 42/N C M
;
_chemical_formula_sum "Si O2"
_cell_formula_units_Z 64
_cell_length_a 12.183044
_cell_length_b 12.183044
_cell_length_c 20.709349
_cell_angle_alpha 90.000000
_cell_angle_beta 90.000000
_cell_angle_gamma 90.000000
_cell_volume 3073.817455
_symmetry_space_group_name_H-M "P 42/N C M"
_symmetry_group_IT_number 138
_space_group.IT_coordinate_system_code '2'
_symmetry_cell_setting 'tetragonal'
loop_
_space_group_symop_operation_xyz
x,y,z
1/2-y,x,1/2+z
1/2-x,1/2-y,z
y,1/2-x,1/2+z
1/2+x,-y,1/2-z
-x,1/2+y,1/2-z
1/2+y,1/2+x,-z
-y,-x,-z
-x,-y,-z
1/2+y,-x,1/2-z
1/2+x,1/2+y,-z
-y,1/2+x,1/2-z
1/2-x,y,1/2+z
x,1/2-y,1/2+z
1/2-y,1/2-x,z
y,x,z
loop_
_atom_site_type_symbol
_atom_site_label
_atom_site_fract_x
_atom_site_fract_y
_atom_site_fract_z
Si Si1 0.511561 0.693426 0.617297
Si Si2 0.081552 0.783764 0.343407
Si Si3 0.931751 0.254937 0.513264
Si Si4 0.956855 0.376011 0.291646
O O1 0.593508 0.593508 0.629805
O O2 0.386262 0.657431 0.634553
O O3 0.517776 0.729774 0.542767
O O4 0.526609 0.797144 0.662644
O O5 0.029220 0.751937 0.412691
O O6 0.023643 0.835037 0.281117
O O7 0.129711 0.670570 0.313607
O O8 0.869500 0.369500 0.500000
O O9 0.838578 0.161423 0.500000
O O10 0.000604 0.499397 0.297688
#
# Coordination Sequence:
#
# PCOD9571084 Si02
#       4
#    16  16  16  16
#     4  11  23  40  66  97 130 169 211 266 328 382
#     4  11  22  39  65  92 126 165 217 266 313 379
#     4   9  18  34  62  96 127 158 207 270 317 372
#     4  12  25  39  63  95 130 171 213 263 319 385
#
# _framework density 20.821016
#
# number of rings (size 3 to 8) (size 9 to 14) (size 15 to 20)
#    0.000    1.250    5.000    1.500    0.000    6.000 
#    0.000    2.500    0.000    2.250    0.000    3.500 
#    0.000    0.000    0.000    0.000    0.000    0.000 
#
# Total GULP energy -356350.590058 kJ/mol
# GULP energy per Si atom -5567.977970 kJ/mol
# Density = 2.077363 g / cm^3
# Si number density = 20.821016 Si / 1000 Ang^3
#
#
#
# Elastic Constant Matrix: (Units=GPa)
#
#
# Indices 1 2 3 4 5 6 
#
# 1 65.2099 45.1085 29.6913 0.0000 0.0000 0.0000
# 2 45.1085 65.2103 29.6908 0.0000 0.0000 0.0000
# 3 29.6913 29.6908 188.3703 0.0000 0.0000 0.0000
# 4 0.0000 0.0000 0.0000 -3.7489 0.0000 0.0000
# 5 0.0000 0.0000 0.0000 0.0000 -3.7482 0.0000
# 6 0.0000 0.0000 0.0000 0.0000 0.0000 7.9918
#
#
#
# Elastic Compliance Matrix: (Units=1/GPa)
#
#
# Indices 1 2 3 4 5 6 
#
# 1 0.029826 -0.019921 -0.001561 0.000000 0.000000 0.000000
# 2 -0.019921 0.029826 -0.001561 0.000000 0.000000 0.000000
# 3 -0.001561 -0.001561 0.005801 0.000000 0.000000 0.000000
# 4 0.000000 0.000000 0.000000 -0.266743 0.000000 0.000000
# 5 0.000000 0.000000 0.000000 0.000000 -0.266795 0.000000
# 6 0.000000 0.000000 0.000000 0.000000 0.000000 0.125128
#
#
# Mechanical properties :
#
#
# Convention : Reuss Voigt Hill
#
# Bulk Modulus (GPa) = 51.63696 58.64130 55.13913
# Shear Modulus (GPa) = -17.21671 14.38561 -1.41555
#
# Velocity S-wave (km/s) = -2.87869 2.63138 -0.82544
# Velocity P-wave (km/s) = 3.71552 6.12028 5.06275
#
# Compressibility (1/GPa) = 0.01936597
#
# Stress axis : x y z
#
# Youngs Moduli (GPa) = 33.52753 33.52783 172.38822
#
# Poissons Ratio (x) = 0.66791 0.26915
# Poissons Ratio (y) = 0.66790 0.26912
# Poissons Ratio (z) = 0.05235 0.05234
#
# Static dielectric constant tensor:
#      x y z
#    x 1.736840 0.000000 0.000000 
#    y 0.000000 1.736840 0.000000 
#    z 0.000000 0.000000 1.794870 
# 
# From -- ./inp_files/5822.got.cif
#   From: 2010.05.17/outbox.cif.g08.bks.cpg/sg138_3_cif.got.tgz:5822.got - 2010.05.20 13:08:53.
