data_PCOD9571407
_publ_section_title
;
Structure prediction by ZEFSAII (Michael W. Deem and Ramdas Pophale) SiO2 
 PCOD9571407
Probable space group: I 4/M M M
;
_chemical_formula_sum "Si O2"
_cell_formula_units_Z 160
_cell_length_a 23.399790
_cell_length_b 23.399790
_cell_length_c 17.294147
_cell_angle_alpha 90.000000
_cell_angle_beta 90.000000
_cell_angle_gamma 90.000000
_cell_volume 9469.413165
_symmetry_space_group_name_H-M "I 4/M M M"
_symmetry_group_IT_number 139
_symmetry_cell_setting 'tetragonal'
loop_
_space_group_symop_operation_xyz
x,y,z
-y,x,z
-x,-y,z
y,-x,z
x,-y,-z
-x,y,-z
y,x,-z
-y,-x,-z
-x,-y,-z
y,-x,-z
x,y,-z
-y,x,-z
-x,y,z
x,-y,z
-y,-x,z
y,x,z
1/2+x,1/2+y,1/2+z
1/2-y,1/2+x,1/2+z
1/2-x,1/2-y,1/2+z
1/2+y,1/2-x,1/2+z
1/2+x,1/2-y,1/2-z
1/2-x,1/2+y,1/2-z
1/2+y,1/2+x,1/2-z
1/2-y,1/2-x,1/2-z
1/2-x,1/2-y,1/2-z
1/2+y,1/2-x,1/2-z
1/2+x,1/2+y,1/2-z
1/2-y,1/2+x,1/2-z
1/2-x,1/2+y,1/2+z
1/2+x,1/2-y,1/2+z
1/2-y,1/2-x,1/2+z
1/2+y,1/2+x,1/2+z
loop_
_atom_site_type_symbol
_atom_site_label
_atom_site_fract_x
_atom_site_fract_y
_atom_site_fract_z
Si Si1 0.773804 0.611146 0.587873
Si Si2 0.763341 0.236660 0.093339
Si Si3 0.831424 0.168577 0.407448
Si Si4 0.161082 0.432760 0.267862
Si Si5 0.217156 0.933667 0.308566
Si Si6 0.841274 0.064447 0.140382
O O1 0.794869 0.616313 0.500000
O O2 0.756612 0.674117 0.619723
O O3 0.817351 0.581206 0.645612
O O4 0.714910 0.576121 0.590076
O O5 0.716303 0.283698 0.111925
O O6 0.767961 0.232040 0.000000
O O7 0.835947 0.164054 0.500000
O O8 0.809436 0.109943 0.369456
O O9 0.148036 0.500000 0.260409
O O10 0.108438 0.391563 0.250000
O O11 0.216801 0.420556 0.213824
O O12 0.181392 0.929041 0.228658
O O13 0.214493 0.000000 0.333479
O O14 0.889200 0.110801 0.123662
O O15 0.861903 0.000000 0.129833
#
# Coordination Sequence:
#
# PCOD9571407 Si02
#       6
#    32  16  16  32  32  32
#     4  10  19  34  54  81 112 137 169 218 271 318
#     4   9  18  29  47  77 108 131 159 209 268 323
#     4  11  20  31  53  80 101 135 183 225 273 323
#     4  10  21  36  56  80 107 144 183 218 263 320
#     4   9  19  35  51  73 106 139 176 219 270 326
#     4  10  19  32  50  72 101 140 178 210 254 312
#
# _framework density 16.896505999999999
#
# number of rings (size 3 to 8) (size 9 to 14) (size 15 to 20)
#    0.000    2.200    2.000    3.000    0.000    2.400 
#    0.000    3.000    0.000    2.100    0.000    3.500 
#    0.000    0.000    0.000    0.000    0.000    0.000 
#
# Total GULP energy -446300.137877 kJ/mol
# GULP energy per Si atom -5578.751723 kJ/mol
# Density = 1.685805 g / cm^3
# Si number density = 16.896506 Si / 1000 Ang^3
#
#
#
# Elastic Constant Matrix: (Units=GPa)
#
#
# Indices 1 2 3 4 5 6 
#
# 1 95.2434 62.3457 38.4015 0.0000 0.0000 0.0000
# 2 62.3457 95.2420 38.4032 0.0000 0.0000 0.0000
# 3 38.4015 38.4032 67.9363 0.0000 0.0000 0.0000
# 4 0.0000 0.0000 0.0000 11.8615 0.0000 0.0000
# 5 0.0000 0.0000 0.0000 0.0000 11.8606 0.0000
# 6 0.0000 0.0000 0.0000 0.0000 0.0000 14.6343
#
#
#
# Elastic Compliance Matrix: (Units=1/GPa)
#
#
# Indices 1 2 3 4 5 6 
#
# 1 0.019578 -0.010820 -0.004950 0.000000 0.000000 0.000000
# 2 -0.010820 0.019579 -0.004952 0.000000 0.000000 0.000000
# 3 -0.004950 -0.004952 0.020317 0.000000 0.000000 0.000000
# 4 0.000000 0.000000 0.000000 0.084306 0.000000 0.000000
# 5 0.000000 0.000000 0.000000 0.000000 0.084312 0.000000
# 6 0.000000 0.000000 0.000000 0.000000 0.000000 0.068333
#
#
# Mechanical properties :
#
#
# Convention : Reuss Voigt Hill
#
# Bulk Modulus (GPa) = 55.46231 59.63584 57.54907
# Shear Modulus (GPa) = 14.54002 15.62270 15.08136
#
# Velocity S-wave (km/s) = 2.93667 3.04404 2.99084
# Velocity P-wave (km/s) = 6.66293 6.90842 6.78679
#
# Compressibility (1/GPa) = 0.01803026
#
# Stress axis : x y z
#
# Youngs Moduli (GPa) = 51.07813 51.07584 49.21996
#
# Poissons Ratio (x) = 0.55262 0.24366
# Poissons Ratio (y) = 0.55265 0.24372
# Poissons Ratio (z) = 0.25286 0.25291
#
# Static dielectric constant tensor:
#      x y z
#    x 1.562110 0.000000 0.000000 
#    y 0.000000 1.562110 0.000000 
#    z 0.000000 0.000000 1.583270 
# 
# From -- ./inp_files/8437.got.cif
#   From: 2010.05.17/outbox.cif.g08.bks.cpg/sg139_5_cif.got.tgz:8437.got - 2010.05.20 13:14:44.
