data_PCOD9571696
_publ_section_title
;
Structure prediction by ZEFSAII (Michael W. Deem and Ramdas Pophale) SiO2 
 PCOD9571696
Probable space group: I 4/M M M
;
_chemical_formula_sum "Si O2"
_cell_formula_units_Z 240
_cell_length_a 21.184437
_cell_length_b 21.184437
_cell_length_c 32.556600
_cell_angle_alpha 90.000000
_cell_angle_beta 90.000000
_cell_angle_gamma 90.000000
_cell_volume 14610.763027
_symmetry_space_group_name_H-M "I 4/M M M"
_symmetry_group_IT_number 139
_symmetry_cell_setting 'tetragonal'
loop_
_space_group_symop_operation_xyz
x,y,z
-y,x,z
-x,-y,z
y,-x,z
x,-y,-z
-x,y,-z
y,x,-z
-y,-x,-z
-x,-y,-z
y,-x,-z
x,y,-z
-y,x,-z
-x,y,z
x,-y,z
-y,-x,z
y,x,z
1/2+x,1/2+y,1/2+z
1/2-y,1/2+x,1/2+z
1/2-x,1/2-y,1/2+z
1/2+y,1/2-x,1/2+z
1/2+x,1/2-y,1/2-z
1/2-x,1/2+y,1/2-z
1/2+y,1/2+x,1/2-z
1/2-y,1/2-x,1/2-z
1/2-x,1/2-y,1/2-z
1/2+y,1/2-x,1/2-z
1/2+x,1/2+y,1/2-z
1/2-y,1/2+x,1/2-z
1/2-x,1/2+y,1/2+z
1/2+x,1/2-y,1/2+z
1/2-y,1/2-x,1/2+z
1/2+y,1/2+x,1/2+z
loop_
_atom_site_type_symbol
_atom_site_label
_atom_site_fract_x
_atom_site_fract_y
_atom_site_fract_z
Si Si1 0.853786 0.251279 0.762570
Si Si2 0.262126 0.846035 0.546136
Si Si3 0.424790 0.680908 0.500000
Si Si4 0.424173 0.197639 0.659270
Si Si5 0.176464 0.927236 0.302524
Si Si6 0.860140 0.246653 0.078066
Si Si7 0.427320 0.677439 0.100440
Si Si8 0.928441 0.423450 0.297458
O O1 0.806918 0.193083 0.771860
O O2 0.808843 0.308843 0.750000
O O3 0.896628 0.265669 0.801558
O O4 0.896527 0.231517 0.724137
O O5 0.271710 0.869524 0.500000
O O6 0.206457 0.793544 0.545244
O O7 0.322262 0.807378 0.561414
O O8 0.236695 0.899953 0.575852
O O9 0.500000 0.671504 0.500000
O O10 0.383928 0.616072 0.500000
O O11 0.402633 0.718938 0.540910
O O12 0.500000 0.199769 0.658378
O O13 0.397003 0.229427 0.618174
O O14 0.404420 0.124815 0.669691
O O15 0.113635 0.886366 0.294699
O O16 0.190046 0.922331 0.350933
O O17 0.167463 0.000000 0.291825
O O18 0.807923 0.192078 0.087866
O O19 0.500000 0.664831 0.090350
O O20 0.383017 0.616984 0.091481
O O21 0.931197 0.500000 0.298583
O O22 0.909301 0.409301 0.250000
O O23 0.000000 0.399637 0.304664
#
# Coordination Sequence:
#
# PCOD9571696 Si02
#       8
#    32  32  16  32  32  32  32  32
#     4  10  21  34  49  71 100 137 175 214 259 301
#     4   9  17  32  53  73  95 129 172 214 259 305
#     4  10  20  37  60  86 113 137 164 202 252 310
#     4  11  21  32  50  76 102 131 166 207 256 309
#     4   9  18  33  51  73 103 137 174 215 256 303
#     4  10  20  35  55  78 103 133 168 209 253 302
#     4   9  18  31  50  76 106 141 178 220 265 310
#     4   8  15  30  49  67  92 127 166 206 246 290
#
# _framework density 16.426245999999999
#
# number of rings (size 3 to 8) (size 9 to 14) (size 15 to 20)
#    0.000    2.533    0.667    2.000    1.867    0.600 
#    0.000    2.667    0.000    0.000    0.000    1.867 
#    0.000   12.800    0.000    0.000    0.000    0.000 
#
# Total GULP energy -668792.122476 kJ/mol
# GULP energy per Si atom -5573.267687 kJ/mol
# Density = 1.638886 g / cm^3
# Si number density = 16.426246 Si / 1000 Ang^3
#
#
#
# Elastic Constant Matrix: (Units=GPa)
#
#
# Indices 1 2 3 4 5 6 
#
# 1 1536.4587-1377.6789 67.8453 0.0000 0.0000 0.0000
# 2 -1377.6789 1536.4409 67.8457 0.0000 0.0000 0.0000
# 3 67.8453 67.8457 89.6782 0.0000 0.0000 0.0000
# 4 0.0000 0.0000 0.0000 26.3608 0.0000 0.0000
# 5 0.0000 0.0000 0.0000 0.0000 26.3606 0.0000
# 6 0.0000 0.0000 0.0000 0.0000 0.0000 15.9106
#
#
#
# Elastic Compliance Matrix: (Units=1/GPa)
#
#
# Indices 1 2 3 4 5 6 
#
# 1 0.009082 0.008739 -0.013482 0.000000 0.000000 0.000000
# 2 0.008739 0.009082 -0.013482 0.000000 0.000000 0.000000
# 3 -0.013482 -0.013482 0.031551 0.000000 0.000000 0.000000
# 4 0.000000 0.000000 0.000000 0.037935 0.000000 0.000000
# 5 0.000000 0.000000 0.000000 0.000000 0.037935 0.000000
# 6 0.000000 0.000000 0.000000 0.000000 0.000000 0.062851
#
#
# Mechanical properties :
#
#
# Convention : Reuss Voigt Hill
#
# Bulk Modulus (GPa) = 75.39506 75.40024 75.39765
# Shear Modulus (GPa) = 21.80473 307.36412 164.58442
#
# Velocity S-wave (km/s) = 3.64735 13.69394 10.02065
# Velocity P-wave (km/s) = 7.98350 17.20563 13.41212
#
# Compressibility (1/GPa) = 0.01326347
#
# Stress axis : x y z
#
# Youngs Moduli (GPa) = 110.10999 110.10863 31.69518
#
# Poissons Ratio (x) = -0.96221 0.42732
# Poissons Ratio (y) = -0.96222 0.42732
# Poissons Ratio (z) = 1.48451 1.48450
#
# Static dielectric constant tensor:
#      x y z
#    x 1.551110 0.000000 0.000000 
#    y 0.000000 1.551110 0.000000 
#    z 0.000000 0.000000 1.539340 
# 
# From -- ./inp_files/14614.got.cif
#   From: 2010.05.17/outbox.cif.g08.bks.cpg/sg139_8_cif.got.tgz:14614.got - 2010.05.20 13:14:44.
