data_PCOD9571753
_publ_section_title
;
Structure prediction by ZEFSAII (Michael W. Deem and Ramdas Pophale) SiO2 
 PCOD9571753
Probable space group: I 4/M M M
;
_chemical_formula_sum "Si O2"
_cell_formula_units_Z 160
_cell_length_a 30.634119
_cell_length_b 30.634119
_cell_length_c 8.040027
_cell_angle_alpha 90.000000
_cell_angle_beta 90.000000
_cell_angle_gamma 90.000000
_cell_volume 7545.157283
_symmetry_space_group_name_H-M "I 4/M M M"
_symmetry_group_IT_number 139
_symmetry_cell_setting 'tetragonal'
loop_
_space_group_symop_operation_xyz
x,y,z
-y,x,z
-x,-y,z
y,-x,z
x,-y,-z
-x,y,-z
y,x,-z
-y,-x,-z
-x,-y,-z
y,-x,-z
x,y,-z
-y,x,-z
-x,y,z
x,-y,z
-y,-x,z
y,x,z
1/2+x,1/2+y,1/2+z
1/2-y,1/2+x,1/2+z
1/2-x,1/2-y,1/2+z
1/2+y,1/2-x,1/2+z
1/2+x,1/2-y,1/2-z
1/2-x,1/2+y,1/2-z
1/2+y,1/2+x,1/2-z
1/2-y,1/2-x,1/2-z
1/2-x,1/2-y,1/2-z
1/2+y,1/2-x,1/2-z
1/2+x,1/2+y,1/2-z
1/2-y,1/2+x,1/2-z
1/2-x,1/2+y,1/2+z
1/2+x,1/2-y,1/2+z
1/2-y,1/2-x,1/2+z
1/2+y,1/2+x,1/2+z
loop_
_atom_site_type_symbol
_atom_site_label
_atom_site_fract_x
_atom_site_fract_y
_atom_site_fract_z
Si Si1 0.450522 0.877997 0.799432
Si Si2 0.137850 0.137850 0.806411
Si Si3 0.793759 0.206242 0.692164
Si Si4 0.061083 0.721931 0.688671
Si Si5 0.848663 0.715818 0.810473
Si Si6 0.319303 0.547951 0.798595
O O1 0.500000 0.892654 0.752090
O O2 0.412118 0.912118 0.750000
O O3 0.446335 0.827006 0.738933
O O4 0.448573 0.875718 0.000000
O O5 0.169165 0.169165 0.700497
O O6 0.152551 0.088243 0.769331
O O7 0.146906 0.146906 0.000000
O O8 0.783715 0.216286 0.500000
O O9 0.752458 0.187452 0.787658
O O10 0.044846 0.720424 0.500000
O O11 0.112688 0.727715 0.689985
O O12 0.047265 0.768609 0.763855
O O13 0.829617 0.670384 0.750000
O O14 0.863636 0.714035 0.000000
O O15 0.338025 0.500000 0.761061
O O16 0.317119 0.552752 0.000000
#
# Coordination Sequence:
#
# PCOD9571753 Si02
#       6
#    32  16  16  32  32  32
#     4  10  22  40  61  86 116 152 198 252 310 370
#     4  12  24  39  61  93 131 166 202 252 306 360
#     4  12  23  39  58  80 114 159 207 254 297 349
#     4  10  20  37  61  88 120 156 197 247 302 361
#     4  12  24  37  54  81 118 161 205 249 298 356
#     4  10  21  39  66  95 124 164 208 248 296 359
#
# _framework density 21.205656000000001
#
# number of rings (size 3 to 8) (size 9 to 14) (size 15 to 20)
#    0.000    1.200    2.000    5.100    0.000    5.800 
#    0.000    1.000    0.000    3.900    0.000    2.100 
#    0.000    0.000    0.000    0.000    0.000    0.000 
#
# Total GULP energy -446365.275826 kJ/mol
# GULP energy per Si atom -5579.565948 kJ/mol
# Density = 2.115739 g / cm^3
# Si number density = 21.205656 Si / 1000 Ang^3
#
#
#
# Elastic Constant Matrix: (Units=GPa)
#
#
# Indices 1 2 3 4 5 6 
#
# 1 -22.4447 215.4379 13.0942 0.0000 0.0000 0.0000
# 2 215.4379 -22.4233 13.1367 0.0000 0.0000 0.0000
# 3 13.0942 13.1367 71.9620 0.0000 0.0000 0.0000
# 4 0.0000 0.0000 0.0000 13.0247 0.0000 0.0000
# 5 0.0000 0.0000 0.0000 0.0000 13.0243 0.0000
# 6 0.0000 0.0000 0.0000 0.0000 0.0000 14.7195
#
#
#
# Elastic Compliance Matrix: (Units=1/GPa)
#
#
# Indices 1 2 3 4 5 6 
#
# 1 0.000554 0.004758 -0.000970 0.000000 0.000000 0.000000
# 2 0.004758 0.000555 -0.000967 0.000000 0.000000 0.000000
# 3 -0.000970 -0.000967 0.014249 0.000000 0.000000 0.000000
# 4 0.000000 0.000000 0.000000 0.076777 0.000000 0.000000
# 5 0.000000 0.000000 0.000000 0.000000 0.076780 0.000000
# 6 0.000000 0.000000 0.000000 0.000000 0.000000 0.067937
#
#
# Mechanical properties :
#
#
# Convention : Reuss Voigt Hill
#
# Bulk Modulus (GPa) = 47.61524 56.71464 52.16494
# Shear Modulus (GPa) = 20.98996 -6.15130 7.41933
#
# Velocity S-wave (km/s) = 3.14957 -1.70502 1.87252
# Velocity P-wave (km/s) = 5.97739 4.78822 5.41554
#
# Compressibility (1/GPa) = 0.02100168
#
# Stress axis : x y z
#
# Youngs Moduli (GPa) = 1803.80317 1803.37879 70.17949
#
# Poissons Ratio (x) = -8.58118 0.06804
# Poissons Ratio (y) = -8.58320 0.06787
# Poissons Ratio (z) = 1.74883 1.74399
#
# Static dielectric constant tensor:
#      x y z
#    x 1.715530 0.000000 0.000000 
#    y 0.000000 1.715490 0.000000 
#    z 0.000000 0.000000 1.752570 
# 
# From -- ./inp_files/2163.got.cif
#   From: 2010.05.17/outbox.cif.g08.bks.cpg/sg139_2_cif.got.tgz:2163.got - 2010.05.20 13:14:44.
