data_PCOD9571851
_publ_section_title
;
Structure prediction by ZEFSAII (Michael W. Deem and Ramdas Pophale) SiO2 
 PCOD9571851
Probable space group: I 4/M M M
;
_chemical_formula_sum "Si O2"
_cell_formula_units_Z 176
_cell_length_a 23.530665
_cell_length_b 23.530665
_cell_length_c 17.964928
_cell_angle_alpha 90.000000
_cell_angle_beta 90.000000
_cell_angle_gamma 90.000000
_cell_volume 9947.040423
_symmetry_space_group_name_H-M "I 4/M M M"
_symmetry_group_IT_number 139
_symmetry_cell_setting 'tetragonal'
loop_
_space_group_symop_operation_xyz
x,y,z
-y,x,z
-x,-y,z
y,-x,z
x,-y,-z
-x,y,-z
y,x,-z
-y,-x,-z
-x,-y,-z
y,-x,-z
x,y,-z
-y,x,-z
-x,y,z
x,-y,z
-y,-x,z
y,x,z
1/2+x,1/2+y,1/2+z
1/2-y,1/2+x,1/2+z
1/2-x,1/2-y,1/2+z
1/2+y,1/2-x,1/2+z
1/2+x,1/2-y,1/2-z
1/2-x,1/2+y,1/2-z
1/2+y,1/2+x,1/2-z
1/2-y,1/2-x,1/2-z
1/2-x,1/2-y,1/2-z
1/2+y,1/2-x,1/2-z
1/2+x,1/2+y,1/2-z
1/2-y,1/2+x,1/2-z
1/2-x,1/2+y,1/2+z
1/2+x,1/2-y,1/2+z
1/2-y,1/2-x,1/2+z
1/2+y,1/2+x,1/2+z
loop_
_atom_site_type_symbol
_atom_site_label
_atom_site_fract_x
_atom_site_fract_y
_atom_site_fract_z
Si Si1 0.734957 0.434258 0.647007
Si Si2 0.935442 0.159202 0.000000
Si Si3 0.145855 0.342516 0.837852
Si Si4 0.566231 0.067349 0.587672
Si Si5 0.137408 0.233443 0.413561
Si Si6 0.337568 0.566946 0.797510
O O1 0.755656 0.500000 0.650179
O O2 0.697379 0.428096 0.573256
O O3 0.786399 0.390312 0.644275
O O4 0.696237 0.424680 0.719910
O O5 0.891136 0.108865 0.000000
O O6 0.000000 0.137349 0.000000
O O7 0.156584 0.343417 0.750000
O O8 0.107787 0.395870 0.862664
O O9 0.205340 0.346624 0.880892
O O10 0.575850 0.080005 0.500000
O O11 0.500000 0.079814 0.603706
O O12 0.574829 0.000000 0.598079
O O13 0.120420 0.238002 0.500000
O O14 0.191863 0.191863 0.409019
O O15 0.089295 0.203613 0.363171
O O16 0.350146 0.500000 0.805314
O O17 0.393589 0.606412 0.797930
#
# Coordination Sequence:
#
# PCOD9571851 Si02
#       6
#    32  16  32  32  32  32
#     4  10  22  39  57  86 124 160 197 243 300 353
#     4  10  22  39  62  90 121 159 199 245 300 360
#     4  12  23  37  59  87 116 156 201 241 287 348
#     4   9  20  38  58  82 115 153 194 244 293 336
#     4  10  23  41  59  84 117 152 193 240 294 351
#     4  10  21  40  64  88 119 154 192 244 302 360
#
# _framework density 17.693705000000001
#
# number of rings (size 3 to 8) (size 9 to 14) (size 15 to 20)
#    0.000    1.818    1.818    2.182    2.545    4.636 
#    0.000    0.909    0.000    3.273    0.000    2.545 
#    0.000    0.000    0.000    0.000    0.000    0.000 
#
# Total GULP energy -491506.502406 kJ/mol
# GULP energy per Si atom -5585.301164 kJ/mol
# Density = 1.765343 g / cm^3
# Si number density = 17.693705 Si / 1000 Ang^3
#
#
#
# Elastic Constant Matrix: (Units=GPa)
#
#
# Indices 1 2 3 4 5 6 
#
# 1 93.9750 62.7720 54.0295 0.0000 0.0000 0.0000
# 2 62.7720 93.9714 54.0260 0.0000 0.0000 0.0000
# 3 54.0295 54.0260 140.0436 0.0000 0.0000 0.0000
# 4 0.0000 0.0000 0.0000 25.9047 0.0000 0.0000
# 5 0.0000 0.0000 0.0000 0.0000 25.9073 0.0000
# 6 0.0000 0.0000 0.0000 0.0000 0.0000 26.5070
#
#
#
# Elastic Compliance Matrix: (Units=1/GPa)
#
#
# Indices 1 2 3 4 5 6 
#
# 1 0.020371 -0.011679 -0.003353 0.000000 0.000000 0.000000
# 2 -0.011679 0.020371 -0.003353 0.000000 0.000000 0.000000
# 3 -0.003353 -0.003353 0.009728 0.000000 0.000000 0.000000
# 4 0.000000 0.000000 0.000000 0.038603 0.000000 0.000000
# 5 0.000000 0.000000 0.000000 0.000000 0.038599 0.000000
# 6 0.000000 0.000000 0.000000 0.000000 0.000000 0.037726
#
#
# Mechanical properties :
#
#
# Convention : Reuss Voigt Hill
#
# Bulk Modulus (GPa) = 73.00228 74.40499 73.70363
# Shear Modulus (GPa) = 24.18564 26.14128 25.16346
#
# Velocity S-wave (km/s) = 3.70118 3.84791 3.77526
# Velocity P-wave (km/s) = 7.72098 7.86669 7.79417
#
# Compressibility (1/GPa) = 0.01369820
#
# Stress axis : x y z
#
# Youngs Moduli (GPa) = 49.09054 49.08992 102.79844
#
# Poissons Ratio (x) = 0.57334 0.34472
# Poissons Ratio (y) = 0.57335 0.34465
# Poissons Ratio (z) = 0.16462 0.16458
#
# Static dielectric constant tensor:
#      x y z
#    x 1.580100 0.000000 0.000000 
#    y 0.000000 1.580100 0.000000 
#    z 0.000000 0.000000 1.588800 
# 
# From -- ./inp_files/6129.got.cif
#   From: 2010.05.17/outbox.cif.g08.bks.cpg/sg139_4_cif.got.tgz:6129.got - 2010.05.20 13:14:44.
