data_PCOD9571337
_publ_section_title
;
Structure prediction by ZEFSAII (Michael W. Deem and Ramdas Pophale) SiO2 
 PCOD9571337
Probable space group: I 4/M M M
;
_chemical_formula_sum "Si O2"
_cell_formula_units_Z 160
_cell_length_a 32.308338
_cell_length_b 32.308338
_cell_length_c 9.019590
_cell_angle_alpha 90.000000
_cell_angle_beta 90.000000
_cell_angle_gamma 90.000000
_cell_volume 9414.906943
_symmetry_space_group_name_H-M "I 4/M M M"
_symmetry_group_IT_number 139
_symmetry_cell_setting 'tetragonal'
loop_
_space_group_symop_operation_xyz
x,y,z
-y,x,z
-x,-y,z
y,-x,z
x,-y,-z
-x,y,-z
y,x,-z
-y,-x,-z
-x,-y,-z
y,-x,-z
x,y,-z
-y,x,-z
-x,y,z
x,-y,z
-y,-x,z
y,x,z
1/2+x,1/2+y,1/2+z
1/2-y,1/2+x,1/2+z
1/2-x,1/2-y,1/2+z
1/2+y,1/2-x,1/2+z
1/2+x,1/2-y,1/2-z
1/2-x,1/2+y,1/2-z
1/2+y,1/2+x,1/2-z
1/2-y,1/2-x,1/2-z
1/2-x,1/2-y,1/2-z
1/2+y,1/2-x,1/2-z
1/2+x,1/2+y,1/2-z
1/2-y,1/2+x,1/2-z
1/2-x,1/2+y,1/2+z
1/2+x,1/2-y,1/2+z
1/2-y,1/2-x,1/2+z
1/2+y,1/2+x,1/2+z
loop_
_atom_site_type_symbol
_atom_site_label
_atom_site_fract_x
_atom_site_fract_y
_atom_site_fract_z
Si Si1 0.268425 0.500000 0.324054
Si Si2 0.000000 0.325798 0.179735
Si Si3 0.094727 0.343968 0.179447
Si Si4 0.353993 0.231426 0.829066
Si Si5 0.304839 0.421766 0.168180
Si Si6 0.209025 0.790976 0.170973
Si Si7 0.137752 0.862249 0.830532
O O1 0.266975 0.500000 0.500000
O O2 0.221488 0.500000 0.267814
O O3 0.290363 0.459641 0.265275
O O4 0.954176 0.342231 0.222791
O O5 0.000000 0.327242 0.000000
O O6 0.115739 0.384262 0.250000
O O7 0.122722 0.305669 0.242087
O O8 0.097227 0.343442 0.000000
O O9 0.387679 0.268289 0.833124
O O10 0.313571 0.252381 0.752761
O O11 0.344942 0.219040 0.000000
O O12 0.343760 0.400404 0.242768
O O13 0.312661 0.434497 0.000000
O O14 0.173405 0.826596 0.168134
O O15 0.219308 0.780693 0.000000
O O16 0.128076 0.871925 0.000000
#
# Coordination Sequence:
#
# PCOD9571337 Si02
#       7
#    16  16  32  32  32  16  16
#     4  11  19  31  51  77 104 139 178 218 265 320
#     4   9  20  37  59  80 108 139 169 209 261 317
#     4  11  22  39  59  83 108 138 174 216 264 319
#     4  10  19  32  50  75 106 142 180 222 263 309
#     4  10  19  30  46  72 105 138 175 222 268 310
#     4   9  17  29  48  72 101 143 186 224 259 302
#     4   9  17  29  45  66  96 140 184 217 258 316
#
# _framework density 16.994326000000001
#
# number of rings (size 3 to 8) (size 9 to 14) (size 15 to 20)
#    0.000    2.000    2.000    2.700    0.000    4.000 
#    0.000    2.500    0.000    0.300    0.000    2.100 
#    0.000    0.400    0.000    4.000    0.000    2.400 
#
# Total GULP energy -446153.594294 kJ/mol
# GULP energy per Si atom -5576.919929 kJ/mol
# Density = 1.695565 g / cm^3
# Si number density = 16.994326 Si / 1000 Ang^3
#
#
#
# Elastic Constant Matrix: (Units=GPa)
#
#
# Indices 1 2 3 4 5 6 
#
# 1 106.6531 65.0576 45.4805 0.0000 0.0000 0.0000
# 2 65.0576 106.6545 45.4778 0.0000 0.0000 0.0000
# 3 45.4805 45.4778 105.3842 0.0000 0.0000 0.0000
# 4 0.0000 0.0000 0.0000 25.0827 0.0000 0.0000
# 5 0.0000 0.0000 0.0000 0.0000 25.0831 0.0000
# 6 0.0000 0.0000 0.0000 0.0000 0.0000 20.2147
#
#
#
# Elastic Compliance Matrix: (Units=1/GPa)
#
#
# Indices 1 2 3 4 5 6 
#
# 1 0.015795 -0.008246 -0.003259 0.000000 0.000000 0.000000
# 2 -0.008246 0.015795 -0.003258 0.000000 0.000000 0.000000
# 3 -0.003259 -0.003258 0.012301 0.000000 0.000000 0.000000
# 4 0.000000 0.000000 0.000000 0.039868 0.000000 0.000000
# 5 0.000000 0.000000 0.000000 0.000000 0.039867 0.000000
# 6 0.000000 0.000000 0.000000 0.000000 0.000000 0.049469
#
#
# Mechanical properties :
#
#
# Convention : Reuss Voigt Hill
#
# Bulk Modulus (GPa) = 69.59884 70.08042 69.83963
# Shear Modulus (GPa) = 24.10700 24.92116 24.51408
#
# Velocity S-wave (km/s) = 3.77043 3.83357 3.80213
# Velocity P-wave (km/s) = 7.74583 7.80526 7.77560
#
# Compressibility (1/GPa) = 0.01436806
#
# Stress axis : x y z
#
# Youngs Moduli (GPa) = 63.30936 63.31202 81.29315
#
# Poissons Ratio (x) = 0.52204 0.26489
# Poissons Ratio (y) = 0.52202 0.26482
# Poissons Ratio (z) = 0.20629 0.20625
#
# Static dielectric constant tensor:
#      x y z
#    x 1.567860 0.000000 0.000000 
#    y 0.000000 1.567860 0.000000 
#    z 0.000000 0.000000 1.580670 
# 
# From -- ./inp_files/2306.got.cif
#   From: 2010.05.17/outbox.cif.g08.bks.cpg/sg139_2_cif.got.tgz:2306.got - 2010.05.20 13:14:44.
