data_PCOD9571315
_publ_section_title
;
Structure prediction by ZEFSAII (Michael W. Deem and Ramdas Pophale) SiO2 
 PCOD9571315
Probable space group: I 4/M M M
;
_chemical_formula_sum "Si O2"
_cell_formula_units_Z 192
_cell_length_a 29.018669
_cell_length_b 29.018669
_cell_length_c 13.833223
_cell_angle_alpha 90.000000
_cell_angle_beta 90.000000
_cell_angle_gamma 90.000000
_cell_volume 11648.724006
_symmetry_space_group_name_H-M "I 4/M M M"
_symmetry_group_IT_number 139
_symmetry_cell_setting 'tetragonal'
loop_
_space_group_symop_operation_xyz
x,y,z
-y,x,z
-x,-y,z
y,-x,z
x,-y,-z
-x,y,-z
y,x,-z
-y,-x,-z
-x,-y,-z
y,-x,-z
x,y,-z
-y,x,-z
-x,y,z
x,-y,z
-y,-x,z
y,x,z
1/2+x,1/2+y,1/2+z
1/2-y,1/2+x,1/2+z
1/2-x,1/2-y,1/2+z
1/2+y,1/2-x,1/2+z
1/2+x,1/2-y,1/2-z
1/2-x,1/2+y,1/2-z
1/2+y,1/2+x,1/2-z
1/2-y,1/2-x,1/2-z
1/2-x,1/2-y,1/2-z
1/2+y,1/2-x,1/2-z
1/2+x,1/2+y,1/2-z
1/2-y,1/2+x,1/2-z
1/2-x,1/2+y,1/2+z
1/2+x,1/2-y,1/2+z
1/2-y,1/2-x,1/2+z
1/2+y,1/2+x,1/2+z
loop_
_atom_site_type_symbol
_atom_site_label
_atom_site_fract_x
_atom_site_fract_y
_atom_site_fract_z
Si Si1 0.725732 0.129635 0.610032
Si Si2 0.749830 0.054465 0.113353
Si Si3 0.204218 0.128824 0.225721
Si Si4 0.869409 0.423265 0.108553
Si Si5 0.802031 0.271018 0.112930
Si Si6 0.145972 0.552230 0.324272
O O1 0.740628 0.137856 0.500000
O O2 0.770006 0.118677 0.673781
O O3 0.683389 0.094486 0.608721
O O4 0.702103 0.176894 0.645254
O O5 0.790971 0.082954 0.162144
O O6 0.700242 0.064456 0.163873
O O7 0.757467 0.000000 0.122326
O O8 0.745444 0.065955 0.000000
O O9 0.155891 0.155891 0.234065
O O10 0.238910 0.163628 0.170577
O O11 0.870276 0.448945 0.212006
O O12 0.908017 0.383262 0.122541
O O13 0.877143 0.443439 0.000000
O O14 0.751689 0.248312 0.122120
O O15 0.815260 0.269934 0.000000
O O16 0.140208 0.500000 0.364044
#
# Coordination Sequence:
#
# PCOD9571315 Si02
#       6
#    32  32  32  32  32  32
#     4  10  19  30  44  65  95 130 162 193 233 285
#     4  10  20  34  51  70  96 130 166 204 246 294
#     4  11  20  30  47  70  98 129 162 201 241 285
#     4  10  20  33  51  72  94 122 159 206 254 304
#     4   9  17  26  37  58  89 123 155 188 228 275
#     4  10  20  34  52  74  98 125 162 209 257 304
#
# _framework density 16.482492000000001
#
# number of rings (size 3 to 8) (size 9 to 14) (size 15 to 20)
#    0.000    2.000    1.667    3.000    2.333    6.000 
#    0.000    0.000    0.000    4.500    0.000    4.667 
#    0.000    0.333    0.000    1.833    0.000    0.000 
#
# Total GULP energy -534801.793262 kJ/mol
# GULP energy per Si atom -5570.852013 kJ/mol
# Density = 1.644498 g / cm^3
# Si number density = 16.482492 Si / 1000 Ang^3
#
#
#
# Elastic Constant Matrix: (Units=GPa)
#
#
# Indices 1 2 3 4 5 6 
#
# 1 -6.3666 80.8497 18.4052 0.0000 0.0000 0.0000
# 2 80.8497 -6.3666 18.4052 0.0000 0.0000 0.0000
# 3 18.4052 18.4052 101.4024 0.0000 0.0000 0.0000
# 4 0.0000 0.0000 0.0000 7.8336 0.0000 0.0000
# 5 0.0000 0.0000 0.0000 0.0000 7.8336 0.0000
# 6 0.0000 0.0000 0.0000 0.0000 0.0000 12.8784
#
#
#
# Elastic Compliance Matrix: (Units=1/GPa)
#
#
# Indices 1 2 3 4 5 6 
#
# 1 0.001642 0.013107 -0.002677 0.000000 0.000000 0.000000
# 2 0.013107 0.001642 -0.002677 0.000000 0.000000 0.000000
# 3 -0.002677 -0.002677 0.010833 0.000000 0.000000 0.000000
# 4 0.000000 0.000000 0.000000 0.127656 0.000000 0.000000
# 5 0.000000 0.000000 0.000000 0.000000 0.127656 0.000000
# 6 0.000000 0.000000 0.000000 0.000000 0.000000 0.077649
#
#
# Mechanical properties :
#
#
# Convention : Reuss Voigt Hill
#
# Bulk Modulus (GPa) = 33.75735 35.99882 34.87809
# Shear Modulus (GPa) = 14.64364 3.77639 9.21002
#
# Velocity S-wave (km/s) = 2.98390 1.51530 2.36641
# Velocity P-wave (km/s) = 5.69181 4.99495 5.35473
#
# Compressibility (1/GPa) = 0.02962317
#
# Stress axis : x y z
#
# Youngs Moduli (GPa) = 609.17674 609.17674 92.30643
#
# Poissons Ratio (x) = -7.98467 0.24711
# Poissons Ratio (y) = -7.98467 0.24711
# Poissons Ratio (z) = 1.63077 1.63077
#
# Static dielectric constant tensor:
#      x y z
#    x 1.563860 0.000000 0.000000 
#    y 0.000000 1.563860 0.000000 
#    z 0.000000 0.000000 1.624440 
# 
# From -- ./inp_files/6619.got.cif
#   From: 2010.05.17/outbox.cif.g08.bks.cpg/sg139_4_cif.got.tgz:6619.got - 2010.05.20 13:14:44.
