data_PCOD9571739
_publ_section_title
;
Structure prediction by ZEFSAII (Michael W. Deem and Ramdas Pophale) SiO2 
 PCOD9571739
Probable space group: I 4/M M M
;
_chemical_formula_sum "Si O2"
_cell_formula_units_Z 160
_cell_length_a 32.969445
_cell_length_b 32.969445
_cell_length_c 8.138985
_cell_angle_alpha 90.000000
_cell_angle_beta 90.000000
_cell_angle_gamma 90.000000
_cell_volume 8846.948942
_symmetry_space_group_name_H-M "I 4/M M M"
_symmetry_group_IT_number 139
_symmetry_cell_setting 'tetragonal'
loop_
_space_group_symop_operation_xyz
x,y,z
-y,x,z
-x,-y,z
y,-x,z
x,-y,-z
-x,y,-z
y,x,-z
-y,-x,-z
-x,-y,-z
y,-x,-z
x,y,-z
-y,x,-z
-x,y,z
x,-y,z
-y,-x,z
y,x,z
1/2+x,1/2+y,1/2+z
1/2-y,1/2+x,1/2+z
1/2-x,1/2-y,1/2+z
1/2+y,1/2-x,1/2+z
1/2+x,1/2-y,1/2-z
1/2-x,1/2+y,1/2-z
1/2+y,1/2+x,1/2-z
1/2-y,1/2-x,1/2-z
1/2-x,1/2-y,1/2-z
1/2+y,1/2-x,1/2-z
1/2+x,1/2+y,1/2-z
1/2-y,1/2+x,1/2-z
1/2-x,1/2+y,1/2+z
1/2+x,1/2-y,1/2+z
1/2-y,1/2-x,1/2+z
1/2+y,1/2+x,1/2+z
loop_
_atom_site_type_symbol
_atom_site_label
_atom_site_fract_x
_atom_site_fract_y
_atom_site_fract_z
Si Si1 0.046656 0.388623 0.302710
Si Si2 0.282809 0.282809 0.802525
Si Si3 0.453140 0.384978 0.000000
Si Si4 0.766168 0.874582 0.694052
Si Si5 0.676660 0.111289 0.806030
Si Si6 0.654389 0.414064 0.314879
O O1 0.047573 0.386407 0.500000
O O2 0.071400 0.428601 0.250000
O O3 0.072012 0.350464 0.235324
O O4 0.000000 0.389113 0.247626
O O5 0.250000 0.250000 0.750000
O O6 0.328014 0.270962 0.747572
O O7 0.283341 0.283341 0.000000
O O8 0.442201 0.359953 0.834987
O O9 0.500000 0.395920 0.000000
O O10 0.424057 0.424057 0.000000
O O11 0.776165 0.875919 0.500000
O O12 0.720202 0.888427 0.720693
O O13 0.799210 0.901413 0.787271
O O14 0.649762 0.149762 0.750000
O O15 0.682768 0.113855 0.000000
O O16 0.648345 0.430322 0.500000
O O17 0.626563 0.373438 0.301077
#
# Coordination Sequence:
#
# PCOD9571739 Si02
#       6
#    32  16  16  32  32  32
#     4  10  21  38  60  84 109 140 179 226 286 352
#     4  10  22  32  48  76 114 154 198 253 294 337
#     4  10  22  41  66  94 128 158 196 246 297 359
#     4  11  20  35  56  80 114 157 203 248 296 346
#     4  11  22  36  54  79 111 151 195 239 293 352
#     4  10  20  36  61  90 120 161 205 245 296 351
#
# _framework density 18.085332000000001
#
# number of rings (size 3 to 8) (size 9 to 14) (size 15 to 20)
#    0.000    1.600    2.000    4.800    0.000    5.500 
#    0.000    2.000    0.000    2.400    0.000    2.800 
#    0.000    0.000    0.000    0.000    0.000    0.000 
#
# Total GULP energy -446826.106998 kJ/mol
# GULP energy per Si atom -5585.326337 kJ/mol
# Density = 1.804417 g / cm^3
# Si number density = 18.085332 Si / 1000 Ang^3
#
#
#
# Elastic Constant Matrix: (Units=GPa)
#
#
# Indices 1 2 3 4 5 6 
#
# 1 85.2091 45.5325 21.0787 0.0000 0.0000 0.0000
# 2 45.5325 85.2283 21.0839 0.0000 0.0000 0.0000
# 3 21.0787 21.0839 91.7019 0.0000 0.0000 0.0000
# 4 0.0000 0.0000 0.0000 20.4302 0.0000 0.0000
# 5 0.0000 0.0000 0.0000 0.0000 20.4305 0.0000
# 6 0.0000 0.0000 0.0000 0.0000 0.0000 7.1661
#
#
#
# Elastic Compliance Matrix: (Units=1/GPa)
#
#
# Indices 1 2 3 4 5 6 
#
# 1 0.016731 -0.008469 -0.001899 0.000000 0.000000 0.000000
# 2 -0.008469 0.016727 -0.001899 0.000000 0.000000 0.000000
# 3 -0.001899 -0.001899 0.011778 0.000000 0.000000 0.000000
# 4 0.000000 0.000000 0.000000 0.048947 0.000000 0.000000
# 5 0.000000 0.000000 0.000000 0.000000 0.048947 0.000000
# 6 0.000000 0.000000 0.000000 0.000000 0.000000 0.139546
#
#
# Mechanical properties :
#
#
# Convention : Reuss Voigt Hill
#
# Bulk Modulus (GPa) = 48.30222 48.61438 48.45830
# Shear Modulus (GPa) = 15.91800 21.23498 18.57649
#
# Velocity S-wave (km/s) = 2.96997 3.43031 3.20841
# Velocity P-wave (km/s) = 6.20700 6.52903 6.37005
#
# Compressibility (1/GPa) = 0.02070298
#
# Stress axis : x y z
#
# Youngs Moduli (GPa) = 59.76994 59.78249 84.90398
#
# Poissons Ratio (x) = 0.50627 0.16121
# Poissons Ratio (y) = 0.50617 0.16126
# Poissons Ratio (z) = 0.11348 0.11355
#
# Static dielectric constant tensor:
#      x y z
#    x 1.598300 0.000000 0.000000 
#    y 0.000000 1.598290 0.000000 
#    z 0.000000 0.000000 1.640510 
# 
# From -- ./inp_files/2194.got.cif
#   From: 2010.05.17/outbox.cif.g08.bks.cpg/sg139_2_cif.got.tgz:2194.got - 2010.05.20 13:14:44.
