data_PCOD9571390
_publ_section_title
;
Structure prediction by ZEFSAII (Michael W. Deem and Ramdas Pophale) SiO2 
 PCOD9571390
Probable space group: I 4/M M M
;
_chemical_formula_sum "Si O2"
_cell_formula_units_Z 160
_cell_length_a 22.365932
_cell_length_b 22.365932
_cell_length_c 18.187447
_cell_angle_alpha 90.000000
_cell_angle_beta 90.000000
_cell_angle_gamma 90.000000
_cell_volume 9097.995990
_symmetry_space_group_name_H-M "I 4/M M M"
_symmetry_group_IT_number 139
_symmetry_cell_setting 'tetragonal'
loop_
_space_group_symop_operation_xyz
x,y,z
-y,x,z
-x,-y,z
y,-x,z
x,-y,-z
-x,y,-z
y,x,-z
-y,-x,-z
-x,-y,-z
y,-x,-z
x,y,-z
-y,x,-z
-x,y,z
x,-y,z
-y,-x,z
y,x,z
1/2+x,1/2+y,1/2+z
1/2-y,1/2+x,1/2+z
1/2-x,1/2-y,1/2+z
1/2+y,1/2-x,1/2+z
1/2+x,1/2-y,1/2-z
1/2-x,1/2+y,1/2-z
1/2+y,1/2+x,1/2-z
1/2-y,1/2-x,1/2-z
1/2-x,1/2-y,1/2-z
1/2+y,1/2-x,1/2-z
1/2+x,1/2+y,1/2-z
1/2-y,1/2+x,1/2-z
1/2-x,1/2+y,1/2+z
1/2+x,1/2-y,1/2+z
1/2-y,1/2-x,1/2+z
1/2+y,1/2+x,1/2+z
loop_
_atom_site_type_symbol
_atom_site_label
_atom_site_fract_x
_atom_site_fract_y
_atom_site_fract_z
Si Si1 0.161786 0.383834 0.323880
Si Si2 0.159073 0.500000 0.583886
Si Si3 0.197271 0.899054 0.198942
Si Si4 0.665914 0.431242 0.135203
Si Si5 0.804384 0.000000 0.084042
Si Si6 0.336104 0.761284 0.086336
O O1 0.124107 0.375894 0.250000
O O2 0.142054 0.440172 0.372508
O O3 0.231340 0.393146 0.302241
O O4 0.159211 0.322419 0.369494
O O5 0.137466 0.500000 0.500000
O O6 0.231823 0.500000 0.581343
O O7 0.164365 0.835636 0.191850
O O8 0.177236 0.926472 0.276871
O O9 0.178663 0.942033 0.131813
O O10 0.663778 0.500000 0.112912
O O11 0.605607 0.394393 0.118436
O O12 0.719982 0.394130 0.098932
O O13 0.826111 0.000000 0.000000
O O14 0.279872 0.720129 0.111157
O O15 0.328657 0.773641 0.000000
#
# Coordination Sequence:
#
# PCOD9571390 Si02
#       6
#    32  16  32  32  16  32
#     4  11  20  33  56  85 111 146 184 227 277 335
#     4   9  20  36  54  79 114 148 178 218 270 333
#     4  10  19  31  50  76 107 144 185 231 279 329
#     4  10  20  35  56  80 110 147 187 232 280 332
#     4   9  18  32  48  71 105 146 188 227 270 326
#     4  10  21  35  53  81 114 144 179 229 287 342
#
# _framework density 17.586289000000001
#
# number of rings (size 3 to 8) (size 9 to 14) (size 15 to 20)
#    0.000    2.000    3.000    1.200    0.000    2.600 
#    0.000    0.000    0.000    0.600    0.000    4.200 
#    0.000    0.000    0.000    0.000    0.000    0.000 
#
# Total GULP energy -446409.709550 kJ/mol
# GULP energy per Si atom -5580.121369 kJ/mol
# Density = 1.754626 g / cm^3
# Si number density = 17.586289 Si / 1000 Ang^3
#
#
#
# Elastic Constant Matrix: (Units=GPa)
#
#
# Indices 1 2 3 4 5 6 
#
# 1 101.1463 35.3586 32.1776 0.0000 0.0000 0.0000
# 2 35.3586 101.1445 32.1769 0.0000 0.0000 0.0000
# 3 32.1776 32.1769 86.5212 0.0000 0.0000 0.0000
# 4 0.0000 0.0000 0.0000 20.0883 0.0000 0.0000
# 5 0.0000 0.0000 0.0000 0.0000 20.0884 0.0000
# 6 0.0000 0.0000 0.0000 0.0000 0.0000 9.3741
#
#
#
# Elastic Compliance Matrix: (Units=1/GPa)
#
#
# Indices 1 2 3 4 5 6 
#
# 1 0.012042 -0.003159 -0.003304 0.000000 0.000000 0.000000
# 2 -0.003159 0.012042 -0.003304 0.000000 0.000000 0.000000
# 3 -0.003304 -0.003304 0.014015 0.000000 0.000000 0.000000
# 4 0.000000 0.000000 0.000000 0.049780 0.000000 0.000000
# 5 0.000000 0.000000 0.000000 0.000000 0.049780 0.000000
# 6 0.000000 0.000000 0.000000 0.000000 0.000000 0.106677
#
#
# Mechanical properties :
#
#
# Convention : Reuss Voigt Hill
#
# Bulk Modulus (GPa) = 53.85910 54.24870 54.05390
# Shear Modulus (GPa) = 18.51460 22.51676 20.51568
#
# Velocity S-wave (km/s) = 3.24819 3.58209 3.41922
# Velocity P-wave (km/s) = 6.69027 6.92984 6.81111
#
# Compressibility (1/GPa) = 0.01856696
#
# Stress axis : x y z
#
# Youngs Moduli (GPa) = 83.04352 83.04227 71.35131
#
# Poissons Ratio (x) = 0.26230 0.23573
# Poissons Ratio (y) = 0.26231 0.23572
# Poissons Ratio (z) = 0.27435 0.27435
#
# Static dielectric constant tensor:
#      x y z
#    x 1.579310 0.000000 0.000000 
#    y 0.000000 1.579310 0.000000 
#    z 0.000000 0.000000 1.609840 
# 
# From -- ./inp_files/8481.got.cif
#   From: 2010.05.17/outbox.cif.g08.bks.cpg/sg139_5_cif.got.tgz:8481.got - 2010.05.20 13:14:44.
