data_PCOD9571778
_publ_section_title
;
Structure prediction by ZEFSAII (Michael W. Deem and Ramdas Pophale) SiO2 
 PCOD9571778
Probable space group: I 4/M M M
;
_chemical_formula_sum "Si O2"
_cell_formula_units_Z 176
_cell_length_a 24.919441
_cell_length_b 24.919441
_cell_length_c 14.012730
_cell_angle_alpha 90.000000
_cell_angle_beta 90.000000
_cell_angle_gamma 90.000000
_cell_volume 8701.604613
_symmetry_space_group_name_H-M "I 4/M M M"
_symmetry_group_IT_number 139
_symmetry_cell_setting 'tetragonal'
loop_
_space_group_symop_operation_xyz
x,y,z
-y,x,z
-x,-y,z
y,-x,z
x,-y,-z
-x,y,-z
y,x,-z
-y,-x,-z
-x,-y,-z
y,-x,-z
x,y,-z
-y,x,-z
-x,y,z
x,-y,z
-y,-x,z
y,x,z
1/2+x,1/2+y,1/2+z
1/2-y,1/2+x,1/2+z
1/2-x,1/2-y,1/2+z
1/2+y,1/2-x,1/2+z
1/2+x,1/2-y,1/2-z
1/2-x,1/2+y,1/2-z
1/2+y,1/2+x,1/2-z
1/2-y,1/2-x,1/2-z
1/2-x,1/2-y,1/2-z
1/2+y,1/2-x,1/2-z
1/2+x,1/2+y,1/2-z
1/2-y,1/2+x,1/2-z
1/2-x,1/2+y,1/2+z
1/2+x,1/2-y,1/2+z
1/2-y,1/2-x,1/2+z
1/2+y,1/2+x,1/2+z
loop_
_atom_site_type_symbol
_atom_site_label
_atom_site_fract_x
_atom_site_fract_y
_atom_site_fract_z
Si Si1 0.249811 0.335225 0.612353
Si Si2 0.135129 0.369044 0.114412
Si Si3 0.563793 0.936207 0.750000
Si Si4 0.259803 0.938270 0.385854
Si Si5 0.644926 0.560968 0.185617
Si Si6 0.177937 0.941123 0.893812
O O1 0.241730 0.322141 0.500000
O O2 0.286299 0.286299 0.653029
O O3 0.191006 0.350652 0.649043
O O4 0.284302 0.389717 0.615155
O O5 0.085316 0.398814 0.163864
O O6 0.187792 0.404381 0.135555
O O7 0.126915 0.367528 0.000000
O O8 0.500000 0.928074 0.767386
O O9 0.252101 0.937118 0.500000
O O10 0.204737 0.918962 0.338552
O O11 0.268037 0.000000 0.355987
O O12 0.640552 0.500000 0.149490
O O13 0.600205 0.600205 0.146116
O O14 0.641286 0.559471 0.300642
O O15 0.205973 0.000000 0.889603
O O16 0.153100 0.938072 0.000000
#
# Coordination Sequence:
#
# PCOD9571778 Si02
#       6
#    32  32  16  32  32  32
#     4   9  18  33  54  84 120 152 187 237 295 352
#     4  10  22  40  63  90 120 158 198 241 298 359
#     4  11  26  44  63  90 122 160 207 260 310 357
#     4   9  19  37  59  80 105 142 188 235 282 339
#     4  10  21  35  54  81 110 146 191 237 288 344
#     4   9  18  33  53  77 110 154 197 234 278 337
#
# _framework density 20.226154000000001
#
# number of rings (size 3 to 8) (size 9 to 14) (size 15 to 20)
#    0.000    2.455    0.000    1.091    2.545    4.545 
#    0.000    5.000    0.000    0.000    0.000    5.091 
#    0.000    0.000    0.000    0.000    0.000    0.000 
#
# Total GULP energy -490507.283845 kJ/mol
# GULP energy per Si atom -5573.946407 kJ/mol
# Density = 2.018012 g / cm^3
# Si number density = 20.226154 Si / 1000 Ang^3
#
#
#
# Elastic Constant Matrix: (Units=GPa)
#
#
# Indices 1 2 3 4 5 6 
#
# 1 84.2350 67.3369 15.2631 0.0000 0.0000 0.0000
# 2 67.3369 84.2368 15.2631 0.0000 0.0000 0.0000
# 3 15.2631 15.2631 43.2346 0.0000 0.0000 0.0000
# 4 0.0000 0.0000 0.0000 12.9195 0.0000 0.0000
# 5 0.0000 0.0000 0.0000 0.0000 12.9192 0.0000
# 6 0.0000 0.0000 0.0000 0.0000 0.0000 13.1462
#
#
#
# Elastic Compliance Matrix: (Units=1/GPa)
#
#
# Indices 1 2 3 4 5 6 
#
# 1 0.033139 -0.026036 -0.002508 0.000000 0.000000 0.000000
# 2 -0.026036 0.033138 -0.002507 0.000000 0.000000 0.000000
# 3 -0.002508 -0.002507 0.024900 0.000000 0.000000 0.000000
# 4 0.000000 0.000000 0.000000 0.077402 0.000000 0.000000
# 5 0.000000 0.000000 0.000000 0.000000 0.077404 0.000000
# 6 0.000000 0.000000 0.000000 0.000000 0.000000 0.076067
#
#
# Mechanical properties :
#
#
# Convention : Reuss Voigt Hill
#
# Bulk Modulus (GPa) = 34.39334 45.27028 39.83181
# Shear Modulus (GPa) = 12.69533 15.38654 14.04094
#
# Velocity S-wave (km/s) = 2.50805 2.76112 2.63762
# Velocity P-wave (km/s) = 5.04266 5.70926 5.38628
#
# Compressibility (1/GPa) = 0.02907540
#
# Stress axis : x y z
#
# Youngs Moduli (GPa) = 30.17570 30.17643 40.16069
#
# Poissons Ratio (x) = 0.78569 0.10070
# Poissons Ratio (y) = 0.78567 0.10069
# Poissons Ratio (z) = 0.07567 0.07566
#
# Static dielectric constant tensor:
#      x y z
#    x 1.712390 0.000000 0.000000 
#    y 0.000000 1.712380 0.000000 
#    z 0.000000 0.000000 1.776840 
# 
# From -- ./inp_files/6111.got.cif
#   From: 2010.05.17/outbox.cif.g08.bks.cpg/sg139_4_cif.got.tgz:6111.got - 2010.05.20 13:14:44.
