data_PCOD9571472
_publ_section_title
;
Structure prediction by ZEFSAII (Michael W. Deem and Ramdas Pophale) SiO2 
 PCOD9571472
Probable space group: I 4/M M M
;
_chemical_formula_sum "Si O2"
_cell_formula_units_Z 176
_cell_length_a 19.187602
_cell_length_b 19.187602
_cell_length_c 24.771475
_cell_angle_alpha 90.000000
_cell_angle_beta 90.000000
_cell_angle_gamma 90.000000
_cell_volume 9119.967069
_symmetry_space_group_name_H-M "I 4/M M M"
_symmetry_group_IT_number 139
_symmetry_cell_setting 'tetragonal'
loop_
_space_group_symop_operation_xyz
x,y,z
-y,x,z
-x,-y,z
y,-x,z
x,-y,-z
-x,y,-z
y,x,-z
-y,-x,-z
-x,-y,-z
y,-x,-z
x,y,-z
-y,x,-z
-x,y,z
x,-y,z
-y,-x,z
y,x,z
1/2+x,1/2+y,1/2+z
1/2-y,1/2+x,1/2+z
1/2-x,1/2-y,1/2+z
1/2+y,1/2-x,1/2+z
1/2+x,1/2-y,1/2-z
1/2-x,1/2+y,1/2-z
1/2+y,1/2+x,1/2-z
1/2-y,1/2-x,1/2-z
1/2-x,1/2-y,1/2-z
1/2+y,1/2-x,1/2-z
1/2+x,1/2+y,1/2-z
1/2-y,1/2+x,1/2-z
1/2-x,1/2+y,1/2+z
1/2+x,1/2-y,1/2+z
1/2-y,1/2-x,1/2+z
1/2+y,1/2+x,1/2+z
loop_
_atom_site_type_symbol
_atom_site_label
_atom_site_fract_x
_atom_site_fract_y
_atom_site_fract_z
Si Si1 0.248973 0.921356 0.061121
Si Si2 0.923691 0.814690 0.172613
Si Si3 0.083576 0.799903 0.646870
Si Si4 0.304952 0.921020 0.747038
Si Si5 0.500000 0.079366 0.065698
Si Si6 0.681713 0.124053 0.436034
O O1 0.193049 0.919484 0.108348
O O2 0.302948 0.858549 0.070160
O O3 0.282091 0.000000 0.064400
O O4 0.222065 0.914947 0.000000
O O5 0.863943 0.863943 0.193734
O O6 0.917405 0.738268 0.197512
O O7 0.000000 0.841591 0.188167
O O8 0.130536 0.869465 0.650194
O O9 0.093129 0.751631 0.700038
O O10 0.111805 0.751210 0.598081
O O11 0.000000 0.812634 0.640940
O O12 0.366095 0.866095 0.750000
O O13 0.330514 0.000000 0.739048
O O14 0.566650 0.124717 0.081742
O O15 0.500000 0.000000 0.085603
O O16 0.500000 0.076060 0.000000
O O17 0.695623 0.114544 0.500000
#
# Coordination Sequence:
#
# PCOD9571472 Si02
#       6
#    32  32  32  32  16  32
#     4   9  18  32  52  81 117 151 183 222 272 337
#     4  10  21  37  57  81 109 144 187 235 284 333
#     4  11  24  41  60  82 111 147 194 249 297 342
#     4  10  22  40  62  87 118 150 186 226 274 339
#     4   9  16  28  50  78 111 149 181 219 277 341
#     4  10  19  33  54  81 114 148 188 236 285 343
#
# _framework density 19.298316
#
# number of rings (size 3 to 8) (size 9 to 14) (size 15 to 20)
#    0.000    2.091    0.909    2.182    0.000    7.091 
#    0.000    2.727    0.000    3.273    0.000    3.818 
#    0.000    0.000    0.000    0.000    0.000    0.000 
#
# Total GULP energy -490943.619024 kJ/mol
# GULP energy per Si atom -5578.904762 kJ/mol
# Density = 1.925439 g / cm^3
# Si number density = 19.298316 Si / 1000 Ang^3
#
#
#
# Elastic Constant Matrix: (Units=GPa)
#
#
# Indices 1 2 3 4 5 6 
#
# 1 95.4149 75.6407 25.5133 0.0000 0.0000 0.0000
# 2 75.6407 95.4149 25.5133 0.0000 0.0000 0.0000
# 3 25.5133 25.5133 63.4554 0.0000 0.0000 0.0000
# 4 0.0000 0.0000 0.0000 18.9715 0.0000 0.0000
# 5 0.0000 0.0000 0.0000 0.0000 18.9715 0.0000
# 6 0.0000 0.0000 0.0000 0.0000 0.0000 137.3182
#
#
#
# Elastic Compliance Matrix: (Units=1/GPa)
#
#
# Indices 1 2 3 4 5 6 
#
# 1 0.028607 -0.021964 -0.002671 0.000000 0.000000 0.000000
# 2 -0.021964 0.028607 -0.002671 0.000000 0.000000 0.000000
# 3 -0.002671 -0.002671 0.017907 0.000000 0.000000 0.000000
# 4 0.000000 0.000000 0.000000 0.052711 0.000000 0.000000
# 5 0.000000 0.000000 0.000000 0.000000 0.052711 0.000000
# 6 0.000000 0.000000 0.000000 0.000000 0.000000 0.007282
#
#
# Mechanical properties :
#
#
# Convention : Reuss Voigt Hill
#
# Bulk Modulus (GPa) = 48.75909 56.40221 52.58065
# Shear Modulus (GPa) = 20.05842 43.56011 31.80926
#
# Velocity S-wave (km/s) = 3.22745 4.75615 4.06432
# Velocity P-wave (km/s) = 6.26174 7.71046 7.02356
#
# Compressibility (1/GPa) = 0.02050900
#
# Stress axis : x y z
#
# Youngs Moduli (GPa) = 34.95667 34.95667 55.84469
#
# Poissons Ratio (x) = 0.76779 0.14915
# Poissons Ratio (y) = 0.76779 0.14915
# Poissons Ratio (z) = 0.09336 0.09336
#
# Static dielectric constant tensor:
#      x y z
#    x 1.676850 0.000000 0.000000 
#    y 0.000000 1.676850 0.000000 
#    z 0.000000 0.000000 1.711350 
# 
# From -- ./inp_files/13142.got.cif
#   From: 2010.05.17/outbox.cif.g08.bks.cpg/sg139_7_cif.got.tgz:13142.got - 2010.05.20 13:14:44.
