data_PCOD9571487
_publ_section_title
;
Structure prediction by ZEFSAII (Michael W. Deem and Ramdas Pophale) SiO2 
 PCOD9571487
Probable space group: I 4/M M M
;
_chemical_formula_sum "Si O2"
_cell_formula_units_Z 160
_cell_length_a 21.343030
_cell_length_b 21.343030
_cell_length_c 19.886057
_cell_angle_alpha 90.000000
_cell_angle_beta 90.000000
_cell_angle_gamma 90.000000
_cell_volume 9058.594715
_symmetry_space_group_name_H-M "I 4/M M M"
_symmetry_group_IT_number 139
_symmetry_cell_setting 'tetragonal'
loop_
_space_group_symop_operation_xyz
x,y,z
-y,x,z
-x,-y,z
y,-x,z
x,-y,-z
-x,y,-z
y,x,-z
-y,-x,-z
-x,-y,-z
y,-x,-z
x,y,-z
-y,x,-z
-x,y,z
x,-y,z
-y,-x,z
y,x,z
1/2+x,1/2+y,1/2+z
1/2-y,1/2+x,1/2+z
1/2-x,1/2-y,1/2+z
1/2+y,1/2-x,1/2+z
1/2+x,1/2-y,1/2-z
1/2-x,1/2+y,1/2-z
1/2+y,1/2+x,1/2-z
1/2-y,1/2-x,1/2-z
1/2-x,1/2-y,1/2-z
1/2+y,1/2-x,1/2-z
1/2+x,1/2+y,1/2-z
1/2-y,1/2+x,1/2-z
1/2-x,1/2+y,1/2+z
1/2+x,1/2-y,1/2+z
1/2-y,1/2-x,1/2+z
1/2+y,1/2+x,1/2+z
loop_
_atom_site_type_symbol
_atom_site_label
_atom_site_fract_x
_atom_site_fract_y
_atom_site_fract_z
Si Si1 0.358664 0.196698 0.420571
Si Si2 0.269468 0.832072 0.692873
Si Si3 0.175770 0.072719 0.121112
Si Si4 0.673748 0.428510 0.215936
Si Si5 0.931517 0.572586 0.418412
O O1 0.346454 0.194895 0.500000
O O2 0.296877 0.195077 0.375524
O O3 0.399278 0.258521 0.404923
O O4 0.393040 0.132147 0.399017
O O5 0.210423 0.789578 0.715422
O O6 0.321726 0.821726 0.750000
O O7 0.238818 0.900051 0.688430
O O8 0.118816 0.118816 0.100222
O O9 0.177952 0.074052 0.202594
O O10 0.167646 0.000000 0.100423
O O11 0.664301 0.500000 0.195811
O O12 0.615600 0.384400 0.195373
O O13 0.931977 0.573520 0.500000
O O14 0.927829 0.500000 0.397816
O O15 0.000000 0.597585 0.396272
#
# Coordination Sequence:
#
# PCOD9571487 Si02
#       5
#    32  32  32  32  32
#     4  11  21  32  52  80 105 134 176 222 261 307
#     4  10  19  34  52  70  99 137 169 203 257 317
#     4  10  20  34  52  76 107 143 185 230 273 319
#     4   9  18  33  54  78 104 138 179 222 271 325
#     4   8  15  29  47  67  95 130 164 200 247 301
#
# _framework density 17.662783999999998
#
# number of rings (size 3 to 8) (size 9 to 14) (size 15 to 20)
#    0.000    2.400    2.000    1.800    0.000    4.000 
#    0.000    2.000    0.000    0.000    0.000    2.800 
#    0.000    0.000    0.000    4.400    0.000    0.200 
#
# Total GULP energy -445529.269479 kJ/mol
# GULP energy per Si atom -5569.115868 kJ/mol
# Density = 1.762258 g / cm^3
# Si number density = 17.662784 Si / 1000 Ang^3
#
#
#
# Elastic Constant Matrix: (Units=GPa)
#
#
# Indices 1 2 3 4 5 6 
#
# 1 117.1075 74.9930 23.7810 0.0000 0.0000 0.0000
# 2 74.9930 117.1075 23.7810 0.0000 0.0000 0.0000
# 3 23.7810 23.7810 31.6747 0.0000 0.0000 0.0000
# 4 0.0000 0.0000 0.0000 16.9194 0.0000 0.0000
# 5 0.0000 0.0000 0.0000 0.0000 16.9194 0.0000
# 6 0.0000 0.0000 0.0000 0.0000 0.0000 30.0291
#
#
#
# Elastic Compliance Matrix: (Units=1/GPa)
#
#
# Indices 1 2 3 4 5 6 
#
# 1 0.015070 -0.008675 -0.004801 0.000000 0.000000 0.000000
# 2 -0.008675 0.015070 -0.004801 0.000000 0.000000 0.000000
# 3 -0.004801 -0.004801 0.038780 0.000000 0.000000 0.000000
# 4 0.000000 0.000000 0.000000 0.059104 0.000000 0.000000
# 5 0.000000 0.000000 0.000000 0.000000 0.059104 0.000000
# 6 0.000000 0.000000 0.000000 0.000000 0.000000 0.033301
#
#
# Mechanical properties :
#
#
# Convention : Reuss Voigt Hill
#
# Bulk Modulus (GPa) = 30.89739 56.77777 43.83758
# Shear Modulus (GPa) = 18.67280 22.32921 20.50101
#
# Velocity S-wave (km/s) = 3.25496 3.55941 3.41059
# Velocity P-wave (km/s) = 5.62648 7.00769 6.35472
#
# Compressibility (1/GPa) = 0.03236519
#
# Stress axis : x y z
#
# Youngs Moduli (GPa) = 66.35914 66.35914 25.78675
#
# Poissons Ratio (x) = 0.57569 0.12379
# Poissons Ratio (y) = 0.57569 0.12379
# Poissons Ratio (z) = 0.31857 0.31857
#
# Static dielectric constant tensor:
#      x y z
#    x 1.640670 0.000000 0.000000 
#    y 0.000000 1.640670 0.000000 
#    z 0.000000 0.000000 1.588900 
# 
# From -- ./inp_files/8373.got.cif
#   From: 2010.05.17/outbox.cif.g08.bks.cpg/sg139_5_cif.got.tgz:8373.got - 2010.05.20 13:14:44.
