data_PCOD9571048
_publ_section_title
;
Structure prediction by ZEFSAII (Michael W. Deem and Ramdas Pophale) SiO2 
 PCOD9571048
Probable space group: P 42/N C M
;
_chemical_formula_sum "Si O2"
_cell_formula_units_Z 96
_cell_length_a 20.113032
_cell_length_b 20.113032
_cell_length_c 12.262765
_cell_angle_alpha 90.000000
_cell_angle_beta 90.000000
_cell_angle_gamma 90.000000
_cell_volume 4960.706066
_symmetry_space_group_name_H-M "P 42/N C M"
_symmetry_group_IT_number 138
_space_group.IT_coordinate_system_code '2'
_symmetry_cell_setting 'tetragonal'
loop_
_space_group_symop_operation_xyz
x,y,z
1/2-y,x,1/2+z
1/2-x,1/2-y,z
y,1/2-x,1/2+z
1/2+x,-y,1/2-z
-x,1/2+y,1/2-z
1/2+y,1/2+x,-z
-y,-x,-z
-x,-y,-z
1/2+y,-x,1/2-z
1/2+x,1/2+y,-z
-y,1/2+x,1/2-z
1/2-x,y,1/2+z
x,1/2-y,1/2+z
1/2-y,1/2-x,z
y,x,z
loop_
_atom_site_type_symbol
_atom_site_label
_atom_site_fract_x
_atom_site_fract_y
_atom_site_fract_z
Si Si1 0.543285 0.543285 0.144405
Si Si2 0.793203 0.108167 0.054257
Si Si3 0.067775 0.432226 0.604959
Si Si4 0.371169 0.943853 0.235768
Si Si5 0.011210 0.289987 0.623043
Si Si6 0.156471 0.457144 0.046772
Si Si7 0.323295 0.544228 0.342981
O O1 0.486511 0.486511 0.140723
O O2 0.603785 0.510455 0.205764
O O3 0.564097 0.564097 0.025309
O O4 0.831634 0.093751 0.167636
O O5 0.716377 0.101779 0.090625
O O6 0.826489 0.173512 0.000000
O O7 0.801224 0.047202 0.967409
O O8 0.048224 0.359102 0.639185
O O9 0.427498 0.891042 0.204458
O O10 0.350612 0.975089 0.119326
O O11 0.060394 0.231546 0.583975
O O12 0.978408 0.277398 0.741314
O O13 0.098388 0.401613 0.060649
O O14 0.161033 0.483264 0.923164
#
# Coordination Sequence:
#
# PCOD9571048 Si02
#       7
#     8  16   8  16  16  16  16
#     4  11  20  30  62  99 128 158 201 265 328 355
#     4  11  21  40  65  90 125 166 210 260 305 373
#     4  11  20  34  60 102 127 155 212 268 308 370
#     4  12  21  38  62  93 129 159 205 260 314 374
#     4  11  22  39  62  96 125 164 210 258 311 377
#     4  11  26  42  59  90 130 168 204 255 323 380
#     4  11  24  37  63  94 127 165 206 259 323 375
#
# _framework density 19.352083
#
# number of rings (size 3 to 8) (size 9 to 14) (size 15 to 20)
#    0.000    0.833    7.500    0.500    2.333    0.667 
#    0.000    0.417    0.000   16.500    0.000    0.000 
#    0.000    0.000    0.000    0.000    0.000    0.000 
#
# Total GULP energy -534627.420546 kJ/mol
# GULP energy per Si atom -5569.035631 kJ/mol
# Density = 1.930804 g / cm^3
# Si number density = 19.352083 Si / 1000 Ang^3
#
#
#
# Elastic Constant Matrix: (Units=GPa)
#
#
# Indices 1 2 3 4 5 6 
#
# 1 37.8230 19.1545 22.7951 0.0000 0.0000 0.0000
# 2 19.1545 37.8214 22.7949 0.0000 0.0000 0.0000
# 3 22.7951 22.7949 105.4752 0.0000 0.0000 0.0000
# 4 0.0000 0.0000 0.0000 24.9412 0.0000 0.0000
# 5 0.0000 0.0000 0.0000 0.0000 24.9414 0.0000
# 6 0.0000 0.0000 0.0000 0.0000 0.0000 31.9213
#
#
#
# Elastic Compliance Matrix: (Units=1/GPa)
#
#
# Indices 1 2 3 4 5 6 
#
# 1 0.037394 -0.016174 -0.004586 0.000000 0.000000 0.000000
# 2 -0.016174 0.037395 -0.004586 0.000000 0.000000 0.000000
# 3 -0.004586 -0.004586 0.011463 0.000000 0.000000 0.000000
# 4 0.000000 0.000000 0.000000 0.040094 0.000000 0.000000
# 5 0.000000 0.000000 0.000000 0.000000 0.040094 0.000000
# 6 0.000000 0.000000 0.000000 0.000000 0.000000 0.031327
#
#
# Mechanical properties :
#
#
# Convention : Reuss Voigt Hill
#
# Bulk Modulus (GPa) = 28.12156 34.51208 31.31682
# Shear Modulus (GPa) = 19.20762 24.11910 21.66336
#
# Velocity S-wave (km/s) = 3.15387 3.53417 3.34942
# Velocity P-wave (km/s) = 5.27500 5.87591 5.58354
#
# Compressibility (1/GPa) = 0.03555990
#
# Stress axis : x y z
#
# Youngs Moduli (GPa) = 26.74252 26.74125 87.23575
#
# Poissons Ratio (x) = 0.43251 0.40006
# Poissons Ratio (y) = 0.43253 0.40009
# Poissons Ratio (z) = 0.12264 0.12264
#
# Static dielectric constant tensor:
#      x y z
#    x 1.636770 0.000000 0.000000 
#    y 0.000000 1.636770 0.000000 
#    z 0.000000 0.000000 1.728500 
# 
# From -- ./inp_files/3165.got.cif
#   From: 2010.05.17/outbox.cif.g08.bks.cpg/sg138_2_cif.got.tgz:3165.got - 2010.05.20 13:08:53.
