data_PCOD9571290
_publ_section_title
;
Structure prediction by ZEFSAII (Michael W. Deem and Ramdas Pophale) SiO2 
 PCOD9571290
Probable space group: I 4/M M M
;
_chemical_formula_sum "Si O2"
_cell_formula_units_Z 128
_cell_length_a 19.975528
_cell_length_b 19.975528
_cell_length_c 17.966388
_cell_angle_alpha 90.000000
_cell_angle_beta 90.000000
_cell_angle_gamma 90.000000
_cell_volume 7168.979022
_symmetry_space_group_name_H-M "I 4/M M M"
_symmetry_group_IT_number 139
_symmetry_cell_setting 'tetragonal'
loop_
_space_group_symop_operation_xyz
x,y,z
-y,x,z
-x,-y,z
y,-x,z
x,-y,-z
-x,y,-z
y,x,-z
-y,-x,-z
-x,-y,-z
y,-x,-z
x,y,-z
-y,x,-z
-x,y,z
x,-y,z
-y,-x,z
y,x,z
1/2+x,1/2+y,1/2+z
1/2-y,1/2+x,1/2+z
1/2-x,1/2-y,1/2+z
1/2+y,1/2-x,1/2+z
1/2+x,1/2-y,1/2-z
1/2-x,1/2+y,1/2-z
1/2+y,1/2+x,1/2-z
1/2-y,1/2-x,1/2-z
1/2-x,1/2-y,1/2-z
1/2+y,1/2-x,1/2-z
1/2+x,1/2+y,1/2-z
1/2-y,1/2+x,1/2-z
1/2-x,1/2+y,1/2+z
1/2+x,1/2-y,1/2+z
1/2-y,1/2-x,1/2+z
1/2+y,1/2+x,1/2+z
loop_
_atom_site_type_symbol
_atom_site_label
_atom_site_fract_x
_atom_site_fract_y
_atom_site_fract_z
Si Si1 0.888901 0.000000 0.089340
Si Si2 0.241171 0.000000 0.350721
Si Si3 0.500000 0.105338 0.088731
Si Si4 0.247695 0.863222 0.412485
Si Si5 0.500000 0.247210 0.672890
Si Si6 0.365153 0.891273 0.836800
O O1 0.935050 0.064951 0.107042
O O2 0.818111 0.000000 0.131185
O O3 0.878265 0.000000 0.000000
O O4 0.213017 0.930546 0.381452
O O5 0.317212 0.000000 0.383276
O O6 0.242113 0.000000 0.261932
O O7 0.430511 0.078784 0.122108
O O8 0.500000 0.101175 0.000000
O O9 0.261547 0.872494 0.500000
O O10 0.199433 0.800568 0.402408
O O11 0.317568 0.853240 0.370160
O O12 0.563580 0.200358 0.654394
O O13 0.383477 0.883477 0.750000
#
# Coordination Sequence:
#
# PCOD9571290 Si02
#       6
#    16  16  16  32  16  32
#     4   9  22  46  67  82 111 157 202 250 313 371
#     4  10  18  37  56  84 115 152 188 235 288 357
#     4  10  20  37  60  79 113 165 201 229 280 351
#     4  10  21  37  60  86 115 156 198 239 293 356
#     4  12  23  35  62  94 117 150 204 246 303 350
#     4  11  20  38  55  85 123 159 194 240 289 349
#
# _framework density 17.854704000000002
#
# number of rings (size 3 to 8) (size 9 to 14) (size 15 to 20)
#    0.000    1.625    5.000    3.750    0.000    5.000 
#    0.000    4.375    0.000    0.375    0.000    1.750 
#    0.000    0.000    0.000    0.000    0.000    0.000 
#
# Total GULP energy -357112.829807 kJ/mol
# GULP energy per Si atom -5579.887966 kJ/mol
# Density = 1.781407 g / cm^3
# Si number density = 17.854704 Si / 1000 Ang^3
#
#
#
# Elastic Constant Matrix: (Units=GPa)
#
#
# Indices 1 2 3 4 5 6 
#
# 1 114.4713 63.6995 75.3730 0.0000 0.0000 0.0000
# 2 63.6995 114.4713 75.3730 0.0000 0.0000 0.0000
# 3 75.3730 75.3730 146.2467 0.0000 0.0000 0.0000
# 4 0.0000 0.0000 0.0000 13.1932 0.0000 0.0000
# 5 0.0000 0.0000 0.0000 0.0000 13.1932 0.0000
# 6 0.0000 0.0000 0.0000 0.0000 0.0000 6.9221
#
#
#
# Elastic Compliance Matrix: (Units=1/GPa)
#
#
# Indices 1 2 3 4 5 6 
#
# 1 0.014824 -0.004872 -0.005129 0.000000 0.000000 0.000000
# 2 -0.004872 0.014824 -0.005129 0.000000 0.000000 0.000000
# 3 -0.005129 -0.005129 0.012125 0.000000 0.000000 0.000000
# 4 0.000000 0.000000 0.000000 0.075797 0.000000 0.000000
# 5 0.000000 0.000000 0.000000 0.000000 0.075797 0.000000
# 6 0.000000 0.000000 0.000000 0.000000 0.000000 0.144464
#
#
# Mechanical properties :
#
#
# Convention : Reuss Voigt Hill
#
# Bulk Modulus (GPa) = 86.86246 89.34227 88.10236
# Shear Modulus (GPa) = 13.44341 17.37793 15.41067
#
# Velocity S-wave (km/s) = 2.74694 3.12316 2.94107
# Velocity P-wave (km/s) = 7.66917 7.94686 7.80925
#
# Compressibility (1/GPa) = 0.01151245
#
# Stress axis : x y z
#
# Youngs Moduli (GPa) = 67.45739 67.45739 82.47541
#
# Poissons Ratio (x) = 0.32864 0.42304
# Poissons Ratio (y) = 0.32864 0.42304
# Poissons Ratio (z) = 0.34601 0.34601
#
# Static dielectric constant tensor:
#      x y z
#    x 1.627510 0.000000 0.000000 
#    y 0.000000 1.627510 0.000000 
#    z 0.000000 0.000000 1.594250 
# 
# From -- ./inp_files/5522.got.cif
#   From: 2010.05.17/outbox.cif.g08.bks.cpg/sg139_3_cif.got.tgz:5522.got - 2010.05.20 13:14:44.
