data_PCOD9571689
_publ_section_title
;
Structure prediction by ZEFSAII (Michael W. Deem and Ramdas Pophale) SiO2 
 PCOD9571689
Probable space group: I 4/M M M
;
_chemical_formula_sum "Si O2"
_cell_formula_units_Z 176
_cell_length_a 18.259707
_cell_length_b 18.259707
_cell_length_c 30.320292
_cell_angle_alpha 90.000000
_cell_angle_beta 90.000000
_cell_angle_gamma 90.000000
_cell_volume 10109.297757
_symmetry_space_group_name_H-M "I 4/M M M"
_symmetry_group_IT_number 139
_symmetry_cell_setting 'tetragonal'
loop_
_space_group_symop_operation_xyz
x,y,z
-y,x,z
-x,-y,z
y,-x,z
x,-y,-z
-x,y,-z
y,x,-z
-y,-x,-z
-x,-y,-z
y,-x,-z
x,y,-z
-y,x,-z
-x,y,z
x,-y,z
-y,-x,z
y,x,z
1/2+x,1/2+y,1/2+z
1/2-y,1/2+x,1/2+z
1/2-x,1/2-y,1/2+z
1/2+y,1/2-x,1/2+z
1/2+x,1/2-y,1/2-z
1/2-x,1/2+y,1/2-z
1/2+y,1/2+x,1/2-z
1/2-y,1/2-x,1/2-z
1/2-x,1/2-y,1/2-z
1/2+y,1/2-x,1/2-z
1/2+x,1/2+y,1/2-z
1/2-y,1/2+x,1/2-z
1/2-x,1/2+y,1/2+z
1/2+x,1/2-y,1/2+z
1/2-y,1/2-x,1/2+z
1/2+y,1/2+x,1/2+z
loop_
_atom_site_type_symbol
_atom_site_label
_atom_site_fract_x
_atom_site_fract_y
_atom_site_fract_z
Si Si1 0.411852 0.588149 0.552434
Si Si2 0.152402 0.357895 0.085867
Si Si3 0.583956 0.000000 0.052501
Si Si4 0.918148 0.198038 0.552102
Si Si5 0.692885 0.692885 0.611328
Si Si6 0.736821 0.736821 0.802629
Si Si7 0.918844 0.298141 0.676584
Si Si8 0.579010 0.920991 0.250000
O O1 0.399304 0.500000 0.557769
O O2 0.394272 0.605729 0.500000
O O3 0.365231 0.634770 0.589056
O O4 0.073203 0.374437 0.066807
O O5 0.219846 0.389137 0.057681
O O6 0.167487 0.272121 0.093552
O O7 0.160285 0.401986 0.131414
O O8 0.500000 0.000000 0.069679
O O9 0.579994 0.000000 0.000000
O O10 0.923018 0.184115 0.500000
O O11 0.859448 0.140553 0.571310
O O12 0.000000 0.190563 0.570892
O O13 0.712188 0.712188 0.664012
O O14 0.750000 0.750000 0.750000
O O15 0.652250 0.749900 0.814637
O O16 0.917718 0.356875 0.715495
O O17 0.000000 0.263977 0.675265
O O18 0.500000 0.916995 0.273145
#
# Coordination Sequence:
#
# PCOD9571689 Si02
#       8
#    16  32  16  32  16  16  32  16
#     4   9  20  40  64  90 125 167 208 259 318 372
#     4  11  22  38  55  79 111 148 188 232 279 340
#     4  11  24  38  54  82 117 153 187 227 288 352
#     4  10  20  35  54  74 100 135 175 222 272 323
#     4  10  23  38  58  87 112 152 206 248 289 360
#     4  10  20  39  57  83 121 148 191 249 306 360
#     4  10  20  35  57  80 107 147 185 228 287 343
#     4   9  18  31  50  80 110 137 176 219 266 336
#
# _framework density 17.409716
#
# number of rings (size 3 to 8) (size 9 to 14) (size 15 to 20)
#    0.000    1.909    1.818    2.455    2.545    3.091 
#    0.000    1.818    0.000    0.273    0.000    0.000 
#    0.000    0.000    0.000    0.000    0.000    0.000 
#
# Total GULP energy -489980.649318 kJ/mol
# GULP energy per Si atom -5567.961924 kJ/mol
# Density = 1.737009 g / cm^3
# Si number density = 17.409716 Si / 1000 Ang^3
#
#
#
# Elastic Constant Matrix: (Units=GPa)
#
#
# Indices 1 2 3 4 5 6 
#
# 1 124.2092 77.0235 38.1013 0.0000 0.0000 0.0000
# 2 77.0235 124.2093 38.1012 0.0000 0.0000 0.0000
# 3 38.1013 38.1012 73.8149 0.0000 0.0000 0.0000
# 4 0.0000 0.0000 0.0000 21.9631 0.0000 0.0000
# 5 0.0000 0.0000 0.0000 0.0000 21.9634 0.0000
# 6 0.0000 0.0000 0.0000 0.0000 0.0000 27.9691
#
#
#
# Elastic Compliance Matrix: (Units=1/GPa)
#
#
# Indices 1 2 3 4 5 6 
#
# 1 0.013685 -0.007508 -0.003188 0.000000 0.000000 0.000000
# 2 -0.007508 0.013685 -0.003188 0.000000 0.000000 0.000000
# 3 -0.003188 -0.003188 0.016839 0.000000 0.000000 0.000000
# 4 0.000000 0.000000 0.000000 0.045531 0.000000 0.000000
# 5 0.000000 0.000000 0.000000 0.000000 0.045530 0.000000
# 6 0.000000 0.000000 0.000000 0.000000 0.000000 0.035754
#
#
# Mechanical properties :
#
#
# Convention : Reuss Voigt Hill
#
# Bulk Modulus (GPa) = 60.83027 69.85395 65.34211
# Shear Modulus (GPa) = 24.47715 25.64627 25.06171
#
# Velocity S-wave (km/s) = 3.75366 3.84226 3.79822
# Velocity P-wave (km/s) = 7.33505 7.73916 7.53981
#
# Compressibility (1/GPa) = 0.01643918
#
# Stress axis : x y z
#
# Youngs Moduli (GPa) = 73.07387 73.07402 59.38674
#
# Poissons Ratio (x) = 0.54865 0.18934
# Poissons Ratio (y) = 0.54864 0.18934
# Poissons Ratio (z) = 0.23298 0.23298
#
# Static dielectric constant tensor:
#      x y z
#    x 1.598910 0.000000 0.000000 
#    y 0.000000 1.598900 0.000000 
#    z 0.000000 0.000000 1.604120 
# 
# From -- ./inp_files/14334.got.cif
#   From: 2010.05.17/outbox.cif.g08.bks.cpg/sg139_8_cif.got.tgz:14334.got - 2010.05.20 13:14:44.
