data_PCOD9571789
_publ_section_title
;
Structure prediction by ZEFSAII (Michael W. Deem and Ramdas Pophale) SiO2 
 PCOD9571789
Probable space group: I 4/M M M
;
_chemical_formula_sum "Si O2"
_cell_formula_units_Z 144
_cell_length_a 18.693032
_cell_length_b 18.693032
_cell_length_c 22.421812
_cell_angle_alpha 90.000000
_cell_angle_beta 90.000000
_cell_angle_gamma 90.000000
_cell_volume 7834.841331
_symmetry_space_group_name_H-M "I 4/M M M"
_symmetry_group_IT_number 139
_symmetry_cell_setting 'tetragonal'
loop_
_space_group_symop_operation_xyz
x,y,z
-y,x,z
-x,-y,z
y,-x,z
x,-y,-z
-x,y,-z
y,x,-z
-y,-x,-z
-x,-y,-z
y,-x,-z
x,y,-z
-y,x,-z
-x,y,z
x,-y,z
-y,-x,z
y,x,z
1/2+x,1/2+y,1/2+z
1/2-y,1/2+x,1/2+z
1/2-x,1/2-y,1/2+z
1/2+y,1/2-x,1/2+z
1/2+x,1/2-y,1/2-z
1/2-x,1/2+y,1/2-z
1/2+y,1/2+x,1/2-z
1/2-y,1/2-x,1/2-z
1/2-x,1/2-y,1/2-z
1/2+y,1/2-x,1/2-z
1/2+x,1/2+y,1/2-z
1/2-y,1/2+x,1/2-z
1/2-x,1/2+y,1/2+z
1/2+x,1/2-y,1/2+z
1/2-y,1/2-x,1/2+z
1/2+y,1/2+x,1/2+z
loop_
_atom_site_type_symbol
_atom_site_label
_atom_site_fract_x
_atom_site_fract_y
_atom_site_fract_z
Si Si1 0.283803 0.084331 0.376228
Si Si2 0.701185 0.583740 0.243554
Si Si3 0.586960 0.706467 0.000000
Si Si4 0.677682 0.918666 0.841141
Si Si5 0.421462 0.692593 0.429100
O O1 0.224855 0.095449 0.324727
O O2 0.252023 0.105787 0.440568
O O3 0.355953 0.122657 0.354627
O O4 0.298290 0.000000 0.379472
O O5 0.681711 0.500000 0.251783
O O6 0.637584 0.637584 0.259123
O O7 0.771295 0.596293 0.284382
O O8 0.500000 0.693967 0.000000
O O9 0.633706 0.633706 0.000000
O O10 0.732306 0.918255 0.896532
O O11 0.648509 0.000000 0.834736
O O12 0.414953 0.701395 0.500000
O O13 0.500000 0.660924 0.416703
O O14 0.359561 0.640440 0.407813
#
# Coordination Sequence:
#
# PCOD9571789 Si02
#       5
#    32  32  16  32  32
#     4  10  22  39  57  81 111 142 184 232 276 329
#     4  10  21  37  57  83 114 146 182 225 272 327
#     4  10  22  39  59  85 113 143 182 228 278 334
#     4  10  21  36  55  80 110 143 182 226 272 322
#     4   9  18  31  47  71 103 137 176 219 261 312
#
# _framework density 18.379441
#
# number of rings (size 3 to 8) (size 9 to 14) (size 15 to 20)
#    0.000    2.222    0.000    2.000    1.556    5.444 
#    0.000    1.111    0.000   14.000    0.000    0.000 
#    0.000    0.000    0.000    0.000    0.000    0.000 
#
# Total GULP energy -401596.796855 kJ/mol
# GULP energy per Si atom -5577.733290 kJ/mol
# Density = 1.833761 g / cm^3
# Si number density = 18.379441 Si / 1000 Ang^3
#
#
#
# Elastic Constant Matrix: (Units=GPa)
#
#
# Indices 1 2 3 4 5 6 
#
# 1 70.0310 60.6086 42.5304 0.0000 0.0000 0.0000
# 2 60.6086 70.0310 42.5304 0.0000 0.0000 0.0000
# 3 42.5304 42.5304 92.6818 0.0000 0.0000 0.0000
# 4 0.0000 0.0000 0.0000 18.8256 0.0000 0.0000
# 5 0.0000 0.0000 0.0000 0.0000 18.8256 0.0000
# 6 0.0000 0.0000 0.0000 0.0000 0.0000 75.7471
#
#
#
# Elastic Compliance Matrix: (Units=1/GPa)
#
#
# Indices 1 2 3 4 5 6 
#
# 1 0.058523 -0.047607 -0.005009 0.000000 0.000000 0.000000
# 2 -0.047607 0.058523 -0.005009 0.000000 0.000000 0.000000
# 3 -0.005009 -0.005009 0.015387 0.000000 0.000000 0.000000
# 4 0.000000 0.000000 0.000000 0.053119 0.000000 0.000000
# 5 0.000000 0.000000 0.000000 0.000000 0.053119 0.000000
# 6 0.000000 0.000000 0.000000 0.000000 0.000000 0.013202
#
#
# Mechanical properties :
#
#
# Convention : Reuss Voigt Hill
#
# Bulk Modulus (GPa) = 58.19954 58.23139 58.21546
# Shear Modulus (GPa) = 13.41011 28.48463 20.94737
#
# Velocity S-wave (km/s) = 2.70409 3.94103 3.37963
# Velocity P-wave (km/s) = 6.44079 7.24297 6.85363
#
# Compressibility (1/GPa) = 0.01718227
#
# Stress axis : x y z
#
# Youngs Moduli (GPa) = 17.08716 17.08716 64.98982
#
# Poissons Ratio (x) = 0.81347 0.32555
# Poissons Ratio (y) = 0.81347 0.32555
# Poissons Ratio (z) = 0.08560 0.08560
#
# Static dielectric constant tensor:
#      x y z
#    x 1.625800 0.000000 0.000000 
#    y 0.000000 1.625800 0.000000 
#    z 0.000000 0.000000 1.666370 
# 
# From -- ./inp_files/11449.got.cif
#   From: 2010.05.17/outbox.cif.g08.bks.cpg/sg139_6_cif.got.tgz:11449.got - 2010.05.20 13:14:44.
