data_PCOD9571155
_publ_section_title
;
Structure prediction by ZEFSAII (Michael W. Deem and Ramdas Pophale) SiO2 
 PCOD9571155
Probable space group: I 4/M M M
;
_chemical_formula_sum "Si O2"
_cell_formula_units_Z 112
_cell_length_a 30.637902
_cell_length_b 30.637902
_cell_length_c 5.473248
_cell_angle_alpha 90.000000
_cell_angle_beta 90.000000
_cell_angle_gamma 90.000000
_cell_volume 5137.634119
_symmetry_space_group_name_H-M "I 4/M M M"
_symmetry_group_IT_number 139
_symmetry_cell_setting 'tetragonal'
loop_
_space_group_symop_operation_xyz
x,y,z
-y,x,z
-x,-y,z
y,-x,z
x,-y,-z
-x,y,-z
y,x,-z
-y,-x,-z
-x,-y,-z
y,-x,-z
x,y,-z
-y,x,-z
-x,y,z
x,-y,z
-y,-x,z
y,x,z
1/2+x,1/2+y,1/2+z
1/2-y,1/2+x,1/2+z
1/2-x,1/2-y,1/2+z
1/2+y,1/2-x,1/2+z
1/2+x,1/2-y,1/2-z
1/2-x,1/2+y,1/2-z
1/2+y,1/2+x,1/2-z
1/2-y,1/2-x,1/2-z
1/2-x,1/2-y,1/2-z
1/2+y,1/2-x,1/2-z
1/2+x,1/2+y,1/2-z
1/2-y,1/2+x,1/2-z
1/2-x,1/2+y,1/2+z
1/2+x,1/2-y,1/2+z
1/2-y,1/2-x,1/2+z
1/2+y,1/2+x,1/2+z
loop_
_atom_site_type_symbol
_atom_site_label
_atom_site_fract_x
_atom_site_fract_y
_atom_site_fract_z
Si Si1 0.210182 0.548036 0.500000
Si Si2 0.548380 0.312780 0.000000
Si Si3 0.577085 0.830720 0.000000
Si Si4 0.423338 0.354405 0.500000
Si Si5 0.365394 0.248647 0.000000
Si Si6 0.634282 0.728140 0.500000
Si Si7 0.547848 0.079182 0.000000
O O1 0.231496 0.500000 0.500000
O O2 0.182535 0.552824 0.748653
O O3 0.242943 0.589117 0.500000
O O4 0.552861 0.341765 0.246372
O O5 0.588430 0.277595 0.000000
O O6 0.500000 0.291981 0.000000
O O7 0.620568 0.801619 0.000000
O O8 0.582848 0.882166 0.000000
O O9 0.402590 0.402590 0.500000
O O10 0.383206 0.320433 0.500000
O O11 0.342381 0.260880 0.750450
O O12 0.552956 0.052956 0.750000
O O13 0.500000 0.100136 0.000000
#
# Coordination Sequence:
#
# PCOD9571155 Si02
#       7
#    16  16  16  16  16  16  16
#     4  10  17  27  46  71  96 117 139 171 217 275
#     4  10  19  30  46  68  93 121 154 191 229 273
#     4  10  20  33  50  71  92 113 142 183 227 277
#     4  10  19  30  42  60  92 129 160 187 222 269
#     4   8  16  28  45  69  94 116 140 173 218 274
#     4   8  16  25  38  61  89 122 152 170 202 254
#     4  12  26  42  58  73  90 118 160 206 248 282
#
# _framework density 21.799918999999999
#
# number of rings (size 3 to 8) (size 9 to 14) (size 15 to 20)
#    0.000    2.286    0.000    3.429    0.000   11.714 
#    0.000    0.000    0.000    0.000    0.000    0.000 
#    0.000   20.000    0.000    0.000    0.000 1157.143 
#
# Total GULP energy -312395.546514 kJ/mol
# GULP energy per Si atom -5578.491902 kJ/mol
# Density = 2.175030 g / cm^3
# Si number density = 21.799919 Si / 1000 Ang^3
#
#
#
# Elastic Constant Matrix: (Units=GPa)
#
#
# Indices 1 2 3 4 5 6 
#
# 1 21.5128 14.4607 20.4290 0.0000 0.0000 0.0000
# 2 14.4607 21.5128 20.4290 0.0000 0.0000 0.0000
# 3 20.4290 20.4290 236.7450 0.0000 0.0000 0.0000
# 4 0.0000 0.0000 0.0000 13.3680 0.0000 0.0000
# 5 0.0000 0.0000 0.0000 0.0000 13.3680 0.0000
# 6 0.0000 0.0000 0.0000 0.0000 0.0000 80.4902
#
#
#
# Elastic Compliance Matrix: (Units=1/GPa)
#
#
# Indices 1 2 3 4 5 6 
#
# 1 0.086310 -0.055492 -0.002659 0.000000 0.000000 0.000000
# 2 -0.055492 0.086310 -0.002659 0.000000 0.000000 0.000000
# 3 -0.002659 -0.002659 0.004683 0.000000 0.000000 0.000000
# 4 0.000000 0.000000 0.000000 0.074805 0.000000 0.000000
# 5 0.000000 0.000000 0.000000 0.000000 0.074805 0.000000
# 6 0.000000 0.000000 0.000000 0.000000 0.000000 0.012424
#
#
# Mechanical properties :
#
#
# Convention : Reuss Voigt Hill
#
# Bulk Modulus (GPa) = 17.95886 43.37866 30.66876
# Shear Modulus (GPa) = 10.42710 36.40872 23.41791
#
# Velocity S-wave (km/s) = 2.18940 4.09116 3.28109
# Velocity P-wave (km/s) = 3.82717 6.50065 5.33412
#
# Compressibility (1/GPa) = 0.05568282
#
# Stress axis : x y z
#
# Youngs Moduli (GPa) = 11.58610 11.58610 213.54216
#
# Poissons Ratio (x) = 0.64293 0.56789
# Poissons Ratio (y) = 0.64293 0.56789
# Poissons Ratio (z) = 0.03081 0.03081
#
# Static dielectric constant tensor:
#      x y z
#    x 1.807380 0.000000 0.000000 
#    y 0.000000 1.807380 0.000000 
#    z 0.000000 0.000000 1.883070 
# 
# From -- ./inp_files/238.got.cif
#   From: 2010.05.17/outbox.cif.g08.bks.cpg/sg139_1_cif.got.tgz:238.got - 2010.05.20 13:14:44.
