data_PCOD9571261
_publ_section_title
;
Structure prediction by ZEFSAII (Michael W. Deem and Ramdas Pophale) SiO2 
 PCOD9571261
Probable space group: I 4/M M M
;
_chemical_formula_sum "Si O2"
_cell_formula_units_Z 128
_cell_length_a 19.966316
_cell_length_b 19.966316
_cell_length_c 17.664600
_cell_angle_alpha 90.000000
_cell_angle_beta 90.000000
_cell_angle_gamma 90.000000
_cell_volume 7042.059467
_symmetry_space_group_name_H-M "I 4/M M M"
_symmetry_group_IT_number 139
_symmetry_cell_setting 'tetragonal'
loop_
_space_group_symop_operation_xyz
x,y,z
-y,x,z
-x,-y,z
y,-x,z
x,-y,-z
-x,y,-z
y,x,-z
-y,-x,-z
-x,-y,-z
y,-x,-z
x,y,-z
-y,x,-z
-x,y,z
x,-y,z
-y,-x,z
y,x,z
1/2+x,1/2+y,1/2+z
1/2-y,1/2+x,1/2+z
1/2-x,1/2-y,1/2+z
1/2+y,1/2-x,1/2+z
1/2+x,1/2-y,1/2-z
1/2-x,1/2+y,1/2-z
1/2+y,1/2+x,1/2-z
1/2-y,1/2-x,1/2-z
1/2-x,1/2-y,1/2-z
1/2+y,1/2-x,1/2-z
1/2+x,1/2+y,1/2-z
1/2-y,1/2+x,1/2-z
1/2-x,1/2+y,1/2+z
1/2+x,1/2-y,1/2+z
1/2-y,1/2-x,1/2+z
1/2+y,1/2+x,1/2+z
loop_
_atom_site_type_symbol
_atom_site_label
_atom_site_fract_x
_atom_site_fract_y
_atom_site_fract_z
Si Si1 0.421310 0.681276 0.500000
Si Si2 0.581752 0.000000 0.171463
Si Si3 0.000000 0.731227 0.581849
Si Si4 0.777669 0.500000 0.250717
Si Si5 0.866899 0.240728 0.157568
Si Si6 0.866076 0.373746 0.913735
O O1 0.500000 0.687563 0.500000
O O2 0.394723 0.605278 0.500000
O O3 0.392699 0.713903 0.576314
O O4 0.638975 0.000000 0.240134
O O5 0.601050 0.934518 0.123911
O O6 0.500000 0.000000 0.179710
O O7 0.000000 0.756256 0.667914
O O8 0.934618 0.684709 0.581958
O O9 0.000000 0.768671 0.500000
O O10 0.753135 0.432514 0.291987
O O11 0.811807 0.188194 0.186681
O O12 0.837720 0.313801 0.137518
O O13 0.879460 0.351443 0.000000
#
# Coordination Sequence:
#
# PCOD9571261 Si02
#       6
#    16  16  16  16  32  32
#     4  10  18  31  52  83 119 153 183 221 272 334
#     4  10  19  30  48  77 111 148 185 224 267 322
#     4  10  22  39  54  72 105 142 184 239 292 335
#     4  10  22  38  56  78 111 150 189 238 292 341
#     4  10  20  34  57  84 115 152 190 230 276 342
#     4  10  19  32  49  74 109 148 187 223 269 324
#
# _framework density 18.176500999999998
#
# number of rings (size 3 to 8) (size 9 to 14) (size 15 to 20)
#    0.000    2.000    3.750    0.375    0.000    4.625 
#    2.250    2.500    0.000    2.625    0.000    0.000 
#    0.000    0.000    0.000    1.125    0.000    0.000 
#
# Total GULP energy -356424.895447 kJ/mol
# GULP energy per Si atom -5569.138991 kJ/mol
# Density = 1.813513 g / cm^3
# Si number density = 18.176501 Si / 1000 Ang^3
#
#
#
# Elastic Constant Matrix: (Units=GPa)
#
#
# Indices 1 2 3 4 5 6 
#
# 1 66.3543 58.5786 16.7177 0.0000 0.0000 0.0000
# 2 58.5786 66.3594 16.7203 0.0000 0.0000 0.0000
# 3 16.7177 16.7203 100.7693 0.0000 0.0000 0.0000
# 4 0.0000 0.0000 0.0000 -17.9314 0.0000 0.0000
# 5 0.0000 0.0000 0.0000 0.0000 -17.9280 0.0000
# 6 0.0000 0.0000 0.0000 0.0000 0.0000 281.1940
#
#
#
# Elastic Compliance Matrix: (Units=1/GPa)
#
#
# Indices 1 2 3 4 5 6 
#
# 1 0.068472 -0.060094 -0.001388 0.000000 0.000000 0.000000
# 2 -0.060094 0.068468 -0.001391 0.000000 0.000000 0.000000
# 3 -0.001388 -0.001391 0.010385 0.000000 0.000000 0.000000
# 4 0.000000 0.000000 0.000000 -0.055768 0.000000 0.000000
# 5 0.000000 0.000000 0.000000 0.000000 -0.055779 0.000000
# 6 0.000000 0.000000 0.000000 0.000000 0.000000 0.003556
#
#
# Mechanical properties :
#
#
# Convention : Reuss Voigt Hill
#
# Bulk Modulus (GPa) = 46.34321 46.39068 46.36695
# Shear Modulus (GPa) = 29.02374 58.49802 43.76088
#
# Velocity S-wave (km/s) = 4.00030 5.67919 4.91200
# Velocity P-wave (km/s) = 6.84749 8.28143 7.59836
#
# Compressibility (1/GPa) = 0.02157813
#
# Stress axis : x y z
#
# Youngs Moduli (GPa) = 14.60450 14.60547 96.29460
#
# Poissons Ratio (x) = 0.87770 0.13369
# Poissons Ratio (y) = 0.87764 0.13395
# Poissons Ratio (z) = 0.02028 0.02032
#
# Static dielectric constant tensor:
#      x y z
#    x 1.618570 0.000000 0.000000 
#    y 0.000000 1.618570 0.000000 
#    z 0.000000 0.000000 1.717340 
# 
# From -- ./inp_files/8085.got.cif
#   From: 2010.05.17/outbox.cif.g08.bks.cpg/sg139_5_cif.got.tgz:8085.got - 2010.05.20 13:14:44.
