data_PCOD9571382
_publ_section_title
;
Structure prediction by ZEFSAII (Michael W. Deem and Ramdas Pophale) SiO2 
 PCOD9571382
Probable space group: I 4/M M M
;
_chemical_formula_sum "Si O2"
_cell_formula_units_Z 144
_cell_length_a 19.624794
_cell_length_b 19.624794
_cell_length_c 23.259206
_cell_angle_alpha 90.000000
_cell_angle_beta 90.000000
_cell_angle_gamma 90.000000
_cell_volume 8957.877075
_symmetry_space_group_name_H-M "I 4/M M M"
_symmetry_group_IT_number 139
_symmetry_cell_setting 'tetragonal'
loop_
_space_group_symop_operation_xyz
x,y,z
-y,x,z
-x,-y,z
y,-x,z
x,-y,-z
-x,y,-z
y,x,-z
-y,-x,-z
-x,-y,-z
y,-x,-z
x,y,-z
-y,x,-z
-x,y,z
x,-y,z
-y,-x,z
y,x,z
1/2+x,1/2+y,1/2+z
1/2-y,1/2+x,1/2+z
1/2-x,1/2-y,1/2+z
1/2+y,1/2-x,1/2+z
1/2+x,1/2-y,1/2-z
1/2-x,1/2+y,1/2-z
1/2+y,1/2+x,1/2-z
1/2-y,1/2-x,1/2-z
1/2-x,1/2-y,1/2-z
1/2+y,1/2-x,1/2-z
1/2+x,1/2+y,1/2-z
1/2-y,1/2+x,1/2-z
1/2-x,1/2+y,1/2+z
1/2+x,1/2-y,1/2+z
1/2-y,1/2-x,1/2+z
1/2+y,1/2+x,1/2+z
loop_
_atom_site_type_symbol
_atom_site_label
_atom_site_fract_x
_atom_site_fract_y
_atom_site_fract_z
Si Si1 0.806742 0.080237 0.365999
Si Si2 0.320165 0.792835 0.068428
Si Si3 0.810439 0.077271 0.767762
Si Si4 0.919846 0.580155 0.250000
Si Si5 0.920331 0.318812 0.149095
O O1 0.877060 0.122941 0.373365
O O2 0.750256 0.117605 0.404404
O O3 0.787271 0.087216 0.298444
O O4 0.813923 0.000000 0.378697
O O5 0.252552 0.747449 0.080824
O O6 0.315984 0.866438 0.097945
O O7 0.327641 0.797860 0.000000
O O8 0.868495 0.131506 0.780221
O O9 0.748841 0.084332 0.811962
O O10 0.836988 0.000000 0.771312
O O11 0.907811 0.500000 0.240917
O O12 0.900475 0.620961 0.193075
O O13 0.000000 0.327336 0.131904
#
# Coordination Sequence:
#
# PCOD9571382 Si02
#       5
#    32  32  32  16  32
#     4   9  18  32  50  73  99 126 156 189 228 275
#     4  10  21  35  49  66  92 126 160 196 238 278
#     4   9  17  29  47  72  99 124 151 186 229 278
#     4   9  18  32  49  70  96 122 147 182 232 283
#     4  10  19  31  50  72  93 121 157 195 232 275
#
# _framework density 16.075237000000001
#
# number of rings (size 3 to 8) (size 9 to 14) (size 15 to 20)
#    0.000    2.556    0.000    2.000    0.000    4.000 
#    0.000    6.667    0.000    0.000    0.000    7.778 
#    0.000    0.000    0.000   20.667    0.000    0.222 
#
# Total GULP energy -401452.013260 kJ/mol
# GULP energy per Si atom -5575.722406 kJ/mol
# Density = 1.603865 g / cm^3
# Si number density = 16.075237 Si / 1000 Ang^3
#
#
#
# Elastic Constant Matrix: (Units=GPa)
#
#
# Indices 1 2 3 4 5 6 
#
# 1 87.0038 43.3148 49.9276 0.0000 0.0000 0.0000
# 2 43.3148 87.0053 49.9278 0.0000 0.0000 0.0000
# 3 49.9276 49.9278 69.4309 0.0000 0.0000 0.0000
# 4 0.0000 0.0000 0.0000 19.4259 0.0000 0.0000
# 5 0.0000 0.0000 0.0000 0.0000 19.4250 0.0000
# 6 0.0000 0.0000 0.0000 0.0000 0.0000 16.8160
#
#
#
# Elastic Compliance Matrix: (Units=1/GPa)
#
#
# Indices 1 2 3 4 5 6 
#
# 1 0.019990 -0.002899 -0.012290 0.000000 0.000000 0.000000
# 2 -0.002899 0.019989 -0.012289 0.000000 0.000000 0.000000
# 3 -0.012290 -0.012289 0.032077 0.000000 0.000000 0.000000
# 4 0.000000 0.000000 0.000000 0.051478 0.000000 0.000000
# 5 0.000000 0.000000 0.000000 0.000000 0.051480 0.000000
# 6 0.000000 0.000000 0.000000 0.000000 0.000000 0.059467
#
#
# Mechanical properties :
#
#
# Convention : Reuss Voigt Hill
#
# Bulk Modulus (GPa) = 58.48018 58.86448 58.67233
# Shear Modulus (GPa) = 16.94127 17.81805 17.37966
#
# Velocity S-wave (km/s) = 3.24986 3.33290 3.29164
# Velocity P-wave (km/s) = 7.10916 7.17695 7.14313
#
# Compressibility (1/GPa) = 0.01709981
#
# Stress axis : x y z
#
# Youngs Moduli (GPa) = 50.02602 50.02726 31.17457
#
# Poissons Ratio (x) = 0.14504 0.38312
# Poissons Ratio (y) = 0.14504 0.38311
# Poissons Ratio (z) = 0.61480 0.61480
#
# Static dielectric constant tensor:
#      x y z
#    x 1.536640 0.000000 0.000000 
#    y 0.000000 1.536640 0.000000 
#    z 0.000000 0.000000 1.515440 
# 
# From -- ./inp_files/10225.got.cif
#   From: 2010.05.17/outbox.cif.g08.bks.cpg/sg139_6_cif.got.tgz:10225.got - 2010.05.20 13:14:44.
