data_PCOD9571125
_publ_section_title
;
Structure prediction by ZEFSAII (Michael W. Deem and Ramdas Pophale) SiO2 
 PCOD9571125
Probable space group: P 42/N C M
;
_chemical_formula_sum "Si O2"
_cell_formula_units_Z 96
_cell_length_a 9.700224
_cell_length_b 9.700224
_cell_length_c 34.655849
_cell_angle_alpha 90.000000
_cell_angle_beta 90.000000
_cell_angle_gamma 90.000000
_cell_volume 3260.919435
_symmetry_space_group_name_H-M "P 42/N C M"
_symmetry_group_IT_number 138
_space_group.IT_coordinate_system_code '2'
_symmetry_cell_setting 'tetragonal'
loop_
_space_group_symop_operation_xyz
x,y,z
1/2-y,x,1/2+z
1/2-x,1/2-y,z
y,1/2-x,1/2+z
1/2+x,-y,1/2-z
-x,1/2+y,1/2-z
1/2+y,1/2+x,-z
-y,-x,-z
-x,-y,-z
1/2+y,-x,1/2-z
1/2+x,1/2+y,-z
-y,1/2+x,1/2-z
1/2-x,y,1/2+z
x,1/2-y,1/2+z
1/2-y,1/2-x,z
y,x,z
loop_
_atom_site_type_symbol
_atom_site_label
_atom_site_fract_x
_atom_site_fract_y
_atom_site_fract_z
Si Si1 0.515951 0.746368 0.773561
Si Si2 0.472322 0.251902 0.891555
Si Si3 0.989583 0.214514 0.055207
Si Si4 0.748439 0.984216 0.858451
Si Si5 0.754329 0.516153 0.189726
Si Si6 0.504772 0.733615 0.026228
O O1 0.632422 0.867579 0.773913
O O2 0.604019 0.604019 0.773389
O O3 0.447991 0.755857 0.815831
O O4 0.446056 0.760629 0.731511
O O5 0.347296 0.152705 0.880358
O O6 0.404026 0.404026 0.897111
O O7 0.557581 0.253620 0.852054
O O8 0.512113 0.190698 0.932954
O O9 0.136325 0.136325 0.059233
O O10 0.946916 0.247580 0.099035
O O11 0.881862 0.107010 0.037465
O O12 0.994869 0.302384 0.015680
O O13 0.613359 0.886642 0.860831
O O14 0.880437 0.880437 0.856909
O O15 0.896956 0.603045 0.192776
O O16 0.630547 0.630547 0.187816
O O17 0.648976 0.648976 0.025606
#
# Coordination Sequence:
#
# PCOD9571125 Si02
#       6
#    16  16  16  16  16  16
#     4   7   9  13  20  29  40  50  58  74 107 150
#     4   8  12  16  22  31  39  48  66  91 120 158
#     4   8  13  19  23  26  35  52  72  95 125 157
#     4   8  12  16  22  31  39  48  66  91 120 158
#     4   7   9  13  20  29  40  50  58  74 107 150
#     4   8  13  19  23  26  35  52  72  95 125 157
#
# _framework density 29.439551999999999
#
# number of rings (size 3 to 8) (size 9 to 14) (size 15 to 20)
#    0.000    4.333    0.000    4.000    0.000    0.667 
#    0.000    3.333    0.000    0.000    0.000    0.000 
#    0.000    0.000    0.000    0.000    0.000    0.000 
#
# Total GULP energy -535090.403864 kJ/mol
# GULP energy per Si atom -5573.858374 kJ/mol
# Density = 2.937255 g / cm^3
# Si number density = 29.439552 Si / 1000 Ang^3
#
#
#
# Elastic Constant Matrix: (Units=GPa)
#
#
# Indices 1 2 3 4 5 6 
#
# 1 32.6541 51.8140 49.1965 0.0000 0.0000 0.0000
# 2 51.8140 32.6541 49.1965 0.0000 0.0000 0.0000
# 3 49.1965 49.1965 507.6987 0.0000 0.0000 0.0000
# 4 0.0000 0.0000 0.0000 43.9807 0.0000 0.0000
# 5 0.0000 0.0000 0.0000 0.0000 43.9807 0.0000
# 6 0.0000 0.0000 0.0000 0.0000 0.0000 55.2173
#
#
#
# Elastic Compliance Matrix: (Units=1/GPa)
#
#
# Indices 1 2 3 4 5 6 
#
# 1 -0.019424 0.032769 -0.001293 0.000000 0.000000 0.000000
# 2 0.032769 -0.019424 -0.001293 0.000000 0.000000 0.000000
# 3 -0.001293 -0.001293 0.002220 0.000000 0.000000 0.000000
# 4 0.000000 0.000000 0.000000 0.022737 0.000000 0.000000
# 5 0.000000 0.000000 0.000000 0.000000 0.022737 0.000000
# 6 0.000000 0.000000 0.000000 0.000000 0.000000 0.018110
#
#
# Mechanical properties :
#
#
# Convention : Reuss Voigt Hill
#
# Bulk Modulus (GPa) = 42.12667 97.04676 69.58672
# Shear Modulus (GPa) = -196.12475 56.82237 -69.65119
#
# Velocity S-wave (km/s) = -8.17093 4.39810 -4.86933
# Velocity P-wave (km/s) = 8.64165 7.66990 2.81521
#
# Compressibility (1/GPa) = 0.02373793
#
# Stress axis : x y z
#
# Youngs Moduli (GPa) = -51.48398 -51.48398 450.39192
#
# Poissons Ratio (x) = 1.68706 0.58243
# Poissons Ratio (y) = 1.68706 0.58243
# Poissons Ratio (z) = -0.06658 -0.06658
#
# Static dielectric constant tensor:
#      x y z
#    x 2.272440 0.000000 0.000000 
#    y 0.000000 2.272440 0.000000 
#    z 0.000000 0.000000 2.365310 
# 
# From -- ./inp_files/8190.got.cif
#   From: 2010.05.17/outbox.cif.g08.bks.cpg/sg138_5_cif.got.tgz:8190.got - 2010.05.20 13:08:53.
