data_PCOD9571247
_publ_section_title
;
Structure prediction by ZEFSAII (Michael W. Deem and Ramdas Pophale) SiO2 
 PCOD9571247
Probable space group: I 4/M M M
;
_chemical_formula_sum "Si O2"
_cell_formula_units_Z 128
_cell_length_a 32.287497
_cell_length_b 32.287497
_cell_length_c 7.615429
_cell_angle_alpha 90.000000
_cell_angle_beta 90.000000
_cell_angle_gamma 90.000000
_cell_volume 7938.951177
_symmetry_space_group_name_H-M "I 4/M M M"
_symmetry_group_IT_number 139
_symmetry_cell_setting 'tetragonal'
loop_
_space_group_symop_operation_xyz
x,y,z
-y,x,z
-x,-y,z
y,-x,z
x,-y,-z
-x,y,-z
y,x,-z
-y,-x,-z
-x,-y,-z
y,-x,-z
x,y,-z
-y,x,-z
-x,y,z
x,-y,z
-y,-x,z
y,x,z
1/2+x,1/2+y,1/2+z
1/2-y,1/2+x,1/2+z
1/2-x,1/2-y,1/2+z
1/2+y,1/2-x,1/2+z
1/2+x,1/2-y,1/2-z
1/2-x,1/2+y,1/2-z
1/2+y,1/2+x,1/2-z
1/2-y,1/2-x,1/2-z
1/2-x,1/2-y,1/2-z
1/2+y,1/2-x,1/2-z
1/2+x,1/2+y,1/2-z
1/2-y,1/2+x,1/2-z
1/2-x,1/2+y,1/2+z
1/2+x,1/2-y,1/2+z
1/2-y,1/2-x,1/2+z
1/2+y,1/2+x,1/2+z
loop_
_atom_site_type_symbol
_atom_site_label
_atom_site_fract_x
_atom_site_fract_y
_atom_site_fract_z
Si Si1 0.361137 0.296038 0.000000
Si Si2 0.796226 0.571258 0.293780
Si Si3 0.232111 0.664091 0.297620
Si Si4 0.453370 0.268131 0.000000
Si Si5 0.045226 0.613070 0.210139
O O1 0.343445 0.270106 0.166203
O O2 0.411203 0.295416 0.000000
O O3 0.341031 0.341031 0.000000
O O4 0.790653 0.560491 0.500000
O O5 0.793745 0.621197 0.280951
O O6 0.840884 0.556382 0.229116
O O7 0.761123 0.552039 0.170918
O O8 0.245356 0.668186 0.500000
O O9 0.202873 0.702873 0.250000
O O10 0.500000 0.286229 0.000000
O O11 0.080276 0.580276 0.250000
O O12 0.000000 0.600516 0.277001
O O13 0.043327 0.616040 0.000000
#
# Coordination Sequence:
#
# PCOD9571247 Si02
#       5
#    16  32  32  16  32
#     4  10  22  36  48  70 104 134 163 200 236 277
#     4   9  19  33  51  72  95 115 147 199 242 282
#     4  10  18  31  49  71  97 132 168 198 236 278
#     4  10  20  34  56  78  93 121 158 191 233 278
#     4  10  21  34  46  61  80 106 139 182 239 293
#
# _framework density 16.123037
#
# number of rings (size 3 to 8) (size 9 to 14) (size 15 to 20)
#    0.000    2.250    1.250    1.500    1.750    3.250 
#    0.000    1.250    0.000    0.000    0.000    0.000 
#    0.000    0.250    0.000    0.000    0.000    0.000 
#
# Total GULP energy -357036.346387 kJ/mol
# GULP energy per Si atom -5578.692912 kJ/mol
# Density = 1.608634 g / cm^3
# Si number density = 16.123037 Si / 1000 Ang^3
#
#
#
# Elastic Constant Matrix: (Units=GPa)
#
#
# Indices 1 2 3 4 5 6 
#
# 1 71.7563 54.9169 23.8216 0.0000 0.0000 0.0000
# 2 54.9169 71.7563 23.8216 0.0000 0.0000 0.0000
# 3 23.8216 23.8216 76.7636 0.0000 0.0000 0.0000
# 4 0.0000 0.0000 0.0000 5.7674 0.0000 0.0000
# 5 0.0000 0.0000 0.0000 0.0000 5.7674 0.0000
# 6 0.0000 0.0000 0.0000 0.0000 0.0000 7.7143
#
#
#
# Elastic Compliance Matrix: (Units=1/GPa)
#
#
# Indices 1 2 3 4 5 6 
#
# 1 0.034161 -0.025223 -0.002774 0.000000 0.000000 0.000000
# 2 -0.025223 0.034161 -0.002774 0.000000 0.000000 0.000000
# 3 -0.002774 -0.002774 0.014748 0.000000 0.000000 0.000000
# 4 0.000000 0.000000 0.000000 0.173390 0.000000 0.000000
# 5 0.000000 0.000000 0.000000 0.000000 0.173390 0.000000
# 6 0.000000 0.000000 0.000000 0.000000 0.000000 0.129629
#
#
# Mechanical properties :
#
#
# Convention : Reuss Voigt Hill
#
# Bulk Modulus (GPa) = 46.44833 47.26623 46.85728
# Shear Modulus (GPa) = 7.95930 11.69755 9.82842
#
# Velocity S-wave (km/s) = 2.22426 2.69647 2.47166
# Velocity P-wave (km/s) = 5.95547 6.25093 6.10499
#
# Compressibility (1/GPa) = 0.02152930
#
# Stress axis : x y z
#
# Youngs Moduli (GPa) = 29.27317 29.27317 67.80404
#
# Poissons Ratio (x) = 0.73837 0.18806
# Poissons Ratio (y) = 0.73837 0.18806
# Poissons Ratio (z) = 0.08119 0.08119
#
# Static dielectric constant tensor:
#      x y z
#    x 1.538260 0.000000 0.000000 
#    y 0.000000 1.538260 0.000000 
#    z 0.000000 0.000000 1.583950 
# 
# From -- ./inp_files/1836.got.cif
#   From: 2010.05.17/outbox.cif.g08.bks.cpg/sg139_1_cif.got.tgz:1836.got - 2010.05.20 13:14:44.
