data_PCOD9571854
_publ_section_title
;
Structure prediction by ZEFSAII (Michael W. Deem and Ramdas Pophale) SiO2 
 PCOD9571854
Probable space group: I 4/M M M
;
_chemical_formula_sum "Si O2"
_cell_formula_units_Z 160
_cell_length_a 21.298470
_cell_length_b 21.298470
_cell_length_c 17.112544
_cell_angle_alpha 90.000000
_cell_angle_beta 90.000000
_cell_angle_gamma 90.000000
_cell_volume 7762.674766
_symmetry_space_group_name_H-M "I 4/M M M"
_symmetry_group_IT_number 139
_symmetry_cell_setting 'tetragonal'
loop_
_space_group_symop_operation_xyz
x,y,z
-y,x,z
-x,-y,z
y,-x,z
x,-y,-z
-x,y,-z
y,x,-z
-y,-x,-z
-x,-y,-z
y,-x,-z
x,y,-z
-y,x,-z
-x,y,z
x,-y,z
-y,-x,z
y,x,z
1/2+x,1/2+y,1/2+z
1/2-y,1/2+x,1/2+z
1/2-x,1/2-y,1/2+z
1/2+y,1/2-x,1/2+z
1/2+x,1/2-y,1/2-z
1/2-x,1/2+y,1/2-z
1/2+y,1/2+x,1/2-z
1/2-y,1/2-x,1/2-z
1/2-x,1/2-y,1/2-z
1/2+y,1/2-x,1/2-z
1/2+x,1/2+y,1/2-z
1/2-y,1/2+x,1/2-z
1/2-x,1/2+y,1/2+z
1/2+x,1/2-y,1/2+z
1/2-y,1/2-x,1/2+z
1/2+y,1/2+x,1/2+z
loop_
_atom_site_type_symbol
_atom_site_label
_atom_site_fract_x
_atom_site_fract_y
_atom_site_fract_z
Si Si1 0.500000 0.312128 0.911674
Si Si2 0.500000 0.635997 0.414022
Si Si3 0.224255 0.121483 0.910857
Si Si4 0.500000 0.072745 0.406494
Si Si5 0.242619 0.860174 0.409874
Si Si6 0.852990 0.381123 0.337688
Si Si7 0.000000 0.100456 0.734670
O O1 0.433049 0.277407 0.910034
O O2 0.500000 0.343947 0.826467
O O3 0.500000 0.344451 0.000000
O O4 0.500000 0.603308 0.500000
O O5 0.437104 0.677324 0.413098
O O6 0.500000 0.605316 0.328682
O O7 0.183913 0.183913 0.892439
O O8 0.279143 0.105891 0.850703
O O9 0.249497 0.127854 0.000000
O O10 0.500000 0.072846 0.500000
O O11 0.436776 0.108336 0.379079
O O12 0.500000 0.000000 0.379363
O O13 0.251939 0.842473 0.500000
O O14 0.187993 0.812008 0.379248
O O15 0.310173 0.857424 0.369922
O O16 0.876979 0.376979 0.250000
O O17 0.939048 0.060953 0.713830
#
# Coordination Sequence:
#
# PCOD9571854 Si02
#       7
#    16  16  32  16  32  32  16
#     4  10  23  42  68  96 131 178 224 272 338 407
#     4  10  22  41  66  94 130 177 229 281 339 402
#     4  10  21  40  66  95 133 181 230 280 335 404
#     4  11  27  50  76  96 128 180 224 272 330 410
#     4  10  22  42  68  98 136 180 229 283 333 398
#     4  12  27  41  68 101 137 174 217 279 346 401
#     4  11  24  39  60  91 129 172 220 280 340 405
#
# _framework density 20.611452
#
# number of rings (size 3 to 8) (size 9 to 14) (size 15 to 20)
#    0.000    1.400    0.000    4.200    5.600    6.400 
#    0.000    1.000    0.000    0.000    0.000    0.000 
#    0.000    0.000    0.000    0.000    0.000    0.000 
#
# Total GULP energy -445923.318743 kJ/mol
# GULP energy per Si atom -5574.041484 kJ/mol
# Density = 2.056454 g / cm^3
# Si number density = 20.611452 Si / 1000 Ang^3
#
#
#
# Elastic Constant Matrix: (Units=GPa)
#
#
# Indices 1 2 3 4 5 6 
#
# 1 112.4986 53.5617 26.8285 0.0000 0.0000 0.0000
# 2 53.5617 112.4986 26.8285 0.0000 0.0000 0.0000
# 3 26.8285 26.8285 66.1254 0.0000 0.0000 0.0000
# 4 0.0000 0.0000 0.0000 183.7422 0.0000 0.0000
# 5 0.0000 0.0000 0.0000 0.0000 183.7422 0.0000
# 6 0.0000 0.0000 0.0000 0.0000 0.0000 36.7196
#
#
#
# Elastic Compliance Matrix: (Units=1/GPa)
#
#
# Indices 1 2 3 4 5 6 
#
# 1 0.011949 -0.005018 -0.002812 0.000000 0.000000 0.000000
# 2 -0.005018 0.011949 -0.002812 0.000000 0.000000 0.000000
# 3 -0.002812 -0.002812 0.017404 0.000000 0.000000 0.000000
# 4 0.000000 0.000000 0.000000 0.005442 0.000000 0.000000
# 5 0.000000 0.000000 0.000000 0.000000 0.005442 0.000000
# 6 0.000000 0.000000 0.000000 0.000000 0.000000 0.027233
#
#
# Mechanical properties :
#
#
# Convention : Reuss Voigt Hill
#
# Bulk Modulus (GPa) = 49.95504 56.17333 53.06418
# Shear Modulus (GPa) = 46.56482 93.10106 69.83294
#
# Velocity S-wave (km/s) = 4.75823 6.72812 5.82702
# Velocity P-wave (km/s) = 7.38084 9.36320 8.43049
#
# Compressibility (1/GPa) = 0.02001800
#
# Stress axis : x y z
#
# Youngs Moduli (GPa) = 83.68991 83.68991 57.45669
#
# Poissons Ratio (x) = 0.41999 0.16156
# Poissons Ratio (y) = 0.41999 0.16156
# Poissons Ratio (z) = 0.23532 0.23532
#
# Static dielectric constant tensor:
#      x y z
#    x 1.754120 0.000000 0.000000 
#    y 0.000000 1.754120 0.000000 
#    z 0.000000 0.000000 1.781100 
# 
# From -- ./inp_files/8496.got.cif
#   From: 2010.05.17/outbox.cif.g08.bks.cpg/sg139_5_cif.got.tgz:8496.got - 2010.05.20 13:14:44.
