data_PCOD9571434
_publ_section_title
;
Structure prediction by ZEFSAII (Michael W. Deem and Ramdas Pophale) SiO2 
 PCOD9571434
Probable space group: I 4/M M M
;
_chemical_formula_sum "Si O2"
_cell_formula_units_Z 176
_cell_length_a 19.865520
_cell_length_b 19.865520
_cell_length_c 27.846712
_cell_angle_alpha 90.000000
_cell_angle_beta 90.000000
_cell_angle_gamma 90.000000
_cell_volume 10989.395371
_symmetry_space_group_name_H-M "I 4/M M M"
_symmetry_group_IT_number 139
_symmetry_cell_setting 'tetragonal'
loop_
_space_group_symop_operation_xyz
x,y,z
-y,x,z
-x,-y,z
y,-x,z
x,-y,-z
-x,y,-z
y,x,-z
-y,-x,-z
-x,-y,-z
y,-x,-z
x,y,-z
-y,x,-z
-x,y,z
x,-y,z
-y,-x,z
y,x,z
1/2+x,1/2+y,1/2+z
1/2-y,1/2+x,1/2+z
1/2-x,1/2-y,1/2+z
1/2+y,1/2-x,1/2+z
1/2+x,1/2-y,1/2-z
1/2-x,1/2+y,1/2-z
1/2+y,1/2+x,1/2-z
1/2-y,1/2-x,1/2-z
1/2-x,1/2-y,1/2-z
1/2+y,1/2-x,1/2-z
1/2+x,1/2+y,1/2-z
1/2-y,1/2+x,1/2-z
1/2-x,1/2+y,1/2+z
1/2+x,1/2-y,1/2+z
1/2-y,1/2-x,1/2+z
1/2+y,1/2+x,1/2+z
loop_
_atom_site_type_symbol
_atom_site_label
_atom_site_fract_x
_atom_site_fract_y
_atom_site_fract_z
Si Si1 0.580052 0.814546 0.269430
Si Si2 0.579223 0.311416 0.444808
Si Si3 0.271742 0.841915 0.134876
Si Si4 0.761018 0.124995 0.598578
Si Si5 0.076091 0.808772 0.500000
Si Si6 0.811367 0.924244 0.301596
O O1 0.500000 0.826802 0.274653
O O2 0.621036 0.878965 0.250000
O O3 0.614027 0.790148 0.318950
O O4 0.588988 0.753363 0.231642
O O5 0.590157 0.288219 0.500000
O O6 0.500000 0.317361 0.436602
O O7 0.617330 0.382671 0.440334
O O8 0.613585 0.262632 0.406448
O O9 0.218143 0.781858 0.147312
O O10 0.338980 0.807803 0.113684
O O11 0.813824 0.186177 0.593667
O O12 0.764766 0.087998 0.547842
O O13 0.787172 0.081560 0.643283
O O14 0.129714 0.870287 0.500000
O O15 0.000000 0.835051 0.500000
O O16 0.868583 0.868583 0.293354
O O17 0.835736 0.000000 0.291913
#
# Coordination Sequence:
#
# PCOD9571434 Si02
#       6
#    32  32  32  32  16  32
#     4  11  22  36  55  77 102 133 171 215 264 314
#     4   9  18  31  48  73 105 138 172 210 252 303
#     4  10  19  32  53  77 103 132 169 215 260 304
#     4   9  18  31  50  74 100 133 171 212 253 293
#     4  10  20  33  50  74 105 137 170 206 246 298
#     4  10  20  34  53  78 107 138 173 210 252 306
#
# _framework density 16.015440000000002
#
# number of rings (size 3 to 8) (size 9 to 14) (size 15 to 20)
#    0.000    2.182    1.818    1.636    1.273    1.364 
#    0.000    0.909    0.000    3.273    0.000    2.545 
#    0.000    1.455    0.000    0.000    0.000    0.000 
#
# Total GULP energy -490516.098419 kJ/mol
# GULP energy per Si atom -5574.046573 kJ/mol
# Density = 1.597899 g / cm^3
# Si number density = 16.015440 Si / 1000 Ang^3
#
#
#
# Elastic Constant Matrix: (Units=GPa)
#
#
# Indices 1 2 3 4 5 6 
#
# 1 94.9174 64.5256 52.1431 0.0000 0.0000 0.0000
# 2 64.5256 94.9146 52.1424 0.0000 0.0000 0.0000
# 3 52.1431 52.1424 104.3340 0.0000 0.0000 0.0000
# 4 0.0000 0.0000 0.0000 20.6721 0.0000 0.0000
# 5 0.0000 0.0000 0.0000 0.0000 20.6723 0.0000
# 6 0.0000 0.0000 0.0000 0.0000 0.0000 14.7482
#
#
#
# Elastic Compliance Matrix: (Units=1/GPa)
#
#
# Indices 1 2 3 4 5 6 
#
# 1 0.021111 -0.011794 -0.004657 0.000000 0.000000 0.000000
# 2 -0.011794 0.021112 -0.004657 0.000000 0.000000 0.000000
# 3 -0.004657 -0.004657 0.014239 0.000000 0.000000 0.000000
# 4 0.000000 0.000000 0.000000 0.048374 0.000000 0.000000
# 5 0.000000 0.000000 0.000000 0.000000 0.048374 0.000000
# 6 0.000000 0.000000 0.000000 0.000000 0.000000 0.067805
#
#
# Mechanical properties :
#
#
# Convention : Reuss Voigt Hill
#
# Bulk Modulus (GPa) = 70.18644 70.19869 70.19257
# Shear Modulus (GPa) = 18.65823 19.57553 19.11688
#
# Velocity S-wave (km/s) = 3.41693 3.49992 3.45868
# Velocity P-wave (km/s) = 7.71276 7.76271 7.73777
#
# Compressibility (1/GPa) = 0.01424777
#
# Stress axis : x y z
#
# Youngs Moduli (GPa) = 47.36850 47.36711 70.22922
#
# Poissons Ratio (x) = 0.55864 0.32703
# Poissons Ratio (y) = 0.55865 0.32704
# Poissons Ratio (z) = 0.22058 0.22057
#
# Static dielectric constant tensor:
#      x y z
#    x 1.522080 0.000000 0.000000 
#    y 0.000000 1.522090 0.000000 
#    z 0.000000 0.000000 1.538450 
# 
# From -- ./inp_files/14261.got.cif
#   From: 2010.05.17/outbox.cif.g08.bks.cpg/sg139_8_cif.got.tgz:14261.got - 2010.05.20 13:14:44.
