data_PCOD9571588
_publ_section_title
;
Structure prediction by ZEFSAII (Michael W. Deem and Ramdas Pophale) SiO2 
 PCOD9571588
Probable space group: I 4/M M M
;
_chemical_formula_sum "Si O2"
_cell_formula_units_Z 192
_cell_length_a 20.129106
_cell_length_b 20.129106
_cell_length_c 25.818647
_cell_angle_alpha 90.000000
_cell_angle_beta 90.000000
_cell_angle_gamma 90.000000
_cell_volume 10461.222844
_symmetry_space_group_name_H-M "I 4/M M M"
_symmetry_group_IT_number 139
_symmetry_cell_setting 'tetragonal'
loop_
_space_group_symop_operation_xyz
x,y,z
-y,x,z
-x,-y,z
y,-x,z
x,-y,-z
-x,y,-z
y,x,-z
-y,-x,-z
-x,-y,-z
y,-x,-z
x,y,-z
-y,x,-z
-x,y,z
x,-y,z
-y,-x,z
y,x,z
1/2+x,1/2+y,1/2+z
1/2-y,1/2+x,1/2+z
1/2-x,1/2-y,1/2+z
1/2+y,1/2-x,1/2+z
1/2+x,1/2-y,1/2-z
1/2-x,1/2+y,1/2-z
1/2+y,1/2+x,1/2-z
1/2-y,1/2-x,1/2-z
1/2-x,1/2-y,1/2-z
1/2+y,1/2-x,1/2-z
1/2+x,1/2+y,1/2-z
1/2-y,1/2+x,1/2-z
1/2-x,1/2+y,1/2+z
1/2+x,1/2-y,1/2+z
1/2-y,1/2-x,1/2+z
1/2+y,1/2+x,1/2+z
loop_
_atom_site_type_symbol
_atom_site_label
_atom_site_fract_x
_atom_site_fract_y
_atom_site_fract_z
Si Si1 0.797680 0.347732 0.300220
Si Si2 0.429132 0.922159 0.830057
Si Si3 0.076249 0.813870 0.254300
Si Si4 0.575453 0.877208 0.443233
Si Si5 0.420925 0.690751 0.875637
Si Si6 0.812837 0.708347 0.587612
O O1 0.801589 0.301589 0.250000
O O2 0.867737 0.384585 0.306368
O O3 0.741131 0.400108 0.286205
O O4 0.790312 0.310320 0.354101
O O5 0.500000 0.894039 0.813438
O O6 0.422590 0.917460 0.892484
O O7 0.426635 0.000000 0.816933
O O8 0.123109 0.876892 0.248273
O O9 0.083807 0.790859 0.314400
O O10 0.000000 0.830861 0.246796
O O11 0.578902 0.909708 0.500000
O O12 0.500000 0.848204 0.439078
O O13 0.637898 0.827447 0.439088
O O14 0.500000 0.685001 0.888054
O O15 0.377742 0.622259 0.882120
O O16 0.380458 0.747652 0.906618
O O17 0.756411 0.756411 0.564746
#
# Coordination Sequence:
#
# PCOD9571588 Si02
#       6
#    32  32  32  32  32  32
#     4  11  20  31  48  69 100 140 175 208 251 303
#     4   9  19  33  47  68  97 129 170 215 255 301
#     4  10  20  33  50  71  96 131 173 216 261 307
#     4   9  19  36  55  75 102 135 168 210 266 323
#     4   9  18  32  50  73 101 133 171 213 256 301
#     4  10  20  33  52  77 104 137 173 217 261 306
#
# _framework density 18.353494000000001
#
# number of rings (size 3 to 8) (size 9 to 14) (size 15 to 20)
#    0.000    2.333    1.667    1.000    0.000    6.333 
#    0.000    4.167    0.000    0.000    0.000    0.000 
#    0.000    0.333    0.000    5.500    0.000    0.167 
#
# Total GULP energy -535161.390323 kJ/mol
# GULP energy per Si atom -5574.597816 kJ/mol
# Density = 1.831172 g / cm^3
# Si number density = 18.353494 Si / 1000 Ang^3
#
#
#
# Elastic Constant Matrix: (Units=GPa)
#
#
# Indices 1 2 3 4 5 6 
#
# 1 59.0933 117.5242 14.9604 0.0000 0.0000 0.0000
# 2 117.5242 59.0933 14.9604 0.0000 0.0000 0.0000
# 3 14.9604 14.9604 66.2844 0.0000 0.0000 0.0000
# 4 0.0000 0.0000 0.0000 8.2010 0.0000 0.0000
# 5 0.0000 0.0000 0.0000 0.0000 8.2010 0.0000
# 6 0.0000 0.0000 0.0000 0.0000 0.0000 27.4259
#
#
#
# Elastic Compliance Matrix: (Units=1/GPa)
#
#
# Indices 1 2 3 4 5 6 
#
# 1 -0.005614 0.011501 -0.001329 0.000000 0.000000 0.000000
# 2 0.011501 -0.005614 -0.001329 0.000000 0.000000 0.000000
# 3 -0.001329 -0.001329 0.015686 0.000000 0.000000 0.000000
# 4 0.000000 0.000000 0.000000 0.121936 0.000000 0.000000
# 5 0.000000 0.000000 0.000000 0.000000 0.121936 0.000000
# 6 0.000000 0.000000 0.000000 0.000000 0.000000 0.036462
#
#
# Mechanical properties :
#
#
# Convention : Reuss Voigt Hill
#
# Bulk Modulus (GPa) = 45.15579 53.26234 49.20907
# Shear Modulus (GPa) = 18.21573 11.23399 14.72486
#
# Velocity S-wave (km/s) = 3.15380 2.47673 2.83555
# Velocity P-wave (km/s) = 6.15782 6.10428 6.13111
#
# Compressibility (1/GPa) = 0.02214555
#
# Stress axis : x y z
#
# Youngs Moduli (GPa) = -178.13940 -178.13941 63.74994
#
# Poissons Ratio (x) = 2.04872 0.08471
# Poissons Ratio (y) = 2.04872 0.08471
# Poissons Ratio (z) = -0.23670 -0.23670
#
# Static dielectric constant tensor:
#      x y z
#    x 1.650460 0.000000 0.000000 
#    y 0.000000 1.650460 0.000000 
#    z 0.000000 0.000000 1.670940 
# 
# From -- ./inp_files/13298.got.cif
#   From: 2010.05.17/outbox.cif.g08.bks.cpg/sg139_7_cif.got.tgz:13298.got - 2010.05.20 13:14:44.
