data_PCOD9571505
_publ_section_title
;
Structure prediction by ZEFSAII (Michael W. Deem and Ramdas Pophale) SiO2 
 PCOD9571505
Probable space group: I 4/M M M
;
_chemical_formula_sum "Si O2"
_cell_formula_units_Z 84
_cell_length_a 15.708809
_cell_length_b 15.708809
_cell_length_c 17.529053
_cell_angle_alpha 90.000000
_cell_angle_beta 90.000000
_cell_angle_gamma 90.000000
_cell_volume 4325.586216
_symmetry_space_group_name_H-M "I 4/M M M"
_symmetry_group_IT_number 139
_symmetry_cell_setting 'tetragonal'
loop_
_space_group_symop_operation_xyz
x,y,z
-y,x,z
-x,-y,z
y,-x,z
x,-y,-z
-x,y,-z
y,x,-z
-y,-x,-z
-x,-y,-z
y,-x,-z
x,y,-z
-y,x,-z
-x,y,z
x,-y,z
-y,-x,z
y,x,z
1/2+x,1/2+y,1/2+z
1/2-y,1/2+x,1/2+z
1/2-x,1/2-y,1/2+z
1/2+y,1/2-x,1/2+z
1/2+x,1/2-y,1/2-z
1/2-x,1/2+y,1/2-z
1/2+y,1/2+x,1/2-z
1/2-y,1/2-x,1/2-z
1/2-x,1/2-y,1/2-z
1/2+y,1/2-x,1/2-z
1/2+x,1/2+y,1/2-z
1/2-y,1/2+x,1/2-z
1/2-x,1/2+y,1/2+z
1/2+x,1/2-y,1/2+z
1/2-y,1/2-x,1/2+z
1/2+y,1/2+x,1/2+z
loop_
_atom_site_type_symbol
_atom_site_label
_atom_site_fract_x
_atom_site_fract_y
_atom_site_fract_z
Si Si1 0.635756 0.000000 0.725553
Si Si2 0.318158 0.318158 0.907704
Si Si3 0.196338 0.000000 0.825536
Si Si4 0.321168 0.321168 0.591864
Si Si5 0.000000 0.000000 0.777015
Si Si6 0.755665 0.500000 0.908412
O O1 0.581487 0.918514 0.750000
O O2 0.725774 0.000000 0.767492
O O3 0.655319 0.000000 0.635760
O O4 0.248668 0.248668 0.881791
O O5 0.293165 0.413711 0.885570
O O6 0.316373 0.316373 0.000000
O O7 0.201051 0.085271 0.876731
O O8 0.105082 0.000000 0.784456
O O9 0.322205 0.322205 0.500000
O O10 0.765318 0.500000 0.000000
#
# Coordination Sequence:
#
# PCOD9571505 Si02
#       6
#    16  16  16  16   4  16
#     4  11  24  41  61  89 120 156 202 244 294 354
#     4   9  19  34  57  85 114 151 198 240 287 342
#     4  10  20  36  57  83 121 156 190 250 300 338
#     4  10  19  34  57  88 119 157 200 237 290 361
#     4   8  20  36  53  84 113 148 200 230 292 372
#     4  10  21  40  61  85 118 157 199 247 291 347
#
# _framework density 19.419333999999999
#
# number of rings (size 3 to 8) (size 9 to 14) (size 15 to 20)
#    0.000    2.095    0.000    2.857    0.000    3.429 
#    0.000   15.238    0.000    0.000    0.000    0.000 
#    0.000    0.000    0.000    0.000    0.000    0.000 
#
# Total GULP energy -234008.109715 kJ/mol
# GULP energy per Si atom -5571.621660 kJ/mol
# Density = 1.937513 g / cm^3
# Si number density = 19.419334 Si / 1000 Ang^3
#
#
#
# Elastic Constant Matrix: (Units=GPa)
#
#
# Indices 1 2 3 4 5 6 
#
# 1 178.4546 91.0120 45.5206 0.0000 0.0000 0.0000
# 2 91.0120 178.4653 45.5224 0.0000 0.0000 0.0000
# 3 45.5206 45.5224 64.2919 0.0000 0.0000 0.0000
# 4 0.0000 0.0000 0.0000 14.3385 0.0000 0.0000
# 5 0.0000 0.0000 0.0000 0.0000 14.3465 0.0000
# 6 0.0000 0.0000 0.0000 0.0000 0.0000 22.6413
#
#
#
# Elastic Compliance Matrix: (Units=1/GPa)
#
#
# Indices 1 2 3 4 5 6 
#
# 1 0.008157 -0.003279 -0.003454 0.000000 0.000000 0.000000
# 2 -0.003279 0.008156 -0.003454 0.000000 0.000000 0.000000
# 3 -0.003454 -0.003454 0.020445 0.000000 0.000000 0.000000
# 4 0.000000 0.000000 0.000000 0.069742 0.000000 0.000000
# 5 0.000000 0.000000 0.000000 0.000000 0.069703 0.000000
# 6 0.000000 0.000000 0.000000 0.000000 0.000000 0.044167
#
#
# Mechanical properties :
#
#
# Convention : Reuss Voigt Hill
#
# Bulk Modulus (GPa) = 61.02913 87.25797 74.14355
# Shear Modulus (GPa) = 20.30827 26.20906 23.25867
#
# Velocity S-wave (km/s) = 3.23735 3.67773 3.46454
# Velocity P-wave (km/s) = 6.74308 7.94137 7.36663
#
# Compressibility (1/GPa) = 0.01638562
#
# Stress axis : x y z
#
# Youngs Moduli (GPa) = 122.59678 122.60356 48.91214
#
# Poissons Ratio (x) = 0.40199 0.16893
# Poissons Ratio (y) = 0.40197 0.16893
# Poissons Ratio (z) = 0.42341 0.42344
#
# Static dielectric constant tensor:
#      x y z
#    x 1.664300 0.000000 0.000000 
#    y 0.000000 1.664300 0.000000 
#    z 0.000000 0.000000 1.696810 
# 
# From -- ./inp_files/9416.got.cif
#   From: 2010.05.17/outbox.cif.g08.bks.cpg/sg139_5_cif.got.tgz:9416.got - 2010.05.20 13:14:44.
