data_PCOD9571013
_publ_section_title
;
Structure prediction by ZEFSAII (Michael W. Deem and Ramdas Pophale) SiO2 
 PCOD9571013
Probable space group: P 42/N C M
;
_chemical_formula_sum "Si O2"
_cell_formula_units_Z 96
_cell_length_a 21.949585
_cell_length_b 21.949585
_cell_length_c 9.077699
_cell_angle_alpha 90.000000
_cell_angle_beta 90.000000
_cell_angle_gamma 90.000000
_cell_volume 4373.492692
_symmetry_space_group_name_H-M "P 42/N C M"
_symmetry_group_IT_number 138
_space_group.IT_coordinate_system_code '2'
_symmetry_cell_setting 'tetragonal'
loop_
_space_group_symop_operation_xyz
x,y,z
1/2-y,x,1/2+z
1/2-x,1/2-y,z
y,1/2-x,1/2+z
1/2+x,-y,1/2-z
-x,1/2+y,1/2-z
1/2+y,1/2+x,-z
-y,-x,-z
-x,-y,-z
1/2+y,-x,1/2-z
1/2+x,1/2+y,-z
-y,1/2+x,1/2-z
1/2-x,y,1/2+z
x,1/2-y,1/2+z
1/2-y,1/2-x,z
y,x,z
loop_
_atom_site_type_symbol
_atom_site_label
_atom_site_fract_x
_atom_site_fract_y
_atom_site_fract_z
Si Si1 0.215223 0.653674 0.256442
Si Si2 0.509715 0.090173 0.179966
Si Si3 0.916625 0.818263 0.193339
Si Si4 0.743622 0.072717 0.007077
Si Si5 0.299940 0.450647 0.130373
Si Si6 0.627873 0.478195 0.656922
O O1 0.175947 0.714327 0.249118
O O2 0.209701 0.615386 0.405380
O O3 0.207623 0.611513 0.114626
O O4 0.479290 0.146101 0.265657
O O5 0.578984 0.071077 0.212773
O O6 0.468818 0.031183 0.213875
O O7 0.503042 0.104274 0.005345
O O8 0.861600 0.861600 0.246809
O O9 0.920275 0.752858 0.271097
O O10 0.913442 0.812332 0.017637
O O11 0.774122 0.014844 0.932253
O O12 0.694055 0.049735 0.124082
O O13 0.358264 0.467726 0.229657
#
# Coordination Sequence:
#
# PCOD9571013 Si02
#       6
#    16  16  16  16  16  16
#     4  11  25  39  51  75 115 163 223 274 311 354
#     4  10  23  42  65 100 133 167 211 259 332 401
#     4  11  24  44  72  99 135 172 213 271 326 404
#     4  12  22  37  60  83 114 164 212 263 313 375
#     4  12  23  44  64  98 129 167 221 263 333 394
#     4  11  22  37  65  90 132 170 208 268 314 396
#
# _framework density 21.950419
#
# number of rings (size 3 to 8) (size 9 to 14) (size 15 to 20)
#    0.000    0.833    5.000    2.000    4.667    3.333 
#    3.000    2.500    0.000    1.500    0.000    0.000 
#    0.000    0.000    0.000    0.000    0.000    0.000 
#
# Total GULP energy -537158.866810 kJ/mol
# GULP energy per Si atom -5595.404863 kJ/mol
# Density = 2.190046 g / cm^3
# Si number density = 21.950419 Si / 1000 Ang^3
#
#
#
# Elastic Constant Matrix: (Units=GPa)
#
#
# Indices 1 2 3 4 5 6 
#
# 1 45.7839 38.5601 24.2214 0.0000 0.0000 0.0000
# 2 38.5601 45.7839 24.2214 0.0000 0.0000 0.0000
# 3 24.2214 24.2214 94.6423 0.0000 0.0000 0.0000
# 4 0.0000 0.0000 0.0000 17.6844 0.0000 0.0000
# 5 0.0000 0.0000 0.0000 0.0000 17.6844 0.0000
# 6 0.0000 0.0000 0.0000 0.0000 0.0000 25.0480
#
#
#
# Elastic Compliance Matrix: (Units=1/GPa)
#
#
# Indices 1 2 3 4 5 6 
#
# 1 0.076165 -0.062266 -0.003557 0.000000 0.000000 0.000000
# 2 -0.062266 0.076165 -0.003557 0.000000 0.000000 0.000000
# 3 -0.003557 -0.003557 0.012387 0.000000 0.000000 0.000000
# 4 0.000000 0.000000 0.000000 0.056547 0.000000 0.000000
# 5 0.000000 0.000000 0.000000 0.000000 0.056547 0.000000
# 6 0.000000 0.000000 0.000000 0.000000 0.000000 0.039923
#
#
# Mechanical properties :
#
#
# Convention : Reuss Voigt Hill
#
# Bulk Modulus (GPa) = 38.52576 40.02400 39.27488
# Shear Modulus (GPa) = 10.74929 18.69717 14.72323
#
# Velocity S-wave (km/s) = 2.21533 2.92171 2.59269
# Velocity P-wave (km/s) = 4.91253 5.44567 5.18595
#
# Compressibility (1/GPa) = 0.02595666
#
# Stress axis : x y z
#
# Youngs Moduli (GPa) = 13.12938 13.12938 80.73083
#
# Poissons Ratio (x) = 0.81751 0.28717
# Poissons Ratio (y) = 0.81751 0.28717
# Poissons Ratio (z) = 0.04670 0.04670
#
# Static dielectric constant tensor:
#      x y z
#    x 1.807840 0.000000 0.000000 
#    y 0.000000 1.807840 0.000000 
#    z 0.000000 0.000000 1.820140 
# 
# From -- ./inp_files/1717.got.cif
#   From: 2010.05.17/outbox.cif.g08.bks.cpg/sg138_1_cif.got.tgz:1717.got - 2010.05.20 13:08:53.
