data_PCOD9571918
_publ_section_title
;
Structure prediction by ZEFSAII (Michael W. Deem and Ramdas Pophale) SiO2 
 PCOD9571918
Probable space group: I 4/M M M
;
_chemical_formula_sum "Si O2"
_cell_formula_units_Z 168
_cell_length_a 23.993442
_cell_length_b 23.993442
_cell_length_c 16.241300
_cell_angle_alpha 90.000000
_cell_angle_beta 90.000000
_cell_angle_gamma 90.000000
_cell_volume 9349.876997
_symmetry_space_group_name_H-M "I 4/M M M"
_symmetry_group_IT_number 139
_symmetry_cell_setting 'tetragonal'
loop_
_space_group_symop_operation_xyz
x,y,z
-y,x,z
-x,-y,z
y,-x,z
x,-y,-z
-x,y,-z
y,x,-z
-y,-x,-z
-x,-y,-z
y,-x,-z
x,y,-z
-y,x,-z
-x,y,z
x,-y,z
-y,-x,z
y,x,z
1/2+x,1/2+y,1/2+z
1/2-y,1/2+x,1/2+z
1/2-x,1/2-y,1/2+z
1/2+y,1/2-x,1/2+z
1/2+x,1/2-y,1/2-z
1/2-x,1/2+y,1/2-z
1/2+y,1/2+x,1/2-z
1/2-y,1/2-x,1/2-z
1/2-x,1/2-y,1/2-z
1/2+y,1/2-x,1/2-z
1/2+x,1/2+y,1/2-z
1/2-y,1/2+x,1/2-z
1/2-x,1/2+y,1/2+z
1/2+x,1/2-y,1/2+z
1/2-y,1/2-x,1/2+z
1/2+y,1/2+x,1/2+z
loop_
_atom_site_type_symbol
_atom_site_label
_atom_site_fract_x
_atom_site_fract_y
_atom_site_fract_z
Si Si1 0.066656 0.839246 0.694558
Si Si2 0.721921 0.500000 0.500000
Si Si3 0.086718 0.761572 0.851658
Si Si4 0.291700 0.201484 0.152576
Si Si5 0.911906 0.727735 0.406442
Si Si6 0.440127 0.153359 0.755135
O O1 0.107247 0.892754 0.683997
O O2 0.081101 0.808823 0.781398
O O3 0.079648 0.790529 0.627854
O O4 0.000000 0.851767 0.692441
O O5 0.723590 0.548495 0.427894
O O6 0.150643 0.747759 0.872875
O O7 0.067214 0.702994 0.810900
O O8 0.258253 0.258253 0.147029
O O9 0.305969 0.194032 0.250000
O O10 0.347468 0.209332 0.101420
O O11 0.930871 0.723568 0.500000
O O12 0.939680 0.685452 0.342182
O O13 0.500000 0.126239 0.741814
O O14 0.391638 0.108362 0.750000
#
# Coordination Sequence:
#
# PCOD9571918 Si02
#       6
#    32   8  32  32  32  32
#     4  11  23  42  65  87 120 162 205 253 307 366
#     4  12  24  36  66  88 128 168 208 256 300 364
#     4  11  20  39  59  89 119 159 204 246 302 364
#     4  11  20  34  60  91 126 161 192 242 312 379
#     4  11  22  38  62  92 128 157 199 247 307 375
#     4  11  21  39  60  84 119 162 205 251 302 356
#
# _framework density 17.968150999999999
#
# number of rings (size 3 to 8) (size 9 to 14) (size 15 to 20)
#    0.000    0.952    7.619    2.857    1.333    3.429 
#    0.000    1.429    0.000    0.000    0.000    4.000 
#    0.000    0.000    0.000    0.000    0.000    0.000 
#
# Total GULP energy -467718.897012 kJ/mol
# GULP energy per Si atom -5568.082107 kJ/mol
# Density = 1.792725 g / cm^3
# Si number density = 17.968151 Si / 1000 Ang^3
#
#
#
# Elastic Constant Matrix: (Units=GPa)
#
#
# Indices 1 2 3 4 5 6 
#
# 1 84.5927 37.5342 5.5741 0.0000 0.0000 0.0000
# 2 37.5342 84.5927 5.5745 0.0000 0.0000 0.0000
# 3 5.5741 5.5745 89.6006 0.0000 0.0000 0.0000
# 4 0.0000 0.0000 0.0000 10.9514 0.0000 0.0000
# 5 0.0000 0.0000 0.0000 0.0000 10.9511 0.0000
# 6 0.0000 0.0000 0.0000 0.0000 0.0000 4.3895
#
#
#
# Elastic Compliance Matrix: (Units=1/GPa)
#
#
# Indices 1 2 3 4 5 6 
#
# 1 0.014743 -0.006508 -0.000512 0.000000 0.000000 0.000000
# 2 -0.006508 0.014743 -0.000512 0.000000 0.000000 0.000000
# 3 -0.000512 -0.000512 0.011224 0.000000 0.000000 0.000000
# 4 0.000000 0.000000 0.000000 0.091312 0.000000 0.000000
# 5 0.000000 0.000000 0.000000 0.000000 0.091315 0.000000
# 6 0.000000 0.000000 0.000000 0.000000 0.000000 0.227816
#
#
# Mechanical properties :
#
#
# Convention : Reuss Voigt Hill
#
# Bulk Modulus (GPa) = 38.99390 39.57242 39.28316
# Shear Modulus (GPa) = 10.53151 19.26528 14.89840
#
# Velocity S-wave (km/s) = 2.42362 3.27798 2.88263
# Velocity P-wave (km/s) = 5.43881 6.03311 5.74365
#
# Compressibility (1/GPa) = 0.02564504
#
# Stress axis : x y z
#
# Youngs Moduli (GPa) = 67.83083 67.83076 89.09172
#
# Poissons Ratio (x) = 0.44141 0.04564
# Poissons Ratio (y) = 0.44142 0.04565
# Poissons Ratio (z) = 0.03475 0.03475
#
# Static dielectric constant tensor:
#      x y z
#    x 1.626860 0.000000 0.000000 
#    y 0.000000 1.626860 0.000000 
#    z 0.000000 0.000000 1.615620 
# 
# From -- ./inp_files/6113.got.cif
#   From: 2010.05.17/outbox.cif.g08.bks.cpg/sg139_4_cif.got.tgz:6113.got - 2010.05.20 13:14:44.
