data_PCOD9571491
_publ_section_title
;
Structure prediction by ZEFSAII (Michael W. Deem and Ramdas Pophale) SiO2 
 PCOD9571491
Probable space group: I 4/M M M
;
_chemical_formula_sum "Si O2"
_cell_formula_units_Z 144
_cell_length_a 17.258226
_cell_length_b 17.258226
_cell_length_c 28.480612
_cell_angle_alpha 90.000000
_cell_angle_beta 90.000000
_cell_angle_gamma 90.000000
_cell_volume 8482.846748
_symmetry_space_group_name_H-M "I 4/M M M"
_symmetry_group_IT_number 139
_symmetry_cell_setting 'tetragonal'
loop_
_space_group_symop_operation_xyz
x,y,z
-y,x,z
-x,-y,z
y,-x,z
x,-y,-z
-x,y,-z
y,x,-z
-y,-x,-z
-x,-y,-z
y,-x,-z
x,y,-z
-y,x,-z
-x,y,z
x,-y,z
-y,-x,z
y,x,z
1/2+x,1/2+y,1/2+z
1/2-y,1/2+x,1/2+z
1/2-x,1/2-y,1/2+z
1/2+y,1/2-x,1/2+z
1/2+x,1/2-y,1/2-z
1/2-x,1/2+y,1/2-z
1/2+y,1/2+x,1/2-z
1/2-y,1/2-x,1/2-z
1/2-x,1/2-y,1/2-z
1/2+y,1/2-x,1/2-z
1/2+x,1/2+y,1/2-z
1/2-y,1/2+x,1/2-z
1/2-x,1/2+y,1/2+z
1/2+x,1/2-y,1/2+z
1/2-y,1/2-x,1/2+z
1/2+y,1/2+x,1/2+z
loop_
_atom_site_type_symbol
_atom_site_label
_atom_site_fract_x
_atom_site_fract_y
_atom_site_fract_z
Si Si1 0.907579 0.778732 0.621748
Si Si2 0.814879 0.318189 0.196531
Si Si3 0.785341 0.091706 0.871101
Si Si4 0.000000 0.416099 0.056536
Si Si5 0.843309 0.325742 0.944145
O O1 0.859133 0.859133 0.626014
O O2 0.886984 0.724932 0.666946
O O3 0.867865 0.730341 0.579089
O O4 0.000000 0.788303 0.616202
O O5 0.748554 0.251447 0.196871
O O6 0.836103 0.336103 0.250000
O O7 0.884820 0.278686 0.167938
O O8 0.865838 0.134163 0.858661
O O9 0.752783 0.133319 0.917890
O O10 0.792167 0.000000 0.876527
O O11 0.919818 0.375524 0.067574
O O12 0.000000 0.500000 0.078553
O O13 0.000000 0.421077 0.000000
O O14 0.834277 0.317744 0.000000
#
# Coordination Sequence:
#
# PCOD9571491 Si02
#       5
#    32  32  32  16  32
#     4  10  21  35  53  79 108 141 180 218 261 315
#     4   8  16  33  55  76  99 131 171 213 257 303
#     4  10  20  33  51  77 106 137 174 212 255 312
#     4   9  16  26  46  74  99 123 155 207 270 314
#     4  10  19  34  53  75 102 135 178 223 267 314
#
# _framework density 16.975432999999999
#
# number of rings (size 3 to 8) (size 9 to 14) (size 15 to 20)
#    0.000    2.556    1.111    2.667    0.000    4.444 
#    0.000    0.000    0.000    0.000    0.000   12.444 
#    0.000    0.000    0.000    0.000    0.000    0.000 
#
# Total GULP energy -400812.551896 kJ/mol
# GULP energy per Si atom -5566.840999 kJ/mol
# Density = 1.693680 g / cm^3
# Si number density = 16.975433 Si / 1000 Ang^3
#
#
#
# Elastic Constant Matrix: (Units=GPa)
#
#
# Indices 1 2 3 4 5 6 
#
# 1 17.4935 161.5495 34.4692 0.0000 0.0000 0.0000
# 2 161.5495 17.4935 34.4692 0.0000 0.0000 0.0000
# 3 34.4692 34.4692 118.5716 0.0000 0.0000 0.0000
# 4 0.0000 0.0000 0.0000 12.0236 0.0000 0.0000
# 5 0.0000 0.0000 0.0000 0.0000 12.0236 0.0000
# 6 0.0000 0.0000 0.0000 0.0000 0.0000 7.2587
#
#
#
# Elastic Compliance Matrix: (Units=1/GPa)
#
#
# Indices 1 2 3 4 5 6 
#
# 1 -0.000326 0.006615 -0.001828 0.000000 0.000000 0.000000
# 2 0.006615 -0.000326 -0.001828 0.000000 0.000000 0.000000
# 3 -0.001828 -0.001828 0.009497 0.000000 0.000000 0.000000
# 4 0.000000 0.000000 0.000000 0.083170 0.000000 0.000000
# 5 0.000000 0.000000 0.000000 0.000000 0.083170 0.000000
# 6 0.000000 0.000000 0.000000 0.000000 0.000000 0.137766
#
#
# Mechanical properties :
#
#
# Convention : Reuss Voigt Hill
#
# Bulk Modulus (GPa) = 67.74175 68.28161 68.01168
# Shear Modulus (GPa) = 16.02809 1.13256 8.58032
#
# Velocity S-wave (km/s) = 3.07611 0.81769 2.25067
# Velocity P-wave (km/s) = 7.25320 6.41893 6.84878
#
# Compressibility (1/GPa) = 0.01476194
#
# Stress axis : x y z
#
# Youngs Moduli (GPa) = -3064.99169 -3064.99169 105.29970
#
# Poissons Ratio (x) = 20.27639 0.19252
# Poissons Ratio (y) = 20.27638 0.19252
# Poissons Ratio (z) = -5.60371 -5.60371
#
# Static dielectric constant tensor:
#      x y z
#    x 1.756390 0.000000 0.000000 
#    y 0.000000 1.756390 0.000000 
#    z 0.000000 0.000000 1.595310 
# 
# From -- ./inp_files/12761.got.cif
#   From: 2010.05.17/outbox.cif.g08.bks.cpg/sg139_7_cif.got.tgz:12761.got - 2010.05.20 13:14:44.
