data_PCOD9571698
_publ_section_title
;
Structure prediction by ZEFSAII (Michael W. Deem and Ramdas Pophale) SiO2 
 PCOD9571698
Probable space group: I 4/M M M
;
_chemical_formula_sum "Si O2"
_cell_formula_units_Z 176
_cell_length_a 24.749261
_cell_length_b 24.749261
_cell_length_c 15.219420
_cell_angle_alpha 90.000000
_cell_angle_beta 90.000000
_cell_angle_gamma 90.000000
_cell_volume 9322.289238
_symmetry_space_group_name_H-M "I 4/M M M"
_symmetry_group_IT_number 139
_symmetry_cell_setting 'tetragonal'
loop_
_space_group_symop_operation_xyz
x,y,z
-y,x,z
-x,-y,z
y,-x,z
x,-y,-z
-x,y,-z
y,x,-z
-y,-x,-z
-x,-y,-z
y,-x,-z
x,y,-z
-y,x,-z
-x,y,z
x,-y,z
-y,-x,z
y,x,z
1/2+x,1/2+y,1/2+z
1/2-y,1/2+x,1/2+z
1/2-x,1/2-y,1/2+z
1/2+y,1/2-x,1/2+z
1/2+x,1/2-y,1/2-z
1/2-x,1/2+y,1/2-z
1/2+y,1/2+x,1/2-z
1/2-y,1/2-x,1/2-z
1/2-x,1/2-y,1/2-z
1/2+y,1/2-x,1/2-z
1/2+x,1/2+y,1/2-z
1/2-y,1/2+x,1/2-z
1/2-x,1/2+y,1/2+z
1/2+x,1/2-y,1/2+z
1/2-y,1/2-x,1/2+z
1/2+y,1/2+x,1/2+z
loop_
_atom_site_type_symbol
_atom_site_label
_atom_site_fract_x
_atom_site_fract_y
_atom_site_fract_z
Si Si1 0.389730 0.296627 0.100725
Si Si2 0.435585 0.064416 0.750000
Si Si3 0.062192 0.362711 0.095116
Si Si4 0.783580 0.303240 0.893171
Si Si5 0.345875 0.436806 0.729118
Si Si6 0.103710 0.750430 0.895374
O O1 0.340398 0.340398 0.098262
O O2 0.362069 0.239882 0.129741
O O3 0.429628 0.318871 0.174438
O O4 0.409985 0.292564 0.000000
O O5 0.500000 0.072600 0.762681
O O6 0.401696 0.085576 0.832342
O O7 0.062744 0.299348 0.116059
O O8 0.000000 0.379738 0.088051
O O9 0.089503 0.368332 0.000000
O O10 0.739809 0.260192 0.861392
O O11 0.840747 0.278913 0.866204
O O12 0.783361 0.302884 0.000000
O O13 0.356017 0.500000 0.711513
O O14 0.399465 0.399465 0.726111
O O15 0.302433 0.412568 0.660023
O O16 0.107398 0.763545 0.000000
#
# Coordination Sequence:
#
# PCOD9571698 Si02
#       6
#    32  16  32  32  32  32
#     4   8  16  33  55  80 111 141 169 208 262 326
#     4   9  18  32  50  74 105 142 184 226 267 320
#     4   9  18  32  49  70  99 137 179 223 270 317
#     4   8  14  27  50  79 108 135 162 197 247 311
#     4  11  24  39  57  81 107 143 191 240 294 350
#     4  10  20  35  55  79 108 140 176 221 275 335
#
# _framework density 18.879481999999999
#
# number of rings (size 3 to 8) (size 9 to 14) (size 15 to 20)
#    0.000    2.818    0.000    2.182    0.000    5.273 
#    0.000    4.545    0.000    0.000    0.000   11.455 
#    0.000    0.000    0.000    0.000    0.000    0.000 
#
# Total GULP energy -490004.345029 kJ/mol
# GULP energy per Si atom -5568.231194 kJ/mol
# Density = 1.883651 g / cm^3
# Si number density = 18.879482 Si / 1000 Ang^3
#
#
#
# Elastic Constant Matrix: (Units=GPa)
#
#
# Indices 1 2 3 4 5 6 
#
# 1 55.4617 53.4668 32.4317 0.0000 0.0000 0.0000
# 2 53.4668 55.4597 32.4321 0.0000 0.0000 0.0000
# 3 32.4317 32.4321 67.0019 0.0000 0.0000 0.0000
# 4 0.0000 0.0000 0.0000 17.8105 0.0000 0.0000
# 5 0.0000 0.0000 0.0000 0.0000 17.7604 0.0000
# 6 0.0000 0.0000 0.0000 0.0000 0.0000 20.7931
#
#
#
# Elastic Compliance Matrix: (Units=1/GPa)
#
#
# Indices 1 2 3 4 5 6 
#
# 1 0.257211 -0.244320 -0.006238 0.000000 0.000000 0.000000
# 2 -0.244320 0.257226 -0.006249 0.000000 0.000000 0.000000
# 3 -0.006238 -0.006249 0.020969 0.000000 0.000000 0.000000
# 4 0.000000 0.000000 0.000000 0.056147 0.000000 0.000000
# 5 0.000000 0.000000 0.000000 0.000000 0.056305 0.000000
# 6 0.000000 0.000000 0.000000 0.000000 0.000000 0.048093
#
#
# Mechanical properties :
#
#
# Convention : Reuss Voigt Hill
#
# Bulk Modulus (GPa) = 45.88803 46.06496 45.97649
# Shear Modulus (GPa) = 4.10905 15.24566 9.67735
#
# Velocity S-wave (km/s) = 1.47688 2.84478 2.26649
# Velocity P-wave (km/s) = 5.22176 5.93657 5.59060
#
# Compressibility (1/GPa) = 0.02179218
#
# Stress axis : x y z
#
# Youngs Moduli (GPa) = 3.88786 3.88764 47.68947
#
# Poissons Ratio (x) = 0.94983 0.29748
# Poissons Ratio (y) = 0.94988 0.29799
# Poissons Ratio (z) = 0.02425 0.02429
#
# Static dielectric constant tensor:
#      x y z
#    x 1.676850 0.000000 0.000000 
#    y 0.000000 1.676850 0.000000 
#    z 0.000000 0.000000 1.712090 
# 
# From -- ./inp_files/6089.got.cif
#   From: 2010.05.17/outbox.cif.g08.bks.cpg/sg139_4_cif.got.tgz:6089.got - 2010.05.20 13:14:44.
