data_PCOD9571762
_publ_section_title
;
Structure prediction by ZEFSAII (Michael W. Deem and Ramdas Pophale) SiO2 
 PCOD9571762
Probable space group: I 4/M M M
;
_chemical_formula_sum "Si O2"
_cell_formula_units_Z 120
_cell_length_a 19.296441
_cell_length_b 19.296441
_cell_length_c 17.536758
_cell_angle_alpha 90.000000
_cell_angle_beta 90.000000
_cell_angle_gamma 90.000000
_cell_volume 6529.858055
_symmetry_space_group_name_H-M "I 4/M M M"
_symmetry_group_IT_number 139
_symmetry_cell_setting 'tetragonal'
loop_
_space_group_symop_operation_xyz
x,y,z
-y,x,z
-x,-y,z
y,-x,z
x,-y,-z
-x,y,-z
y,x,-z
-y,-x,-z
-x,-y,-z
y,-x,-z
x,y,-z
-y,x,-z
-x,y,z
x,-y,z
-y,-x,z
y,x,z
1/2+x,1/2+y,1/2+z
1/2-y,1/2+x,1/2+z
1/2-x,1/2-y,1/2+z
1/2+y,1/2-x,1/2+z
1/2+x,1/2-y,1/2-z
1/2-x,1/2+y,1/2-z
1/2+y,1/2+x,1/2-z
1/2-y,1/2-x,1/2-z
1/2-x,1/2-y,1/2-z
1/2+y,1/2-x,1/2-z
1/2+x,1/2+y,1/2-z
1/2-y,1/2+x,1/2-z
1/2-x,1/2+y,1/2+z
1/2+x,1/2-y,1/2+z
1/2-y,1/2-x,1/2+z
1/2+y,1/2+x,1/2+z
loop_
_atom_site_type_symbol
_atom_site_label
_atom_site_fract_x
_atom_site_fract_y
_atom_site_fract_z
Si Si1 0.638513 0.080214 0.591129
Si Si2 0.618399 0.500000 0.000000
Si Si3 0.500000 0.384840 0.834145
Si Si4 0.500000 0.730242 0.720057
Si Si5 0.164677 0.500000 0.591546
Si Si6 0.742389 0.855139 0.699282
O O1 0.640304 0.078192 0.500000
O O2 0.567637 0.119661 0.613330
O O3 0.702335 0.124833 0.622526
O O4 0.639374 0.000000 0.618369
O O5 0.566479 0.566479 0.000000
O O6 0.656039 0.500000 0.916641
O O7 0.566391 0.433610 0.837322
O O8 0.500000 0.347665 0.752654
O O9 0.500000 0.761974 0.635510
O O10 0.572119 0.754399 0.756934
O O11 0.173894 0.500000 0.500000
O O12 0.815371 0.815371 0.688088
O O13 0.695384 0.804616 0.750000
#
# Coordination Sequence:
#
# PCOD9571762 Si02
#       6
#    32   8  16  16  16  32
#     4  10  20  38  62  89 119 150 189 238 295 355
#     4   7  12  28  52  78 108 138 179 236 290 340
#     4   9  18  34  57  82 108 144 193 245 294 343
#     4  12  21  37  60  79 114 155 197 241 291 348
#     4  10  21  37  61  90 116 149 195 247 293 348
#     4  11  23  38  57  84 117 155 199 242 288 352
#
# _framework density 18.377123000000001
#
# number of rings (size 3 to 8) (size 9 to 14) (size 15 to 20)
#    0.000    1.800    4.000    2.000    0.000    2.133 
#    2.400    0.000    0.000    3.200    0.000    0.933 
#    0.000    0.000    0.000    0.000    0.000    0.000 
#
# Total GULP energy -334029.228151 kJ/mol
# GULP energy per Si atom -5567.153803 kJ/mol
# Density = 1.833530 g / cm^3
# Si number density = 18.377123 Si / 1000 Ang^3
#
#
#
# Elastic Constant Matrix: (Units=GPa)
#
#
# Indices 1 2 3 4 5 6 
#
# 1 97.6887 39.8453 39.6466 0.0000 0.0000 0.0000
# 2 39.8453 97.6890 39.6461 0.0000 0.0000 0.0000
# 3 39.6466 39.6461 51.4826 0.0000 0.0000 0.0000
# 4 0.0000 0.0000 0.0000 29.0700 0.0000 0.0000
# 5 0.0000 0.0000 0.0000 0.0000 29.0701 0.0000
# 6 0.0000 0.0000 0.0000 0.0000 0.0000 33.5270
#
#
#
# Elastic Compliance Matrix: (Units=1/GPa)
#
#
# Indices 1 2 3 4 5 6 
#
# 1 0.015183 -0.002106 -0.010071 0.000000 0.000000 0.000000
# 2 -0.002106 0.015182 -0.010070 0.000000 0.000000 0.000000
# 3 -0.010071 -0.010070 0.034934 0.000000 0.000000 0.000000
# 4 0.000000 0.000000 0.000000 0.034400 0.000000 0.000000
# 5 0.000000 0.000000 0.000000 0.000000 0.034400 0.000000
# 6 0.000000 0.000000 0.000000 0.000000 0.000000 0.029827
#
#
# Mechanical properties :
#
#
# Convention : Reuss Voigt Hill
#
# Bulk Modulus (GPa) = 48.06203 53.90404 50.98304
# Shear Modulus (GPa) = 23.21769 26.84824 25.03296
#
# Velocity S-wave (km/s) = 3.55829 3.82640 3.69478
# Velocity P-wave (km/s) = 6.56444 6.99411 6.78268
#
# Compressibility (1/GPa) = 0.02080644
#
# Stress axis : x y z
#
# Youngs Moduli (GPa) = 65.86524 65.86624 28.62524
#
# Poissons Ratio (x) = 0.13869 0.28827
# Poissons Ratio (y) = 0.13869 0.28826
# Poissons Ratio (z) = 0.66330 0.66328
#
# Static dielectric constant tensor:
#      x y z
#    x 1.666410 0.000000 0.000000 
#    y 0.000000 1.666410 0.000000 
#    z 0.000000 0.000000 1.652150 
# 
# From -- ./inp_files/5397.got.cif
#   From: 2010.05.17/outbox.cif.g08.bks.cpg/sg139_3_cif.got.tgz:5397.got - 2010.05.20 13:14:44.
