data_PCOD9571907
_publ_section_title
;
Structure prediction by ZEFSAII (Michael W. Deem and Ramdas Pophale) SiO2 
 PCOD9571907
Probable space group: I 4/M M M
;
_chemical_formula_sum "Si O2"
_cell_formula_units_Z 128
_cell_length_a 28.306284
_cell_length_b 28.306284
_cell_length_c 9.300243
_cell_angle_alpha 90.000000
_cell_angle_beta 90.000000
_cell_angle_gamma 90.000000
_cell_volume 7451.779842
_symmetry_space_group_name_H-M "I 4/M M M"
_symmetry_group_IT_number 139
_symmetry_cell_setting 'tetragonal'
loop_
_space_group_symop_operation_xyz
x,y,z
-y,x,z
-x,-y,z
y,-x,z
x,-y,-z
-x,y,-z
y,x,-z
-y,-x,-z
-x,-y,-z
y,-x,-z
x,y,-z
-y,x,-z
-x,y,z
x,-y,z
-y,-x,z
y,x,z
1/2+x,1/2+y,1/2+z
1/2-y,1/2+x,1/2+z
1/2-x,1/2-y,1/2+z
1/2+y,1/2-x,1/2+z
1/2+x,1/2-y,1/2-z
1/2-x,1/2+y,1/2-z
1/2+y,1/2+x,1/2-z
1/2-y,1/2-x,1/2-z
1/2-x,1/2-y,1/2-z
1/2+y,1/2-x,1/2-z
1/2+x,1/2+y,1/2-z
1/2-y,1/2+x,1/2-z
1/2-x,1/2+y,1/2+z
1/2+x,1/2-y,1/2+z
1/2-y,1/2-x,1/2+z
1/2+y,1/2+x,1/2+z
loop_
_atom_site_type_symbol
_atom_site_label
_atom_site_fract_x
_atom_site_fract_y
_atom_site_fract_z
Si Si1 0.798962 0.500000 0.674484
Si Si2 0.840404 0.916491 0.657378
Si Si3 0.692374 0.500000 0.668148
Si Si4 0.107964 0.324272 0.825906
Si Si5 0.163624 0.759832 0.332828
O O1 0.799756 0.500000 0.500000
O O2 0.745275 0.500000 0.730432
O O3 0.818829 0.552151 0.714016
O O4 0.835886 0.939161 0.500000
O O5 0.889524 0.889524 0.666028
O O6 0.800118 0.876624 0.666831
O O7 0.833787 0.953941 0.779584
O O8 0.697431 0.500000 0.500000
O O9 0.129705 0.370296 0.750000
O O10 0.141184 0.281378 0.765117
O O11 0.111435 0.325466 0.000000
O O12 0.169560 0.743808 0.500000
O O13 0.211906 0.788095 0.289949
#
# Coordination Sequence:
#
# PCOD9571907 Si02
#       5
#    16  32  16  32  32
#     4   9  20  37  55  78 109 138 170 218 265 313
#     4   9  18  32  50  75 107 141 178 221 267 315
#     4  11  19  31  53  80 105 138 179 222 272 316
#     4  11  22  38  57  80 109 142 179 219 267 316
#     4   9  18  33  52  77 110 146 182 217 255 306
#
# _framework density 17.177104
#
# number of rings (size 3 to 8) (size 9 to 14) (size 15 to 20)
#    0.000    2.250    2.500    2.625    0.000    1.500 
#    0.000    5.000    0.000    0.750    0.000    5.250 
#    0.000    0.000    0.000    0.000    0.000    0.000 
#
# Total GULP energy -356359.136718 kJ/mol
# GULP energy per Si atom -5568.111511 kJ/mol
# Density = 1.713801 g / cm^3
# Si number density = 17.177104 Si / 1000 Ang^3
#
#
#
# Elastic Constant Matrix: (Units=GPa)
#
#
# Indices 1 2 3 4 5 6 
#
# 1 94.0696 54.4216 43.9718 0.0000 0.0000 0.0000
# 2 54.4216 94.0642 43.9707 0.0000 0.0000 0.0000
# 3 43.9718 43.9707 68.8580 0.0000 0.0000 0.0000
# 4 0.0000 0.0000 0.0000 25.1792 0.0000 0.0000
# 5 0.0000 0.0000 0.0000 0.0000 25.1799 0.0000
# 6 0.0000 0.0000 0.0000 0.0000 0.0000 12.4898
#
#
#
# Elastic Compliance Matrix: (Units=1/GPa)
#
#
# Indices 1 2 3 4 5 6 
#
# 1 0.018027 -0.007197 -0.006916 0.000000 0.000000 0.000000
# 2 -0.007197 0.018028 -0.006916 0.000000 0.000000 0.000000
# 3 -0.006916 -0.006916 0.023356 0.000000 0.000000 0.000000
# 4 0.000000 0.000000 0.000000 0.039715 0.000000 0.000000
# 5 0.000000 0.000000 0.000000 0.000000 0.039714 0.000000
# 6 0.000000 0.000000 0.000000 0.000000 0.000000 0.080066
#
#
# Mechanical properties :
#
#
# Convention : Reuss Voigt Hill
#
# Bulk Modulus (GPa) = 57.62969 60.19111 58.91040
# Shear Modulus (GPa) = 18.74432 20.21160 19.47796
#
# Velocity S-wave (km/s) = 3.30697 3.43397 3.37107
# Velocity P-wave (km/s) = 6.94295 7.13025 7.03722
#
# Compressibility (1/GPa) = 0.01735217
#
# Stress axis : x y z
#
# Youngs Moduli (GPa) = 55.47345 55.47013 42.81599
#
# Poissons Ratio (x) = 0.39919 0.29612
# Poissons Ratio (y) = 0.39922 0.29613
# Poissons Ratio (z) = 0.38366 0.38365
#
# Static dielectric constant tensor:
#      x y z
#    x 1.591680 0.000000 0.000000 
#    y 0.000000 1.591680 0.000000 
#    z 0.000000 0.000000 1.590930 
# 
# From -- ./inp_files/1779.got.cif
#   From: 2010.05.17/outbox.cif.g08.bks.cpg/sg139_1_cif.got.tgz:1779.got - 2010.05.20 13:14:44.
