data_PCOD9571581
_publ_section_title
;
Structure prediction by ZEFSAII (Michael W. Deem and Ramdas Pophale) SiO2 
 PCOD9571581
Probable space group: I 4/M M M
;
_chemical_formula_sum "Si O2"
_cell_formula_units_Z 144
_cell_length_a 19.332795
_cell_length_b 19.332795
_cell_length_c 19.165086
_cell_angle_alpha 90.000000
_cell_angle_beta 90.000000
_cell_angle_gamma 90.000000
_cell_volume 7163.084330
_symmetry_space_group_name_H-M "I 4/M M M"
_symmetry_group_IT_number 139
_symmetry_cell_setting 'tetragonal'
loop_
_space_group_symop_operation_xyz
x,y,z
-y,x,z
-x,-y,z
y,-x,z
x,-y,-z
-x,y,-z
y,x,-z
-y,-x,-z
-x,-y,-z
y,-x,-z
x,y,-z
-y,x,-z
-x,y,z
x,-y,z
-y,-x,z
y,x,z
1/2+x,1/2+y,1/2+z
1/2-y,1/2+x,1/2+z
1/2-x,1/2-y,1/2+z
1/2+y,1/2-x,1/2+z
1/2+x,1/2-y,1/2-z
1/2-x,1/2+y,1/2-z
1/2+y,1/2+x,1/2-z
1/2-y,1/2-x,1/2-z
1/2-x,1/2-y,1/2-z
1/2+y,1/2-x,1/2-z
1/2+x,1/2+y,1/2-z
1/2-y,1/2+x,1/2-z
1/2-x,1/2+y,1/2+z
1/2+x,1/2-y,1/2+z
1/2-y,1/2-x,1/2+z
1/2+y,1/2+x,1/2+z
loop_
_atom_site_type_symbol
_atom_site_label
_atom_site_fract_x
_atom_site_fract_y
_atom_site_fract_z
Si Si1 0.691309 0.582788 0.500000
Si Si2 0.424892 0.917289 0.166697
Si Si3 0.582607 0.697408 0.228243
Si Si4 0.302511 0.418277 0.075099
Si Si5 0.584320 0.221105 0.366480
O O1 0.687747 0.500000 0.500000
O O2 0.616571 0.616571 0.500000
O O3 0.732310 0.605867 0.431126
O O4 0.500000 0.886264 0.150127
O O5 0.412658 0.912658 0.250000
O O6 0.357546 0.890683 0.128007
O O7 0.429042 0.000000 0.152881
O O8 0.500000 0.684468 0.234558
O O9 0.627387 0.627387 0.233101
O O10 0.595626 0.729789 0.151384
O O11 0.603766 0.746266 0.292175
O O12 0.318728 0.500000 0.075533
O O13 0.371628 0.371628 0.074907
O O14 0.266754 0.403839 0.000000
O O15 0.500000 0.219208 0.367086
#
# Coordination Sequence:
#
# PCOD9571581 Si02
#       5
#    16  32  32  32  32
#     4  10  20  33  49  69  99 143 191 237 276 302
#     4   8  14  27  50  79 105 125 150 193 255 328
#     4   9  16  25  38  57  85 123 168 218 265 310
#     4   8  13  20  30  47  72 104 146 197 253 308
#     4   9  17  29  45  69  99 130 168 212 261 312
#
# _framework density 20.103072999999998
#
# number of rings (size 3 to 8) (size 9 to 14) (size 15 to 20)
#    0.000    3.333    0.000    1.333    0.000    0.556 
#    0.000    3.889    0.000   10.000    2.889    0.000 
#    0.000    0.000    0.444    0.667    0.000    0.000 
#
# Total GULP energy -400822.344031 kJ/mol
# GULP energy per Si atom -5566.977000 kJ/mol
# Density = 2.005732 g / cm^3
# Si number density = 20.103073 Si / 1000 Ang^3
#
#
#
# Elastic Constant Matrix: (Units=GPa)
#
#
# Indices 1 2 3 4 5 6 
#
# 1 47.2399 29.8773 33.0288 0.0000 0.0000 0.0000
# 2 29.8773 47.2399 33.0288 0.0000 0.0000 0.0000
# 3 33.0288 33.0288 157.9117 0.0000 0.0000 0.0000
# 4 0.0000 0.0000 0.0000 4.4679 0.0000 0.0000
# 5 0.0000 0.0000 0.0000 0.0000 4.4679 0.0000
# 6 0.0000 0.0000 0.0000 0.0000 0.0000 2.2805
#
#
#
# Elastic Compliance Matrix: (Units=1/GPa)
#
#
# Indices 1 2 3 4 5 6 
#
# 1 0.036696 -0.020899 -0.003304 0.000000 0.000000 0.000000
# 2 -0.020899 0.036696 -0.003304 0.000000 0.000000 0.000000
# 3 -0.003304 -0.003304 0.007715 0.000000 0.000000 0.000000
# 4 0.000000 0.000000 0.000000 0.223817 0.000000 0.000000
# 5 0.000000 0.000000 0.000000 0.000000 0.223817 0.000000
# 6 0.000000 0.000000 0.000000 0.000000 0.000000 0.438495
#
#
# Mechanical properties :
#
#
# Convention : Reuss Voigt Hill
#
# Bulk Modulus (GPa) = 38.32415 49.36239 43.84327
# Shear Modulus (GPa) = 4.84990 12.67371 8.76180
#
# Velocity S-wave (km/s) = 1.55491 2.51357 2.08995
# Velocity P-wave (km/s) = 4.72535 5.74735 5.26122
#
# Compressibility (1/GPa) = 0.02609321
#
# Stress axis : x y z
#
# Youngs Moduli (GPa) = 27.25062 27.25062 129.61957
#
# Poissons Ratio (x) = 0.56950 0.42829
# Poissons Ratio (y) = 0.56950 0.42829
# Poissons Ratio (z) = 0.09004 0.09004
#
# Static dielectric constant tensor:
#      x y z
#    x 1.697470 0.000000 0.000000 
#    y 0.000000 1.697470 0.000000 
#    z 0.000000 0.000000 1.743630 
# 
# From -- ./inp_files/8242.got.cif
#   From: 2010.05.17/outbox.cif.g08.bks.cpg/sg139_5_cif.got.tgz:8242.got - 2010.05.20 13:14:44.
