data_PCOD9571550
_publ_section_title
;
Structure prediction by ZEFSAII (Michael W. Deem and Ramdas Pophale) SiO2 
 PCOD9571550
Probable space group: I 4/M M M
;
_chemical_formula_sum "Si O2"
_cell_formula_units_Z 160
_cell_length_a 30.562858
_cell_length_b 30.562858
_cell_length_c 8.547338
_cell_angle_alpha 90.000000
_cell_angle_beta 90.000000
_cell_angle_gamma 90.000000
_cell_volume 7983.968329
_symmetry_space_group_name_H-M "I 4/M M M"
_symmetry_group_IT_number 139
_symmetry_cell_setting 'tetragonal'
loop_
_space_group_symop_operation_xyz
x,y,z
-y,x,z
-x,-y,z
y,-x,z
x,-y,-z
-x,y,-z
y,x,-z
-y,-x,-z
-x,-y,-z
y,-x,-z
x,y,-z
-y,x,-z
-x,y,z
x,-y,z
-y,-x,z
y,x,z
1/2+x,1/2+y,1/2+z
1/2-y,1/2+x,1/2+z
1/2-x,1/2-y,1/2+z
1/2+y,1/2-x,1/2+z
1/2+x,1/2-y,1/2-z
1/2-x,1/2+y,1/2-z
1/2+y,1/2+x,1/2-z
1/2-y,1/2-x,1/2-z
1/2-x,1/2-y,1/2-z
1/2+y,1/2-x,1/2-z
1/2+x,1/2+y,1/2-z
1/2-y,1/2+x,1/2-z
1/2-x,1/2+y,1/2+z
1/2+x,1/2-y,1/2+z
1/2-y,1/2-x,1/2+z
1/2+y,1/2+x,1/2+z
loop_
_atom_site_type_symbol
_atom_site_label
_atom_site_fract_x
_atom_site_fract_y
_atom_site_fract_z
Si Si1 0.657549 0.585972 0.677962
Si Si2 0.263416 0.000000 0.180376
Si Si3 0.000000 0.828046 0.322508
Si Si4 0.385781 0.050214 0.813091
Si Si5 0.300067 0.091424 0.312431
Si Si6 0.844280 0.774057 0.688300
O O1 0.671885 0.575665 0.500000
O O2 0.614740 0.614740 0.667038
O O3 0.647736 0.544213 0.782433
O O4 0.693547 0.616762 0.759810
O O5 0.211869 0.000000 0.201939
O O6 0.277492 0.954257 0.259003
O O7 0.278154 0.000000 0.000000
O O8 0.000000 0.811765 0.500000
O O9 0.431551 0.068450 0.750000
O O10 0.348355 0.083043 0.752547
O O11 0.376969 0.000000 0.761725
O O12 0.385698 0.050826 0.000000
O O13 0.301097 0.092694 0.500000
O O14 0.273016 0.135086 0.259372
O O15 0.841311 0.772331 0.500000
O O16 0.798844 0.798844 0.742852
#
# Coordination Sequence:
#
# PCOD9571550 Si02
#       6
#    32  16  16  32  32  32
#     4  10  20  32  47  69  98 133 175 227 286 347
#     4  12  22  32  50  80 116 152 194 246 298 354
#     4  12  22  32  48  71 101 139 179 226 287 350
#     4  11  25  44  67  95 128 165 205 254 309 366
#     4  11  21  35  59  88 122 162 203 249 304 363
#     4   9  18  32  51  79 117 158 198 240 290 352
#
# _framework density 20.04016
#
# number of rings (size 3 to 8) (size 9 to 14) (size 15 to 20)
#    0.000    1.400    3.000    3.600    0.000    3.400 
#    0.000    1.000    0.000    0.900    0.000    2.100 
#    0.000    0.000    0.000    0.000    0.000    0.000 
#
# Total GULP energy -445853.605140 kJ/mol
# GULP energy per Si atom -5573.170064 kJ/mol
# Density = 1.999455 g / cm^3
# Si number density = 20.040160 Si / 1000 Ang^3
#
#
#
# Elastic Constant Matrix: (Units=GPa)
#
#
# Indices 1 2 3 4 5 6 
#
# 1 70.0162 59.2899 13.4115 0.0000 0.0000 0.0000
# 2 59.2899 70.0338 13.4123 0.0000 0.0000 0.0000
# 3 13.4115 13.4123 32.6094 0.0000 0.0000 0.0000
# 4 0.0000 0.0000 0.0000 23.9057 0.0000 0.0000
# 5 0.0000 0.0000 0.0000 0.0000 23.9045 0.0000
# 6 0.0000 0.0000 0.0000 0.0000 0.0000 52.0549
#
#
#
# Elastic Compliance Matrix: (Units=1/GPa)
#
#
# Indices 1 2 3 4 5 6 
#
# 1 0.050810 -0.042349 -0.003479 0.000000 0.000000 0.000000
# 2 -0.042349 0.050797 -0.003476 0.000000 0.000000 0.000000
# 3 -0.003479 -0.003476 0.033526 0.000000 0.000000 0.000000
# 4 0.000000 0.000000 0.000000 0.041831 0.000000 0.000000
# 5 0.000000 0.000000 0.000000 0.000000 0.041833 0.000000
# 6 0.000000 0.000000 0.000000 0.000000 0.000000 0.019210
#
#
# Mechanical properties :
#
#
# Convention : Reuss Voigt Hill
#
# Bulk Modulus (GPa) = 27.37757 38.32075 32.84916
# Shear Modulus (GPa) = 14.33523 25.74271 20.03897
#
# Velocity S-wave (km/s) = 2.67746 3.58796 3.16561
# Velocity P-wave (km/s) = 4.82176 6.02728 5.45791
#
# Compressibility (1/GPa) = 0.03652625
#
# Stress axis : x y z
#
# Youngs Moduli (GPa) = 19.68106 19.68623 29.82733
#
# Poissons Ratio (x) = 0.83370 0.10376
# Poissons Ratio (y) = 0.83348 0.10367
# Poissons Ratio (z) = 0.06847 0.06842
#
# Static dielectric constant tensor:
#      x y z
#    x 1.740730 0.000000 0.000000 
#    y 0.000000 1.740670 0.000000 
#    z 0.000000 0.000000 1.702930 
# 
# From -- ./inp_files/2223.got.cif
#   From: 2010.05.17/outbox.cif.g08.bks.cpg/sg139_2_cif.got.tgz:2223.got - 2010.05.20 13:14:44.
