data_PCOD9571812
_publ_section_title
;
Structure prediction by ZEFSAII (Michael W. Deem and Ramdas Pophale) SiO2 
 PCOD9571812
Probable space group: I 4/M M M
;
_chemical_formula_sum "Si O2"
_cell_formula_units_Z 96
_cell_length_a 24.536389
_cell_length_b 24.536389
_cell_length_c 8.681947
_cell_angle_alpha 90.000000
_cell_angle_beta 90.000000
_cell_angle_gamma 90.000000
_cell_volume 5226.830624
_symmetry_space_group_name_H-M "I 4/M M M"
_symmetry_group_IT_number 139
_symmetry_cell_setting 'tetragonal'
loop_
_space_group_symop_operation_xyz
x,y,z
-y,x,z
-x,-y,z
y,-x,z
x,-y,-z
-x,y,-z
y,x,-z
-y,-x,-z
-x,-y,-z
y,-x,-z
x,y,-z
-y,x,-z
-x,y,z
x,-y,z
-y,-x,z
y,x,z
1/2+x,1/2+y,1/2+z
1/2-y,1/2+x,1/2+z
1/2-x,1/2-y,1/2+z
1/2+y,1/2-x,1/2+z
1/2+x,1/2-y,1/2-z
1/2-x,1/2+y,1/2-z
1/2+y,1/2+x,1/2-z
1/2-y,1/2-x,1/2-z
1/2-x,1/2-y,1/2-z
1/2+y,1/2-x,1/2-z
1/2+x,1/2+y,1/2-z
1/2-y,1/2+x,1/2-z
1/2-x,1/2+y,1/2+z
1/2+x,1/2-y,1/2+z
1/2-y,1/2-x,1/2+z
1/2+y,1/2+x,1/2+z
loop_
_atom_site_type_symbol
_atom_site_label
_atom_site_fract_x
_atom_site_fract_y
_atom_site_fract_z
Si Si1 0.644116 0.064019 0.816845
Si Si2 0.350585 0.350585 0.683744
Si Si3 0.352719 0.230773 0.816502
Si Si4 0.436807 0.563193 0.185940
O O1 0.588148 0.088148 0.750000
O O2 0.691396 0.097977 0.733265
O O3 0.649182 0.000000 0.790938
O O4 0.646964 0.074865 0.000000
O O5 0.350172 0.350172 0.500000
O O6 0.362628 0.290123 0.746844
O O7 0.394487 0.394487 0.742546
O O8 0.298572 0.201429 0.750000
O O9 0.348181 0.234054 0.000000
O O10 0.425214 0.500000 0.228729
O O11 0.433416 0.566585 0.000000
#
# Coordination Sequence:
#
# PCOD9571812 Si02
#       4
#    32  16  32  16
#     4  10  21  37  57  82 113 149 190 235 283 334
#     4  12  24  38  59  87 117 149 188 228 271 332
#     4  11  22  38  59  83 114 149 187 232 283 335
#     4   9  20  41  65  87 114 147 184 229 280 331
#
# _framework density 18.366771
#
# number of rings (size 3 to 8) (size 9 to 14) (size 15 to 20)
#    0.000    1.500    0.000    8.500    0.000    5.000 
#    0.000    2.500    0.000    0.000    0.000    0.000 
#    0.000    0.000    0.000    0.000    0.000    0.000 
#
# Total GULP energy -268273.746681 kJ/mol
# GULP energy per Si atom -5589.036389 kJ/mol
# Density = 1.832497 g / cm^3
# Si number density = 18.366771 Si / 1000 Ang^3
#
#
#
# Elastic Constant Matrix: (Units=GPa)
#
#
# Indices 1 2 3 4 5 6 
#
# 1 135.6127 83.4442 77.3102 0.0000 0.0000 0.0000
# 2 83.4442 135.6113 77.3066 0.0000 0.0000 0.0000
# 3 77.3102 77.3066 150.9065 0.0000 0.0000 0.0000
# 4 0.0000 0.0000 0.0000 30.4691 0.0000 0.0000
# 5 0.0000 0.0000 0.0000 0.0000 30.4695 0.0000
# 6 0.0000 0.0000 0.0000 0.0000 0.0000 26.3993
#
#
#
# Elastic Compliance Matrix: (Units=1/GPa)
#
#
# Indices 1 2 3 4 5 6 
#
# 1 0.013160 -0.006009 -0.003664 0.000000 0.000000 0.000000
# 2 -0.006009 0.013160 -0.003663 0.000000 0.000000 0.000000
# 3 -0.003664 -0.003663 0.010380 0.000000 0.000000 0.000000
# 4 0.000000 0.000000 0.000000 0.032820 0.000000 0.000000
# 5 0.000000 0.000000 0.000000 0.000000 0.032820 0.000000
# 6 0.000000 0.000000 0.000000 0.000000 0.000000 0.037880
#
#
# Mechanical properties :
#
#
# Convention : Reuss Voigt Hill
#
# Bulk Modulus (GPa) = 99.71775 99.80583 99.76179
# Shear Modulus (GPa) = 29.37147 29.73886 29.55516
#
# Velocity S-wave (km/s) = 4.00329 4.02825 4.01579
# Velocity P-wave (km/s) = 8.70510 8.72320 8.71415
#
# Compressibility (1/GPa) = 0.01002830
#
# Stress axis : x y z
#
# Youngs Moduli (GPa) = 75.98815 75.98996 96.33976
#
# Poissons Ratio (x) = 0.45663 0.35295
# Poissons Ratio (y) = 0.45662 0.35289
# Poissons Ratio (z) = 0.27839 0.27835
#
# Static dielectric constant tensor:
#      x y z
#    x 1.617220 0.000000 0.000000 
#    y 0.000000 1.617220 0.000000 
#    z 0.000000 0.000000 1.616190 
# 
# From -- ./inp_files/1127.got.cif
#   From: 2010.05.17/outbox.cif.g08.bks.cpg/sg139_1_cif.got.tgz:1127.got - 2010.05.20 13:14:44.
