data_PCOD9571764
_publ_section_title
;
Structure prediction by ZEFSAII (Michael W. Deem and Ramdas Pophale) SiO2 
 PCOD9571764
Probable space group: I 4/M M M
;
_chemical_formula_sum "Si O2"
_cell_formula_units_Z 108
_cell_length_a 13.525088
_cell_length_b 13.525088
_cell_length_c 32.265106
_cell_angle_alpha 90.000000
_cell_angle_beta 90.000000
_cell_angle_gamma 90.000000
_cell_volume 5902.191485
_symmetry_space_group_name_H-M "I 4/M M M"
_symmetry_group_IT_number 139
_symmetry_cell_setting 'tetragonal'
loop_
_space_group_symop_operation_xyz
x,y,z
-y,x,z
-x,-y,z
y,-x,z
x,-y,-z
-x,y,-z
y,x,-z
-y,-x,-z
-x,-y,-z
y,-x,-z
x,y,-z
-y,x,-z
-x,y,z
x,-y,z
-y,-x,z
y,x,z
1/2+x,1/2+y,1/2+z
1/2-y,1/2+x,1/2+z
1/2-x,1/2-y,1/2+z
1/2+y,1/2-x,1/2+z
1/2+x,1/2-y,1/2-z
1/2-x,1/2+y,1/2-z
1/2+y,1/2+x,1/2-z
1/2-y,1/2-x,1/2-z
1/2-x,1/2-y,1/2-z
1/2+y,1/2-x,1/2-z
1/2+x,1/2+y,1/2-z
1/2-y,1/2+x,1/2-z
1/2-x,1/2+y,1/2+z
1/2+x,1/2-y,1/2+z
1/2-y,1/2-x,1/2+z
1/2+y,1/2+x,1/2+z
loop_
_atom_site_type_symbol
_atom_site_label
_atom_site_fract_x
_atom_site_fract_y
_atom_site_fract_z
Si Si1 0.000000 0.718272 0.412519
Si Si2 0.000000 0.500000 0.614624
Si Si3 0.500000 0.333550 0.829574
Si Si4 0.202868 0.202868 0.549390
Si Si5 0.500000 0.500000 0.578804
Si Si6 0.214018 0.500000 0.652908
Si Si7 0.839051 0.160950 0.103694
Si Si8 0.500000 0.332783 0.265693
O O1 0.000000 0.599539 0.412913
O O2 0.095826 0.765059 0.433898
O O3 0.000000 0.750604 0.364263
O O4 0.098955 0.500000 0.642285
O O5 0.595123 0.404878 0.835009
O O6 0.500000 0.298703 0.781973
O O7 0.204855 0.204855 0.500000
O O8 0.279251 0.279251 0.569650
O O9 0.414442 0.585559 0.582506
O O10 0.265132 0.595900 0.631851
O O11 0.246741 0.500000 0.700719
O O12 0.594710 0.405291 0.271878
#
# Coordination Sequence:
#
# PCOD9571764 Si02
#       8
#    16   8  16  16   4  16  16  16
#     4  12  24  46  67  96 129 168 213 269 335 399
#     4  12  26  38  64  90 130 180 208 246 333 401
#     4   9  18  36  64  98 130 163 210 271 326 379
#     4  12  26  45  70  96 126 168 221 275 331 394
#     4   8  20  36  65 100 116 160 224 256 296 380
#     4  11  19  37  61  96 126 173 212 256 306 391
#     4  10  20  38  65  91 131 165 210 266 322 369
#     4   9  17  30  61 103 129 159 214 268 312 374
#
# _framework density 18.298287999999999
#
# number of rings (size 3 to 8) (size 9 to 14) (size 15 to 20)
#    0.000    1.481    5.926    1.333    0.000    0.296 
#    0.000   10.741    0.000    5.333    0.000    0.000 
#    0.000    0.000    0.000    0.000    0.000    0.000 
#
# Total GULP energy -301058.369127 kJ/mol
# GULP energy per Si atom -5575.154984 kJ/mol
# Density = 1.825664 g / cm^3
# Si number density = 18.298288 Si / 1000 Ang^3
#
#
#
# Elastic Constant Matrix: (Units=GPa)
#
#
# Indices 1 2 3 4 5 6 
#
# 1 149.1427 53.7054 67.2123 0.0000 0.0000 0.0000
# 2 53.7054 149.1427 67.2123 0.0000 0.0000 0.0000
# 3 67.2123 67.2123 128.5953 0.0000 0.0000 0.0000
# 4 0.0000 0.0000 0.0000 20.3442 0.0000 0.0000
# 5 0.0000 0.0000 0.0000 0.0000 20.3442 0.0000
# 6 0.0000 0.0000 0.0000 0.0000 0.0000 24.8769
#
#
#
# Elastic Compliance Matrix: (Units=1/GPa)
#
#
# Indices 1 2 3 4 5 6 
#
# 1 0.009010 -0.001468 -0.003942 0.000000 0.000000 0.000000
# 2 -0.001468 0.009010 -0.003942 0.000000 0.000000 0.000000
# 3 -0.003942 -0.003942 0.011897 0.000000 0.000000 0.000000
# 4 0.000000 0.000000 0.000000 0.049154 0.000000 0.000000
# 5 0.000000 0.000000 0.000000 0.000000 0.049154 0.000000
# 6 0.000000 0.000000 0.000000 0.000000 0.000000 0.040198
#
#
# Mechanical properties :
#
#
# Convention : Reuss Voigt Hill
#
# Bulk Modulus (GPa) = 89.18022 89.23784 89.20903
# Shear Modulus (GPa) = 26.19650 29.02975 27.61312
#
# Velocity S-wave (km/s) = 3.78780 3.98738 3.88887
# Velocity P-wave (km/s) = 8.24455 8.37097 8.30800
#
# Compressibility (1/GPa) = 0.01121325
#
# Stress axis : x y z
#
# Youngs Moduli (GPa) = 110.98659 110.98659 84.05464
#
# Poissons Ratio (x) = 0.16293 0.33134
# Poissons Ratio (y) = 0.16293 0.33134
# Poissons Ratio (z) = 0.43751 0.43751
#
# Static dielectric constant tensor:
#      x y z
#    x 1.624860 0.000000 0.000000 
#    y 0.000000 1.624860 0.000000 
#    z 0.000000 0.000000 1.602250 
# 
# From -- ./inp_files/13834.got.cif
#   From: 2010.05.17/outbox.cif.g08.bks.cpg/sg139_7_cif.got.tgz:13834.got - 2010.05.20 13:14:44.
