data_PCOD9571332
_publ_section_title
;
Structure prediction by ZEFSAII (Michael W. Deem and Ramdas Pophale) SiO2 
 PCOD9571332
Probable space group: I 4/M M M
;
_chemical_formula_sum "Si O2"
_cell_formula_units_Z 160
_cell_length_a 31.068702
_cell_length_b 31.068702
_cell_length_c 7.414249
_cell_angle_alpha 90.000000
_cell_angle_beta 90.000000
_cell_angle_gamma 90.000000
_cell_volume 7156.709456
_symmetry_space_group_name_H-M "I 4/M M M"
_symmetry_group_IT_number 139
_symmetry_cell_setting 'tetragonal'
loop_
_space_group_symop_operation_xyz
x,y,z
-y,x,z
-x,-y,z
y,-x,z
x,-y,-z
-x,y,-z
y,x,-z
-y,-x,-z
-x,-y,-z
y,-x,-z
x,y,-z
-y,x,-z
-x,y,z
x,-y,z
-y,-x,z
y,x,z
1/2+x,1/2+y,1/2+z
1/2-y,1/2+x,1/2+z
1/2-x,1/2-y,1/2+z
1/2+y,1/2-x,1/2+z
1/2+x,1/2-y,1/2-z
1/2-x,1/2+y,1/2-z
1/2+y,1/2+x,1/2-z
1/2-y,1/2-x,1/2-z
1/2-x,1/2-y,1/2-z
1/2+y,1/2-x,1/2-z
1/2+x,1/2+y,1/2-z
1/2-y,1/2+x,1/2-z
1/2-x,1/2+y,1/2+z
1/2+x,1/2-y,1/2+z
1/2-y,1/2-x,1/2+z
1/2+y,1/2+x,1/2+z
loop_
_atom_site_type_symbol
_atom_site_label
_atom_site_fract_x
_atom_site_fract_y
_atom_site_fract_z
Si Si1 0.000000 0.226320 0.719889
Si Si2 0.000000 0.872673 0.279987
Si Si3 0.264207 0.834624 0.715220
Si Si4 0.094213 0.905788 0.720249
Si Si5 0.291545 0.926571 0.720655
Si Si6 0.115832 0.454301 0.215003
Si Si7 0.665587 0.334414 0.779463
O O1 0.000000 0.177111 0.777550
O O2 0.042673 0.252323 0.775844
O O3 0.000000 0.226115 0.500000
O O4 0.045484 0.893703 0.223962
O O5 0.000000 0.873663 0.500000
O O6 0.261415 0.836452 0.500000
O O7 0.290789 0.790789 0.750000
O O8 0.288901 0.877120 0.779438
O O9 0.215143 0.840980 0.778753
O O10 0.094973 0.905027 0.500000
O O11 0.130087 0.869914 0.777592
O O12 0.291098 0.926621 0.500000
O O13 0.336249 0.946384 0.783565
O O14 0.098694 0.500000 0.282331
O O15 0.084739 0.415262 0.250000
O O16 0.119765 0.456784 0.000000
O O17 0.664443 0.335558 0.000000
#
# Coordination Sequence:
#
# PCOD9571332 Si02
#       7
#    16  16  32  16  32  32  16
#     4   9  14  24  43  64  83 112 157 201 235 272
#     4   9  16  23  36  57  86 124 162 198 235 276
#     4  10  19  30  46  68  94 126 158 195 240 285
#     4   9  16  26  37  57  88 123 162 201 239 279
#     4   9  16  28  46  67  89 114 151 197 239 275
#     4  10  20  34  50  68  90 115 147 190 234 279
#     4   9  17  29  43  62  91 121 156 199 237 276
#
# _framework density 22.356642000000001
#
# number of rings (size 3 to 8) (size 9 to 14) (size 15 to 20)
#    0.000    2.600    1.000    2.100    0.000    5.600 
#    0.000    2.000    0.000    0.000    0.000    0.000 
#    0.000    0.000    0.000    2.900    0.000    3.000 
#
# Total GULP energy -446488.777669 kJ/mol
# GULP energy per Si atom -5581.109721 kJ/mol
# Density = 2.230576 g / cm^3
# Si number density = 22.356642 Si / 1000 Ang^3
#
#
#
# Elastic Constant Matrix: (Units=GPa)
#
#
# Indices 1 2 3 4 5 6 
#
# 1 184.5074 111.4439 4.0376 0.0000 0.0000 0.0000
# 2 111.4439 184.5251 4.0367 0.0000 0.0000 0.0000
# 3 4.0376 4.0367 70.0327 0.0000 0.0000 0.0000
# 4 0.0000 0.0000 0.0000 -0.8120 0.0000 0.0000
# 5 0.0000 0.0000 0.0000 0.0000 -0.8152 0.0000
# 6 0.0000 0.0000 0.0000 0.0000 0.0000 44.3837
#
#
#
# Elastic Compliance Matrix: (Units=1/GPa)
#
#
# Indices 1 2 3 4 5 6 
#
# 1 0.008535 -0.005150 -0.000195 0.000000 0.000000 0.000000
# 2 -0.005150 0.008534 -0.000195 0.000000 0.000000 0.000000
# 3 -0.000195 -0.000195 0.014302 0.000000 0.000000 0.000000
# 4 0.000000 0.000000 0.000000 -1.231581 0.000000 0.000000
# 5 0.000000 0.000000 0.000000 0.000000 -1.226686 0.000000
# 6 0.000000 0.000000 0.000000 0.000000 0.000000 0.022531
#
#
# Mechanical properties :
#
#
# Convention : Reuss Voigt Hill
#
# Bulk Modulus (GPa) = 49.28655 75.34461 62.31558
# Shear Modulus (GPa) = -2.09510 29.85445 13.87967
#
# Velocity S-wave (km/s) = -0.96910 3.65824 2.49435
# Velocity P-wave (km/s) = 4.56522 7.18457 6.01910
#
# Compressibility (1/GPa) = 0.02028951
#
# Stress axis : x y z
#
# Youngs Moduli (GPa) = 117.16427 117.17564 69.92253
#
# Poissons Ratio (x) = 0.60351 0.01365
# Poissons Ratio (y) = 0.60345 0.01363
# Poissons Ratio (z) = 0.02287 0.02285
#
# Static dielectric constant tensor:
#      x y z
#    x 1.816740 0.000000 0.000000 
#    y 0.000000 1.816750 0.000000 
#    z 0.000000 0.000000 2.406620 
# 
# From -- ./inp_files/3990.got.cif
#   From: 2010.05.17/outbox.cif.g08.bks.cpg/sg139_2_cif.got.tgz:3990.got - 2010.05.20 13:14:44.
