data_PCOD9571419
_publ_section_title
;
Structure prediction by ZEFSAII (Michael W. Deem and Ramdas Pophale) SiO2 
 PCOD9571419
Probable space group: I 4/M M M
;
_chemical_formula_sum "Si O2"
_cell_formula_units_Z 176
_cell_length_a 17.994343
_cell_length_b 17.994343
_cell_length_c 32.705128
_cell_angle_alpha 90.000000
_cell_angle_beta 90.000000
_cell_angle_gamma 90.000000
_cell_volume 10589.802054
_symmetry_space_group_name_H-M "I 4/M M M"
_symmetry_group_IT_number 139
_symmetry_cell_setting 'tetragonal'
loop_
_space_group_symop_operation_xyz
x,y,z
-y,x,z
-x,-y,z
y,-x,z
x,-y,-z
-x,y,-z
y,x,-z
-y,-x,-z
-x,-y,-z
y,-x,-z
x,y,-z
-y,x,-z
-x,y,z
x,-y,z
-y,-x,z
y,x,z
1/2+x,1/2+y,1/2+z
1/2-y,1/2+x,1/2+z
1/2-x,1/2-y,1/2+z
1/2+y,1/2-x,1/2+z
1/2+x,1/2-y,1/2-z
1/2-x,1/2+y,1/2-z
1/2+y,1/2+x,1/2-z
1/2-y,1/2-x,1/2-z
1/2-x,1/2-y,1/2-z
1/2+y,1/2-x,1/2-z
1/2+x,1/2+y,1/2-z
1/2-y,1/2+x,1/2-z
1/2-x,1/2+y,1/2+z
1/2+x,1/2-y,1/2+z
1/2-y,1/2-x,1/2+z
1/2+y,1/2+x,1/2+z
loop_
_atom_site_type_symbol
_atom_site_label
_atom_site_fract_x
_atom_site_fract_y
_atom_site_fract_z
Si Si1 0.181231 0.300541 0.611326
Si Si2 0.085073 0.201995 0.877549
Si Si3 0.416014 0.914260 0.661505
Si Si4 0.790945 0.913267 0.779558
Si Si5 0.129677 0.629677 0.250000
Si Si6 0.586648 0.292915 0.951830
O O1 0.233146 0.233146 0.628846
O O2 0.240661 0.363105 0.598306
O O3 0.128803 0.347033 0.641507
O O4 0.132064 0.265201 0.575622
O O5 0.120925 0.120925 0.881932
O O6 0.092072 0.221290 0.828874
O O7 0.000000 0.205128 0.889146
O O8 0.500000 0.884793 0.652068
O O9 0.403276 0.908410 0.709848
O O10 0.414162 0.000000 0.648615
O O11 0.860221 0.860221 0.769706
O O12 0.717040 0.886139 0.756577
O O13 0.804602 0.000000 0.770486
O O14 0.500000 0.295598 0.940603
O O15 0.628127 0.371874 0.946186
O O16 0.592033 0.274370 0.000000
#
# Coordination Sequence:
#
# PCOD9571419 Si02
#       6
#    32  32  32  32  16  32
#     4  10  19  32  51  74 100 131 165 203 248 302
#     4   9  17  30  48  71  97 126 161 201 248 299
#     4  11  22  34  49  69  96 131 170 214 260 302
#     4  10  20  33  50  70  94 124 159 205 256 306
#     4  12  21  33  48  70 100 129 171 216 256 304
#     4   9  18  33  54  80 108 136 167 204 245 292
#
# _framework density 16.619762000000001
#
# number of rings (size 3 to 8) (size 9 to 14) (size 15 to 20)
#    0.000    2.000    1.818    3.000    0.000    2.000 
#    0.000    2.727    0.000    2.182    0.000    6.364 
#    0.000    4.364    0.000    7.091    0.000    0.182 
#
# Total GULP energy -490375.464794 kJ/mol
# GULP energy per Si atom -5572.448464 kJ/mol
# Density = 1.658194 g / cm^3
# Si number density = 16.619762 Si / 1000 Ang^3
#
#
#
# Elastic Constant Matrix: (Units=GPa)
#
#
# Indices 1 2 3 4 5 6 
#
# 1 130.1870 70.5046 36.4140 0.0000 0.0000 0.0000
# 2 70.5046 130.1870 36.4140 0.0000 0.0000 0.0000
# 3 36.4140 36.4140 36.7943 0.0000 0.0000 0.0000
# 4 0.0000 0.0000 0.0000 21.4095 0.0000 0.0000
# 5 0.0000 0.0000 0.0000 0.0000 21.4095 0.0000
# 6 0.0000 0.0000 0.0000 0.0000 0.0000 24.9088
#
#
#
# Elastic Compliance Matrix: (Units=1/GPa)
#
#
# Indices 1 2 3 4 5 6 
#
# 1 0.012265 -0.004490 -0.007695 0.000000 0.000000 0.000000
# 2 -0.004490 0.012265 -0.007695 0.000000 0.000000 0.000000
# 3 -0.007695 -0.007695 0.042408 0.000000 0.000000 0.000000
# 4 0.000000 0.000000 0.000000 0.046708 0.000000 0.000000
# 5 0.000000 0.000000 0.000000 0.000000 0.046708 0.000000
# 6 0.000000 0.000000 0.000000 0.000000 0.000000 0.040146
#
#
# Mechanical properties :
#
#
# Convention : Reuss Voigt Hill
#
# Bulk Modulus (GPa) = 36.79207 64.87037 50.83122
# Shear Modulus (GPa) = 20.05451 23.80129 21.92790
#
# Velocity S-wave (km/s) = 3.47748 3.78843 3.63628
# Velocity P-wave (km/s) = 6.18946 7.63237 6.94847
#
# Compressibility (1/GPa) = 0.02717977
#
# Stress axis : x y z
#
# Youngs Moduli (GPa) = 81.53148 81.53148 23.58025
#
# Poissons Ratio (x) = 0.36609 0.18144
# Poissons Ratio (y) = 0.36609 0.18144
# Poissons Ratio (z) = 0.62736 0.62736
#
# Static dielectric constant tensor:
#      x y z
#    x 1.581170 0.000000 0.000000 
#    y 0.000000 1.581170 0.000000 
#    z 0.000000 0.000000 1.538570 
# 
# From -- ./inp_files/13096.got.cif
#   From: 2010.05.17/outbox.cif.g08.bks.cpg/sg139_7_cif.got.tgz:13096.got - 2010.05.20 13:14:44.
