data_PCOD9571926
_publ_section_title
;
Structure prediction by ZEFSAII (Michael W. Deem and Ramdas Pophale) SiO2 
 PCOD9571926
Probable space group: I 4/M M M
;
_chemical_formula_sum "Si O2"
_cell_formula_units_Z 160
_cell_length_a 33.148953
_cell_length_b 33.148953
_cell_length_c 8.624644
_cell_angle_alpha 90.000000
_cell_angle_beta 90.000000
_cell_angle_gamma 90.000000
_cell_volume 9477.216666
_symmetry_space_group_name_H-M "I 4/M M M"
_symmetry_group_IT_number 139
_symmetry_cell_setting 'tetragonal'
loop_
_space_group_symop_operation_xyz
x,y,z
-y,x,z
-x,-y,z
y,-x,z
x,-y,-z
-x,y,-z
y,x,-z
-y,-x,-z
-x,-y,-z
y,-x,-z
x,y,-z
-y,x,-z
-x,y,z
x,-y,z
-y,-x,z
y,x,z
1/2+x,1/2+y,1/2+z
1/2-y,1/2+x,1/2+z
1/2-x,1/2-y,1/2+z
1/2+y,1/2-x,1/2+z
1/2+x,1/2-y,1/2-z
1/2-x,1/2+y,1/2-z
1/2+y,1/2+x,1/2-z
1/2-y,1/2-x,1/2-z
1/2-x,1/2-y,1/2-z
1/2+y,1/2-x,1/2-z
1/2+x,1/2+y,1/2-z
1/2-y,1/2+x,1/2-z
1/2-x,1/2+y,1/2+z
1/2+x,1/2-y,1/2+z
1/2-y,1/2-x,1/2+z
1/2+y,1/2+x,1/2+z
loop_
_atom_site_type_symbol
_atom_site_label
_atom_site_fract_x
_atom_site_fract_y
_atom_site_fract_z
Si Si1 0.260088 0.912731 0.811391
Si Si2 0.000000 0.647237 0.824776
Si Si3 0.755283 0.500000 0.325793
Si Si4 0.913194 0.650390 0.315621
Si Si5 0.387305 0.453362 0.187309
Si Si6 0.390035 0.325257 0.312997
O O1 0.414659 0.764194 0.500000
O O2 0.246199 0.957187 0.752957
O O3 0.304168 0.904372 0.744833
O O4 0.221719 0.885710 0.770516
O O5 0.041976 0.637643 0.741069
O O6 0.000000 0.696024 0.835778
O O7 0.000000 0.631114 0.000000
O O8 0.737889 0.500000 0.500000
O O9 0.912350 0.650506 0.500000
O O10 0.880390 0.619611 0.250000
O O11 0.389036 0.500000 0.239186
O O12 0.426245 0.426245 0.234633
O O13 0.348187 0.429366 0.248178
O O14 0.386229 0.453343 0.000000
O O15 0.392946 0.326578 0.500000
O O16 0.352070 0.352070 0.263054
#
# Coordination Sequence:
#
# PCOD9571926 Si02
#       6
#    32  16  16  32  32  32
#     4   9  17  30  48  70  98 131 166 205 253 305
#     4   9  17  33  53  76 108 141 171 204 246 289
#     4   7  12  23  41  65  90 120 154 190 239 294
#     4  11  21  34  54  81 110 140 174 210 249 293
#     4   9  18  31  45  63  89 123 164 211 260 310
#     4   9  18  31  48  70  95 126 163 204 256 316
#
# _framework density 16.882594999999998
#
# number of rings (size 3 to 8) (size 9 to 14) (size 15 to 20)
#    0.000    2.800    0.000    3.300    1.400    1.400 
#    0.000    1.000    0.000    0.900    0.000    4.900 
#    0.000    0.000    0.000    0.000    0.000    0.000 
#
# Total GULP energy -445363.950961 kJ/mol
# GULP energy per Si atom -5567.049387 kJ/mol
# Density = 1.684417 g / cm^3
# Si number density = 16.882595 Si / 1000 Ang^3
#
#
#
# Elastic Constant Matrix: (Units=GPa)
#
#
# Indices 1 2 3 4 5 6 
#
# 1 122.3903 74.5162 40.2540 0.0000 0.0000 0.0000
# 2 74.5162 122.3893 40.2544 0.0000 0.0000 0.0000
# 3 40.2540 40.2544 58.1011 0.0000 0.0000 0.0000
# 4 0.0000 0.0000 0.0000 20.7750 0.0000 0.0000
# 5 0.0000 0.0000 0.0000 0.0000 20.7748 0.0000
# 6 0.0000 0.0000 0.0000 0.0000 0.0000 14.7059
#
#
#
# Elastic Compliance Matrix: (Units=1/GPa)
#
#
# Indices 1 2 3 4 5 6 
#
# 1 0.013987 -0.006901 -0.004909 0.000000 0.000000 0.000000
# 2 -0.006901 0.013987 -0.004909 0.000000 0.000000 0.000000
# 3 -0.004909 -0.004909 0.024014 0.000000 0.000000 0.000000
# 4 0.000000 0.000000 0.000000 0.048135 0.000000 0.000000
# 5 0.000000 0.000000 0.000000 0.000000 0.048135 0.000000
# 6 0.000000 0.000000 0.000000 0.000000 0.000000 0.068000
#
#
# Mechanical properties :
#
#
# Convention : Reuss Voigt Hill
#
# Bulk Modulus (GPa) = 53.91270 68.10333 61.00801
# Shear Modulus (GPa) = 19.54036 21.10820 20.32428
#
# Velocity S-wave (km/s) = 3.40579 3.53979 3.47343
# Velocity P-wave (km/s) = 6.88978 7.55869 7.23197
#
# Compressibility (1/GPa) = 0.01854851
#
# Stress axis : x y z
#
# Youngs Moduli (GPa) = 71.49519 71.49394 41.64253
#
# Poissons Ratio (x) = 0.49340 0.20443
# Poissons Ratio (y) = 0.49341 0.20444
# Poissons Ratio (z) = 0.35098 0.35099
#
# Static dielectric constant tensor:
#      x y z
#    x 1.578300 0.000000 0.000000 
#    y 0.000000 1.578300 0.000000 
#    z 0.000000 0.000000 1.584580 
# 
# From -- ./inp_files/2238.got.cif
#   From: 2010.05.17/outbox.cif.g08.bks.cpg/sg139_2_cif.got.tgz:2238.got - 2010.05.20 13:14:44.
