data_PCOD9571927
_publ_section_title
;
Structure prediction by ZEFSAII (Michael W. Deem and Ramdas Pophale) SiO2 
 PCOD9571927
Probable space group: I 4/M M M
;
_chemical_formula_sum "Si O2"
_cell_formula_units_Z 168
_cell_length_a 23.191431
_cell_length_b 23.191431
_cell_length_c 17.567734
_cell_angle_alpha 90.000000
_cell_angle_beta 90.000000
_cell_angle_gamma 90.000000
_cell_volume 9448.673479
_symmetry_space_group_name_H-M "I 4/M M M"
_symmetry_group_IT_number 139
_symmetry_cell_setting 'tetragonal'
loop_
_space_group_symop_operation_xyz
x,y,z
-y,x,z
-x,-y,z
y,-x,z
x,-y,-z
-x,y,-z
y,x,-z
-y,-x,-z
-x,-y,-z
y,-x,-z
x,y,-z
-y,x,-z
-x,y,z
x,-y,z
-y,-x,z
y,x,z
1/2+x,1/2+y,1/2+z
1/2-y,1/2+x,1/2+z
1/2-x,1/2-y,1/2+z
1/2+y,1/2-x,1/2+z
1/2+x,1/2-y,1/2-z
1/2-x,1/2+y,1/2-z
1/2+y,1/2+x,1/2-z
1/2-y,1/2-x,1/2-z
1/2-x,1/2-y,1/2-z
1/2+y,1/2-x,1/2-z
1/2+x,1/2+y,1/2-z
1/2-y,1/2+x,1/2-z
1/2-x,1/2+y,1/2+z
1/2+x,1/2-y,1/2+z
1/2-y,1/2-x,1/2+z
1/2+y,1/2+x,1/2+z
loop_
_atom_site_type_symbol
_atom_site_label
_atom_site_fract_x
_atom_site_fract_y
_atom_site_fract_z
Si Si1 0.500000 0.308446 0.087244
Si Si2 0.691922 0.598967 0.205590
Si Si3 0.172615 0.386399 0.180730
Si Si4 0.102045 0.102045 0.000000
Si Si5 0.307735 0.563532 0.625938
Si Si6 0.675196 0.768219 0.590472
Si Si7 0.168542 0.500000 0.912514
O O1 0.556341 0.324231 0.136489
O O2 0.500000 0.238527 0.084179
O O3 0.500000 0.329416 0.000000
O O4 0.659956 0.659956 0.195975
O O5 0.761438 0.603615 0.208214
O O6 0.673567 0.572780 0.286736
O O7 0.131137 0.368864 0.250000
O O8 0.176050 0.330451 0.127327
O O9 0.152798 0.442449 0.133970
O O10 0.140476 0.070125 0.933252
O O11 0.281316 0.500000 0.618880
O O12 0.264212 0.615374 0.606906
O O13 0.681710 0.772906 0.500000
O O14 0.726391 0.726391 0.619574
O O15 0.147738 0.500000 0.000000
#
# Coordination Sequence:
#
# PCOD9571927 Si02
#       7
#    16  32  32   8  32  32  16
#     4   9  20  38  58  82 116 156 204 250 297 352
#     4  11  21  36  57  87 118 154 195 250 302 364
#     4  11  22  34  59  89 119 154 195 243 299 361
#     4  12  22  40  56  87 122 158 204 248 300 368
#     4  12  22  36  59  86 118 161 201 246 302 360
#     4  11  21  36  54  85 121 156 193 244 303 365
#     4   9  20  40  58  83 120 158 191 238 292 353
#
# _framework density 17.780273999999999
#
# number of rings (size 3 to 8) (size 9 to 14) (size 15 to 20)
#    0.000    1.143    5.714    1.429    0.000    1.905 
#    0.000    0.000    0.000    2.857    0.000    1.333 
#    0.000    0.000    0.000    0.000    0.000    0.000 
#
# Total GULP energy -467669.499540 kJ/mol
# GULP energy per Si atom -5567.494042 kJ/mol
# Density = 1.773981 g / cm^3
# Si number density = 17.780274 Si / 1000 Ang^3
#
#
#
# Elastic Constant Matrix: (Units=GPa)
#
#
# Indices 1 2 3 4 5 6 
#
# 1 39.9617 88.7077 48.3867 0.0000 0.0000 0.0000
# 2 88.7077 39.9596 48.3860 0.0000 0.0000 0.0000
# 3 48.3867 48.3860 157.1547 0.0000 0.0000 0.0000
# 4 0.0000 0.0000 0.0000 20.6506 0.0000 0.0000
# 5 0.0000 0.0000 0.0000 0.0000 20.6506 0.0000
# 6 0.0000 0.0000 0.0000 0.0000 0.0000 8.4745
#
#
#
# Elastic Compliance Matrix: (Units=1/GPa)
#
#
# Indices 1 2 3 4 5 6 
#
# 1 -0.005200 0.015314 -0.003114 0.000000 0.000000 0.000000
# 2 0.015314 -0.005200 -0.003114 0.000000 0.000000 0.000000
# 3 -0.003114 -0.003114 0.008281 0.000000 0.000000 0.000000
# 4 0.000000 0.000000 0.000000 0.048425 0.000000 0.000000
# 5 0.000000 0.000000 0.000000 0.000000 0.048425 0.000000
# 6 0.000000 0.000000 0.000000 0.000000 0.000000 0.118001
#
#
# Mechanical properties :
#
#
# Convention : Reuss Voigt Hill
#
# Bulk Modulus (GPa) = 62.29489 67.55965 64.92727
# Shear Modulus (GPa) = 25.01132 13.39486 19.20309
#
# Velocity S-wave (km/s) = 3.75465 2.74771 3.28993
# Velocity P-wave (km/s) = 7.34225 6.93873 7.14334
#
# Compressibility (1/GPa) = 0.01605268
#
# Stress axis : x y z
#
# Youngs Moduli (GPa) = -192.31284 -192.29959 120.76290
#
# Poissons Ratio (x) = 2.94488 0.37606
# Poissons Ratio (y) = 2.94508 0.37605
# Poissons Ratio (z) = -0.59886 -0.59882
#
# Static dielectric constant tensor:
#      x y z
#    x 1.617380 0.000000 0.000000 
#    y 0.000000 1.617370 0.000000 
#    z 0.000000 0.000000 1.628170 
# 
# From -- ./inp_files/6188.got.cif
#   From: 2010.05.17/outbox.cif.g08.bks.cpg/sg139_4_cif.got.tgz:6188.got - 2010.05.20 13:14:44.
