data_PCOD9571030
_publ_section_title
;
Structure prediction by ZEFSAII (Michael W. Deem and Ramdas Pophale) SiO2 
 PCOD9571030
Probable space group: P 42/N C M
;
_chemical_formula_sum "Si O2"
_cell_formula_units_Z 52
_cell_length_a 16.861340
_cell_length_b 16.861340
_cell_length_c 8.931842
_cell_angle_alpha 90.000000
_cell_angle_beta 90.000000
_cell_angle_gamma 90.000000
_cell_volume 2539.365434
_symmetry_space_group_name_H-M "P 42/N C M"
_symmetry_group_IT_number 138
_space_group.IT_coordinate_system_code '2'
_symmetry_cell_setting 'tetragonal'
loop_
_space_group_symop_operation_xyz
x,y,z
1/2-y,x,1/2+z
1/2-x,1/2-y,z
y,1/2-x,1/2+z
1/2+x,-y,1/2-z
-x,1/2+y,1/2-z
1/2+y,1/2+x,-z
-y,-x,-z
-x,-y,-z
1/2+y,-x,1/2-z
1/2+x,1/2+y,-z
-y,1/2+x,1/2-z
1/2-x,y,1/2+z
x,1/2-y,1/2+z
1/2-y,1/2-x,z
y,x,z
loop_
_atom_site_type_symbol
_atom_site_label
_atom_site_fract_x
_atom_site_fract_y
_atom_site_fract_z
Si Si1 0.676045 0.386458 0.204393
Si Si2 0.750000 0.250000 0.500000
Si Si3 0.252812 0.986664 0.035978
Si Si4 0.510276 0.638578 0.728697
O O1 0.730674 0.321411 0.118374
O O2 0.711750 0.414883 0.362389
O O3 0.583505 0.370356 0.232650
O O4 0.688605 0.457536 0.086105
O O5 0.205324 0.039704 0.153946
O O6 0.325037 0.018290 0.937004
O O7 0.558008 0.558008 0.743832
#
# Coordination Sequence:
#
# PCOD9571030 Si02
#       4
#    16   4  16  16
#     4  11  24  36  60  96 139 188 223 267 334 408
#     4  12  24  34  56  92 144 192 214 270 310 422
#     4  10  24  40  58  96 128 173 229 282 335 404
#     4  11  24  45  67  94 135 180 233 289 347 411
#
# _framework density 20.477557000000001
#
# number of rings (size 3 to 8) (size 9 to 14) (size 15 to 20)
#    0.000    1.231    3.077    0.923    8.615    8.615 
#    0.000    6.154    0.000    2.769    0.000    0.000 
#    0.000    0.000    0.000    0.000    0.000    0.000 
#
# Total GULP energy -289728.425105 kJ/mol
# GULP energy per Si atom -5571.700483 kJ/mol
# Density = 2.043095 g / cm^3
# Si number density = 20.477557 Si / 1000 Ang^3
#
#
#
# Elastic Constant Matrix: (Units=GPa)
#
#
# Indices 1 2 3 4 5 6 
#
# 1 76.3330 57.0579 33.2785 0.0000 0.0000 0.0000
# 2 57.0579 76.3330 33.2785 0.0000 0.0000 0.0000
# 3 33.2785 33.2785 150.4147 0.0000 0.0000 0.0000
# 4 0.0000 0.0000 0.0000 9.4570 0.0000 0.0000
# 5 0.0000 0.0000 0.0000 0.0000 9.4570 0.0000
# 6 0.0000 0.0000 0.0000 0.0000 0.0000 35.1453
#
#
#
# Elastic Compliance Matrix: (Units=1/GPa)
#
#
# Indices 1 2 3 4 5 6 
#
# 1 0.030154 -0.021727 -0.001864 0.000000 0.000000 0.000000
# 2 -0.021727 0.030154 -0.001864 0.000000 0.000000 0.000000
# 3 -0.001864 -0.001864 0.007473 0.000000 0.000000 0.000000
# 4 0.000000 0.000000 0.000000 0.105742 0.000000 0.000000
# 5 0.000000 0.000000 0.000000 0.000000 0.105742 0.000000
# 6 0.000000 0.000000 0.000000 0.000000 0.000000 0.028453
#
#
# Mechanical properties :
#
#
# Convention : Reuss Voigt Hill
#
# Bulk Modulus (GPa) = 59.27816 61.14558 60.21187
# Shear Modulus (GPa) = 13.72674 22.77624 18.25149
#
# Velocity S-wave (km/s) = 2.59188 3.33867 2.98869
# Velocity P-wave (km/s) = 6.16181 6.69230 6.43252
#
# Compressibility (1/GPa) = 0.01686962
#
# Stress axis : x y z
#
# Youngs Moduli (GPa) = 33.16337 33.16337 133.81002
#
# Poissons Ratio (x) = 0.72053 0.24948
# Poissons Ratio (y) = 0.72053 0.24948
# Poissons Ratio (z) = 0.06183 0.06183
#
# Static dielectric constant tensor:
#      x y z
#    x 1.774490 0.000000 0.000000 
#    y 0.000000 1.774490 0.000000 
#    z 0.000000 0.000000 1.812240 
# 
# From -- ./inp_files/1089.got.cif
#   From: 2010.05.17/outbox.cif.g08.bks.cpg/sg138_1_cif.got.tgz:1089.got - 2010.05.20 13:08:53.
