data_PCOD9571054
_publ_section_title
;
Structure prediction by ZEFSAII (Michael W. Deem and Ramdas Pophale) SiO2 
 PCOD9571054
Probable space group: P 42/N C M
;
_chemical_formula_sum "Si O2"
_cell_formula_units_Z 88
_cell_length_a 11.149877
_cell_length_b 11.149877
_cell_length_c 32.148698
_cell_angle_alpha 90.000000
_cell_angle_beta 90.000000
_cell_angle_gamma 90.000000
_cell_volume 3996.718327
_symmetry_space_group_name_H-M "P 42/N C M"
_symmetry_group_IT_number 138
_space_group.IT_coordinate_system_code '2'
_symmetry_cell_setting 'tetragonal'
loop_
_space_group_symop_operation_xyz
x,y,z
1/2-y,x,1/2+z
1/2-x,1/2-y,z
y,1/2-x,1/2+z
1/2+x,-y,1/2-z
-x,1/2+y,1/2-z
1/2+y,1/2+x,-z
-y,-x,-z
-x,-y,-z
1/2+y,-x,1/2-z
1/2+x,1/2+y,-z
-y,1/2+x,1/2-z
1/2-x,y,1/2+z
x,1/2-y,1/2+z
1/2-y,1/2-x,z
y,x,z
loop_
_atom_site_type_symbol
_atom_site_label
_atom_site_fract_x
_atom_site_fract_y
_atom_site_fract_z
Si Si1 0.398374 0.101627 0.499592
Si Si2 0.950753 0.218165 0.246748
Si Si3 0.151235 0.348766 0.594945
Si Si4 0.866064 0.866064 0.681740
Si Si5 0.445584 0.771950 0.345637
Si Si6 0.832181 0.033440 0.535902
Si Si7 0.217672 0.571507 0.869982
O O1 0.367666 0.132335 0.546739
O O2 0.452571 0.220790 0.478944
O O3 0.500000 0.000000 0.500000
O O4 0.845843 0.117625 0.249762
O O5 0.000099 0.211490 0.199861
O O6 0.048724 0.197278 0.282010
O O7 0.250000 0.250000 0.602113
O O8 0.195426 0.467529 0.617399
O O9 0.936553 0.787817 0.645580
O O10 0.398749 0.636335 0.350178
O O11 0.330940 0.858018 0.351781
O O12 0.871848 0.128153 0.500000
O O13 0.794438 0.086958 0.580485
O O14 0.947491 0.947491 0.542628
#
# Coordination Sequence:
#
# PCOD9571054 Si02
#       7
#     8  16   8   8  16  16  16
#     4  12  26  47  68 100 145 188 232 295 360 427
#     4  11  20  38  62  91 127 172 226 279 354 418
#     4  12  27  43  70  99 140 182 228 287 361 425
#     4  12  21  36  67  92 124 175 231 290 340 427
#     4  11  23  43  64  99 137 178 231 288 357 427
#     4  11  24  42  69 101 136 180 238 296 358 425
#     4  11  22  40  69  97 128 179 237 293 351 428
#
# _framework density 22.018066000000001
#
# number of rings (size 3 to 8) (size 9 to 14) (size 15 to 20)
#    0.000    0.727    4.545    4.636    1.273    3.273 
#    0.000    0.000    0.000    2.182    0.000    0.000 
#    0.000    0.000    0.000    0.000    0.000    0.000 
#
# Total GULP energy -490281.206833 kJ/mol
# GULP energy per Si atom -5571.377350 kJ/mol
# Density = 2.196795 g / cm^3
# Si number density = 22.018066 Si / 1000 Ang^3
#
#
#
# Elastic Constant Matrix: (Units=GPa)
#
#
# Indices 1 2 3 4 5 6 
#
# 1 13.3400 30.8238 1.2732 0.0000 0.0000 0.0000
# 2 30.8238 13.3376 1.2732 0.0000 0.0000 0.0000
# 3 1.2732 1.2732 154.5790 0.0000 0.0000 0.0000
# 4 0.0000 0.0000 0.0000 4.1732 0.0000 0.0000
# 5 0.0000 0.0000 0.0000 0.0000 4.1737 0.0000
# 6 0.0000 0.0000 0.0000 0.0000 0.0000 29.7387
#
#
#
# Elastic Compliance Matrix: (Units=1/GPa)
#
#
# Indices 1 2 3 4 5 6 
#
# 1 -0.017267 0.039923 -0.000187 0.000000 0.000000 0.000000
# 2 0.039923 -0.017270 -0.000187 0.000000 0.000000 0.000000
# 3 -0.000187 -0.000187 0.006472 0.000000 0.000000 0.000000
# 4 0.000000 0.000000 0.000000 0.239625 0.000000 0.000000
# 5 0.000000 0.000000 0.000000 0.000000 0.239594 0.000000
# 6 0.000000 0.000000 0.000000 0.000000 0.000000 0.033626
#
#
# Mechanical properties :
#
#
# Convention : Reuss Voigt Hill
#
# Bulk Modulus (GPa) = 19.59455 27.55524 23.57489
# Shear Modulus (GPa) = 11.82895 17.47621 14.65258
#
# Velocity S-wave (km/s) = 2.32035 2.82036 2.58249
# Velocity P-wave (km/s) = 4.01215 4.81123 4.42974
#
# Compressibility (1/GPa) = 0.05103460
#
# Stress axis : x y z
#
# Youngs Moduli (GPa) = -57.91348 -57.90310 154.50563
#
# Poissons Ratio (x) = 2.31167 0.02883
# Poissons Ratio (y) = 2.31208 0.02883
# Poissons Ratio (z) = -0.01081 -0.01080
#
# Static dielectric constant tensor:
#      x y z
#    x 1.960440 0.000000 0.000000 
#    y 0.000000 1.960430 0.000000 
#    z 0.000000 0.000000 1.772630 
# 
# From -- ./inp_files/8141.got.cif
#   From: 2010.05.17/outbox.cif.g08.bks.cpg/sg138_5_cif.got.tgz:8141.got - 2010.05.20 13:08:53.
