data_PCOD9571532
_publ_section_title
;
Structure prediction by ZEFSAII (Michael W. Deem and Ramdas Pophale) SiO2 
 PCOD9571532
Probable space group: I 4/M M M
;
_chemical_formula_sum "Si O2"
_cell_formula_units_Z 160
_cell_length_a 18.639363
_cell_length_b 18.639363
_cell_length_c 27.783020
_cell_angle_alpha 90.000000
_cell_angle_beta 90.000000
_cell_angle_gamma 90.000000
_cell_volume 9652.539424
_symmetry_space_group_name_H-M "I 4/M M M"
_symmetry_group_IT_number 139
_symmetry_cell_setting 'tetragonal'
loop_
_space_group_symop_operation_xyz
x,y,z
-y,x,z
-x,-y,z
y,-x,z
x,-y,-z
-x,y,-z
y,x,-z
-y,-x,-z
-x,-y,-z
y,-x,-z
x,y,-z
-y,x,-z
-x,y,z
x,-y,z
-y,-x,z
y,x,z
1/2+x,1/2+y,1/2+z
1/2-y,1/2+x,1/2+z
1/2-x,1/2-y,1/2+z
1/2+y,1/2-x,1/2+z
1/2+x,1/2-y,1/2-z
1/2-x,1/2+y,1/2-z
1/2+y,1/2+x,1/2-z
1/2-y,1/2-x,1/2-z
1/2-x,1/2-y,1/2-z
1/2+y,1/2-x,1/2-z
1/2+x,1/2+y,1/2-z
1/2-y,1/2+x,1/2-z
1/2-x,1/2+y,1/2+z
1/2+x,1/2-y,1/2+z
1/2-y,1/2-x,1/2+z
1/2+y,1/2+x,1/2+z
loop_
_atom_site_type_symbol
_atom_site_label
_atom_site_fract_x
_atom_site_fract_y
_atom_site_fract_z
Si Si1 0.301358 0.417861 0.941384
Si Si2 0.082695 0.348178 0.294432
Si Si3 0.805030 0.682962 0.555018
Si Si4 0.796030 0.414976 0.357113
Si Si5 0.202726 0.915696 0.762985
O O1 0.303833 0.500000 0.924342
O O2 0.368641 0.368641 0.925309
O O3 0.228104 0.375764 0.929385
O O4 0.304091 0.418912 0.000000
O O5 0.098084 0.401917 0.250000
O O6 0.135264 0.374294 0.335545
O O7 0.099746 0.269213 0.273086
O O8 0.000000 0.349667 0.308349
O O9 0.815434 0.658151 0.500000
O O10 0.742431 0.742431 0.554881
O O11 0.783586 0.620715 0.591456
O O12 0.808636 0.500000 0.360131
O O13 0.734089 0.404185 0.316985
O O14 0.136847 0.863154 0.754085
O O15 0.184860 0.000000 0.758241
#
# Coordination Sequence:
#
# PCOD9571532 Si02
#       5
#    32  32  32  32  32
#     4   8  14  25  41  61  84 110 143 185 232 280
#     4   9  18  31  47  69  96 125 156 190 229 277
#     4   9  18  32  48  65  89 125 164 199 239 285
#     4  10  20  31  47  72  96 122 158 198 239 281
#     4   9  18  32  50  74 101 126 155 190 229 277
#
# _framework density 16.575949000000001
#
# number of rings (size 3 to 8) (size 9 to 14) (size 15 to 20)
#    0.000    3.000    0.000    3.600    0.000    7.400 
#    0.000    1.000    0.000    0.000    0.000    4.200 
#    0.000    3.200    0.000   18.800    0.000    0.000 
#
# Total GULP energy -445663.114256 kJ/mol
# GULP energy per Si atom -5570.788928 kJ/mol
# Density = 1.653822 g / cm^3
# Si number density = 16.575949 Si / 1000 Ang^3
#
#
#
# Elastic Constant Matrix: (Units=GPa)
#
#
# Indices 1 2 3 4 5 6 
#
# 1 70.2583 55.9777 14.9545 0.0000 0.0000 0.0000
# 2 55.9777 70.2556 14.9541 0.0000 0.0000 0.0000
# 3 14.9545 14.9541 28.9062 0.0000 0.0000 0.0000
# 4 0.0000 0.0000 0.0000 15.9645 0.0000 0.0000
# 5 0.0000 0.0000 0.0000 0.0000 15.9646 0.0000
# 6 0.0000 0.0000 0.0000 0.0000 0.0000 14.6734
#
#
#
# Elastic Compliance Matrix: (Units=1/GPa)
#
#
# Indices 1 2 3 4 5 6 
#
# 1 0.039529 -0.030502 -0.004671 0.000000 0.000000 0.000000
# 2 -0.030502 0.039531 -0.004671 0.000000 0.000000 0.000000
# 3 -0.004671 -0.004671 0.039427 0.000000 0.000000 0.000000
# 4 0.000000 0.000000 0.000000 0.062639 0.000000 0.000000
# 5 0.000000 0.000000 0.000000 0.000000 0.062639 0.000000
# 6 0.000000 0.000000 0.000000 0.000000 0.000000 0.068151
#
#
# Mechanical properties :
#
#
# Convention : Reuss Voigt Hill
#
# Bulk Modulus (GPa) = 25.77238 37.91031 31.84135
# Shear Modulus (GPa) = 12.35986 14.88942 13.62464
#
# Velocity S-wave (km/s) = 2.73362 3.00034 2.87008
# Velocity P-wave (km/s) = 5.05425 5.90957 5.49857
#
# Compressibility (1/GPa) = 0.03880122
#
# Stress axis : x y z
#
# Youngs Moduli (GPa) = 25.29775 25.29682 25.36304
#
# Poissons Ratio (x) = 0.77159 0.11847
# Poissons Ratio (y) = 0.77162 0.11846
# Poissons Ratio (z) = 0.11816 0.11815
#
# Static dielectric constant tensor:
#      x y z
#    x 1.547810 0.000000 0.000000 
#    y 0.000000 1.547820 0.000000 
#    z 0.000000 0.000000 1.582060 
# 
# From -- ./inp_files/12933.got.cif
#   From: 2010.05.17/outbox.cif.g08.bks.cpg/sg139_7_cif.got.tgz:12933.got - 2010.05.20 13:14:44.
