data_PCOD9571302
_publ_section_title
;
Structure prediction by ZEFSAII (Michael W. Deem and Ramdas Pophale) SiO2 
 PCOD9571302
Probable space group: I 4/M M M
;
_chemical_formula_sum "Si O2"
_cell_formula_units_Z 224
_cell_length_a 29.245576
_cell_length_b 29.245576
_cell_length_c 17.882762
_cell_angle_alpha 90.000000
_cell_angle_beta 90.000000
_cell_angle_gamma 90.000000
_cell_volume 15295.192783
_symmetry_space_group_name_H-M "I 4/M M M"
_symmetry_group_IT_number 139
_symmetry_cell_setting 'tetragonal'
loop_
_space_group_symop_operation_xyz
x,y,z
-y,x,z
-x,-y,z
y,-x,z
x,-y,-z
-x,y,-z
y,x,-z
-y,-x,-z
-x,-y,-z
y,-x,-z
x,y,-z
-y,x,-z
-x,y,z
x,-y,z
-y,-x,z
y,x,z
1/2+x,1/2+y,1/2+z
1/2-y,1/2+x,1/2+z
1/2-x,1/2-y,1/2+z
1/2+y,1/2-x,1/2+z
1/2+x,1/2-y,1/2-z
1/2-x,1/2+y,1/2-z
1/2+y,1/2+x,1/2-z
1/2-y,1/2-x,1/2-z
1/2-x,1/2-y,1/2-z
1/2+y,1/2-x,1/2-z
1/2+x,1/2+y,1/2-z
1/2-y,1/2+x,1/2-z
1/2-x,1/2+y,1/2+z
1/2+x,1/2-y,1/2+z
1/2-y,1/2-x,1/2+z
1/2+y,1/2+x,1/2+z
loop_
_atom_site_type_symbol
_atom_site_label
_atom_site_fract_x
_atom_site_fract_y
_atom_site_fract_z
Si Si1 0.790703 0.790703 0.586117
Si Si2 0.947134 0.315234 0.588126
Si Si3 0.856831 0.280316 0.662416
Si Si4 0.220744 0.644147 0.341705
Si Si5 0.422637 0.053650 0.420039
Si Si6 0.552039 0.192694 0.411754
Si Si7 0.049502 0.609726 0.794208
Si Si8 0.287370 0.287370 0.585273
O O1 0.802681 0.802681 0.500000
O O2 0.765019 0.832156 0.628955
O O3 0.751698 0.751698 0.582578
O O4 0.945883 0.304046 0.500000
O O5 0.907518 0.288380 0.630528
O O6 0.935300 0.369247 0.593452
O O7 0.000000 0.308658 0.613690
O O8 0.823973 0.323789 0.641312
O O9 0.860013 0.278173 0.752107
O O10 0.220642 0.596003 0.384684
O O11 0.264479 0.671659 0.370291
O O12 0.437092 0.073991 0.500000
O O13 0.452343 0.067717 0.350804
O O14 0.424434 0.000000 0.426772
O O15 0.557472 0.181042 0.500000
O O16 0.500000 0.211574 0.404349
O O17 0.554508 0.151229 0.351850
O O18 0.095650 0.595650 0.750000
O O19 0.000000 0.614547 0.754122
O O20 0.299233 0.299233 0.500000
#
# Coordination Sequence:
#
# PCOD9571302 Si02
#       8
#    16  32  32  32  32  32  32  16
#     4   9  17  29  45  67  95 123 147 174 214 267
#     4   9  18  31  46  63  83 111 146 179 213 260
#     4  10  19  29  45  68  94 116 144 183 226 268
#     4  10  20  31  48  71  91 115 144 182 231 272
#     4   9  18  31  45  58  73  96 130 173 218 266
#     4  10  22  37  50  65  86 114 149 185 223 276
#     4  11  23  34  45  59  78 102 134 179 228 276
#     4   9  17  31  49  67  89 113 141 176 215 270
#
# _framework density 14.645123999999999
#
# number of rings (size 3 to 8) (size 9 to 14) (size 15 to 20)
#    0.000    2.286    0.000    3.857    4.000    7.000 
#    0.000    0.714    0.000    0.000    0.000    0.000 
#    0.000    0.000    0.000    0.000    0.000    0.714 
#
# Total GULP energy -623621.661763 kJ/mol
# GULP energy per Si atom -5568.050551 kJ/mol
# Density = 1.461179 g / cm^3
# Si number density = 14.645124 Si / 1000 Ang^3
#
#
#
# Elastic Constant Matrix: (Units=GPa)
#
#
# Indices 1 2 3 4 5 6 
#
# 1 69.5547 43.0183 35.9202 0.0000 0.0000 0.0000
# 2 43.0183 69.5547 35.9202 0.0000 0.0000 0.0000
# 3 35.9202 35.9202 69.6085 0.0000 0.0000 0.0000
# 4 0.0000 0.0000 0.0000 23.3815 0.0000 0.0000
# 5 0.0000 0.0000 0.0000 0.0000 23.3815 0.0000
# 6 0.0000 0.0000 0.0000 0.0000 0.0000 16.8670
#
#
#
# Elastic Compliance Matrix: (Units=1/GPa)
#
#
# Indices 1 2 3 4 5 6 
#
# 1 0.025465 -0.012220 -0.006835 0.000000 0.000000 0.000000
# 2 -0.012220 0.025465 -0.006835 0.000000 0.000000 0.000000
# 3 -0.006835 -0.006835 0.021420 0.000000 0.000000 0.000000
# 4 0.000000 0.000000 0.000000 0.042769 0.000000 0.000000
# 5 0.000000 0.000000 0.000000 0.000000 0.042769 0.000000
# 6 0.000000 0.000000 0.000000 0.000000 0.000000 0.059287
#
#
# Mechanical properties :
#
#
# Convention : Reuss Voigt Hill
#
# Bulk Modulus (GPa) = 48.61302 48.71502 48.66402
# Shear Modulus (GPa) = 18.12846 18.98327 18.55587
#
# Velocity S-wave (km/s) = 3.52213 3.60421 3.56340
# Velocity P-wave (km/s) = 7.05738 7.11732 7.08741
#
# Compressibility (1/GPa) = 0.02057062
#
# Stress axis : x y z
#
# Youngs Moduli (GPa) = 39.27035 39.27035 46.68546
#
# Poissons Ratio (x) = 0.47987 0.31908
# Poissons Ratio (y) = 0.47987 0.31908
# Poissons Ratio (z) = 0.26840 0.26840
#
# Static dielectric constant tensor:
#      x y z
#    x 1.500840 0.000000 0.000000 
#    y 0.000000 1.500840 0.000000 
#    z 0.000000 0.000000 1.560680 
# 
# From -- ./inp_files/9105.got.cif
#   From: 2010.05.17/outbox.cif.g08.bks.cpg/sg139_5_cif.got.tgz:9105.got - 2010.05.20 13:14:44.
