data_PCOD9571042
_publ_section_title
;
Structure prediction by ZEFSAII (Michael W. Deem and Ramdas Pophale) SiO2 
 PCOD9571042
Probable space group: P 42/N C M
;
_chemical_formula_sum "Si O2"
_cell_formula_units_Z 84
_cell_length_a 14.474013
_cell_length_b 14.474013
_cell_length_c 21.941150
_cell_angle_alpha 90.000000
_cell_angle_beta 90.000000
_cell_angle_gamma 90.000000
_cell_volume 4596.606250
_symmetry_space_group_name_H-M "P 42/N C M"
_symmetry_group_IT_number 138
_space_group.IT_coordinate_system_code '2'
_symmetry_cell_setting 'tetragonal'
loop_
_space_group_symop_operation_xyz
x,y,z
1/2-y,x,1/2+z
1/2-x,1/2-y,z
y,1/2-x,1/2+z
1/2+x,-y,1/2-z
-x,1/2+y,1/2-z
1/2+y,1/2+x,-z
-y,-x,-z
-x,-y,-z
1/2+y,-x,1/2-z
1/2+x,1/2+y,-z
-y,1/2+x,1/2-z
1/2-x,y,1/2+z
x,1/2-y,1/2+z
1/2-y,1/2-x,z
y,x,z
loop_
_atom_site_type_symbol
_atom_site_label
_atom_site_fract_x
_atom_site_fract_y
_atom_site_fract_z
Si Si1 0.094868 0.725564 0.537385
Si Si2 0.356877 0.639238 0.260569
Si Si3 0.077362 0.929619 0.137447
Si Si4 0.426369 0.581773 0.606624
Si Si5 0.470691 0.257060 0.075213
Si Si6 0.750000 0.750000 0.925643
O O1 0.182782 0.682782 0.500000
O O2 0.086408 0.661545 0.596630
O O3 0.088571 0.830799 0.561255
O O4 0.011029 0.713332 0.490424
O O5 0.249881 0.627022 0.240163
O O6 0.419693 0.595972 0.208044
O O7 0.379119 0.592359 0.325218
O O8 0.165752 0.992478 0.121739
O O9 0.986499 0.986499 0.121010
O O10 0.522052 0.522052 0.601329
O O11 0.341483 0.514284 0.591906
O O12 0.362708 0.250545 0.074623
#
# Coordination Sequence:
#
# PCOD9571042 Si02
#       6
#    16  16  16  16  16   4
#     4  10  25  41  65  96 131 166 211 267 325 382
#     4  11  22  39  66  92 125 167 215 274 329 374
#     4  11  22  41  64  92 123 165 216 263 316 385
#     4  12  24  42  64  97 130 169 216 271 333 383
#     4  11  24  39  65  91 128 169 207 255 320 387
#     4  12  24  44  60  92 130 172 204 252 308 410
#
# _framework density 18.274350999999999
#
# number of rings (size 3 to 8) (size 9 to 14) (size 15 to 20)
#    0.000    0.952    5.714    1.143    2.667    7.238 
#    0.000    0.000    0.000    0.000    0.000    0.000 
#    0.000    0.000    0.000    0.000    0.000    0.000 
#
# Total GULP energy -467826.317179 kJ/mol
# GULP energy per Si atom -5569.360919 kJ/mol
# Density = 1.823276 g / cm^3
# Si number density = 18.274351 Si / 1000 Ang^3
#
#
#
# Elastic Constant Matrix: (Units=GPa)
#
#
# Indices 1 2 3 4 5 6 
#
# 1 124.4052 49.8925 21.7152 0.0000 0.0000 0.0000
# 2 49.8925 124.4052 21.7152 0.0000 0.0000 0.0000
# 3 21.7152 21.7152 93.0959 0.0000 0.0000 0.0000
# 4 0.0000 0.0000 0.0000 71.2645 0.0000 0.0000
# 5 0.0000 0.0000 0.0000 0.0000 71.2645 0.0000
# 6 0.0000 0.0000 0.0000 0.0000 0.0000 31.0702
#
#
#
# Elastic Compliance Matrix: (Units=1/GPa)
#
#
# Indices 1 2 3 4 5 6 
#
# 1 0.009756 -0.003665 -0.001421 0.000000 0.000000 0.000000
# 2 -0.003665 0.009756 -0.001421 0.000000 0.000000 0.000000
# 3 -0.001421 -0.001421 0.011404 0.000000 0.000000 0.000000
# 4 0.000000 0.000000 0.000000 0.014032 0.000000 0.000000
# 5 0.000000 0.000000 0.000000 0.000000 0.014032 0.000000
# 6 0.000000 0.000000 0.000000 0.000000 0.000000 0.032185
#
#
# Mechanical properties :
#
#
# Convention : Reuss Voigt Hill
#
# Bulk Modulus (GPa) = 55.85418 58.72803 57.29111
# Shear Modulus (GPa) = 45.39411 51.29206 48.34309
#
# Velocity S-wave (km/s) = 4.98942 5.30365 5.14893
# Velocity P-wave (km/s) = 7.98893 8.34935 8.17112
#
# Compressibility (1/GPa) = 0.01790376
#
# Stress axis : x y z
#
# Youngs Moduli (GPa) = 102.50169 102.50169 87.68505
#
# Poissons Ratio (x) = 0.37563 0.12459
# Poissons Ratio (y) = 0.37563 0.12459
# Poissons Ratio (z) = 0.14564 0.14564
#
# Static dielectric constant tensor:
#      x y z
#    x 1.632500 0.000000 0.000000 
#    y 0.000000 1.632500 0.000000 
#    z 0.000000 0.000000 1.631670 
# 
# From -- ./inp_files/6147.got.cif
#   From: 2010.05.17/outbox.cif.g08.bks.cpg/sg138_4_cif.got.tgz:6147.got - 2010.05.20 13:08:53.
