data_PCOD9571415
_publ_section_title
;
Structure prediction by ZEFSAII (Michael W. Deem and Ramdas Pophale) SiO2 
 PCOD9571415
Probable space group: I 4/M M M
;
_chemical_formula_sum "Si O2"
_cell_formula_units_Z 192
_cell_length_a 21.895540
_cell_length_b 21.895540
_cell_length_c 22.412138
_cell_angle_alpha 90.000000
_cell_angle_beta 90.000000
_cell_angle_gamma 90.000000
_cell_volume 10744.707786
_symmetry_space_group_name_H-M "I 4/M M M"
_symmetry_group_IT_number 139
_symmetry_cell_setting 'tetragonal'
loop_
_space_group_symop_operation_xyz
x,y,z
-y,x,z
-x,-y,z
y,-x,z
x,-y,-z
-x,y,-z
y,x,-z
-y,-x,-z
-x,-y,-z
y,-x,-z
x,y,-z
-y,x,-z
-x,y,z
x,-y,z
-y,-x,z
y,x,z
1/2+x,1/2+y,1/2+z
1/2-y,1/2+x,1/2+z
1/2-x,1/2-y,1/2+z
1/2+y,1/2-x,1/2+z
1/2+x,1/2-y,1/2-z
1/2-x,1/2+y,1/2-z
1/2+y,1/2+x,1/2-z
1/2-y,1/2-x,1/2-z
1/2-x,1/2-y,1/2-z
1/2+y,1/2-x,1/2-z
1/2+x,1/2+y,1/2-z
1/2-y,1/2+x,1/2-z
1/2-x,1/2+y,1/2+z
1/2+x,1/2-y,1/2+z
1/2-y,1/2-x,1/2+z
1/2+y,1/2+x,1/2+z
loop_
_atom_site_type_symbol
_atom_site_label
_atom_site_fract_x
_atom_site_fract_y
_atom_site_fract_z
Si Si1 0.863653 0.764881 0.070888
Si Si2 0.673111 0.427224 0.000000
Si Si3 0.375138 0.873122 0.071854
Si Si4 0.070453 0.500000 0.427245
Si Si5 0.070430 0.746359 0.616716
Si Si6 0.747059 0.850538 0.735747
Si Si7 0.325600 0.571858 0.674343
O O1 0.800585 0.800585 0.083532
O O2 0.859105 0.694486 0.089471
O O3 0.914871 0.800864 0.107663
O O4 0.874985 0.767197 0.000000
O O5 0.711609 0.412542 0.940150
O O6 0.662487 0.500000 0.000000
O O7 0.611829 0.388172 0.000000
O O8 0.421668 0.822744 0.094556
O O9 0.395072 0.939586 0.092898
O O10 0.376861 0.872249 0.000000
O O11 0.071069 0.500000 0.500000
O O12 0.000000 0.500000 0.408827
O O13 0.115044 0.751289 0.672731
O O14 0.000000 0.759546 0.632621
O O15 0.795975 0.795975 0.735559
O O16 0.681846 0.818155 0.750000
O O17 0.772657 0.898583 0.784311
O O18 0.334718 0.500000 0.685170
O O19 0.386759 0.613242 0.683213
#
# Coordination Sequence:
#
# PCOD9571415 Si02
#       7
#    32  16  32  16  32  32  32
#     4   9  19  34  53  81 113 143 180 231 287 336
#     4  10  22  37  56  85 119 155 195 239 290 350
#     4  10  19  32  50  78 109 147 183 224 274 326
#     4   9  18  30  46  68 104 146 183 221 266 324
#     4  11  21  35  56  83 114 146 187 235 285 337
#     4  10  21  38  59  81 109 144 186 232 287 345
#     4  10  21  37  57  81 111 147 186 232 281 337
#
# _framework density 17.869261999999999
#
# number of rings (size 3 to 8) (size 9 to 14) (size 15 to 20)
#    0.000    2.083    0.833    2.500    1.167    3.917 
#    0.000    0.000    0.000    0.000    0.000    4.667 
#    0.000    0.000    0.000    0.000    0.000    0.000 
#
# Total GULP energy -535426.160834 kJ/mol
# GULP energy per Si atom -5577.355842 kJ/mol
# Density = 1.782859 g / cm^3
# Si number density = 17.869262 Si / 1000 Ang^3
#
#
#
# Elastic Constant Matrix: (Units=GPa)
#
#
# Indices 1 2 3 4 5 6 
#
# 1 92.4952 41.7883 35.0164 0.0000 0.0000 0.0000
# 2 41.7883 92.4876 35.0170 0.0000 0.0000 0.0000
# 3 35.0164 35.0170 64.7960 0.0000 0.0000 0.0000
# 4 0.0000 0.0000 0.0000 14.7546 0.0000 0.0000
# 5 0.0000 0.0000 0.0000 0.0000 14.7527 0.0000
# 6 0.0000 0.0000 0.0000 0.0000 0.0000 18.2211
#
#
#
# Elastic Compliance Matrix: (Units=1/GPa)
#
#
# Indices 1 2 3 4 5 6 
#
# 1 0.015045 -0.004676 -0.005604 0.000000 0.000000 0.000000
# 2 -0.004676 0.015047 -0.005605 0.000000 0.000000 0.000000
# 3 -0.005604 -0.005605 0.021490 0.000000 0.000000 0.000000
# 4 0.000000 0.000000 0.000000 0.067775 0.000000 0.000000
# 5 0.000000 0.000000 0.000000 0.000000 0.067784 0.000000
# 6 0.000000 0.000000 0.000000 0.000000 0.000000 0.054881
#
#
# Mechanical properties :
#
#
# Convention : Reuss Voigt Hill
#
# Bulk Modulus (GPa) = 50.47013 52.60247 51.53630
# Shear Modulus (GPa) = 17.83184 18.74282 18.28733
#
# Velocity S-wave (km/s) = 3.16239 3.24216 3.20253
# Velocity P-wave (km/s) = 6.45288 6.59673 6.52520
#
# Compressibility (1/GPa) = 0.01981370
#
# Stress axis : x y z
#
# Youngs Moduli (GPa) = 66.46527 66.45782 46.53305
#
# Poissons Ratio (x) = 0.31078 0.26075
# Poissons Ratio (y) = 0.31082 0.26080
# Poissons Ratio (z) = 0.37244 0.37247
#
# Static dielectric constant tensor:
#      x y z
#    x 1.597810 0.000000 0.000000 
#    y 0.000000 1.597810 0.000000 
#    z 0.000000 0.000000 1.633680 
# 
# From -- ./inp_files/12019.got.cif
#   From: 2010.05.17/outbox.cif.g08.bks.cpg/sg139_7_cif.got.tgz:12019.got - 2010.05.20 13:14:44.
