data_PCOD9571376
_publ_section_title
;
Structure prediction by ZEFSAII (Michael W. Deem and Ramdas Pophale) SiO2 
 PCOD9571376
Probable space group: I 4/M M M
;
_chemical_formula_sum "Si O2"
_cell_formula_units_Z 128
_cell_length_a 21.368806
_cell_length_b 21.368806
_cell_length_c 15.922097
_cell_angle_alpha 90.000000
_cell_angle_beta 90.000000
_cell_angle_gamma 90.000000
_cell_volume 7270.441393
_symmetry_space_group_name_H-M "I 4/M M M"
_symmetry_group_IT_number 139
_symmetry_cell_setting 'tetragonal'
loop_
_space_group_symop_operation_xyz
x,y,z
-y,x,z
-x,-y,z
y,-x,z
x,-y,-z
-x,y,-z
y,x,-z
-y,-x,-z
-x,-y,-z
y,-x,-z
x,y,-z
-y,x,-z
-x,y,z
x,-y,z
-y,-x,z
y,x,z
1/2+x,1/2+y,1/2+z
1/2-y,1/2+x,1/2+z
1/2-x,1/2-y,1/2+z
1/2+y,1/2-x,1/2+z
1/2+x,1/2-y,1/2-z
1/2-x,1/2+y,1/2-z
1/2+y,1/2+x,1/2-z
1/2-y,1/2-x,1/2-z
1/2-x,1/2-y,1/2-z
1/2+y,1/2-x,1/2-z
1/2+x,1/2+y,1/2-z
1/2-y,1/2+x,1/2-z
1/2-x,1/2+y,1/2+z
1/2+x,1/2-y,1/2+z
1/2-y,1/2-x,1/2+z
1/2+y,1/2+x,1/2+z
loop_
_atom_site_type_symbol
_atom_site_label
_atom_site_fract_x
_atom_site_fract_y
_atom_site_fract_z
Si Si1 0.574307 0.110922 0.500000
Si Si2 0.424918 0.325436 0.671091
Si Si3 0.254142 0.424467 0.500000
Si Si4 0.156460 0.252620 0.696247
Si Si5 0.072334 0.362964 0.331474
O O1 0.500000 0.113636 0.500000
O O2 0.598694 0.182886 0.500000
O O3 0.595630 0.078049 0.414653
O O4 0.500000 0.325781 0.680353
O O5 0.394125 0.394125 0.670931
O O6 0.407372 0.291334 0.583783
O O7 0.389817 0.285699 0.742529
O O8 0.251269 0.500000 0.500000
O O9 0.201852 0.201852 0.652434
O O10 0.202806 0.297195 0.750000
O O11 0.111934 0.300526 0.648288
O O12 0.103092 0.396909 0.250000
O O13 0.000000 0.349129 0.312237
#
# Coordination Sequence:
#
# PCOD9571376 Si02
#       5
#    16  32  16  32  32
#     4  11  23  37  54  78 108 140 177 218 258 314
#     4  10  19  31  49  73 103 138 175 217 263 314
#     4   9  17  30  46  66  95 133 176 215 253 298
#     4   9  18  33  52  73  96 127 171 217 259 304
#     4  11  22  36  55  78 107 142 176 216 266 319
#
# _framework density 17.605533000000001
#
# number of rings (size 3 to 8) (size 9 to 14) (size 15 to 20)
#    0.000    2.000    0.000    5.250    0.000    4.500 
#    0.000    1.875    0.000    2.250    0.000    0.000 
#    0.000    0.000    0.000    0.000    0.000   42.250 
#
# Total GULP energy -356747.044593 kJ/mol
# GULP energy per Si atom -5574.172572 kJ/mol
# Density = 1.756546 g / cm^3
# Si number density = 17.605533 Si / 1000 Ang^3
#
#
#
# Elastic Constant Matrix: (Units=GPa)
#
#
# Indices 1 2 3 4 5 6 
#
# 1 111.8399 37.2665 13.3822 0.0000 0.0000 0.0000
# 2 37.2665 111.8323 13.3762 0.0000 0.0000 0.0000
# 3 13.3822 13.3762 53.2724 0.0000 0.0000 0.0000
# 4 0.0000 0.0000 0.0000 55.2516 0.0000 0.0000
# 5 0.0000 0.0000 0.0000 0.0000 55.4257 0.0000
# 6 0.0000 0.0000 0.0000 0.0000 0.0000 26.3738
#
#
#
# Elastic Compliance Matrix: (Units=1/GPa)
#
#
# Indices 1 2 3 4 5 6 
#
# 1 0.010217 -0.003193 -0.001765 0.000000 0.000000 0.000000
# 2 -0.003193 0.010217 -0.001763 0.000000 0.000000 0.000000
# 3 -0.001765 -0.001763 0.019657 0.000000 0.000000 0.000000
# 4 0.000000 0.000000 0.000000 0.018099 0.000000 0.000000
# 5 0.000000 0.000000 0.000000 0.000000 0.018042 0.000000
# 6 0.000000 0.000000 0.000000 0.000000 0.000000 0.037916
#
#
# Mechanical properties :
#
#
# Convention : Reuss Voigt Hill
#
# Bulk Modulus (GPa) = 37.52548 44.99938 41.26243
# Shear Modulus (GPa) = 36.63702 41.60488 39.12095
#
# Velocity S-wave (km/s) = 4.56674 4.86652 4.71901
# Velocity P-wave (km/s) = 7.01197 7.56258 7.29247
#
# Compressibility (1/GPa) = 0.02664856
#
# Stress axis : x y z
#
# Youngs Moduli (GPa) = 97.87994 97.87582 50.87139
#
# Poissons Ratio (x) = 0.31256 0.08977
# Poissons Ratio (y) = 0.31258 0.08970
# Poissons Ratio (z) = 0.17272 0.17257
#
# Static dielectric constant tensor:
#      x y z
#    x 1.621650 0.000000 0.000000 
#    y 0.000000 1.621650 0.000000 
#    z 0.000000 0.000000 1.584800 
# 
# From -- ./inp_files/5429.got.cif
#   From: 2010.05.17/outbox.cif.g08.bks.cpg/sg139_3_cif.got.tgz:5429.got - 2010.05.20 13:14:44.
