data_PCOD9571353
_publ_section_title
;
Structure prediction by ZEFSAII (Michael W. Deem and Ramdas Pophale) SiO2 
 PCOD9571353
Probable space group: I 4/M M M
;
_chemical_formula_sum "Si O2"
_cell_formula_units_Z 128
_cell_length_a 31.802942
_cell_length_b 31.802942
_cell_length_c 7.909975
_cell_angle_alpha 90.000000
_cell_angle_beta 90.000000
_cell_angle_gamma 90.000000
_cell_volume 8000.363232
_symmetry_space_group_name_H-M "I 4/M M M"
_symmetry_group_IT_number 139
_symmetry_cell_setting 'tetragonal'
loop_
_space_group_symop_operation_xyz
x,y,z
-y,x,z
-x,-y,z
y,-x,z
x,-y,-z
-x,y,-z
y,x,-z
-y,-x,-z
-x,-y,-z
y,-x,-z
x,y,-z
-y,x,-z
-x,y,z
x,-y,z
-y,-x,z
y,x,z
1/2+x,1/2+y,1/2+z
1/2-y,1/2+x,1/2+z
1/2-x,1/2-y,1/2+z
1/2+y,1/2-x,1/2+z
1/2+x,1/2-y,1/2-z
1/2-x,1/2+y,1/2-z
1/2+y,1/2+x,1/2-z
1/2-y,1/2-x,1/2-z
1/2-x,1/2-y,1/2-z
1/2+y,1/2-x,1/2-z
1/2+x,1/2+y,1/2-z
1/2-y,1/2+x,1/2-z
1/2-x,1/2+y,1/2+z
1/2+x,1/2-y,1/2+z
1/2-y,1/2-x,1/2+z
1/2+y,1/2+x,1/2+z
loop_
_atom_site_type_symbol
_atom_site_label
_atom_site_fract_x
_atom_site_fract_y
_atom_site_fract_z
Si Si1 0.232097 0.950497 0.500000
Si Si2 0.746670 0.818790 0.807687
Si Si3 0.637353 0.708216 0.000000
Si Si4 0.949412 0.706968 0.815561
Si Si5 0.616383 0.951452 0.701868
O O1 0.198945 0.912398 0.500000
O O2 0.261258 0.942456 0.663257
O O3 0.219048 0.000000 0.500000
O O4 0.781273 0.781273 0.811529
O O5 0.703354 0.796647 0.750000
O O6 0.764216 0.849959 0.664929
O O7 0.743159 0.834915 0.000000
O O8 0.667158 0.667158 0.000000
O O9 0.933997 0.659825 0.778921
O O10 0.000000 0.702689 0.820107
O O11 0.935142 0.721651 0.000000
O O12 0.621702 0.951838 0.500000
O O13 0.577464 0.922537 0.750000
O O14 0.610003 0.000000 0.756975
#
# Coordination Sequence:
#
# PCOD9571353 Si02
#       5
#    16  32  16  32  32
#     4  10  20  36  54  72  95 125 164 199 233 282
#     4   9  15  26  46  68  94 131 165 192 232 287
#     4  10  20  32  50  76 104 132 163 200 244 289
#     4   9  17  32  53  70  86 116 155 195 239 283
#     4  10  19  31  47  65  88 117 150 196 249 297
#
# _framework density 15.999273000000001
#
# number of rings (size 3 to 8) (size 9 to 14) (size 15 to 20)
#    0.000    2.500    2.500    0.750    0.000    2.750 
#    0.000    2.500    0.000    0.000    0.000    0.000 
#    0.000    0.250    0.000    0.000    0.000    0.000 
#
# Total GULP energy -356546.666610 kJ/mol
# GULP energy per Si atom -5571.041666 kJ/mol
# Density = 1.596286 g / cm^3
# Si number density = 15.999273 Si / 1000 Ang^3
#
#
#
# Elastic Constant Matrix: (Units=GPa)
#
#
# Indices 1 2 3 4 5 6 
#
# 1 63.8222 30.1315 21.5785 0.0000 0.0000 0.0000
# 2 30.1315 63.8195 21.5786 0.0000 0.0000 0.0000
# 3 21.5785 21.5786 118.9129 0.0000 0.0000 0.0000
# 4 0.0000 0.0000 0.0000 52.4912 0.0000 0.0000
# 5 0.0000 0.0000 0.0000 0.0000 52.5511 0.0000
# 6 0.0000 0.0000 0.0000 0.0000 0.0000 10.4572
#
#
#
# Elastic Compliance Matrix: (Units=1/GPa)
#
#
# Indices 1 2 3 4 5 6 
#
# 1 0.020647 -0.009036 -0.002107 0.000000 0.000000 0.000000
# 2 -0.009036 0.020648 -0.002107 0.000000 0.000000 0.000000
# 3 -0.002107 -0.002107 0.009174 0.000000 0.000000 0.000000
# 4 0.000000 0.000000 0.000000 0.019051 0.000000 0.000000
# 5 0.000000 0.000000 0.000000 0.000000 0.019029 0.000000
# 6 0.000000 0.000000 0.000000 0.000000 0.000000 0.095628
#
#
# Mechanical properties :
#
#
# Convention : Reuss Voigt Hill
#
# Bulk Modulus (GPa) = 41.72050 43.68131 42.70091
# Shear Modulus (GPa) = 22.86592 34.65096 28.75844
#
# Velocity S-wave (km/s) = 3.78456 4.65885 4.24427
# Velocity P-wave (km/s) = 6.72535 7.50341 7.12501
#
# Compressibility (1/GPa) = 0.02396903
#
# Stress axis : x y z
#
# Youngs Moduli (GPa) = 48.43361 48.43140 109.00074
#
# Poissons Ratio (x) = 0.43761 0.22966
# Poissons Ratio (y) = 0.43763 0.22969
# Poissons Ratio (z) = 0.10205 0.10205
#
# Static dielectric constant tensor:
#      x y z
#    x 1.530130 0.000000 0.000000 
#    y 0.000000 1.530140 0.000000 
#    z 0.000000 0.000000 1.574410 
# 
# From -- ./inp_files/1813.got.cif
#   From: 2010.05.17/outbox.cif.g08.bks.cpg/sg139_1_cif.got.tgz:1813.got - 2010.05.20 13:14:44.
