data_PCOD9571582
_publ_section_title
;
Structure prediction by ZEFSAII (Michael W. Deem and Ramdas Pophale) SiO2 
 PCOD9571582
Probable space group: I 4/M M M
;
_chemical_formula_sum "Si O2"
_cell_formula_units_Z 160
_cell_length_a 30.548773
_cell_length_b 30.548773
_cell_length_c 8.373898
_cell_angle_alpha 90.000000
_cell_angle_beta 90.000000
_cell_angle_gamma 90.000000
_cell_volume 7814.752162
_symmetry_space_group_name_H-M "I 4/M M M"
_symmetry_group_IT_number 139
_symmetry_cell_setting 'tetragonal'
loop_
_space_group_symop_operation_xyz
x,y,z
-y,x,z
-x,-y,z
y,-x,z
x,-y,-z
-x,y,-z
y,x,-z
-y,-x,-z
-x,-y,-z
y,-x,-z
x,y,-z
-y,x,-z
-x,y,z
x,-y,z
-y,-x,z
y,x,z
1/2+x,1/2+y,1/2+z
1/2-y,1/2+x,1/2+z
1/2-x,1/2-y,1/2+z
1/2+y,1/2-x,1/2+z
1/2+x,1/2-y,1/2-z
1/2-x,1/2+y,1/2-z
1/2+y,1/2+x,1/2-z
1/2-y,1/2-x,1/2-z
1/2-x,1/2-y,1/2-z
1/2+y,1/2-x,1/2-z
1/2+x,1/2+y,1/2-z
1/2-y,1/2+x,1/2-z
1/2-x,1/2+y,1/2+z
1/2+x,1/2-y,1/2+z
1/2-y,1/2-x,1/2+z
1/2+y,1/2+x,1/2+z
loop_
_atom_site_type_symbol
_atom_site_label
_atom_site_fract_x
_atom_site_fract_y
_atom_site_fract_z
Si Si1 0.230256 0.339071 0.807170
Si Si2 0.500000 0.257272 0.185956
Si Si3 0.500000 0.831413 0.323895
Si Si4 0.656903 0.093173 0.313378
Si Si5 0.203503 0.909011 0.811008
Si Si6 0.118552 0.050647 0.691490
O O1 0.207050 0.292951 0.750000
O O2 0.195857 0.376410 0.746810
O O3 0.275381 0.362663 0.748462
O O4 0.232346 0.336576 0.000000
O O5 0.500000 0.220674 0.320916
O O6 0.452377 0.279006 0.215358
O O7 0.500000 0.242298 0.000000
O O8 0.500000 0.850049 0.500000
O O9 0.456482 0.842068 0.232146
O O10 0.660285 0.098565 0.500000
O O11 0.612582 0.112582 0.250000
O O12 0.152375 0.916965 0.777953
O O13 0.212730 0.912788 0.000000
O O14 0.127295 0.051973 0.500000
O O15 0.070221 0.070221 0.716236
O O16 0.123573 0.000000 0.742807
#
# Coordination Sequence:
#
# PCOD9571582 Si02
#       6
#    32  16  16  32  32  32
#     4  10  20  34  54  81 119 160 200 247 299 360
#     4  12  22  34  52  80 114 152 196 248 304 361
#     4  12  22  32  50  75 105 139 179 228 288 354
#     4  10  20  33  49  70 101 138 179 229 285 347
#     4  12  23  36  58  88 123 163 205 254 309 370
#     4  10  22  41  66  95 129 169 212 259 313 374
#
# _framework density 20.474098000000001
#
# number of rings (size 3 to 8) (size 9 to 14) (size 15 to 20)
#    0.000    1.200    3.000    4.800    0.000    2.200 
#    0.000    1.000    0.000    0.900    0.000    3.500 
#    0.000    0.000    0.000    0.000    0.000    0.000 
#
# Total GULP energy -445559.014441 kJ/mol
# GULP energy per Si atom -5569.487681 kJ/mol
# Density = 2.042750 g / cm^3
# Si number density = 20.474098 Si / 1000 Ang^3
#
#
#
# Elastic Constant Matrix: (Units=GPa)
#
#
# Indices 1 2 3 4 5 6 
#
# 1 65.3314 61.5880 19.2603 0.0000 0.0000 0.0000
# 2 61.5880 65.3332 19.2607 0.0000 0.0000 0.0000
# 3 19.2603 19.2607 85.3492 0.0000 0.0000 0.0000
# 4 0.0000 0.0000 0.0000 20.5071 0.0000 0.0000
# 5 0.0000 0.0000 0.0000 0.0000 20.5066 0.0000
# 6 0.0000 0.0000 0.0000 0.0000 0.0000 72.4900
#
#
#
# Elastic Compliance Matrix: (Units=1/GPa)
#
#
# Indices 1 2 3 4 5 6 
#
# 1 0.137767 -0.129307 -0.001909 0.000000 0.000000 0.000000
# 2 -0.129307 0.137763 -0.001909 0.000000 0.000000 0.000000
# 3 -0.001909 -0.001909 0.012578 0.000000 0.000000 0.000000
# 4 0.000000 0.000000 0.000000 0.048764 0.000000 0.000000
# 5 0.000000 0.000000 0.000000 0.000000 0.048765 0.000000
# 6 0.000000 0.000000 0.000000 0.000000 0.000000 0.013795
#
#
# Mechanical properties :
#
#
# Convention : Reuss Voigt Hill
#
# Bulk Modulus (GPa) = 45.74650 46.24798 45.99724
# Shear Modulus (GPa) = 7.42978 30.42773 18.92876
#
# Velocity S-wave (km/s) = 1.90703 3.85925 3.04389
# Velocity P-wave (km/s) = 5.21930 6.51890 5.90496
#
# Compressibility (1/GPa) = 0.02185960
#
# Stress axis : x y z
#
# Youngs Moduli (GPa) = 7.25863 7.25882 79.50351
#
# Poissons Ratio (x) = 0.93862 0.15174
# Poissons Ratio (y) = 0.93859 0.15177
# Poissons Ratio (z) = 0.01385 0.01386
#
# Static dielectric constant tensor:
#      x y z
#    x 2.060840 0.000000 0.000000 
#    y 0.000000 2.060710 0.000000 
#    z 0.000000 0.000000 1.701500 
# 
# From -- ./inp_files/2275.got.cif
#   From: 2010.05.17/outbox.cif.g08.bks.cpg/sg139_2_cif.got.tgz:2275.got - 2010.05.20 13:14:44.
