data_PCOD9571820
_publ_section_title
;
Structure prediction by ZEFSAII (Michael W. Deem and Ramdas Pophale) SiO2 
 PCOD9571820
Probable space group: I 4/M M M
;
_chemical_formula_sum "Si O2"
_cell_formula_units_Z 144
_cell_length_a 29.248884
_cell_length_b 29.248884
_cell_length_c 9.380471
_cell_angle_alpha 90.000000
_cell_angle_beta 90.000000
_cell_angle_gamma 90.000000
_cell_volume 8024.966818
_symmetry_space_group_name_H-M "I 4/M M M"
_symmetry_group_IT_number 139
_symmetry_cell_setting 'tetragonal'
loop_
_space_group_symop_operation_xyz
x,y,z
-y,x,z
-x,-y,z
y,-x,z
x,-y,-z
-x,y,-z
y,x,-z
-y,-x,-z
-x,-y,-z
y,-x,-z
x,y,-z
-y,x,-z
-x,y,z
x,-y,z
-y,-x,z
y,x,z
1/2+x,1/2+y,1/2+z
1/2-y,1/2+x,1/2+z
1/2-x,1/2-y,1/2+z
1/2+y,1/2-x,1/2+z
1/2+x,1/2-y,1/2-z
1/2-x,1/2+y,1/2-z
1/2+y,1/2+x,1/2-z
1/2-y,1/2-x,1/2-z
1/2-x,1/2-y,1/2-z
1/2+y,1/2-x,1/2-z
1/2+x,1/2+y,1/2-z
1/2-y,1/2+x,1/2-z
1/2-x,1/2+y,1/2+z
1/2+x,1/2-y,1/2+z
1/2-y,1/2-x,1/2+z
1/2+y,1/2+x,1/2+z
loop_
_atom_site_type_symbol
_atom_site_label
_atom_site_fract_x
_atom_site_fract_y
_atom_site_fract_z
Si Si1 0.553374 0.775591 0.659089
Si Si2 0.949150 0.384460 0.166430
Si Si3 0.553795 0.372583 0.670472
Si Si4 0.784774 0.215227 0.671299
Si Si5 0.792539 0.108971 0.668588
O O1 0.570847 0.762929 0.500000
O O2 0.500000 0.762930 0.662618
O O3 0.556454 0.829962 0.674225
O O4 0.579117 0.750357 0.783848
O O5 0.910796 0.410796 0.250000
O O6 0.000000 0.395917 0.220689
O O7 0.947251 0.396678 0.000000
O O8 0.555429 0.363741 0.500000
O O9 0.500000 0.371013 0.712938
O O10 0.578408 0.421593 0.695012
O O11 0.585397 0.335050 0.749492
O O12 0.779035 0.220966 0.500000
O O13 0.750000 0.250000 0.750000
O O14 0.779505 0.161254 0.706540
O O15 0.801897 0.108031 0.500000
#
# Coordination Sequence:
#
# PCOD9571820 Si02
#       5
#    32  32  32  16  32
#     4   9  19  36  56  79 108 142 182 226 273 328
#     4   9  19  35  53  75 106 142 179 224 277 332
#     4  10  21  37  59  87 118 156 199 240 286 340
#     4  10  24  42  58  80 111 146 185 229 278 337
#     4  11  22  38  58  83 115 147 185 234 285 339
#
# _framework density 17.943999999999999
#
# number of rings (size 3 to 8) (size 9 to 14) (size 15 to 20)
#    0.000    2.222    1.111    2.667    0.000    8.000 
#    0.000    8.889    0.000    0.000    0.000    1.556 
#    0.000    0.000    0.000    0.000    0.000    0.000 
#
# Total GULP energy -401355.094515 kJ/mol
# GULP energy per Si atom -5574.376313 kJ/mol
# Density = 1.790316 g / cm^3
# Si number density = 17.944000 Si / 1000 Ang^3
#
#
#
# Elastic Constant Matrix: (Units=GPa)
#
#
# Indices 1 2 3 4 5 6 
#
# 1 72.6347 74.2003 45.6764 0.0000 0.0000 0.0000
# 2 74.2003 72.6345 45.6763 0.0000 0.0000 0.0000
# 3 45.6764 45.6763 47.7041 0.0000 0.0000 0.0000
# 4 0.0000 0.0000 0.0000 19.3106 0.0000 0.0000
# 5 0.0000 0.0000 0.0000 0.0000 19.3109 0.0000
# 6 0.0000 0.0000 0.0000 0.0000 0.0000 31.2684
#
#
#
# Elastic Compliance Matrix: (Units=1/GPa)
#
#
# Indices 1 2 3 4 5 6 
#
# 1 -0.310919 0.327764 -0.016128 0.000000 0.000000 0.000000
# 2 0.327764 -0.310919 -0.016129 0.000000 0.000000 0.000000
# 3 -0.016128 -0.016129 0.051849 0.000000 0.000000 0.000000
# 4 0.000000 0.000000 0.000000 0.051785 0.000000 0.000000
# 5 0.000000 0.000000 0.000000 0.000000 0.051784 0.000000
# 6 0.000000 0.000000 0.000000 0.000000 0.000000 0.031981
#
#
# Mechanical properties :
#
#
# Convention : Reuss Voigt Hill
#
# Bulk Modulus (GPa) = 47.56598 58.23104 52.89851
# Shear Modulus (GPa) = -4.90946 15.80599 5.44827
#
# Velocity S-wave (km/s) = -1.65588 2.97113 1.74438
# Velocity P-wave (km/s) = 4.78640 6.65524 5.79663
#
# Compressibility (1/GPa) = 0.02102343
#
# Stress axis : x y z
#
# Youngs Moduli (GPa) = -3.21628 -3.21627 19.28673
#
# Poissons Ratio (x) = 1.05418 0.31106
# Poissons Ratio (y) = 1.05418 0.31108
# Poissons Ratio (z) = -0.05187 -0.05188
#
# Static dielectric constant tensor:
#      x y z
#    x 1.616750 0.000000 0.000000 
#    y 0.000000 1.616750 0.000000 
#    z 0.000000 0.000000 1.603900 
# 
# From -- ./inp_files/1987.got.cif
#   From: 2010.05.17/outbox.cif.g08.bks.cpg/sg139_1_cif.got.tgz:1987.got - 2010.05.20 13:14:44.
