data_PCOD9571766
_publ_section_title
;
Structure prediction by ZEFSAII (Michael W. Deem and Ramdas Pophale) SiO2 
 PCOD9571766
Probable space group: I 4/M M M
;
_chemical_formula_sum "Si O2"
_cell_formula_units_Z 112
_cell_length_a 21.580262
_cell_length_b 21.580262
_cell_length_c 11.389468
_cell_angle_alpha 90.000000
_cell_angle_beta 90.000000
_cell_angle_gamma 90.000000
_cell_volume 5304.163037
_symmetry_space_group_name_H-M "I 4/M M M"
_symmetry_group_IT_number 139
_symmetry_cell_setting 'tetragonal'
loop_
_space_group_symop_operation_xyz
x,y,z
-y,x,z
-x,-y,z
y,-x,z
x,-y,-z
-x,y,-z
y,x,-z
-y,-x,-z
-x,-y,-z
y,-x,-z
x,y,-z
-y,x,-z
-x,y,z
x,-y,z
-y,-x,z
y,x,z
1/2+x,1/2+y,1/2+z
1/2-y,1/2+x,1/2+z
1/2-x,1/2-y,1/2+z
1/2+y,1/2-x,1/2+z
1/2+x,1/2-y,1/2-z
1/2-x,1/2+y,1/2-z
1/2+y,1/2+x,1/2-z
1/2-y,1/2-x,1/2-z
1/2-x,1/2-y,1/2-z
1/2+y,1/2-x,1/2-z
1/2+x,1/2+y,1/2-z
1/2-y,1/2+x,1/2-z
1/2-x,1/2+y,1/2+z
1/2+x,1/2-y,1/2+z
1/2-y,1/2-x,1/2+z
1/2+y,1/2+x,1/2+z
loop_
_atom_site_type_symbol
_atom_site_label
_atom_site_fract_x
_atom_site_fract_y
_atom_site_fract_z
Si Si1 0.883598 0.616403 0.750000
Si Si2 0.573130 0.117580 0.000000
Si Si3 0.425133 0.739368 0.000000
Si Si4 0.873320 0.126681 0.870608
Si Si5 0.573695 0.426306 0.129836
Si Si6 0.740882 0.424959 0.258253
O O1 0.909830 0.591414 0.873985
O O2 0.810974 0.599438 0.743176
O O3 0.500000 0.121899 0.000000
O O4 0.597444 0.188835 0.000000
O O5 0.408861 0.714030 0.128108
O O6 0.500000 0.740514 0.000000
O O7 0.904872 0.095129 0.758202
O O8 0.801392 0.109244 0.852863
O O9 0.893774 0.106227 0.000000
O O10 0.585164 0.500000 0.128138
O O11 0.595985 0.404016 0.000000
O O12 0.740057 0.500000 0.272691
#
# Coordination Sequence:
#
# PCOD9571766 Si02
#       6
#    16  16  16  16  16  32
#     4  10  20  39  70  95 128 172 212 275 336 395
#     4   9  18  36  62  95 126 161 212 262 325 397
#     4   7  14  33  59  88 116 149 202 262 311 368
#     4  12  27  40  56  91 137 178 223 268 318 400
#     4   9  20  40  65  91 119 161 223 288 344 396
#     4  10  22  40  65  94 127 170 220 271 329 394
#
# _framework density 21.115490000000001
#
# number of rings (size 3 to 8) (size 9 to 14) (size 15 to 20)
#    0.000    2.429    0.000    3.857    4.000    2.857 
#    0.000    2.857    0.000   10.286    0.000    0.000 
#    0.000    0.000    0.000    0.000    0.000    0.000 
#
# Total GULP energy -311996.918915 kJ/mol
# GULP energy per Si atom -5571.373552 kJ/mol
# Density = 2.106743 g / cm^3
# Si number density = 21.115490 Si / 1000 Ang^3
#
#
#
# Elastic Constant Matrix: (Units=GPa)
#
#
# Indices 1 2 3 4 5 6 
#
# 1 55.5182 35.7150 37.4891 0.0000 0.0000 0.0000
# 2 35.7150 55.5205 37.4887 0.0000 0.0000 0.0000
# 3 37.4891 37.4887 207.4325 0.0000 0.0000 0.0000
# 4 0.0000 0.0000 0.0000 25.4522 0.0000 0.0000
# 5 0.0000 0.0000 0.0000 0.0000 25.4513 0.0000
# 6 0.0000 0.0000 0.0000 0.0000 0.0000 28.3559
#
#
#
# Elastic Compliance Matrix: (Units=1/GPa)
#
#
# Indices 1 2 3 4 5 6 
#
# 1 0.031684 -0.018811 -0.002327 0.000000 0.000000 0.000000
# 2 -0.018811 0.031682 -0.002326 0.000000 0.000000 0.000000
# 3 -0.002327 -0.002326 0.005662 0.000000 0.000000 0.000000
# 4 0.000000 0.000000 0.000000 0.039289 0.000000 0.000000
# 5 0.000000 0.000000 0.000000 0.000000 0.039291 0.000000
# 6 0.000000 0.000000 0.000000 0.000000 0.000000 0.035266
#
#
# Mechanical properties :
#
#
# Convention : Reuss Voigt Hill
#
# Bulk Modulus (GPa) = 45.24615 59.98409 52.61512
# Shear Modulus (GPa) = 21.08206 29.70377 25.39292
#
# Velocity S-wave (km/s) = 3.16320 3.75471 3.47158
# Velocity P-wave (km/s) = 5.90047 6.87506 6.40632
#
# Compressibility (1/GPa) = 0.02210133
#
# Stress axis : x y z
#
# Youngs Moduli (GPa) = 31.56159 31.56320 176.62352
#
# Poissons Ratio (x) = 0.59372 0.41094
# Poissons Ratio (y) = 0.59369 0.41087
# Poissons Ratio (z) = 0.07343 0.07342
#
# Static dielectric constant tensor:
#      x y z
#    x 1.786230 0.000000 0.000000 
#    y 0.000000 1.786230 0.000000 
#    z 0.000000 0.000000 1.808770 
# 
# From -- ./inp_files/3343.got.cif
#   From: 2010.05.17/outbox.cif.g08.bks.cpg/sg139_2_cif.got.tgz:3343.got - 2010.05.20 13:14:44.
