data_PCOD9571009
_publ_section_title
;
Structure prediction by ZEFSAII (Michael W. Deem and Ramdas Pophale) SiO2 
 PCOD9571009
Probable space group: P 42/N C M
;
_chemical_formula_sum "Si O2"
_cell_formula_units_Z 112
_cell_length_a 13.836387
_cell_length_b 13.836387
_cell_length_c 26.495657
_cell_angle_alpha 90.000000
_cell_angle_beta 90.000000
_cell_angle_gamma 90.000000
_cell_volume 5072.477090
_symmetry_space_group_name_H-M "P 42/N C M"
_symmetry_group_IT_number 138
_space_group.IT_coordinate_system_code '2'
_symmetry_cell_setting 'tetragonal'
loop_
_space_group_symop_operation_xyz
x,y,z
1/2-y,x,1/2+z
1/2-x,1/2-y,z
y,1/2-x,1/2+z
1/2+x,-y,1/2-z
-x,1/2+y,1/2-z
1/2+y,1/2+x,-z
-y,-x,-z
-x,-y,-z
1/2+y,-x,1/2-z
1/2+x,1/2+y,-z
-y,1/2+x,1/2-z
1/2-x,y,1/2+z
x,1/2-y,1/2+z
1/2-y,1/2-x,z
y,x,z
loop_
_atom_site_type_symbol
_atom_site_label
_atom_site_fract_x
_atom_site_fract_y
_atom_site_fract_z
Si Si1 0.987177 0.667448 0.145866
Si Si2 0.550990 0.789352 0.449429
Si Si3 0.180647 0.536562 0.969678
Si Si4 0.374054 0.966830 0.328257
Si Si5 0.743944 0.903203 0.334627
Si Si6 0.167042 0.829999 0.918968
Si Si7 0.619948 0.454094 0.288531
O O1 0.007567 0.647805 0.086648
O O2 0.080859 0.632448 0.177268
O O3 0.896991 0.603010 0.161853
O O4 0.970231 0.778770 0.159001
O O5 0.613563 0.886438 0.460064
O O6 0.552454 0.713983 0.495418
O O7 0.587168 0.752267 0.395160
O O8 0.435807 0.800334 0.441217
O O9 0.277932 0.595598 0.955452
O O10 0.103305 0.603305 0.000000
O O11 0.468933 0.031068 0.337708
O O12 0.362157 0.879855 0.366845
O O13 0.372856 0.933968 0.270473
O O14 0.638274 0.861727 0.321054
O O15 0.820915 0.820915 0.319855
O O16 0.780622 0.000303 0.308847
O O17 0.250000 0.750000 0.911558
O O18 0.538210 0.538210 0.294468
#
# Coordination Sequence:
#
# PCOD9571009 Si02
#       7
#    16  16  16  16  16  16  16
#     4  10  23  41  63  92 128 169 208 255 320 390
#     4  11  23  37  62  91 121 165 213 261 323 384
#     4  11  22  38  60  87 122 161 209 261 317 383
#     4  10  23  42  64  92 128 166 214 269 321 387
#     4   9  19  36  60  91 124 160 207 261 315 377
#     4  11  23  40  63  87 123 163 209 268 321 383
#     4   9  19  39  62  87 123 165 209 259 313 380
#
# _framework density 22.079941000000002
#
# number of rings (size 3 to 8) (size 9 to 14) (size 15 to 20)
#    0.000    1.857    1.429    1.714    2.000    6.286 
#    0.000    4.286    0.000    0.000    0.000    0.000 
#    0.000    0.000    0.000    0.000    0.000    0.000 
#
# Total GULP energy -625387.319281 kJ/mol
# GULP energy per Si atom -5583.815351 kJ/mol
# Density = 2.202969 g / cm^3
# Si number density = 22.079941 Si / 1000 Ang^3
#
#
#
# Elastic Constant Matrix: (Units=GPa)
#
#
# Indices 1 2 3 4 5 6 
#
# 1 89.8703 37.9823 36.3314 0.0000 0.0000 0.0000
# 2 37.9823 89.8703 36.3314 0.0000 0.0000 0.0000
# 3 36.3314 36.3314 118.8988 0.0000 0.0000 0.0000
# 4 0.0000 0.0000 0.0000 16.3522 0.0000 0.0000
# 5 0.0000 0.0000 0.0000 0.0000 16.3522 0.0000
# 6 0.0000 0.0000 0.0000 0.0000 0.0000 37.3166
#
#
#
# Elastic Compliance Matrix: (Units=1/GPa)
#
#
# Indices 1 2 3 4 5 6 
#
# 1 0.014369 -0.004903 -0.002892 0.000000 0.000000 0.000000
# 2 -0.004903 0.014369 -0.002892 0.000000 0.000000 0.000000
# 3 -0.002892 -0.002892 0.010178 0.000000 0.000000 0.000000
# 4 0.000000 0.000000 0.000000 0.061154 0.000000 0.000000
# 5 0.000000 0.000000 0.000000 0.000000 0.061154 0.000000
# 6 0.000000 0.000000 0.000000 0.000000 0.000000 0.026798
#
#
# Mechanical properties :
#
#
# Convention : Reuss Voigt Hill
#
# Bulk Modulus (GPa) = 57.01398 57.76997 57.39198
# Shear Modulus (GPa) = 23.22951 26.53716 24.88333
#
# Velocity S-wave (km/s) = 3.24707 3.47056 3.36067
# Velocity P-wave (km/s) = 6.31947 6.50235 6.41156
#
# Compressibility (1/GPa) = 0.01753956
#
# Stress axis : x y z
#
# Youngs Moduli (GPa) = 69.59540 69.59540 98.25043
#
# Poissons Ratio (x) = 0.34126 0.28417
# Poissons Ratio (y) = 0.34126 0.28417
# Poissons Ratio (z) = 0.20129 0.20129
#
# Static dielectric constant tensor:
#      x y z
#    x 1.852540 0.000000 0.000000 
#    y 0.000000 1.852540 0.000000 
#    z 0.000000 0.000000 1.821890 
# 
# From -- ./inp_files/7044.got.cif
#   From: 2010.05.17/outbox.cif.g08.bks.cpg/sg138_4_cif.got.tgz:7044.got - 2010.05.20 13:08:53.
