data_PCOD9571870
_publ_section_title
;
Structure prediction by ZEFSAII (Michael W. Deem and Ramdas Pophale) SiO2 
 PCOD9571870
Probable space group: I 4/M M M
;
_chemical_formula_sum "Si O2"
_cell_formula_units_Z 192
_cell_length_a 18.444186
_cell_length_b 18.444186
_cell_length_c 28.280328
_cell_angle_alpha 90.000000
_cell_angle_beta 90.000000
_cell_angle_gamma 90.000000
_cell_volume 9620.628143
_symmetry_space_group_name_H-M "I 4/M M M"
_symmetry_group_IT_number 139
_symmetry_cell_setting 'tetragonal'
loop_
_space_group_symop_operation_xyz
x,y,z
-y,x,z
-x,-y,z
y,-x,z
x,-y,-z
-x,y,-z
y,x,-z
-y,-x,-z
-x,-y,-z
y,-x,-z
x,y,-z
-y,x,-z
-x,y,z
x,-y,z
-y,-x,z
y,x,z
1/2+x,1/2+y,1/2+z
1/2-y,1/2+x,1/2+z
1/2-x,1/2-y,1/2+z
1/2+y,1/2-x,1/2+z
1/2+x,1/2-y,1/2-z
1/2-x,1/2+y,1/2-z
1/2+y,1/2+x,1/2-z
1/2-y,1/2-x,1/2-z
1/2-x,1/2-y,1/2-z
1/2+y,1/2-x,1/2-z
1/2+x,1/2+y,1/2-z
1/2-y,1/2+x,1/2-z
1/2-x,1/2+y,1/2+z
1/2+x,1/2-y,1/2+z
1/2-y,1/2-x,1/2+z
1/2+y,1/2+x,1/2+z
loop_
_atom_site_type_symbol
_atom_site_label
_atom_site_fract_x
_atom_site_fract_y
_atom_site_fract_z
Si Si1 0.681996 0.681996 0.106481
Si Si2 0.206244 0.085496 0.053578
Si Si3 0.080247 0.413565 0.000000
Si Si4 0.583251 0.180075 0.363628
Si Si5 0.585723 0.585723 0.947660
Si Si6 0.816600 0.414271 0.088465
Si Si7 0.416454 0.795532 0.256693
Si Si8 0.699322 0.699322 0.783820
O O1 0.620999 0.620999 0.098254
O O2 0.641217 0.750227 0.083393
O O3 0.704521 0.704521 0.159489
O O4 0.136469 0.136469 0.059145
O O5 0.263343 0.101594 0.094892
O O6 0.188369 0.000000 0.056884
O O7 0.235016 0.098401 0.000000
O O8 0.127511 0.400295 0.046076
O O9 0.070584 0.500000 0.000000
O O10 0.000000 0.379447 0.000000
O O11 0.500000 0.155506 0.370640
O O12 0.638136 0.112631 0.366084
O O13 0.587594 0.218214 0.313038
O O14 0.500000 0.598635 0.947088
O O15 0.612513 0.612513 0.000000
O O16 0.797238 0.500000 0.089555
O O17 0.500000 0.806851 0.243597
O O18 0.366838 0.866838 0.250000
O O19 0.380051 0.728165 0.229673
O O20 0.750000 0.750000 0.750000
#
# Coordination Sequence:
#
# PCOD9571870 Si02
#       8
#    16  32  16  32  16  32  32  16
#     4  12  25  38  62  95 120 156 216 265 308 376
#     4   9  19  35  57  88 125 162 199 243 294 353
#     4   9  20  39  60  84 119 164 202 233 287 359
#     4  10  22  38  61  89 117 158 206 249 304 376
#     4   9  20  40  64  88 125 173 209 252 321 390
#     4  11  24  39  59  88 124 164 204 256 309 365
#     4  10  22  40  63  90 117 155 204 256 319 380
#     4  10  22  41  63  86 120 166 202 255 330 395
#
# _framework density 19.957115999999999
#
# number of rings (size 3 to 8) (size 9 to 14) (size 15 to 20)
#    0.000    2.000    0.000    3.250    4.667    4.667 
#    0.000    2.500    0.000    0.250    0.000    0.000 
#    0.000    0.000    0.000    0.000    0.000    0.000 
#
# Total GULP energy -535469.339587 kJ/mol
# GULP energy per Si atom -5577.805621 kJ/mol
# Density = 1.991169 g / cm^3
# Si number density = 19.957116 Si / 1000 Ang^3
#
#
#
# Elastic Constant Matrix: (Units=GPa)
#
#
# Indices 1 2 3 4 5 6 
#
# 1 51.0119 121.5882 31.6588 0.0000 0.0000 0.0000
# 2 121.5882 51.0119 31.6588 0.0000 0.0000 0.0000
# 3 31.6588 31.6588 69.3447 0.0000 0.0000 0.0000
# 4 0.0000 0.0000 0.0000 41.1355 0.0000 0.0000
# 5 0.0000 0.0000 0.0000 0.0000 41.1355 0.0000
# 6 0.0000 0.0000 0.0000 0.0000 0.0000 37.1291
#
#
#
# Elastic Compliance Matrix: (Units=1/GPa)
#
#
# Indices 1 2 3 4 5 6 
#
# 1 -0.003605 0.010564 -0.003177 0.000000 0.000000 0.000000
# 2 0.010564 -0.003605 -0.003177 0.000000 0.000000 0.000000
# 3 -0.003177 -0.003177 0.017322 0.000000 0.000000 0.000000
# 4 0.000000 0.000000 0.000000 0.024310 0.000000 0.000000
# 5 0.000000 0.000000 0.000000 0.000000 0.024310 0.000000
# 6 0.000000 0.000000 0.000000 0.000000 0.000000 0.026933
#
#
# Mechanical properties :
#
#
# Convention : Reuss Voigt Hill
#
# Bulk Modulus (GPa) = 53.96215 60.13112 57.04664
# Shear Modulus (GPa) = 59.93592 22.97756 41.45674
#
# Velocity S-wave (km/s) = 5.48612 3.39683 4.56268
# Velocity P-wave (km/s) = 8.19926 6.75131 7.51026
#
# Compressibility (1/GPa) = 0.01853151
#
# Stress axis : x y z
#
# Youngs Moduli (GPa) = -277.40108 -277.40108 57.73087
#
# Poissons Ratio (x) = 2.93051 0.18342
# Poissons Ratio (y) = 2.93051 0.18342
# Poissons Ratio (z) = -0.88136 -0.88136
#
# Static dielectric constant tensor:
#      x y z
#    x 1.724940 0.000000 0.000000 
#    y 0.000000 1.724940 0.000000 
#    z 0.000000 0.000000 1.824380 
# 
# From -- ./inp_files/14404.got.cif
#   From: 2010.05.17/outbox.cif.g08.bks.cpg/sg139_8_cif.got.tgz:14404.got - 2010.05.20 13:14:44.
