data_PCOD9571697
_publ_section_title
;
Structure prediction by ZEFSAII (Michael W. Deem and Ramdas Pophale) SiO2 
 PCOD9571697
Probable space group: I 4/M M M
;
_chemical_formula_sum "Si O2"
_cell_formula_units_Z 160
_cell_length_a 29.917005
_cell_length_b 29.917005
_cell_length_c 9.067765
_cell_angle_alpha 90.000000
_cell_angle_beta 90.000000
_cell_angle_gamma 90.000000
_cell_volume 8115.896211
_symmetry_space_group_name_H-M "I 4/M M M"
_symmetry_group_IT_number 139
_symmetry_cell_setting 'tetragonal'
loop_
_space_group_symop_operation_xyz
x,y,z
-y,x,z
-x,-y,z
y,-x,z
x,-y,-z
-x,y,-z
y,x,-z
-y,-x,-z
-x,-y,-z
y,-x,-z
x,y,-z
-y,x,-z
-x,y,z
x,-y,z
-y,-x,z
y,x,z
1/2+x,1/2+y,1/2+z
1/2-y,1/2+x,1/2+z
1/2-x,1/2-y,1/2+z
1/2+y,1/2-x,1/2+z
1/2+x,1/2-y,1/2-z
1/2-x,1/2+y,1/2-z
1/2+y,1/2+x,1/2-z
1/2-y,1/2-x,1/2-z
1/2-x,1/2-y,1/2-z
1/2+y,1/2-x,1/2-z
1/2+x,1/2+y,1/2-z
1/2-y,1/2+x,1/2-z
1/2-x,1/2+y,1/2+z
1/2+x,1/2-y,1/2+z
1/2-y,1/2-x,1/2+z
1/2+y,1/2+x,1/2+z
loop_
_atom_site_type_symbol
_atom_site_label
_atom_site_fract_x
_atom_site_fract_y
_atom_site_fract_z
Si Si1 0.919540 0.224500 0.825635
Si Si2 0.500000 0.330523 0.176308
Si Si3 0.000000 0.925259 0.826638
Si Si4 0.446833 0.190333 0.163545
Si Si5 0.179229 0.744844 0.826960
Si Si6 0.106903 0.447482 0.664478
O O1 0.939386 0.272670 0.786707
O O2 0.867685 0.232290 0.776329
O O3 0.954382 0.191453 0.743163
O O4 0.919927 0.214072 0.000000
O O5 0.500000 0.382178 0.224278
O O6 0.500000 0.324121 0.000000
O O7 0.043099 0.956902 0.802960
O O8 0.000000 0.911795 0.000000
O O9 0.500000 0.185733 0.147446
O O10 0.427901 0.144738 0.228712
O O11 0.429139 0.201961 0.000000
O O12 0.216873 0.783128 0.813380
O O13 0.200812 0.700812 0.750000
O O14 0.172839 0.734280 0.000000
O O15 0.107549 0.428974 0.500000
O O16 0.114872 0.500000 0.653255
O O17 0.061431 0.438570 0.750000
#
# Coordination Sequence:
#
# PCOD9571697 Si02
#       6
#    32  16  16  32  32  32
#     4  11  22  37  60  87 119 160 202 249 303 364
#     4  12  25  39  59  94 134 170 213 265 322 379
#     4   9  20  42  70  96 126 170 220 265 313 375
#     4  10  20  35  55  78 107 141 178 227 283 344
#     4   9  20  39  61  86 116 153 198 247 301 362
#     4  10  21  36  54  76 103 137 179 227 280 344
#
# _framework density 19.714397999999999
#
# number of rings (size 3 to 8) (size 9 to 14) (size 15 to 20)
#    0.000    1.900    1.000    3.000    0.000    5.800 
#    0.000    5.500    0.000    0.000    0.000    0.000 
#    0.000    0.000    0.000    0.000    0.000    0.000 
#
# Total GULP energy -445404.224449 kJ/mol
# GULP energy per Si atom -5567.552806 kJ/mol
# Density = 1.966953 g / cm^3
# Si number density = 19.714398 Si / 1000 Ang^3
#
#
#
# Elastic Constant Matrix: (Units=GPa)
#
#
# Indices 1 2 3 4 5 6 
#
# 1 61.2514 45.1358 37.8645 0.0000 0.0000 0.0000
# 2 45.1358 61.2362 37.8604 0.0000 0.0000 0.0000
# 3 37.8645 37.8604 69.2980 0.0000 0.0000 0.0000
# 4 0.0000 0.0000 0.0000 18.8410 0.0000 0.0000
# 5 0.0000 0.0000 0.0000 0.0000 18.8412 0.0000
# 6 0.0000 0.0000 0.0000 0.0000 0.0000 -3.4425
#
#
#
# Elastic Compliance Matrix: (Units=1/GPa)
#
#
# Indices 1 2 3 4 5 6 
#
# 1 0.038727 -0.023349 -0.008404 0.000000 0.000000 0.000000
# 2 -0.023349 0.038737 -0.008406 0.000000 0.000000 0.000000
# 3 -0.008404 -0.008406 0.023615 0.000000 0.000000 0.000000
# 4 0.000000 0.000000 0.000000 0.053076 0.000000 0.000000
# 5 0.000000 0.000000 0.000000 0.000000 0.053075 0.000000
# 6 0.000000 0.000000 0.000000 0.000000 0.000000 -0.290490
#
#
# Mechanical properties :
#
#
# Convention : Reuss Voigt Hill
#
# Bulk Modulus (GPa) = 48.16601 48.16746 48.16673
# Shear Modulus (GPa) = 1257.06102 11.57628 634.31865
#
# Velocity S-wave (km/s) = 25.27885 2.42585 17.95696
# Velocity P-wave (km/s) = 29.60594 5.68612 21.31718
#
# Compressibility (1/GPa) = 0.02076153
#
# Stress axis : x y z
#
# Youngs Moduli (GPa) = 25.82178 25.81499 42.34604
#
# Poissons Ratio (x) = 0.60275 0.35588
# Poissons Ratio (y) = 0.60291 0.35596
# Poissons Ratio (z) = 0.21701 0.21700
#
# Static dielectric constant tensor:
#      x y z
#    x 1.759060 0.000000 0.000000 
#    y 0.000000 1.759050 0.000000 
#    z 0.000000 0.000000 1.729290 
# 
# From -- ./inp_files/2256.got.cif
#   From: 2010.05.17/outbox.cif.g08.bks.cpg/sg139_2_cif.got.tgz:2256.got - 2010.05.20 13:14:44.
