data_PCOD9571063
_publ_section_title
;
Structure prediction by ZEFSAII (Michael W. Deem and Ramdas Pophale) SiO2 
 PCOD9571063
Probable space group: P 42/N C M
;
_chemical_formula_sum "Si O2"
_cell_formula_units_Z 64
_cell_length_a 12.540920
_cell_length_b 12.540920
_cell_length_c 19.491561
_cell_angle_alpha 90.000000
_cell_angle_beta 90.000000
_cell_angle_gamma 90.000000
_cell_volume 3065.528911
_symmetry_space_group_name_H-M "P 42/N C M"
_symmetry_group_IT_number 138
_space_group.IT_coordinate_system_code '2'
_symmetry_cell_setting 'tetragonal'
loop_
_space_group_symop_operation_xyz
x,y,z
1/2-y,x,1/2+z
1/2-x,1/2-y,z
y,1/2-x,1/2+z
1/2+x,-y,1/2-z
-x,1/2+y,1/2-z
1/2+y,1/2+x,-z
-y,-x,-z
-x,-y,-z
1/2+y,-x,1/2-z
1/2+x,1/2+y,-z
-y,1/2+x,1/2-z
1/2-x,y,1/2+z
x,1/2-y,1/2+z
1/2-y,1/2-x,z
y,x,z
loop_
_atom_site_type_symbol
_atom_site_label
_atom_site_fract_x
_atom_site_fract_y
_atom_site_fract_z
Si Si1 0.081525 0.249479 0.351332
Si Si2 0.140207 0.538223 0.594863
Si Si3 0.247002 0.581114 0.236896
Si Si4 0.236042 0.933032 0.469133
O O1 0.152773 0.347228 0.379151
O O2 0.162203 0.162203 0.322408
O O3 0.008899 0.289318 0.289242
O O4 0.012402 0.195276 0.411031
O O5 0.200453 0.540440 0.667047
O O6 0.217385 0.501658 0.533530
O O7 0.116393 0.660362 0.570776
O O8 0.034901 0.465100 0.596912
O O9 0.150486 0.662296 0.224242
O O10 0.153995 0.846006 0.500000
#
# Coordination Sequence:
#
# PCOD9571063 Si02
#       4
#    16  16  16  16
#     4  11  24  43  64  90 131 176 213 260 326 390
#     4  11  21  36  62  92 123 161 210 268 327 382
#     4  11  23  38  64  94 126 165 210 269 318 383
#     4  11  22  38  62  89 125 165 211 267 318 380
#
# _framework density 20.877312
#
# number of rings (size 3 to 8) (size 9 to 14) (size 15 to 20)
#    0.000    1.000    2.500    6.750    3.500    1.500 
#    0.000    1.250    0.000    4.500    0.000    0.000 
#    0.000    0.000    0.000    0.000    0.000    0.000 
#
# Total GULP energy -357211.545768 kJ/mol
# GULP energy per Si atom -5581.430403 kJ/mol
# Density = 2.082979 g / cm^3
# Si number density = 20.877312 Si / 1000 Ang^3
#
#
#
# Elastic Constant Matrix: (Units=GPa)
#
#
# Indices 1 2 3 4 5 6 
#
# 1 53.1563 22.4617 24.5589 0.0000 0.0000 0.0000
# 2 22.4617 53.1549 24.5586 0.0000 0.0000 0.0000
# 3 24.5589 24.5586 108.7778 0.0000 0.0000 0.0000
# 4 0.0000 0.0000 0.0000 21.6584 0.0000 0.0000
# 5 0.0000 0.0000 0.0000 0.0000 21.6583 0.0000
# 6 0.0000 0.0000 0.0000 0.0000 0.0000 39.3399
#
#
#
# Elastic Compliance Matrix: (Units=1/GPa)
#
#
# Indices 1 2 3 4 5 6 
#
# 1 0.024038 -0.008541 -0.003499 0.000000 0.000000 0.000000
# 2 -0.008541 0.024039 -0.003499 0.000000 0.000000 0.000000
# 3 -0.003499 -0.003499 0.010773 0.000000 0.000000 0.000000
# 4 0.000000 0.000000 0.000000 0.046172 0.000000 0.000000
# 5 0.000000 0.000000 0.000000 0.000000 0.046172 0.000000
# 6 0.000000 0.000000 0.000000 0.000000 0.000000 0.025419
#
#
# Mechanical properties :
#
#
# Convention : Reuss Voigt Hill
#
# Bulk Modulus (GPa) = 36.00745 39.80526 37.90636
# Shear Modulus (GPa) = 23.04705 26.09864 24.57284
#
# Velocity S-wave (km/s) = 3.32615 3.53950 3.43448
# Velocity P-wave (km/s) = 5.66000 5.98430 5.82441
#
# Compressibility (1/GPa) = 0.02777203
#
# Stress axis : x y z
#
# Youngs Moduli (GPa) = 41.60061 41.59953 92.82558
#
# Poissons Ratio (x) = 0.35531 0.32477
# Poissons Ratio (y) = 0.35532 0.32478
# Poissons Ratio (z) = 0.14555 0.14555
#
# Static dielectric constant tensor:
#      x y z
#    x 1.794550 0.000000 0.000000 
#    y 0.000000 1.794540 0.000000 
#    z 0.000000 0.000000 1.744200 
# 
# From -- ./inp_files/5839.got.cif
#   From: 2010.05.17/outbox.cif.g08.bks.cpg/sg138_3_cif.got.tgz:5839.got - 2010.05.20 13:08:53.
