data_PCOD9571477
_publ_section_title
;
Structure prediction by ZEFSAII (Michael W. Deem and Ramdas Pophale) SiO2 
 PCOD9571477
Probable space group: I 4/M M M
;
_chemical_formula_sum "Si O2"
_cell_formula_units_Z 160
_cell_length_a 23.385387
_cell_length_b 23.385387
_cell_length_c 15.622645
_cell_angle_alpha 90.000000
_cell_angle_beta 90.000000
_cell_angle_gamma 90.000000
_cell_volume 8543.654687
_symmetry_space_group_name_H-M "I 4/M M M"
_symmetry_group_IT_number 139
_symmetry_cell_setting 'tetragonal'
loop_
_space_group_symop_operation_xyz
x,y,z
-y,x,z
-x,-y,z
y,-x,z
x,-y,-z
-x,y,-z
y,x,-z
-y,-x,-z
-x,-y,-z
y,-x,-z
x,y,-z
-y,x,-z
-x,y,z
x,-y,z
-y,-x,z
y,x,z
1/2+x,1/2+y,1/2+z
1/2-y,1/2+x,1/2+z
1/2-x,1/2-y,1/2+z
1/2+y,1/2-x,1/2+z
1/2+x,1/2-y,1/2-z
1/2-x,1/2+y,1/2-z
1/2+y,1/2+x,1/2-z
1/2-y,1/2-x,1/2-z
1/2-x,1/2-y,1/2-z
1/2+y,1/2-x,1/2-z
1/2+x,1/2+y,1/2-z
1/2-y,1/2+x,1/2-z
1/2-x,1/2+y,1/2+z
1/2+x,1/2-y,1/2+z
1/2-y,1/2-x,1/2+z
1/2+y,1/2+x,1/2+z
loop_
_atom_site_type_symbol
_atom_site_label
_atom_site_fract_x
_atom_site_fract_y
_atom_site_fract_z
Si Si1 0.843482 0.067642 0.245619
Si Si2 0.065450 0.355835 0.638795
Si Si3 0.566007 0.834207 0.343818
Si Si4 0.069622 0.769439 0.592389
Si Si5 0.867668 0.222755 0.898517
O O1 0.905551 0.094450 0.257084
O O2 0.804252 0.088765 0.324759
O O3 0.817202 0.091110 0.157900
O O4 0.843438 0.000000 0.245634
O O5 0.106453 0.408891 0.620816
O O6 0.065406 0.342047 0.740838
O O7 0.086867 0.296763 0.597998
O O8 0.000000 0.366521 0.613084
O O9 0.500000 0.821459 0.369611
O O10 0.611748 0.785594 0.369554
O O11 0.086931 0.793552 0.500000
O O12 0.000000 0.769167 0.595590
O O13 0.803806 0.196195 0.882092
O O14 0.877178 0.218213 0.000000
#
# Coordination Sequence:
#
# PCOD9571477 Si02
#       5
#    32  32  32  32  32
#     4  10  20  35  55  80 109 140 178 225 280 342
#     4   9  18  33  53  81 115 149 187 232 279 326
#     4  10  19  33  55  82 114 152 190 229 278 337
#     4   9  17  32  54  75 100 139 182 221 263 315
#     4  10  21  37  57  81 109 143 186 235 283 330
#
# _framework density 18.727347999999999
#
# number of rings (size 3 to 8) (size 9 to 14) (size 15 to 20)
#    0.000    2.400    2.000    0.600    0.000    3.400 
#    0.000    5.000    0.000    0.000    0.000    9.800 
#    0.000    0.000    0.000    0.000    0.000    0.000 
#
# Total GULP energy -445578.054492 kJ/mol
# GULP energy per Si atom -5569.725681 kJ/mol
# Density = 1.868472 g / cm^3
# Si number density = 18.727348 Si / 1000 Ang^3
#
#
#
# Elastic Constant Matrix: (Units=GPa)
#
#
# Indices 1 2 3 4 5 6 
#
# 1 79.5772 44.5529 13.7334 0.0000 0.0000 0.0000
# 2 44.5529 79.5772 13.7334 0.0000 0.0000 0.0000
# 3 13.7334 13.7334 51.0629 0.0000 0.0000 0.0000
# 4 0.0000 0.0000 0.0000 6.9188 0.0000 0.0000
# 5 0.0000 0.0000 0.0000 0.0000 6.9188 0.0000
# 6 0.0000 0.0000 0.0000 0.0000 0.0000 30.0603
#
#
#
# Elastic Compliance Matrix: (Units=1/GPa)
#
#
# Indices 1 2 3 4 5 6 
#
# 1 0.018559 -0.009993 -0.002304 0.000000 0.000000 0.000000
# 2 -0.009993 0.018559 -0.002304 0.000000 0.000000 0.000000
# 3 -0.002304 -0.002304 0.020823 0.000000 0.000000 0.000000
# 4 0.000000 0.000000 0.000000 0.144534 0.000000 0.000000
# 5 0.000000 0.000000 0.000000 0.000000 0.144534 0.000000
# 6 0.000000 0.000000 0.000000 0.000000 0.000000 0.033266
#
#
# Mechanical properties :
#
#
# Convention : Reuss Voigt Hill
#
# Bulk Modulus (GPa) = 34.79542 39.36187 37.07864
# Shear Modulus (GPa) = 11.93158 17.99275 14.96216
#
# Velocity S-wave (km/s) = 2.52686 3.10300 2.82963
# Velocity P-wave (km/s) = 5.20900 5.82256 5.52430
#
# Compressibility (1/GPa) = 0.02873941
#
# Stress axis : x y z
#
# Youngs Moduli (GPa) = 53.88309 53.88309 48.02402
#
# Poissons Ratio (x) = 0.53845 0.11064
# Poissons Ratio (y) = 0.53845 0.11064
# Poissons Ratio (z) = 0.12414 0.12414
#
# Static dielectric constant tensor:
#      x y z
#    x 1.654340 0.000000 0.000000 
#    y 0.000000 1.654340 0.000000 
#    z 0.000000 0.000000 1.679710 
# 
# From -- ./inp_files/5937.got.cif
#   From: 2010.05.17/outbox.cif.g08.bks.cpg/sg139_3_cif.got.tgz:5937.got - 2010.05.20 13:14:44.
