data_PCOD9571432
_publ_section_title
;
Structure prediction by ZEFSAII (Michael W. Deem and Ramdas Pophale) SiO2 
 PCOD9571432
Probable space group: I 4/M M M
;
_chemical_formula_sum "Si O2"
_cell_formula_units_Z 144
_cell_length_a 21.171862
_cell_length_b 21.171862
_cell_length_c 19.972635
_cell_angle_alpha 90.000000
_cell_angle_beta 90.000000
_cell_angle_gamma 90.000000
_cell_volume 8952.688512
_symmetry_space_group_name_H-M "I 4/M M M"
_symmetry_group_IT_number 139
_symmetry_cell_setting 'tetragonal'
loop_
_space_group_symop_operation_xyz
x,y,z
-y,x,z
-x,-y,z
y,-x,z
x,-y,-z
-x,y,-z
y,x,-z
-y,-x,-z
-x,-y,-z
y,-x,-z
x,y,-z
-y,x,-z
-x,y,z
x,-y,z
-y,-x,z
y,x,z
1/2+x,1/2+y,1/2+z
1/2-y,1/2+x,1/2+z
1/2-x,1/2-y,1/2+z
1/2+y,1/2-x,1/2+z
1/2+x,1/2-y,1/2-z
1/2-x,1/2+y,1/2-z
1/2+y,1/2+x,1/2-z
1/2-y,1/2-x,1/2-z
1/2-x,1/2-y,1/2-z
1/2+y,1/2-x,1/2-z
1/2+x,1/2+y,1/2-z
1/2-y,1/2+x,1/2-z
1/2-x,1/2+y,1/2+z
1/2+x,1/2-y,1/2+z
1/2-y,1/2-x,1/2+z
1/2+y,1/2+x,1/2+z
loop_
_atom_site_type_symbol
_atom_site_label
_atom_site_fract_x
_atom_site_fract_y
_atom_site_fract_z
Si Si1 0.000000 0.571984 0.419253
Si Si2 0.872523 0.231378 0.924436
Si Si3 0.927567 0.174068 0.793884
Si Si4 0.378759 0.842078 0.921557
Si Si5 0.238475 0.342868 0.200620
O O1 0.064450 0.609994 0.402829
O O2 0.000000 0.500000 0.392965
O O3 0.000000 0.567946 0.500000
O O4 0.804242 0.195759 0.915687
O O5 0.916364 0.202553 0.867727
O O6 0.869005 0.307062 0.917884
O O7 0.893334 0.216971 0.000000
O O8 0.892891 0.107110 0.791699
O O9 0.890591 0.219879 0.743660
O O10 0.000000 0.170244 0.777070
O O11 0.375502 0.787512 0.866094
O O12 0.388341 0.823400 0.000000
O O13 0.282749 0.282749 0.183742
O O14 0.183742 0.316259 0.250000
#
# Coordination Sequence:
#
# PCOD9571432 Si02
#       5
#    16  32  32  32  32
#     4   9  20  36  50  70 104 142 176 206 240 291
#     4   9  17  31  53  80 103 125 165 215 257 301
#     4  10  21  35  52  75 103 137 171 208 256 307
#     4  10  19  32  53  75  99 136 173 208 250 298
#     4  10  19  34  53  77 106 128 158 211 266 304
#
# _framework density 16.084554000000001
#
# number of rings (size 3 to 8) (size 9 to 14) (size 15 to 20)
#    0.000    2.333    2.222    0.667    1.556    2.889 
#    0.000    2.222    0.000    0.000    0.000    3.111 
#    0.000    0.000    0.000    4.889    0.000    0.000 
#
# Total GULP energy -401047.840438 kJ/mol
# GULP energy per Si atom -5570.108895 kJ/mol
# Density = 1.604795 g / cm^3
# Si number density = 16.084554 Si / 1000 Ang^3
#
#
#
# Elastic Constant Matrix: (Units=GPa)
#
#
# Indices 1 2 3 4 5 6 
#
# 1 84.2524 38.3888 32.5812 0.0000 0.0000 0.0000
# 2 38.3888 84.2488 32.5801 0.0000 0.0000 0.0000
# 3 32.5812 32.5801 73.5342 0.0000 0.0000 0.0000
# 4 0.0000 0.0000 0.0000 12.7656 0.0000 0.0000
# 5 0.0000 0.0000 0.0000 0.0000 12.7661 0.0000
# 6 0.0000 0.0000 0.0000 0.0000 0.0000 10.6948
#
#
#
# Elastic Compliance Matrix: (Units=1/GPa)
#
#
# Indices 1 2 3 4 5 6 
#
# 1 0.016234 -0.005570 -0.004725 0.000000 0.000000 0.000000
# 2 -0.005570 0.016235 -0.004725 0.000000 0.000000 0.000000
# 3 -0.004725 -0.004725 0.017786 0.000000 0.000000 0.000000
# 4 0.000000 0.000000 0.000000 0.078336 0.000000 0.000000
# 5 0.000000 0.000000 0.000000 0.000000 0.078332 0.000000
# 6 0.000000 0.000000 0.000000 0.000000 0.000000 0.093504
#
#
# Mechanical properties :
#
#
# Convention : Reuss Voigt Hill
#
# Bulk Modulus (GPa) = 49.46859 49.90393 49.68626
# Shear Modulus (GPa) = 14.82775 16.47765 15.65270
#
# Velocity S-wave (km/s) = 3.03951 3.20416 3.12292
# Velocity P-wave (km/s) = 6.56813 6.69195 6.63033
#
# Compressibility (1/GPa) = 0.02021485
#
# Stress axis : x y z
#
# Youngs Moduli (GPa) = 61.59796 61.59564 56.22330
#
# Poissons Ratio (x) = 0.34309 0.26566
# Poissons Ratio (y) = 0.34310 0.26566
# Poissons Ratio (z) = 0.29106 0.29105
#
# Static dielectric constant tensor:
#      x y z
#    x 1.533750 0.000000 0.000000 
#    y 0.000000 1.533750 0.000000 
#    z 0.000000 0.000000 1.543940 
# 
# From -- ./inp_files/10285.got.cif
#   From: 2010.05.17/outbox.cif.g08.bks.cpg/sg139_6_cif.got.tgz:10285.got - 2010.05.20 13:14:44.
