data_PCOD9571902
_publ_section_title
;
Structure prediction by ZEFSAII (Michael W. Deem and Ramdas Pophale) SiO2 
 PCOD9571902
Probable space group: I 4/M M M
;
_chemical_formula_sum "Si O2"
_cell_formula_units_Z 96
_cell_length_a 23.424413
_cell_length_b 23.424413
_cell_length_c 8.695934
_cell_angle_alpha 90.000000
_cell_angle_beta 90.000000
_cell_angle_gamma 90.000000
_cell_volume 4771.486155
_symmetry_space_group_name_H-M "I 4/M M M"
_symmetry_group_IT_number 139
_symmetry_cell_setting 'tetragonal'
loop_
_space_group_symop_operation_xyz
x,y,z
-y,x,z
-x,-y,z
y,-x,z
x,-y,-z
-x,y,-z
y,x,-z
-y,-x,-z
-x,-y,-z
y,-x,-z
x,y,-z
-y,x,-z
-x,y,z
x,-y,z
-y,-x,z
y,x,z
1/2+x,1/2+y,1/2+z
1/2-y,1/2+x,1/2+z
1/2-x,1/2-y,1/2+z
1/2+y,1/2-x,1/2+z
1/2+x,1/2-y,1/2-z
1/2-x,1/2+y,1/2-z
1/2+y,1/2+x,1/2-z
1/2-y,1/2-x,1/2-z
1/2-x,1/2-y,1/2-z
1/2+y,1/2-x,1/2-z
1/2+x,1/2+y,1/2-z
1/2-y,1/2+x,1/2-z
1/2-x,1/2+y,1/2+z
1/2+x,1/2-y,1/2+z
1/2-y,1/2-x,1/2+z
1/2+y,1/2+x,1/2+z
loop_
_atom_site_type_symbol
_atom_site_label
_atom_site_fract_x
_atom_site_fract_y
_atom_site_fract_z
Si Si1 0.157418 0.842583 0.680282
Si Si2 0.286462 0.878462 0.314936
Si Si3 0.433602 0.566399 0.685495
Si Si4 0.000000 0.698714 0.180911
Si Si5 0.081523 0.500000 0.172882
O O1 0.147032 0.852969 0.500000
O O2 0.148973 0.775488 0.708788
O O3 0.113243 0.886758 0.761518
O O4 0.295979 0.886960 0.500000
O O5 0.338104 0.838104 0.250000
O O6 0.276794 0.938427 0.224844
O O7 0.420822 0.500000 0.733490
O O8 0.433350 0.566650 0.500000
O O9 0.000000 0.646490 0.298005
O O10 0.000000 0.683664 0.000000
O O11 0.054900 0.554900 0.250000
O O12 0.064246 0.500000 0.000000
#
# Coordination Sequence:
#
# PCOD9571902 Si02
#       5
#    16  32  16  16  16
#     4  10  24  42  66  95 130 169 213 265 320 381
#     4  11  24  44  66  94 129 168 214 266 321 383
#     4   9  20  39  63  95 135 175 218 268 321 380
#     4  12  25  41  62  90 122 163 208 257 314 372
#     4  11  21  36  57  84 118 157 199 249 304 365
#
# _framework density 20.119516000000001
#
# number of rings (size 3 to 8) (size 9 to 14) (size 15 to 20)
#    0.000    1.333    0.000    6.500    2.333    3.333 
#    0.000    0.833    0.000    0.000    0.000    0.000 
#    0.000    0.000    0.000    0.000    0.000    0.000 
#
# Total GULP energy -267319.378526 kJ/mol
# GULP energy per Si atom -5569.153719 kJ/mol
# Density = 2.007372 g / cm^3
# Si number density = 20.119516 Si / 1000 Ang^3
#
#
#
# Elastic Constant Matrix: (Units=GPa)
#
#
# Indices 1 2 3 4 5 6 
#
# 1 147.1421 -3.9778 33.8407 0.0000 0.0000 0.0000
# 2 -3.9778 147.1471 33.8397 0.0000 0.0000 0.0000
# 3 33.8407 33.8397 89.5601 0.0000 0.0000 0.0000
# 4 0.0000 0.0000 0.0000 31.6541 0.0000 0.0000
# 5 0.0000 0.0000 0.0000 0.0000 31.6546 0.0000
# 6 0.0000 0.0000 0.0000 0.0000 0.0000 54.9158
#
#
#
# Elastic Compliance Matrix: (Units=1/GPa)
#
#
# Indices 1 2 3 4 5 6 
#
# 1 0.007561 0.000943 -0.003213 0.000000 0.000000 0.000000
# 2 0.000943 0.007560 -0.003213 0.000000 0.000000 0.000000
# 3 -0.003213 -0.003213 0.013594 0.000000 0.000000 0.000000
# 4 0.000000 0.000000 0.000000 0.031592 0.000000 0.000000
# 5 0.000000 0.000000 0.000000 0.000000 0.031591 0.000000
# 6 0.000000 0.000000 0.000000 0.000000 0.000000 0.018210
#
#
# Mechanical properties :
#
#
# Convention : Reuss Voigt Hill
#
# Bulk Modulus (GPa) = 56.34157 56.80606 56.57382
# Shear Modulus (GPa) = 39.37340 44.98803 42.18072
#
# Velocity S-wave (km/s) = 4.42857 4.73381 4.58373
# Velocity P-wave (km/s) = 7.36301 7.62720 7.49627
#
# Compressibility (1/GPa) = 0.01774888
#
# Stress axis : x y z
#
# Youngs Moduli (GPa) = 132.26355 132.26929 73.56259
#
# Poissons Ratio (x) = -0.12478 0.23638
# Poissons Ratio (y) = -0.12477 0.23636
# Poissons Ratio (z) = 0.42500 0.42499
#
# Static dielectric constant tensor:
#      x y z
#    x 1.919620 0.000000 0.000000 
#    y 0.000000 1.919640 0.000000 
#    z 0.000000 0.000000 1.735760 
# 
# From -- ./inp_files/1193.got.cif
#   From: 2010.05.17/outbox.cif.g08.bks.cpg/sg139_1_cif.got.tgz:1193.got - 2010.05.20 13:14:44.
