data_PCOD9571638
_publ_section_title
;
Structure prediction by ZEFSAII (Michael W. Deem and Ramdas Pophale) SiO2 
 PCOD9571638
Probable space group: I 4/M M M
;
_chemical_formula_sum "Si O2"
_cell_formula_units_Z 96
_cell_length_a 27.666664
_cell_length_b 27.666664
_cell_length_c 7.677435
_cell_angle_alpha 90.000000
_cell_angle_beta 90.000000
_cell_angle_gamma 90.000000
_cell_volume 5876.648835
_symmetry_space_group_name_H-M "I 4/M M M"
_symmetry_group_IT_number 139
_symmetry_cell_setting 'tetragonal'
loop_
_space_group_symop_operation_xyz
x,y,z
-y,x,z
-x,-y,z
y,-x,z
x,-y,-z
-x,y,-z
y,x,-z
-y,-x,-z
-x,-y,-z
y,-x,-z
x,y,-z
-y,x,-z
-x,y,z
x,-y,z
-y,-x,z
y,x,z
1/2+x,1/2+y,1/2+z
1/2-y,1/2+x,1/2+z
1/2-x,1/2-y,1/2+z
1/2+y,1/2-x,1/2+z
1/2+x,1/2-y,1/2-z
1/2-x,1/2+y,1/2-z
1/2+y,1/2+x,1/2-z
1/2-y,1/2-x,1/2-z
1/2-x,1/2-y,1/2-z
1/2+y,1/2-x,1/2-z
1/2+x,1/2+y,1/2-z
1/2-y,1/2+x,1/2-z
1/2-x,1/2+y,1/2+z
1/2+x,1/2-y,1/2+z
1/2-y,1/2-x,1/2+z
1/2+y,1/2+x,1/2+z
loop_
_atom_site_type_symbol
_atom_site_label
_atom_site_fract_x
_atom_site_fract_y
_atom_site_fract_z
Si Si1 0.056144 0.133039 0.702888
Si Si2 0.556244 0.214158 0.500000
Si Si3 0.134826 0.555465 0.797788
Si Si4 0.612398 0.310614 0.500000
O O1 0.061034 0.147514 0.500000
O O2 0.080294 0.080294 0.719930
O O3 0.085965 0.167128 0.830768
O O4 0.000000 0.133045 0.748756
O O5 0.500000 0.233235 0.500000
O O6 0.561541 0.179945 0.331422
O O7 0.597570 0.254737 0.500000
O O8 0.117724 0.500000 0.775018
O O9 0.093066 0.593066 0.750000
O O10 0.148510 0.561827 0.000000
O O11 0.666761 0.333240 0.500000
#
# Coordination Sequence:
#
# PCOD9571638 Si02
#       4
#    32  16  32  16
#     4   9  17  28  43  65  93 125 161 204 257 317
#     4  10  20  34  53  78 106 138 177 218 261 308
#     4  10  20  34  54  82 112 143 174 203 244 301
#     4  10  20  34  51  70  96 130 174 225 271 307
#
# _framework density 16.335840999999999
#
# number of rings (size 3 to 8) (size 9 to 14) (size 15 to 20)
#    0.000    2.333    1.667    1.500    0.000    2.000 
#    0.000    6.667    0.000    4.000    0.000    0.000 
#    0.000    0.000    0.000    0.000    0.000    0.000 
#
# Total GULP energy -267432.976376 kJ/mol
# GULP energy per Si atom -5571.520341 kJ/mol
# Density = 1.629866 g / cm^3
# Si number density = 16.335841 Si / 1000 Ang^3
#
#
#
# Elastic Constant Matrix: (Units=GPa)
#
#
# Indices 1 2 3 4 5 6 
#
# 1 78.8644 52.0905 38.2410 0.0000 0.0000 0.0000
# 2 52.0905 78.8651 38.2411 0.0000 0.0000 0.0000
# 3 38.2410 38.2411 86.3110 0.0000 0.0000 0.0000
# 4 0.0000 0.0000 0.0000 13.3169 0.0000 0.0000
# 5 0.0000 0.0000 0.0000 0.0000 13.3163 0.0000
# 6 0.0000 0.0000 0.0000 0.0000 0.0000 24.7769
#
#
#
# Elastic Compliance Matrix: (Units=1/GPa)
#
#
# Indices 1 2 3 4 5 6 
#
# 1 0.023826 -0.013524 -0.004564 0.000000 0.000000 0.000000
# 2 -0.013524 0.023826 -0.004564 0.000000 0.000000 0.000000
# 3 -0.004564 -0.004564 0.015631 0.000000 0.000000 0.000000
# 4 0.000000 0.000000 0.000000 0.075093 0.000000 0.000000
# 5 0.000000 0.000000 0.000000 0.000000 0.075096 0.000000
# 6 0.000000 0.000000 0.000000 0.000000 0.000000 0.040360
#
#
# Mechanical properties :
#
#
# Convention : Reuss Voigt Hill
#
# Bulk Modulus (GPa) = 55.62680 55.68729 55.65704
# Shear Modulus (GPa) = 16.38659 17.97989 17.18324
#
# Velocity S-wave (km/s) = 3.17062 3.32119 3.24678
# Velocity P-wave (km/s) = 6.89418 6.99072 6.94262
#
# Compressibility (1/GPa) = 0.01797695
#
# Stress axis : x y z
#
# Youngs Moduli (GPa) = 41.97139 41.97180 63.97697
#
# Poissons Ratio (x) = 0.56761 0.29202
# Poissons Ratio (y) = 0.56761 0.29201
# Poissons Ratio (z) = 0.19158 0.19157
#
# Static dielectric constant tensor:
#      x y z
#    x 1.538370 0.000000 0.000000 
#    y 0.000000 1.538360 0.000000 
#    z 0.000000 0.000000 1.563950 
# 
# From -- ./inp_files/1141.got.cif
#   From: 2010.05.17/outbox.cif.g08.bks.cpg/sg139_1_cif.got.tgz:1141.got - 2010.05.20 13:14:44.
