data_PCOD9571744
_publ_section_title
;
Structure prediction by ZEFSAII (Michael W. Deem and Ramdas Pophale) SiO2 
 PCOD9571744
Probable space group: I 4/M M M
;
_chemical_formula_sum "Si O2"
_cell_formula_units_Z 96
_cell_length_a 26.050175
_cell_length_b 26.050175
_cell_length_c 7.575814
_cell_angle_alpha 90.000000
_cell_angle_beta 90.000000
_cell_angle_gamma 90.000000
_cell_volume 5141.035393
_symmetry_space_group_name_H-M "I 4/M M M"
_symmetry_group_IT_number 139
_symmetry_cell_setting 'tetragonal'
loop_
_space_group_symop_operation_xyz
x,y,z
-y,x,z
-x,-y,z
y,-x,z
x,-y,-z
-x,y,-z
y,x,-z
-y,-x,-z
-x,-y,-z
y,-x,-z
x,y,-z
-y,x,-z
-x,y,z
x,-y,z
-y,-x,z
y,x,z
1/2+x,1/2+y,1/2+z
1/2-y,1/2+x,1/2+z
1/2-x,1/2-y,1/2+z
1/2+y,1/2-x,1/2+z
1/2+x,1/2-y,1/2-z
1/2-x,1/2+y,1/2-z
1/2+y,1/2+x,1/2-z
1/2-y,1/2-x,1/2-z
1/2-x,1/2-y,1/2-z
1/2+y,1/2-x,1/2-z
1/2+x,1/2+y,1/2-z
1/2-y,1/2+x,1/2-z
1/2-x,1/2+y,1/2+z
1/2+x,1/2-y,1/2+z
1/2-y,1/2-x,1/2+z
1/2+y,1/2+x,1/2+z
loop_
_atom_site_type_symbol
_atom_site_label
_atom_site_fract_x
_atom_site_fract_y
_atom_site_fract_z
Si Si1 0.500000 0.083875 0.292191
Si Si2 0.792570 0.207431 0.209797
Si Si3 0.301271 0.000000 0.213936
Si Si4 0.942827 0.142206 0.500000
Si Si5 0.777019 0.089521 0.213816
O O1 0.500000 0.090267 0.500000
O O2 0.450333 0.049668 0.250000
O O3 0.500000 0.140871 0.214744
O O4 0.750000 0.250000 0.250000
O O5 0.775697 0.149923 0.267768
O O6 0.796168 0.203833 0.000000
O O7 0.270768 0.052270 0.260987
O O8 0.302375 0.000000 0.000000
O O9 0.901946 0.098055 0.500000
O O10 0.933739 0.176615 0.673897
O O11 0.000000 0.122123 0.500000
O O12 0.783795 0.086913 0.000000
#
# Coordination Sequence:
#
# PCOD9571744 Si02
#       5
#    16  16  16  16  32
#     4  10  20  37  56  80 114 158 199 252 314 360
#     4  10  22  36  58  86 122 163 197 247 309 361
#     4   9  19  37  62  83 112 149 208 251 294 363
#     4  12  24  39  66  94 120 160 206 246 304 368
#     4  10  21  40  60  86 121 164 202 246 303 366
#
# _framework density 18.673279999999998
#
# number of rings (size 3 to 8) (size 9 to 14) (size 15 to 20)
#    0.000    1.833    3.333    1.000    2.333    1.500 
#    6.000    0.000    0.000    0.000    0.000    2.333 
#    0.000    0.000    0.000    0.000    0.000    0.000 
#
# Total GULP energy -267580.433150 kJ/mol
# GULP energy per Si atom -5574.592357 kJ/mol
# Density = 1.863078 g / cm^3
# Si number density = 18.673280 Si / 1000 Ang^3
#
#
#
# Elastic Constant Matrix: (Units=GPa)
#
#
# Indices 1 2 3 4 5 6 
#
# 1 174.8371 89.3277 21.9420 0.0000 0.0000 0.0000
# 2 89.3277 174.8302 21.9426 0.0000 0.0000 0.0000
# 3 21.9420 21.9426 55.4115 0.0000 0.0000 0.0000
# 4 0.0000 0.0000 0.0000 -118.8290 0.0000 0.0000
# 5 0.0000 0.0000 0.0000 0.0000 -119.2420 0.0000
# 6 0.0000 0.0000 0.0000 0.0000 0.0000 21.4833
#
#
#
# Elastic Compliance Matrix: (Units=1/GPa)
#
#
# Indices 1 2 3 4 5 6 
#
# 1 0.007873 -0.003821 -0.001604 0.000000 0.000000 0.000000
# 2 -0.003821 0.007874 -0.001605 0.000000 0.000000 0.000000
# 3 -0.001604 -0.001605 0.019318 0.000000 0.000000 0.000000
# 4 0.000000 0.000000 0.000000 -0.008415 0.000000 0.000000
# 5 0.000000 0.000000 0.000000 0.000000 -0.008386 0.000000
# 6 0.000000 0.000000 0.000000 0.000000 0.000000 0.046548
#
#
# Mechanical properties :
#
#
# Convention : Reuss Voigt Hill
#
# Bulk Modulus (GPa) = 47.61117 74.61149 61.11133
# Shear Modulus (GPa) = 58.22534 -25.19309 16.51613
#
# Velocity S-wave (km/s) = 5.59006 -3.67707 2.97725
# Velocity P-wave (km/s) = 8.19862 4.69204 6.67954
#
# Compressibility (1/GPa) = 0.02100348
#
# Stress axis : x y z
#
# Youngs Moduli (GPa) = 127.00932 127.00376 51.76625
#
# Poissons Ratio (x) = 0.48534 0.08306
# Poissons Ratio (y) = 0.48536 0.08307
# Poissons Ratio (z) = 0.20378 0.20381
#
# Static dielectric constant tensor:
#      x y z
#    x 1.674760 0.000000 0.000000 
#    y 0.000000 1.674750 0.000000 
#    z 0.000000 0.000000 1.684320 
# 
# From -- ./inp_files/1230.got.cif
#   From: 2010.05.17/outbox.cif.g08.bks.cpg/sg139_1_cif.got.tgz:1230.got - 2010.05.20 13:14:44.
