data_PCOD9571104
_publ_section_title
;
Structure prediction by ZEFSAII (Michael W. Deem and Ramdas Pophale) SiO2 
 PCOD9571104
Probable space group: P 42/N C M
;
_chemical_formula_sum "Si O2"
_cell_formula_units_Z 64
_cell_length_a 12.208400
_cell_length_b 12.208400
_cell_length_c 23.002258
_cell_angle_alpha 90.000000
_cell_angle_beta 90.000000
_cell_angle_gamma 90.000000
_cell_volume 3428.372247
_symmetry_space_group_name_H-M "P 42/N C M"
_symmetry_group_IT_number 138
_space_group.IT_coordinate_system_code '2'
_symmetry_cell_setting 'tetragonal'
loop_
_space_group_symop_operation_xyz
x,y,z
1/2-y,x,1/2+z
1/2-x,1/2-y,z
y,1/2-x,1/2+z
1/2+x,-y,1/2-z
-x,1/2+y,1/2-z
1/2+y,1/2+x,-z
-y,-x,-z
-x,-y,-z
1/2+y,-x,1/2-z
1/2+x,1/2+y,-z
-y,1/2+x,1/2-z
1/2-x,y,1/2+z
x,1/2-y,1/2+z
1/2-y,1/2-x,z
y,x,z
loop_
_atom_site_type_symbol
_atom_site_label
_atom_site_fract_x
_atom_site_fract_y
_atom_site_fract_z
Si Si1 0.844441 0.844441 0.597188
Si Si2 0.843061 0.843061 0.732651
Si Si3 0.143954 0.543852 0.594747
Si Si4 0.083923 0.716034 0.276102
Si Si5 0.201040 0.013727 0.976030
O O1 0.750000 0.750000 0.594250
O O2 0.862584 0.862584 0.664485
O O3 0.800080 0.947545 0.562773
O O4 0.750000 0.750000 0.740372
O O5 0.958333 0.803152 0.758381
O O6 0.195531 0.585147 0.654516
O O7 0.226912 0.508078 0.543516
O O8 0.055003 0.444998 0.606160
O O9 0.079166 0.639157 0.560618
O O10 0.129414 0.834004 0.255260
O O11 0.110815 0.110815 0.979016
#
# Coordination Sequence:
#
# PCOD9571104 Si02
#       5
#     8   8  16  16  16
#     4   9  16  30  51  85 113 139 190 246 299 354
#     4  11  24  40  65  91 119 165 208 256 305 368
#     4   9  16  33  55  81 113 155 205 246 290 365
#     4  11  24  40  60  88 127 168 204 250 310 368
#     4   8  15  27  53  84 114 150 194 249 298 348
#
# _framework density 18.667750999999999
#
# number of rings (size 3 to 8) (size 9 to 14) (size 15 to 20)
#    0.000    2.500    1.250    3.000    1.750    2.000 
#    2.250    0.000    0.000   27.000    0.000    0.000 
#    0.000    0.000    0.000    0.000    0.000    0.000 
#
# Total GULP energy -356449.304995 kJ/mol
# GULP energy per Si atom -5569.520391 kJ/mol
# Density = 1.862526 g / cm^3
# Si number density = 18.667751 Si / 1000 Ang^3
#
#
#
# Elastic Constant Matrix: (Units=GPa)
#
#
# Indices 1 2 3 4 5 6 
#
# 1 64.1127 33.6046 43.9335 0.0000 0.0000 0.0000
# 2 33.6046 64.1127 43.9335 0.0000 0.0000 0.0000
# 3 43.9335 43.9335 198.5769 0.0000 0.0000 0.0000
# 4 0.0000 0.0000 0.0000 52.5742 0.0000 0.0000
# 5 0.0000 0.0000 0.0000 0.0000 52.5742 0.0000
# 6 0.0000 0.0000 0.0000 0.0000 0.0000 6.1539
#
#
#
# Elastic Compliance Matrix: (Units=1/GPa)
#
#
# Indices 1 2 3 4 5 6 
#
# 1 0.022777 -0.010002 -0.002826 0.000000 0.000000 0.000000
# 2 -0.010002 0.022777 -0.002826 0.000000 0.000000 0.000000
# 3 -0.002826 -0.002826 0.006286 0.000000 0.000000 0.000000
# 4 0.000000 0.000000 0.000000 0.019021 0.000000 0.000000
# 5 0.000000 0.000000 0.000000 0.000000 0.019021 0.000000
# 6 0.000000 0.000000 0.000000 0.000000 0.000000 0.162499
#
#
# Mechanical properties :
#
#
# Convention : Reuss Voigt Hill
#
# Bulk Modulus (GPa) = 48.70664 63.30506 56.00585
# Shear Modulus (GPa) = 17.20977 35.94919 26.57948
#
# Velocity S-wave (km/s) = 3.03957 4.39308 3.77744
# Velocity P-wave (km/s) = 6.20215 7.72770 7.00657
#
# Compressibility (1/GPa) = 0.02053108
#
# Stress axis : x y z
#
# Youngs Moduli (GPa) = 43.90474 43.90474 159.07206
#
# Poissons Ratio (x) = 0.43911 0.44960
# Poissons Ratio (y) = 0.43911 0.44960
# Poissons Ratio (z) = 0.12409 0.12409
#
# Static dielectric constant tensor:
#      x y z
#    x 1.662040 0.000000 0.000000 
#    y 0.000000 1.662040 0.000000 
#    z 0.000000 0.000000 1.639990 
# 
# From -- ./inp_files/5951.got.cif
#   From: 2010.05.17/outbox.cif.g08.bks.cpg/sg138_3_cif.got.tgz:5951.got - 2010.05.20 13:08:53.
