data_PCOD9571035
_publ_section_title
;
Structure prediction by ZEFSAII (Michael W. Deem and Ramdas Pophale) SiO2 
 PCOD9571035
Probable space group: P 42/N C M
;
_chemical_formula_sum "Si O2"
_cell_formula_units_Z 56
_cell_length_a 17.201235
_cell_length_b 17.201235
_cell_length_c 8.458148
_cell_angle_alpha 90.000000
_cell_angle_beta 90.000000
_cell_angle_gamma 90.000000
_cell_volume 2502.617853
_symmetry_space_group_name_H-M "P 42/N C M"
_symmetry_group_IT_number 138
_space_group.IT_coordinate_system_code '2'
_symmetry_cell_setting 'tetragonal'
loop_
_space_group_symop_operation_xyz
x,y,z
1/2-y,x,1/2+z
1/2-x,1/2-y,z
y,1/2-x,1/2+z
1/2+x,-y,1/2-z
-x,1/2+y,1/2-z
1/2+y,1/2+x,-z
-y,-x,-z
-x,-y,-z
1/2+y,-x,1/2-z
1/2+x,1/2+y,-z
-y,1/2+x,1/2-z
1/2-x,y,1/2+z
x,1/2-y,1/2+z
1/2-y,1/2-x,z
y,x,z
loop_
_atom_site_type_symbol
_atom_site_label
_atom_site_fract_x
_atom_site_fract_y
_atom_site_fract_z
Si Si1 0.750000 0.250000 0.750000
Si Si2 0.164260 0.664260 0.500000
Si Si3 0.495009 0.709214 0.839444
Si Si4 0.654260 0.845741 0.461530
Si Si5 0.750000 0.750000 0.209971
Si Si6 0.500408 0.868573 0.995885
O O1 0.770912 0.320735 0.635035
O O2 0.177252 0.583845 0.585399
O O3 0.504304 0.677947 0.661617
O O4 0.564711 0.673924 0.943175
O O5 0.496019 0.802619 0.861018
O O6 0.696021 0.803980 0.314581
O O7 0.694547 0.805454 0.609426
O O8 0.575937 0.924064 0.978696
O O9 0.425618 0.925618 0.000000
#
# Coordination Sequence:
#
# PCOD9571035 Si02
#       6
#     4   8  16   8   4  16
#     4  10  24  46  68 106 140 190 244 298 360 422
#     4  11  26  43  72 104 146 187 243 300 358 438
#     4  12  26  47  74 108 144 195 242 301 364 437
#     4  11  24  45  69 104 143 182 250 289 371 423
#     4  10  24  42  72 102 136 190 238 312 344 432
#     4  11  28  53  74 107 151 195 241 305 368 435
#
# _framework density 22.376569
#
# number of rings (size 3 to 8) (size 9 to 14) (size 15 to 20)
#    0.000    0.857    1.429    3.429   16.000    0.571 
#    2.571    0.000    0.000    0.000    0.000    0.000 
#    0.000    0.000    0.000    0.000    0.000    0.000 
#
# Total GULP energy -313802.344257 kJ/mol
# GULP energy per Si atom -5603.613290 kJ/mol
# Density = 2.232564 g / cm^3
# Si number density = 22.376569 Si / 1000 Ang^3
#
#
#
# Elastic Constant Matrix: (Units=GPa)
#
#
# Indices 1 2 3 4 5 6 
#
# 1 129.1993 45.9593 31.4591 0.0000 0.0000 0.0000
# 2 45.9593 129.1993 31.4591 0.0000 0.0000 0.0000
# 3 31.4591 31.4591 82.4824 0.0000 0.0000 0.0000
# 4 0.0000 0.0000 0.0000 -128.4803 0.0000 0.0000
# 5 0.0000 0.0000 0.0000 0.0000 -128.4803 0.0000
# 6 0.0000 0.0000 0.0000 0.0000 0.0000 27.5223
#
#
#
# Elastic Compliance Matrix: (Units=1/GPa)
#
#
# Indices 1 2 3 4 5 6 
#
# 1 0.009314 -0.002699 -0.002523 0.000000 0.000000 0.000000
# 2 -0.002699 0.009314 -0.002523 0.000000 0.000000 0.000000
# 3 -0.002523 -0.002523 0.014048 0.000000 0.000000 0.000000
# 4 0.000000 0.000000 0.000000 -0.007783 0.000000 0.000000
# 5 0.000000 0.000000 0.000000 0.000000 -0.007783 0.000000
# 6 0.000000 0.000000 0.000000 0.000000 0.000000 0.036334
#
#
# Mechanical properties :
#
#
# Convention : Reuss Voigt Hill
#
# Bulk Modulus (GPa) = 58.18433 62.07064 60.12749
# Shear Modulus (GPa) = 66.96622 -30.42076 18.27273
#
# Velocity S-wave (km/s) = 5.47649 -3.69113 2.86072
# Velocity P-wave (km/s) = 8.12699 3.10378 6.15148
#
# Compressibility (1/GPa) = 0.01718676
#
# Stress axis : x y z
#
# Youngs Moduli (GPa) = 107.36011 107.36011 71.18207
#
# Poissons Ratio (x) = 0.28977 0.17960
# Poissons Ratio (y) = 0.28977 0.17960
# Poissons Ratio (z) = 0.27089 0.27089
#
# Static dielectric constant tensor:
#      x y z
#    x 1.805300 0.000000 0.000000 
#    y 0.000000 1.805300 0.000000 
#    z 0.000000 0.000000 1.828090 
# 
# From -- ./inp_files/1251.got.cif
#   From: 2010.05.17/outbox.cif.g08.bks.cpg/sg138_1_cif.got.tgz:1251.got - 2010.05.20 13:08:53.
