data_PCOD9571399
_publ_section_title
;
Structure prediction by ZEFSAII (Michael W. Deem and Ramdas Pophale) SiO2 
 PCOD9571399
Probable space group: I 4/M M M
;
_chemical_formula_sum "Si O2"
_cell_formula_units_Z 160
_cell_length_a 33.339374
_cell_length_b 33.339374
_cell_length_c 9.019089
_cell_angle_alpha 90.000000
_cell_angle_beta 90.000000
_cell_angle_gamma 90.000000
_cell_volume 10024.842416
_symmetry_space_group_name_H-M "I 4/M M M"
_symmetry_group_IT_number 139
_symmetry_cell_setting 'tetragonal'
loop_
_space_group_symop_operation_xyz
x,y,z
-y,x,z
-x,-y,z
y,-x,z
x,-y,-z
-x,y,-z
y,x,-z
-y,-x,-z
-x,-y,-z
y,-x,-z
x,y,-z
-y,x,-z
-x,y,z
x,-y,z
-y,-x,z
y,x,z
1/2+x,1/2+y,1/2+z
1/2-y,1/2+x,1/2+z
1/2-x,1/2-y,1/2+z
1/2+y,1/2-x,1/2+z
1/2+x,1/2-y,1/2-z
1/2-x,1/2+y,1/2-z
1/2+y,1/2+x,1/2-z
1/2-y,1/2-x,1/2-z
1/2-x,1/2-y,1/2-z
1/2+y,1/2-x,1/2-z
1/2+x,1/2+y,1/2-z
1/2-y,1/2+x,1/2-z
1/2-x,1/2+y,1/2+z
1/2+x,1/2-y,1/2+z
1/2-y,1/2-x,1/2+z
1/2+y,1/2+x,1/2+z
loop_
_atom_site_type_symbol
_atom_site_label
_atom_site_fract_x
_atom_site_fract_y
_atom_site_fract_z
Si Si1 0.809664 0.370690 0.822506
Si Si2 0.563604 0.500000 0.180526
Si Si3 0.500000 0.345951 0.177578
Si Si4 0.299775 0.428237 0.672183
Si Si5 0.845734 0.780774 0.678509
Si Si6 0.293332 0.046109 0.826757
O O1 0.844433 0.344433 0.750000
O O2 0.766436 0.350289 0.781792
O O3 0.811076 0.416586 0.764608
O O4 0.812575 0.370352 0.000000
O O5 0.538747 0.538747 0.228023
O O6 0.608544 0.500000 0.230751
O O7 0.563772 0.500000 0.000000
O O8 0.460213 0.325529 0.239344
O O9 0.500000 0.344006 0.000000
O O10 0.311335 0.426205 0.500000
O O11 0.300823 0.384366 0.745086
O O12 0.254331 0.445264 0.679023
O O13 0.849706 0.783197 0.500000
O O14 0.805138 0.805138 0.719075
O O15 0.301056 0.000000 0.777300
O O16 0.305385 0.049073 0.000000
#
# Coordination Sequence:
#
# PCOD9571399 Si02
#       6
#    32  16  16  32  32  32
#     4  10  20  33  50  74 102 135 171 212 252 293
#     4   8  16  32  49  62  78 104 142 186 232 287
#     4  11  20  29  48  74  94 118 150 192 249 305
#     4  10  19  32  48  70  98 125 156 197 246 300
#     4   9  19  35  51  69  96 131 172 214 252 295
#     4   9  17  32  52  72  97 131 164 200 245 291
#
# _framework density 15.960352
#
# number of rings (size 3 to 8) (size 9 to 14) (size 15 to 20)
#    0.000    2.500    1.000    1.800    0.000    3.600 
#    0.000    2.000    0.000    1.800    0.000    2.800 
#    0.000    0.400    0.000    4.200    0.000    1.800 
#
# Total GULP energy -445750.784059 kJ/mol
# GULP energy per Si atom -5571.884801 kJ/mol
# Density = 1.592403 g / cm^3
# Si number density = 15.960352 Si / 1000 Ang^3
#
#
#
# Elastic Constant Matrix: (Units=GPa)
#
#
# Indices 1 2 3 4 5 6 
#
# 1 95.3791 62.4467 43.4627 0.0000 0.0000 0.0000
# 2 62.4467 95.3791 43.4627 0.0000 0.0000 0.0000
# 3 43.4627 43.4627 43.8966 0.0000 0.0000 0.0000
# 4 0.0000 0.0000 0.0000 19.8819 0.0000 0.0000
# 5 0.0000 0.0000 0.0000 0.0000 19.8819 0.0000
# 6 0.0000 0.0000 0.0000 0.0000 0.0000 0.1975
#
#
#
# Elastic Compliance Matrix: (Units=1/GPa)
#
#
# Indices 1 2 3 4 5 6 
#
# 1 0.022150 -0.008215 -0.013798 0.000000 0.000000 0.000000
# 2 -0.008215 0.022150 -0.013798 0.000000 0.000000 0.000000
# 3 -0.013798 -0.013798 0.050103 0.000000 0.000000 0.000000
# 4 0.000000 0.000000 0.000000 0.050297 0.000000 0.000000
# 5 0.000000 0.000000 0.000000 0.000000 0.050297 0.000000
# 6 0.000000 0.000000 0.000000 0.000000 0.000000 5.063430
#
#
# Mechanical properties :
#
#
# Convention : Reuss Voigt Hill
#
# Bulk Modulus (GPa) = 43.89133 59.26655 51.57894
# Shear Modulus (GPa) = 0.93674 13.67777 7.30726
#
# Velocity S-wave (km/s) = 0.76694 2.93061 2.14204
# Velocity P-wave (km/s) = 5.32393 6.97607 6.20523
#
# Compressibility (1/GPa) = 0.02278354
#
# Stress axis : x y z
#
# Youngs Moduli (GPa) = 45.14611 45.14611 19.95873
#
# Poissons Ratio (x) = 0.37087 0.27538
# Poissons Ratio (y) = 0.37087 0.27538
# Poissons Ratio (z) = 0.62291 0.62291
#
# Static dielectric constant tensor:
#      x y z
#    x 1.521710 0.000000 0.000000 
#    y 0.000000 1.521710 0.000000 
#    z 0.000000 0.000000 1.532270 
# 
# From -- ./inp_files/2179.got.cif
#   From: 2010.05.17/outbox.cif.g08.bks.cpg/sg139_2_cif.got.tgz:2179.got - 2010.05.20 13:14:44.
