data_PCOD9571675
_publ_section_title
;
Structure prediction by ZEFSAII (Michael W. Deem and Ramdas Pophale) SiO2 
 PCOD9571675
Probable space group: I 4/M M M
;
_chemical_formula_sum "Si O2"
_cell_formula_units_Z 144
_cell_length_a 20.400924
_cell_length_b 20.400924
_cell_length_c 19.600156
_cell_angle_alpha 90.000000
_cell_angle_beta 90.000000
_cell_angle_gamma 90.000000
_cell_volume 8157.539848
_symmetry_space_group_name_H-M "I 4/M M M"
_symmetry_group_IT_number 139
_symmetry_cell_setting 'tetragonal'
loop_
_space_group_symop_operation_xyz
x,y,z
-y,x,z
-x,-y,z
y,-x,z
x,-y,-z
-x,y,-z
y,x,-z
-y,-x,-z
-x,-y,-z
y,-x,-z
x,y,-z
-y,x,-z
-x,y,z
x,-y,z
-y,-x,z
y,x,z
1/2+x,1/2+y,1/2+z
1/2-y,1/2+x,1/2+z
1/2-x,1/2-y,1/2+z
1/2+y,1/2-x,1/2+z
1/2+x,1/2-y,1/2-z
1/2-x,1/2+y,1/2-z
1/2+y,1/2+x,1/2-z
1/2-y,1/2-x,1/2-z
1/2-x,1/2-y,1/2-z
1/2+y,1/2-x,1/2-z
1/2+x,1/2+y,1/2-z
1/2-y,1/2+x,1/2-z
1/2-x,1/2+y,1/2+z
1/2+x,1/2-y,1/2+z
1/2-y,1/2-x,1/2+z
1/2+y,1/2+x,1/2+z
loop_
_atom_site_type_symbol
_atom_site_label
_atom_site_fract_x
_atom_site_fract_y
_atom_site_fract_z
Si Si1 0.743509 0.578687 0.320374
Si Si2 0.077347 0.500000 0.573826
Si Si3 0.797695 0.797695 0.418417
Si Si4 0.893280 0.611694 0.322291
Si Si5 0.314378 0.685623 0.417669
Si Si6 0.238420 0.073676 0.665072
O O1 0.750318 0.500000 0.333056
O O2 0.814727 0.612837 0.315716
O O3 0.706956 0.618466 0.379674
O O4 0.715013 0.585480 0.243452
O O5 0.109945 0.500000 0.500000
O O6 0.094195 0.564114 0.615770
O O7 0.000000 0.500000 0.566768
O O8 0.802583 0.802583 0.500000
O O9 0.741823 0.741823 0.404332
O O10 0.867321 0.779931 0.384619
O O11 0.917017 0.582984 0.250000
O O12 0.924051 0.682454 0.332237
O O13 0.320560 0.679441 0.500000
O O14 0.217845 0.000000 0.644653
#
# Coordination Sequence:
#
# PCOD9571675 Si02
#       6
#    32  16  16  32  16  32
#     4  10  20  37  59  86 113 148 195 241 288 335
#     4  11  24  34  44  72 110 152 193 233 285 334
#     4  11  23  37  57  86 117 156 195 235 294 348
#     4  10  20  34  55  79 107 149 193 232 277 336
#     4  11  23  37  57  86 119 158 195 235 294 348
#     4  10  21  37  59  85 113 148 194 242 288 336
#
# _framework density 17.652380000000001
#
# number of rings (size 3 to 8) (size 9 to 14) (size 15 to 20)
#    0.000    1.667    3.333    1.333    3.111    3.556 
#    0.000    0.000    0.000    0.667    0.000    4.667 
#    0.000    0.000    0.000    0.000    0.000    0.000 
#
# Total GULP energy -401291.765131 kJ/mol
# GULP energy per Si atom -5573.496738 kJ/mol
# Density = 1.761220 g / cm^3
# Si number density = 17.652380 Si / 1000 Ang^3
#
#
#
# Elastic Constant Matrix: (Units=GPa)
#
#
# Indices 1 2 3 4 5 6 
#
# 1 70.7582 25.8549 43.1929 0.0000 0.0000 0.0000
# 2 25.8549 70.7583 43.1928 0.0000 0.0000 0.0000
# 3 43.1929 43.1928 134.1203 0.0000 0.0000 0.0000
# 4 0.0000 0.0000 0.0000 32.3180 0.0000 0.0000
# 5 0.0000 0.0000 0.0000 0.0000 32.3180 0.0000
# 6 0.0000 0.0000 0.0000 0.0000 0.0000 22.4020
#
#
#
# Elastic Compliance Matrix: (Units=1/GPa)
#
#
# Indices 1 2 3 4 5 6 
#
# 1 0.018403 -0.003867 -0.004681 0.000000 0.000000 0.000000
# 2 -0.003867 0.018403 -0.004681 0.000000 0.000000 0.000000
# 3 -0.004681 -0.004681 0.010471 0.000000 0.000000 0.000000
# 4 0.000000 0.000000 0.000000 0.030943 0.000000 0.000000
# 5 0.000000 0.000000 0.000000 0.000000 0.030942 0.000000
# 6 0.000000 0.000000 0.000000 0.000000 0.000000 0.044639
#
#
# Mechanical properties :
#
#
# Convention : Reuss Voigt Hill
#
# Bulk Modulus (GPa) = 48.03429 55.56867 51.80148
# Shear Modulus (GPa) = 26.70936 28.30067 27.50501
#
# Velocity S-wave (km/s) = 3.89405 4.00837 3.95162
# Velocity P-wave (km/s) = 6.89118 7.27808 7.08727
#
# Compressibility (1/GPa) = 0.02081846
#
# Stress axis : x y z
#
# Youngs Moduli (GPa) = 54.33827 54.33838 95.49979
#
# Poissons Ratio (x) = 0.21012 0.44707
# Poissons Ratio (y) = 0.21012 0.44707
# Poissons Ratio (z) = 0.25438 0.25438
#
# Static dielectric constant tensor:
#      x y z
#    x 1.605200 0.000000 0.000000 
#    y 0.000000 1.605200 0.000000 
#    z 0.000000 0.000000 1.668610 
# 
# From -- ./inp_files/8294.got.cif
#   From: 2010.05.17/outbox.cif.g08.bks.cpg/sg139_5_cif.got.tgz:8294.got - 2010.05.20 13:14:44.
