data_PCOD9571488
_publ_section_title
;
Structure prediction by ZEFSAII (Michael W. Deem and Ramdas Pophale) SiO2 
 PCOD9571488
Probable space group: I 4/M M M
;
_chemical_formula_sum "Si O2"
_cell_formula_units_Z 160
_cell_length_a 33.352586
_cell_length_b 33.352586
_cell_length_c 8.806907
_cell_angle_alpha 90.000000
_cell_angle_beta 90.000000
_cell_angle_gamma 90.000000
_cell_volume 9796.759250
_symmetry_space_group_name_H-M "I 4/M M M"
_symmetry_group_IT_number 139
_symmetry_cell_setting 'tetragonal'
loop_
_space_group_symop_operation_xyz
x,y,z
-y,x,z
-x,-y,z
y,-x,z
x,-y,-z
-x,y,-z
y,x,-z
-y,-x,-z
-x,-y,-z
y,-x,-z
x,y,-z
-y,x,-z
-x,y,z
x,-y,z
-y,-x,z
y,x,z
1/2+x,1/2+y,1/2+z
1/2-y,1/2+x,1/2+z
1/2-x,1/2-y,1/2+z
1/2+y,1/2-x,1/2+z
1/2+x,1/2-y,1/2-z
1/2-x,1/2+y,1/2-z
1/2+y,1/2+x,1/2-z
1/2-y,1/2-x,1/2-z
1/2-x,1/2-y,1/2-z
1/2+y,1/2-x,1/2-z
1/2+x,1/2+y,1/2-z
1/2-y,1/2+x,1/2-z
1/2-x,1/2+y,1/2+z
1/2+x,1/2-y,1/2+z
1/2-y,1/2-x,1/2+z
1/2+y,1/2+x,1/2+z
loop_
_atom_site_type_symbol
_atom_site_label
_atom_site_fract_x
_atom_site_fract_y
_atom_site_fract_z
Si Si1 0.954811 0.790092 0.821386
Si Si2 0.439888 0.000000 0.178660
Si Si3 0.354241 0.000000 0.321491
Si Si4 0.806033 0.870537 0.682659
Si Si5 0.196900 0.569827 0.321305
Si Si6 0.784294 0.654406 0.816942
O O1 0.915972 0.809082 0.742304
O O2 0.946683 0.742385 0.809210
O O3 0.000000 0.798905 0.763580
O O4 0.953983 0.800113 0.000000
O O5 0.461784 0.038217 0.250000
O O6 0.394306 0.000000 0.224688
O O7 0.445828 0.000000 0.000000
O O8 0.329802 0.039316 0.273228
O O9 0.362582 0.000000 0.500000
O O10 0.806691 0.871913 0.500000
O O11 0.841797 0.841797 0.736000
O O12 0.762835 0.850947 0.724521
O O13 0.186143 0.569954 0.500000
O O14 0.195636 0.614435 0.253132
O O15 0.806819 0.693182 0.750000
O O16 0.787449 0.654469 0.000000
#
# Coordination Sequence:
#
# PCOD9571488 Si02
#       6
#    32  16  16  32  32  32
#     4   9  17  31  51  75 102 131 165 204 249 297
#     4  11  23  42  61  76  94 118 150 190 240 299
#     4  12  23  35  54  80 103 126 158 198 249 307
#     4   9  19  34  50  72 103 136 173 215 253 294
#     4  10  19  34  52  73 100 129 160 204 252 300
#     4  10  20  34  50  71  98 134 174 215 257 302
#
# _framework density 16.331931000000001
#
# number of rings (size 3 to 8) (size 9 to 14) (size 15 to 20)
#    0.000    2.100    1.000    3.300    0.000    3.600 
#    0.000    4.000    0.000    0.000    0.000    0.000 
#    0.000    0.400    0.000    4.400    0.000    3.200 
#
# Total GULP energy -446229.308139 kJ/mol
# GULP energy per Si atom -5577.866352 kJ/mol
# Density = 1.629476 g / cm^3
# Si number density = 16.331931 Si / 1000 Ang^3
#
#
#
# Elastic Constant Matrix: (Units=GPa)
#
#
# Indices 1 2 3 4 5 6 
#
# 1 83.9390 55.0558 25.5623 0.0000 0.0000 0.0000
# 2 55.0558 83.9265 25.5599 0.0000 0.0000 0.0000
# 3 25.5623 25.5599 65.5011 0.0000 0.0000 0.0000
# 4 0.0000 0.0000 0.0000 27.9676 0.0000 0.0000
# 5 0.0000 0.0000 0.0000 0.0000 27.9154 0.0000
# 6 0.0000 0.0000 0.0000 0.0000 0.0000 -16.1979
#
#
#
# Elastic Compliance Matrix: (Units=1/GPa)
#
#
# Indices 1 2 3 4 5 6 
#
# 1 0.021514 -0.013115 -0.003278 0.000000 0.000000 0.000000
# 2 -0.013115 0.021517 -0.003278 0.000000 0.000000 0.000000
# 3 -0.003278 -0.003278 0.017826 0.000000 0.000000 0.000000
# 4 0.000000 0.000000 0.000000 0.035756 0.000000 0.000000
# 5 0.000000 0.000000 0.000000 0.000000 0.035823 0.000000
# 6 0.000000 0.000000 0.000000 0.000000 0.000000 -0.061736
#
#
# Mechanical properties :
#
#
# Convention : Reuss Voigt Hill
#
# Bulk Modulus (GPa) = 46.48188 49.52475 48.00332
# Shear Modulus (GPa) = 42.65804 16.41624 29.53714
#
# Velocity S-wave (km/s) = 5.11626 3.17387 4.25732
# Velocity P-wave (km/s) = 7.96392 6.61974 7.32274
#
# Compressibility (1/GPa) = 0.02151376
#
# Stress axis : x y z
#
# Youngs Moduli (GPa) = 46.48216 46.47547 56.09929
#
# Poissons Ratio (x) = 0.60950 0.18391
# Poissons Ratio (y) = 0.60959 0.18391
# Poissons Ratio (z) = 0.15238 0.15236
#
# Static dielectric constant tensor:
#      x y z
#    x 1.618510 0.000000 0.000000 
#    y 0.000000 1.618810 0.000000 
#    z 0.000000 0.000000 1.549630 
# 
# From -- ./inp_files/2160.got.cif
#   From: 2010.05.17/outbox.cif.g08.bks.cpg/sg139_2_cif.got.tgz:2160.got - 2010.05.20 13:14:44.
