data_PCOD9571601
_publ_section_title
;
Structure prediction by ZEFSAII (Michael W. Deem and Ramdas Pophale) SiO2 
 PCOD9571601
Probable space group: I 4/M M M
;
_chemical_formula_sum "Si O2"
_cell_formula_units_Z 128
_cell_length_a 20.046687
_cell_length_b 20.046687
_cell_length_c 18.341124
_cell_angle_alpha 90.000000
_cell_angle_beta 90.000000
_cell_angle_gamma 90.000000
_cell_volume 7370.741260
_symmetry_space_group_name_H-M "I 4/M M M"
_symmetry_group_IT_number 139
_symmetry_cell_setting 'tetragonal'
loop_
_space_group_symop_operation_xyz
x,y,z
-y,x,z
-x,-y,z
y,-x,z
x,-y,-z
-x,y,-z
y,x,-z
-y,-x,-z
-x,-y,-z
y,-x,-z
x,y,-z
-y,x,-z
-x,y,z
x,-y,z
-y,-x,z
y,x,z
1/2+x,1/2+y,1/2+z
1/2-y,1/2+x,1/2+z
1/2-x,1/2-y,1/2+z
1/2+y,1/2-x,1/2+z
1/2+x,1/2-y,1/2-z
1/2-x,1/2+y,1/2-z
1/2+y,1/2+x,1/2-z
1/2-y,1/2-x,1/2-z
1/2-x,1/2-y,1/2-z
1/2+y,1/2-x,1/2-z
1/2+x,1/2+y,1/2-z
1/2-y,1/2+x,1/2-z
1/2-x,1/2+y,1/2+z
1/2+x,1/2-y,1/2+z
1/2-y,1/2-x,1/2+z
1/2+y,1/2+x,1/2+z
loop_
_atom_site_type_symbol
_atom_site_label
_atom_site_fract_x
_atom_site_fract_y
_atom_site_fract_z
Si Si1 0.890095 0.000000 0.087585
Si Si2 0.247699 0.000000 0.334163
Si Si3 0.500000 0.110316 0.086764
Si Si4 0.241352 0.868451 0.414014
Si Si5 0.500000 0.245599 0.661037
Si Si6 0.351830 0.898655 0.913920
O O1 0.935331 0.064670 0.106000
O O2 0.818696 0.000000 0.125484
O O3 0.881183 0.000000 0.000000
O O4 0.218580 0.931915 0.367205
O O5 0.323105 0.000000 0.365486
O O6 0.247814 0.000000 0.247686
O O7 0.428183 0.077366 0.100103
O O8 0.500000 0.127804 0.000000
O O9 0.237214 0.885646 0.500000
O O10 0.194861 0.805140 0.400249
O O11 0.319174 0.852111 0.399812
O O12 0.562852 0.202246 0.633163
O O13 0.338032 0.909431 0.000000
#
# Coordination Sequence:
#
# PCOD9571601 Si02
#       6
#    16  16  16  32  16  32
#     4   9  20  40  59  69  86 126 173 211 255 312
#     4  10  20  33  50  76 113 143 163 197 261 327
#     4   8  16  33  53  69  97 144 184 207 237 292
#     4   9  18  35  59  80  99 133 180 221 255 299
#     4  12  23  31  49  81 111 134 162 210 264 308
#     4   9  18  33  51  74 103 136 176 215 249 291
#
# _framework density 17.365960999999999
#
# number of rings (size 3 to 8) (size 9 to 14) (size 15 to 20)
#    0.000    2.625    0.000    4.125    0.000    6.500 
#    0.000    5.625    0.000    6.375    0.000    1.750 
#    0.000    0.000    0.000    0.000    0.000    0.000 
#
# Total GULP energy -356755.657557 kJ/mol
# GULP energy per Si atom -5574.307149 kJ/mol
# Density = 1.732644 g / cm^3
# Si number density = 17.365961 Si / 1000 Ang^3
#
#
#
# Elastic Constant Matrix: (Units=GPa)
#
#
# Indices 1 2 3 4 5 6 
#
# 1 126.3959 73.0893 63.4106 0.0000 0.0000 0.0000
# 2 73.0893 126.3959 63.4106 0.0000 0.0000 0.0000
# 3 63.4106 63.4106 73.4547 0.0000 0.0000 0.0000
# 4 0.0000 0.0000 0.0000 35.9698 0.0000 0.0000
# 5 0.0000 0.0000 0.0000 0.0000 35.9698 0.0000
# 6 0.0000 0.0000 0.0000 0.0000 0.0000 -25.5362
#
#
#
# Elastic Compliance Matrix: (Units=1/GPa)
#
#
# Indices 1 2 3 4 5 6 
#
# 1 0.014935 -0.003824 -0.009591 0.000000 0.000000 0.000000
# 2 -0.003824 0.014935 -0.009591 0.000000 0.000000 0.000000
# 3 -0.009591 -0.009591 0.030173 0.000000 0.000000 0.000000
# 4 0.000000 0.000000 0.000000 0.027801 0.000000 0.000000
# 5 0.000000 0.000000 0.000000 0.000000 0.027801 0.000000
# 6 0.000000 0.000000 0.000000 0.000000 0.000000 -0.039160
#
#
# Mechanical properties :
#
#
# Convention : Reuss Voigt Hill
#
# Bulk Modulus (GPa) = 71.27934 80.67416 75.97675
# Shear Modulus (GPa) = 39.31575 17.70307 28.50941
#
# Velocity S-wave (km/s) = 4.76327 3.19629 4.05616
# Velocity P-wave (km/s) = 8.44903 7.75744 8.11061
#
# Compressibility (1/GPa) = 0.01402931
#
# Stress axis : x y z
#
# Youngs Moduli (GPa) = 66.95713 66.95713 33.14195
#
# Poissons Ratio (x) = 0.25608 0.31787
# Poissons Ratio (y) = 0.25608 0.31787
# Poissons Ratio (z) = 0.64220 0.64220
#
# Static dielectric constant tensor:
#      x y z
#    x 1.604360 0.000000 0.000000 
#    y 0.000000 1.604360 0.000000 
#    z 0.000000 0.000000 1.563280 
# 
# From -- ./inp_files/5521.got.cif
#   From: 2010.05.17/outbox.cif.g08.bks.cpg/sg139_3_cif.got.tgz:5521.got - 2010.05.20 13:14:44.
