data_PCOD9571963
_publ_section_title
;
Structure prediction by ZEFSAII (Michael W. Deem and Ramdas Pophale) SiO2 
 PCOD9571963
Probable space group: I 4/M M M
;
_chemical_formula_sum "Si O2"
_cell_formula_units_Z 88
_cell_length_a 27.000000
_cell_length_b 27.000000
_cell_length_c 15.000000
_cell_angle_alpha 90.000000
_cell_angle_beta 90.000000
_cell_angle_gamma 90.000000
_cell_volume 10935.000000
_symmetry_space_group_name_H-M "I 4/M M M"
_symmetry_group_IT_number 139
_symmetry_cell_setting 'tetragonal'
loop_
_space_group_symop_operation_xyz
x,y,z
-y,x,z
-x,-y,z
y,-x,z
x,-y,-z
-x,y,-z
y,x,-z
-y,-x,-z
-x,-y,-z
y,-x,-z
x,y,-z
-y,x,-z
-x,y,z
x,-y,z
-y,-x,z
y,x,z
1/2+x,1/2+y,1/2+z
1/2-y,1/2+x,1/2+z
1/2-x,1/2-y,1/2+z
1/2+y,1/2-x,1/2+z
1/2+x,1/2-y,1/2-z
1/2-x,1/2+y,1/2-z
1/2+y,1/2+x,1/2-z
1/2-y,1/2-x,1/2-z
1/2-x,1/2-y,1/2-z
1/2+y,1/2-x,1/2-z
1/2+x,1/2+y,1/2-z
1/2-y,1/2+x,1/2-z
1/2-x,1/2+y,1/2+z
1/2+x,1/2-y,1/2+z
1/2-y,1/2-x,1/2+z
1/2+y,1/2+x,1/2+z
loop_
_atom_site_type_symbol
_atom_site_label
_atom_site_fract_x
_atom_site_fract_y
_atom_site_fract_z
Si Si1 0.059863 0.208130 0.398136
Si Si2 0.909898 0.218318 0.104613
Si Si3 0.654690 0.845311 0.250000
Si Si4 0.291706 0.056335 0.255268
Si Si5 0.940880 0.863713 0.760458
Si Si6 0.273180 0.805863 0.896328
O O1 0.078960 0.207220 0.500000
O O2 0.070348 0.257270 0.340182
O O3 0.074954 0.163918 0.331417
O O4 0.000000 0.205591 0.403677
O O5 0.938999 0.257889 0.166302
O O6 0.919556 0.167277 0.156071
O O7 0.852690 0.235659 0.109906
O O8 0.923795 0.217357 0.000000
O O9 0.666279 0.902968 0.247664
O O10 0.680930 0.819082 0.165734
O O11 0.308098 0.000000 0.265586
O O12 0.917767 0.917767 0.761091
O O13 0.000000 0.862660 0.765135
O O14 0.243203 0.756798 0.869128
O O15 0.287304 0.801119 0.000000
#
# Coordination Sequence:
#
# PCOD9571963 Si02
#       6
#    32  32  16  32  32  32
#     4   8  15  30  50  67  84 109 144 188 230 265
#     4   9  17  31  51  70  87 112 149 191 231 270
#     4  10  19  30  46  67  96 128 154 184 220 265
#     4   9  18  31  48  71  94 118 151 188 225 264
#     4  10  20  31  44  64  88 117 154 191 230 274
#     4   9  17  29  46  69  96 122 146 176 221 278
#
# _framework density 8.0475539999999999
#
# number of rings (size 3 to 8) (size 9 to 14) (size 15 to 20)
#    0.000    2.909    0.000    2.455    0.000    3.818 
#    0.000    0.909    0.000    0.273    0.000    3.818 
#    0.000    0.000    0.000   13.636    0.000    0.000 
#
# Total GULP energy -490042.697895 kJ/mol
# GULP energy per Si atom -5568.667022 kJ/mol
# Density = 0.802924 g / cm^3
# Si number density = 8.047554 Si / 1000 Ang^3
#
#
#
# Elastic Constant Matrix: (Units=GPa)
#
#
# Indices 1 2 3 4 5 6 
#
# 1 48.8158 45.8464 23.7429 0.0000 0.0000 0.0000
# 2 45.8464 48.8158 23.7425 0.0000 0.0000 0.0000
# 3 23.7429 23.7425 120.7399 0.0000 0.0000 0.0000
# 4 0.0000 0.0000 0.0000 15.1039 0.0000 0.0000
# 5 0.0000 0.0000 0.0000 0.0000 15.1043 0.0000
# 6 0.0000 0.0000 0.0000 0.0000 0.0000 12.7154
#
#
#
# Elastic Compliance Matrix: (Units=1/GPa)
#
#
# Indices 1 2 3 4 5 6 
#
# 1 0.174242 -0.162522 -0.002305 0.000000 0.000000 0.000000
# 2 -0.162522 0.174241 -0.002304 0.000000 0.000000 0.000000
# 3 -0.002305 -0.002304 0.009189 0.000000 0.000000 0.000000
# 4 0.000000 0.000000 0.000000 0.066208 0.000000 0.000000
# 5 0.000000 0.000000 0.000000 0.000000 0.066206 0.000000
# 6 0.000000 0.000000 0.000000 0.000000 0.000000 0.078645
#
#
# Mechanical properties :
#
#
# Convention : Reuss Voigt Hill
#
# Bulk Modulus (GPa) = 42.71683 45.00389 43.86036
# Shear Modulus (GPa) = 5.48969 16.92071 11.20520
#
# Velocity S-wave (km/s) = 1.84883 3.24589 2.64140
# Velocity P-wave (km/s) = 5.58171 6.48611 6.05083
#
# Compressibility (1/GPa) = 0.02340998
#
# Stress axis : x y z
#
# Youngs Moduli (GPa) = 5.73913 5.73916 108.82988
#
# Poissons Ratio (x) = 0.93274 0.25089
# Poissons Ratio (y) = 0.93273 0.25074
# Poissons Ratio (z) = 0.01323 0.01322
#
# Static dielectric constant tensor:
#      x y z
#    x 1.536520 0.000000 0.000000 
#    y 0.000000 1.536520 0.000000 
#    z 0.000000 0.000000 1.547460 
# 
# From -- ./inp_files/6379.got.cif
#   From: 2010.05.17/outbox.ucp.g08.bks.cvg/sg139_4_cif.got.tgz:6379.got - 2010.06.11 11:42:03.
