data_PCOD9571539
_publ_section_title
;
Structure prediction by ZEFSAII (Michael W. Deem and Ramdas Pophale) SiO2 
 PCOD9571539
Probable space group: I 4/M M M
;
_chemical_formula_sum "Si O2"
_cell_formula_units_Z 192
_cell_length_a 23.351240
_cell_length_b 23.351240
_cell_length_c 20.704843
_cell_angle_alpha 90.000000
_cell_angle_beta 90.000000
_cell_angle_gamma 90.000000
_cell_volume 11289.945270
_symmetry_space_group_name_H-M "I 4/M M M"
_symmetry_group_IT_number 139
_symmetry_cell_setting 'tetragonal'
loop_
_space_group_symop_operation_xyz
x,y,z
-y,x,z
-x,-y,z
y,-x,z
x,-y,-z
-x,y,-z
y,x,-z
-y,-x,-z
-x,-y,-z
y,-x,-z
x,y,-z
-y,x,-z
-x,y,z
x,-y,z
-y,-x,z
y,x,z
1/2+x,1/2+y,1/2+z
1/2-y,1/2+x,1/2+z
1/2-x,1/2-y,1/2+z
1/2+y,1/2-x,1/2+z
1/2+x,1/2-y,1/2-z
1/2-x,1/2+y,1/2-z
1/2+y,1/2+x,1/2-z
1/2-y,1/2-x,1/2-z
1/2-x,1/2-y,1/2-z
1/2+y,1/2-x,1/2-z
1/2+x,1/2+y,1/2-z
1/2-y,1/2+x,1/2-z
1/2-x,1/2+y,1/2+z
1/2+x,1/2-y,1/2+z
1/2-y,1/2-x,1/2+z
1/2+y,1/2+x,1/2+z
loop_
_atom_site_type_symbol
_atom_site_label
_atom_site_fract_x
_atom_site_fract_y
_atom_site_fract_z
Si Si1 0.262798 0.262798 0.351361
Si Si2 0.605776 0.931649 0.073544
Si Si3 0.063180 0.847354 0.076321
Si Si4 0.680760 0.680760 0.222496
Si Si5 0.633419 0.064684 0.302858
Si Si6 0.244503 0.932532 0.741467
Si Si7 0.227815 0.386964 0.615778
O O1 0.291711 0.291711 0.287652
O O2 0.215723 0.215723 0.332119
O O3 0.318009 0.233775 0.384854
O O4 0.572268 0.898119 0.129252
O O5 0.671066 0.910395 0.082534
O O6 0.602864 0.000000 0.084392
O O7 0.586792 0.920372 0.000000
O O8 0.107416 0.892585 0.105584
O O9 0.087907 0.784429 0.083539
O O10 0.000000 0.851395 0.105160
O O11 0.058795 0.858738 0.000000
O O12 0.613622 0.696070 0.223410
O O13 0.606907 0.106907 0.250000
O O14 0.701395 0.074648 0.306415
O O15 0.625253 0.000000 0.278546
O O16 0.268817 0.911939 0.811204
O O17 0.228871 0.000000 0.743891
#
# Coordination Sequence:
#
# PCOD9571539 Si02
#       7
#    16  32  32  16  32  32  32
#     4   9  18  28  49  74  97 131 167 217 265 304
#     4  11  23  36  52  75 104 139 175 216 266 315
#     4  10  20  32  46  65  93 132 177 221 265 314
#     4   9  18  30  48  77 106 131 164 209 263 309
#     4  11  22  37  56  77 102 134 176 220 261 309
#     4  10  20  33  54  79 104 135 172 216 260 310
#     4  11  18  33  50  72 101 131 171 218 266 315
#
# _framework density 17.006281999999999
#
# number of rings (size 3 to 8) (size 9 to 14) (size 15 to 20)
#    0.000    1.667    2.500    3.500    2.333    3.000 
#    0.000    1.667    0.000    0.250    0.000    0.000 
#    0.000    0.000    0.000    0.000    0.000    0.000 
#
# Total GULP energy -535534.518514 kJ/mol
# GULP energy per Si atom -5578.484568 kJ/mol
# Density = 1.696758 g / cm^3
# Si number density = 17.006282 Si / 1000 Ang^3
#
#
#
# Elastic Constant Matrix: (Units=GPa)
#
#
# Indices 1 2 3 4 5 6 
#
# 1 77.4872 38.4261 17.4372 0.0000 0.0000 0.0000
# 2 38.4261 77.4872 17.4372 0.0000 0.0000 0.0000
# 3 17.4372 17.4372 40.2426 0.0000 0.0000 0.0000
# 4 0.0000 0.0000 0.0000 -6.8402 0.0000 0.0000
# 5 0.0000 0.0000 0.0000 0.0000 -6.8402 0.0000
# 6 0.0000 0.0000 0.0000 0.0000 0.0000 11.2778
#
#
#
# Elastic Compliance Matrix: (Units=1/GPa)
#
#
# Indices 1 2 3 4 5 6 
#
# 1 0.017761 -0.007840 -0.004299 0.000000 0.000000 0.000000
# 2 -0.007840 0.017761 -0.004299 0.000000 0.000000 0.000000
# 3 -0.004299 -0.004299 0.028574 0.000000 0.000000 0.000000
# 4 0.000000 0.000000 0.000000 -0.146194 0.000000 0.000000
# 5 0.000000 0.000000 0.000000 0.000000 -0.146194 0.000000
# 6 0.000000 0.000000 0.000000 0.000000 0.000000 0.088670
#
#
# Mechanical properties :
#
#
# Convention : Reuss Voigt Hill
#
# Bulk Modulus (GPa) = 32.02959 37.97976 35.00468
# Shear Modulus (GPa) = -51.89890 7.64724 -22.12583
#
# Velocity S-wave (km/s) = -5.53026 2.12285 -3.61090
# Velocity P-wave (km/s) = 4.68011 5.32822 1.80090
#
# Compressibility (1/GPa) = 0.03122113
#
# Stress axis : x y z
#
# Youngs Moduli (GPa) = 56.30413 56.30413 34.99635
#
# Poissons Ratio (x) = 0.44144 0.15043
# Poissons Ratio (y) = 0.44144 0.15043
# Poissons Ratio (z) = 0.24203 0.24203
#
# Static dielectric constant tensor:
#      x y z
#    x 1.592190 0.000000 0.000000 
#    y 0.000000 1.592190 0.000000 
#    z 0.000000 0.000000 1.599280 
# 
# From -- ./inp_files/10635.got.cif
#   From: 2010.05.17/outbox.cif.g08.bks.cpg/sg139_6_cif.got.tgz:10635.got - 2010.05.20 13:14:44.
