data_PCOD9571682
_publ_section_title
;
Structure prediction by ZEFSAII (Michael W. Deem and Ramdas Pophale) SiO2 
 PCOD9571682
Probable space group: I 4/M M M
;
_chemical_formula_sum "Si O2"
_cell_formula_units_Z 192
_cell_length_a 22.059138
_cell_length_b 22.059138
_cell_length_c 22.912238
_cell_angle_alpha 90.000000
_cell_angle_beta 90.000000
_cell_angle_gamma 90.000000
_cell_volume 11149.222616
_symmetry_space_group_name_H-M "I 4/M M M"
_symmetry_group_IT_number 139
_symmetry_cell_setting 'tetragonal'
loop_
_space_group_symop_operation_xyz
x,y,z
-y,x,z
-x,-y,z
y,-x,z
x,-y,-z
-x,y,-z
y,x,-z
-y,-x,-z
-x,-y,-z
y,-x,-z
x,y,-z
-y,x,-z
-x,y,z
x,-y,z
-y,-x,z
y,x,z
1/2+x,1/2+y,1/2+z
1/2-y,1/2+x,1/2+z
1/2-x,1/2-y,1/2+z
1/2+y,1/2-x,1/2+z
1/2+x,1/2-y,1/2-z
1/2-x,1/2+y,1/2-z
1/2+y,1/2+x,1/2-z
1/2-y,1/2-x,1/2-z
1/2-x,1/2-y,1/2-z
1/2+y,1/2-x,1/2-z
1/2+x,1/2+y,1/2-z
1/2-y,1/2+x,1/2-z
1/2-x,1/2+y,1/2+z
1/2+x,1/2-y,1/2+z
1/2-y,1/2-x,1/2+z
1/2+y,1/2+x,1/2+z
loop_
_atom_site_type_symbol
_atom_site_label
_atom_site_fract_x
_atom_site_fract_y
_atom_site_fract_z
Si Si1 0.683171 0.683171 0.776521
Si Si2 0.307434 0.879542 0.115731
Si Si3 0.401189 0.500000 0.570964
Si Si4 0.759112 0.932639 0.672039
Si Si5 0.070372 0.325263 0.569045
Si Si6 0.760264 0.000000 0.929784
Si Si7 0.344619 0.066838 0.767044
Si Si8 0.773209 0.226791 0.152904
O O1 0.616494 0.699387 0.797978
O O2 0.727726 0.727726 0.813242
O O3 0.693227 0.693227 0.707396
O O4 0.373624 0.868674 0.087151
O O5 0.318562 0.888465 0.184745
O O6 0.264509 0.820617 0.113720
O O7 0.273792 0.939196 0.091785
O O8 0.440784 0.440784 0.588531
O O9 0.400274 0.500000 0.500000
O O10 0.331085 0.500000 0.590244
O O11 0.735658 0.919555 0.606925
O O12 0.697690 0.932334 0.710663
O O13 0.785163 0.000000 0.674405
O O14 0.073292 0.315305 0.500000
O O15 0.000000 0.345204 0.582541
O O16 0.759836 0.000000 0.000000
O O17 0.410606 0.089395 0.750000
O O18 0.344820 0.000000 0.792425
#
# Coordination Sequence:
#
# PCOD9571682 Si02
#       8
#    16  32  16  32  32  16  32  16
#     4  11  18  36  58  85 120 145 184 229 298 350
#     4  12  22  38  56  86 114 148 192 233 290 344
#     4   8  16  35  60  79 100 144 201 240 271 319
#     4  10  20  34  57  83 110 149 189 227 279 344
#     4  10  21  38  57  78 111 153 192 230 275 339
#     4  11  25  40  56  80 119 157 190 240 287 333
#     4  11  20  34  54  78 107 139 183 233 279 329
#     4  11  22  32  58  90 117 149 178 242 299 346
#
# _framework density 17.220931
#
# number of rings (size 3 to 8) (size 9 to 14) (size 15 to 20)
#    0.000    1.417    5.833    0.750    1.167    0.167 
#    0.000    2.917    0.000    1.750    0.000    0.000 
#    0.000    0.000    0.000    4.167    0.000    0.000 
#
# Total GULP energy -535039.688916 kJ/mol
# GULP energy per Si atom -5573.330093 kJ/mol
# Density = 1.718174 g / cm^3
# Si number density = 17.220931 Si / 1000 Ang^3
#
#
#
# Elastic Constant Matrix: (Units=GPa)
#
#
# Indices 1 2 3 4 5 6 
#
# 1 56.0720 98.7596 17.0848 0.0000 0.0000 0.0000
# 2 98.7596 56.0967 17.0837 0.0000 0.0000 0.0000
# 3 17.0848 17.0837 66.1285 0.0000 0.0000 0.0000
# 4 0.0000 0.0000 0.0000 18.9377 0.0000 0.0000
# 5 0.0000 0.0000 0.0000 0.0000 18.9374 0.0000
# 6 0.0000 0.0000 0.0000 0.0000 0.0000 23.3829
#
#
#
# Elastic Compliance Matrix: (Units=1/GPa)
#
#
# Indices 1 2 3 4 5 6 
#
# 1 -0.008294 0.015141 -0.001769 0.000000 0.000000 0.000000
# 2 0.015141 -0.008290 -0.001770 0.000000 0.000000 0.000000
# 3 -0.001769 -0.001770 0.016036 0.000000 0.000000 0.000000
# 4 0.000000 0.000000 0.000000 0.052805 0.000000 0.000000
# 5 0.000000 0.000000 0.000000 0.000000 0.052805 0.000000
# 6 0.000000 0.000000 0.000000 0.000000 0.000000 0.042766
#
#
# Mechanical properties :
#
#
# Convention : Reuss Voigt Hill
#
# Bulk Modulus (GPa) = 44.13823 49.35037 46.74430
# Shear Modulus (GPa) = 37.82824 15.27623 26.55223
#
# Velocity S-wave (km/s) = 4.69192 2.98161 3.93091
# Velocity P-wave (km/s) = 7.41879 6.36967 6.91416
#
# Compressibility (1/GPa) = 0.02265610
#
# Stress axis : x y z
#
# Youngs Moduli (GPa) = -120.56698 -120.62586 62.35866
#
# Poissons Ratio (x) = 1.82635 0.11029
# Poissons Ratio (y) = 1.82546 0.11038
# Poissons Ratio (z) = -0.21323 -0.21351
#
# Static dielectric constant tensor:
#      x y z
#    x 1.598200 0.000000 0.000000 
#    y 0.000000 1.598200 0.000000 
#    z 0.000000 0.000000 1.578940 
# 
# From -- ./inp_files/12082.got.cif
#   From: 2010.05.17/outbox.cif.g08.bks.cpg/sg139_7_cif.got.tgz:12082.got - 2010.05.20 13:14:44.
