data_PCOD9571320
_publ_section_title
;
Structure prediction by ZEFSAII (Michael W. Deem and Ramdas Pophale) SiO2 
 PCOD9571320
Probable space group: I 4/M M M
;
_chemical_formula_sum "Si O2"
_cell_formula_units_Z 192
_cell_length_a 21.022127
_cell_length_b 21.022127
_cell_length_c 25.215549
_cell_angle_alpha 90.000000
_cell_angle_beta 90.000000
_cell_angle_gamma 90.000000
_cell_volume 11143.503122
_symmetry_space_group_name_H-M "I 4/M M M"
_symmetry_group_IT_number 139
_symmetry_cell_setting 'tetragonal'
loop_
_space_group_symop_operation_xyz
x,y,z
-y,x,z
-x,-y,z
y,-x,z
x,-y,-z
-x,y,-z
y,x,-z
-y,-x,-z
-x,-y,-z
y,-x,-z
x,y,-z
-y,x,-z
-x,y,z
x,-y,z
-y,-x,z
y,x,z
1/2+x,1/2+y,1/2+z
1/2-y,1/2+x,1/2+z
1/2-x,1/2-y,1/2+z
1/2+y,1/2-x,1/2+z
1/2+x,1/2-y,1/2-z
1/2-x,1/2+y,1/2-z
1/2+y,1/2+x,1/2-z
1/2-y,1/2-x,1/2-z
1/2-x,1/2-y,1/2-z
1/2+y,1/2-x,1/2-z
1/2+x,1/2+y,1/2-z
1/2-y,1/2+x,1/2-z
1/2-x,1/2+y,1/2+z
1/2+x,1/2-y,1/2+z
1/2-y,1/2-x,1/2+z
1/2+y,1/2+x,1/2+z
loop_
_atom_site_type_symbol
_atom_site_label
_atom_site_fract_x
_atom_site_fract_y
_atom_site_fract_z
Si Si1 0.359178 0.073672 0.201079
Si Si2 0.575763 0.071161 0.913160
Si Si3 0.825385 0.928164 0.435877
Si Si4 0.147001 0.302191 0.559740
Si Si5 0.925480 0.179838 0.059327
Si Si6 0.744962 0.153056 0.144466
O O1 0.397556 0.102445 0.250000
O O2 0.403201 0.074770 0.148415
O O3 0.298400 0.117494 0.187289
O O4 0.341493 0.000000 0.210560
O O5 0.500000 0.077034 0.918782
O O6 0.610751 0.130251 0.939927
O O7 0.594397 0.000000 0.932077
O O8 0.831189 0.930617 0.500000
O O9 0.879030 0.879030 0.416488
O O10 0.755230 0.900453 0.425999
O O11 0.832818 0.000000 0.415718
O O12 0.171651 0.290015 0.500000
O O13 0.200191 0.306974 0.604623
O O14 0.884549 0.115451 0.062136
O O15 0.899725 0.224691 0.105454
O O16 0.000000 0.168281 0.064684
O O17 0.914013 0.207452 0.000000
O O18 0.800711 0.199290 0.164861
#
# Coordination Sequence:
#
# PCOD9571320 Si02
#       6
#    32  32  32  32  32  32
#     4  10  20  34  53  74  95 121 154 195 244 296
#     4   9  18  31  46  67  95 127 164 203 244 292
#     4   9  17  28  42  60  82 111 148 190 236 283
#     4  10  19  30  45  66  95 130 165 199 237 284
#     4   9  17  29  46  69  99 136 175 213 250 286
#     4  10  20  33  49  70  97 128 162 199 239 287
#
# _framework density 17.229771
#
# number of rings (size 3 to 8) (size 9 to 14) (size 15 to 20)
#    0.000    2.500    0.000    2.500    0.000    5.167 
#    0.000    2.500    0.000    0.000    0.000    0.000 
#    0.000    0.000    0.000    0.000    0.000   30.667 
#
# Total GULP energy -535317.021003 kJ/mol
# GULP energy per Si atom -5576.218969 kJ/mol
# Density = 1.719055 g / cm^3
# Si number density = 17.229771 Si / 1000 Ang^3
#
#
#
# Elastic Constant Matrix: (Units=GPa)
#
#
# Indices 1 2 3 4 5 6 
#
# 1 87.2668 41.8021 23.1006 0.0000 0.0000 0.0000
# 2 41.8021 87.2691 23.1011 0.0000 0.0000 0.0000
# 3 23.1006 23.1011 49.5795 0.0000 0.0000 0.0000
# 4 0.0000 0.0000 0.0000 10.9957 0.0000 0.0000
# 5 0.0000 0.0000 0.0000 0.0000 10.9958 0.0000
# 6 0.0000 0.0000 0.0000 0.0000 0.0000 17.2738
#
#
#
# Elastic Compliance Matrix: (Units=1/GPa)
#
#
# Indices 1 2 3 4 5 6 
#
# 1 0.015647 -0.006348 -0.004333 0.000000 0.000000 0.000000
# 2 -0.006348 0.015646 -0.004333 0.000000 0.000000 0.000000
# 3 -0.004333 -0.004333 0.024207 0.000000 0.000000 0.000000
# 4 0.000000 0.000000 0.000000 0.090944 0.000000 0.000000
# 5 0.000000 0.000000 0.000000 0.000000 0.090944 0.000000
# 6 0.000000 0.000000 0.000000 0.000000 0.000000 0.057891
#
#
# Mechanical properties :
#
#
# Convention : Reuss Voigt Hill
#
# Bulk Modulus (GPa) = 39.25572 44.45814 41.85693
# Shear Modulus (GPa) = 14.97916 16.92716 15.95316
#
# Velocity S-wave (km/s) = 2.95172 3.13779 3.04617
# Velocity P-wave (km/s) = 5.86941 6.24393 6.05957
#
# Compressibility (1/GPa) = 0.02547399
#
# Stress axis : x y z
#
# Youngs Moduli (GPa) = 63.91098 63.91251 41.31037
#
# Poissons Ratio (x) = 0.40571 0.17898
# Poissons Ratio (y) = 0.40571 0.17898
# Poissons Ratio (z) = 0.27690 0.27691
#
# Static dielectric constant tensor:
#      x y z
#    x 1.587060 0.000000 0.000000 
#    y 0.000000 1.587060 0.000000 
#    z 0.000000 0.000000 1.573560 
# 
# From -- ./inp_files/11923.got.cif
#   From: 2010.05.17/outbox.cif.g08.bks.cpg/sg139_6_cif.got.tgz:11923.got - 2010.05.20 13:14:44.
