data_PCOD9571458
_publ_section_title
;
Structure prediction by ZEFSAII (Michael W. Deem and Ramdas Pophale) SiO2 
 PCOD9571458
Probable space group: I 4/M M M
;
_chemical_formula_sum "Si O2"
_cell_formula_units_Z 160
_cell_length_a 32.685925
_cell_length_b 32.685925
_cell_length_c 8.797850
_cell_angle_alpha 90.000000
_cell_angle_beta 90.000000
_cell_angle_gamma 90.000000
_cell_volume 9399.356304
_symmetry_space_group_name_H-M "I 4/M M M"
_symmetry_group_IT_number 139
_symmetry_cell_setting 'tetragonal'
loop_
_space_group_symop_operation_xyz
x,y,z
-y,x,z
-x,-y,z
y,-x,z
x,-y,-z
-x,y,-z
y,x,-z
-y,-x,-z
-x,-y,-z
y,-x,-z
x,y,-z
-y,x,-z
-x,y,z
x,-y,z
-y,-x,z
y,x,z
1/2+x,1/2+y,1/2+z
1/2-y,1/2+x,1/2+z
1/2-x,1/2-y,1/2+z
1/2+y,1/2-x,1/2+z
1/2+x,1/2-y,1/2-z
1/2-x,1/2+y,1/2-z
1/2+y,1/2+x,1/2-z
1/2-y,1/2-x,1/2-z
1/2-x,1/2-y,1/2-z
1/2+y,1/2-x,1/2-z
1/2+x,1/2+y,1/2-z
1/2-y,1/2+x,1/2-z
1/2-x,1/2+y,1/2+z
1/2+x,1/2-y,1/2+z
1/2-y,1/2-x,1/2+z
1/2+y,1/2+x,1/2+z
loop_
_atom_site_type_symbol
_atom_site_label
_atom_site_fract_x
_atom_site_fract_y
_atom_site_fract_z
Si Si1 0.110408 0.326352 0.181921
Si Si2 0.894339 0.105662 0.825967
Si Si3 0.175866 0.175866 0.824494
Si Si4 0.389745 0.048164 0.318163
Si Si5 0.236258 0.113941 0.317500
Si Si6 0.331649 0.546789 0.182950
O O1 0.149190 0.350811 0.250000
O O2 0.071187 0.351331 0.243106
O O3 0.109653 0.280281 0.241907
O O4 0.111707 0.327708 0.000000
O O5 0.859219 0.140782 0.823195
O O6 0.873001 0.067344 0.745390
O O7 0.903926 0.096075 0.000000
O O8 0.155099 0.213914 0.740093
O O9 0.185383 0.185383 0.000000
O O10 0.388564 0.054605 0.500000
O O11 0.429512 0.070489 0.250000
O O12 0.389579 0.000000 0.287619
O O13 0.239730 0.114463 0.500000
O O14 0.206442 0.076019 0.273544
O O15 0.326557 0.500000 0.233900
O O16 0.333417 0.547326 0.000000
#
# Coordination Sequence:
#
# PCOD9571458 Si02
#       6
#    32  16  16  32  32  32
#     4  11  22  37  56  77 104 139 175 211 255 307
#     4   9  17  29  47  71 101 135 167 206 254 300
#     4   9  17  31  50  74 102 134 173 212 254 304
#     4  10  21  37  57  80 106 137 173 213 257 306
#     4  10  19  33  53  77 105 136 171 213 259 305
#     4   9  18  32  51  75 102 134 171 208 248 299
#
# _framework density 17.022442000000002
#
# number of rings (size 3 to 8) (size 9 to 14) (size 15 to 20)
#    0.000    2.200    0.000    4.800    0.000    6.200 
#    0.000    3.500    0.000    0.300    0.000    2.100 
#    0.000    0.000    0.000    0.000    0.000    0.000 
#
# Total GULP energy -446345.458652 kJ/mol
# GULP energy per Si atom -5579.318233 kJ/mol
# Density = 1.698370 g / cm^3
# Si number density = 17.022442 Si / 1000 Ang^3
#
#
#
# Elastic Constant Matrix: (Units=GPa)
#
#
# Indices 1 2 3 4 5 6 
#
# 1 88.8252 133.7854 66.0012 0.0000 0.0000 0.0000
# 2 133.7854 88.8608 66.0170 0.0000 0.0000 0.0000
# 3 66.0012 66.0170 98.6535 0.0000 0.0000 0.0000
# 4 0.0000 0.0000 0.0000 27.7343 0.0000 0.0000
# 5 0.0000 0.0000 0.0000 0.0000 27.7343 0.0000
# 6 0.0000 0.0000 0.0000 0.0000 0.0000 6.4677
#
#
#
# Elastic Compliance Matrix: (Units=1/GPa)
#
#
# Indices 1 2 3 4 5 6 
#
# 1 -0.007403 0.014849 -0.004983 0.000000 0.000000 0.000000
# 2 0.014849 -0.007401 -0.004981 0.000000 0.000000 0.000000
# 3 -0.004983 -0.004981 0.016804 0.000000 0.000000 0.000000
# 4 0.000000 0.000000 0.000000 0.036056 0.000000 0.000000
# 5 0.000000 0.000000 0.000000 0.000000 0.036056 0.000000
# 6 0.000000 0.000000 0.000000 0.000000 0.000000 0.154614
#
#
# Mechanical properties :
#
#
# Convention : Reuss Voigt Hill
#
# Bulk Modulus (GPa) = 84.98238 89.77185 87.37712
# Shear Modulus (GPa) = 22.43345 13.08965 17.76155
#
# Velocity S-wave (km/s) = 3.63419 2.77603 3.23370
# Velocity P-wave (km/s) = 8.22447 7.94525 8.08606
#
# Compressibility (1/GPa) = 0.01176715
#
# Stress axis : x y z
#
# Youngs Moduli (GPa) = -135.07314 -135.11656 59.51020
#
# Poissons Ratio (x) = 2.00628 0.29656
# Poissons Ratio (y) = 2.00563 0.29644
# Poissons Ratio (z) = -0.67311 -0.67306
#
# Static dielectric constant tensor:
#      x y z
#    x 1.560380 0.000000 0.000000 
#    y 0.000000 1.560380 0.000000 
#    z 0.000000 0.000000 1.571340 
# 
# From -- ./inp_files/2208.got.cif
#   From: 2010.05.17/outbox.cif.g08.bks.cpg/sg139_2_cif.got.tgz:2208.got - 2010.05.20 13:14:44.
