data_PCOD9571178
_publ_section_title
;
Structure prediction by ZEFSAII (Michael W. Deem and Ramdas Pophale) SiO2 
 PCOD9571178
Probable space group: I 4/M M M
;
_chemical_formula_sum "Si O2"
_cell_formula_units_Z 144
_cell_length_a 20.286709
_cell_length_b 20.286709
_cell_length_c 20.424728
_cell_angle_alpha 90.000000
_cell_angle_beta 90.000000
_cell_angle_gamma 90.000000
_cell_volume 8405.808288
_symmetry_space_group_name_H-M "I 4/M M M"
_symmetry_group_IT_number 139
_symmetry_cell_setting 'tetragonal'
loop_
_space_group_symop_operation_xyz
x,y,z
-y,x,z
-x,-y,z
y,-x,z
x,-y,-z
-x,y,-z
y,x,-z
-y,-x,-z
-x,-y,-z
y,-x,-z
x,y,-z
-y,x,-z
-x,y,z
x,-y,z
-y,-x,z
y,x,z
1/2+x,1/2+y,1/2+z
1/2-y,1/2+x,1/2+z
1/2-x,1/2-y,1/2+z
1/2+y,1/2-x,1/2+z
1/2+x,1/2-y,1/2-z
1/2-x,1/2+y,1/2-z
1/2+y,1/2+x,1/2-z
1/2-y,1/2-x,1/2-z
1/2-x,1/2-y,1/2-z
1/2+y,1/2-x,1/2-z
1/2+x,1/2+y,1/2-z
1/2-y,1/2+x,1/2-z
1/2-x,1/2+y,1/2+z
1/2+x,1/2-y,1/2+z
1/2-y,1/2-x,1/2+z
1/2+y,1/2+x,1/2+z
loop_
_atom_site_type_symbol
_atom_site_label
_atom_site_fract_x
_atom_site_fract_y
_atom_site_fract_z
Si Si1 0.573251 0.316268 0.500000
Si Si2 0.211022 0.317909 0.076970
Si Si3 0.426027 0.215096 0.621715
Si Si4 0.682151 0.575938 0.887302
Si Si5 0.179520 0.926867 0.230104
O O1 0.500000 0.346572 0.500000
O O2 0.630362 0.369639 0.500000
O O3 0.577630 0.270080 0.435857
O O4 0.254485 0.254485 0.100822
O O5 0.140494 0.326074 0.111391
O O6 0.257851 0.380950 0.085446
O O7 0.199199 0.307603 0.000000
O O8 0.500000 0.184929 0.616754
O O9 0.421051 0.253009 0.690456
O O10 0.681851 0.500000 0.908185
O O11 0.615244 0.615244 0.904636
O O12 0.688212 0.577811 0.808133
O O13 0.129125 0.870876 0.208526
O O14 0.152501 0.000000 0.215706
#
# Coordination Sequence:
#
# PCOD9571178 Si02
#       5
#    16  32  32  32  32
#     4  10  18  27  40  60  89 123 160 198 232 272
#     4  10  19  31  50  72  95 125 162 204 246 290
#     4  10  19  30  46  68  94 127 164 202 239 277
#     4   9  19  34  51  74 100 126 157 194 241 295
#     4   9  17  29  45  67  97 129 162 199 238 285
#
# _framework density 17.131011999999998
#
# number of rings (size 3 to 8) (size 9 to 14) (size 15 to 20)
#    0.000    2.444    1.111    2.000    0.000    1.889 
#    0.000    5.556    0.000    4.667    0.000    4.667 
#    0.000    5.333    0.000    0.000    0.000    0.000 
#
# Total GULP energy -401196.137114 kJ/mol
# GULP energy per Si atom -5572.168571 kJ/mol
# Density = 1.709202 g / cm^3
# Si number density = 17.131012 Si / 1000 Ang^3
#
#
#
# Elastic Constant Matrix: (Units=GPa)
#
#
# Indices 1 2 3 4 5 6 
#
# 1 99.9911 45.4219 7.7135 0.0000 0.0000 0.0000
# 2 45.4219 99.9915 7.7135 0.0000 0.0000 0.0000
# 3 7.7135 7.7135 11.5742 0.0000 0.0000 0.0000
# 4 0.0000 0.0000 0.0000 18.7504 0.0000 0.0000
# 5 0.0000 0.0000 0.0000 0.0000 18.7502 0.0000
# 6 0.0000 0.0000 0.0000 0.0000 0.0000 17.4281
#
#
#
# Elastic Compliance Matrix: (Units=1/GPa)
#
#
# Indices 1 2 3 4 5 6 
#
# 1 0.012863 -0.005463 -0.004932 0.000000 0.000000 0.000000
# 2 -0.005463 0.012863 -0.004932 0.000000 0.000000 0.000000
# 3 -0.004932 -0.004932 0.092972 0.000000 0.000000 0.000000
# 4 0.000000 0.000000 0.000000 0.053332 0.000000 0.000000
# 5 0.000000 0.000000 0.000000 0.000000 0.053333 0.000000
# 6 0.000000 0.000000 0.000000 0.000000 0.000000 0.057379
#
#
# Mechanical properties :
#
#
# Convention : Reuss Voigt Hill
#
# Bulk Modulus (GPa) = 11.35774 37.02830 24.19302
# Shear Modulus (GPa) = 14.58822 21.03293 17.81058
#
# Velocity S-wave (km/s) = 2.92133 3.50776 3.22789
# Velocity P-wave (km/s) = 4.24538 6.16989 5.29579
#
# Compressibility (1/GPa) = 0.08804565
#
# Stress axis : x y z
#
# Youngs Moduli (GPa) = 77.74388 77.74423 10.75588
#
# Poissons Ratio (x) = 0.42468 0.05305
# Poissons Ratio (y) = 0.42468 0.05305
# Poissons Ratio (z) = 0.38342 0.38341
#
# Static dielectric constant tensor:
#      x y z
#    x 1.583720 0.000000 0.000000 
#    y 0.000000 1.583720 0.000000 
#    z 0.000000 0.000000 1.599120 
# 
# From -- ./inp_files/10255.got.cif
#   From: 2010.05.17/outbox.cif.g08.bks.cpg/sg139_6_cif.got.tgz:10255.got - 2010.05.20 13:14:44.
