data_PCOD9571258
_publ_section_title
;
Structure prediction by ZEFSAII (Michael W. Deem and Ramdas Pophale) SiO2 
 PCOD9571258
Probable space group: I 4/M M M
;
_chemical_formula_sum "Si O2"
_cell_formula_units_Z 176
_cell_length_a 18.267589
_cell_length_b 18.267589
_cell_length_c 29.496334
_cell_angle_alpha 90.000000
_cell_angle_beta 90.000000
_cell_angle_gamma 90.000000
_cell_volume 9843.068470
_symmetry_space_group_name_H-M "I 4/M M M"
_symmetry_group_IT_number 139
_symmetry_cell_setting 'tetragonal'
loop_
_space_group_symop_operation_xyz
x,y,z
-y,x,z
-x,-y,z
y,-x,z
x,-y,-z
-x,y,-z
y,x,-z
-y,-x,-z
-x,-y,-z
y,-x,-z
x,y,-z
-y,x,-z
-x,y,z
x,-y,z
-y,-x,z
y,x,z
1/2+x,1/2+y,1/2+z
1/2-y,1/2+x,1/2+z
1/2-x,1/2-y,1/2+z
1/2+y,1/2-x,1/2+z
1/2+x,1/2-y,1/2-z
1/2-x,1/2+y,1/2-z
1/2+y,1/2+x,1/2-z
1/2-y,1/2-x,1/2-z
1/2-x,1/2-y,1/2-z
1/2+y,1/2-x,1/2-z
1/2+x,1/2+y,1/2-z
1/2-y,1/2+x,1/2-z
1/2-x,1/2+y,1/2+z
1/2+x,1/2-y,1/2+z
1/2-y,1/2-x,1/2+z
1/2+y,1/2+x,1/2+z
loop_
_atom_site_type_symbol
_atom_site_label
_atom_site_fract_x
_atom_site_fract_y
_atom_site_fract_z
Si Si1 0.238534 0.879948 0.950956
Si Si2 0.085787 0.792481 0.358982
Si Si3 0.885165 0.705606 0.447390
Si Si4 0.292815 0.582083 0.351953
Si Si5 0.417616 0.000000 0.445386
Si Si6 0.185973 0.688558 0.698099
O O1 0.162179 0.837822 0.954387
O O2 0.301263 0.818770 0.945091
O O3 0.232076 0.922339 0.904403
O O4 0.253712 0.915875 0.000000
O O5 0.136247 0.863754 0.350468
O O6 0.096170 0.767607 0.411354
O O7 0.119334 0.725473 0.329301
O O8 0.000000 0.803747 0.349780
O O9 0.902415 0.724123 0.500000
O O10 0.930612 0.632725 0.434125
O O11 0.309059 0.500000 0.335528
O O12 0.362562 0.637439 0.348422
O O13 0.225547 0.620697 0.326120
O O14 0.500000 0.000000 0.426785
O O15 0.423804 0.000000 0.500000
O O16 0.247700 0.752301 0.698344
O O17 0.169146 0.669146 0.750000
#
# Coordination Sequence:
#
# PCOD9571258 Si02
#       6
#    32  32  32  32  16  32
#     4   9  17  30  49  73 102 137 180 227 267 308
#     4  11  22  37  58  84 114 149 191 237 285 342
#     4  10  18  31  51  76 108 147 189 233 281 330
#     4  10  20  34  54  82 114 148 186 224 267 323
#     4   9  18  30  44  68 105 143 179 223 278 336
#     4   9  19  38  61  81 103 136 181 230 279 334
#
# _framework density 17.880603000000001
#
# number of rings (size 3 to 8) (size 9 to 14) (size 15 to 20)
#    0.000    2.273    2.727    0.545    0.000    3.273 
#    0.000    1.818    0.000    0.000    0.000   10.182 
#    0.000    0.000    0.000    0.000    0.000    0.000 
#
# Total GULP energy -490073.252027 kJ/mol
# GULP energy per Si atom -5569.014228 kJ/mol
# Density = 1.783991 g / cm^3
# Si number density = 17.880603 Si / 1000 Ang^3
#
#
#
# Elastic Constant Matrix: (Units=GPa)
#
#
# Indices 1 2 3 4 5 6 
#
# 1 112.6917 37.2210 43.0641 0.0000 0.0000 0.0000
# 2 37.2210 112.6917 43.0641 0.0000 0.0000 0.0000
# 3 43.0641 43.0641 99.3080 0.0000 0.0000 0.0000
# 4 0.0000 0.0000 0.0000 4.3308 0.0000 0.0000
# 5 0.0000 0.0000 0.0000 0.0000 4.3308 0.0000
# 6 0.0000 0.0000 0.0000 0.0000 0.0000 7.8938
#
#
#
# Elastic Compliance Matrix: (Units=1/GPa)
#
#
# Indices 1 2 3 4 5 6 
#
# 1 0.011067 -0.002183 -0.003852 0.000000 0.000000 0.000000
# 2 -0.002183 0.011067 -0.003852 0.000000 0.000000 0.000000
# 3 -0.003852 -0.003852 0.013411 0.000000 0.000000 0.000000
# 4 0.000000 0.000000 0.000000 0.230904 0.000000 0.000000
# 5 0.000000 0.000000 0.000000 0.000000 0.230904 0.000000
# 6 0.000000 0.000000 0.000000 0.000000 0.000000 0.126682
#
#
# Mechanical properties :
#
#
# Convention : Reuss Voigt Hill
#
# Bulk Modulus (GPa) = 63.41609 63.48777 63.45193
# Shear Modulus (GPa) = 7.70337 16.73388 12.21863
#
# Velocity S-wave (km/s) = 2.07788 3.06251 2.61692
# Velocity P-wave (km/s) = 6.42652 6.93462 6.68540
#
# Compressibility (1/GPa) = 0.01576887
#
# Stress axis : x y z
#
# Youngs Moduli (GPa) = 90.35857 90.35857 74.56666
#
# Poissons Ratio (x) = 0.19727 0.28726
# Poissons Ratio (y) = 0.19727 0.28726
# Poissons Ratio (z) = 0.34810 0.34810
#
# Static dielectric constant tensor:
#      x y z
#    x 1.631340 0.000000 0.000000 
#    y 0.000000 1.631340 0.000000 
#    z 0.000000 0.000000 1.647570 
# 
# From -- ./inp_files/14239.got.cif
#   From: 2010.05.17/outbox.cif.g08.bks.cpg/sg139_8_cif.got.tgz:14239.got - 2010.05.20 13:14:44.
