data_PCOD9571160
_publ_section_title
;
Structure prediction by ZEFSAII (Michael W. Deem and Ramdas Pophale) SiO2 
 PCOD9571160
Probable space group: I 4/M M M
;
_chemical_formula_sum "Si O2"
_cell_formula_units_Z 144
_cell_length_a 23.334027
_cell_length_b 23.334027
_cell_length_c 18.136072
_cell_angle_alpha 90.000000
_cell_angle_beta 90.000000
_cell_angle_gamma 90.000000
_cell_volume 9874.670738
_symmetry_space_group_name_H-M "I 4/M M M"
_symmetry_group_IT_number 139
_symmetry_cell_setting 'tetragonal'
loop_
_space_group_symop_operation_xyz
x,y,z
-y,x,z
-x,-y,z
y,-x,z
x,-y,-z
-x,y,-z
y,x,-z
-y,-x,-z
-x,-y,-z
y,-x,-z
x,y,-z
-y,x,-z
-x,y,z
x,-y,z
-y,-x,z
y,x,z
1/2+x,1/2+y,1/2+z
1/2-y,1/2+x,1/2+z
1/2-x,1/2-y,1/2+z
1/2+y,1/2-x,1/2+z
1/2+x,1/2-y,1/2-z
1/2-x,1/2+y,1/2-z
1/2+y,1/2+x,1/2-z
1/2-y,1/2-x,1/2-z
1/2-x,1/2-y,1/2-z
1/2+y,1/2-x,1/2-z
1/2+x,1/2+y,1/2-z
1/2-y,1/2+x,1/2-z
1/2-x,1/2+y,1/2+z
1/2+x,1/2-y,1/2+z
1/2-y,1/2-x,1/2+z
1/2+y,1/2+x,1/2+z
loop_
_atom_site_type_symbol
_atom_site_label
_atom_site_fract_x
_atom_site_fract_y
_atom_site_fract_z
Si Si1 0.065820 0.162046 0.699760
Si Si2 0.366245 0.268017 0.916550
Si Si3 0.217593 0.687212 0.334369
Si Si4 0.935841 0.159927 0.000000
Si Si5 0.064977 0.232507 0.149559
O O1 0.108271 0.108271 0.694173
O O2 0.086556 0.209501 0.640684
O O3 0.070623 0.189551 0.781006
O O4 0.000000 0.146154 0.686640
O O5 0.318388 0.318388 0.917580
O O6 0.331872 0.213530 0.885615
O O7 0.387051 0.259772 0.000000
O O8 0.276514 0.723487 0.349089
O O9 0.200991 0.700991 0.250000
O O10 0.226516 0.619859 0.345295
O O11 0.930322 0.198370 0.926988
O O12 0.888538 0.111463 0.000000
O O13 0.000000 0.134966 0.000000
O O14 0.000000 0.257234 0.153302
#
# Coordination Sequence:
#
# PCOD9571160 Si02
#       5
#    32  32  32  16  32
#     4  10  19  32  48  65  92 127 161 198 235 272
#     4   9  18  30  45  69  93 115 148 191 237 280
#     4  10  17  28  48  69  90 117 151 189 233 285
#     4  10  20  31  44  62  88 124 163 199 230 266
#     4  10  20  32  45  65  94 124 154 193 239 282
#
# _framework density 14.582765
#
# number of rings (size 3 to 8) (size 9 to 14) (size 15 to 20)
#    0.000    2.222    2.222    2.000    1.556    0.778 
#    0.000    0.000    0.000    4.000    0.000    3.111 
#    0.000    3.111    0.000    2.000    0.000    0.000 
#
# Total GULP energy -401204.404950 kJ/mol
# GULP energy per Si atom -5572.283402 kJ/mol
# Density = 1.454957 g / cm^3
# Si number density = 14.582765 Si / 1000 Ang^3
#
#
#
# Elastic Constant Matrix: (Units=GPa)
#
#
# Indices 1 2 3 4 5 6 
#
# 1 79.9890 40.0032 41.2463 0.0000 0.0000 0.0000
# 2 40.0032 79.9889 41.2462 0.0000 0.0000 0.0000
# 3 41.2463 41.2462 111.3070 0.0000 0.0000 0.0000
# 4 0.0000 0.0000 0.0000 11.8953 0.0000 0.0000
# 5 0.0000 0.0000 0.0000 0.0000 11.8960 0.0000
# 6 0.0000 0.0000 0.0000 0.0000 0.0000 20.8496
#
#
#
# Elastic Compliance Matrix: (Units=1/GPa)
#
#
# Indices 1 2 3 4 5 6 
#
# 1 0.018096 -0.006913 -0.004144 0.000000 0.000000 0.000000
# 2 -0.006913 0.018096 -0.004144 0.000000 0.000000 0.000000
# 3 -0.004144 -0.004144 0.012055 0.000000 0.000000 0.000000
# 4 0.000000 0.000000 0.000000 0.084067 0.000000 0.000000
# 5 0.000000 0.000000 0.000000 0.000000 0.084062 0.000000
# 6 0.000000 0.000000 0.000000 0.000000 0.000000 0.047962
#
#
# Mechanical properties :
#
#
# Convention : Reuss Voigt Hill
#
# Bulk Modulus (GPa) = 56.03757 57.36403 56.70080
# Shear Modulus (GPa) = 16.62853 18.84747 17.73800
#
# Velocity S-wave (km/s) = 3.38048 3.59896 3.49143
# Velocity P-wave (km/s) = 7.33127 7.52943 7.43101
#
# Compressibility (1/GPa) = 0.01784517
#
# Stress axis : x y z
#
# Youngs Moduli (GPa) = 55.26138 55.26135 82.95085
#
# Poissons Ratio (x) = 0.38203 0.34374
# Poissons Ratio (y) = 0.38203 0.34374
# Poissons Ratio (z) = 0.22900 0.22900
#
# Static dielectric constant tensor:
#      x y z
#    x 1.469300 0.000000 0.000000 
#    y 0.000000 1.469300 0.000000 
#    z 0.000000 0.000000 1.495080 
# 
# From -- ./inp_files/8182.got.cif
#   From: 2010.05.17/outbox.cif.g08.bks.cpg/sg139_5_cif.got.tgz:8182.got - 2010.05.20 13:14:44.
