data_PCOD9571459
_publ_section_title
;
Structure prediction by ZEFSAII (Michael W. Deem and Ramdas Pophale) SiO2 
 PCOD9571459
Probable space group: I 4/M M M
;
_chemical_formula_sum "Si O2"
_cell_formula_units_Z 144
_cell_length_a 26.781983
_cell_length_b 26.781983
_cell_length_c 11.280383
_cell_angle_alpha 90.000000
_cell_angle_beta 90.000000
_cell_angle_gamma 90.000000
_cell_volume 8091.132355
_symmetry_space_group_name_H-M "I 4/M M M"
_symmetry_group_IT_number 139
_symmetry_cell_setting 'tetragonal'
loop_
_space_group_symop_operation_xyz
x,y,z
-y,x,z
-x,-y,z
y,-x,z
x,-y,-z
-x,y,-z
y,x,-z
-y,-x,-z
-x,-y,-z
y,-x,-z
x,y,-z
-y,x,-z
-x,y,z
x,-y,z
-y,-x,z
y,x,z
1/2+x,1/2+y,1/2+z
1/2-y,1/2+x,1/2+z
1/2-x,1/2-y,1/2+z
1/2+y,1/2-x,1/2+z
1/2+x,1/2-y,1/2-z
1/2-x,1/2+y,1/2-z
1/2+y,1/2+x,1/2-z
1/2-y,1/2-x,1/2-z
1/2-x,1/2-y,1/2-z
1/2+y,1/2-x,1/2-z
1/2+x,1/2+y,1/2-z
1/2-y,1/2+x,1/2-z
1/2-x,1/2+y,1/2+z
1/2+x,1/2-y,1/2+z
1/2-y,1/2-x,1/2+z
1/2+y,1/2+x,1/2+z
loop_
_atom_site_type_symbol
_atom_site_label
_atom_site_fract_x
_atom_site_fract_y
_atom_site_fract_z
Si Si1 0.301715 0.618688 0.799171
Si Si2 0.228331 0.442921 0.639953
Si Si3 0.059284 0.141107 0.500000
Si Si4 0.303688 0.779043 0.125472
Si Si5 0.939663 0.387890 0.137354
O O1 0.344114 0.655887 0.749794
O O2 0.268381 0.591436 0.702926
O O3 0.328510 0.579962 0.886608
O O4 0.263351 0.654099 0.870130
O O5 0.237042 0.442990 0.500000
O O6 0.233251 0.500000 0.683965
O O7 0.170660 0.427738 0.657145
O O8 0.088249 0.088249 0.500000
O O9 0.000000 0.136772 0.500000
O O10 0.250738 0.749263 0.125801
O O11 0.307261 0.807261 0.250000
O O12 0.307232 0.807163 0.000000
O O13 0.917484 0.417484 0.250000
O O14 0.000000 0.392702 0.138766
O O15 0.923993 0.401232 0.000000
#
# Coordination Sequence:
#
# PCOD9571459 Si02
#       5
#    32  32  16  32  32
#     4  10  19  33  53  77 105 138 181 226 270 323
#     4   9  19  36  54  73 103 141 177 217 268 326
#     4  10  20  35  56  80 108 140 179 233 291 345
#     4   9  17  30  46  66  98 137 173 210 252 301
#     4   9  19  37  58  80 110 146 184 230 283 336
#
# _framework density 17.797260999999999
#
# number of rings (size 3 to 8) (size 9 to 14) (size 15 to 20)
#    0.000    2.667    1.111    2.000    0.000    3.000 
#    2.000    5.556    0.000    0.000    0.000    0.000 
#    0.000    0.000    0.000   20.667    0.000    0.222 
#
# Total GULP energy -401202.695258 kJ/mol
# GULP energy per Si atom -5572.259656 kJ/mol
# Density = 1.775675 g / cm^3
# Si number density = 17.797261 Si / 1000 Ang^3
#
#
#
# Elastic Constant Matrix: (Units=GPa)
#
#
# Indices 1 2 3 4 5 6 
#
# 1 76.4176 43.1143 60.3236 0.0000 0.0000 0.0000
# 2 43.1143 76.4176 60.3236 0.0000 0.0000 0.0000
# 3 60.3236 60.3236 133.6929 0.0000 0.0000 0.0000
# 4 0.0000 0.0000 0.0000 21.5977 0.0000 0.0000
# 5 0.0000 0.0000 0.0000 0.0000 21.5977 0.0000
# 6 0.0000 0.0000 0.0000 0.0000 0.0000 23.0905
#
#
#
# Elastic Compliance Matrix: (Units=1/GPa)
#
#
# Indices 1 2 3 4 5 6 
#
# 1 0.022695 -0.007332 -0.006932 0.000000 0.000000 0.000000
# 2 -0.007332 0.022695 -0.006932 0.000000 0.000000 0.000000
# 3 -0.006932 -0.006932 0.013735 0.000000 0.000000 0.000000
# 4 0.000000 0.000000 0.000000 0.046301 0.000000 0.000000
# 5 0.000000 0.000000 0.000000 0.000000 0.046301 0.000000
# 6 0.000000 0.000000 0.000000 0.000000 0.000000 0.043308
#
#
# Mechanical properties :
#
#
# Convention : Reuss Voigt Hill
#
# Bulk Modulus (GPa) = 59.76170 68.22789 63.99479
# Shear Modulus (GPa) = 20.57583 21.44162 21.00872
#
# Velocity S-wave (km/s) = 3.40387 3.47475 3.43949
# Velocity P-wave (km/s) = 7.00717 7.38362 7.19786
#
# Compressibility (1/GPa) = 0.01673313
#
# Stress axis : x y z
#
# Youngs Moduli (GPa) = 44.06326 44.06326 72.80654
#
# Poissons Ratio (x) = 0.32309 0.50466
# Poissons Ratio (y) = 0.32309 0.50466
# Poissons Ratio (z) = 0.30543 0.30543
#
# Static dielectric constant tensor:
#      x y z
#    x 1.609760 0.000000 0.000000 
#    y 0.000000 1.609760 0.000000 
#    z 0.000000 0.000000 1.634620 
# 
# From -- ./inp_files/1976.got.cif
#   From: 2010.05.17/outbox.cif.g08.bks.cpg/sg139_1_cif.got.tgz:1976.got - 2010.05.20 13:14:44.
