data_PCOD9571609
_publ_section_title
;
Structure prediction by ZEFSAII (Michael W. Deem and Ramdas Pophale) SiO2 
 PCOD9571609
Probable space group: I 4/M M M
;
_chemical_formula_sum "Si O2"
_cell_formula_units_Z 112
_cell_length_a 16.184937
_cell_length_b 16.184937
_cell_length_c 20.267897
_cell_angle_alpha 90.000000
_cell_angle_beta 90.000000
_cell_angle_gamma 90.000000
_cell_volume 5309.219919
_symmetry_space_group_name_H-M "I 4/M M M"
_symmetry_group_IT_number 139
_symmetry_cell_setting 'tetragonal'
loop_
_space_group_symop_operation_xyz
x,y,z
-y,x,z
-x,-y,z
y,-x,z
x,-y,-z
-x,y,-z
y,x,-z
-y,-x,-z
-x,-y,-z
y,-x,-z
x,y,-z
-y,x,-z
-x,y,z
x,-y,z
-y,-x,z
y,x,z
1/2+x,1/2+y,1/2+z
1/2-y,1/2+x,1/2+z
1/2-x,1/2-y,1/2+z
1/2+y,1/2-x,1/2+z
1/2+x,1/2-y,1/2-z
1/2-x,1/2+y,1/2-z
1/2+y,1/2+x,1/2-z
1/2-y,1/2-x,1/2-z
1/2-x,1/2-y,1/2-z
1/2+y,1/2-x,1/2-z
1/2+x,1/2+y,1/2-z
1/2-y,1/2+x,1/2-z
1/2-x,1/2+y,1/2+z
1/2+x,1/2-y,1/2+z
1/2-y,1/2-x,1/2+z
1/2+y,1/2+x,1/2+z
loop_
_atom_site_type_symbol
_atom_site_label
_atom_site_fract_x
_atom_site_fract_y
_atom_site_fract_z
Si Si1 0.226182 0.908684 0.620038
Si Si2 0.724301 0.591678 0.279196
Si Si3 0.591639 0.142949 0.384908
Si Si4 0.276556 0.412230 0.500000
O O1 0.166448 0.833553 0.597327
O O2 0.227423 0.904463 0.700084
O O3 0.322652 0.902785 0.600486
O O4 0.194323 0.000000 0.601182
O O5 0.692355 0.500000 0.296881
O O6 0.664180 0.664180 0.302770
O O7 0.812883 0.599166 0.313758
O O8 0.500000 0.102235 0.388847
O O9 0.590161 0.217491 0.436880
O O10 0.321795 0.500000 0.500000
O O11 0.336956 0.336956 0.500000
#
# Coordination Sequence:
#
# PCOD9571609 Si02
#       4
#    32  32  32  16
#     4  10  20  34  54  78 104 136 171 211 260 309
#     4   9  17  29  47  72 102 136 172 211 255 303
#     4  10  20  34  52  75 103 135 173 213 253 303
#     4  10  20  33  51  75 104 140 178 216 257 302
#
# _framework density 21.095378
#
# number of rings (size 3 to 8) (size 9 to 14) (size 15 to 20)
#    0.000    2.286    0.000    3.429    0.000    3.571 
#    0.000    3.571    0.000   12.857    0.000    0.000 
#    0.000    3.429    0.000    0.000    0.000    0.000 
#
# Total GULP energy -312180.780642 kJ/mol
# GULP energy per Si atom -5574.656797 kJ/mol
# Density = 2.104736 g / cm^3
# Si number density = 21.095378 Si / 1000 Ang^3
#
#
#
# Elastic Constant Matrix: (Units=GPa)
#
#
# Indices 1 2 3 4 5 6 
#
# 1 111.6033 70.1158 2.0337 0.0000 0.0000 0.0000
# 2 70.1158 111.6033 2.0337 0.0000 0.0000 0.0000
# 3 2.0337 2.0337 23.1491 0.0000 0.0000 0.0000
# 4 0.0000 0.0000 0.0000 -3.5794 0.0000 0.0000
# 5 0.0000 0.0000 0.0000 0.0000 -3.5794 0.0000
# 6 0.0000 0.0000 0.0000 0.0000 0.0000 -3.1528
#
#
#
# Elastic Compliance Matrix: (Units=1/GPa)
#
#
# Indices 1 2 3 4 5 6 
#
# 1 0.014809 -0.009295 -0.000484 0.000000 0.000000 0.000000
# 2 -0.009295 0.014809 -0.000484 0.000000 0.000000 0.000000
# 3 -0.000484 -0.000484 0.043283 0.000000 0.000000 0.000000
# 4 0.000000 0.000000 0.000000 -0.279377 0.000000 0.000000
# 5 0.000000 0.000000 0.000000 0.000000 -0.279377 0.000000
# 6 0.000000 0.000000 0.000000 0.000000 0.000000 -0.317176
#
#
# Mechanical properties :
#
#
# Convention : Reuss Voigt Hill
#
# Bulk Modulus (GPa) = 19.09368 43.85799 31.47584
# Shear Modulus (GPa) = -6.53557 9.41585 1.44014
#
# Velocity S-wave (km/s) = -1.76205 2.11498 0.82714
# Velocity P-wave (km/s) = 2.22059 5.17684 3.98313
#
# Compressibility (1/GPa) = 0.05237335
#
# Stress axis : x y z
#
# Youngs Moduli (GPa) = 67.52769 67.52769 23.10362
#
# Poissons Ratio (x) = 0.62766 0.01119
# Poissons Ratio (y) = 0.62766 0.01119
# Poissons Ratio (z) = 0.03271 0.03271
#
# Static dielectric constant tensor:
#      x y z
#    x 1.769420 0.000000 0.000000 
#    y 0.000000 1.769420 0.000000 
#    z 0.000000 0.000000 1.809440 
# 
# From -- ./inp_files/12601.got.cif
#   From: 2010.05.17/outbox.cif.g08.bks.cpg/sg139_7_cif.got.tgz:12601.got - 2010.05.20 13:14:44.
