data_PCOD9571411
_publ_section_title
;
Structure prediction by ZEFSAII (Michael W. Deem and Ramdas Pophale) SiO2 
 PCOD9571411
Probable space group: I 4/M M M
;
_chemical_formula_sum "Si O2"
_cell_formula_units_Z 208
_cell_length_a 26.102726
_cell_length_b 26.102726
_cell_length_c 17.811297
_cell_angle_alpha 90.000000
_cell_angle_beta 90.000000
_cell_angle_gamma 90.000000
_cell_volume 12135.768259
_symmetry_space_group_name_H-M "I 4/M M M"
_symmetry_group_IT_number 139
_symmetry_cell_setting 'tetragonal'
loop_
_space_group_symop_operation_xyz
x,y,z
-y,x,z
-x,-y,z
y,-x,z
x,-y,-z
-x,y,-z
y,x,-z
-y,-x,-z
-x,-y,-z
y,-x,-z
x,y,-z
-y,x,-z
-x,y,z
x,-y,z
-y,-x,z
y,x,z
1/2+x,1/2+y,1/2+z
1/2-y,1/2+x,1/2+z
1/2-x,1/2-y,1/2+z
1/2+y,1/2-x,1/2+z
1/2+x,1/2-y,1/2-z
1/2-x,1/2+y,1/2-z
1/2+y,1/2+x,1/2-z
1/2-y,1/2-x,1/2-z
1/2-x,1/2-y,1/2-z
1/2+y,1/2-x,1/2-z
1/2+x,1/2+y,1/2-z
1/2-y,1/2+x,1/2-z
1/2-x,1/2+y,1/2+z
1/2+x,1/2-y,1/2+z
1/2-y,1/2-x,1/2+z
1/2+y,1/2+x,1/2+z
loop_
_atom_site_type_symbol
_atom_site_label
_atom_site_fract_x
_atom_site_fract_y
_atom_site_fract_z
Si Si1 0.356470 0.560578 0.000000
Si Si2 0.940632 0.293284 0.323286
Si Si3 0.738845 0.437747 0.414599
Si Si4 0.896689 0.814555 0.344402
Si Si5 0.941848 0.391513 0.411777
Si Si6 0.343021 0.938788 0.835903
Si Si7 0.060242 0.143779 0.191306
O O1 0.327813 0.579516 0.925138
O O2 0.360636 0.500000 0.000000
O O3 0.411276 0.588725 0.000000
O O4 0.903054 0.245608 0.330568
O O5 0.939024 0.331034 0.393947
O O6 0.928416 0.327487 0.250140
O O7 0.000000 0.274699 0.313945
O O8 0.729862 0.421098 0.500000
O O9 0.740218 0.500000 0.413858
O O10 0.794299 0.420370 0.384882
O O11 0.692746 0.423574 0.358965
O O12 0.840471 0.840471 0.341398
O O13 0.928679 0.841539 0.277697
O O14 0.935381 0.401927 0.500000
O O15 0.896416 0.416897 0.364875
O O16 0.000000 0.407615 0.389691
O O17 0.346067 0.000000 0.843551
O O18 0.095054 0.095054 0.172033
O O19 0.000000 0.134556 0.180024
#
# Coordination Sequence:
#
# PCOD9571411 Si02
#       7
#    16  32  32  32  32  32  32
#     4  10  20  31  48  76 108 144 183 225 277 335
#     4  10  19  34  56  79 106 143 186 228 269 319
#     4   9  17  30  50  75  99 132 181 228 269 313
#     4  10  20  34  54  80 107 139 182 232 282 326
#     4  10  22  36  52  82 115 143 177 216 269 333
#     4  10  19  34  57  80 107 143 180 221 268 319
#     4  10  19  32  50  74 106 141 179 226 278 333
#
# _framework density 17.139417999999999
#
# number of rings (size 3 to 8) (size 9 to 14) (size 15 to 20)
#    0.000    2.154    1.538    2.308    1.077    1.769 
#    0.000    0.769    0.000    8.308    0.000    2.154 
#    0.000    0.000    0.000    0.000    0.000    0.000 
#
# Total GULP energy -579824.862873 kJ/mol
# GULP energy per Si atom -5575.239066 kJ/mol
# Density = 1.710041 g / cm^3
# Si number density = 17.139418 Si / 1000 Ang^3
#
#
#
# Elastic Constant Matrix: (Units=GPa)
#
#
# Indices 1 2 3 4 5 6 
#
# 1 100.0602 56.3239 40.9071 0.0000 0.0000 0.0000
# 2 56.3239 100.0618 40.9080 0.0000 0.0000 0.0000
# 3 40.9071 40.9080 95.6821 0.0000 0.0000 0.0000
# 4 0.0000 0.0000 0.0000 21.2180 0.0000 0.0000
# 5 0.0000 0.0000 0.0000 0.0000 21.2174 0.0000
# 6 0.0000 0.0000 0.0000 0.0000 0.0000 23.6428
#
#
#
# Elastic Compliance Matrix: (Units=1/GPa)
#
#
# Indices 1 2 3 4 5 6 
#
# 1 0.015550 -0.007314 -0.003521 0.000000 0.000000 0.000000
# 2 -0.007314 0.015550 -0.003522 0.000000 0.000000 0.000000
# 3 -0.003521 -0.003522 0.013462 0.000000 0.000000 0.000000
# 4 0.000000 0.000000 0.000000 0.047130 0.000000 0.000000
# 5 0.000000 0.000000 0.000000 0.000000 0.047131 0.000000
# 6 0.000000 0.000000 0.000000 0.000000 0.000000 0.042296
#
#
# Mechanical properties :
#
#
# Convention : Reuss Voigt Hill
#
# Bulk Modulus (GPa) = 63.09173 63.56468 63.32820
# Shear Modulus (GPa) = 23.24318 23.72663 23.48490
#
# Velocity S-wave (km/s) = 3.68655 3.72470 3.70567
# Velocity P-wave (km/s) = 7.41699 7.46091 7.43898
#
# Compressibility (1/GPa) = 0.01584994
#
# Stress axis : x y z
#
# Youngs Moduli (GPa) = 64.30694 64.30756 74.28062
#
# Poissons Ratio (x) = 0.47031 0.26158
# Poissons Ratio (y) = 0.47031 0.26159
# Poissons Ratio (z) = 0.22646 0.22647
#
# Static dielectric constant tensor:
#      x y z
#    x 1.572900 0.000000 0.000000 
#    y 0.000000 1.572900 0.000000 
#    z 0.000000 0.000000 1.600630 
# 
# From -- ./inp_files/8996.got.cif
#   From: 2010.05.17/outbox.cif.g08.bks.cpg/sg139_5_cif.got.tgz:8996.got - 2010.05.20 13:14:44.
