data_PCOD9571019
_publ_section_title
;
Structure prediction by ZEFSAII (Michael W. Deem and Ramdas Pophale) SiO2 
 PCOD9571019
Probable space group: P 42/N C M
;
_chemical_formula_sum "Si O2"
_cell_formula_units_Z 92
_cell_length_a 16.230750
_cell_length_b 16.230750
_cell_length_c 18.525336
_cell_angle_alpha 90.000000
_cell_angle_beta 90.000000
_cell_angle_gamma 90.000000
_cell_volume 4880.263489
_symmetry_space_group_name_H-M "P 42/N C M"
_symmetry_group_IT_number 138
_space_group.IT_coordinate_system_code '2'
_symmetry_cell_setting 'tetragonal'
loop_
_space_group_symop_operation_xyz
x,y,z
1/2-y,x,1/2+z
1/2-x,1/2-y,z
y,1/2-x,1/2+z
1/2+x,-y,1/2-z
-x,1/2+y,1/2-z
1/2+y,1/2+x,-z
-y,-x,-z
-x,-y,-z
1/2+y,-x,1/2-z
1/2+x,1/2+y,-z
-y,1/2+x,1/2-z
1/2-x,y,1/2+z
x,1/2-y,1/2+z
1/2-y,1/2-x,z
y,x,z
loop_
_atom_site_type_symbol
_atom_site_label
_atom_site_fract_x
_atom_site_fract_y
_atom_site_fract_z
Si Si1 0.917208 0.582793 0.787245
Si Si2 0.628865 0.871136 0.949761
Si Si3 0.373279 0.373279 0.875486
Si Si4 0.814948 0.054280 0.468889
Si Si5 0.269649 0.652935 0.832056
Si Si6 0.853539 0.051769 0.054067
Si Si7 0.402918 0.645851 0.313909
Si Si8 0.750000 0.750000 0.038690
O O1 0.877877 0.622124 0.861176
O O2 0.880446 0.619555 0.712255
O O3 0.903172 0.484079 0.790548
O O4 0.537556 0.849629 0.976684
O O5 0.692994 0.807007 0.985978
O O6 0.464171 0.354754 0.906797
O O7 0.308178 0.308178 0.910198
O O8 0.878970 0.121031 0.500000
O O9 0.728314 0.059609 0.506937
O O10 0.804185 0.068929 0.383703
O O11 0.250000 0.750000 0.844096
O O12 0.339411 0.621274 0.885585
O O13 0.301082 0.628910 0.753027
O O14 0.182613 0.603941 0.840204
O O15 0.928194 0.071807 0.000000
#
# Coordination Sequence:
#
# PCOD9571019 Si02
#       8
#     8   8   8  16  16  16  16   4
#     4  10  24  41  66  90 134 166 208 266 335 384
#     4  10  23  43  65  94 121 168 213 278 325 379
#     4  12  25  49  67  94 129 181 214 277 324 391
#     4  11  22  38  62  95 128 162 211 273 326 379
#     4  12  22  37  63  93 130 170 212 256 316 387
#     4  12  26  40  64  96 134 170 216 262 324 396
#     4  11  21  37  60  91 126 171 205 256 324 381
#     4  12  24  46  76  92 120 166 238 266 320 378
#
# _framework density 18.851441000000001
#
# number of rings (size 3 to 8) (size 9 to 14) (size 15 to 20)
#    0.000    0.696    6.957    1.565    0.000    0.348 
#    0.000    0.870    0.000    0.000    0.000    0.000 
#    0.000    0.000    0.000    0.000    0.000    0.000 
#
# Total GULP energy -512808.871812 kJ/mol
# GULP energy per Si atom -5574.009476 kJ/mol
# Density = 1.880853 g / cm^3
# Si number density = 18.851441 Si / 1000 Ang^3
#
#
#
# Elastic Constant Matrix: (Units=GPa)
#
#
# Indices 1 2 3 4 5 6 
#
# 1 102.1186 42.9150 35.8226 0.0000 0.0000 0.0000
# 2 42.9150 102.1212 35.8231 0.0000 0.0000 0.0000
# 3 35.8226 35.8231 101.5879 0.0000 0.0000 0.0000
# 4 0.0000 0.0000 0.0000 24.1996 0.0000 0.0000
# 5 0.0000 0.0000 0.0000 0.0000 24.1901 0.0000
# 6 0.0000 0.0000 0.0000 0.0000 0.0000 31.8221
#
#
#
# Elastic Compliance Matrix: (Units=1/GPa)
#
#
# Indices 1 2 3 4 5 6 
#
# 1 0.012620 -0.004271 -0.002944 0.000000 0.000000 0.000000
# 2 -0.004271 0.012620 -0.002944 0.000000 0.000000 0.000000
# 3 -0.002944 -0.002944 0.011920 0.000000 0.000000 0.000000
# 4 0.000000 0.000000 0.000000 0.041323 0.000000 0.000000
# 5 0.000000 0.000000 0.000000 0.000000 0.041339 0.000000
# 6 0.000000 0.000000 0.000000 0.000000 0.000000 0.031425
#
#
# Mechanical properties :
#
#
# Convention : Reuss Voigt Hill
#
# Bulk Modulus (GPa) = 59.37573 59.43877 59.40725
# Shear Modulus (GPa) = 28.22009 28.79351 28.50680
#
# Velocity S-wave (km/s) = 3.87327 3.91242 3.89290
# Velocity P-wave (km/s) = 7.18109 7.21165 7.19639
#
# Compressibility (1/GPa) = 0.01684190
#
# Stress axis : x y z
#
# Youngs Moduli (GPa) = 79.23903 79.24103 83.89180
#
# Poissons Ratio (x) = 0.33841 0.24700
# Poissons Ratio (y) = 0.33840 0.24699
# Poissons Ratio (z) = 0.23330 0.23330
#
# Static dielectric constant tensor:
#      x y z
#    x 1.683200 0.000000 0.000000 
#    y 0.000000 1.683200 0.000000 
#    z 0.000000 0.000000 1.712870 
# 
# From -- ./inp_files/6323.got.cif
#   From: 2010.05.17/outbox.cif.g08.bks.cpg/sg138_4_cif.got.tgz:6323.got - 2010.05.20 13:08:53.
