data_PCOD9571983
_publ_section_title
;
Structure prediction by ZEFSAII (Michael W. Deem and Ramdas Pophale) SiO2 
 PCOD9571983
Probable space group: I 4/M M M
;
_chemical_formula_sum "Si O2"
_cell_formula_units_Z 80
_cell_length_a 21.000000
_cell_length_b 21.000000
_cell_length_c 18.000000
_cell_angle_alpha 90.000000
_cell_angle_beta 90.000000
_cell_angle_gamma 90.000000
_cell_volume 7938.000000
_symmetry_space_group_name_H-M "I 4/M M M"
_symmetry_group_IT_number 139
_symmetry_cell_setting 'tetragonal'
loop_
_space_group_symop_operation_xyz
x,y,z
-y,x,z
-x,-y,z
y,-x,z
x,-y,-z
-x,y,-z
y,x,-z
-y,-x,-z
-x,-y,-z
y,-x,-z
x,y,-z
-y,x,-z
-x,y,z
x,-y,z
-y,-x,z
y,x,z
1/2+x,1/2+y,1/2+z
1/2-y,1/2+x,1/2+z
1/2-x,1/2-y,1/2+z
1/2+y,1/2-x,1/2+z
1/2+x,1/2-y,1/2-z
1/2-x,1/2+y,1/2-z
1/2+y,1/2+x,1/2-z
1/2-y,1/2-x,1/2-z
1/2-x,1/2-y,1/2-z
1/2+y,1/2-x,1/2-z
1/2+x,1/2+y,1/2-z
1/2-y,1/2+x,1/2-z
1/2-x,1/2+y,1/2+z
1/2+x,1/2-y,1/2+z
1/2-y,1/2-x,1/2+z
1/2+y,1/2+x,1/2+z
loop_
_atom_site_type_symbol
_atom_site_label
_atom_site_fract_x
_atom_site_fract_y
_atom_site_fract_z
Si Si1 0.360710 0.262970 0.362061
Si Si2 0.000000 0.575268 0.415643
Si Si3 0.573582 0.668707 0.500000
Si Si4 0.575318 0.264043 0.915215
Si Si5 0.927334 0.832354 0.731043
Si Si6 0.620416 0.863529 0.161411
O O1 0.287182 0.287182 0.366245
O O2 0.396801 0.299635 0.426961
O O3 0.386119 0.285222 0.281883
O O4 0.376594 0.189714 0.371101
O O5 0.062770 0.595986 0.371581
O O6 0.000000 0.500000 0.421254
O O7 0.000000 0.602425 0.500000
O O8 0.500000 0.677484 0.500000
O O9 0.595985 0.595985 0.500000
O O10 0.500000 0.250146 0.920264
O O11 0.581145 0.321131 0.856753
O O12 0.605934 0.206684 0.869304
O O13 0.598976 0.271956 0.000000
O O14 0.902045 0.902045 0.750192
O O15 0.000000 0.821490 0.749976
O O16 0.626778 0.873223 0.250000
#
# Coordination Sequence:
#
# PCOD9571983 Si02
#       6
#    32  16  16  32  32  32
#     4  10  23  41  61  93 129 162 210 266 320 380
#     4  11  28  46  62  92 132 170 215 265 312 383
#     4  10  22  41  64  91 127 165 207 259 314 378
#     4  10  21  39  62  87 124 167 210 256 305 363
#     4  10  21  39  62  92 126 162 207 257 314 381
#     4  12  24  40  67  91 123 167 210 260 315 368
#
# _framework density 10.078105000000001
#
# number of rings (size 3 to 8) (size 9 to 14) (size 15 to 20)
#    0.000    1.500    3.000    1.200    4.200    3.500 
#    0.000    0.000    0.000    3.600    0.000    2.800 
#    0.000    0.000    0.000    0.000    0.000    0.000 
#
# Total GULP energy -445641.048637 kJ/mol
# GULP energy per Si atom -5570.513108 kJ/mol
# Density = 1.005517 g / cm^3
# Si number density = 10.078105 Si / 1000 Ang^3
#
#
#
# Elastic Constant Matrix: (Units=GPa)
#
#
# Indices 1 2 3 4 5 6 
#
# 1 53.5308 82.0207 22.2272 0.0000 0.0000 0.0000
# 2 82.0207 53.5309 22.2271 0.0000 0.0000 0.0000
# 3 22.2272 22.2271 109.5109 0.0000 0.0000 0.0000
# 4 0.0000 0.0000 0.0000 28.4116 0.0000 0.0000
# 5 0.0000 0.0000 0.0000 0.0000 28.4109 0.0000
# 6 0.0000 0.0000 0.0000 0.0000 0.0000 3.6489
#
#
#
# Elastic Compliance Matrix: (Units=1/GPa)
#
#
# Indices 1 2 3 4 5 6 
#
# 1 -0.013598 0.021502 -0.001604 0.000000 0.000000 0.000000
# 2 0.021502 -0.013598 -0.001604 0.000000 0.000000 0.000000
# 3 -0.001604 -0.001604 0.009783 0.000000 0.000000 0.000000
# 4 0.000000 0.000000 0.000000 0.035197 0.000000 0.000000
# 5 0.000000 0.000000 0.000000 0.000000 0.035198 0.000000
# 6 0.000000 0.000000 0.000000 0.000000 0.000000 0.274059
#
#
# Mechanical properties :
#
#
# Convention : Reuss Voigt Hill
#
# Bulk Modulus (GPa) = 52.15699 52.16916 52.16308
# Shear Modulus (GPa) = 16.84392 18.10078 17.47235
#
# Velocity S-wave (km/s) = 2.89393 2.99996 2.94742
# Velocity P-wave (km/s) = 6.09090 6.15940 6.12525
#
# Compressibility (1/GPa) = 0.01917288
#
# Stress axis : x y z
#
# Youngs Moduli (GPa) = -73.53755 -73.53784 102.22149
#
# Poissons Ratio (x) = 1.58120 0.16397
# Poissons Ratio (y) = 1.58119 0.16398
# Poissons Ratio (z) = -0.11796 -0.11797
#
# Static dielectric constant tensor:
#      x y z
#    x 1.721340 0.000000 0.000000 
#    y 0.000000 1.721340 0.000000 
#    z 0.000000 0.000000 1.700760 
# 
# From -- ./inp_files/8491.got.cif
#   From: 2010.05.17/outbox.ucp.g08.bks.cvg/sg139_5_cif.got.tgz:8491.got - 2010.06.11 11:42:03.
