data_PCOD9571056
_publ_section_title
;
Structure prediction by ZEFSAII (Michael W. Deem and Ramdas Pophale) SiO2 
 PCOD9571056
Probable space group: P 42/N C M
;
_chemical_formula_sum "Si O2"
_cell_formula_units_Z 60
_cell_length_a 13.982258
_cell_length_b 13.982258
_cell_length_c 14.452275
_cell_angle_alpha 90.000000
_cell_angle_beta 90.000000
_cell_angle_gamma 90.000000
_cell_volume 2825.470906
_symmetry_space_group_name_H-M "P 42/N C M"
_symmetry_group_IT_number 138
_space_group.IT_coordinate_system_code '2'
_symmetry_cell_setting 'tetragonal'
loop_
_space_group_symop_operation_xyz
x,y,z
1/2-y,x,1/2+z
1/2-x,1/2-y,z
y,1/2-x,1/2+z
1/2+x,-y,1/2-z
-x,1/2+y,1/2-z
1/2+y,1/2+x,-z
-y,-x,-z
-x,-y,-z
1/2+y,-x,1/2-z
1/2+x,1/2+y,-z
-y,1/2+x,1/2-z
1/2-x,y,1/2+z
x,1/2-y,1/2+z
1/2-y,1/2-x,z
y,x,z
loop_
_atom_site_type_symbol
_atom_site_label
_atom_site_fract_x
_atom_site_fract_y
_atom_site_fract_z
Si Si1 0.250000 0.250000 0.010722
Si Si2 0.638771 0.861230 0.769393
Si Si3 0.650834 0.849167 0.318825
Si Si4 0.003609 0.003609 0.231652
Si Si5 0.119074 0.619074 0.000000
Si Si6 0.395978 0.104023 0.011440
Si Si7 0.655236 0.353399 0.701471
O O1 0.186053 0.186053 0.080660
O O2 0.322532 0.177469 0.963602
O O3 0.619358 0.747836 0.766158
O O4 0.612387 0.887614 0.876420
O O5 0.575025 0.924976 0.701377
O O6 0.570861 0.929140 0.329947
O O7 0.939086 0.080353 0.285835
O O8 0.130636 0.504581 0.988993
O O9 0.168513 0.655512 0.092852
O O10 0.759757 0.377087 0.741382
#
# Coordination Sequence:
#
# PCOD9571056 Si02
#       7
#     4   8   8   8   8   8  16
#     4   8  18  34  58  98 136 158 220 266 340 378
#     4   9  16  33  51  92 124 159 215 250 326 386
#     4   8  18  28  54  84 129 164 190 272 317 366
#     4  12  18  34  63  92 124 157 219 266 321 390
#     4  11  20  41  68  88 132 172 228 262 326 394
#     4   9  17  35  65 100 119 170 207 272 324 394
#     4  11  26  42  64  96 128 173 220 273 328 391
#
# _framework density 21.235398
#
# number of rings (size 3 to 8) (size 9 to 14) (size 15 to 20)
#    0.000    2.400    2.667    2.400    3.733    2.133 
#    0.000    1.333    0.000    6.400    0.000    0.000 
#    0.000    0.000    0.000    0.000    0.000    0.000 
#
# Total GULP energy -334587.280416 kJ/mol
# GULP energy per Si atom -5576.454674 kJ/mol
# Density = 2.118707 g / cm^3
# Si number density = 21.235398 Si / 1000 Ang^3
#
#
#
# Elastic Constant Matrix: (Units=GPa)
#
#
# Indices 1 2 3 4 5 6 
#
# 1 101.5272 43.9702 20.5374 0.0000 0.0000 0.0000
# 2 43.9702 101.5272 20.5374 0.0000 0.0000 0.0000
# 3 20.5374 20.5374 80.8380 0.0000 0.0000 0.0000
# 4 0.0000 0.0000 0.0000 14.0380 0.0000 0.0000
# 5 0.0000 0.0000 0.0000 0.0000 14.0380 0.0000
# 6 0.0000 0.0000 0.0000 0.0000 0.0000 66.1805
#
#
#
# Elastic Compliance Matrix: (Units=1/GPa)
#
#
# Indices 1 2 3 4 5 6 
#
# 1 0.012389 -0.004985 -0.001881 0.000000 0.000000 0.000000
# 2 -0.004985 0.012389 -0.001881 0.000000 0.000000 0.000000
# 3 -0.001881 -0.001881 0.013326 0.000000 0.000000 0.000000
# 4 0.000000 0.000000 0.000000 0.071235 0.000000 0.000000
# 5 0.000000 0.000000 0.000000 0.000000 0.071235 0.000000
# 6 0.000000 0.000000 0.000000 0.000000 0.000000 0.015110
#
#
# Mechanical properties :
#
#
# Convention : Reuss Voigt Hill
#
# Bulk Modulus (GPa) = 48.51996 50.44247 49.48122
# Shear Modulus (GPa) = 22.72225 32.10783 27.41504
#
# Velocity S-wave (km/s) = 3.27466 3.89266 3.59696
# Velocity P-wave (km/s) = 6.09886 6.63395 6.37202
#
# Compressibility (1/GPa) = 0.02061007
#
# Stress axis : x y z
#
# Youngs Moduli (GPa) = 80.71657 80.71657 75.04024
#
# Poissons Ratio (x) = 0.40237 0.14115
# Poissons Ratio (y) = 0.40237 0.14115
# Poissons Ratio (z) = 0.15183 0.15183
#
# Static dielectric constant tensor:
#      x y z
#    x 1.805330 0.000000 0.000000 
#    y 0.000000 1.805330 0.000000 
#    z 0.000000 0.000000 1.758000 
# 
# From -- ./inp_files/3988.got.cif
#   From: 2010.05.17/outbox.cif.g08.bks.cpg/sg138_2_cif.got.tgz:3988.got - 2010.05.20 13:08:53.
