data_PCOD9571868
_publ_section_title
;
Structure prediction by ZEFSAII (Michael W. Deem and Ramdas Pophale) SiO2 
 PCOD9571868
Probable space group: I 4/M M M
;
_chemical_formula_sum "Si O2"
_cell_formula_units_Z 168
_cell_length_a 24.907080
_cell_length_b 24.907080
_cell_length_c 14.448260
_cell_angle_alpha 90.000000
_cell_angle_beta 90.000000
_cell_angle_gamma 90.000000
_cell_volume 8963.160632
_symmetry_space_group_name_H-M "I 4/M M M"
_symmetry_group_IT_number 139
_symmetry_cell_setting 'tetragonal'
loop_
_space_group_symop_operation_xyz
x,y,z
-y,x,z
-x,-y,z
y,-x,z
x,-y,-z
-x,y,-z
y,x,-z
-y,-x,-z
-x,-y,-z
y,-x,-z
x,y,-z
-y,x,-z
-x,y,z
x,-y,z
-y,-x,z
y,x,z
1/2+x,1/2+y,1/2+z
1/2-y,1/2+x,1/2+z
1/2-x,1/2-y,1/2+z
1/2+y,1/2-x,1/2+z
1/2+x,1/2-y,1/2-z
1/2-x,1/2+y,1/2-z
1/2+y,1/2+x,1/2-z
1/2-y,1/2-x,1/2-z
1/2-x,1/2-y,1/2-z
1/2+y,1/2-x,1/2-z
1/2+x,1/2+y,1/2-z
1/2-y,1/2+x,1/2-z
1/2-x,1/2+y,1/2+z
1/2+x,1/2-y,1/2+z
1/2-y,1/2-x,1/2+z
1/2+y,1/2+x,1/2+z
loop_
_atom_site_type_symbol
_atom_site_label
_atom_site_fract_x
_atom_site_fract_y
_atom_site_fract_z
Si Si1 0.065710 0.934291 0.500000
Si Si2 0.155403 0.062403 0.000000
Si Si3 0.937126 0.805465 0.500000
Si Si4 0.250345 0.912802 0.141324
Si Si5 0.591961 0.226278 0.152548
Si Si6 0.558522 0.142856 0.000000
Si Si7 0.709967 0.796465 0.110888
Si Si8 0.843503 0.440158 0.500000
O O1 0.131660 0.933556 0.500000
O O2 0.000000 0.933457 0.500000
O O3 0.196042 0.070069 0.912085
O O4 0.107302 0.107302 0.000000
O O5 0.136232 0.000000 0.000000
O O6 0.909575 0.779029 0.410915
O O7 0.000000 0.788868 0.500000
O O8 0.257911 0.929773 0.247205
O O9 0.254909 0.848336 0.134747
O O10 0.302676 0.932786 0.085606
O O11 0.652919 0.205432 0.160078
O O12 0.563077 0.181017 0.090503
O O13 0.500000 0.116317 0.000000
O O14 0.608882 0.102772 0.000000
O O15 0.743576 0.743576 0.131848
O O16 0.699765 0.798603 0.000000
O O17 0.865890 0.500000 0.500000
#
# Coordination Sequence:
#
# PCOD9571868 Si02
#       8
#     8  16  16  32  32  16  32  16
#     4   9  20  42  66  82 112 166 210 250 298 340
#     4  11  25  45  67  92 122 161 209 261 310 359
#     4  10  22  38  57  85 117 149 197 245 292 358
#     4  11  21  39  64  90 123 156 198 249 303 372
#     4  11  21  36  61  91 124 159 193 240 307 367
#     4  11  23  41  59  86 125 160 202 254 302 357
#     4  11  20  33  56  88 126 160 190 233 299 367
#     4  11  23  40  60  86 117 160 213 256 296 353
#
# _framework density 18.743387999999999
#
# number of rings (size 3 to 8) (size 9 to 14) (size 15 to 20)
#    0.000    1.190    5.714    3.429    1.333    5.619 
#    0.000    0.000    0.000    0.000    0.000    2.667 
#    0.000    0.000    0.000    0.000    0.000    0.000 
#
# Total GULP energy -467856.051064 kJ/mol
# GULP energy per Si atom -5569.714894 kJ/mol
# Density = 1.870073 g / cm^3
# Si number density = 18.743388 Si / 1000 Ang^3
#
#
#
# Elastic Constant Matrix: (Units=GPa)
#
#
# Indices 1 2 3 4 5 6 
#
# 1 127.1361 42.1274 31.2466 0.0000 0.0000 0.0000
# 2 42.1274 127.1361 31.2466 0.0000 0.0000 0.0000
# 3 31.2466 31.2466 147.6243 0.0000 0.0000 0.0000
# 4 0.0000 0.0000 0.0000 -35.5443 0.0000 0.0000
# 5 0.0000 0.0000 0.0000 0.0000 -35.5444 0.0000
# 6 0.0000 0.0000 0.0000 0.0000 0.0000 24.3100
#
#
#
# Elastic Compliance Matrix: (Units=1/GPa)
#
#
# Indices 1 2 3 4 5 6 
#
# 1 0.009086 -0.002677 -0.001356 0.000000 0.000000 0.000000
# 2 -0.002677 0.009086 -0.001356 0.000000 0.000000 0.000000
# 3 -0.001356 -0.001356 0.007348 0.000000 0.000000 0.000000
# 4 0.000000 0.000000 0.000000 -0.028134 0.000000 0.000000
# 5 0.000000 0.000000 0.000000 0.000000 -0.028134 0.000000
# 6 0.000000 0.000000 0.000000 0.000000 0.000000 0.041135
#
#
# Mechanical properties :
#
#
# Convention : Reuss Voigt Hill
#
# Bulk Modulus (GPa) = 67.84374 67.90416 67.87395
# Shear Modulus (GPa) = 191.70245 10.46265 101.08255
#
# Velocity S-wave (km/s) = 10.12420 2.36520 7.35165
# Velocity P-wave (km/s) = 13.15069 6.61558 10.40928
#
# Compressibility (1/GPa) = 0.01473975
#
# Stress axis : x y z
#
# Youngs Moduli (GPa) = 110.05777 110.05773 136.08793
#
# Poissons Ratio (x) = 0.29466 0.18460
# Poissons Ratio (y) = 0.29466 0.18460
# Poissons Ratio (z) = 0.14929 0.14929
#
# Static dielectric constant tensor:
#      x y z
#    x 1.643130 0.000000 0.000000 
#    y 0.000000 1.643130 0.000000 
#    z 0.000000 0.000000 1.674590 
# 
# From -- ./inp_files/6207.got.cif
#   From: 2010.05.17/outbox.cif.g08.bks.cpg/sg139_4_cif.got.tgz:6207.got - 2010.05.20 13:14:44.
