data_PCOD9571143
_publ_section_title
;
Structure prediction by ZEFSAII (Michael W. Deem and Ramdas Pophale) SiO2 
 PCOD9571143
Probable space group: I 4/M M M
;
_chemical_formula_sum "Si O2"
_cell_formula_units_Z 144
_cell_length_a 22.331022
_cell_length_b 22.331022
_cell_length_c 18.908885
_cell_angle_alpha 90.000000
_cell_angle_beta 90.000000
_cell_angle_gamma 90.000000
_cell_volume 9429.379597
_symmetry_space_group_name_H-M "I 4/M M M"
_symmetry_group_IT_number 139
_symmetry_cell_setting 'tetragonal'
loop_
_space_group_symop_operation_xyz
x,y,z
-y,x,z
-x,-y,z
y,-x,z
x,-y,-z
-x,y,-z
y,x,-z
-y,-x,-z
-x,-y,-z
y,-x,-z
x,y,-z
-y,x,-z
-x,y,z
x,-y,z
-y,-x,z
y,x,z
1/2+x,1/2+y,1/2+z
1/2-y,1/2+x,1/2+z
1/2-x,1/2-y,1/2+z
1/2+y,1/2-x,1/2+z
1/2+x,1/2-y,1/2-z
1/2-x,1/2+y,1/2-z
1/2+y,1/2+x,1/2-z
1/2-y,1/2-x,1/2-z
1/2-x,1/2-y,1/2-z
1/2+y,1/2-x,1/2-z
1/2+x,1/2+y,1/2-z
1/2-y,1/2+x,1/2-z
1/2-x,1/2+y,1/2+z
1/2+x,1/2-y,1/2+z
1/2-y,1/2-x,1/2+z
1/2+y,1/2+x,1/2+z
loop_
_atom_site_type_symbol
_atom_site_label
_atom_site_fract_x
_atom_site_fract_y
_atom_site_fract_z
Si Si1 0.392299 0.147459 0.641161
Si Si2 0.766600 0.071109 0.921022
Si Si3 0.000000 0.568378 0.915364
Si Si4 0.570071 0.203940 0.791374
Si Si5 0.570399 0.331811 0.726011
O O1 0.391792 0.206009 0.591995
O O2 0.441038 0.101610 0.611763
O O3 0.417445 0.171649 0.716196
O O4 0.329743 0.113905 0.654593
O O5 0.810391 0.081925 0.855132
O O6 0.750162 0.000000 0.916579
O O7 0.790642 0.081776 0.000000
O O8 0.000000 0.500000 0.890665
O O9 0.000000 0.569906 0.000000
O O10 0.500000 0.196602 0.809719
O O11 0.581798 0.273812 0.775467
O O12 0.500000 0.346625 0.731299
O O13 0.613670 0.386331 0.743254
#
# Coordination Sequence:
#
# PCOD9571143 Si02
#       5
#    32  32  16  32  32
#     4  10  16  27  41  59  81 119 159 187 219 251
#     4   9  16  28  45  61  85 123 158 185 215 260
#     4  11  20  26  36  60  92 120 155 199 227 247
#     4   9  17  29  42  59  86 114 150 186 222 269
#     4   9  18  32  49  68  87 109 140 181 232 284
#
# _framework density 15.271418000000001
#
# number of rings (size 3 to 8) (size 9 to 14) (size 15 to 20)
#    0.000    2.556    2.222    2.667    0.000    0.667 
#    0.000    8.889    0.000    0.000    0.000    3.111 
#    0.000    0.000    0.000    2.000    0.000    4.444 
#
# Total GULP energy -401059.767206 kJ/mol
# GULP energy per Si atom -5570.274545 kJ/mol
# Density = 1.523666 g / cm^3
# Si number density = 15.271418 Si / 1000 Ang^3
#
#
#
# Elastic Constant Matrix: (Units=GPa)
#
#
# Indices 1 2 3 4 5 6 
#
# 1 80.8812 68.7817 13.5186 0.0000 0.0000 0.0000
# 2 68.7817 80.8812 13.5186 0.0000 0.0000 0.0000
# 3 13.5186 13.5186 21.4193 0.0000 0.0000 0.0000
# 4 0.0000 0.0000 0.0000 7.1228 0.0000 0.0000
# 5 0.0000 0.0000 0.0000 0.0000 7.1228 0.0000
# 6 0.0000 0.0000 0.0000 0.0000 0.0000 29.7804
#
#
#
# Elastic Compliance Matrix: (Units=1/GPa)
#
#
# Indices 1 2 3 4 5 6 
#
# 1 0.045095 -0.037553 -0.004760 0.000000 0.000000 0.000000
# 2 -0.037553 0.045095 -0.004760 0.000000 0.000000 0.000000
# 3 -0.004760 -0.004760 0.052695 0.000000 0.000000 0.000000
# 4 0.000000 0.000000 0.000000 0.140393 0.000000 0.000000
# 5 0.000000 0.000000 0.000000 0.000000 0.140393 0.000000
# 6 0.000000 0.000000 0.000000 0.000000 0.000000 0.033579
#
#
# Mechanical properties :
#
#
# Convention : Reuss Voigt Hill
#
# Bulk Modulus (GPa) = 20.51741 41.64657 31.08199
# Shear Modulus (GPa) = 8.80836 14.62941 11.71889
#
# Velocity S-wave (km/s) = 2.40425 3.09845 2.77316
# Velocity P-wave (km/s) = 4.60125 6.33488 5.53634
#
# Compressibility (1/GPa) = 0.04873908
#
# Stress axis : x y z
#
# Youngs Moduli (GPa) = 22.17552 22.17552 18.97711
#
# Poissons Ratio (x) = 0.83276 0.09033
# Poissons Ratio (y) = 0.83276 0.09033
# Poissons Ratio (z) = 0.10555 0.10555
#
# Static dielectric constant tensor:
#      x y z
#    x 1.504640 0.000000 0.000000 
#    y 0.000000 1.504640 0.000000 
#    z 0.000000 0.000000 1.516140 
# 
# From -- ./inp_files/10242.got.cif
#   From: 2010.05.17/outbox.cif.g08.bks.cpg/sg139_6_cif.got.tgz:10242.got - 2010.05.20 13:14:44.
