data_PCOD9571923
_publ_section_title
;
Structure prediction by ZEFSAII (Michael W. Deem and Ramdas Pophale) SiO2 
 PCOD9571923
Probable space group: I 4/M M M
;
_chemical_formula_sum "Si O2"
_cell_formula_units_Z 112
_cell_length_a 19.151575
_cell_length_b 19.151575
_cell_length_c 18.919996
_cell_angle_alpha 90.000000
_cell_angle_beta 90.000000
_cell_angle_gamma 90.000000
_cell_volume 6939.529582
_symmetry_space_group_name_H-M "I 4/M M M"
_symmetry_group_IT_number 139
_symmetry_cell_setting 'tetragonal'
loop_
_space_group_symop_operation_xyz
x,y,z
-y,x,z
-x,-y,z
y,-x,z
x,-y,-z
-x,y,-z
y,x,-z
-y,-x,-z
-x,-y,-z
y,-x,-z
x,y,-z
-y,x,-z
-x,y,z
x,-y,z
-y,-x,z
y,x,z
1/2+x,1/2+y,1/2+z
1/2-y,1/2+x,1/2+z
1/2-x,1/2-y,1/2+z
1/2+y,1/2-x,1/2+z
1/2+x,1/2-y,1/2-z
1/2-x,1/2+y,1/2-z
1/2+y,1/2+x,1/2-z
1/2-y,1/2-x,1/2-z
1/2-x,1/2-y,1/2-z
1/2+y,1/2-x,1/2-z
1/2+x,1/2+y,1/2-z
1/2-y,1/2+x,1/2-z
1/2-x,1/2+y,1/2+z
1/2+x,1/2-y,1/2+z
1/2-y,1/2-x,1/2+z
1/2+y,1/2+x,1/2+z
loop_
_atom_site_type_symbol
_atom_site_label
_atom_site_fract_x
_atom_site_fract_y
_atom_site_fract_z
Si Si1 0.365731 0.916512 0.325741
Si Si2 0.583516 0.000000 0.921902
Si Si3 0.191913 0.920068 0.085784
Si Si4 0.809514 0.306985 0.417751
O O1 0.385136 0.885136 0.250000
O O2 0.431617 0.901604 0.377013
O O3 0.304886 0.874537 0.365041
O O4 0.356022 0.000000 0.320681
O O5 0.500000 0.000000 0.930000
O O6 0.616489 0.000000 0.000000
O O7 0.122354 0.877647 0.108246
O O8 0.257951 0.871142 0.103415
O O9 0.196499 0.000000 0.111011
O O10 0.190318 0.921997 0.000000
O O11 0.830635 0.317187 0.500000
O O12 0.761374 0.238626 0.414435
#
# Coordination Sequence:
#
# PCOD9571923 Si02
#       4
#    32  16  32  32
#     4  11  21  33  49  71 102 133 165 212 258 302
#     4   9  18  30  46  68  94 128 165 201 245 294
#     4   8  14  24  38  58  83 113 151 195 242 291
#     4   9  19  34  50  69  95 128 169 214 256 307
#
# _framework density 16.139423000000001
#
# number of rings (size 3 to 8) (size 9 to 14) (size 15 to 20)
#    0.000    2.714    1.429    2.571    2.000    2.571 
#    0.000    1.429    0.000    0.000    0.000    0.000 
#    0.000    0.571    0.000    3.143    0.000    0.571 
#
# Total GULP energy -311976.956496 kJ/mol
# GULP energy per Si atom -5571.017080 kJ/mol
# Density = 1.610269 g / cm^3
# Si number density = 16.139423 Si / 1000 Ang^3
#
#
#
# Elastic Constant Matrix: (Units=GPa)
#
#
# Indices 1 2 3 4 5 6 
#
# 1 59.0729 31.0989 32.5703 0.0000 0.0000 0.0000
# 2 31.0989 59.0729 32.5703 0.0000 0.0000 0.0000
# 3 32.5703 32.5703 92.8949 0.0000 0.0000 0.0000
# 4 0.0000 0.0000 0.0000 35.6801 0.0000 0.0000
# 5 0.0000 0.0000 0.0000 0.0000 35.6801 0.0000
# 6 0.0000 0.0000 0.0000 0.0000 0.0000 14.9561
#
#
#
# Elastic Compliance Matrix: (Units=1/GPa)
#
#
# Indices 1 2 3 4 5 6 
#
# 1 0.025300 -0.010448 -0.005207 0.000000 0.000000 0.000000
# 2 -0.010448 0.025300 -0.005207 0.000000 0.000000 0.000000
# 3 -0.005207 -0.005207 0.014416 0.000000 0.000000 0.000000
# 4 0.000000 0.000000 0.000000 0.028027 0.000000 0.000000
# 5 0.000000 0.000000 0.000000 0.000000 0.028027 0.000000
# 6 0.000000 0.000000 0.000000 0.000000 0.000000 0.066862
#
#
# Mechanical properties :
#
#
# Convention : Reuss Voigt Hill
#
# Bulk Modulus (GPa) = 42.93543 44.83551 43.88547
# Shear Modulus (GPa) = 21.05976 24.91668 22.98822
#
# Velocity S-wave (km/s) = 3.61621 3.93344 3.77815
# Velocity P-wave (km/s) = 6.64052 6.96201 6.80317
#
# Compressibility (1/GPa) = 0.02329079
#
# Stress axis : x y z
#
# Youngs Moduli (GPa) = 39.52631 39.52631 69.36599
#
# Poissons Ratio (x) = 0.41297 0.36120
# Poissons Ratio (y) = 0.41297 0.36120
# Poissons Ratio (z) = 0.20582 0.20582
#
# Static dielectric constant tensor:
#      x y z
#    x 1.573210 0.000000 0.000000 
#    y 0.000000 1.573210 0.000000 
#    z 0.000000 0.000000 1.534000 
# 
# From -- ./inp_files/7830.got.cif
#   From: 2010.05.17/outbox.cif.g08.bks.cpg/sg139_4_cif.got.tgz:7830.got - 2010.05.20 13:14:44.
