data_PCOD9571957
_publ_section_title
;
Structure prediction by ZEFSAII (Michael W. Deem and Ramdas Pophale) SiO2 
 PCOD9571957
Probable space group: I 4/M M M
;
_chemical_formula_sum "Si O2"
_cell_formula_units_Z 128
_cell_length_a 18.790325
_cell_length_b 18.790325
_cell_length_c 27.652845
_cell_angle_alpha 90.000000
_cell_angle_beta 90.000000
_cell_angle_gamma 90.000000
_cell_volume 9763.564573
_symmetry_space_group_name_H-M "I 4/M M M"
_symmetry_group_IT_number 139
_symmetry_cell_setting 'tetragonal'
loop_
_space_group_symop_operation_xyz
x,y,z
-y,x,z
-x,-y,z
y,-x,z
x,-y,-z
-x,y,-z
y,x,-z
-y,-x,-z
-x,-y,-z
y,-x,-z
x,y,-z
-y,x,-z
-x,y,z
x,-y,z
-y,-x,z
y,x,z
1/2+x,1/2+y,1/2+z
1/2-y,1/2+x,1/2+z
1/2-x,1/2-y,1/2+z
1/2+y,1/2-x,1/2+z
1/2+x,1/2-y,1/2-z
1/2-x,1/2+y,1/2-z
1/2+y,1/2+x,1/2-z
1/2-y,1/2-x,1/2-z
1/2-x,1/2-y,1/2-z
1/2+y,1/2-x,1/2-z
1/2+x,1/2+y,1/2-z
1/2-y,1/2+x,1/2-z
1/2-x,1/2+y,1/2+z
1/2+x,1/2-y,1/2+z
1/2-y,1/2-x,1/2+z
1/2+y,1/2+x,1/2+z
loop_
_atom_site_type_symbol
_atom_site_label
_atom_site_fract_x
_atom_site_fract_y
_atom_site_fract_z
Si Si1 0.583174 0.701176 0.056157
Si Si2 0.584010 0.797972 0.145519
Si Si3 0.798574 0.916995 0.260352
Si Si4 0.345894 0.916805 0.203961
O O1 0.500000 0.682519 0.063743
O O2 0.633927 0.633927 0.064789
O O3 0.600753 0.763100 0.094063
O O4 0.591451 0.722651 0.000000
O O5 0.500000 0.817083 0.146899
O O6 0.594455 0.738522 0.187320
O O7 0.630468 0.865457 0.160862
O O8 0.863214 0.863214 0.253814
O O9 0.734978 0.904495 0.221897
O O10 0.819655 0.000000 0.257475
O O11 0.394417 0.894417 0.250000
O O12 0.354844 0.000000 0.193551
#
# Coordination Sequence:
#
# PCOD9571957 Si02
#       4
#    32  32  32  32
#     4   9  17  28  41  57  77 101 130 162 192 223
#     4   9  17  27  39  56  77 100 126 157 191 225
#     4   9  17  27  38  55  78 102 129 157 185 221
#     4   9  17  27  40  59  79  99 126 158 189 224
#
# _framework density 13.109966999999999
#
# number of rings (size 3 to 8) (size 9 to 14) (size 15 to 20)
#    0.000    3.000    0.000    3.000    0.000    7.750 
#    0.000    1.250    0.000    5.250    0.000    3.500 
#    0.000    0.000    0.000    0.000    0.000    0.000 
#
# Total GULP energy -356401.540875 kJ/mol
# GULP energy per Si atom -5568.774076 kJ/mol
# Density = 1.308013 g / cm^3
# Si number density = 13.109967 Si / 1000 Ang^3
#
#
#
# Elastic Constant Matrix: (Units=GPa)
#
#
# Indices 1 2 3 4 5 6 
#
# 1 90.0493 77.7463 49.9164 0.0000 0.0000 0.0000
# 2 77.7463 90.0493 49.9164 0.0000 0.0000 0.0000
# 3 49.9164 49.9164 72.9710 0.0000 0.0000 0.0000
# 4 0.0000 0.0000 0.0000 18.0618 0.0000 0.0000
# 5 0.0000 0.0000 0.0000 0.0000 18.0618 0.0000
# 6 0.0000 0.0000 0.0000 0.0000 0.0000 6.2031
#
#
#
# Elastic Compliance Matrix: (Units=1/GPa)
#
#
# Indices 1 2 3 4 5 6 
#
# 1 0.045666 -0.035616 -0.006875 0.000000 0.000000 0.000000
# 2 -0.035616 0.045666 -0.006875 0.000000 0.000000 0.000000
# 3 -0.006875 -0.006875 0.023109 0.000000 0.000000 0.000000
# 4 0.000000 0.000000 0.000000 0.055366 0.000000 0.000000
# 5 0.000000 0.000000 0.000000 0.000000 0.055366 0.000000
# 6 0.000000 0.000000 0.000000 0.000000 0.000000 0.161210
#
#
# Mechanical properties :
#
#
# Convention : Reuss Voigt Hill
#
# Bulk Modulus (GPa) = 63.65208 67.58088 65.61648
# Shear Modulus (GPa) = 10.19684 13.49803 11.84743
#
# Velocity S-wave (km/s) = 2.79192 3.21222 3.00942
# Velocity P-wave (km/s) = 7.68446 8.08820 7.88891
#
# Compressibility (1/GPa) = 0.01571041
#
# Stress axis : x y z
#
# Youngs Moduli (GPa) = 21.89836 21.89836 43.27244
#
# Poissons Ratio (x) = 0.77993 0.29748
# Poissons Ratio (y) = 0.77993 0.29748
# Poissons Ratio (z) = 0.15054 0.15054
#
# Static dielectric constant tensor:
#      x y z
#    x 1.419830 0.000000 0.000000 
#    y 0.000000 1.419830 0.000000 
#    z 0.000000 0.000000 1.426830 
# 
# From -- ./inp_files/11307.got.cif
#   From: 2010.05.17/outbox.cif.g08.bks.cpg/sg139_6_cif.got.tgz:11307.got - 2010.05.20 13:14:44.
