data_PCOD9571702
_publ_section_title
;
Structure prediction by ZEFSAII (Michael W. Deem and Ramdas Pophale) SiO2 
 PCOD9571702
Probable space group: I 4/M M M
;
_chemical_formula_sum "Si O2"
_cell_formula_units_Z 160
_cell_length_a 30.345317
_cell_length_b 30.345317
_cell_length_c 10.298890
_cell_angle_alpha 90.000000
_cell_angle_beta 90.000000
_cell_angle_gamma 90.000000
_cell_volume 9483.611987
_symmetry_space_group_name_H-M "I 4/M M M"
_symmetry_group_IT_number 139
_symmetry_cell_setting 'tetragonal'
loop_
_space_group_symop_operation_xyz
x,y,z
-y,x,z
-x,-y,z
y,-x,z
x,-y,-z
-x,y,-z
y,x,-z
-y,-x,-z
-x,-y,-z
y,-x,-z
x,y,-z
-y,x,-z
-x,y,z
x,-y,z
-y,-x,z
y,x,z
1/2+x,1/2+y,1/2+z
1/2-y,1/2+x,1/2+z
1/2-x,1/2-y,1/2+z
1/2+y,1/2-x,1/2+z
1/2+x,1/2-y,1/2-z
1/2-x,1/2+y,1/2-z
1/2+y,1/2+x,1/2-z
1/2-y,1/2-x,1/2-z
1/2-x,1/2-y,1/2-z
1/2+y,1/2-x,1/2-z
1/2+x,1/2+y,1/2-z
1/2-y,1/2+x,1/2-z
1/2-x,1/2+y,1/2+z
1/2+x,1/2-y,1/2+z
1/2-y,1/2-x,1/2+z
1/2+y,1/2+x,1/2+z
loop_
_atom_site_type_symbol
_atom_site_label
_atom_site_fract_x
_atom_site_fract_y
_atom_site_fract_z
Si Si1 0.047522 0.261179 0.000000
Si Si2 0.169233 0.622761 0.500000
Si Si3 0.317837 0.817837 0.750000
Si Si4 0.271243 0.549670 0.210736
Si Si5 0.950980 0.304740 0.500000
Si Si6 0.100533 0.421732 0.000000
Si Si7 0.350222 0.277832 0.845434
Si Si8 0.450220 0.950220 0.750000
O O1 0.091932 0.288487 0.000000
O O2 0.047885 0.235077 0.135108
O O3 0.000000 0.285909 0.000000
O O4 0.168988 0.652991 0.373290
O O5 0.129268 0.588246 0.500000
O O6 0.330997 0.766826 0.779395
O O7 0.289127 0.500000 0.172936
O O8 0.290263 0.598527 0.182936
O O9 0.225873 0.553083 0.126873
O O10 0.920235 0.346540 0.500000
O O11 0.000000 0.324046 0.500000
O O12 0.082566 0.443180 0.130630
O O13 0.318015 0.318015 0.810903
O O14 0.347589 0.269955 0.000000
O O15 0.500000 0.945236 0.699506
#
# Coordination Sequence:
#
# PCOD9571702 Si02
#       8
#    16  16  16  32  16  16  32  16
#     4  10  22  36  54  77 105 135 176 227 273 325
#     4  12  24  36  56  76 107 139 177 222 276 328
#     4  12  22  40  53  77 114 150 182 220 272 321
#     4  10  20  37  58  80 108 142 177 223 275 316
#     4  10  20  35  56  75  97 130 168 210 265 326
#     4  12  25  38  55  80  95 121 167 221 274 327
#     4  11  22  36  56  83 112 147 190 227 263 319
#     4  11  25  44  59  69  92 127 163 216 288 356
#
# _framework density 16.871209
#
# number of rings (size 3 to 8) (size 9 to 14) (size 15 to 20)
#    0.000    1.100    4.000    3.300    2.800    1.600 
#    0.000    1.500    0.000    0.000    0.000    0.000 
#    0.000    0.400    0.000    2.200    0.000    5.600 
#
# Total GULP energy -445583.246071 kJ/mol
# GULP energy per Si atom -5569.790576 kJ/mol
# Density = 1.683281 g / cm^3
# Si number density = 16.871209 Si / 1000 Ang^3
#
#
#
# Elastic Constant Matrix: (Units=GPa)
#
#
# Indices 1 2 3 4 5 6 
#
# 1 88.2847 37.6235 22.3897 0.0000 0.0000 0.0000
# 2 37.6235 88.2847 22.3897 0.0000 0.0000 0.0000
# 3 22.3897 22.3897 99.7041 0.0000 0.0000 0.0000
# 4 0.0000 0.0000 0.0000 37.7086 0.0000 0.0000
# 5 0.0000 0.0000 0.0000 0.0000 37.7086 0.0000
# 6 0.0000 0.0000 0.0000 0.0000 0.0000 22.1709
#
#
#
# Elastic Compliance Matrix: (Units=1/GPa)
#
#
# Indices 1 2 3 4 5 6 
#
# 1 0.014185 -0.005554 -0.001938 0.000000 0.000000 0.000000
# 2 -0.005554 0.014185 -0.001938 0.000000 0.000000 0.000000
# 3 -0.001938 -0.001938 0.010900 0.000000 0.000000 0.000000
# 4 0.000000 0.000000 0.000000 0.026519 0.000000 0.000000
# 5 0.000000 0.000000 0.000000 0.000000 0.026519 0.000000
# 6 0.000000 0.000000 0.000000 0.000000 0.000000 0.045104
#
#
# Mechanical properties :
#
#
# Convention : Reuss Voigt Hill
#
# Bulk Modulus (GPa) = 48.99508 49.00880 49.00194
# Shear Modulus (GPa) = 30.66031 32.44234 31.55133
#
# Velocity S-wave (km/s) = 4.26762 4.38989 4.32919
# Velocity P-wave (km/s) = 7.30665 7.40316 7.35506
#
# Compressibility (1/GPa) = 0.02041021
#
# Stress axis : x y z
#
# Youngs Moduli (GPa) = 70.49548 70.49548 91.74118
#
# Poissons Ratio (x) = 0.39151 0.17783
# Poissons Ratio (y) = 0.39151 0.17783
# Poissons Ratio (z) = 0.13664 0.13664
#
# Static dielectric constant tensor:
#      x y z
#    x 1.604920 0.000000 0.000000 
#    y 0.000000 1.604920 0.000000 
#    z 0.000000 0.000000 1.573080 
# 
# From -- ./inp_files/2376.got.cif
#   From: 2010.05.17/outbox.cif.g08.bks.cpg/sg139_2_cif.got.tgz:2376.got - 2010.05.20 13:14:44.
