data_PCOD9571169
_publ_section_title
;
Structure prediction by ZEFSAII (Michael W. Deem and Ramdas Pophale) SiO2 
 PCOD9571169
Probable space group: I 4/M M M
;
_chemical_formula_sum "Si O2"
_cell_formula_units_Z 176
_cell_length_a 20.152161
_cell_length_b 20.152161
_cell_length_c 24.903489
_cell_angle_alpha 90.000000
_cell_angle_beta 90.000000
_cell_angle_gamma 90.000000
_cell_volume 10113.545781
_symmetry_space_group_name_H-M "I 4/M M M"
_symmetry_group_IT_number 139
_symmetry_cell_setting 'tetragonal'
loop_
_space_group_symop_operation_xyz
x,y,z
-y,x,z
-x,-y,z
y,-x,z
x,-y,-z
-x,y,-z
y,x,-z
-y,-x,-z
-x,-y,-z
y,-x,-z
x,y,-z
-y,x,-z
-x,y,z
x,-y,z
-y,-x,z
y,x,z
1/2+x,1/2+y,1/2+z
1/2-y,1/2+x,1/2+z
1/2-x,1/2-y,1/2+z
1/2+y,1/2-x,1/2+z
1/2+x,1/2-y,1/2-z
1/2-x,1/2+y,1/2-z
1/2+y,1/2+x,1/2-z
1/2-y,1/2-x,1/2-z
1/2-x,1/2-y,1/2-z
1/2+y,1/2-x,1/2-z
1/2+x,1/2+y,1/2-z
1/2-y,1/2+x,1/2-z
1/2-x,1/2+y,1/2+z
1/2+x,1/2-y,1/2+z
1/2-y,1/2-x,1/2+z
1/2+y,1/2+x,1/2+z
loop_
_atom_site_type_symbol
_atom_site_label
_atom_site_fract_x
_atom_site_fract_y
_atom_site_fract_z
Si Si1 0.779274 0.115114 0.714078
Si Si2 0.575981 0.685273 0.668103
Si Si3 0.315060 0.575385 0.094998
Si Si4 0.338094 0.924547 0.859580
Si Si5 0.129436 0.629436 0.750000
Si Si6 0.922215 0.666273 0.438135
O O1 0.812160 0.187841 0.712566
O O2 0.807924 0.079971 0.767074
O O3 0.799854 0.080421 0.658942
O O4 0.701128 0.121257 0.722135
O O5 0.500000 0.669162 0.652897
O O6 0.629991 0.629991 0.651872
O O7 0.592193 0.759696 0.647209
O O8 0.333974 0.500000 0.081432
O O9 0.371841 0.628160 0.081835
O O10 0.244771 0.591174 0.067586
O O11 0.370758 0.919935 0.800159
O O12 0.375409 0.875001 0.899035
O O13 0.342833 0.000000 0.879009
O O14 0.913390 0.646355 0.500000
O O15 0.000000 0.656713 0.423530
#
# Coordination Sequence:
#
# PCOD9571169 Si02
#       6
#    32  32  32  32  16  32
#     4   9  16  27  47  74 104 140 180 218 257 305
#     4   9  18  31  49  76 110 145 180 217 259 311
#     4  10  20  34  54  79 108 141 178 220 264 312
#     4  10  21  35  53  81 111 138 173 220 268 317
#     4  10  17  30  50  77 108 142 172 210 264 314
#     4  10  22  40  59  77 101 138 181 221 263 316
#
# _framework density 17.402403
#
# number of rings (size 3 to 8) (size 9 to 14) (size 15 to 20)
#    0.000    2.364    1.818    0.818    0.000    4.364 
#    0.000    0.909    0.000    3.273    0.000    2.545 
#    0.000    0.000    0.000    4.000    0.000    0.000 
#
# Total GULP energy -490632.163293 kJ/mol
# GULP energy per Si atom -5575.365492 kJ/mol
# Density = 1.736279 g / cm^3
# Si number density = 17.402403 Si / 1000 Ang^3
#
#
#
# Elastic Constant Matrix: (Units=GPa)
#
#
# Indices 1 2 3 4 5 6 
#
# 1 111.1645 49.3771 35.9471 0.0000 0.0000 0.0000
# 2 49.3771 111.1645 35.9471 0.0000 0.0000 0.0000
# 3 35.9471 35.9471 56.4923 0.0000 0.0000 0.0000
# 4 0.0000 0.0000 0.0000 10.6406 0.0000 0.0000
# 5 0.0000 0.0000 0.0000 0.0000 10.6406 0.0000
# 6 0.0000 0.0000 0.0000 0.0000 0.0000 27.4519
#
#
#
# Elastic Compliance Matrix: (Units=1/GPa)
#
#
# Indices 1 2 3 4 5 6 
#
# 1 0.012448 -0.003737 -0.005543 0.000000 0.000000 0.000000
# 2 -0.003737 0.012448 -0.005543 0.000000 0.000000 0.000000
# 3 -0.005543 -0.005543 0.024756 0.000000 0.000000 0.000000
# 4 0.000000 0.000000 0.000000 0.093979 0.000000 0.000000
# 5 0.000000 0.000000 0.000000 0.000000 0.093979 0.000000
# 6 0.000000 0.000000 0.000000 0.000000 0.000000 0.036427
#
#
# Mechanical properties :
#
#
# Convention : Reuss Voigt Hill
#
# Bulk Modulus (GPa) = 49.98525 57.92932 53.95728
# Shear Modulus (GPa) = 16.11072 20.24996 18.18034
#
# Velocity S-wave (km/s) = 3.04596 3.41490 3.23569
# Velocity P-wave (km/s) = 6.41530 6.99351 6.71063
#
# Compressibility (1/GPa) = 0.02000590
#
# Stress axis : x y z
#
# Youngs Moduli (GPa) = 80.33486 80.33486 40.39432
#
# Poissons Ratio (x) = 0.30018 0.22391
# Poissons Ratio (y) = 0.30018 0.22391
# Poissons Ratio (z) = 0.44531 0.44531
#
# Static dielectric constant tensor:
#      x y z
#    x 1.586780 0.000000 0.000000 
#    y 0.000000 1.586780 0.000000 
#    z 0.000000 0.000000 1.585840 
# 
# From -- ./inp_files/13143.got.cif
#   From: 2010.05.17/outbox.cif.g08.bks.cpg/sg139_7_cif.got.tgz:13143.got - 2010.05.20 13:14:44.
