data_PCOD9571701
_publ_section_title
;
Structure prediction by ZEFSAII (Michael W. Deem and Ramdas Pophale) SiO2 
 PCOD9571701
Probable space group: I 4/M M M
;
_chemical_formula_sum "Si O2"
_cell_formula_units_Z 192
_cell_length_a 17.712829
_cell_length_b 17.712829
_cell_length_c 32.969697
_cell_angle_alpha 90.000000
_cell_angle_beta 90.000000
_cell_angle_gamma 90.000000
_cell_volume 10344.054875
_symmetry_space_group_name_H-M "I 4/M M M"
_symmetry_group_IT_number 139
_symmetry_cell_setting 'tetragonal'
loop_
_space_group_symop_operation_xyz
x,y,z
-y,x,z
-x,-y,z
y,-x,z
x,-y,-z
-x,y,-z
y,x,-z
-y,-x,-z
-x,-y,-z
y,-x,-z
x,y,-z
-y,x,-z
-x,y,z
x,-y,z
-y,-x,z
y,x,z
1/2+x,1/2+y,1/2+z
1/2-y,1/2+x,1/2+z
1/2-x,1/2-y,1/2+z
1/2+y,1/2-x,1/2+z
1/2+x,1/2-y,1/2-z
1/2-x,1/2+y,1/2-z
1/2+y,1/2+x,1/2-z
1/2-y,1/2-x,1/2-z
1/2-x,1/2-y,1/2-z
1/2+y,1/2-x,1/2-z
1/2+x,1/2+y,1/2-z
1/2-y,1/2+x,1/2-z
1/2-x,1/2+y,1/2+z
1/2+x,1/2-y,1/2+z
1/2-y,1/2-x,1/2+z
1/2+y,1/2+x,1/2+z
loop_
_atom_site_type_symbol
_atom_site_label
_atom_site_fract_x
_atom_site_fract_y
_atom_site_fract_z
Si Si1 0.292024 0.410282 0.398060
Si Si2 0.000000 0.589590 0.046193
Si Si3 0.836578 0.351647 0.928613
Si Si4 0.906193 0.775772 0.500000
Si Si5 0.588812 0.207647 0.687328
Si Si6 0.910378 0.794454 0.733974
Si Si7 0.589612 0.196898 0.158165
O O1 0.287820 0.500000 0.406783
O O2 0.374881 0.374881 0.400870
O O3 0.236062 0.360750 0.426290
O O4 0.260272 0.398289 0.352171
O O5 0.920557 0.611657 0.066855
O O6 0.000000 0.500000 0.043834
O O7 0.000000 0.620900 0.000000
O O8 0.798786 0.374723 0.886128
O O9 0.778053 0.380561 0.962410
O O10 0.853222 0.853222 0.500000
O O11 0.000000 0.786734 0.500000
O O12 0.500000 0.199892 0.691643
O O13 0.619033 0.243857 0.728714
O O14 0.623600 0.126768 0.678156
O O15 0.876375 0.876375 0.739095
O O16 0.889806 0.761892 0.690014
O O17 0.000000 0.794949 0.736354
O O18 0.500000 0.192252 0.154688
#
# Coordination Sequence:
#
# PCOD9571701 Si02
#       7
#    32  16  32  16  32  32  32
#     4  10  20  35  55  83 119 157 199 245 293 348
#     4  11  20  34  62  92 121 147 181 235 290 350
#     4  11  22  40  60  91 121 153 195 240 294 349
#     4  12  26  44  67  93 124 160 198 244 297 356
#     4   9  19  34  52  78 110 146 190 234 280 335
#     4  10  21  37  55  76 103 139 187 240 289 339
#     4  10  21  34  53  81 114 148 183 224 277 344
#
# _framework density 18.561387
#
# number of rings (size 3 to 8) (size 9 to 14) (size 15 to 20)
#    0.000    1.750    1.667    3.000    1.167    5.417 
#    0.000    0.000    0.000    6.000    0.000    2.333 
#    0.000    2.667    0.000    0.000    0.000    0.167 
#
# Total GULP energy -534848.496193 kJ/mol
# GULP energy per Si atom -5571.338502 kJ/mol
# Density = 1.851914 g / cm^3
# Si number density = 18.561387 Si / 1000 Ang^3
#
#
#
# Elastic Constant Matrix: (Units=GPa)
#
#
# Indices 1 2 3 4 5 6 
#
# 1 57.6705 58.2918 20.5463 0.0000 0.0000 0.0000
# 2 58.2918 57.6705 20.5463 0.0000 0.0000 0.0000
# 3 20.5463 20.5463 76.6213 0.0000 0.0000 0.0000
# 4 0.0000 0.0000 0.0000 4.1485 0.0000 0.0000
# 5 0.0000 0.0000 0.0000 0.0000 4.1485 0.0000
# 6 0.0000 0.0000 0.0000 0.0000 0.0000 43.3917
#
#
#
# Elastic Compliance Matrix: (Units=1/GPa)
#
#
# Indices 1 2 3 4 5 6 
#
# 1 -0.800091 0.809620 -0.002555 0.000000 0.000000 0.000000
# 2 0.809620 -0.800091 -0.002555 0.000000 0.000000 0.000000
# 3 -0.002555 -0.002555 0.014422 0.000000 0.000000 0.000000
# 4 0.000000 0.000000 0.000000 0.241049 0.000000 0.000000
# 5 0.000000 0.000000 0.000000 0.000000 0.241049 0.000000
# 6 0.000000 0.000000 0.000000 0.000000 0.000000 0.023046
#
#
# Mechanical properties :
#
#
# Convention : Reuss Voigt Hill
#
# Bulk Modulus (GPa) = 42.99483 43.41456 43.20469
# Shear Modulus (GPa) = -1.86436 16.50963 7.32264
#
# Velocity S-wave (km/s) = -1.00330 2.98562 1.98838
# Velocity P-wave (km/s) = 4.67672 5.94354 5.34778
#
# Compressibility (1/GPa) = 0.02325861
#
# Stress axis : x y z
#
# Youngs Moduli (GPa) = -1.24986 -1.24986 69.34052
#
# Poissons Ratio (x) = 1.01191 0.17718
# Poissons Ratio (y) = 1.01191 0.17718
# Poissons Ratio (z) = -0.00319 -0.00319
#
# Static dielectric constant tensor:
#      x y z
#    x 1.633900 0.000000 0.000000 
#    y 0.000000 1.633900 0.000000 
#    z 0.000000 0.000000 1.681300 
# 
# From -- ./inp_files/14392.got.cif
#   From: 2010.05.17/outbox.cif.g08.bks.cpg/sg139_8_cif.got.tgz:14392.got - 2010.05.20 13:14:44.
