data_PCOD9571052
_publ_section_title
;
Structure prediction by ZEFSAII (Michael W. Deem and Ramdas Pophale) SiO2 
 PCOD9571052
Probable space group: P 42/N C M
;
_chemical_formula_sum "Si O2"
_cell_formula_units_Z 96
_cell_length_a 15.385850
_cell_length_b 15.385850
_cell_length_c 22.384064
_cell_angle_alpha 90.000000
_cell_angle_beta 90.000000
_cell_angle_gamma 90.000000
_cell_volume 5298.853677
_symmetry_space_group_name_H-M "P 42/N C M"
_symmetry_group_IT_number 138
_space_group.IT_coordinate_system_code '2'
_symmetry_cell_setting 'tetragonal'
loop_
_space_group_symop_operation_xyz
x,y,z
1/2-y,x,1/2+z
1/2-x,1/2-y,z
y,1/2-x,1/2+z
1/2+x,-y,1/2-z
-x,1/2+y,1/2-z
1/2+y,1/2+x,-z
-y,-x,-z
-x,-y,-z
1/2+y,-x,1/2-z
1/2+x,1/2+y,-z
-y,1/2+x,1/2-z
1/2-x,y,1/2+z
x,1/2-y,1/2+z
1/2-y,1/2-x,z
y,x,z
loop_
_atom_site_type_symbol
_atom_site_label
_atom_site_fract_x
_atom_site_fract_y
_atom_site_fract_z
Si Si1 0.073966 0.073966 0.928681
Si Si2 0.819942 0.319942 0.930518
Si Si3 0.100663 0.750000 0.250000
Si Si4 0.075258 0.075258 0.427232
Si Si5 0.751558 0.495763 0.875185
Si Si6 0.424742 0.075259 0.072768
Si Si7 0.248441 0.504237 0.875186
Si Si8 0.926035 0.926035 0.928681
O O1 0.039018 0.162832 0.898728
O O2 0.087306 0.087306 1.000000
O O3 0.000000 0.000000 0.921650
O O4 0.750000 0.250000 0.914099
O O5 0.778556 0.407345 0.907573
O O6 0.907345 0.278556 0.907573
O O7 0.831548 0.331548 0.000000
O O8 0.165923 0.834077 0.253462
O O9 0.036946 0.755309 0.193004
O O10 0.036947 0.744689 0.306996
O O11 0.083577 0.083577 0.500000
O O12 0.051631 0.165296 0.394906
O O13 1.000000 1.000000 0.417670
O O14 0.834703 0.551631 0.894906
O O15 0.662831 0.539017 0.898729
#
# Coordination Sequence:
#
# PCOD9571052 Si02
#       8
#     8  16  16   8  16   8  16   8
#     4  11  24  42  64  95 134 172 217 280 347 402
#     4  11  20  35  61  91 121 158 216 279 329 374
#     4  11  22  40  66  95 132 172 226 279 332 399
#     4  11  22  40  66  95 130 171 226 285 334 395
#     4  12  24  40  63  95 130 175 222 267 337 394
#     4  11  22  40  66  95 130 171 226 285 334 395
#     4  12  24  40  63  95 130 175 222 267 337 394
#     4  11  24  42  64  95 134 172 217 280 347 402
#
# _framework density 18.117127
#
# number of rings (size 3 to 8) (size 9 to 14) (size 15 to 20)
#    0.000    0.667    3.333    6.000    0.000    4.667 
#    0.000    5.000    0.000    2.000    0.000    0.000 
#    0.000    0.000    0.000    0.000    0.000    0.000 
#
# Total GULP energy -535185.244739 kJ/mol
# GULP energy per Si atom -5574.846299 kJ/mol
# Density = 1.807589 g / cm^3
# Si number density = 18.117127 Si / 1000 Ang^3
#
#
#
# Elastic Constant Matrix: (Units=GPa)
#
#
# Indices 1 2 3 4 5 6 
#
# 1 176.3875 107.8956 84.9489 0.0000 0.0000 0.0000
# 2 107.8956 176.3875 84.9489 0.0000 0.0000 0.0000
# 3 84.9489 84.9489 200.7782 0.0000 0.0000 0.0000
# 4 0.0000 0.0000 0.0000 29.9872 0.0000 0.0000
# 5 0.0000 0.0000 0.0000 0.0000 29.9872 0.0000
# 6 0.0000 0.0000 0.0000 0.0000 0.0000 47.3837
#
#
#
# Elastic Compliance Matrix: (Units=1/GPa)
#
#
# Indices 1 2 3 4 5 6 
#
# 1 0.009654 -0.004946 -0.001992 0.000000 0.000000 0.000000
# 2 -0.004946 0.009654 -0.001992 0.000000 0.000000 0.000000
# 3 -0.001992 -0.001992 0.006666 0.000000 0.000000 0.000000
# 4 0.000000 0.000000 0.000000 0.033348 0.000000 0.000000
# 5 0.000000 0.000000 0.000000 0.000000 0.033348 0.000000
# 6 0.000000 0.000000 0.000000 0.000000 0.000000 0.021104
#
#
# Mechanical properties :
#
#
# Convention : Reuss Voigt Hill
#
# Bulk Modulus (GPa) = 123.23643 123.23777 123.23710
# Shear Modulus (GPa) = 37.21929 39.85562 38.53745
#
# Velocity S-wave (km/s) = 4.53743 4.69538 4.61708
# Velocity P-wave (km/s) = 9.77859 9.87755 9.82819
#
# Compressibility (1/GPa) = 0.00811448
#
# Stress axis : x y z
#
# Youngs Moduli (GPa) = 103.58203 103.58203 150.00971
#
# Poissons Ratio (x) = 0.51232 0.29882
# Poissons Ratio (y) = 0.51232 0.29882
# Poissons Ratio (z) = 0.20633 0.20633
#
# Static dielectric constant tensor:
#      x y z
#    x 1.504880 0.000000 0.000000 
#    y 0.000000 1.504880 0.000000 
#    z 0.000000 0.000000 0.944320 
# 
# From -- ./inp_files/6339.got.cif
#   From: 2010.05.17/outbox.cif.g08.bks.cpg/sg138_4_cif.got.tgz:6339.got - 2010.05.20 13:08:53.
