data_PCOD9571786
_publ_section_title
;
Structure prediction by ZEFSAII (Michael W. Deem and Ramdas Pophale) SiO2 
 PCOD9571786
Probable space group: I 4/M M M
;
_chemical_formula_sum "Si O2"
_cell_formula_units_Z 192
_cell_length_a 17.429646
_cell_length_b 17.429646
_cell_length_c 33.932263
_cell_angle_alpha 90.000000
_cell_angle_beta 90.000000
_cell_angle_gamma 90.000000
_cell_volume 10308.369033
_symmetry_space_group_name_H-M "I 4/M M M"
_symmetry_group_IT_number 139
_symmetry_cell_setting 'tetragonal'
loop_
_space_group_symop_operation_xyz
x,y,z
-y,x,z
-x,-y,z
y,-x,z
x,-y,-z
-x,y,-z
y,x,-z
-y,-x,-z
-x,-y,-z
y,-x,-z
x,y,-z
-y,x,-z
-x,y,z
x,-y,z
-y,-x,z
y,x,z
1/2+x,1/2+y,1/2+z
1/2-y,1/2+x,1/2+z
1/2-x,1/2-y,1/2+z
1/2+y,1/2-x,1/2+z
1/2+x,1/2-y,1/2-z
1/2-x,1/2+y,1/2-z
1/2+y,1/2+x,1/2-z
1/2-y,1/2-x,1/2-z
1/2-x,1/2-y,1/2-z
1/2+y,1/2-x,1/2-z
1/2+x,1/2+y,1/2-z
1/2-y,1/2+x,1/2-z
1/2-x,1/2+y,1/2+z
1/2+x,1/2-y,1/2+z
1/2-y,1/2-x,1/2+z
1/2+y,1/2+x,1/2+z
loop_
_atom_site_type_symbol
_atom_site_label
_atom_site_fract_x
_atom_site_fract_y
_atom_site_fract_z
Si Si1 0.413052 0.134488 0.952700
Si Si2 0.000000 0.124124 0.048112
Si Si3 0.213464 0.088249 0.265599
Si Si4 0.295466 0.834763 0.669282
Si Si5 0.216802 0.911453 0.403548
Si Si6 0.300198 0.000000 0.951764
Si Si7 0.785879 0.088253 0.829512
O O1 0.500000 0.112687 0.939919
O O2 0.398060 0.219719 0.937196
O O3 0.348710 0.074468 0.939397
O O4 0.412714 0.133754 0.000000
O O5 0.925267 0.074734 0.060047
O O6 0.000000 0.211987 0.061565
O O7 0.000000 0.125114 0.000000
O O8 0.140428 0.140428 0.277203
O O9 0.285751 0.123724 0.288757
O O10 0.219021 0.092205 0.218401
O O11 0.202738 0.000000 0.276858
O O12 0.238091 0.761910 0.671092
O O13 0.261898 0.891367 0.636646
O O14 0.375373 0.795450 0.657883
O O15 0.145964 0.854037 0.407164
O O16 0.193224 0.000000 0.404031
O O17 0.298591 0.000000 0.000000
O O18 0.857195 0.142806 0.841604
O O19 0.796692 0.000000 0.840871
#
# Coordination Sequence:
#
# PCOD9571786 Si02
#       7
#    32  16  32  32  32  16  32
#     4   9  18  33  52  75 103 131 162 205 253 297
#     4   8  14  24  38  62  97 127 150 184 230 278
#     4   9  16  26  44  69  97 130 164 202 247 294
#     4   9  17  31  48  67  95 129 167 206 244 293
#     4  10  21  36  54  76 102 133 168 209 255 302
#     4   9  16  28  50  75  97 127 165 200 240 296
#     4   9  17  29  47  72  99 128 163 202 247 298
#
# _framework density 18.625643
#
# number of rings (size 3 to 8) (size 9 to 14) (size 15 to 20)
#    0.000    2.917    0.000    1.500    0.000    4.500 
#    1.500    3.333    0.000    4.500    0.000    7.000 
#    0.000    0.000    0.000    0.000    0.000    0.000 
#
# Total GULP energy -535046.692953 kJ/mol
# GULP energy per Si atom -5573.403052 kJ/mol
# Density = 1.858325 g / cm^3
# Si number density = 18.625643 Si / 1000 Ang^3
#
#
#
# Elastic Constant Matrix: (Units=GPa)
#
#
# Indices 1 2 3 4 5 6 
#
# 1 112.8081 108.9723 19.0257 0.0000 0.0000 0.0000
# 2 108.9723 112.8081 19.0257 0.0000 0.0000 0.0000
# 3 19.0257 19.0257 21.7233 0.0000 0.0000 0.0000
# 4 0.0000 0.0000 0.0000 9.0517 0.0000 0.0000
# 5 0.0000 0.0000 0.0000 0.0000 9.0517 0.0000
# 6 0.0000 0.0000 0.0000 0.0000 0.0000 21.9856
#
#
#
# Elastic Compliance Matrix: (Units=1/GPa)
#
#
# Indices 1 2 3 4 5 6 
#
# 1 0.133004 -0.127698 -0.004647 0.000000 0.000000 0.000000
# 2 -0.127698 0.133004 -0.004647 0.000000 0.000000 0.000000
# 3 -0.004647 -0.004647 0.054174 0.000000 0.000000 0.000000
# 4 0.000000 0.000000 0.000000 0.110477 0.000000 0.000000
# 5 0.000000 0.000000 0.000000 0.000000 0.110477 0.000000
# 6 0.000000 0.000000 0.000000 0.000000 0.000000 0.045484
#
#
# Mechanical properties :
#
#
# Convention : Reuss Voigt Hill
#
# Bulk Modulus (GPa) = 21.64636 60.15409 40.90022
# Shear Modulus (GPa) = 5.70774 14.70551 10.20663
#
# Velocity S-wave (km/s) = 1.75246 2.81291 2.34345
# Velocity P-wave (km/s) = 3.96760 6.55106 5.41564
#
# Compressibility (1/GPa) = 0.04619715
#
# Stress axis : x y z
#
# Youngs Moduli (GPa) = 7.51857 7.51857 18.45904
#
# Poissons Ratio (x) = 0.96010 0.08579
# Poissons Ratio (y) = 0.96010 0.08579
# Poissons Ratio (z) = 0.03494 0.03494
#
# Static dielectric constant tensor:
#      x y z
#    x 1.638920 0.000000 0.000000 
#    y 0.000000 1.638920 0.000000 
#    z 0.000000 0.000000 1.673370 
# 
# From -- ./inp_files/14355.got.cif
#   From: 2010.05.17/outbox.cif.g08.bks.cpg/sg139_8_cif.got.tgz:14355.got - 2010.05.20 13:14:44.
