data_PCOD9571894
_publ_section_title
;
Structure prediction by ZEFSAII (Michael W. Deem and Ramdas Pophale) SiO2 
 PCOD9571894
Probable space group: I 4/M M M
;
_chemical_formula_sum "Si O2"
_cell_formula_units_Z 136
_cell_length_a 18.849085
_cell_length_b 18.849085
_cell_length_c 18.841801
_cell_angle_alpha 90.000000
_cell_angle_beta 90.000000
_cell_angle_gamma 90.000000
_cell_volume 6694.265894
_symmetry_space_group_name_H-M "I 4/M M M"
_symmetry_group_IT_number 139
_symmetry_cell_setting 'tetragonal'
loop_
_space_group_symop_operation_xyz
x,y,z
-y,x,z
-x,-y,z
y,-x,z
x,-y,-z
-x,y,-z
y,x,-z
-y,-x,-z
-x,-y,-z
y,-x,-z
x,y,-z
-y,x,-z
-x,y,z
x,-y,z
-y,-x,z
y,x,z
1/2+x,1/2+y,1/2+z
1/2-y,1/2+x,1/2+z
1/2-x,1/2-y,1/2+z
1/2+y,1/2-x,1/2+z
1/2+x,1/2-y,1/2-z
1/2-x,1/2+y,1/2-z
1/2+y,1/2+x,1/2-z
1/2-y,1/2-x,1/2-z
1/2-x,1/2-y,1/2-z
1/2+y,1/2-x,1/2-z
1/2+x,1/2+y,1/2-z
1/2-y,1/2+x,1/2-z
1/2-x,1/2+y,1/2+z
1/2+x,1/2-y,1/2+z
1/2-y,1/2-x,1/2+z
1/2+y,1/2+x,1/2+z
loop_
_atom_site_type_symbol
_atom_site_label
_atom_site_fract_x
_atom_site_fract_y
_atom_site_fract_z
Si Si1 0.000000 0.116961 0.229458
Si Si2 0.317677 0.500000 0.881448
Si Si3 0.235252 0.235252 0.332188
Si Si4 0.000000 0.661479 0.585426
Si Si5 0.500000 0.738778 0.621310
Si Si6 0.650790 0.349210 0.073806
Si Si7 0.120021 0.000000 0.000000
Si Si8 0.633230 0.836614 0.414865
O O1 0.931344 0.068657 0.210329
O O2 0.000000 0.132915 0.312768
O O3 0.000000 0.194176 0.193659
O O4 0.233359 0.500000 0.868910
O O5 0.333060 0.430798 0.925600
O O6 0.250000 0.250000 0.250000
O O7 0.176501 0.176501 0.349049
O O8 0.302054 0.200475 0.372898
O O9 0.922037 0.626748 0.599303
O O10 0.000000 0.676761 0.500000
O O11 0.500000 0.673577 0.565781
O O12 0.433692 0.790191 0.608788
O O13 0.682092 0.317908 0.000000
O O14 0.068384 0.068384 0.000000
O O15 0.642248 0.829598 0.500000
#
# Coordination Sequence:
#
# PCOD9571894 Si02
#       8
#    16  16  16  16  16  16   8  32
#     4  11  26  46  64  94 142 194 231 288 358 427
#     4  12  23  40  67 100 136 179 231 280 354 420
#     4  12  28  42  67 101 137 187 239 290 352 421
#     4  10  22  42  69  98 139 179 224 290 359 420
#     4  12  26  42  71 101 136 184 241 290 357 420
#     4  12  24  43  68 100 138 181 236 287 348 427
#     4  11  24  44  66  99 142 192 244 299 356 426
#     4  11  24  44  70 103 138 183 236 296 355 418
#
# _framework density 20.315892999999999
#
# number of rings (size 3 to 8) (size 9 to 14) (size 15 to 20)
#    0.000    0.647    4.706    2.824    6.588    1.647 
#    0.000    2.353    0.000    0.000    0.000    3.294 
#    0.000    0.000    0.000    0.000    0.000    0.000 
#
# Total GULP energy -379275.344115 kJ/mol
# GULP energy per Si atom -5577.578590 kJ/mol
# Density = 2.026965 g / cm^3
# Si number density = 20.315893 Si / 1000 Ang^3
#
#
#
# Elastic Constant Matrix: (Units=GPa)
#
#
# Indices 1 2 3 4 5 6 
#
# 1 185.9314 41.7143 41.2871 0.0000 0.0000 0.0000
# 2 41.7143 185.9314 41.2871 0.0000 0.0000 0.0000
# 3 41.2871 41.2871 107.5740 0.0000 0.0000 0.0000
# 4 0.0000 0.0000 0.0000 19.6375 0.0000 0.0000
# 5 0.0000 0.0000 0.0000 0.0000 19.6375 0.0000
# 6 0.0000 0.0000 0.0000 0.0000 0.0000 40.7755
#
#
#
# Elastic Compliance Matrix: (Units=1/GPa)
#
#
# Indices 1 2 3 4 5 6 
#
# 1 0.006019 -0.000915 -0.001959 0.000000 0.000000 0.000000
# 2 -0.000915 0.006019 -0.001959 0.000000 0.000000 0.000000
# 3 -0.001959 -0.001959 0.010799 0.000000 0.000000 0.000000
# 4 0.000000 0.000000 0.000000 0.050923 0.000000 0.000000
# 5 0.000000 0.000000 0.000000 0.000000 0.050923 0.000000
# 6 0.000000 0.000000 0.000000 0.000000 0.000000 0.024525
#
#
# Mechanical properties :
#
#
# Convention : Reuss Voigt Hill
#
# Bulk Modulus (GPa) = 75.92245 80.89043 78.40644
# Shear Modulus (GPa) = 30.62549 39.68666 35.15607
#
# Velocity S-wave (km/s) = 3.88682 4.42461 4.16441
# Velocity P-wave (km/s) = 7.58915 8.12439 7.86133
#
# Compressibility (1/GPa) = 0.01317133
#
# Stress axis : x y z
#
# Youngs Moduli (GPa) = 166.15107 166.15107 92.59785
#
# Poissons Ratio (x) = 0.15209 0.18137
# Poissons Ratio (y) = 0.15209 0.18137
# Poissons Ratio (z) = 0.32543 0.32543
#
# Static dielectric constant tensor:
#      x y z
#    x 1.766960 0.000000 0.000000 
#    y 0.000000 1.766960 0.000000 
#    z 0.000000 0.000000 1.736540 
# 
# From -- ./inp_files/10014.got.cif
#   From: 2010.05.17/outbox.cif.g08.bks.cpg/sg139_6_cif.got.tgz:10014.got - 2010.05.20 13:14:44.
