data_PCOD9571785
_publ_section_title
;
Structure prediction by ZEFSAII (Michael W. Deem and Ramdas Pophale) SiO2 
 PCOD9571785
Probable space group: I 4/M M M
;
_chemical_formula_sum "Si O2"
_cell_formula_units_Z 192
_cell_length_a 17.341247
_cell_length_b 17.341247
_cell_length_c 36.607103
_cell_angle_alpha 90.000000
_cell_angle_beta 90.000000
_cell_angle_gamma 90.000000
_cell_volume 11008.445825
_symmetry_space_group_name_H-M "I 4/M M M"
_symmetry_group_IT_number 139
_symmetry_cell_setting 'tetragonal'
loop_
_space_group_symop_operation_xyz
x,y,z
-y,x,z
-x,-y,z
y,-x,z
x,-y,-z
-x,y,-z
y,x,-z
-y,-x,-z
-x,-y,-z
y,-x,-z
x,y,-z
-y,x,-z
-x,y,z
x,-y,z
-y,-x,z
y,x,z
1/2+x,1/2+y,1/2+z
1/2-y,1/2+x,1/2+z
1/2-x,1/2-y,1/2+z
1/2+y,1/2-x,1/2+z
1/2+x,1/2-y,1/2-z
1/2-x,1/2+y,1/2-z
1/2+y,1/2+x,1/2-z
1/2-y,1/2-x,1/2-z
1/2-x,1/2-y,1/2-z
1/2+y,1/2-x,1/2-z
1/2+x,1/2+y,1/2-z
1/2-y,1/2+x,1/2-z
1/2-x,1/2+y,1/2+z
1/2+x,1/2-y,1/2+z
1/2-y,1/2-x,1/2+z
1/2+y,1/2+x,1/2+z
loop_
_atom_site_type_symbol
_atom_site_label
_atom_site_fract_x
_atom_site_fract_y
_atom_site_fract_z
Si Si1 0.411308 0.140281 0.956187
Si Si2 0.000000 0.125099 0.044521
Si Si3 0.291371 0.089867 0.261901
Si Si4 0.292783 0.834398 0.661238
Si Si5 0.219588 0.910748 0.405214
Si Si6 0.302511 0.000000 0.955306
Si Si7 0.783277 0.090119 0.815979
O O1 0.500000 0.119172 0.946313
O O2 0.395028 0.223660 0.939147
O O3 0.350368 0.075688 0.943897
O O4 0.407729 0.143900 0.000000
O O5 0.924851 0.075150 0.055519
O O6 0.000000 0.213552 0.057096
O O7 0.000000 0.126409 0.000000
O O8 0.371559 0.128442 0.250000
O O9 0.269804 0.131689 0.299371
O O10 0.234502 0.100565 0.227485
O O11 0.299216 0.000000 0.268713
O O12 0.236269 0.763732 0.653122
O O13 0.274473 0.895314 0.629904
O O14 0.376006 0.793738 0.664621
O O15 0.147447 0.852554 0.404479
O O16 0.195165 0.000000 0.405849
O O17 0.301552 0.000000 0.000000
O O18 0.856551 0.143450 0.825272
O O19 0.794615 0.000000 0.823384
#
# Coordination Sequence:
#
# PCOD9571785 Si02
#       7
#    32  16  32  32  32  16  32
#     4   9  18  33  52  75 103 131 162 205 253 297
#     4   8  14  24  38  62  97 127 150 184 230 278
#     4   9  16  26  43  66  93 126 161 199 244 294
#     4   9  17  31  49  68  93 126 166 207 245 292
#     4  10  21  36  54  76 102 133 168 207 252 301
#     4   9  16  28  50  75  97 127 165 200 240 296
#     4   9  17  29  46  70  98 128 164 204 248 298
#
# _framework density 17.441153
#
# number of rings (size 3 to 8) (size 9 to 14) (size 15 to 20)
#    0.000    2.917    0.000    1.500    0.000    4.500 
#    1.500    1.667    0.000    1.000    0.000    4.667 
#    0.000    0.000    0.000    0.000    0.000    0.000 
#
# Total GULP energy -534477.231428 kJ/mol
# GULP energy per Si atom -5567.471161 kJ/mol
# Density = 1.740146 g / cm^3
# Si number density = 17.441153 Si / 1000 Ang^3
#
#
#
# Elastic Constant Matrix: (Units=GPa)
#
#
# Indices 1 2 3 4 5 6 
#
# 1 116.2259 74.8282 20.9139 0.0000 0.0000 0.0000
# 2 74.8282 116.2260 20.9146 0.0000 0.0000 0.0000
# 3 20.9139 20.9146 16.4169 0.0000 0.0000 0.0000
# 4 0.0000 0.0000 0.0000 17.6733 0.0000 0.0000
# 5 0.0000 0.0000 0.0000 0.0000 17.6732 0.0000
# 6 0.0000 0.0000 0.0000 0.0000 0.0000 18.4070
#
#
#
# Elastic Compliance Matrix: (Units=1/GPa)
#
#
# Indices 1 2 3 4 5 6 
#
# 1 0.015707 -0.008449 -0.009246 0.000000 0.000000 0.000000
# 2 -0.008449 0.015707 -0.009248 0.000000 0.000000 0.000000
# 3 -0.009246 -0.009248 0.084473 0.000000 0.000000 0.000000
# 4 0.000000 0.000000 0.000000 0.056583 0.000000 0.000000
# 5 0.000000 0.000000 0.000000 0.000000 0.056583 0.000000
# 6 0.000000 0.000000 0.000000 0.000000 0.000000 0.054327
#
#
# Mechanical properties :
#
#
# Convention : Reuss Voigt Hill
#
# Bulk Modulus (GPa) = 16.12845 53.57582 34.85213
# Shear Modulus (GPa) = 13.96907 19.56484 16.76696
#
# Velocity S-wave (km/s) = 2.83313 3.35291 3.10392
# Velocity P-wave (km/s) = 4.46874 6.76565 5.73340
#
# Compressibility (1/GPa) = 0.06200225
#
# Stress axis : x y z
#
# Youngs Moduli (GPa) = 63.66542 63.66417 11.83805
#
# Poissons Ratio (x) = 0.53788 0.10946
# Poissons Ratio (y) = 0.53789 0.10948
# Poissons Ratio (z) = 0.58867 0.58875
#
# Static dielectric constant tensor:
#      x y z
#    x 1.586960 0.000000 0.000000 
#    y 0.000000 1.586950 0.000000 
#    z 0.000000 0.000000 1.617930 
# 
# From -- ./inp_files/14354.got.cif
#   From: 2010.05.17/outbox.cif.g08.bks.cpg/sg139_8_cif.got.tgz:14354.got - 2010.05.20 13:14:44.
