data_PCOD9571335
_publ_section_title
;
Structure prediction by ZEFSAII (Michael W. Deem and Ramdas Pophale) SiO2 
 PCOD9571335
Probable space group: I 4/M M M
;
_chemical_formula_sum "Si O2"
_cell_formula_units_Z 176
_cell_length_a 19.580459
_cell_length_b 19.580459
_cell_length_c 27.573040
_cell_angle_alpha 90.000000
_cell_angle_beta 90.000000
_cell_angle_gamma 90.000000
_cell_volume 10571.348428
_symmetry_space_group_name_H-M "I 4/M M M"
_symmetry_group_IT_number 139
_symmetry_cell_setting 'tetragonal'
loop_
_space_group_symop_operation_xyz
x,y,z
-y,x,z
-x,-y,z
y,-x,z
x,-y,-z
-x,y,-z
y,x,-z
-y,-x,-z
-x,-y,-z
y,-x,-z
x,y,-z
-y,x,-z
-x,y,z
x,-y,z
-y,-x,z
y,x,z
1/2+x,1/2+y,1/2+z
1/2-y,1/2+x,1/2+z
1/2-x,1/2-y,1/2+z
1/2+y,1/2-x,1/2+z
1/2+x,1/2-y,1/2-z
1/2-x,1/2+y,1/2-z
1/2+y,1/2+x,1/2-z
1/2-y,1/2-x,1/2-z
1/2-x,1/2-y,1/2-z
1/2+y,1/2-x,1/2-z
1/2+x,1/2+y,1/2-z
1/2-y,1/2+x,1/2-z
1/2-x,1/2+y,1/2+z
1/2+x,1/2-y,1/2+z
1/2-y,1/2-x,1/2+z
1/2+y,1/2+x,1/2+z
loop_
_atom_site_type_symbol
_atom_site_label
_atom_site_fract_x
_atom_site_fract_y
_atom_site_fract_z
Si Si1 0.326116 0.789091 0.150045
Si Si2 0.689459 0.578765 0.577905
Si Si3 0.921964 0.500000 0.558832
Si Si4 0.254048 0.922828 0.182085
Si Si5 0.337586 0.865763 0.055164
Si Si6 0.808499 0.920443 0.711354
O O1 0.258716 0.741285 0.151601
O O2 0.307208 0.861504 0.174518
O O3 0.344560 0.806383 0.094550
O O4 0.384675 0.748977 0.178318
O O5 0.681924 0.500000 0.563627
O O6 0.625397 0.625397 0.565324
O O7 0.703348 0.581416 0.635982
O O8 0.758825 0.609998 0.556138
O O9 0.922802 0.500000 0.500000
O O10 0.881423 0.431471 0.572182
O O11 0.000000 0.500000 0.576103
O O12 0.215532 0.914037 0.232773
O O13 0.283706 0.000000 0.180942
O O14 0.356682 0.847945 0.000000
O O15 0.877437 0.877437 0.704695
O O16 0.816362 0.000000 0.700113
#
# Coordination Sequence:
#
# PCOD9571335 Si02
#       6
#    32  32  16  32  32  32
#     4  10  20  32  50  74 101 133 169 206 247 298
#     4  10  19  30  46  70 100 136 176 211 243 281
#     4   9  18  32  50  70  91 119 153 193 246 300
#     4   9  17  30  50  74 102 134 169 208 243 289
#     4  10  19  33  51  71  97 126 161 205 250 298
#     4  10  20  34  52  74 100 130 166 209 255 303
#
# _framework density 16.648776000000002
#
# number of rings (size 3 to 8) (size 9 to 14) (size 15 to 20)
#    0.000    2.273    0.909    3.818    1.273    4.000 
#    0.000    0.000    0.000    3.273    0.000    3.818 
#    0.000    0.000    0.000    4.000    0.000    0.000 
#
# Total GULP energy -490880.943584 kJ/mol
# GULP energy per Si atom -5578.192541 kJ/mol
# Density = 1.661088 g / cm^3
# Si number density = 16.648776 Si / 1000 Ang^3
#
#
#
# Elastic Constant Matrix: (Units=GPa)
#
#
# Indices 1 2 3 4 5 6 
#
# 1 90.9618 42.9502 39.5172 0.0000 0.0000 0.0000
# 2 42.9502 90.9618 39.5172 0.0000 0.0000 0.0000
# 3 39.5172 39.5172 72.0418 0.0000 0.0000 0.0000
# 4 0.0000 0.0000 0.0000 12.0312 0.0000 0.0000
# 5 0.0000 0.0000 0.0000 0.0000 12.0312 0.0000
# 6 0.0000 0.0000 0.0000 0.0000 0.0000 14.2985
#
#
#
# Elastic Compliance Matrix: (Units=1/GPa)
#
#
# Indices 1 2 3 4 5 6 
#
# 1 0.015935 -0.004893 -0.006057 0.000000 0.000000 0.000000
# 2 -0.004893 0.015935 -0.006057 0.000000 0.000000 0.000000
# 3 -0.006057 -0.006057 0.020526 0.000000 0.000000 0.000000
# 4 0.000000 0.000000 0.000000 0.083117 0.000000 0.000000
# 5 0.000000 0.000000 0.000000 0.000000 0.083117 0.000000
# 6 0.000000 0.000000 0.000000 0.000000 0.000000 0.069938
#
#
# Mechanical properties :
#
#
# Convention : Reuss Voigt Hill
#
# Bulk Modulus (GPa) = 54.40023 55.32608 54.86315
# Shear Modulus (GPa) = 15.21097 16.47091 15.84094
#
# Velocity S-wave (km/s) = 3.02593 3.14875 3.08795
# Velocity P-wave (km/s) = 6.70481 6.82078 6.76304
#
# Compressibility (1/GPa) = 0.01838228
#
# Stress axis : x y z
#
# Youngs Moduli (GPa) = 62.75334 62.75334 48.71889
#
# Poissons Ratio (x) = 0.30705 0.29510
# Poissons Ratio (y) = 0.30705 0.29510
# Poissons Ratio (z) = 0.38011 0.38011
#
# Static dielectric constant tensor:
#      x y z
#    x 1.548590 0.000000 0.000000 
#    y 0.000000 1.548590 0.000000 
#    z 0.000000 0.000000 1.585640 
# 
# From -- ./inp_files/14242.got.cif
#   From: 2010.05.17/outbox.cif.g08.bks.cpg/sg139_8_cif.got.tgz:14242.got - 2010.05.20 13:14:44.
