data_PCOD9571230
_publ_section_title
;
Structure prediction by ZEFSAII (Michael W. Deem and Ramdas Pophale) SiO2 
 PCOD9571230
Probable space group: I 4/M M M
;
_chemical_formula_sum "Si O2"
_cell_formula_units_Z 144
_cell_length_a 23.484070
_cell_length_b 23.484070
_cell_length_c 16.967569
_cell_angle_alpha 90.000000
_cell_angle_beta 90.000000
_cell_angle_gamma 90.000000
_cell_volume 9357.640497
_symmetry_space_group_name_H-M "I 4/M M M"
_symmetry_group_IT_number 139
_symmetry_cell_setting 'tetragonal'
loop_
_space_group_symop_operation_xyz
x,y,z
-y,x,z
-x,-y,z
y,-x,z
x,-y,-z
-x,y,-z
y,x,-z
-y,-x,-z
-x,-y,-z
y,-x,-z
x,y,-z
-y,x,-z
-x,y,z
x,-y,z
-y,-x,z
y,x,z
1/2+x,1/2+y,1/2+z
1/2-y,1/2+x,1/2+z
1/2-x,1/2-y,1/2+z
1/2+y,1/2-x,1/2+z
1/2+x,1/2-y,1/2-z
1/2-x,1/2+y,1/2-z
1/2+y,1/2+x,1/2-z
1/2-y,1/2-x,1/2-z
1/2-x,1/2-y,1/2-z
1/2+y,1/2-x,1/2-z
1/2+x,1/2+y,1/2-z
1/2-y,1/2+x,1/2-z
1/2-x,1/2+y,1/2+z
1/2+x,1/2-y,1/2+z
1/2-y,1/2-x,1/2+z
1/2+y,1/2+x,1/2+z
loop_
_atom_site_type_symbol
_atom_site_label
_atom_site_fract_x
_atom_site_fract_y
_atom_site_fract_z
Si Si1 0.862142 0.606668 0.593589
Si Si2 0.733868 0.733868 0.093847
Si Si3 0.000000 0.436671 0.095788
Si Si4 0.758519 0.931143 0.165288
Si Si5 0.669121 0.330880 0.594896
Si Si6 0.786636 0.637337 0.192427
O O1 0.863982 0.616046 0.500000
O O2 0.901792 0.555010 0.618339
O O3 0.797905 0.588515 0.616752
O O4 0.884338 0.661002 0.640626
O O5 0.782279 0.782279 0.112744
O O6 0.749859 0.674095 0.132407
O O7 0.731253 0.731253 0.000000
O O8 0.000000 0.500000 0.127021
O O9 0.000000 0.438754 0.000000
O O10 0.808718 0.890706 0.131030
O O11 0.744902 0.908917 0.253976
O O12 0.766146 0.000000 0.160264
O O13 0.665062 0.334939 0.500000
O O14 0.815952 0.684049 0.250000
#
# Coordination Sequence:
#
# PCOD9571230 Si02
#       6
#    32  16  16  32  16  32
#     4  10  18  30  49  71  98 137 182 223 260 303
#     4  11  18  30  54  82 106 133 168 215 271 324
#     4   9  18  30  44  62  88 130 182 228 258 285
#     4  11  22  35  53  76 109 142 177 218 270 329
#     4  11  21  33  55  84 107 135 178 224 274 324
#     4  10  19  30  47  72 107 135 164 210 264 312
#
# _framework density 15.388495000000001
#
# number of rings (size 3 to 8) (size 9 to 14) (size 15 to 20)
#    0.000    1.667    5.556    2.333    0.000    2.222 
#    0.000    0.000    0.000    2.333    0.000    0.778 
#    0.000    0.000    0.000    1.000    0.000    0.000 
#
# Total GULP energy -401222.675496 kJ/mol
# GULP energy per Si atom -5572.537160 kJ/mol
# Density = 1.535347 g / cm^3
# Si number density = 15.388495 Si / 1000 Ang^3
#
#
#
# Elastic Constant Matrix: (Units=GPa)
#
#
# Indices 1 2 3 4 5 6 
#
# 1 87.2781 52.3954 38.4090 0.0000 0.0000 0.0000
# 2 52.3954 87.2785 38.4095 0.0000 0.0000 0.0000
# 3 38.4090 38.4095 82.0497 0.0000 0.0000 0.0000
# 4 0.0000 0.0000 0.0000 -9.6004 0.0000 0.0000
# 5 0.0000 0.0000 0.0000 0.0000 -9.5800 0.0000
# 6 0.0000 0.0000 0.0000 0.0000 0.0000 15.0006
#
#
#
# Elastic Compliance Matrix: (Units=1/GPa)
#
#
# Indices 1 2 3 4 5 6 
#
# 1 0.019155 -0.009513 -0.004514 0.000000 0.000000 0.000000
# 2 -0.009513 0.019155 -0.004514 0.000000 0.000000 0.000000
# 3 -0.004514 -0.004514 0.016414 0.000000 0.000000 0.000000
# 4 0.000000 0.000000 0.000000 -0.104162 0.000000 0.000000
# 5 0.000000 0.000000 0.000000 0.000000 -0.104384 0.000000
# 6 0.000000 0.000000 0.000000 0.000000 0.000000 0.066664
#
#
# Mechanical properties :
#
#
# Convention : Reuss Voigt Hill
#
# Bulk Modulus (GPa) = 56.67952 57.22600 56.95276
# Shear Modulus (GPa) = -113.12518 7.65688 -52.73415
#
# Velocity S-wave (km/s) = -8.58326 2.23305 -5.86029
# Velocity P-wave (km/s) = 7.83055 6.62699 2.94963
#
# Compressibility (1/GPa) = 0.01764306
#
# Stress axis : x y z
#
# Youngs Moduli (GPa) = 52.20670 52.20667 60.92519
#
# Poissons Ratio (x) = 0.49662 0.27499
# Poissons Ratio (y) = 0.49663 0.27500
# Poissons Ratio (z) = 0.23564 0.23565
#
# Static dielectric constant tensor:
#      x y z
#    x 1.534230 0.000000 0.000000 
#    y 0.000000 1.534230 0.000000 
#    z 0.000000 0.000000 1.536360 
# 
# From -- ./inp_files/8277.got.cif
#   From: 2010.05.17/outbox.cif.g08.bks.cpg/sg139_5_cif.got.tgz:8277.got - 2010.05.20 13:14:44.
