data_PCOD9571106
_publ_section_title
;
Structure prediction by ZEFSAII (Michael W. Deem and Ramdas Pophale) SiO2 
 PCOD9571106
Probable space group: P 42/N C M
;
_chemical_formula_sum "Si O2"
_cell_formula_units_Z 48
_cell_length_a 11.336574
_cell_length_b 11.336574
_cell_length_c 17.400255
_cell_angle_alpha 90.000000
_cell_angle_beta 90.000000
_cell_angle_gamma 90.000000
_cell_volume 2236.244407
_symmetry_space_group_name_H-M "P 42/N C M"
_symmetry_group_IT_number 138
_space_group.IT_coordinate_system_code '2'
_symmetry_cell_setting 'tetragonal'
loop_
_space_group_symop_operation_xyz
x,y,z
1/2-y,x,1/2+z
1/2-x,1/2-y,z
y,1/2-x,1/2+z
1/2+x,-y,1/2-z
-x,1/2+y,1/2-z
1/2+y,1/2+x,-z
-y,-x,-z
-x,-y,-z
1/2+y,-x,1/2-z
1/2+x,1/2+y,-z
-y,1/2+x,1/2-z
1/2-x,y,1/2+z
x,1/2-y,1/2+z
1/2-y,1/2-x,z
y,x,z
loop_
_atom_site_type_symbol
_atom_site_label
_atom_site_fract_x
_atom_site_fract_y
_atom_site_fract_z
Si Si1 0.181129 0.515641 0.452189
Si Si2 0.657343 0.842658 0.804544
Si Si3 0.593078 0.906923 0.967943
Si Si4 0.741254 0.066388 0.718559
O O1 0.121493 0.621493 0.500000
O O2 0.279410 0.447209 0.501158
O O3 0.238033 0.561585 0.373344
O O4 0.075895 0.424106 0.432584
O O5 0.750000 0.750000 0.838199
O O6 0.594967 0.905034 0.876033
O O7 0.562854 0.774855 0.752865
O O8 0.500000 0.000000 0.000000
O O9 0.630998 0.144236 0.748239
#
# Coordination Sequence:
#
# PCOD9571106 Si02
#       4
#    16   8   8  16
#     4  11  24  44  72 101 139 184 236 296 349 424
#     4  12  26  42  71 102 138 184 235 293 347 432
#     4  12  26  44  70 101 141 185 236 290 358 426
#     4  11  25  44  68 100 140 183 234 294 356 417
#
# _framework density 21.464559999999999
#
# number of rings (size 3 to 8) (size 9 to 14) (size 15 to 20)
#    0.000    0.667    1.667    5.500    4.667    6.000 
#    0.000    0.000    0.000    0.000    0.000    0.000 
#    0.000    0.000    0.000    0.000    0.000    0.000 
#
# Total GULP energy -268855.912049 kJ/mol
# GULP energy per Si atom -5601.164834 kJ/mol
# Density = 2.141571 g / cm^3
# Si number density = 21.464560 Si / 1000 Ang^3
#
#
#
# Elastic Constant Matrix: (Units=GPa)
#
#
# Indices 1 2 3 4 5 6 
#
# 1 122.2478 -34.4736 3.8464 0.0000 0.0000 0.0000
# 2 -34.4736 122.2478 3.8464 0.0000 0.0000 0.0000
# 3 3.8464 3.8464 108.1947 0.0000 0.0000 0.0000
# 4 0.0000 0.0000 0.0000 26.8971 0.0000 0.0000
# 5 0.0000 0.0000 0.0000 0.0000 26.8971 0.0000
# 6 0.0000 0.0000 0.0000 0.0000 0.0000 45.9344
#
#
#
# Elastic Compliance Matrix: (Units=1/GPa)
#
#
# Indices 1 2 3 4 5 6 
#
# 1 0.008905 0.002524 -0.000406 0.000000 0.000000 0.000000
# 2 0.002524 0.008905 -0.000406 0.000000 0.000000 0.000000
# 3 -0.000406 -0.000406 0.009271 0.000000 0.000000 0.000000
# 4 0.000000 0.000000 0.000000 0.037179 0.000000 0.000000
# 5 0.000000 0.000000 0.000000 0.000000 0.037179 0.000000
# 6 0.000000 0.000000 0.000000 0.000000 0.000000 0.021770
#
#
# Mechanical properties :
#
#
# Convention : Reuss Voigt Hill
#
# Bulk Modulus (GPa) = 32.78338 33.23654 33.00996
# Shear Modulus (GPa) = 38.47527 45.24378 41.85953
#
# Velocity S-wave (km/s) = 4.23839 4.59610 4.42086
# Velocity P-wave (km/s) = 6.26565 6.60935 6.43979
#
# Compressibility (1/GPa) = 0.03050326
#
# Stress axis : x y z
#
# Youngs Moduli (GPa) = 112.30133 112.30133 107.85759
#
# Poissons Ratio (x) = -0.28343 0.04382
# Poissons Ratio (y) = -0.28343 0.04382
# Poissons Ratio (z) = 0.04563 0.04563
#
# Static dielectric constant tensor:
#      x y z
#    x 1.755490 0.000000 0.000000 
#    y 0.000000 1.755490 0.000000 
#    z 0.000000 0.000000 1.729710 
# 
# From -- ./inp_files/4749.got.cif
#   From: 2010.05.17/outbox.cif.g08.bks.cpg/sg138_3_cif.got.tgz:4749.got - 2010.05.20 13:08:53.
