data_PCOD9571589
_publ_section_title
;
Structure prediction by ZEFSAII (Michael W. Deem and Ramdas Pophale) SiO2 
 PCOD9571589
Probable space group: I 4/M M M
;
_chemical_formula_sum "Si O2"
_cell_formula_units_Z 240
_cell_length_a 31.476528
_cell_length_b 31.476528
_cell_length_c 15.346629
_cell_angle_alpha 90.000000
_cell_angle_beta 90.000000
_cell_angle_gamma 90.000000
_cell_volume 15205.007467
_symmetry_space_group_name_H-M "I 4/M M M"
_symmetry_group_IT_number 139
_symmetry_cell_setting 'tetragonal'
loop_
_space_group_symop_operation_xyz
x,y,z
-y,x,z
-x,-y,z
y,-x,z
x,-y,-z
-x,y,-z
y,x,-z
-y,-x,-z
-x,-y,-z
y,-x,-z
x,y,-z
-y,x,-z
-x,y,z
x,-y,z
-y,-x,z
y,x,z
1/2+x,1/2+y,1/2+z
1/2-y,1/2+x,1/2+z
1/2-x,1/2-y,1/2+z
1/2+y,1/2-x,1/2+z
1/2+x,1/2-y,1/2-z
1/2-x,1/2+y,1/2-z
1/2+y,1/2+x,1/2-z
1/2-y,1/2-x,1/2-z
1/2-x,1/2-y,1/2-z
1/2+y,1/2-x,1/2-z
1/2+x,1/2+y,1/2-z
1/2-y,1/2+x,1/2-z
1/2-x,1/2+y,1/2+z
1/2+x,1/2-y,1/2+z
1/2-y,1/2-x,1/2+z
1/2+y,1/2+x,1/2+z
loop_
_atom_site_type_symbol
_atom_site_label
_atom_site_fract_x
_atom_site_fract_y
_atom_site_fract_z
Si Si1 0.048071 0.753531 0.249402
Si Si2 0.597234 0.096734 0.149765
Si Si3 0.182984 0.450333 0.602742
Si Si4 0.136245 0.204449 0.248222
Si Si5 0.181860 0.746048 0.098404
Si Si6 0.262274 0.833073 0.598686
Si Si7 0.576089 0.192846 0.098264
Si Si8 0.047833 0.449577 0.000000
O O1 0.055579 0.723838 0.164419
O O2 0.085617 0.788433 0.257841
O O3 0.051219 0.721112 0.331495
O O4 0.000000 0.770751 0.245043
O O5 0.588040 0.088040 0.250000
O O6 0.645646 0.082300 0.129192
O O7 0.585631 0.145482 0.130694
O O8 0.568387 0.070235 0.084802
O O9 0.192122 0.445002 0.500000
O O10 0.169124 0.500000 0.615514
O O11 0.158059 0.158059 0.236077
O O12 0.149512 0.234049 0.166547
O O13 0.159259 0.225464 0.331927
O O14 0.220106 0.779895 0.094396
O O15 0.203900 0.702421 0.127618
O O16 0.164734 0.740355 0.000000
O O17 0.248558 0.821491 0.500000
O O18 0.285687 0.877829 0.593526
O O19 0.557774 0.192115 0.000000
O O20 0.048730 0.500000 0.000000
O O21 0.000000 0.433616 0.000000
#
# Coordination Sequence:
#
# PCOD9571589 Si02
#       8
#    32  32  32  32  32  32  32  16
#     4  10  22  37  53  75 101 128 164 205 244 292
#     4  12  22  35  56  78  96 120 161 208 260 310
#     4  10  20  35  55  74  96 126 160 204 255 301
#     4  10  20  33  50  71  98 131 163 197 240 286
#     4   9  17  28  43  66  95 129 161 192 230 272
#     4   9  18  29  46  69 100 128 162 196 230 274
#     4  10  20  34  49  74  98 129 161 197 244 293
#     4  11  26  44  56  68  90 120 157 210 272 328
#
# _framework density 15.784274
#
# number of rings (size 3 to 8) (size 9 to 14) (size 15 to 20)
#    0.000    1.933    2.667    1.200    1.867    4.267 
#    0.000    0.667    0.000    0.000    0.000    0.000 
#    0.000    0.267    0.000    0.000    0.000    0.000 
#
# Total GULP energy -669230.229660 kJ/mol
# GULP energy per Si atom -5576.918580 kJ/mol
# Density = 1.574835 g / cm^3
# Si number density = 15.784274 Si / 1000 Ang^3
#
#
#
# Elastic Constant Matrix: (Units=GPa)
#
#
# Indices 1 2 3 4 5 6 
#
# 1 62.6266 46.2889 25.5581 0.0000 0.0000 0.0000
# 2 46.2889 62.6266 25.5581 0.0000 0.0000 0.0000
# 3 25.5581 25.5581 104.8078 0.0000 0.0000 0.0000
# 4 0.0000 0.0000 0.0000 17.2134 0.0000 0.0000
# 5 0.0000 0.0000 0.0000 0.0000 17.2134 0.0000
# 6 0.0000 0.0000 0.0000 0.0000 0.0000 17.9064
#
#
#
# Elastic Compliance Matrix: (Units=1/GPa)
#
#
# Indices 1 2 3 4 5 6 
#
# 1 0.035788 -0.025420 -0.002528 0.000000 0.000000 0.000000
# 2 -0.025420 0.035788 -0.002528 0.000000 0.000000 0.000000
# 3 -0.002528 -0.002528 0.010774 0.000000 0.000000 0.000000
# 4 0.000000 0.000000 0.000000 0.058094 0.000000 0.000000
# 5 0.000000 0.000000 0.000000 0.000000 0.058094 0.000000
# 6 0.000000 0.000000 0.000000 0.000000 0.000000 0.055846
#
#
# Mechanical properties :
#
#
# Convention : Reuss Voigt Hill
#
# Bulk Modulus (GPa) = 46.73517 47.20789 46.97153
# Shear Modulus (GPa) = 15.50528 19.31037 17.40782
#
# Velocity S-wave (km/s) = 3.13761 3.50150 3.32453
# Velocity P-wave (km/s) = 6.54210 6.80591 6.67531
#
# Compressibility (1/GPa) = 0.02139716
#
# Stress axis : x y z
#
# Youngs Moduli (GPa) = 27.94222 27.94222 92.81288
#
# Poissons Ratio (x) = 0.71029 0.23466
# Poissons Ratio (y) = 0.71029 0.23466
# Poissons Ratio (z) = 0.07065 0.07065
#
# Static dielectric constant tensor:
#      x y z
#    x 1.535160 0.000000 0.000000 
#    y 0.000000 1.535160 0.000000 
#    z 0.000000 0.000000 1.561130 
# 
# From -- ./inp_files/6789.got.cif
#   From: 2010.05.17/outbox.cif.g08.bks.cpg/sg139_4_cif.got.tgz:6789.got - 2010.05.20 13:14:44.
