data_PCOD9571189
_publ_section_title
;
Structure prediction by ZEFSAII (Michael W. Deem and Ramdas Pophale) SiO2 
 PCOD9571189
Probable space group: I 4/M M M
;
_chemical_formula_sum "Si O2"
_cell_formula_units_Z 160
_cell_length_a 19.431808
_cell_length_b 19.431808
_cell_length_c 31.746383
_cell_angle_alpha 90.000000
_cell_angle_beta 90.000000
_cell_angle_gamma 90.000000
_cell_volume 11987.280637
_symmetry_space_group_name_H-M "I 4/M M M"
_symmetry_group_IT_number 139
_symmetry_cell_setting 'tetragonal'
loop_
_space_group_symop_operation_xyz
x,y,z
-y,x,z
-x,-y,z
y,-x,z
x,-y,-z
-x,y,-z
y,x,-z
-y,-x,-z
-x,-y,-z
y,-x,-z
x,y,-z
-y,x,-z
-x,y,z
x,-y,z
-y,-x,z
y,x,z
1/2+x,1/2+y,1/2+z
1/2-y,1/2+x,1/2+z
1/2-x,1/2-y,1/2+z
1/2+y,1/2-x,1/2+z
1/2+x,1/2-y,1/2-z
1/2-x,1/2+y,1/2-z
1/2+y,1/2+x,1/2-z
1/2-y,1/2-x,1/2-z
1/2-x,1/2-y,1/2-z
1/2+y,1/2-x,1/2-z
1/2+x,1/2+y,1/2-z
1/2-y,1/2+x,1/2-z
1/2-x,1/2+y,1/2+z
1/2+x,1/2-y,1/2+z
1/2-y,1/2-x,1/2+z
1/2+y,1/2+x,1/2+z
loop_
_atom_site_type_symbol
_atom_site_label
_atom_site_fract_x
_atom_site_fract_y
_atom_site_fract_z
Si Si1 0.807543 0.920494 0.838036
Si Si2 0.806811 0.920156 0.737035
Si Si3 0.579623 0.916512 0.952832
Si Si4 0.582201 0.153341 0.790026
Si Si5 0.082737 0.344468 0.131485
O O1 0.868038 0.868038 0.849022
O O2 0.794814 0.915007 0.787590
O O3 0.736307 0.904538 0.861403
O O4 0.826381 0.000000 0.846480
O O5 0.867459 0.867459 0.726020
O O6 0.734773 0.903444 0.714653
O O7 0.824826 0.000000 0.728349
O O8 0.500000 0.896328 0.945268
O O9 0.627713 0.895535 0.914247
O O10 0.580590 0.000000 0.953457
O O11 0.599553 0.893428 0.000000
O O12 0.500000 0.144345 0.789091
O O13 0.615401 0.115401 0.750000
O O14 0.613774 0.121188 0.832072
O O15 0.000000 0.354937 0.136161
#
# Coordination Sequence:
#
# PCOD9571189 Si02
#       5
#    32  32  32  32  32
#     4   9  17  29  43  59  79 103 136 175 212 250
#     4   9  18  31  44  59  79 104 138 177 211 244
#     4   8  14  25  41  60  80 103 134 170 202 231
#     4  11  20  28  38  57  85 115 142 165 192 234
#     4  10  18  28  41  59  83 111 141 170 201 240
#
# _framework density 13.347481
#
# number of rings (size 3 to 8) (size 9 to 14) (size 15 to 20)
#    0.000    2.600    2.000    1.800    0.000    3.800 
#    0.000    2.000    0.000    0.600    0.000    0.000 
#    0.000    0.000    0.000    7.800    0.000    0.400 
#
# Total GULP energy -445602.158513 kJ/mol
# GULP energy per Si atom -5570.026981 kJ/mol
# Density = 1.331710 g / cm^3
# Si number density = 13.347481 Si / 1000 Ang^3
#
#
#
# Elastic Constant Matrix: (Units=GPa)
#
#
# Indices 1 2 3 4 5 6 
#
# 1 78.0034 66.5678 49.2794 0.0000 0.0000 0.0000
# 2 66.5678 78.0034 49.2794 0.0000 0.0000 0.0000
# 3 49.2794 49.2794 85.4945 0.0000 0.0000 0.0000
# 4 0.0000 0.0000 0.0000 13.4342 0.0000 0.0000
# 5 0.0000 0.0000 0.0000 0.0000 13.4342 0.0000
# 6 0.0000 0.0000 0.0000 0.0000 0.0000 21.1586
#
#
#
# Elastic Compliance Matrix: (Units=1/GPa)
#
#
# Indices 1 2 3 4 5 6 
#
# 1 0.049420 -0.038026 -0.006568 0.000000 0.000000 0.000000
# 2 -0.038026 0.049420 -0.006568 0.000000 0.000000 0.000000
# 3 -0.006568 -0.006568 0.019268 0.000000 0.000000 0.000000
# 4 0.000000 0.000000 0.000000 0.074437 0.000000 0.000000
# 5 0.000000 0.000000 0.000000 0.000000 0.074437 0.000000
# 6 0.000000 0.000000 0.000000 0.000000 0.000000 0.047262
#
#
# Mechanical properties :
#
#
# Convention : Reuss Voigt Hill
#
# Bulk Modulus (GPa) = 63.34820 63.52829 63.43825
# Shear Modulus (GPa) = 11.85313 14.69703 13.27508
#
# Velocity S-wave (km/s) = 2.98324 3.32190 3.15711
# Velocity P-wave (km/s) = 7.70909 7.90015 7.80521
#
# Compressibility (1/GPa) = 0.01578577
#
# Stress axis : x y z
#
# Youngs Moduli (GPa) = 20.23465 20.23465 51.89917
#
# Poissons Ratio (x) = 0.76944 0.34087
# Poissons Ratio (y) = 0.76944 0.34087
# Poissons Ratio (z) = 0.13290 0.13290
#
# Static dielectric constant tensor:
#      x y z
#    x 1.428600 0.000000 0.000000 
#    y 0.000000 1.428600 0.000000 
#    z 0.000000 0.000000 1.427530 
# 
# From -- ./inp_files/14038.got.cif
#   From: 2010.05.17/outbox.cif.g08.bks.cpg/sg139_8_cif.got.tgz:14038.got - 2010.05.20 13:14:44.
