data_PCOD9571829
_publ_section_title
;
Structure prediction by ZEFSAII (Michael W. Deem and Ramdas Pophale) SiO2 
 PCOD9571829
Probable space group: I 4/M M M
;
_chemical_formula_sum "Si O2"
_cell_formula_units_Z 88
_cell_length_a 17.023124
_cell_length_b 17.023124
_cell_length_c 15.812765
_cell_angle_alpha 90.000000
_cell_angle_beta 90.000000
_cell_angle_gamma 90.000000
_cell_volume 4582.329789
_symmetry_space_group_name_H-M "I 4/M M M"
_symmetry_group_IT_number 139
_symmetry_cell_setting 'tetragonal'
loop_
_space_group_symop_operation_xyz
x,y,z
-y,x,z
-x,-y,z
y,-x,z
x,-y,-z
-x,y,-z
y,x,-z
-y,-x,-z
-x,-y,-z
y,-x,-z
x,y,-z
-y,x,-z
-x,y,z
x,-y,z
-y,-x,z
y,x,z
1/2+x,1/2+y,1/2+z
1/2-y,1/2+x,1/2+z
1/2-x,1/2-y,1/2+z
1/2+y,1/2-x,1/2+z
1/2+x,1/2-y,1/2-z
1/2-x,1/2+y,1/2-z
1/2+y,1/2+x,1/2-z
1/2-y,1/2-x,1/2-z
1/2-x,1/2-y,1/2-z
1/2+y,1/2-x,1/2-z
1/2+x,1/2+y,1/2-z
1/2-y,1/2+x,1/2-z
1/2-x,1/2+y,1/2+z
1/2+x,1/2-y,1/2+z
1/2-y,1/2-x,1/2+z
1/2+y,1/2+x,1/2+z
loop_
_atom_site_type_symbol
_atom_site_label
_atom_site_fract_x
_atom_site_fract_y
_atom_site_fract_z
Si Si1 0.338114 0.338114 0.000000
Si Si2 0.906955 0.093046 0.327399
Si Si3 0.337403 0.093353 0.162187
Si Si4 0.693270 0.306731 0.304496
Si Si5 0.090346 0.331962 0.500000
O O1 0.376610 0.376610 0.082537
O O2 0.356641 0.246034 0.000000
O O3 0.859287 0.140714 0.257413
O O4 0.000000 0.107375 0.320013
O O5 0.374007 0.125994 0.250000
O O6 0.253351 0.135928 0.147994
O O7 0.391324 0.118424 0.083760
O O8 0.328922 0.000000 0.167668
O O9 0.750000 0.250000 0.250000
O O10 0.000000 0.306216 0.500000
#
# Coordination Sequence:
#
# PCOD9571829 Si02
#       5
#     8  16  32  16  16
#     4  12  22  37  58  84 122 161 198 240 298 362
#     4  11  22  36  58  89 122 155 195 245 298 353
#     4  11  23  40  62  87 119 159 201 249 303 358
#     4  10  21  38  59  82 112 152 197 239 288 350
#     4  12  25  40  61  89 121 157 200 249 298 357
#
# _framework density 19.204205000000002
#
# number of rings (size 3 to 8) (size 9 to 14) (size 15 to 20)
#    0.000    0.909    0.000    9.818    0.000    4.000 
#    0.000    0.000    0.000    0.000    0.000    0.000 
#    0.000   10.182    0.000    0.000    0.000    0.000 
#
# Total GULP energy -246062.147830 kJ/mol
# GULP energy per Si atom -5592.321542 kJ/mol
# Density = 1.916050 g / cm^3
# Si number density = 19.204205 Si / 1000 Ang^3
#
#
#
# Elastic Constant Matrix: (Units=GPa)
#
#
# Indices 1 2 3 4 5 6 
#
# 1 98.7863 67.6711 21.1129 0.0000 0.0000 0.0000
# 2 67.6711 98.7836 21.1128 0.0000 0.0000 0.0000
# 3 21.1129 21.1128 92.6608 0.0000 0.0000 0.0000
# 4 0.0000 0.0000 0.0000 26.1309 0.0000 0.0000
# 5 0.0000 0.0000 0.0000 0.0000 26.1309 0.0000
# 6 0.0000 0.0000 0.0000 0.0000 0.0000 35.8960
#
#
#
# Elastic Compliance Matrix: (Units=1/GPa)
#
#
# Indices 1 2 3 4 5 6 
#
# 1 0.019258 -0.012882 -0.001453 0.000000 0.000000 0.000000
# 2 -0.012882 0.019258 -0.001453 0.000000 0.000000 0.000000
# 3 -0.001453 -0.001453 0.011454 0.000000 0.000000 0.000000
# 4 0.000000 0.000000 0.000000 0.038269 0.000000 0.000000
# 5 0.000000 0.000000 0.000000 0.000000 0.038269 0.000000
# 6 0.000000 0.000000 0.000000 0.000000 0.000000 0.027858
#
#
# Mechanical properties :
#
#
# Convention : Reuss Voigt Hill
#
# Bulk Modulus (GPa) = 54.36221 56.66937 55.51579
# Shear Modulus (GPa) = 26.03174 29.65381 27.84278
#
# Velocity S-wave (km/s) = 3.68574 3.93381 3.81179
# Velocity P-wave (km/s) = 6.81775 7.08562 6.95298
#
# Compressibility (1/GPa) = 0.01839513
#
# Stress axis : x y z
#
# Youngs Moduli (GPa) = 51.92695 51.92551 87.30496
#
# Poissons Ratio (x) = 0.66890 0.12683
# Poissons Ratio (y) = 0.66892 0.12684
# Poissons Ratio (z) = 0.07544 0.07544
#
# Static dielectric constant tensor:
#      x y z
#    x 1.664680 0.000000 0.000000 
#    y 0.000000 1.664680 0.000000 
#    z 0.000000 0.000000 1.649460 
# 
# From -- ./inp_files/4900.got.cif
#   From: 2010.05.17/outbox.cif.g08.bks.cpg/sg139_3_cif.got.tgz:4900.got - 2010.05.20 13:14:44.
