data_PCOD9571276
_publ_section_title
;
Structure prediction by ZEFSAII (Michael W. Deem and Ramdas Pophale) SiO2 
 PCOD9571276
Probable space group: I 4/M M M
;
_chemical_formula_sum "Si O2"
_cell_formula_units_Z 160
_cell_length_a 22.444149
_cell_length_b 22.444149
_cell_length_c 17.925529
_cell_angle_alpha 90.000000
_cell_angle_beta 90.000000
_cell_angle_gamma 90.000000
_cell_volume 9029.802830
_symmetry_space_group_name_H-M "I 4/M M M"
_symmetry_group_IT_number 139
_symmetry_cell_setting 'tetragonal'
loop_
_space_group_symop_operation_xyz
x,y,z
-y,x,z
-x,-y,z
y,-x,z
x,-y,-z
-x,y,-z
y,x,-z
-y,-x,-z
-x,-y,-z
y,-x,-z
x,y,-z
-y,x,-z
-x,y,z
x,-y,z
-y,-x,z
y,x,z
1/2+x,1/2+y,1/2+z
1/2-y,1/2+x,1/2+z
1/2-x,1/2-y,1/2+z
1/2+y,1/2-x,1/2+z
1/2+x,1/2-y,1/2-z
1/2-x,1/2+y,1/2-z
1/2+y,1/2+x,1/2-z
1/2-y,1/2-x,1/2-z
1/2-x,1/2-y,1/2-z
1/2+y,1/2-x,1/2-z
1/2+x,1/2+y,1/2-z
1/2-y,1/2+x,1/2-z
1/2-x,1/2+y,1/2+z
1/2+x,1/2-y,1/2+z
1/2-y,1/2-x,1/2+z
1/2+y,1/2+x,1/2+z
loop_
_atom_site_type_symbol
_atom_site_label
_atom_site_fract_x
_atom_site_fract_y
_atom_site_fract_z
Si Si1 0.150883 0.612763 0.090198
Si Si2 0.932318 0.500000 0.090211
Si Si3 0.253461 0.349605 0.411329
Si Si4 0.928990 0.833827 0.194003
Si Si5 0.340525 0.429652 0.000000
Si Si6 0.071710 0.225884 0.351653
O O1 0.101842 0.561893 0.109266
O O2 0.141140 0.683141 0.104372
O O3 0.208337 0.596144 0.138246
O O4 0.162245 0.606555 0.000000
O O5 0.000000 0.500000 0.118854
O O6 0.934618 0.500000 0.000000
O O7 0.260350 0.357476 0.500000
O O8 0.285125 0.285125 0.393420
O O9 0.291442 0.398270 0.366831
O O10 0.898066 0.898066 0.188062
O O11 0.913105 0.806400 0.274970
O O12 0.000000 0.835963 0.186578
O O13 0.309147 0.407416 0.925135
O O14 0.336594 0.500000 0.000000
O O15 0.407595 0.407595 0.000000
O O16 0.000000 0.229044 0.354693
#
# Coordination Sequence:
#
# PCOD9571276 Si02
#       6
#    32  16  32  32  16  32
#     4  10  18  32  56  80 113 150 187 232 277 327
#     4   9  18  30  50  82 114 146 193 239 275 328
#     4   9  20  37  56  83 112 141 179 229 290 347
#     4  10  22  39  58  82 111 143 183 231 281 339
#     4  10  20  31  48  74 106 144 186 232 275 329
#     4  10  19  33  53  79 109 146 187 229 272 321
#
# _framework density 17.719101999999999
#
# number of rings (size 3 to 8) (size 9 to 14) (size 15 to 20)
#    0.000    2.300    2.000    0.600    0.000    3.900 
#    0.000    4.000    0.000    3.600    0.000    2.800 
#    0.000    0.000    0.000    0.000    0.000    0.000 
#
# Total GULP energy -445531.916617 kJ/mol
# GULP energy per Si atom -5569.148958 kJ/mol
# Density = 1.767877 g / cm^3
# Si number density = 17.719102 Si / 1000 Ang^3
#
#
#
# Elastic Constant Matrix: (Units=GPa)
#
#
# Indices 1 2 3 4 5 6 
#
# 1 -383.9958 577.4726 37.4888 0.0000 0.0000 0.0000
# 2 577.4726 -383.9958 37.4888 0.0000 0.0000 0.0000
# 3 37.4888 37.4888 35.1039 0.0000 0.0000 0.0000
# 4 0.0000 0.0000 0.0000 17.0652 0.0000 0.0000
# 5 0.0000 0.0000 0.0000 0.0000 17.0652 0.0000
# 6 0.0000 0.0000 0.0000 0.0000 0.0000 15.9534
#
#
#
# Elastic Compliance Matrix: (Units=1/GPa)
#
#
# Indices 1 2 3 4 5 6 
#
# 1 0.003889 0.004929 -0.009417 0.000000 0.000000 0.000000
# 2 0.004929 0.003889 -0.009417 0.000000 0.000000 0.000000
# 3 -0.009417 -0.009417 0.048600 0.000000 0.000000 0.000000
# 4 0.000000 0.000000 0.000000 0.058599 0.000000 0.000000
# 5 0.000000 0.000000 0.000000 0.000000 0.058599 0.000000
# 6 0.000000 0.000000 0.000000 0.000000 0.000000 0.062683
#
#
# Mechanical properties :
#
#
# Convention : Reuss Voigt Hill
#
# Bulk Modulus (GPa) = 35.00389 63.55699 49.28044
# Shear Modulus (GPa) = 18.27543 -82.33911 -32.03184
#
# Velocity S-wave (km/s) = 3.21502 -6.82422 -4.25639
# Velocity P-wave (km/s) = 5.79479 5.11334 1.92786
#
# Compressibility (1/GPa) = 0.02856825
#
# Stress axis : x y z
#
# Youngs Moduli (GPa) = 257.14082 257.14082 20.57598
#
# Poissons Ratio (x) = -1.26745 0.19376
# Poissons Ratio (y) = -1.26745 0.19376
# Poissons Ratio (z) = 2.42149 2.42149
#
# Static dielectric constant tensor:
#      x y z
#    x 1.607210 0.000000 0.000000 
#    y 0.000000 1.607210 0.000000 
#    z 0.000000 0.000000 1.601470 
# 
# From -- ./inp_files/8470.got.cif
#   From: 2010.05.17/outbox.cif.g08.bks.cpg/sg139_5_cif.got.tgz:8470.got - 2010.05.20 13:14:44.
