data_PCOD9571185
_publ_section_title
;
Structure prediction by ZEFSAII (Michael W. Deem and Ramdas Pophale) SiO2 
 PCOD9571185
Probable space group: I 4/M M M
;
_chemical_formula_sum "Si O2"
_cell_formula_units_Z 224
_cell_length_a 23.146669
_cell_length_b 23.146669
_cell_length_c 20.244180
_cell_angle_alpha 90.000000
_cell_angle_beta 90.000000
_cell_angle_gamma 90.000000
_cell_volume 10846.189616
_symmetry_space_group_name_H-M "I 4/M M M"
_symmetry_group_IT_number 139
_symmetry_cell_setting 'tetragonal'
loop_
_space_group_symop_operation_xyz
x,y,z
-y,x,z
-x,-y,z
y,-x,z
x,-y,-z
-x,y,-z
y,x,-z
-y,-x,-z
-x,-y,-z
y,-x,-z
x,y,-z
-y,x,-z
-x,y,z
x,-y,z
-y,-x,z
y,x,z
1/2+x,1/2+y,1/2+z
1/2-y,1/2+x,1/2+z
1/2-x,1/2-y,1/2+z
1/2+y,1/2-x,1/2+z
1/2+x,1/2-y,1/2-z
1/2-x,1/2+y,1/2-z
1/2+y,1/2+x,1/2-z
1/2-y,1/2-x,1/2-z
1/2-x,1/2-y,1/2-z
1/2+y,1/2-x,1/2-z
1/2+x,1/2+y,1/2-z
1/2-y,1/2+x,1/2-z
1/2-x,1/2+y,1/2+z
1/2+x,1/2-y,1/2+z
1/2-y,1/2-x,1/2+z
1/2+y,1/2+x,1/2+z
loop_
_atom_site_type_symbol
_atom_site_label
_atom_site_fract_x
_atom_site_fract_y
_atom_site_fract_z
Si Si1 0.344190 0.562388 0.786552
Si Si2 0.435212 0.894300 0.320155
Si Si3 0.804621 0.897626 0.426866
Si Si4 0.122712 0.321137 0.382566
Si Si5 0.157741 0.064914 0.921009
Si Si6 0.773883 0.393311 0.263294
Si Si7 0.842145 0.750259 0.107650
O O1 0.369784 0.500000 0.772908
O O2 0.385768 0.614233 0.766377
O O3 0.331843 0.569344 0.864974
O O4 0.282028 0.568753 0.752292
O O5 0.500000 0.903521 0.344871
O O6 0.426415 0.926415 0.250000
O O7 0.382533 0.908997 0.370171
O O8 0.425542 0.826569 0.300358
O O9 0.820532 0.918483 0.500000
O O10 0.832389 0.832389 0.421208
O O11 0.735299 0.901047 0.419090
O O12 0.128219 0.298045 0.306726
O O13 0.184671 0.335317 0.414068
O O14 0.106729 0.106729 0.895199
O O15 0.217753 0.098425 0.910120
O O16 0.156940 0.000000 0.894067
O O17 0.150041 0.061283 0.000000
O O18 0.753064 0.343874 0.312795
O O19 0.790639 0.790639 0.083640
#
# Coordination Sequence:
#
# PCOD9571185 Si02
#       7
#    32  32  32  32  32  32  32
#     4  10  20  33  50  72  98 127 159 198 242 287
#     4   9  17  29  46  69  97 127 158 193 232 276
#     4   9  18  33  52  72  94 123 161 201 239 283
#     4   9  18  30  47  71  96 124 156 192 232 279
#     4   9  19  34  48  64  88 121 166 213 250 287
#     4   9  18  32  48  69  96 126 162 195 226 274
#     4  10  18  27  44  69  95 121 148 187 241 290
#
# _framework density 20.652415000000001
#
# number of rings (size 3 to 8) (size 9 to 14) (size 15 to 20)
#    0.000    2.714    0.000    2.571    0.000    6.429 
#    0.000    2.143    0.000    0.429    0.000    4.000 
#    0.000    0.000    0.000   10.429    0.000    0.000 
#
# Total GULP energy -624108.394558 kJ/mol
# GULP energy per Si atom -5572.396380 kJ/mol
# Density = 2.060541 g / cm^3
# Si number density = 20.652415 Si / 1000 Ang^3
#
#
#
# Elastic Constant Matrix: (Units=GPa)
#
#
# Indices 1 2 3 4 5 6 
#
# 1 72.5234 20.7003 -9.7003 0.0000 0.0000 0.0000
# 2 20.7003 72.5234 -9.7003 0.0000 0.0000 0.0000
# 3 -9.7003 -9.7003 51.5170 0.0000 0.0000 0.0000
# 4 0.0000 0.0000 0.0000 10.4697 0.0000 0.0000
# 5 0.0000 0.0000 0.0000 0.0000 10.4697 0.0000
# 6 0.0000 0.0000 0.0000 0.0000 0.0000 3.8629
#
#
#
# Elastic Compliance Matrix: (Units=1/GPa)
#
#
# Indices 1 2 3 4 5 6 
#
# 1 0.015230 -0.004066 0.002102 0.000000 0.000000 0.000000
# 2 -0.004066 0.015230 0.002102 0.000000 0.000000 0.000000
# 3 0.002102 0.002102 0.020203 0.000000 0.000000 0.000000
# 4 0.000000 0.000000 0.000000 0.095514 0.000000 0.000000
# 5 0.000000 0.000000 0.000000 0.000000 0.095514 0.000000
# 6 0.000000 0.000000 0.000000 0.000000 0.000000 0.258871
#
#
# Mechanical properties :
#
#
# Convention : Reuss Voigt Hill
#
# Bulk Modulus (GPa) = 19.63087 22.12923 20.88005
# Shear Modulus (GPa) = 9.66621 17.97808 13.82215
#
# Velocity S-wave (km/s) = 2.16578 2.95364 2.58984
# Velocity P-wave (km/s) = 3.97242 4.72973 4.36752
#
# Compressibility (1/GPa) = 0.05094019
#
# Stress axis : x y z
#
# Youngs Moduli (GPa) = 65.65827 65.65827 49.49828
#
# Poissons Ratio (x) = 0.26697 -0.10405
# Poissons Ratio (y) = 0.26697 -0.10405
# Poissons Ratio (z) = -0.13803 -0.13803
#
# Static dielectric constant tensor:
#      x y z
#    x 1.752440 0.000000 0.000000 
#    y 0.000000 1.752440 0.000000 
#    z 0.000000 0.000000 1.770400 
# 
# From -- ./inp_files/12200.got.cif
#   From: 2010.05.17/outbox.cif.g08.bks.cpg/sg139_7_cif.got.tgz:12200.got - 2010.05.20 13:14:44.
