data_PCOD9571012
_publ_section_title
;
Structure prediction by ZEFSAII (Michael W. Deem and Ramdas Pophale) SiO2 
 PCOD9571012
Probable space group: P 42/N C M
;
_chemical_formula_sum "Si O2"
_cell_formula_units_Z 96
_cell_length_a 15.355194
_cell_length_b 15.355194
_cell_length_c 20.969970
_cell_angle_alpha 90.000000
_cell_angle_beta 90.000000
_cell_angle_gamma 90.000000
_cell_volume 4944.341105
_symmetry_space_group_name_H-M "P 42/N C M"
_symmetry_group_IT_number 138
_space_group.IT_coordinate_system_code '2'
_symmetry_cell_setting 'tetragonal'
loop_
_space_group_symop_operation_xyz
x,y,z
1/2-y,x,1/2+z
1/2-x,1/2-y,z
y,1/2-x,1/2+z
1/2+x,-y,1/2-z
-x,1/2+y,1/2-z
1/2+y,1/2+x,-z
-y,-x,-z
-x,-y,-z
1/2+y,-x,1/2-z
1/2+x,1/2+y,-z
-y,1/2+x,1/2-z
1/2-x,y,1/2+z
x,1/2-y,1/2+z
1/2-y,1/2-x,z
y,x,z
loop_
_atom_site_type_symbol
_atom_site_label
_atom_site_fract_x
_atom_site_fract_y
_atom_site_fract_z
Si Si1 0.034174 0.602436 0.067147
Si Si2 0.952263 0.100702 0.092692
Si Si3 0.322451 0.322451 0.174766
Si Si4 0.591414 0.054209 0.798972
Si Si5 0.509669 0.202281 0.466172
Si Si6 0.516583 0.208349 0.718200
Si Si7 0.821810 0.821810 0.979356
O O1 0.090992 0.563026 0.124423
O O2 0.038357 0.705649 0.061078
O O3 0.937419 0.562582 0.077816
O O4 0.066943 0.566943 0.000000
O O5 0.872220 0.034970 0.083925
O O6 0.947311 0.158681 0.155412
O O7 0.950613 0.166969 0.032990
O O8 0.038405 0.038405 0.090434
O O9 0.250000 0.250000 0.185292
O O10 0.294326 0.413193 0.206082
O O11 0.332229 0.332229 0.097605
O O12 0.547447 0.143417 0.773826
O O13 0.690911 0.044294 0.775880
O O14 0.527327 0.972674 0.781536
O O15 0.409527 0.207002 0.486018
O O16 0.750000 0.750000 0.988058
#
# Coordination Sequence:
#
# PCOD9571012 Si02
#       7
#    16  16   8  16  16  16   8
#     4  10  23  42  63  89 127 170 214 272 330 402
#     4  11  20  37  63  93 133 173 210 273 331 399
#     4  11  22  39  73 103 134 176 233 285 332 415
#     4  11  26  46  70  96 135 177 222 285 343 402
#     4  11  19  36  59  92 130 169 212 257 338 395
#     4  12  23  45  68  98 132 173 233 276 342 402
#     4  11  20  32  62 104 132 167 216 276 333 401
#
# _framework density 19.416136000000002
#
# number of rings (size 3 to 8) (size 9 to 14) (size 15 to 20)
#    0.000    1.000    5.000    2.500    2.333    0.333 
#    0.000    5.000    1.833    0.000    0.000    0.000 
#    0.000    0.000    0.000    0.000    0.000    0.000 
#
# Total GULP energy -535648.020434 kJ/mol
# GULP energy per Si atom -5579.666880 kJ/mol
# Density = 1.937194 g / cm^3
# Si number density = 19.416136 Si / 1000 Ang^3
#
#
#
# Elastic Constant Matrix: (Units=GPa)
#
#
# Indices 1 2 3 4 5 6 
#
# 1 133.0766 34.4514 16.5430 0.0000 0.0000 0.0000
# 2 34.4514 133.0766 16.5430 0.0000 0.0000 0.0000
# 3 16.5430 16.5430 48.9490 0.0000 0.0000 0.0000
# 4 0.0000 0.0000 0.0000 25.2885 0.0000 0.0000
# 5 0.0000 0.0000 0.0000 0.0000 25.2885 0.0000
# 6 0.0000 0.0000 0.0000 0.0000 0.0000 32.8960
#
#
#
# Elastic Compliance Matrix: (Units=1/GPa)
#
#
# Indices 1 2 3 4 5 6 
#
# 1 0.008268 -0.001872 -0.002162 0.000000 0.000000 0.000000
# 2 -0.001872 0.008268 -0.002162 0.000000 0.000000 0.000000
# 3 -0.002162 -0.002162 0.021891 0.000000 0.000000 0.000000
# 4 0.000000 0.000000 0.000000 0.039544 0.000000 0.000000
# 5 0.000000 0.000000 0.000000 0.000000 0.039544 0.000000
# 6 0.000000 0.000000 0.000000 0.000000 0.000000 0.030399
#
#
# Mechanical properties :
#
#
# Convention : Reuss Voigt Hill
#
# Bulk Modulus (GPa) = 38.40822 50.01970 44.21396
# Shear Modulus (GPa) = 29.58919 33.19894 31.39407
#
# Velocity S-wave (km/s) = 3.90801 4.13954 4.02544
# Velocity P-wave (km/s) = 6.33940 6.97607 6.66534
#
# Compressibility (1/GPa) = 0.02603609
#
# Stress axis : x y z
#
# Youngs Moduli (GPa) = 120.95220 120.95220 45.68183
#
# Poissons Ratio (x) = 0.22638 0.09875
# Poissons Ratio (y) = 0.22638 0.09875
# Poissons Ratio (z) = 0.26146 0.26146
#
# Static dielectric constant tensor:
#      x y z
#    x 1.656850 0.000000 0.000000 
#    y 0.000000 1.656850 0.000000 
#    z 0.000000 0.000000 1.713600 
# 
# From -- ./inp_files/6301.got.cif
#   From: 2010.05.17/outbox.cif.g08.bks.cpg/sg138_4_cif.got.tgz:6301.got - 2010.05.20 13:08:53.
