data_PCOD9571659
_publ_section_title
;
Structure prediction by ZEFSAII (Michael W. Deem and Ramdas Pophale) SiO2 
 PCOD9571659
Probable space group: I 4/M M M
;
_chemical_formula_sum "Si O2"
_cell_formula_units_Z 160
_cell_length_a 22.060465
_cell_length_b 22.060465
_cell_length_c 17.525731
_cell_angle_alpha 90.000000
_cell_angle_beta 90.000000
_cell_angle_gamma 90.000000
_cell_volume 8529.144385
_symmetry_space_group_name_H-M "I 4/M M M"
_symmetry_group_IT_number 139
_symmetry_cell_setting 'tetragonal'
loop_
_space_group_symop_operation_xyz
x,y,z
-y,x,z
-x,-y,z
y,-x,z
x,-y,-z
-x,y,-z
y,x,-z
-y,-x,-z
-x,-y,-z
y,-x,-z
x,y,-z
-y,x,-z
-x,y,z
x,-y,z
-y,-x,z
y,x,z
1/2+x,1/2+y,1/2+z
1/2-y,1/2+x,1/2+z
1/2-x,1/2-y,1/2+z
1/2+y,1/2-x,1/2+z
1/2+x,1/2-y,1/2-z
1/2-x,1/2+y,1/2-z
1/2+y,1/2+x,1/2-z
1/2-y,1/2-x,1/2-z
1/2-x,1/2-y,1/2-z
1/2+y,1/2-x,1/2-z
1/2+x,1/2+y,1/2-z
1/2-y,1/2+x,1/2-z
1/2-x,1/2+y,1/2+z
1/2+x,1/2-y,1/2+z
1/2-y,1/2-x,1/2+z
1/2+y,1/2+x,1/2+z
loop_
_atom_site_type_symbol
_atom_site_label
_atom_site_fract_x
_atom_site_fract_y
_atom_site_fract_z
Si Si1 0.163401 0.931122 0.592469
Si Si2 0.136635 0.288233 0.409089
Si Si3 0.663925 0.568509 0.591513
Si Si4 0.160028 0.429320 0.219519
Si Si5 0.752239 0.343758 0.681086
O O1 0.159942 0.934610 0.500000
O O2 0.103096 0.896904 0.620053
O O3 0.220993 0.888521 0.608193
O O4 0.170790 0.000000 0.621093
O O5 0.140959 0.294692 0.500000
O O6 0.087367 0.332112 0.369345
O O7 0.199897 0.305827 0.369539
O O8 0.670766 0.568627 0.500000
O O9 0.668344 0.500000 0.619451
O O10 0.599545 0.599545 0.609205
O O11 0.714444 0.611242 0.627693
O O12 0.168986 0.500000 0.233901
O O13 0.096282 0.403719 0.250000
O O14 0.209952 0.386617 0.261861
O O15 0.703691 0.296310 0.715824
#
# Coordination Sequence:
#
# PCOD9571659 Si02
#       5
#    32  32  32  32  32
#     4   9  17  28  43  65  94 129 167 206 249 298
#     4  10  20  34  54  80 108 135 169 217 271 323
#     4   9  17  29  47  72 102 137 174 211 254 306
#     4  10  22  38  57  80 106 140 180 221 268 320
#     4  10  20  34  53  78 108 139 174 218 269 324
#
# _framework density 18.759208999999998
#
# number of rings (size 3 to 8) (size 9 to 14) (size 15 to 20)
#    0.000    2.400    0.000    2.400    0.000    8.200 
#    0.000    2.000    0.000    5.400    0.000    5.600 
#    0.000    4.800    0.000    0.200    0.000    0.000 
#
# Total GULP energy -446151.222145 kJ/mol
# GULP energy per Si atom -5576.890277 kJ/mol
# Density = 1.871651 g / cm^3
# Si number density = 18.759209 Si / 1000 Ang^3
#
#
#
# Elastic Constant Matrix: (Units=GPa)
#
#
# Indices 1 2 3 4 5 6 
#
# 1 99.8561 107.5580 33.9329 0.0000 0.0000 0.0000
# 2 107.5580 99.8458 33.9328 0.0000 0.0000 0.0000
# 3 33.9329 33.9328 47.1324 0.0000 0.0000 0.0000
# 4 0.0000 0.0000 0.0000 15.8349 0.0000 0.0000
# 5 0.0000 0.0000 0.0000 0.0000 15.8355 0.0000
# 6 0.0000 0.0000 0.0000 0.0000 0.0000 16.3587
#
#
#
# Elastic Compliance Matrix: (Units=1/GPa)
#
#
# Indices 1 2 3 4 5 6 
#
# 1 -0.061718 0.068029 -0.004544 0.000000 0.000000 0.000000
# 2 0.068029 -0.061726 -0.004538 0.000000 0.000000 0.000000
# 3 -0.004544 -0.004538 0.027755 0.000000 0.000000 0.000000
# 4 0.000000 0.000000 0.000000 0.063152 0.000000 0.000000
# 5 0.000000 0.000000 0.000000 0.000000 0.063149 0.000000
# 6 0.000000 0.000000 0.000000 0.000000 0.000000 0.061130
#
#
# Mechanical properties :
#
#
# Convention : Reuss Voigt Hill
#
# Bulk Modulus (GPa) = 45.03251 66.40907 55.72079
# Shear Modulus (GPa) = -266.63586 14.36653 -126.13467
#
# Velocity S-wave (km/s) = -11.93501 2.77038 -8.20882
# Velocity P-wave (km/s) = 12.87899 6.76099 7.75105
#
# Compressibility (1/GPa) = 0.02220618
#
# Stress axis : x y z
#
# Youngs Moduli (GPa) = -16.20272 -16.20052 36.02930
#
# Poissons Ratio (x) = 1.10211 0.16371
# Poissons Ratio (y) = 1.10226 0.16350
# Poissons Ratio (z) = -0.07362 -0.07352
#
# Static dielectric constant tensor:
#      x y z
#    x 1.651300 0.000000 0.000000 
#    y 0.000000 1.651300 0.000000 
#    z 0.000000 0.000000 1.670320 
# 
# From -- ./inp_files/8376.got.cif
#   From: 2010.05.17/outbox.cif.g08.bks.cpg/sg139_5_cif.got.tgz:8376.got - 2010.05.20 13:14:44.
