data_PCOD9571502
_publ_section_title
;
Structure prediction by ZEFSAII (Michael W. Deem and Ramdas Pophale) SiO2 
 PCOD9571502
Probable space group: I 4/M M M
;
_chemical_formula_sum "Si O2"
_cell_formula_units_Z 160
_cell_length_a 20.735842
_cell_length_b 20.735842
_cell_length_c 19.906761
_cell_angle_alpha 90.000000
_cell_angle_beta 90.000000
_cell_angle_gamma 90.000000
_cell_volume 8559.412417
_symmetry_space_group_name_H-M "I 4/M M M"
_symmetry_group_IT_number 139
_symmetry_cell_setting 'tetragonal'
loop_
_space_group_symop_operation_xyz
x,y,z
-y,x,z
-x,-y,z
y,-x,z
x,-y,-z
-x,y,-z
y,x,-z
-y,-x,-z
-x,-y,-z
y,-x,-z
x,y,-z
-y,x,-z
-x,y,z
x,-y,z
-y,-x,z
y,x,z
1/2+x,1/2+y,1/2+z
1/2-y,1/2+x,1/2+z
1/2-x,1/2-y,1/2+z
1/2+y,1/2-x,1/2+z
1/2+x,1/2-y,1/2-z
1/2-x,1/2+y,1/2-z
1/2+y,1/2+x,1/2-z
1/2-y,1/2-x,1/2-z
1/2-x,1/2-y,1/2-z
1/2+y,1/2-x,1/2-z
1/2+x,1/2+y,1/2-z
1/2-y,1/2+x,1/2-z
1/2-x,1/2+y,1/2+z
1/2+x,1/2-y,1/2+z
1/2-y,1/2-x,1/2+z
1/2+y,1/2+x,1/2+z
loop_
_atom_site_type_symbol
_atom_site_label
_atom_site_fract_x
_atom_site_fract_y
_atom_site_fract_z
Si Si1 0.747862 0.851114 0.572192
Si Si2 0.403375 0.180736 0.577030
Si Si3 0.899041 0.428916 0.821615
Si Si4 0.575715 0.252402 0.796791
Si Si5 0.576985 0.314564 0.346294
O O1 0.759842 0.884032 0.500000
O O2 0.783563 0.783563 0.571823
O O3 0.672641 0.835618 0.576630
O O4 0.774178 0.889539 0.635631
O O5 0.426062 0.173990 0.500000
O O6 0.426563 0.126710 0.630270
O O7 0.415246 0.253080 0.603896
O O8 0.900142 0.500000 0.854642
O O9 0.932292 0.432292 0.750000
O O10 0.824882 0.414526 0.799325
O O11 0.500000 0.263901 0.802576
O O12 0.595767 0.285510 0.727228
O O13 0.500000 0.331976 0.345824
O O14 0.625550 0.374451 0.361147
#
# Coordination Sequence:
#
# PCOD9571502 Si02
#       5
#    32  32  32  32  32
#     4   9  17  29  48  77 111 144 180 224 273 328
#     4  10  21  37  57  83 113 147 186 230 280 333
#     4  10  19  34  56  85 120 154 189 224 260 316
#     4   9  18  32  51  77 109 146 188 229 273 328
#     4  11  23  39  60  83 109 144 188 242 299 350
#
# _framework density 18.692871
#
# number of rings (size 3 to 8) (size 9 to 14) (size 15 to 20)
#    0.000    2.200    2.000    1.200    0.000    2.800 
#    0.000    7.000    0.000    0.000    0.000    4.200 
#    0.000    0.000    0.000   18.600    0.000    0.400 
#
# Total GULP energy -445496.260728 kJ/mol
# GULP energy per Si atom -5568.703259 kJ/mol
# Density = 1.865033 g / cm^3
# Si number density = 18.692871 Si / 1000 Ang^3
#
#
#
# Elastic Constant Matrix: (Units=GPa)
#
#
# Indices 1 2 3 4 5 6 
#
# 1 91.8668 25.2575 43.2358 0.0000 0.0000 0.0000
# 2 25.2575 91.8668 43.2358 0.0000 0.0000 0.0000
# 3 43.2358 43.2358 133.4697 0.0000 0.0000 0.0000
# 4 0.0000 0.0000 0.0000 9.2994 0.0000 0.0000
# 5 0.0000 0.0000 0.0000 0.0000 9.2994 0.0000
# 6 0.0000 0.0000 0.0000 0.0000 0.0000 -1.2284
#
#
#
# Elastic Compliance Matrix: (Units=1/GPa)
#
#
# Indices 1 2 3 4 5 6 
#
# 1 0.013117 -0.001896 -0.003635 0.000000 0.000000 0.000000
# 2 -0.001896 0.013117 -0.003635 0.000000 0.000000 0.000000
# 3 -0.003635 -0.003635 0.009847 0.000000 0.000000 0.000000
# 4 0.000000 0.000000 0.000000 0.107534 0.000000 0.000000
# 5 0.000000 0.000000 0.000000 0.000000 0.107534 0.000000
# 6 0.000000 0.000000 0.000000 0.000000 0.000000 -0.814048
#
#
# Mechanical properties :
#
#
# Convention : Reuss Voigt Hill
#
# Bulk Modulus (GPa) = 56.33690 60.07349 58.20519
# Shear Modulus (GPa) = -9.28247 17.17236 3.94494
#
# Velocity S-wave (km/s) = -2.23082 3.03423 1.45430
# Velocity P-wave (km/s) = 4.85471 6.66950 5.83311
#
# Compressibility (1/GPa) = 0.01775036
#
# Stress axis : x y z
#
# Youngs Moduli (GPa) = 76.23508 76.23508 101.54923
#
# Poissons Ratio (x) = 0.14451 0.36914
# Poissons Ratio (y) = 0.14451 0.36914
# Poissons Ratio (z) = 0.27712 0.27712
#
# Static dielectric constant tensor:
#      x y z
#    x 1.666170 0.000000 0.000000 
#    y 0.000000 1.666170 0.000000 
#    z 0.000000 0.000000 1.709230 
# 
# From -- ./inp_files/8370.got.cif
#   From: 2010.05.17/outbox.cif.g08.bks.cpg/sg139_5_cif.got.tgz:8370.got - 2010.05.20 13:14:44.
