data_PCOD9571229
_publ_section_title
;
Structure prediction by ZEFSAII (Michael W. Deem and Ramdas Pophale) SiO2 
 PCOD9571229
Probable space group: I 4/M M M
;
_chemical_formula_sum "Si O2"
_cell_formula_units_Z 128
_cell_length_a 22.674516
_cell_length_b 22.674516
_cell_length_c 15.362402
_cell_angle_alpha 90.000000
_cell_angle_beta 90.000000
_cell_angle_gamma 90.000000
_cell_volume 7898.328210
_symmetry_space_group_name_H-M "I 4/M M M"
_symmetry_group_IT_number 139
_symmetry_cell_setting 'tetragonal'
loop_
_space_group_symop_operation_xyz
x,y,z
-y,x,z
-x,-y,z
y,-x,z
x,-y,-z
-x,y,-z
y,x,-z
-y,-x,-z
-x,-y,-z
y,-x,-z
x,y,-z
-y,x,-z
-x,y,z
x,-y,z
-y,-x,z
y,x,z
1/2+x,1/2+y,1/2+z
1/2-y,1/2+x,1/2+z
1/2-x,1/2-y,1/2+z
1/2+y,1/2-x,1/2+z
1/2+x,1/2-y,1/2-z
1/2-x,1/2+y,1/2-z
1/2+y,1/2+x,1/2-z
1/2-y,1/2-x,1/2-z
1/2-x,1/2-y,1/2-z
1/2+y,1/2-x,1/2-z
1/2+x,1/2+y,1/2-z
1/2-y,1/2+x,1/2-z
1/2-x,1/2+y,1/2+z
1/2+x,1/2-y,1/2+z
1/2-y,1/2-x,1/2+z
1/2+y,1/2+x,1/2+z
loop_
_atom_site_type_symbol
_atom_site_label
_atom_site_fract_x
_atom_site_fract_y
_atom_site_fract_z
Si Si1 0.259899 0.645135 0.000000
Si Si2 0.585920 0.065335 0.397383
Si Si3 0.343123 0.242821 0.500000
Si Si4 0.433611 0.777577 0.847331
Si Si5 0.199944 0.567982 0.351058
O O1 0.205161 0.690684 0.000000
O O2 0.256689 0.607371 0.087269
O O3 0.318381 0.681620 0.000000
O O4 0.571474 0.068311 0.500000
O O5 0.656082 0.064913 0.384970
O O6 0.567387 0.127981 0.356922
O O7 0.565867 0.000000 0.364992
O O8 0.304229 0.304229 0.500000
O O9 0.386075 0.229526 0.417713
O O10 0.500000 0.754111 0.849297
O O11 0.415124 0.782583 0.747086
O O12 0.218135 0.500000 0.368599
#
# Coordination Sequence:
#
# PCOD9571229 Si02
#       5
#    16  32  16  32  32
#     4  11  21  34  54  75  99 133 176 221 259 304
#     4  10  18  30  49  71 101 137 174 217 257 291
#     4  11  23  36  50  70 102 136 173 221 255 294
#     4  10  19  33  53  73 101 137 169 213 258 300
#     4  11  21  34  53  74 101 137 176 214 259 308
#
# _framework density 16.205960999999999
#
# number of rings (size 3 to 8) (size 9 to 14) (size 15 to 20)
#    0.000    1.500    5.000    1.500    0.000    1.500 
#    0.000    3.750    0.000    4.500    0.000    0.000 
#    0.000    8.000    0.000   22.000    0.000    0.000 
#
# Total GULP energy -356780.197691 kJ/mol
# GULP energy per Si atom -5574.690589 kJ/mol
# Density = 1.616908 g / cm^3
# Si number density = 16.205961 Si / 1000 Ang^3
#
#
#
# Elastic Constant Matrix: (Units=GPa)
#
#
# Indices 1 2 3 4 5 6 
#
# 1 81.4529 55.6266 69.3044 0.0000 0.0000 0.0000
# 2 55.6266 81.4531 69.3062 0.0000 0.0000 0.0000
# 3 69.3044 69.3062 142.7137 0.0000 0.0000 0.0000
# 4 0.0000 0.0000 0.0000 -5.2905 0.0000 0.0000
# 5 0.0000 0.0000 0.0000 0.0000 -5.2710 0.0000
# 6 0.0000 0.0000 0.0000 0.0000 0.0000 16.4099
#
#
#
# Elastic Compliance Matrix: (Units=1/GPa)
#
#
# Indices 1 2 3 4 5 6 
#
# 1 0.026526 -0.012193 -0.006960 0.000000 0.000000 0.000000
# 2 -0.012193 0.026527 -0.006961 0.000000 0.000000 0.000000
# 3 -0.006960 -0.006961 0.013768 0.000000 0.000000 0.000000
# 4 0.000000 0.000000 0.000000 -0.189020 0.000000 0.000000
# 5 0.000000 0.000000 0.000000 0.000000 -0.189718 0.000000
# 6 0.000000 0.000000 0.000000 0.000000 0.000000 0.060939
#
#
# Mechanical properties :
#
#
# Convention : Reuss Voigt Hill
#
# Bulk Modulus (GPa) = 68.53173 77.12156 72.82664
# Shear Modulus (GPa) = -25.78848 8.59520 -8.59664
#
# Velocity S-wave (km/s) = -3.99343 2.30548 -2.30567
# Velocity P-wave (km/s) = 4.59526 7.40126 6.16016
#
# Compressibility (1/GPa) = 0.01459178
#
# Stress axis : x y z
#
# Youngs Moduli (GPa) = 37.69844 37.69722 72.63429
#
# Poissons Ratio (x) = 0.45965 0.50555
# Poissons Ratio (y) = 0.45967 0.50562
# Poissons Ratio (z) = 0.26239 0.26242
#
# Static dielectric constant tensor:
#      x y z
#    x 1.544200 0.000000 0.000000 
#    y 0.000000 1.544200 0.000000 
#    z 0.000000 0.000000 1.575370 
# 
# From -- ./inp_files/5436.got.cif
#   From: 2010.05.17/outbox.cif.g08.bks.cpg/sg139_3_cif.got.tgz:5436.got - 2010.05.20 13:14:44.
