data_PCOD9571604
_publ_section_title
;
Structure prediction by ZEFSAII (Michael W. Deem and Ramdas Pophale) SiO2 
 PCOD9571604
Probable space group: I 4/M M M
;
_chemical_formula_sum "Si O2"
_cell_formula_units_Z 160
_cell_length_a 23.867952
_cell_length_b 23.867952
_cell_length_c 13.759088
_cell_angle_alpha 90.000000
_cell_angle_beta 90.000000
_cell_angle_gamma 90.000000
_cell_volume 7838.265318
_symmetry_space_group_name_H-M "I 4/M M M"
_symmetry_group_IT_number 139
_symmetry_cell_setting 'tetragonal'
loop_
_space_group_symop_operation_xyz
x,y,z
-y,x,z
-x,-y,z
y,-x,z
x,-y,-z
-x,y,-z
y,x,-z
-y,-x,-z
-x,-y,-z
y,-x,-z
x,y,-z
-y,x,-z
-x,y,z
x,-y,z
-y,-x,z
y,x,z
1/2+x,1/2+y,1/2+z
1/2-y,1/2+x,1/2+z
1/2-x,1/2-y,1/2+z
1/2+y,1/2-x,1/2+z
1/2+x,1/2-y,1/2-z
1/2-x,1/2+y,1/2-z
1/2+y,1/2+x,1/2-z
1/2-y,1/2-x,1/2-z
1/2-x,1/2-y,1/2-z
1/2+y,1/2-x,1/2-z
1/2+x,1/2+y,1/2-z
1/2-y,1/2+x,1/2-z
1/2-x,1/2+y,1/2+z
1/2+x,1/2-y,1/2+z
1/2-y,1/2-x,1/2+z
1/2+y,1/2+x,1/2+z
loop_
_atom_site_type_symbol
_atom_site_label
_atom_site_fract_x
_atom_site_fract_y
_atom_site_fract_z
Si Si1 0.323335 0.938089 0.381474
Si Si2 0.636299 0.277455 0.115636
Si Si3 0.932262 0.741648 0.109996
Si Si4 0.385091 0.063446 0.118870
Si Si5 0.566307 0.343652 0.748692
O O1 0.322373 0.939329 0.500000
O O2 0.282580 0.887416 0.352165
O O3 0.387027 0.926382 0.351374
O O4 0.304165 0.000000 0.347652
O O5 0.693911 0.306090 0.153470
O O6 0.587535 0.320432 0.147845
O O7 0.641046 0.274686 0.000000
O O8 0.920452 0.678734 0.145959
O O9 0.915161 0.793736 0.175792
O O10 0.000000 0.743692 0.105422
O O11 0.910393 0.747294 0.000000
O O12 0.398143 0.000000 0.149677
O O13 0.385037 0.062448 0.000000
O O14 0.500000 0.350629 0.744387
O O15 0.600150 0.399851 0.725931
#
# Coordination Sequence:
#
# PCOD9571604 Si02
#       5
#    32  32  32  32  32
#     4   9  16  26  44  71 101 133 167 203 247 297
#     4   9  18  33  51  70  95 128 166 206 243 283
#     4   8  15  30  50  69  92 125 164 200 232 277
#     4   8  14  26  45  69  98 132 167 203 244 288
#     4  10  20  33  51  74  97 124 159 199 249 304
#
# _framework density 20.412679000000001
#
# number of rings (size 3 to 8) (size 9 to 14) (size 15 to 20)
#    0.000    3.200    0.000    1.800    0.000    2.200 
#    0.000    4.000    0.000    6.000    0.000    5.600 
#    0.000    4.800    0.000    0.400    0.000    0.000 
#
# Total GULP energy -445958.874249 kJ/mol
# GULP energy per Si atom -5574.485928 kJ/mol
# Density = 2.036622 g / cm^3
# Si number density = 20.412679 Si / 1000 Ang^3
#
#
#
# Elastic Constant Matrix: (Units=GPa)
#
#
# Indices 1 2 3 4 5 6 
#
# 1 97.9386 48.8439 0.0892 0.0000 0.0000 0.0000
# 2 48.8439 97.9386 0.0892 0.0000 0.0000 0.0000
# 3 0.0892 0.0892 34.5270 0.0000 0.0000 0.0000
# 4 0.0000 0.0000 0.0000 19.0397 0.0000 0.0000
# 5 0.0000 0.0000 0.0000 0.0000 19.0397 0.0000
# 6 0.0000 0.0000 0.0000 0.0000 0.0000 35.2334
#
#
#
# Elastic Compliance Matrix: (Units=1/GPa)
#
#
# Indices 1 2 3 4 5 6 
#
# 1 0.013591 -0.006778 -0.000018 0.000000 0.000000 0.000000
# 2 -0.006778 0.013591 -0.000018 0.000000 0.000000 0.000000
# 3 -0.000018 -0.000018 0.028963 0.000000 0.000000 0.000000
# 4 0.000000 0.000000 0.000000 0.052522 0.000000 0.000000
# 5 0.000000 0.000000 0.000000 0.000000 0.052522 0.000000
# 6 0.000000 0.000000 0.000000 0.000000 0.000000 0.028382
#
#
# Mechanical properties :
#
#
# Convention : Reuss Voigt Hill
#
# Bulk Modulus (GPa) = 23.51938 36.49433 30.00685
# Shear Modulus (GPa) = 23.00232 26.75469 24.87850
#
# Velocity S-wave (km/s) = 3.36052 3.62427 3.49489
# Velocity P-wave (km/s) = 5.15795 5.95238 5.56935
#
# Compressibility (1/GPa) = 0.04251813
#
# Stress axis : x y z
#
# Youngs Moduli (GPa) = 73.57908 73.57908 34.52692
#
# Poissons Ratio (x) = 0.49872 0.00061
# Poissons Ratio (y) = 0.49872 0.00061
# Poissons Ratio (z) = 0.00130 0.00130
#
# Static dielectric constant tensor:
#      x y z
#    x 1.716610 0.000000 0.000000 
#    y 0.000000 1.716610 0.000000 
#    z 0.000000 0.000000 1.812710 
# 
# From -- ./inp_files/5927.got.cif
#   From: 2010.05.17/outbox.cif.g08.bks.cpg/sg139_3_cif.got.tgz:5927.got - 2010.05.20 13:14:44.
