data_PCOD9571055
_publ_section_title
;
Structure prediction by ZEFSAII (Michael W. Deem and Ramdas Pophale) SiO2 
 PCOD9571055
Probable space group: P 42/N C M
;
_chemical_formula_sum "Si O2"
_cell_formula_units_Z 64
_cell_length_a 15.222203
_cell_length_b 15.222203
_cell_length_c 14.264062
_cell_angle_alpha 90.000000
_cell_angle_beta 90.000000
_cell_angle_gamma 90.000000
_cell_volume 3305.203747
_symmetry_space_group_name_H-M "P 42/N C M"
_symmetry_group_IT_number 138
_space_group.IT_coordinate_system_code '2'
_symmetry_cell_setting 'tetragonal'
loop_
_space_group_symop_operation_xyz
x,y,z
1/2-y,x,1/2+z
1/2-x,1/2-y,z
y,1/2-x,1/2+z
1/2+x,-y,1/2-z
-x,1/2+y,1/2-z
1/2+y,1/2+x,-z
-y,-x,-z
-x,-y,-z
1/2+y,-x,1/2-z
1/2+x,1/2+y,-z
-y,1/2+x,1/2-z
1/2-x,y,1/2+z
x,1/2-y,1/2+z
1/2-y,1/2-x,z
y,x,z
loop_
_atom_site_type_symbol
_atom_site_label
_atom_site_fract_x
_atom_site_fract_y
_atom_site_fract_z
Si Si1 0.346046 0.487663 0.671311
Si Si2 0.832143 0.189313 0.388299
Si Si3 0.512644 0.654442 0.909996
Si Si4 0.657237 0.460413 0.124129
O O1 0.425134 0.425134 0.634269
O O2 0.348489 0.592585 0.651350
O O3 0.250784 0.465122 0.628077
O O4 0.350196 0.481953 0.783677
O O5 0.750000 0.250000 0.355878
O O6 0.820615 0.179386 0.500000
O O7 0.915713 0.248490 0.369507
O O8 0.584762 0.584762 0.878196
O O9 0.417970 0.615807 0.877492
O O10 0.506778 0.652526 0.023244
#
# Coordination Sequence:
#
# PCOD9571055 Si02
#       4
#    16  16  16  16
#     4  12  25  39  60  96 132 167 209 261 320 385
#     4  11  20  39  64  94 126 158 206 269 332 373
#     4  11  22  42  65  87 122 169 214 259 310 377
#     4  11  21  40  66  94 122 161 213 268 320 381
#
# _framework density 19.363406999999999
#
# number of rings (size 3 to 8) (size 9 to 14) (size 15 to 20)
#    0.000    0.750    5.000    6.000    0.000    1.000 
#    0.000    1.250    0.000    3.000    0.000    0.000 
#    0.000    0.000    0.000    0.000    0.000    0.000 
#
# Total GULP energy -357137.073570 kJ/mol
# GULP energy per Si atom -5580.266775 kJ/mol
# Density = 1.931934 g / cm^3
# Si number density = 19.363407 Si / 1000 Ang^3
#
#
#
# Elastic Constant Matrix: (Units=GPa)
#
#
# Indices 1 2 3 4 5 6 
#
# 1 134.9300 55.7922 28.5156 0.0000 0.0000 0.0000
# 2 55.7922 134.9293 28.5151 0.0000 0.0000 0.0000
# 3 28.5156 28.5151 100.5211 0.0000 0.0000 0.0000
# 4 0.0000 0.0000 0.0000 52.1171 0.0000 0.0000
# 5 0.0000 0.0000 0.0000 0.0000 52.1171 0.0000
# 6 0.0000 0.0000 0.0000 0.0000 0.0000 45.0319
#
#
#
# Elastic Compliance Matrix: (Units=1/GPa)
#
#
# Indices 1 2 3 4 5 6 
#
# 1 0.009183 -0.003454 -0.001625 0.000000 0.000000 0.000000
# 2 -0.003454 0.009183 -0.001625 0.000000 0.000000 0.000000
# 3 -0.001625 -0.001625 0.010870 0.000000 0.000000 0.000000
# 4 0.000000 0.000000 0.000000 0.019188 0.000000 0.000000
# 5 0.000000 0.000000 0.000000 0.000000 0.019188 0.000000
# 6 0.000000 0.000000 0.000000 0.000000 0.000000 0.022206
#
#
# Mechanical properties :
#
#
# Convention : Reuss Voigt Hill
#
# Bulk Modulus (GPa) = 63.18024 66.22514 64.70269
# Shear Modulus (GPa) = 46.08243 47.02371 46.55307
#
# Velocity S-wave (km/s) = 4.88369 4.93331 4.90856
# Velocity P-wave (km/s) = 8.03119 8.16857 8.10017
#
# Compressibility (1/GPa) = 0.01582773
#
# Stress axis : x y z
#
# Youngs Moduli (GPa) = 108.90021 108.89980 91.99425
#
# Poissons Ratio (x) = 0.37609 0.14952
# Poissons Ratio (y) = 0.37609 0.14951
# Poissons Ratio (z) = 0.17699 0.17699
#
# Static dielectric constant tensor:
#      x y z
#    x 1.686470 0.000000 0.000000 
#    y 0.000000 1.686470 0.000000 
#    z 0.000000 0.000000 1.741760 
# 
# From -- ./inp_files/3881.got.cif
#   From: 2010.05.17/outbox.cif.g08.bks.cpg/sg138_2_cif.got.tgz:3881.got - 2010.05.20 13:08:53.
