data_PCOD9571970
_publ_section_title
;
Structure prediction by ZEFSAII (Michael W. Deem and Ramdas Pophale) SiO2 
 PCOD9571970
Probable space group: I 4/M M M
;
_chemical_formula_sum "Si O2"
_cell_formula_units_Z 72
_cell_length_a 30.000000
_cell_length_b 30.000000
_cell_length_c 9.000000
_cell_angle_alpha 90.000000
_cell_angle_beta 90.000000
_cell_angle_gamma 90.000000
_cell_volume 8100.000000
_symmetry_space_group_name_H-M "I 4/M M M"
_symmetry_group_IT_number 139
_symmetry_cell_setting 'tetragonal'
loop_
_space_group_symop_operation_xyz
x,y,z
-y,x,z
-x,-y,z
y,-x,z
x,-y,-z
-x,y,-z
y,x,-z
-y,-x,-z
-x,-y,-z
y,-x,-z
x,y,-z
-y,x,-z
-x,y,z
x,-y,z
-y,-x,z
y,x,z
1/2+x,1/2+y,1/2+z
1/2-y,1/2+x,1/2+z
1/2-x,1/2-y,1/2+z
1/2+y,1/2-x,1/2+z
1/2+x,1/2-y,1/2-z
1/2-x,1/2+y,1/2-z
1/2+y,1/2+x,1/2-z
1/2-y,1/2-x,1/2-z
1/2-x,1/2-y,1/2-z
1/2+y,1/2-x,1/2-z
1/2+x,1/2+y,1/2-z
1/2-y,1/2+x,1/2-z
1/2-x,1/2+y,1/2+z
1/2+x,1/2-y,1/2+z
1/2-y,1/2-x,1/2+z
1/2+y,1/2+x,1/2+z
loop_
_atom_site_type_symbol
_atom_site_label
_atom_site_fract_x
_atom_site_fract_y
_atom_site_fract_z
Si Si1 0.552891 0.212029 0.675892
Si Si2 0.947866 0.123450 0.680774
Si Si3 0.285642 0.285642 0.819780
Si Si4 0.118614 0.446905 0.173302
Si Si5 0.889975 0.789413 0.320841
O O1 0.561010 0.212846 0.500000
O O2 0.500000 0.218668 0.700969
O O3 0.565068 0.164191 0.743292
O O4 0.580181 0.249989 0.757698
O O5 0.949081 0.124367 0.500000
O O6 0.922281 0.077720 0.724070
O O7 0.915011 0.164478 0.726062
O O8 0.000000 0.127175 0.730006
O O9 0.250000 0.250000 0.750000
O O10 0.338285 0.280071 0.778155
O O11 0.281909 0.281909 0.000000
O O12 0.112882 0.500000 0.184971
O O13 0.078358 0.421643 0.250000
O O14 0.121830 0.435175 0.000000
O O15 0.890177 0.790164 0.500000
#
# Coordination Sequence:
#
# PCOD9571970 Si02
#       5
#    32  32  16  32  32
#     4  10  21  36  55  81 111 142 182 232 279 326
#     4   9  16  27  47  76 109 145 184 226 275 331
#     4  10  22  38  56  78 107 141 183 231 280 338
#     4  10  21  37  57  81 110 145 184 226 276 333
#     4  10  19  35  56  78 107 144 186 231 279 337
#
# _framework density 8.8888890000000007
#
# number of rings (size 3 to 8) (size 9 to 14) (size 15 to 20)
#    0.000    2.222    1.111    2.000    0.000    5.778 
#    0.000    4.444    0.000    0.000    0.000    0.000 
#    0.000    0.000    0.000    4.667    0.000    4.444 
#
# Total GULP energy -401339.244556 kJ/mol
# GULP energy per Si atom -5574.156174 kJ/mol
# Density = 0.886866 g / cm^3
# Si number density = 8.888889 Si / 1000 Ang^3
#
#
#
# Elastic Constant Matrix: (Units=GPa)
#
#
# Indices 1 2 3 4 5 6 
#
# 1 74.4480 74.5932 29.1495 0.0000 0.0000 0.0000
# 2 74.5932 74.3708 29.1518 0.0000 0.0000 0.0000
# 3 29.1495 29.1518 10.2145 0.0000 0.0000 0.0000
# 4 0.0000 0.0000 0.0000 25.1693 0.0000 0.0000
# 5 0.0000 0.0000 0.0000 0.0000 25.1693 0.0000
# 6 0.0000 0.0000 0.0000 0.0000 0.0000 38.0193
#
#
#
# Elastic Compliance Matrix: (Units=1/GPa)
#
#
# Indices 1 2 3 4 5 6 
#
# 1 -2.765285 2.693593 0.203989 0.000000 0.000000 0.000000
# 2 2.693593 -2.737049 0.124622 0.000000 0.000000 0.000000
# 3 0.203989 0.124622 -0.839895 0.000000 0.000000 0.000000
# 4 0.000000 0.000000 0.000000 0.039731 0.000000 0.000000
# 5 0.000000 0.000000 0.000000 0.000000 0.039731 0.000000
# 6 0.000000 0.000000 0.000000 0.000000 0.000000 0.026302
#
#
# Mechanical properties :
#
#
# Convention : Reuss Voigt Hill
#
# Bulk Modulus (GPa) = -3.35772 47.20247 21.92237
# Shear Modulus (GPa) = -0.40387 19.41418 9.50516
#
# Velocity S-wave (km/s) = -0.47715 3.30820 2.31479
# Velocity P-wave (km/s) = 1.48202 6.41882 4.41616
#
# Compressibility (1/GPa) = -0.29782099
#
# Stress axis : x y z
#
# Youngs Moduli (GPa) = -0.36163 -0.36536 -1.19063
#
# Poissons Ratio (x) = 0.98412 0.24287
# Poissons Ratio (y) = 0.97407 0.14838
# Poissons Ratio (z) = 0.07377 0.04553
#
# Static dielectric constant tensor:
#      x y z
#    x 1.615220 0.000000 0.000000 
#    y 0.000000 1.615210 0.000000 
#    z 0.000000 0.000000 1.592990 
# 
# From -- ./inp_files/2003.got.cif
#   From: 2010.05.17/outbox.ucp.g08.bks.cvg/sg139_2_cif.got.tgz:2003.got - 2010.06.11 11:42:03.
