data_PCOD9571895
_publ_section_title
;
Structure prediction by ZEFSAII (Michael W. Deem and Ramdas Pophale) SiO2 
 PCOD9571895
Probable space group: I 4/M M M
;
_chemical_formula_sum "Si O2"
_cell_formula_units_Z 184
_cell_length_a 26.907113
_cell_length_b 26.907113
_cell_length_c 15.061601
_cell_angle_alpha 90.000000
_cell_angle_beta 90.000000
_cell_angle_gamma 90.000000
_cell_volume 10904.489626
_symmetry_space_group_name_H-M "I 4/M M M"
_symmetry_group_IT_number 139
_symmetry_cell_setting 'tetragonal'
loop_
_space_group_symop_operation_xyz
x,y,z
-y,x,z
-x,-y,z
y,-x,z
x,-y,-z
-x,y,-z
y,x,-z
-y,-x,-z
-x,-y,-z
y,-x,-z
x,y,-z
-y,x,-z
-x,y,z
x,-y,z
-y,-x,z
y,x,z
1/2+x,1/2+y,1/2+z
1/2-y,1/2+x,1/2+z
1/2-x,1/2-y,1/2+z
1/2+y,1/2-x,1/2+z
1/2+x,1/2-y,1/2-z
1/2-x,1/2+y,1/2-z
1/2+y,1/2+x,1/2-z
1/2-y,1/2-x,1/2-z
1/2-x,1/2-y,1/2-z
1/2+y,1/2-x,1/2-z
1/2+x,1/2+y,1/2-z
1/2-y,1/2+x,1/2-z
1/2-x,1/2+y,1/2+z
1/2+x,1/2-y,1/2+z
1/2-y,1/2-x,1/2+z
1/2+y,1/2+x,1/2+z
loop_
_atom_site_type_symbol
_atom_site_label
_atom_site_fract_x
_atom_site_fract_y
_atom_site_fract_z
Si Si1 0.769673 0.309911 0.892289
Si Si2 0.500000 0.237313 0.000000
Si Si3 0.556963 0.784011 0.654251
Si Si4 0.100242 0.613651 0.852415
Si Si5 0.000000 0.557509 0.106708
Si Si6 0.271952 0.649376 0.392813
Si Si7 0.204548 0.579336 0.858033
O O1 0.719761 0.280240 0.868160
O O2 0.815426 0.274353 0.864228
O O3 0.774115 0.364833 0.854650
O O4 0.771510 0.313443 0.000000
O O5 0.543504 0.233714 0.076957
O O6 0.500000 0.779426 0.623433
O O7 0.584831 0.832146 0.612483
O O8 0.593398 0.737867 0.637614
O O9 0.556960 0.794864 0.759455
O O10 0.117106 0.617106 0.750000
O O11 0.049914 0.582503 0.857933
O O12 0.147835 0.586577 0.893933
O O13 0.000000 0.500000 0.130242
O O14 0.000000 0.562523 0.000000
O O15 0.271803 0.649643 0.500000
O O16 0.321904 0.678097 0.363757
#
# Coordination Sequence:
#
# PCOD9571895 Si02
#       7
#    32   8  32  32  16  32  32
#     4   9  17  31  52  76 100 128 168 215 264 314
#     4  12  24  34  54  67  98 144 180 219 256 306
#     4  11  21  36  51  77 102 131 172 214 263 321
#     4  10  23  36  49  64  93 127 164 217 266 310
#     4  11  26  35  46  65  82 112 172 224 261 303
#     4   9  19  35  55  79 105 133 163 208 268 328
#     4  11  22  35  51  72  97 136 177 217 266 308
#
# _framework density 16.873783
#
# number of rings (size 3 to 8) (size 9 to 14) (size 15 to 20)
#    0.000    1.826    4.348    1.043    3.652    1.739 
#    0.000    1.739    0.000    0.000    0.000    0.000 
#    0.000    0.348    0.000    1.913    0.000    4.522 
#
# Total GULP energy -512408.399712 kJ/mol
# GULP energy per Si atom -5569.656519 kJ/mol
# Density = 1.683538 g / cm^3
# Si number density = 16.873783 Si / 1000 Ang^3
#
#
#
# Elastic Constant Matrix: (Units=GPa)
#
#
# Indices 1 2 3 4 5 6 
#
# 1 86.4433 50.6891 -2.2360 0.0000 0.0000 0.0000
# 2 50.6891 86.4433 -2.2360 0.0000 0.0000 0.0000
# 3 -2.2360 -2.2360 31.1512 0.0000 0.0000 0.0000
# 4 0.0000 0.0000 0.0000 21.0541 0.0000 0.0000
# 5 0.0000 0.0000 0.0000 0.0000 21.0541 0.0000
# 6 0.0000 0.0000 0.0000 0.0000 0.0000 6.7085
#
#
#
# Elastic Compliance Matrix: (Units=1/GPa)
#
#
# Indices 1 2 3 4 5 6 
#
# 1 0.017639 -0.010330 0.000525 0.000000 0.000000 0.000000
# 2 -0.010330 0.017639 0.000525 0.000000 0.000000 0.000000
# 3 0.000525 0.000525 0.032177 0.000000 0.000000 0.000000
# 4 0.000000 0.000000 0.000000 0.047497 0.000000 0.000000
# 5 0.000000 0.000000 0.000000 0.000000 0.047497 0.000000
# 6 0.000000 0.000000 0.000000 0.000000 0.000000 0.149064
#
#
# Mechanical properties :
#
#
# Convention : Reuss Voigt Hill
#
# Bulk Modulus (GPa) = 20.45235 32.94130 26.69683
# Shear Modulus (GPa) = 14.43538 20.28474 17.36006
#
# Velocity S-wave (km/s) = 2.92805 3.47096 3.21100
# Velocity P-wave (km/s) = 4.85576 5.96892 5.44088
#
# Compressibility (1/GPa) = 0.04889413
#
# Stress axis : x y z
#
# Youngs Moduli (GPa) = 56.69239 56.69239 31.07830
#
# Poissons Ratio (x) = 0.58562 -0.01631
# Poissons Ratio (y) = 0.58562 -0.01631
# Poissons Ratio (z) = -0.02974 -0.02974
#
# Static dielectric constant tensor:
#      x y z
#    x 1.585500 0.000000 0.000000 
#    y 0.000000 1.585500 0.000000 
#    z 0.000000 0.000000 1.624660 
# 
# From -- ./inp_files/8736.got.cif
#   From: 2010.05.17/outbox.cif.g08.bks.cpg/sg139_5_cif.got.tgz:8736.got - 2010.05.20 13:14:44.
