data_PCOD9571147
_publ_section_title
;
Structure prediction by ZEFSAII (Michael W. Deem and Ramdas Pophale) SiO2 
 PCOD9571147
Probable space group: I 4/M M M
;
_chemical_formula_sum "Si O2"
_cell_formula_units_Z 176
_cell_length_a 27.089856
_cell_length_b 27.089856
_cell_length_c 17.459817
_cell_angle_alpha 90.000000
_cell_angle_beta 90.000000
_cell_angle_gamma 90.000000
_cell_volume 12813.066508
_symmetry_space_group_name_H-M "I 4/M M M"
_symmetry_group_IT_number 139
_symmetry_cell_setting 'tetragonal'
loop_
_space_group_symop_operation_xyz
x,y,z
-y,x,z
-x,-y,z
y,-x,z
x,-y,-z
-x,y,-z
y,x,-z
-y,-x,-z
-x,-y,-z
y,-x,-z
x,y,-z
-y,x,-z
-x,y,z
x,-y,z
-y,-x,z
y,x,z
1/2+x,1/2+y,1/2+z
1/2-y,1/2+x,1/2+z
1/2-x,1/2-y,1/2+z
1/2+y,1/2-x,1/2+z
1/2+x,1/2-y,1/2-z
1/2-x,1/2+y,1/2-z
1/2+y,1/2+x,1/2-z
1/2-y,1/2-x,1/2-z
1/2-x,1/2-y,1/2-z
1/2+y,1/2-x,1/2-z
1/2+x,1/2+y,1/2-z
1/2-y,1/2+x,1/2-z
1/2-x,1/2+y,1/2+z
1/2+x,1/2-y,1/2+z
1/2-y,1/2-x,1/2+z
1/2+y,1/2+x,1/2+z
loop_
_atom_site_type_symbol
_atom_site_label
_atom_site_fract_x
_atom_site_fract_y
_atom_site_fract_z
Si Si1 0.223358 0.693220 0.830309
Si Si2 0.798782 0.055288 0.152740
Si Si3 0.553408 0.635201 0.500000
Si Si4 0.122614 0.792501 0.588068
Si Si5 0.234099 0.152544 0.909729
Si Si6 0.557405 0.359669 0.190790
O O1 0.270303 0.729698 0.818833
O O2 0.194337 0.694337 0.750000
O O3 0.246508 0.642995 0.862517
O O4 0.188137 0.720239 0.891165
O O5 0.764640 0.103005 0.140534
O O6 0.833424 0.062277 0.226424
O O7 0.776271 0.000000 0.158170
O O8 0.831779 0.055907 0.075912
O O9 0.500000 0.609645 0.500000
O O10 0.597398 0.597398 0.500000
O O11 0.112518 0.778982 0.500000
O O12 0.167048 0.832953 0.586863
O O13 0.077718 0.820342 0.629123
O O14 0.184857 0.184857 0.890751
O O15 0.232607 0.141357 0.000000
O O16 0.500000 0.371566 0.178484
O O17 0.592583 0.407418 0.187977
#
# Coordination Sequence:
#
# PCOD9571147 Si02
#       6
#    32  32  16  32  32  32
#     4   9  16  25  39  60  82 102 123 152 193 239
#     4  10  19  29  40  55  77 105 135 168 211 255
#     4  10  18  27  38  50  68  96 128 166 209 249
#     4   9  17  30  45  60  81 104 127 159 203 252
#     4  10  17  24  38  57  76  99 130 164 195 235
#     4  10  20  32  46  61  77 102 137 178 222 263
#
# _framework density 13.735977999999999
#
# number of rings (size 3 to 8) (size 9 to 14) (size 15 to 20)
#    0.000    2.364    0.909    3.273    0.000    5.727 
#    0.000    0.000    0.000    3.273    0.000    2.545 
#    0.000    0.000    0.000    0.000    0.000    0.909 
#
# Total GULP energy -490114.358754 kJ/mol
# GULP energy per Si atom -5569.481349 kJ/mol
# Density = 1.370471 g / cm^3
# Si number density = 13.735978 Si / 1000 Ang^3
#
#
#
# Elastic Constant Matrix: (Units=GPa)
#
#
# Indices 1 2 3 4 5 6 
#
# 1 39.3602 30.6462 25.0754 0.0000 0.0000 0.0000
# 2 30.6462 39.3602 25.0754 0.0000 0.0000 0.0000
# 3 25.0754 25.0754 81.8178 0.0000 0.0000 0.0000
# 4 0.0000 0.0000 0.0000 9.3547 0.0000 0.0000
# 5 0.0000 0.0000 0.0000 0.0000 9.3547 0.0000
# 6 0.0000 0.0000 0.0000 0.0000 0.0000 14.6113
#
#
#
# Elastic Compliance Matrix: (Units=1/GPa)
#
#
# Indices 1 2 3 4 5 6 
#
# 1 0.066531 -0.048228 -0.005609 0.000000 0.000000 0.000000
# 2 -0.048228 0.066531 -0.005609 0.000000 0.000000 0.000000
# 3 -0.005609 -0.005609 0.015661 0.000000 0.000000 0.000000
# 4 0.000000 0.000000 0.000000 0.106899 0.000000 0.000000
# 5 0.000000 0.000000 0.000000 0.000000 0.106899 0.000000
# 6 0.000000 0.000000 0.000000 0.000000 0.000000 0.068440
#
#
# Mechanical properties :
#
#
# Convention : Reuss Voigt Hill
#
# Bulk Modulus (GPa) = 33.52486 35.79248 34.65867
# Shear Modulus (GPa) = 8.93183 11.98018 10.45601
#
# Velocity S-wave (km/s) = 2.55277 2.95647 2.76200
# Velocity P-wave (km/s) = 5.75747 6.14559 5.95469
#
# Compressibility (1/GPa) = 0.02982861
#
# Stress axis : x y z
#
# Youngs Moduli (GPa) = 15.03068 15.03068 63.85432
#
# Poissons Ratio (x) = 0.72490 0.35819
# Poissons Ratio (y) = 0.72490 0.35819
# Poissons Ratio (z) = 0.08431 0.08431
#
# Static dielectric constant tensor:
#      x y z
#    x 1.449850 0.000000 0.000000 
#    y 0.000000 1.449850 0.000000 
#    z 0.000000 0.000000 1.476640 
# 
# From -- ./inp_files/6395.got.cif
#   From: 2010.05.17/outbox.cif.g08.bks.cpg/sg139_4_cif.got.tgz:6395.got - 2010.05.20 13:14:44.
