data_PCOD9571026
_publ_section_title
;
Structure prediction by ZEFSAII (Michael W. Deem and Ramdas Pophale) SiO2 
 PCOD9571026
Probable space group: P 42/N C M
;
_chemical_formula_sum "Si O2"
_cell_formula_units_Z 48
_cell_length_a 19.570134
_cell_length_b 19.570134
_cell_length_c 4.830066
_cell_angle_alpha 90.000000
_cell_angle_beta 90.000000
_cell_angle_gamma 90.000000
_cell_volume 1849.867677
_symmetry_space_group_name_H-M "P 42/N C M"
_symmetry_group_IT_number 138
_space_group.IT_coordinate_system_code '2'
_symmetry_cell_setting 'tetragonal'
loop_
_space_group_symop_operation_xyz
x,y,z
1/2-y,x,1/2+z
1/2-x,1/2-y,z
y,1/2-x,1/2+z
1/2+x,-y,1/2-z
-x,1/2+y,1/2-z
1/2+y,1/2+x,-z
-y,-x,-z
-x,-y,-z
1/2+y,-x,1/2-z
1/2+x,1/2+y,-z
-y,1/2+x,1/2-z
1/2-x,y,1/2+z
x,1/2-y,1/2+z
1/2-y,1/2-x,z
y,x,z
loop_
_atom_site_type_symbol
_atom_site_label
_atom_site_fract_x
_atom_site_fract_y
_atom_site_fract_z
Si Si1 0.404486 0.703596 0.461681
Si Si2 0.006627 0.897544 0.815522
Si Si3 0.795715 0.904944 0.115551
O O1 0.330613 0.669388 0.500000
O O2 0.412377 0.770924 0.650455
O O3 0.456672 0.647973 0.583853
O O4 0.961256 0.848632 0.010038
O O5 0.062285 0.937716 0.000000
O O6 0.953976 0.953976 0.697209
O O7 0.727942 0.911255 0.930248
O O8 0.832572 0.832572 0.071712
#
# Coordination Sequence:
#
# PCOD9571026 Si02
#       3
#    16  16  16
#     4  12  26  46  72 102 139 184 233 289 351 418
#     4  10  23  45  73 106 144 186 236 294 357 424
#     4  11  24  43  69 101 140 185 232 286 345 412
#
# _framework density 25.947800000000001
#
# number of rings (size 3 to 8) (size 9 to 14) (size 15 to 20)
#    0.000    1.000    0.000    6.000    0.000    7.333 
#    0.000   11.667    0.000    0.000    0.000    0.000 
#    0.000    0.000    0.000    0.000    0.000    0.000 
#
# Total GULP energy -269703.986072 kJ/mol
# GULP energy per Si atom -5618.833043 kJ/mol
# Density = 2.588874 g / cm^3
# Si number density = 25.947800 Si / 1000 Ang^3
#
#
#
# Elastic Constant Matrix: (Units=GPa)
#
#
# Indices 1 2 3 4 5 6 
#
# 1 116.9636 58.7824 9.6984 0.0000 0.0000 0.0000
# 2 58.7824 116.9581 9.6963 0.0000 0.0000 0.0000
# 3 9.6984 9.6963 70.9759 0.0000 0.0000 0.0000
# 4 0.0000 0.0000 0.0000 29.0512 0.0000 0.0000
# 5 0.0000 0.0000 0.0000 0.0000 29.0544 0.0000
# 6 0.0000 0.0000 0.0000 0.0000 0.0000 77.2515
#
#
#
# Elastic Compliance Matrix: (Units=1/GPa)
#
#
# Indices 1 2 3 4 5 6 
#
# 1 0.011483 -0.005706 -0.000790 0.000000 0.000000 0.000000
# 2 -0.005706 0.011483 -0.000789 0.000000 0.000000 0.000000
# 3 -0.000790 -0.000789 0.014305 0.000000 0.000000 0.000000
# 4 0.000000 0.000000 0.000000 0.034422 0.000000 0.000000
# 5 0.000000 0.000000 0.000000 0.000000 0.034418 0.000000
# 6 0.000000 0.000000 0.000000 0.000000 0.000000 0.012945
#
#
# Mechanical properties :
#
#
# Convention : Reuss Voigt Hill
#
# Bulk Modulus (GPa) = 44.04878 51.25019 47.64948
# Shear Modulus (GPa) = 35.41286 42.18611 38.79949
#
# Velocity S-wave (km/s) = 3.69829 4.03650 3.87109
# Velocity P-wave (km/s) = 5.93711 6.44349 6.19548
#
# Compressibility (1/GPa) = 0.02270211
#
# Stress axis : x y z
#
# Youngs Moduli (GPa) = 87.08819 87.08443 69.90568
#
# Poissons Ratio (x) = 0.49687 0.05519
# Poissons Ratio (y) = 0.49689 0.05516
# Poissons Ratio (z) = 0.06876 0.06872
#
# Static dielectric constant tensor:
#      x y z
#    x 2.011580 0.000000 0.000000 
#    y 0.000000 2.011580 0.000000 
#    z 0.000000 0.000000 1.940160 
# 
# From -- ./inp_files/255.got.cif
#   From: 2010.05.17/outbox.cif.g08.bks.cpg/sg138_1_cif.got.tgz:255.got - 2010.05.20 13:08:53.
