data_PCOD9571666
_publ_section_title
;
Structure prediction by ZEFSAII (Michael W. Deem and Ramdas Pophale) SiO2 
 PCOD9571666
Probable space group: I 4/M M M
;
_chemical_formula_sum "Si O2"
_cell_formula_units_Z 160
_cell_length_a 30.961529
_cell_length_b 30.961529
_cell_length_c 9.276522
_cell_angle_alpha 90.000000
_cell_angle_beta 90.000000
_cell_angle_gamma 90.000000
_cell_volume 8892.624993
_symmetry_space_group_name_H-M "I 4/M M M"
_symmetry_group_IT_number 139
_symmetry_cell_setting 'tetragonal'
loop_
_space_group_symop_operation_xyz
x,y,z
-y,x,z
-x,-y,z
y,-x,z
x,-y,-z
-x,y,-z
y,x,-z
-y,-x,-z
-x,-y,-z
y,-x,-z
x,y,-z
-y,x,-z
-x,y,z
x,-y,z
-y,-x,z
y,x,z
1/2+x,1/2+y,1/2+z
1/2-y,1/2+x,1/2+z
1/2-x,1/2-y,1/2+z
1/2+y,1/2-x,1/2+z
1/2+x,1/2-y,1/2-z
1/2-x,1/2+y,1/2-z
1/2+y,1/2+x,1/2-z
1/2-y,1/2-x,1/2-z
1/2-x,1/2-y,1/2-z
1/2+y,1/2-x,1/2-z
1/2+x,1/2+y,1/2-z
1/2-y,1/2+x,1/2-z
1/2-x,1/2+y,1/2+z
1/2+x,1/2-y,1/2+z
1/2-y,1/2-x,1/2+z
1/2+y,1/2+x,1/2+z
loop_
_atom_site_type_symbol
_atom_site_label
_atom_site_fract_x
_atom_site_fract_y
_atom_site_fract_z
Si Si1 0.215002 0.893551 0.672624
Si Si2 0.114563 0.114563 0.327224
Si Si3 0.950000 0.050001 0.827042
Si Si4 0.948257 0.284756 0.833105
Si Si5 0.757910 0.685018 0.662604
Si Si6 0.448885 0.116674 0.674006
O O1 0.218027 0.891191 0.500000
O O2 0.164297 0.896563 0.710687
O O3 0.246553 0.930050 0.735202
O O4 0.233160 0.850572 0.746315
O O5 0.110658 0.110658 0.500000
O O6 0.082209 0.082209 0.250165
O O7 0.000000 0.059029 0.789350
O O8 0.946132 0.053869 0.000000
O O9 0.935729 0.333742 0.788679
O O10 0.000000 0.284075 0.830253
O O11 0.934801 0.278185 0.000000
O O12 0.768040 0.670830 0.500000
O O13 0.725754 0.725754 0.651323
O O14 0.799622 0.700379 0.750000
O O15 0.445672 0.113002 0.500000
O O16 0.500000 0.110984 0.710759
O O17 0.418228 0.081773 0.750000
#
# Coordination Sequence:
#
# PCOD9571666 Si02
#       6
#    32  16  16  32  32  32
#     4  11  22  37  56  80 114 149 186 232 280 333
#     4  10  23  39  56  83 118 151 183 225 278 337
#     4   9  20  40  64  89 115 143 180 227 278 337
#     4   9  20  39  58  77 107 147 190 234 280 332
#     4  10  20  34  54  78 105 140 181 223 269 320
#     4   9  19  36  57  82 113 147 184 230 281 333
#
# _framework density 17.992436999999999
#
# number of rings (size 3 to 8) (size 9 to 14) (size 15 to 20)
#    0.000    2.300    1.000    2.700    0.000    6.200 
#    0.000    9.500    0.000    0.000    0.000    0.000 
#    0.000    0.000    0.000    0.000    0.000    0.000 
#
# Total GULP energy -446174.922694 kJ/mol
# GULP energy per Si atom -5577.186534 kJ/mol
# Density = 1.795149 g / cm^3
# Si number density = 17.992437 Si / 1000 Ang^3
#
#
#
# Elastic Constant Matrix: (Units=GPa)
#
#
# Indices 1 2 3 4 5 6 
#
# 1 64.0715 137.2977 62.5773 0.0000 0.0000 0.0000
# 2 137.2977 64.0737 62.5786 0.0000 0.0000 0.0000
# 3 62.5773 62.5786 73.4360 0.0000 0.0000 0.0000
# 4 0.0000 0.0000 0.0000 30.3417 0.0000 0.0000
# 5 0.0000 0.0000 0.0000 0.0000 30.3383 0.0000
# 6 0.0000 0.0000 0.0000 0.0000 0.0000 35.3291
#
#
#
# Elastic Compliance Matrix: (Units=1/GPa)
#
#
# Indices 1 2 3 4 5 6 
#
# 1 -0.001550 0.012107 -0.008997 0.000000 0.000000 0.000000
# 2 0.012107 -0.001550 -0.008996 0.000000 0.000000 0.000000
# 3 -0.008997 -0.008996 0.028950 0.000000 0.000000 0.000000
# 4 0.000000 0.000000 0.000000 0.032958 0.000000 0.000000
# 5 0.000000 0.000000 0.000000 0.000000 0.032962 0.000000
# 6 0.000000 0.000000 0.000000 0.000000 0.000000 0.028305
#
#
# Mechanical properties :
#
#
# Convention : Reuss Voigt Hill
#
# Bulk Modulus (GPa) = 71.02825 80.72094 75.87460
# Shear Modulus (GPa) = 36.61918 15.14367 25.88142
#
# Velocity S-wave (km/s) = 4.51627 2.90430 3.79682
# Velocity P-wave (km/s) = 8.17056 7.49719 7.84111
#
# Compressibility (1/GPa) = 0.01407890
#
# Stress axis : x y z
#
# Youngs Moduli (GPa) = -645.36378 -645.36045 34.54251
#
# Poissons Ratio (x) = 7.81337 0.31077
# Poissons Ratio (y) = 7.81341 0.31076
# Poissons Ratio (z) = -5.80608 -5.80588
#
# Static dielectric constant tensor:
#      x y z
#    x 1.624640 0.000000 0.000000 
#    y 0.000000 1.624630 0.000000 
#    z 0.000000 0.000000 1.609410 
# 
# From -- ./inp_files/2229.got.cif
#   From: 2010.05.17/outbox.cif.g08.bks.cpg/sg139_2_cif.got.tgz:2229.got - 2010.05.20 13:14:44.
