data_PCOD9571551
_publ_section_title
;
Structure prediction by ZEFSAII (Michael W. Deem and Ramdas Pophale) SiO2 
 PCOD9571551
Probable space group: I 4/M M M
;
_chemical_formula_sum "Si O2"
_cell_formula_units_Z 160
_cell_length_a 29.968287
_cell_length_b 29.968287
_cell_length_c 8.788638
_cell_angle_alpha 90.000000
_cell_angle_beta 90.000000
_cell_angle_gamma 90.000000
_cell_volume 7893.060194
_symmetry_space_group_name_H-M "I 4/M M M"
_symmetry_group_IT_number 139
_symmetry_cell_setting 'tetragonal'
loop_
_space_group_symop_operation_xyz
x,y,z
-y,x,z
-x,-y,z
y,-x,z
x,-y,-z
-x,y,-z
y,x,-z
-y,-x,-z
-x,-y,-z
y,-x,-z
x,y,-z
-y,x,-z
-x,y,z
x,-y,z
-y,-x,z
y,x,z
1/2+x,1/2+y,1/2+z
1/2-y,1/2+x,1/2+z
1/2-x,1/2-y,1/2+z
1/2+y,1/2-x,1/2+z
1/2+x,1/2-y,1/2-z
1/2-x,1/2+y,1/2-z
1/2+y,1/2+x,1/2-z
1/2-y,1/2-x,1/2-z
1/2-x,1/2-y,1/2-z
1/2+y,1/2-x,1/2-z
1/2+x,1/2+y,1/2-z
1/2-y,1/2+x,1/2-z
1/2-x,1/2+y,1/2+z
1/2+x,1/2-y,1/2+z
1/2-y,1/2-x,1/2+z
1/2+y,1/2+x,1/2+z
loop_
_atom_site_type_symbol
_atom_site_label
_atom_site_fract_x
_atom_site_fract_y
_atom_site_fract_z
Si Si1 0.844436 0.771431 0.819806
Si Si2 0.000000 0.260128 0.826429
Si Si3 0.500000 0.346756 0.329494
Si Si4 0.911333 0.162602 0.331846
Si Si5 0.297303 0.908625 0.681635
Si Si6 0.448168 0.884660 0.318241
O O1 0.799640 0.799640 0.769084
O O2 0.886094 0.803941 0.781542
O O3 0.863049 0.726447 0.741205
O O4 0.840270 0.764526 0.000000
O O5 0.000000 0.207013 0.838163
O O6 0.954147 0.273245 0.742345
O O7 0.000000 0.278942 0.000000
O O8 0.500000 0.364964 0.500000
O O9 0.455996 0.356937 0.236578
O O10 0.918424 0.183561 0.500000
O O11 0.877045 0.122956 0.349060
O O12 0.297319 0.907982 0.500000
O O13 0.346488 0.917093 0.746491
O O14 0.443839 0.884487 0.500000
O O15 0.500000 0.875759 0.279568
O O16 0.431101 0.931101 0.250000
#
# Coordination Sequence:
#
# PCOD9571551 Si02
#       6
#    32  16  16  32  32  32
#     4  10  20  34  53  80 118 161 202 247 302 363
#     4  11  21  33  51  81 116 154 198 246 304 363
#     4  11  21  31  49  72 101 139 177 226 287 353
#     4  10  20  32  47  69  98 133 176 228 286 349
#     4  12  23  36  60  90 124 164 208 258 311 370
#     4  11  25  45  70  98 133 172 212 262 314 373
#
# _framework density 20.270973000000001
#
# number of rings (size 3 to 8) (size 9 to 14) (size 15 to 20)
#    0.000    1.200    3.000    4.200    0.000    4.600 
#    0.000    1.000    0.000    0.900    0.000    2.100 
#    0.000    0.000    0.000    0.000    0.000    0.000 
#
# Total GULP energy -446387.642878 kJ/mol
# GULP energy per Si atom -5579.845536 kJ/mol
# Density = 2.022483 g / cm^3
# Si number density = 20.270973 Si / 1000 Ang^3
#
#
#
# Elastic Constant Matrix: (Units=GPa)
#
#
# Indices 1 2 3 4 5 6 
#
# 1 61.1624 52.5036 35.4927 0.0000 0.0000 0.0000
# 2 52.5036 61.1624 35.4927 0.0000 0.0000 0.0000
# 3 35.4927 35.4927 113.6379 0.0000 0.0000 0.0000
# 4 0.0000 0.0000 0.0000 23.8638 0.0000 0.0000
# 5 0.0000 0.0000 0.0000 0.0000 23.8638 0.0000
# 6 0.0000 0.0000 0.0000 0.0000 0.0000 12.7673
#
#
#
# Elastic Compliance Matrix: (Units=1/GPa)
#
#
# Indices 1 2 3 4 5 6 
#
# 1 0.063210 -0.052280 -0.003414 0.000000 0.000000 0.000000
# 2 -0.052280 0.063210 -0.003414 0.000000 0.000000 0.000000
# 3 -0.003414 -0.003414 0.010932 0.000000 0.000000 0.000000
# 4 0.000000 0.000000 0.000000 0.041904 0.000000 0.000000
# 5 0.000000 0.000000 0.000000 0.000000 0.041904 0.000000
# 6 0.000000 0.000000 0.000000 0.000000 0.000000 0.078325
#
#
# Mechanical properties :
#
#
# Convention : Reuss Voigt Hill
#
# Bulk Modulus (GPa) = 52.25534 53.66005 52.95770
# Shear Modulus (GPa) = 11.79025 19.59724 15.69375
#
# Velocity S-wave (km/s) = 2.41432 3.11266 2.78546
# Velocity P-wave (km/s) = 5.79709 6.28069 6.04373
#
# Compressibility (1/GPa) = 0.01913680
#
# Stress axis : x y z
#
# Youngs Moduli (GPa) = 15.82037 15.82037 91.47240
#
# Poissons Ratio (x) = 0.82709 0.31225
# Poissons Ratio (y) = 0.82709 0.31225
# Poissons Ratio (z) = 0.05401 0.05401
#
# Static dielectric constant tensor:
#      x y z
#    x 1.764380 0.000000 0.000000 
#    y 0.000000 1.764380 0.000000 
#    z 0.000000 0.000000 1.727200 
# 
# From -- ./inp_files/2248.got.cif
#   From: 2010.05.17/outbox.cif.g08.bks.cpg/sg139_2_cif.got.tgz:2248.got - 2010.05.20 13:14:44.
