data_PCOD9571152
_publ_section_title
;
Structure prediction by ZEFSAII (Michael W. Deem and Ramdas Pophale) SiO2 
 PCOD9571152
Probable space group: I 4/M M M
;
_chemical_formula_sum "Si O2"
_cell_formula_units_Z 224
_cell_length_a 23.527911
_cell_length_b 23.527911
_cell_length_c 19.862251
_cell_angle_alpha 90.000000
_cell_angle_beta 90.000000
_cell_angle_gamma 90.000000
_cell_volume 10994.999226
_symmetry_space_group_name_H-M "I 4/M M M"
_symmetry_group_IT_number 139
_symmetry_cell_setting 'tetragonal'
loop_
_space_group_symop_operation_xyz
x,y,z
-y,x,z
-x,-y,z
y,-x,z
x,-y,-z
-x,y,-z
y,x,-z
-y,-x,-z
-x,-y,-z
y,-x,-z
x,y,-z
-y,x,-z
-x,y,z
x,-y,z
-y,-x,z
y,x,z
1/2+x,1/2+y,1/2+z
1/2-y,1/2+x,1/2+z
1/2-x,1/2-y,1/2+z
1/2+y,1/2-x,1/2+z
1/2+x,1/2-y,1/2-z
1/2-x,1/2+y,1/2-z
1/2+y,1/2+x,1/2-z
1/2-y,1/2-x,1/2-z
1/2-x,1/2-y,1/2-z
1/2+y,1/2-x,1/2-z
1/2+x,1/2+y,1/2-z
1/2-y,1/2+x,1/2-z
1/2-x,1/2+y,1/2+z
1/2+x,1/2-y,1/2+z
1/2-y,1/2-x,1/2+z
1/2+y,1/2+x,1/2+z
loop_
_atom_site_type_symbol
_atom_site_label
_atom_site_fract_x
_atom_site_fract_y
_atom_site_fract_z
Si Si1 0.249844 0.154043 0.578707
Si Si2 0.564142 0.342429 0.283800
Si Si3 0.603319 0.936846 0.324148
Si Si4 0.798204 0.108719 0.925395
Si Si5 0.372182 0.822814 0.629191
Si Si6 0.280720 0.063624 0.254315
Si Si7 0.064394 0.156344 0.418144
O O1 0.266428 0.152027 0.500000
O O2 0.204477 0.204477 0.586964
O O3 0.305765 0.166329 0.620231
O O4 0.215484 0.096712 0.594365
O O5 0.500000 0.363199 0.276985
O O6 0.610329 0.389672 0.268546
O O7 0.574400 0.321752 0.361240
O O8 0.571845 0.286396 0.237866
O O9 0.576533 0.923467 0.250000
O O10 0.594825 0.883299 0.373570
O O11 0.671663 0.937890 0.311582
O O12 0.585342 0.000000 0.345587
O O13 0.829306 0.170695 0.920453
O O14 0.730198 0.112220 0.918034
O O15 0.812654 0.086338 0.000000
O O16 0.388150 0.800666 0.703143
O O17 0.285141 0.000000 0.222115
O O18 0.062505 0.151911 0.500000
O O19 0.104421 0.104421 0.394763
O O20 0.000000 0.154327 0.392914
#
# Coordination Sequence:
#
# PCOD9571152 Si02
#       7
#    32  32  32  32  32  32  32
#     4   9  17  28  41  60  91 127 156 184 222 268
#     4   9  17  29  46  68  93 122 156 192 230 271
#     4   9  18  32  49  69  91 113 140 178 225 276
#     4   9  17  29  45  65  91 125 162 193 221 261
#     4  10  17  26  46  70  88 113 150 188 222 263
#     4   8  16  32  48  63  89 119 145 180 226 274
#     4   8  14  24  37  54  78 110 147 184 219 253
#
# _framework density 20.372897999999999
#
# number of rings (size 3 to 8) (size 9 to 14) (size 15 to 20)
#    0.000    3.143    0.000    1.714    0.000    3.000 
#    0.000    2.143    0.000   10.714    0.000    2.000 
#    0.000    0.000    0.000   52.429    0.000    2.429 
#
# Total GULP energy -624091.935523 kJ/mol
# GULP energy per Si atom -5572.249424 kJ/mol
# Density = 2.032653 g / cm^3
# Si number density = 20.372898 Si / 1000 Ang^3
#
#
#
# Elastic Constant Matrix: (Units=GPa)
#
#
# Indices 1 2 3 4 5 6 
#
# 1 102.9161 41.4206 15.0630 0.0000 0.0000 0.0000
# 2 41.4206 102.9163 15.0633 0.0000 0.0000 0.0000
# 3 15.0630 15.0633 64.8764 0.0000 0.0000 0.0000
# 4 0.0000 0.0000 0.0000 15.4473 0.0000 0.0000
# 5 0.0000 0.0000 0.0000 0.0000 15.4473 0.0000
# 6 0.0000 0.0000 0.0000 0.0000 0.0000 15.1565
#
#
#
# Elastic Compliance Matrix: (Units=1/GPa)
#
#
# Indices 1 2 3 4 5 6 
#
# 1 0.011771 -0.004490 -0.001691 0.000000 0.000000 0.000000
# 2 -0.004490 0.011771 -0.001691 0.000000 0.000000 0.000000
# 3 -0.001691 -0.001691 0.016199 0.000000 0.000000 0.000000
# 4 0.000000 0.000000 0.000000 0.064736 0.000000 0.000000
# 5 0.000000 0.000000 0.000000 0.000000 0.064736 0.000000
# 6 0.000000 0.000000 0.000000 0.000000 0.000000 0.065978
#
#
# Mechanical properties :
#
#
# Convention : Reuss Voigt Hill
#
# Bulk Modulus (GPa) = 41.66848 45.97809 43.82328
# Shear Modulus (GPa) = 19.30994 22.48768 20.89881
#
# Velocity S-wave (km/s) = 3.08202 3.32596 3.20631
# Velocity P-wave (km/s) = 5.75868 6.11282 5.93839
#
# Compressibility (1/GPa) = 0.02399896
#
# Stress axis : x y z
#
# Youngs Moduli (GPa) = 84.95299 84.95308 61.73241
#
# Poissons Ratio (x) = 0.38145 0.10436
# Poissons Ratio (y) = 0.38145 0.10436
# Poissons Ratio (z) = 0.14361 0.14362
#
# Static dielectric constant tensor:
#      x y z
#    x 1.733380 0.000000 0.000000 
#    y 0.000000 1.733380 0.000000 
#    z 0.000000 0.000000 1.759960 
# 
# From -- ./inp_files/12182.got.cif
#   From: 2010.05.17/outbox.cif.g08.bks.cpg/sg139_7_cif.got.tgz:12182.got - 2010.05.20 13:14:44.
