data_PCOD9571142
_publ_section_title
;
Structure prediction by ZEFSAII (Michael W. Deem and Ramdas Pophale) SiO2 
 PCOD9571142
Probable space group: I 4/M M M
;
_chemical_formula_sum "Si O2"
_cell_formula_units_Z 128
_cell_length_a 29.383492
_cell_length_b 29.383492
_cell_length_c 12.285214
_cell_angle_alpha 90.000000
_cell_angle_beta 90.000000
_cell_angle_gamma 90.000000
_cell_volume 10606.926027
_symmetry_space_group_name_H-M "I 4/M M M"
_symmetry_group_IT_number 139
_symmetry_cell_setting 'tetragonal'
loop_
_space_group_symop_operation_xyz
x,y,z
-y,x,z
-x,-y,z
y,-x,z
x,-y,-z
-x,y,-z
y,x,-z
-y,-x,-z
-x,-y,-z
y,-x,-z
x,y,-z
-y,x,-z
-x,y,z
x,-y,z
-y,-x,z
y,x,z
1/2+x,1/2+y,1/2+z
1/2-y,1/2+x,1/2+z
1/2-x,1/2-y,1/2+z
1/2+y,1/2-x,1/2+z
1/2+x,1/2-y,1/2-z
1/2-x,1/2+y,1/2-z
1/2+y,1/2+x,1/2-z
1/2-y,1/2-x,1/2-z
1/2-x,1/2-y,1/2-z
1/2+y,1/2-x,1/2-z
1/2+x,1/2+y,1/2-z
1/2-y,1/2+x,1/2-z
1/2-x,1/2+y,1/2+z
1/2+x,1/2-y,1/2+z
1/2-y,1/2-x,1/2+z
1/2+y,1/2+x,1/2+z
loop_
_atom_site_type_symbol
_atom_site_label
_atom_site_fract_x
_atom_site_fract_y
_atom_site_fract_z
Si Si1 0.832145 0.051753 0.000000
Si Si2 0.627692 0.552992 0.738968
Si Si3 0.856724 0.779370 0.000000
Si Si4 0.693064 0.614799 0.125148
Si Si5 0.247182 0.674826 0.730026
O O1 0.861039 0.057182 0.889510
O O2 0.794946 0.091269 0.000000
O O3 0.813952 0.000000 0.000000
O O4 0.621427 0.500000 0.764820
O O5 0.583584 0.583584 0.763667
O O6 0.669855 0.574676 0.805427
O O7 0.844318 0.752234 0.108584
O O8 0.825108 0.825108 0.000000
O O9 0.654824 0.654824 0.124955
O O10 0.736686 0.636370 0.185203
O O11 0.701901 0.602311 0.000000
O O12 0.285224 0.714777 0.739399
O O13 0.199148 0.699148 0.750000
#
# Coordination Sequence:
#
# PCOD9571142 Si02
#       5
#    16  32  16  32  32
#     4  10  18  28  43  59  75  98 128 159 198 241
#     4  10  19  30  43  57  72  93 123 161 206 249
#     4  10  16  26  42  56  78 101 123 155 193 230
#     4   9  17  28  40  53  72  94 117 147 185 229
#     4   9  17  25  37  57  77  97 118 142 178 227
#
# _framework density 12.067587
#
# number of rings (size 3 to 8) (size 9 to 14) (size 15 to 20)
#    0.000    2.500    2.500    1.125    1.750    0.750 
#    0.000    0.000    0.000    2.250    0.000    3.500 
#    0.000    0.000    0.000    0.000    0.000    0.000 
#
# Total GULP energy -356371.913866 kJ/mol
# GULP energy per Si atom -5568.311154 kJ/mol
# Density = 1.204012 g / cm^3
# Si number density = 12.067587 Si / 1000 Ang^3
#
#
#
# Elastic Constant Matrix: (Units=GPa)
#
#
# Indices 1 2 3 4 5 6 
#
# 1 59.8788 53.8544 36.0474 0.0000 0.0000 0.0000
# 2 53.8544 59.8788 36.0474 0.0000 0.0000 0.0000
# 3 36.0474 36.0474 90.8088 0.0000 0.0000 0.0000
# 4 0.0000 0.0000 0.0000 8.2402 0.0000 0.0000
# 5 0.0000 0.0000 0.0000 0.0000 8.2402 0.0000
# 6 0.0000 0.0000 0.0000 0.0000 0.0000 15.9033
#
#
#
# Elastic Compliance Matrix: (Units=1/GPa)
#
#
# Indices 1 2 3 4 5 6 
#
# 1 0.088870 -0.077121 -0.004664 0.000000 0.000000 0.000000
# 2 -0.077121 0.088870 -0.004664 0.000000 0.000000 0.000000
# 3 -0.004664 -0.004664 0.014715 0.000000 0.000000 0.000000
# 4 0.000000 0.000000 0.000000 0.121357 0.000000 0.000000
# 5 0.000000 0.000000 0.000000 0.000000 0.121357 0.000000
# 6 0.000000 0.000000 0.000000 0.000000 0.000000 0.062880
#
#
# Mechanical properties :
#
#
# Convention : Reuss Voigt Hill
#
# Bulk Modulus (GPa) = 51.13183 51.38500 51.25841
# Shear Modulus (GPa) = 7.38044 12.11786 9.74915
#
# Velocity S-wave (km/s) = 2.47572 3.17230 2.84540
# Velocity P-wave (km/s) = 7.11586 7.48942 7.30503
#
# Compressibility (1/GPa) = 0.01955729
#
# Stress axis : x y z
#
# Youngs Moduli (GPa) = 11.25237 11.25237 67.95854
#
# Poissons Ratio (x) = 0.86780 0.31695
# Poissons Ratio (y) = 0.86780 0.31695
# Poissons Ratio (z) = 0.05248 0.05248
#
# Static dielectric constant tensor:
#      x y z
#    x 1.374570 0.000000 0.000000 
#    y 0.000000 1.374570 0.000000 
#    z 0.000000 0.000000 1.409270 
# 
# From -- ./inp_files/4122.got.cif
#   From: 2010.05.17/outbox.cif.g08.bks.cpg/sg139_3_cif.got.tgz:4122.got - 2010.05.20 13:14:44.
