data_PCOD9571394
_publ_section_title
;
Structure prediction by ZEFSAII (Michael W. Deem and Ramdas Pophale) SiO2 
 PCOD9571394
Probable space group: I 4/M M M
;
_chemical_formula_sum "Si O2"
_cell_formula_units_Z 136
_cell_length_a 18.018091
_cell_length_b 18.018091
_cell_length_c 25.941487
_cell_angle_alpha 90.000000
_cell_angle_beta 90.000000
_cell_angle_gamma 90.000000
_cell_volume 8421.945346
_symmetry_space_group_name_H-M "I 4/M M M"
_symmetry_group_IT_number 139
_symmetry_cell_setting 'tetragonal'
loop_
_space_group_symop_operation_xyz
x,y,z
-y,x,z
-x,-y,z
y,-x,z
x,-y,-z
-x,y,-z
y,x,-z
-y,-x,-z
-x,-y,-z
y,-x,-z
x,y,-z
-y,x,-z
-x,y,z
x,-y,z
-y,-x,z
y,x,z
1/2+x,1/2+y,1/2+z
1/2-y,1/2+x,1/2+z
1/2-x,1/2-y,1/2+z
1/2+y,1/2-x,1/2+z
1/2+x,1/2-y,1/2-z
1/2-x,1/2+y,1/2-z
1/2+y,1/2+x,1/2-z
1/2-y,1/2-x,1/2-z
1/2-x,1/2-y,1/2-z
1/2+y,1/2-x,1/2-z
1/2+x,1/2+y,1/2-z
1/2-y,1/2+x,1/2-z
1/2-x,1/2+y,1/2+z
1/2+x,1/2-y,1/2+z
1/2-y,1/2-x,1/2+z
1/2+y,1/2+x,1/2+z
loop_
_atom_site_type_symbol
_atom_site_label
_atom_site_fract_x
_atom_site_fract_y
_atom_site_fract_z
Si Si1 0.798789 0.201212 0.940562
Si Si2 0.701721 0.917032 0.353912
Si Si3 0.911472 0.088528 0.500000
Si Si4 0.128440 0.754638 0.753053
Si Si5 0.177469 0.177469 0.585469
Si Si6 0.285818 0.086691 0.132764
O O1 0.735048 0.264953 0.940750
O O2 0.764092 0.132647 0.908103
O O3 0.817005 0.182996 0.000000
O O4 0.725718 0.920068 0.294071
O O5 0.770146 0.875804 0.381160
O O6 0.630351 0.864346 0.362621
O O7 0.689612 0.000000 0.373587
O O8 0.872044 0.127957 0.548121
O O9 0.000000 0.101205 0.500000
O O10 0.164680 0.835321 0.744454
O O11 0.196595 0.696595 0.750000
O O12 0.094545 0.749195 0.809903
O O13 0.293503 0.000000 0.119759
#
# Coordination Sequence:
#
# PCOD9571394 Si02
#       6
#    16  32   8  32  16  32
#     4  10  20  36  57  75  96 133 182 226 262 305
#     4  10  19  31  52  79 109 140 169 207 253 308
#     4  11  22  34  50  72 100 132 168 215 264 300
#     4   9  15  29  50  75 103 134 173 209 247 302
#     4  10  19  35  52  74  98 134 181 211 247 300
#     4  10  20  33  53  79 106 135 171 214 263 320
#
# _framework density 16.148288999999998
#
# number of rings (size 3 to 8) (size 9 to 14) (size 15 to 20)
#    0.000    2.176    2.941    1.412    0.000    0.941 
#    0.000    0.000    0.000    4.588    0.000    5.765 
#    0.000    0.000    0.000    0.000    0.000    0.000 
#
# Total GULP energy -378623.364910 kJ/mol
# GULP energy per Si atom -5567.990660 kJ/mol
# Density = 1.611153 g / cm^3
# Si number density = 16.148289 Si / 1000 Ang^3
#
#
#
# Elastic Constant Matrix: (Units=GPa)
#
#
# Indices 1 2 3 4 5 6 
#
# 1 97.4456 88.9138 47.3971 0.0000 0.0000 0.0000
# 2 88.9138 97.4457 47.3977 0.0000 0.0000 0.0000
# 3 47.3971 47.3977 111.9397 0.0000 0.0000 0.0000
# 4 0.0000 0.0000 0.0000 -43.2924 0.0000 0.0000
# 5 0.0000 0.0000 0.0000 0.0000 -43.3116 0.0000
# 6 0.0000 0.0000 0.0000 0.0000 0.0000 14.1261
#
#
#
# Elastic Compliance Matrix: (Units=1/GPa)
#
#
# Indices 1 2 3 4 5 6 
#
# 1 0.062023 -0.055184 -0.002895 0.000000 0.000000 0.000000
# 2 -0.055184 0.062023 -0.002896 0.000000 0.000000 0.000000
# 3 -0.002895 -0.002896 0.011386 0.000000 0.000000 0.000000
# 4 0.000000 0.000000 0.000000 -0.023099 0.000000 0.000000
# 5 0.000000 0.000000 0.000000 0.000000 -0.023088 0.000000
# 6 0.000000 0.000000 0.000000 0.000000 0.000000 0.070791
#
#
# Mechanical properties :
#
#
# Convention : Reuss Voigt Hill
#
# Bulk Modulus (GPa) = 74.18107 74.91648 74.54877
# Shear Modulus (GPa) = 17.45324 -6.28742 5.58291
#
# Velocity S-wave (km/s) = 3.29114 -1.97535 1.86139
# Velocity P-wave (km/s) = 7.77684 6.42580 7.13338
#
# Compressibility (1/GPa) = 0.01348053
#
# Stress axis : x y z
#
# Youngs Moduli (GPa) = 16.12312 16.12303 87.83024
#
# Poissons Ratio (x) = 0.88973 0.25430
# Poissons Ratio (y) = 0.88974 0.25437
# Poissons Ratio (z) = 0.04668 0.04669
#
# Static dielectric constant tensor:
#      x y z
#    x 1.534460 0.000000 0.000000 
#    y 0.000000 1.534460 0.000000 
#    z 0.000000 0.000000 1.561740 
# 
# From -- ./inp_files/11546.got.cif
#   From: 2010.05.17/outbox.cif.g08.bks.cpg/sg139_6_cif.got.tgz:11546.got - 2010.05.20 13:14:44.
