data_PCOD9571096
_publ_section_title
;
Structure prediction by ZEFSAII (Michael W. Deem and Ramdas Pophale) SiO2 
 PCOD9571096
Probable space group: P 42/N C M
;
_chemical_formula_sum "Si O2"
_cell_formula_units_Z 80
_cell_length_a 10.975437
_cell_length_b 10.975437
_cell_length_c 32.906454
_cell_angle_alpha 90.000000
_cell_angle_beta 90.000000
_cell_angle_gamma 90.000000
_cell_volume 3963.918601
_symmetry_space_group_name_H-M "P 42/N C M"
_symmetry_group_IT_number 138
_space_group.IT_coordinate_system_code '2'
_symmetry_cell_setting 'tetragonal'
loop_
_space_group_symop_operation_xyz
x,y,z
1/2-y,x,1/2+z
1/2-x,1/2-y,z
y,1/2-x,1/2+z
1/2+x,-y,1/2-z
-x,1/2+y,1/2-z
1/2+y,1/2+x,-z
-y,-x,-z
-x,-y,-z
1/2+y,-x,1/2-z
1/2+x,1/2+y,-z
-y,1/2+x,1/2-z
1/2-x,y,1/2+z
x,1/2-y,1/2+z
1/2-y,1/2-x,z
y,x,z
loop_
_atom_site_type_symbol
_atom_site_label
_atom_site_fract_x
_atom_site_fract_y
_atom_site_fract_z
Si Si1 0.496060 0.294098 0.997797
Si Si2 0.985020 0.169788 0.799423
Si Si3 0.718509 0.527905 0.786295
Si Si4 0.908504 0.400145 0.845337
Si Si5 0.357335 0.648963 0.438049
O O1 0.366302 0.366302 0.997446
O O2 0.531809 0.205888 0.035562
O O3 0.597787 0.402213 0.000000
O O4 0.532085 0.207347 0.959540
O O5 0.091145 0.091145 0.820342
O O6 0.883613 0.076275 0.784039
O O7 0.038494 0.231278 0.759110
O O8 0.918332 0.264948 0.828033
O O9 0.650303 0.650303 0.799345
O O10 0.817203 0.479945 0.818100
O O11 0.874388 0.398430 0.892391
O O12 0.040412 0.459588 0.840245
O O13 0.250000 0.750000 0.438000
#
# Coordination Sequence:
#
# PCOD9571096 Si02
#       5
#    16  16  16  16  16
#     4   8  15  31  58  86 112 146 192 247 304 361
#     4  11  23  40  62  86 113 152 202 254 308 366
#     4  11  23  40  62  86 113 152 202 254 308 366
#     4  12  25  39  57  86 124 164 202 247 303 365
#     4   9  18  34  56  84 114 148 196 248 296 355
#
# _framework density 20.18205
#
# number of rings (size 3 to 8) (size 9 to 14) (size 15 to 20)
#    0.000    1.800    2.000    4.200    0.000    4.400 
#    0.000    6.000    0.000    1.200    0.000    0.000 
#    0.000    0.000    0.000    0.000    0.000    0.000 
#
# Total GULP energy -446477.083798 kJ/mol
# GULP energy per Si atom -5580.963547 kJ/mol
# Density = 2.013611 g / cm^3
# Si number density = 20.182050 Si / 1000 Ang^3
#
#
#
# Elastic Constant Matrix: (Units=GPa)
#
#
# Indices 1 2 3 4 5 6 
#
# 1 1395.7328-1281.2014 17.1933 0.0000 0.0000 0.0000
# 2 -1281.2014 1395.7478 17.1979 0.0000 0.0000 0.0000
# 3 17.1933 17.1979 99.3850 0.0000 0.0000 0.0000
# 4 0.0000 0.0000 0.0000 330.2814 0.0000 0.0000
# 5 0.0000 0.0000 0.0000 0.0000 330.3338 0.0000
# 6 0.0000 0.0000 0.0000 0.0000 0.0000 45.0573
#
#
#
# Elastic Compliance Matrix: (Units=1/GPa)
#
#
# Indices 1 2 3 4 5 6 
#
# 1 0.004791 0.004418 -0.001593 0.000000 0.000000 0.000000
# 2 0.004418 0.004791 -0.001593 0.000000 0.000000 0.000000
# 3 -0.001593 -0.001593 0.010613 0.000000 0.000000 0.000000
# 4 0.000000 0.000000 0.000000 0.003028 0.000000 0.000000
# 5 0.000000 0.000000 0.000000 0.000000 0.003027 0.000000
# 6 0.000000 0.000000 0.000000 0.000000 0.000000 0.022194
#
#
# Mechanical properties :
#
#
# Convention : Reuss Voigt Hill
#
# Bulk Modulus (GPa) = 44.13456 44.13834 44.13645
# Shear Modulus (GPa) = 93.39617 416.97956 255.18786
#
# Velocity S-wave (km/s) = 6.81009 14.38950 11.25689
# Velocity P-wave (km/s) = 9.15162 17.26252 13.81569
#
# Compressibility (1/GPa) = 0.02265798
#
# Stress axis : x y z
#
# Youngs Moduli (GPa) = 208.70975 208.71175 94.22187
#
# Poissons Ratio (x) = -0.92204 0.15013
# Poissons Ratio (y) = -0.92203 0.15013
# Poissons Ratio (z) = 0.33255 0.33255
#
# Static dielectric constant tensor:
#      x y z
#    x 1.827180 0.000000 0.000000 
#    y 0.000000 1.827180 0.000000 
#    z 0.000000 0.000000 1.668480 
# 
# From -- ./inp_files/7920.got.cif
#   From: 2010.05.17/outbox.cif.g08.bks.cpg/sg138_4_cif.got.tgz:7920.got - 2010.05.20 13:08:53.
