data_PCOD9571325
_publ_section_title
;
Structure prediction by ZEFSAII (Michael W. Deem and Ramdas Pophale) SiO2 
 PCOD9571325
Probable space group: I 4/M M M
;
_chemical_formula_sum "Si O2"
_cell_formula_units_Z 192
_cell_length_a 21.023223
_cell_length_b 21.023223
_cell_length_c 25.306168
_cell_angle_alpha 90.000000
_cell_angle_beta 90.000000
_cell_angle_gamma 90.000000
_cell_volume 11184.716512
_symmetry_space_group_name_H-M "I 4/M M M"
_symmetry_group_IT_number 139
_symmetry_cell_setting 'tetragonal'
loop_
_space_group_symop_operation_xyz
x,y,z
-y,x,z
-x,-y,z
y,-x,z
x,-y,-z
-x,y,-z
y,x,-z
-y,-x,-z
-x,-y,-z
y,-x,-z
x,y,-z
-y,x,-z
-x,y,z
x,-y,z
-y,-x,z
y,x,z
1/2+x,1/2+y,1/2+z
1/2-y,1/2+x,1/2+z
1/2-x,1/2-y,1/2+z
1/2+y,1/2-x,1/2+z
1/2+x,1/2-y,1/2-z
1/2-x,1/2+y,1/2-z
1/2+y,1/2+x,1/2-z
1/2-y,1/2-x,1/2-z
1/2-x,1/2-y,1/2-z
1/2+y,1/2-x,1/2-z
1/2+x,1/2+y,1/2-z
1/2-y,1/2+x,1/2-z
1/2-x,1/2+y,1/2+z
1/2+x,1/2-y,1/2+z
1/2-y,1/2-x,1/2+z
1/2+y,1/2+x,1/2+z
loop_
_atom_site_type_symbol
_atom_site_label
_atom_site_fract_x
_atom_site_fract_y
_atom_site_fract_z
Si Si1 0.427064 0.791196 0.061716
Si Si2 0.642570 0.259278 0.664465
Si Si3 0.682371 0.925497 0.747355
Si Si4 0.250910 0.850123 0.655681
Si Si5 0.426419 0.255484 0.441196
Si Si6 0.101694 0.431159 0.561786
O O1 0.500000 0.770513 0.064420
O O2 0.382084 0.749809 0.098368
O O3 0.423476 0.864398 0.082906
O O4 0.407378 0.792131 0.000000
O O5 0.681294 0.318707 0.688559
O O6 0.590873 0.226245 0.701876
O O7 0.695194 0.204614 0.655079
O O8 0.613083 0.278616 0.608492
O O9 0.619858 0.880143 0.750000
O O10 0.724195 0.901389 0.697751
O O11 0.667497 0.000000 0.744635
O O12 0.185625 0.814376 0.669534
O O13 0.402162 0.271549 0.500000
O O14 0.500000 0.275737 0.437827
O O15 0.426961 0.178251 0.437158
O O16 0.082201 0.432888 0.500000
O O17 0.083196 0.500000 0.585392
#
# Coordination Sequence:
#
# PCOD9571325 Si02
#       6
#    32  32  32  32  32  32
#     4  10  19  30  45  68  99 132 170 215 255 295
#     4  10  19  31  50  73  97 130 171 210 249 291
#     4  10  21  37  55  75 102 133 167 204 243 290
#     4  10  20  34  51  69  95 131 170 210 252 298
#     4   9  16  27  44  67  99 135 168 203 240 282
#     4   8  14  25  40  59  89 132 175 206 234 274
#
# _framework density 17.166283
#
# number of rings (size 3 to 8) (size 9 to 14) (size 15 to 20)
#    0.000    2.500    1.667    2.500    0.000    3.167 
#    0.000    3.333    0.000    2.000    0.000    0.000 
#    0.000   27.333    0.000   14.667    0.000    0.000 
#
# Total GULP energy -534902.969718 kJ/mol
# GULP energy per Si atom -5571.905935 kJ/mol
# Density = 1.712721 g / cm^3
# Si number density = 17.166283 Si / 1000 Ang^3
#
#
#
# Elastic Constant Matrix: (Units=GPa)
#
#
# Indices 1 2 3 4 5 6 
#
# 1 59.7946 38.2076 30.1523 0.0000 0.0000 0.0000
# 2 38.2076 59.7937 30.1521 0.0000 0.0000 0.0000
# 3 30.1523 30.1521 75.8778 0.0000 0.0000 0.0000
# 4 0.0000 0.0000 0.0000 14.9854 0.0000 0.0000
# 5 0.0000 0.0000 0.0000 0.0000 14.9858 0.0000
# 6 0.0000 0.0000 0.0000 0.0000 0.0000 14.8385
#
#
#
# Elastic Compliance Matrix: (Units=1/GPa)
#
#
# Indices 1 2 3 4 5 6 
#
# 1 0.029916 -0.016409 -0.005367 0.000000 0.000000 0.000000
# 2 -0.016409 0.029916 -0.005367 0.000000 0.000000 0.000000
# 3 -0.005367 -0.005367 0.017445 0.000000 0.000000 0.000000
# 4 0.000000 0.000000 0.000000 0.066732 0.000000 0.000000
# 5 0.000000 0.000000 0.000000 0.000000 0.066730 0.000000
# 6 0.000000 0.000000 0.000000 0.000000 0.000000 0.067392
#
#
# Mechanical properties :
#
#
# Convention : Reuss Voigt Hill
#
# Bulk Modulus (GPa) = 43.49913 43.61003 43.55458
# Shear Modulus (GPa) = 14.70239 15.42554 15.06397
#
# Velocity S-wave (km/s) = 2.92972 3.00091 2.96553
# Velocity P-wave (km/s) = 6.06954 6.12102 6.09533
#
# Compressibility (1/GPa) = 0.02298897
#
# Stress axis : x y z
#
# Youngs Moduli (GPa) = 33.42738 33.42688 57.32391
#
# Poissons Ratio (x) = 0.54851 0.30767
# Poissons Ratio (y) = 0.54852 0.30767
# Poissons Ratio (z) = 0.17941 0.17941
#
# Static dielectric constant tensor:
#      x y z
#    x 1.583670 0.000000 0.000000 
#    y 0.000000 1.583670 0.000000 
#    z 0.000000 0.000000 1.621590 
# 
# From -- ./inp_files/11902.got.cif
#   From: 2010.05.17/outbox.cif.g08.bks.cpg/sg139_6_cif.got.tgz:11902.got - 2010.05.20 13:14:44.
