data_PCOD9571053
_publ_section_title
;
Structure prediction by ZEFSAII (Michael W. Deem and Ramdas Pophale) SiO2 
 PCOD9571053
Probable space group: P 42/N C M
;
_chemical_formula_sum "Si O2"
_cell_formula_units_Z 96
_cell_length_a 16.108746
_cell_length_b 16.108746
_cell_length_c 19.986832
_cell_angle_alpha 90.000000
_cell_angle_beta 90.000000
_cell_angle_gamma 90.000000
_cell_volume 5186.416967
_symmetry_space_group_name_H-M "P 42/N C M"
_symmetry_group_IT_number 138
_space_group.IT_coordinate_system_code '2'
_symmetry_cell_setting 'tetragonal'
loop_
_space_group_symop_operation_xyz
x,y,z
1/2-y,x,1/2+z
1/2-x,1/2-y,z
y,1/2-x,1/2+z
1/2+x,-y,1/2-z
-x,1/2+y,1/2-z
1/2+y,1/2+x,-z
-y,-x,-z
-x,-y,-z
1/2+y,-x,1/2-z
1/2+x,1/2+y,-z
-y,1/2+x,1/2-z
1/2-x,y,1/2+z
x,1/2-y,1/2+z
1/2-y,1/2-x,z
y,x,z
loop_
_atom_site_type_symbol
_atom_site_label
_atom_site_fract_x
_atom_site_fract_y
_atom_site_fract_z
Si Si1 0.750369 0.608382 0.252551
Si Si2 0.864582 0.497488 0.497670
Si Si3 0.925341 0.925341 0.572072
Si Si4 0.496685 0.246205 0.880910
Si Si5 0.682698 0.322684 0.579294
Si Si6 0.764653 0.007265 0.377293
Si Si7 0.443143 0.443143 0.585523
O O1 0.829174 0.670827 0.243099
O O2 0.670613 0.670613 0.261989
O O3 0.736237 0.546957 0.189685
O O4 0.767355 0.544790 0.313803
O O5 0.935759 0.564242 0.484199
O O6 0.822457 0.513588 0.568729
O O7 0.796950 0.502974 0.439630
O O8 0.907079 0.407079 0.500000
O O9 0.947706 0.832570 0.590349
O O10 0.938722 0.938722 0.494083
O O11 0.988997 0.988997 0.607221
O O12 0.593627 0.218769 0.886948
O O13 0.750000 0.250000 0.576997
O O14 0.658967 0.341034 0.500000
O O15 0.605119 0.287170 0.621553
O O16 0.853379 0.967172 0.390420
#
# Coordination Sequence:
#
# PCOD9571053 Si02
#       7
#    16  16   8  16  16  16   8
#     4  11  26  46  65  90 132 180 219 264 322 383
#     4  11  24  42  65  94 128 168 216 271 328 385
#     4  11  20  36  64 100 128 159 206 271 326 380
#     4  12  22  42  66  95 129 169 217 263 324 389
#     4  11  22  41  71 101 133 167 208 271 332 386
#     4  12  22  42  66  95 129 169 217 263 324 389
#     4  11  20  36  64 100 128 159 206 271 326 380
#
# _framework density 18.509889000000001
#
# number of rings (size 3 to 8) (size 9 to 14) (size 15 to 20)
#    0.000    0.667    6.667    2.000    0.000    0.000 
#    6.000    0.833    0.000    0.000    0.000    0.000 
#    0.000    0.000    0.000    0.000    0.000    0.000 
#
# Total GULP energy -535634.601729 kJ/mol
# GULP energy per Si atom -5579.527101 kJ/mol
# Density = 1.846776 g / cm^3
# Si number density = 18.509889 Si / 1000 Ang^3
#
#
#
# Elastic Constant Matrix: (Units=GPa)
#
#
# Indices 1 2 3 4 5 6 
#
# 1 130.5953 -36.8998 14.6715 0.0000 0.0000 0.0000
# 2 -36.8998 130.5940 14.6707 0.0000 0.0000 0.0000
# 3 14.6715 14.6707 82.6202 0.0000 0.0000 0.0000
# 4 0.0000 0.0000 0.0000 22.4630 0.0000 0.0000
# 5 0.0000 0.0000 0.0000 0.0000 22.4628 0.0000
# 6 0.0000 0.0000 0.0000 0.0000 0.0000 32.2561
#
#
#
# Elastic Compliance Matrix: (Units=1/GPa)
#
#
# Indices 1 2 3 4 5 6 
#
# 1 0.008636 0.002666 -0.002007 0.000000 0.000000 0.000000
# 2 0.002666 0.008636 -0.002007 0.000000 0.000000 0.000000
# 3 -0.002007 -0.002007 0.012816 0.000000 0.000000 0.000000
# 4 0.000000 0.000000 0.000000 0.044518 0.000000 0.000000
# 5 0.000000 0.000000 0.000000 0.000000 0.044518 0.000000
# 6 0.000000 0.000000 0.000000 0.000000 0.000000 0.031002
#
#
# Mechanical properties :
#
#
# Convention : Reuss Voigt Hill
#
# Bulk Modulus (GPa) = 36.50722 36.52157 36.51439
# Shear Modulus (GPa) = 30.87328 38.86088 34.86708
#
# Velocity S-wave (km/s) = 4.08847 4.58696 4.34487
# Velocity P-wave (km/s) = 6.48485 6.91573 6.70375
#
# Compressibility (1/GPa) = 0.02739185
#
# Stress axis : x y z
#
# Youngs Moduli (GPa) = 115.79641 115.79550 78.02567
#
# Poissons Ratio (x) = -0.30866 0.15659
# Poissons Ratio (y) = -0.30866 0.15658
# Poissons Ratio (z) = 0.23239 0.23238
#
# Static dielectric constant tensor:
#      x y z
#    x 1.640700 0.000000 0.000000 
#    y 0.000000 1.640700 0.000000 
#    z 0.000000 0.000000 1.641330 
# 
# From -- ./inp_files/6300.got.cif
#   From: 2010.05.17/outbox.cif.g08.bks.cpg/sg138_4_cif.got.tgz:6300.got - 2010.05.20 13:08:53.
