data_PCOD9571323
_publ_section_title
;
Structure prediction by ZEFSAII (Michael W. Deem and Ramdas Pophale) SiO2 
 PCOD9571323
Probable space group: I 4/M M M
;
_chemical_formula_sum "Si O2"
_cell_formula_units_Z 192
_cell_length_a 18.970445
_cell_length_b 18.970445
_cell_length_c 31.060077
_cell_angle_alpha 90.000000
_cell_angle_beta 90.000000
_cell_angle_gamma 90.000000
_cell_volume 11177.831666
_symmetry_space_group_name_H-M "I 4/M M M"
_symmetry_group_IT_number 139
_symmetry_cell_setting 'tetragonal'
loop_
_space_group_symop_operation_xyz
x,y,z
-y,x,z
-x,-y,z
y,-x,z
x,-y,-z
-x,y,-z
y,x,-z
-y,-x,-z
-x,-y,-z
y,-x,-z
x,y,-z
-y,x,-z
-x,y,z
x,-y,z
-y,-x,z
y,x,z
1/2+x,1/2+y,1/2+z
1/2-y,1/2+x,1/2+z
1/2-x,1/2-y,1/2+z
1/2+y,1/2-x,1/2+z
1/2+x,1/2-y,1/2-z
1/2-x,1/2+y,1/2-z
1/2+y,1/2+x,1/2-z
1/2-y,1/2-x,1/2-z
1/2-x,1/2-y,1/2-z
1/2+y,1/2-x,1/2-z
1/2+x,1/2+y,1/2-z
1/2-y,1/2+x,1/2-z
1/2-x,1/2+y,1/2+z
1/2+x,1/2-y,1/2+z
1/2-y,1/2-x,1/2+z
1/2+y,1/2+x,1/2+z
loop_
_atom_site_type_symbol
_atom_site_label
_atom_site_fract_x
_atom_site_fract_y
_atom_site_fract_z
Si Si1 0.578977 0.305584 0.425546
Si Si2 0.690159 0.920721 0.000000
Si Si3 0.080307 0.271928 0.164714
Si Si4 0.762937 0.647414 0.000000
Si Si5 0.197579 0.917957 0.743242
Si Si6 0.342639 0.774525 0.166481
Si Si7 0.416369 0.301273 0.086986
O O1 0.500000 0.335507 0.429114
O O2 0.637486 0.362515 0.436248
O O3 0.583102 0.240335 0.458207
O O4 0.588833 0.276924 0.377237
O O5 0.647578 0.847749 0.000000
O O6 0.656921 0.000000 0.000000
O O7 0.088032 0.227348 0.208464
O O8 0.142778 0.328305 0.163964
O O9 0.000000 0.300317 0.163610
O O10 0.734128 0.608797 0.042453
O O11 0.725768 0.725768 0.000000
O O12 0.125455 0.874546 0.739473
O O13 0.251562 0.881904 0.710004
O O14 0.188576 0.000000 0.732815
O O15 0.268147 0.731854 0.165575
O O16 0.387326 0.745823 0.126300
O O17 0.500000 0.308264 0.088589
O O18 0.375849 0.375849 0.090313
#
# Coordination Sequence:
#
# PCOD9571323 Si02
#       7
#    32  16  32  16  32  32  32
#     4  10  19  30  45  67  96 129 165 206 253 304
#     4  10  20  33  51  74 100 132 173 220 261 295
#     4  10  20  33  51  75 101 130 169 215 257 298
#     4  10  19  33  55  78 103 137 175 214 256 304
#     4  10  20  33  51  76 104 135 170 209 256 308
#     4  10  19  33  54  76 101 135 173 212 253 299
#     4  10  21  36  56  82 108 136 168 204 251 305
#
# _framework density 17.176855
#
# number of rings (size 3 to 8) (size 9 to 14) (size 15 to 20)
#    0.000    2.000    0.000    4.500    0.000    3.167 
#    0.000    0.000    0.000   13.000    0.000    4.667 
#    0.000    0.000    0.000    0.000    0.000    0.000 
#
# Total GULP energy -535736.703759 kJ/mol
# GULP energy per Si atom -5580.590664 kJ/mol
# Density = 1.713776 g / cm^3
# Si number density = 17.176855 Si / 1000 Ang^3
#
#
#
# Elastic Constant Matrix: (Units=GPa)
#
#
# Indices 1 2 3 4 5 6 
#
# 1 107.1603 55.8298 6.1666 0.0000 0.0000 0.0000
# 2 55.8298 107.1603 6.1666 0.0000 0.0000 0.0000
# 3 6.1666 6.1666 55.7196 0.0000 0.0000 0.0000
# 4 0.0000 0.0000 0.0000 19.5411 0.0000 0.0000
# 5 0.0000 0.0000 0.0000 0.0000 19.5411 0.0000
# 6 0.0000 0.0000 0.0000 0.0000 0.0000 14.4988
#
#
#
# Elastic Compliance Matrix: (Units=1/GPa)
#
#
# Indices 1 2 3 4 5 6 
#
# 1 0.012834 -0.006647 -0.000685 0.000000 0.000000 0.000000
# 2 -0.006647 0.012834 -0.000685 0.000000 0.000000 0.000000
# 3 -0.000685 -0.000685 0.018099 0.000000 0.000000 0.000000
# 4 0.000000 0.000000 0.000000 0.051174 0.000000 0.000000
# 5 0.000000 0.000000 0.000000 0.000000 0.051174 0.000000
# 6 0.000000 0.000000 0.000000 0.000000 0.000000 0.068971
#
#
# Mechanical properties :
#
#
# Convention : Reuss Voigt Hill
#
# Bulk Modulus (GPa) = 36.05694 45.15179 40.60437
# Shear Modulus (GPa) = 20.80173 24.17470 22.48822
#
# Velocity S-wave (km/s) = 3.48376 3.75560 3.62223
# Velocity P-wave (km/s) = 6.10076 6.71934 6.41751
#
# Compressibility (1/GPa) = 0.02773391
#
# Stress axis : x y z
#
# Youngs Moduli (GPa) = 77.91573 77.91573 55.25299
#
# Poissons Ratio (x) = 0.51792 0.03783
# Poissons Ratio (y) = 0.51792 0.03783
# Poissons Ratio (z) = 0.05335 0.05335
#
# Static dielectric constant tensor:
#      x y z
#    x 1.567520 0.000000 0.000000 
#    y 0.000000 1.567520 0.000000 
#    z 0.000000 0.000000 1.582210 
# 
# From -- ./inp_files/14349.got.cif
#   From: 2010.05.17/outbox.cif.g08.bks.cpg/sg139_8_cif.got.tgz:14349.got - 2010.05.20 13:14:44.
