data_PCOD9571807
_publ_section_title
;
Structure prediction by ZEFSAII (Michael W. Deem and Ramdas Pophale) SiO2 
 PCOD9571807
Probable space group: I 4/M M M
;
_chemical_formula_sum "Si O2"
_cell_formula_units_Z 160
_cell_length_a 17.457557
_cell_length_b 17.457557
_cell_length_c 28.102512
_cell_angle_alpha 90.000000
_cell_angle_beta 90.000000
_cell_angle_gamma 90.000000
_cell_volume 8564.698502
_symmetry_space_group_name_H-M "I 4/M M M"
_symmetry_group_IT_number 139
_symmetry_cell_setting 'tetragonal'
loop_
_space_group_symop_operation_xyz
x,y,z
-y,x,z
-x,-y,z
y,-x,z
x,-y,-z
-x,y,-z
y,x,-z
-y,-x,-z
-x,-y,-z
y,-x,-z
x,y,-z
-y,x,-z
-x,y,z
x,-y,z
-y,-x,z
y,x,z
1/2+x,1/2+y,1/2+z
1/2-y,1/2+x,1/2+z
1/2-x,1/2-y,1/2+z
1/2+y,1/2-x,1/2+z
1/2+x,1/2-y,1/2-z
1/2-x,1/2+y,1/2-z
1/2+y,1/2+x,1/2-z
1/2-y,1/2-x,1/2-z
1/2-x,1/2-y,1/2-z
1/2+y,1/2-x,1/2-z
1/2+x,1/2+y,1/2-z
1/2-y,1/2+x,1/2-z
1/2-x,1/2+y,1/2+z
1/2+x,1/2-y,1/2+z
1/2-y,1/2-x,1/2+z
1/2+y,1/2+x,1/2+z
loop_
_atom_site_type_symbol
_atom_site_label
_atom_site_fract_x
_atom_site_fract_y
_atom_site_fract_z
Si Si1 0.789123 0.909316 0.892473
Si Si2 0.641320 0.190450 0.912355
Si Si3 0.792065 0.091447 0.500000
Si Si4 0.719650 0.088623 0.790945
Si Si5 0.000000 0.590562 0.557134
Si Si6 0.709162 0.908084 0.688139
O O1 0.869227 0.869227 0.905310
O O2 0.720685 0.856464 0.913574
O O3 0.775513 0.901261 0.835483
O O4 0.783503 0.000000 0.904327
O O5 0.574140 0.127860 0.918909
O O6 0.627135 0.233886 0.862277
O O7 0.626940 0.248741 0.954787
O O8 0.878400 0.121601 0.500000
O O9 0.786206 0.000000 0.500000
O O10 0.751582 0.108450 0.738387
O O11 0.640934 0.132214 0.802725
O O12 0.700028 0.000000 0.788572
O O13 0.000000 0.500000 0.563143
O O14 0.000000 0.606658 0.500000
O O15 0.701460 0.000000 0.683048
#
# Coordination Sequence:
#
# PCOD9571807 Si02
#       6
#    32  32  16  32  16  32
#     4  10  21  37  56  80 111 147 189 235 282 333
#     4  11  19  37  55  85 112 145 186 232 285 340
#     4  12  24  41  62  86 117 151 189 231 275 328
#     4   8  16  28  43  69 103 141 179 221 263 323
#     4  11  20  32  54  84 118 148 180 228 284 349
#     4   9  15  26  46  71 106 141 175 218 271 328
#
# _framework density 18.681335000000001
#
# number of rings (size 3 to 8) (size 9 to 14) (size 15 to 20)
#    0.000    2.100    3.000    1.200    0.000    1.500 
#    0.000   11.000    0.000    0.000    0.000    0.000 
#    0.000    7.200    0.000    0.000    0.000    0.000 
#
# Total GULP energy -445378.067173 kJ/mol
# GULP energy per Si atom -5567.225840 kJ/mol
# Density = 1.863882 g / cm^3
# Si number density = 18.681335 Si / 1000 Ang^3
#
#
#
# Elastic Constant Matrix: (Units=GPa)
#
#
# Indices 1 2 3 4 5 6 
#
# 1 67.7584 60.5509 21.9312 0.0000 0.0000 0.0000
# 2 60.5509 67.7625 21.9326 0.0000 0.0000 0.0000
# 3 21.9312 21.9326 105.2838 0.0000 0.0000 0.0000
# 4 0.0000 0.0000 0.0000 -11.7714 0.0000 0.0000
# 5 0.0000 0.0000 0.0000 0.0000 -11.7720 0.0000
# 6 0.0000 0.0000 0.0000 0.0000 0.0000 24.2682
#
#
#
# Elastic Compliance Matrix: (Units=1/GPa)
#
#
# Indices 1 2 3 4 5 6 
#
# 1 0.073550 -0.065157 -0.001747 0.000000 0.000000 0.000000
# 2 -0.065157 0.073546 -0.001748 0.000000 0.000000 0.000000
# 3 -0.001747 -0.001748 0.010226 0.000000 0.000000 0.000000
# 4 0.000000 0.000000 0.000000 -0.084952 0.000000 0.000000
# 5 0.000000 0.000000 0.000000 0.000000 -0.084948 0.000000
# 6 0.000000 0.000000 0.000000 0.000000 0.000000 0.041206
#
#
# Mechanical properties :
#
#
# Convention : Reuss Voigt Hill
#
# Bulk Modulus (GPa) = 49.95827 49.95933 49.95880
# Shear Modulus (GPa) = 28.96739 9.23764 19.10251
#
# Velocity S-wave (km/s) = 3.94205 2.22611 3.20120
# Velocity P-wave (km/s) = 6.89348 5.78000 6.36115
#
# Compressibility (1/GPa) = 0.02001671
#
# Stress axis : x y z
#
# Youngs Moduli (GPa) = 13.59615 13.59690 97.78636
#
# Poissons Ratio (x) = 0.88593 0.17088
# Poissons Ratio (y) = 0.88589 0.17098
# Poissons Ratio (z) = 0.02376 0.02377
#
# Static dielectric constant tensor:
#      x y z
#    x 1.624730 0.000000 0.000000 
#    y 0.000000 1.624730 0.000000 
#    z 0.000000 0.000000 1.735010 
# 
# From -- ./inp_files/13016.got.cif
#   From: 2010.05.17/outbox.cif.g08.bks.cpg/sg139_7_cif.got.tgz:13016.got - 2010.05.20 13:14:44.
