data_PCOD9571620
_publ_section_title
;
Structure prediction by ZEFSAII (Michael W. Deem and Ramdas Pophale) SiO2 
 PCOD9571620
Probable space group: I 4/M M M
;
_chemical_formula_sum "Si O2"
_cell_formula_units_Z 192
_cell_length_a 17.639096
_cell_length_b 17.639096
_cell_length_c 32.852161
_cell_angle_alpha 90.000000
_cell_angle_beta 90.000000
_cell_angle_gamma 90.000000
_cell_volume 10221.546066
_symmetry_space_group_name_H-M "I 4/M M M"
_symmetry_group_IT_number 139
_symmetry_cell_setting 'tetragonal'
loop_
_space_group_symop_operation_xyz
x,y,z
-y,x,z
-x,-y,z
y,-x,z
x,-y,-z
-x,y,-z
y,x,-z
-y,-x,-z
-x,-y,-z
y,-x,-z
x,y,-z
-y,x,-z
-x,y,z
x,-y,z
-y,-x,z
y,x,z
1/2+x,1/2+y,1/2+z
1/2-y,1/2+x,1/2+z
1/2-x,1/2-y,1/2+z
1/2+y,1/2-x,1/2+z
1/2+x,1/2-y,1/2-z
1/2-x,1/2+y,1/2-z
1/2+y,1/2+x,1/2-z
1/2-y,1/2-x,1/2-z
1/2-x,1/2-y,1/2-z
1/2+y,1/2-x,1/2-z
1/2+x,1/2+y,1/2-z
1/2-y,1/2+x,1/2-z
1/2-x,1/2+y,1/2+z
1/2+x,1/2-y,1/2+z
1/2-y,1/2-x,1/2+z
1/2+y,1/2+x,1/2+z
loop_
_atom_site_type_symbol
_atom_site_label
_atom_site_fract_x
_atom_site_fract_y
_atom_site_fract_z
Si Si1 0.284241 0.409598 0.399738
Si Si2 0.910164 0.500000 0.048869
Si Si3 0.814810 0.355935 0.926557
Si Si4 0.908140 0.789891 0.500000
Si Si5 0.587826 0.189177 0.683255
Si Si6 0.910023 0.791344 0.742983
Si Si7 0.588995 0.217307 0.157759
O O1 0.289546 0.500000 0.409698
O O2 0.363032 0.363032 0.401799
O O3 0.221911 0.362879 0.426514
O O4 0.248837 0.404670 0.354066
O O5 0.874179 0.574608 0.068881
O O6 0.000000 0.500000 0.053772
O O7 0.893592 0.500000 0.000000
O O8 0.755116 0.372803 0.961817
O O9 0.771677 0.364731 0.883611
O O10 0.874464 0.874464 0.500000
O O11 0.000000 0.787174 0.500000
O O12 0.500000 0.170770 0.687808
O O13 0.615713 0.228430 0.724562
O O14 0.634360 0.114831 0.672283
O O15 0.868479 0.868479 0.753297
O O16 0.893333 0.769111 0.696487
O O17 0.000000 0.797640 0.747281
O O18 0.500000 0.222785 0.149135
#
# Coordination Sequence:
#
# PCOD9571620 Si02
#       7
#    32  16  32  16  32  32  32
#     4  10  21  36  56  84 117 154 195 239 286 339
#     4  11  20  34  62  92 120 146 178 232 290 342
#     4  11  20  40  58  87 118 148 191 234 285 343
#     4  12  24  41  64  88 119 155 191 237 291 346
#     4   9  19  34  52  77 109 142 184 231 271 324
#     4  10  21  36  53  74 100 135 181 231 279 327
#     4  10  20  33  53  79 111 144 178 216 271 337
#
# _framework density 18.783850000000001
#
# number of rings (size 3 to 8) (size 9 to 14) (size 15 to 20)
#    0.000    1.750    2.500    2.000    0.000    6.083 
#    0.000    0.000    0.000    6.000    0.000    2.333 
#    0.000    2.000    0.000    0.000    0.000    0.167 
#
# Total GULP energy -535471.061087 kJ/mol
# GULP energy per Si atom -5577.823553 kJ/mol
# Density = 1.874110 g / cm^3
# Si number density = 18.783850 Si / 1000 Ang^3
#
#
#
# Elastic Constant Matrix: (Units=GPa)
#
#
# Indices 1 2 3 4 5 6 
#
# 1 61.2856 52.4386 6.9556 0.0000 0.0000 0.0000
# 2 52.4386 61.2856 6.9556 0.0000 0.0000 0.0000
# 3 6.9556 6.9556 67.7853 0.0000 0.0000 0.0000
# 4 0.0000 0.0000 0.0000 6.3204 0.0000 0.0000
# 5 0.0000 0.0000 0.0000 0.0000 6.3204 0.0000
# 6 0.0000 0.0000 0.0000 0.0000 0.0000 26.6415
#
#
#
# Elastic Compliance Matrix: (Units=1/GPa)
#
#
# Indices 1 2 3 4 5 6 
#
# 1 0.060969 -0.052064 -0.000914 0.000000 0.000000 0.000000
# 2 -0.052064 0.060969 -0.000914 0.000000 0.000000 0.000000
# 3 -0.000914 -0.000914 0.014940 0.000000 0.000000 0.000000
# 4 0.000000 0.000000 0.000000 0.158219 0.000000 0.000000
# 5 0.000000 0.000000 0.000000 0.000000 0.158219 0.000000
# 6 0.000000 0.000000 0.000000 0.000000 0.000000 0.037535
#
#
# Mechanical properties :
#
#
# Convention : Reuss Voigt Hill
#
# Bulk Modulus (GPa) = 34.37025 35.89509 35.13267
# Shear Modulus (GPa) = 8.21921 16.12357 12.17139
#
# Velocity S-wave (km/s) = 2.09408 2.93298 2.54829
# Velocity P-wave (km/s) = 4.91776 5.53361 5.23475
#
# Compressibility (1/GPa) = 0.02909493
#
# Stress axis : x y z
#
# Youngs Moduli (GPa) = 16.40191 16.40191 66.93446
#
# Poissons Ratio (x) = 0.85394 0.06116
# Poissons Ratio (y) = 0.85394 0.06116
# Poissons Ratio (z) = 0.01499 0.01499
#
# Static dielectric constant tensor:
#      x y z
#    x 1.634950 0.000000 0.000000 
#    y 0.000000 1.634950 0.000000 
#    z 0.000000 0.000000 1.679690 
# 
# From -- ./inp_files/14391.got.cif
#   From: 2010.05.17/outbox.cif.g08.bks.cpg/sg139_8_cif.got.tgz:14391.got - 2010.05.20 13:14:44.
