data_PCOD9571273
_publ_section_title
;
Structure prediction by ZEFSAII (Michael W. Deem and Ramdas Pophale) SiO2 
 PCOD9571273
Probable space group: I 4/M M M
;
_chemical_formula_sum "Si O2"
_cell_formula_units_Z 208
_cell_length_a 19.642168
_cell_length_b 19.642168
_cell_length_c 32.628142
_cell_angle_alpha 90.000000
_cell_angle_beta 90.000000
_cell_angle_gamma 90.000000
_cell_volume 12588.418897
_symmetry_space_group_name_H-M "I 4/M M M"
_symmetry_group_IT_number 139
_symmetry_cell_setting 'tetragonal'
loop_
_space_group_symop_operation_xyz
x,y,z
-y,x,z
-x,-y,z
y,-x,z
x,-y,-z
-x,y,-z
y,x,-z
-y,-x,-z
-x,-y,-z
y,-x,-z
x,y,-z
-y,x,-z
-x,y,z
x,-y,z
-y,-x,z
y,x,z
1/2+x,1/2+y,1/2+z
1/2-y,1/2+x,1/2+z
1/2-x,1/2-y,1/2+z
1/2+y,1/2-x,1/2+z
1/2+x,1/2-y,1/2-z
1/2-x,1/2+y,1/2-z
1/2+y,1/2+x,1/2-z
1/2-y,1/2-x,1/2-z
1/2-x,1/2-y,1/2-z
1/2+y,1/2-x,1/2-z
1/2+x,1/2+y,1/2-z
1/2-y,1/2+x,1/2-z
1/2-x,1/2+y,1/2+z
1/2+x,1/2-y,1/2+z
1/2-y,1/2-x,1/2+z
1/2+y,1/2+x,1/2+z
loop_
_atom_site_type_symbol
_atom_site_label
_atom_site_fract_x
_atom_site_fract_y
_atom_site_fract_z
Si Si1 0.647081 0.242980 0.332884
Si Si2 0.081438 0.192518 0.000000
Si Si3 0.268441 0.154294 0.074858
Si Si4 0.373407 0.261835 0.177076
Si Si5 0.075653 0.309958 0.755608
Si Si6 0.686865 0.573952 0.092271
Si Si7 0.324275 0.076867 0.548275
O O1 0.689417 0.310584 0.322213
O O2 0.624974 0.246621 0.380019
O O3 0.702018 0.181222 0.331541
O O4 0.592419 0.227470 0.298207
O O5 0.110176 0.233314 0.960566
O O6 0.119509 0.119509 0.000000
O O7 0.000000 0.188367 0.000000
O O8 0.229331 0.229331 0.073817
O O9 0.350342 0.154334 0.067973
O O10 0.329216 0.329216 0.185578
O O11 0.414847 0.239962 0.216915
O O12 0.415297 0.274762 0.135767
O O13 0.130964 0.369037 0.750000
O O14 0.000000 0.337898 0.756029
O O15 0.653580 0.500000 0.092363
O O16 0.633728 0.633728 0.087588
O O17 0.743874 0.576165 0.057427
O O18 0.338869 0.081017 0.500000
O O19 0.348582 0.000000 0.562374
#
# Coordination Sequence:
#
# PCOD9571273 Si02
#       7
#    32  16  32  32  32  32  32
#     4   9  17  30  50  75  96 120 156 206 258 292
#     4  10  22  37  57  83 107 135 166 204 256 310
#     4  10  18  32  54  77 102 132 171 213 252 302
#     4   9  16  29  49  70  91 116 155 205 249 287
#     4  10  20  32  46  66  95 129 160 195 239 295
#     4  10  19  29  43  65  93 127 165 204 247 293
#     4  10  19  30  48  74 101 129 165 208 248 290
#
# _framework density 16.523123999999999
#
# number of rings (size 3 to 8) (size 9 to 14) (size 15 to 20)
#    0.000    2.308    2.308    1.385    0.000    3.769 
#    0.000    0.000    0.000    0.923    0.000    2.154 
#    0.000    2.769    0.000    0.615    0.000    0.000 
#
# Total GULP energy -578942.727357 kJ/mol
# GULP energy per Si atom -5566.756994 kJ/mol
# Density = 1.648552 g / cm^3
# Si number density = 16.523124 Si / 1000 Ang^3
#
#
#
# Elastic Constant Matrix: (Units=GPa)
#
#
# Indices 1 2 3 4 5 6 
#
# 1 50.2344 4.9964 7.3926 0.0000 0.0000 0.0000
# 2 4.9964 50.2340 7.3925 0.0000 0.0000 0.0000
# 3 7.3926 7.3925 64.2592 0.0000 0.0000 0.0000
# 4 0.0000 0.0000 0.0000 7.2434 0.0000 0.0000
# 5 0.0000 0.0000 0.0000 0.0000 7.2438 0.0000
# 6 0.0000 0.0000 0.0000 0.0000 0.0000 3.2668
#
#
#
# Elastic Compliance Matrix: (Units=1/GPa)
#
#
# Indices 1 2 3 4 5 6 
#
# 1 0.020393 -0.001712 -0.002149 0.000000 0.000000 0.000000
# 2 -0.001712 0.020393 -0.002149 0.000000 0.000000 0.000000
# 3 -0.002149 -0.002149 0.016056 0.000000 0.000000 0.000000
# 4 0.000000 0.000000 0.000000 0.138056 0.000000 0.000000
# 5 0.000000 0.000000 0.000000 0.000000 0.138048 0.000000
# 6 0.000000 0.000000 0.000000 0.000000 0.000000 0.306108
#
#
# Mechanical properties :
#
#
# Convention : Reuss Voigt Hill
#
# Bulk Modulus (GPa) = 22.31031 22.69897 22.50464
# Shear Modulus (GPa) = 7.50731 13.21388 10.36060
#
# Velocity S-wave (km/s) = 2.13386 2.83100 2.50679
# Velocity P-wave (km/s) = 4.42752 4.94506 4.69343
#
# Compressibility (1/GPa) = 0.04482232
#
# Stress axis : x y z
#
# Youngs Moduli (GPa) = 49.03589 49.03549 62.28018
#
# Poissons Ratio (x) = 0.08395 0.13385
# Poissons Ratio (y) = 0.08395 0.13385
# Poissons Ratio (z) = 0.10539 0.10538
#
# Static dielectric constant tensor:
#      x y z
#    x 1.553670 0.000000 0.000000 
#    y 0.000000 1.553670 0.000000 
#    z 0.000000 0.000000 1.570710 
# 
# From -- ./inp_files/14531.got.cif
#   From: 2010.05.17/outbox.cif.g08.bks.cpg/sg139_8_cif.got.tgz:14531.got - 2010.05.20 13:14:44.
