data_PCOD9571628
_publ_section_title
;
Structure prediction by ZEFSAII (Michael W. Deem and Ramdas Pophale) SiO2 
 PCOD9571628
Probable space group: I 4/M M M
;
_chemical_formula_sum "Si O2"
_cell_formula_units_Z 80
_cell_length_a 22.851570
_cell_length_b 22.851570
_cell_length_c 7.344054
_cell_angle_alpha 90.000000
_cell_angle_beta 90.000000
_cell_angle_gamma 90.000000
_cell_volume 3835.022781
_symmetry_space_group_name_H-M "I 4/M M M"
_symmetry_group_IT_number 139
_symmetry_cell_setting 'tetragonal'
loop_
_space_group_symop_operation_xyz
x,y,z
-y,x,z
-x,-y,z
y,-x,z
x,-y,-z
-x,y,-z
y,x,-z
-y,-x,-z
-x,-y,-z
y,-x,-z
x,y,-z
-y,x,-z
-x,y,z
x,-y,z
-y,-x,z
y,x,z
1/2+x,1/2+y,1/2+z
1/2-y,1/2+x,1/2+z
1/2-x,1/2-y,1/2+z
1/2+y,1/2-x,1/2+z
1/2+x,1/2-y,1/2-z
1/2-x,1/2+y,1/2-z
1/2+y,1/2+x,1/2-z
1/2-y,1/2-x,1/2-z
1/2-x,1/2-y,1/2-z
1/2+y,1/2-x,1/2-z
1/2+x,1/2+y,1/2-z
1/2-y,1/2+x,1/2-z
1/2-x,1/2+y,1/2+z
1/2+x,1/2-y,1/2+z
1/2-y,1/2-x,1/2+z
1/2+y,1/2+x,1/2+z
loop_
_atom_site_type_symbol
_atom_site_label
_atom_site_fract_x
_atom_site_fract_y
_atom_site_fract_z
Si Si1 0.933397 0.658232 0.283458
Si Si2 0.230323 0.139161 0.719061
Si Si3 0.343710 0.567776 0.500000
O O1 0.937052 0.665995 0.500000
O O2 0.905072 0.594928 0.250000
O O3 0.885577 0.706516 0.219388
O O4 0.000000 0.665345 0.212518
O O5 0.227766 0.135217 0.500000
O O6 0.203274 0.203274 0.768261
O O7 0.187153 0.095216 0.822858
O O8 0.336703 0.500000 0.500000
O O9 0.409848 0.590152 0.500000
#
# Coordination Sequence:
#
# PCOD9571628 Si02
#       3
#    32  32  16
#     4  10  22  38  56  81 112 148 190 235 282 334
#     4   9  19  37  59  84 112 143 184 234 286 338
#     4  10  20  33  54  82 111 149 189 227 278 336
#
# _framework density 20.860372000000002
#
# number of rings (size 3 to 8) (size 9 to 14) (size 15 to 20)
#    0.000    2.400    0.000    1.200    2.800    4.600 
#    0.000    2.000    0.000    0.000    0.000    5.600 
#    0.000    0.000    0.000    0.000    0.000    0.000 
#
# Total GULP energy -222762.221338 kJ/mol
# GULP energy per Si atom -5569.055533 kJ/mol
# Density = 2.081289 g / cm^3
# Si number density = 20.860372 Si / 1000 Ang^3
#
#
#
# Elastic Constant Matrix: (Units=GPa)
#
#
# Indices 1 2 3 4 5 6 
#
# 1 83.5743 137.7051 3.7639 0.0000 0.0000 0.0000
# 2 137.7051 83.6005 3.7690 0.0000 0.0000 0.0000
# 3 3.7639 3.7690 62.7324 0.0000 0.0000 0.0000
# 4 0.0000 0.0000 0.0000 37.4257 0.0000 0.0000
# 5 0.0000 0.0000 0.0000 0.0000 37.5199 0.0000
# 6 0.0000 0.0000 0.0000 0.0000 0.0000 24.0679
#
#
#
# Elastic Compliance Matrix: (Units=1/GPa)
#
#
# Indices 1 2 3 4 5 6 
#
# 1 -0.006976 0.011503 -0.000273 0.000000 0.000000 0.000000
# 2 0.011503 -0.006974 -0.000271 0.000000 0.000000 0.000000
# 3 -0.000273 -0.000271 0.015973 0.000000 0.000000 0.000000
# 4 0.000000 0.000000 0.000000 0.026720 0.000000 0.000000
# 5 0.000000 0.000000 0.000000 0.000000 0.026653 0.000000
# 6 0.000000 0.000000 0.000000 0.000000 0.000000 0.041549
#
#
# Mechanical properties :
#
#
# Convention : Reuss Voigt Hill
#
# Bulk Modulus (GPa) = 41.76727 57.82038 49.79383
# Shear Modulus (GPa) = 60.23635 25.44732 42.84183
#
# Velocity S-wave (km/s) = 5.37947 3.49648 4.53674
# Velocity P-wave (km/s) = 7.65837 6.63916 7.16691
#
# Compressibility (1/GPa) = 0.02394219
#
# Stress axis : x y z
#
# Youngs Moduli (GPa) = -143.34625 -143.39023 62.60422
#
# Poissons Ratio (x) = 1.64945 0.01706
# Poissons Ratio (y) = 1.64894 0.01698
# Poissons Ratio (z) = -0.03907 -0.03889
#
# Static dielectric constant tensor:
#      x y z
#    x 1.761980 0.000000 0.000000 
#    y 0.000000 1.761980 0.000000 
#    z 0.000000 0.000000 1.636020 
# 
# From -- ./inp_files/983.got.cif
#   From: 2010.05.17/outbox.cif.g08.bks.cpg/sg139_1_cif.got.tgz:983.got - 2010.05.20 13:14:44.
