data_PCOD9571179
_publ_section_title
;
Structure prediction by ZEFSAII (Michael W. Deem and Ramdas Pophale) SiO2 
 PCOD9571179
Probable space group: I 4/M M M
;
_chemical_formula_sum "Si O2"
_cell_formula_units_Z 176
_cell_length_a 19.690605
_cell_length_b 19.690605
_cell_length_c 28.339749
_cell_angle_alpha 90.000000
_cell_angle_beta 90.000000
_cell_angle_gamma 90.000000
_cell_volume 10987.885364
_symmetry_space_group_name_H-M "I 4/M M M"
_symmetry_group_IT_number 139
_symmetry_cell_setting 'tetragonal'
loop_
_space_group_symop_operation_xyz
x,y,z
-y,x,z
-x,-y,z
y,-x,z
x,-y,-z
-x,y,-z
y,x,-z
-y,-x,-z
-x,-y,-z
y,-x,-z
x,y,-z
-y,x,-z
-x,y,z
x,-y,z
-y,-x,z
y,x,z
1/2+x,1/2+y,1/2+z
1/2-y,1/2+x,1/2+z
1/2-x,1/2-y,1/2+z
1/2+y,1/2-x,1/2+z
1/2+x,1/2-y,1/2-z
1/2-x,1/2+y,1/2-z
1/2+y,1/2+x,1/2-z
1/2-y,1/2-x,1/2-z
1/2-x,1/2-y,1/2-z
1/2+y,1/2-x,1/2-z
1/2+x,1/2+y,1/2-z
1/2-y,1/2+x,1/2-z
1/2-x,1/2+y,1/2+z
1/2+x,1/2-y,1/2+z
1/2-y,1/2-x,1/2+z
1/2+y,1/2+x,1/2+z
loop_
_atom_site_type_symbol
_atom_site_label
_atom_site_fract_x
_atom_site_fract_y
_atom_site_fract_z
Si Si1 0.756295 0.358452 0.731470
Si Si2 0.806885 0.922423 0.855754
Si Si3 0.306528 0.420702 0.176333
Si Si4 0.753629 0.636974 0.553891
Si Si5 0.191512 0.077229 0.500000
Si Si6 0.357337 0.758828 0.088585
O O1 0.706227 0.293774 0.725417
O O2 0.827052 0.327052 0.750000
O O3 0.749615 0.397087 0.681945
O O4 0.723829 0.404537 0.772330
O O5 0.871072 0.871072 0.851533
O O6 0.776621 0.914807 0.908243
O O7 0.825911 0.000000 0.845948
O O8 0.321500 0.500000 0.170463
O O9 0.373248 0.373248 0.170118
O O10 0.251459 0.395712 0.137738
O O11 0.763545 0.613397 0.500000
O O12 0.697972 0.697972 0.551839
O O13 0.821678 0.670677 0.575355
O O14 0.127916 0.127916 0.500000
O O15 0.235454 0.094620 0.546047
O O16 0.169416 0.000000 0.500000
O O17 0.295869 0.704131 0.090231
#
# Coordination Sequence:
#
# PCOD9571179 Si02
#       6
#    32  32  32  32  16  32
#     4   9  17  31  49  68  90 120 157 200 246 276
#     4  10  20  32  48  72 103 135 162 189 226 281
#     4  10  19  29  43  64  94 130 162 190 222 269
#     4   9  16  29  49  69  89 118 158 206 253 283
#     4  10  18  27  40  60  91 125 156 190 228 280
#     4   9  16  28  44  63  86 117 157 202 246 275
#
# _framework density 16.017641000000001
#
# number of rings (size 3 to 8) (size 9 to 14) (size 15 to 20)
#    0.000    2.545    0.909    2.182    0.000    5.182 
#    0.000    0.000    0.000    6.545    0.000    2.545 
#    0.000   38.545    0.000    0.000    0.000    0.000 
#
# Total GULP energy -490015.214243 kJ/mol
# GULP energy per Si atom -5568.354707 kJ/mol
# Density = 1.598118 g / cm^3
# Si number density = 16.017641 Si / 1000 Ang^3
#
#
#
# Elastic Constant Matrix: (Units=GPa)
#
#
# Indices 1 2 3 4 5 6 
#
# 1 40.0152 40.7257 26.2662 0.0000 0.0000 0.0000
# 2 40.7257 40.0152 26.2662 0.0000 0.0000 0.0000
# 3 26.2662 26.2662 93.4096 0.0000 0.0000 0.0000
# 4 0.0000 0.0000 0.0000 3.2891 0.0000 0.0000
# 5 0.0000 0.0000 0.0000 0.0000 3.2891 0.0000
# 6 0.0000 0.0000 0.0000 0.0000 0.0000 8.3708
#
#
#
# Elastic Compliance Matrix: (Units=1/GPa)
#
#
# Indices 1 2 3 4 5 6 
#
# 1 -0.696155 0.711313 -0.004263 0.000000 0.000000 0.000000
# 2 0.711313 -0.696155 -0.004263 0.000000 0.000000 0.000000
# 3 -0.004263 -0.004263 0.013103 0.000000 0.000000 0.000000
# 4 0.000000 0.000000 0.000000 0.304039 0.000000 0.000000
# 5 0.000000 0.000000 0.000000 0.000000 0.304039 0.000000
# 6 0.000000 0.000000 0.000000 0.000000 0.000000 0.119464
#
#
# Mechanical properties :
#
#
# Convention : Reuss Voigt Hill
#
# Bulk Modulus (GPa) = 37.92201 39.99513 38.95857
# Shear Modulus (GPa) = -2.44087 8.33523 2.94718
#
# Velocity S-wave (km/s) = -1.23579 2.28366 1.35792
# Velocity P-wave (km/s) = 4.65729 5.65483 5.18013
#
# Compressibility (1/GPa) = 0.02636991
#
# Stress axis : x y z
#
# Youngs Moduli (GPa) = -1.43646 -1.43646 76.32007
#
# Poissons Ratio (x) = 1.02177 0.32531
# Poissons Ratio (y) = 1.02177 0.32531
# Poissons Ratio (z) = -0.00612 -0.00612
#
# Static dielectric constant tensor:
#      x y z
#    x 1.523710 0.000000 0.000000 
#    y 0.000000 1.523710 0.000000 
#    z 0.000000 0.000000 1.572200 
# 
# From -- ./inp_files/14218.got.cif
#   From: 2010.05.17/outbox.cif.g08.bks.cpg/sg139_8_cif.got.tgz:14218.got - 2010.05.20 13:14:44.
