data_PCOD9571760
_publ_section_title
;
Structure prediction by ZEFSAII (Michael W. Deem and Ramdas Pophale) SiO2 
 PCOD9571760
Probable space group: I 4/M M M
;
_chemical_formula_sum "Si O2"
_cell_formula_units_Z 120
_cell_length_a 20.158375
_cell_length_b 20.158375
_cell_length_c 15.746165
_cell_angle_alpha 90.000000
_cell_angle_beta 90.000000
_cell_angle_gamma 90.000000
_cell_volume 6398.612911
_symmetry_space_group_name_H-M "I 4/M M M"
_symmetry_group_IT_number 139
_symmetry_cell_setting 'tetragonal'
loop_
_space_group_symop_operation_xyz
x,y,z
-y,x,z
-x,-y,z
y,-x,z
x,-y,-z
-x,y,-z
y,x,-z
-y,-x,-z
-x,-y,-z
y,-x,-z
x,y,-z
-y,x,-z
-x,y,z
x,-y,z
-y,-x,z
y,x,z
1/2+x,1/2+y,1/2+z
1/2-y,1/2+x,1/2+z
1/2-x,1/2-y,1/2+z
1/2+y,1/2-x,1/2+z
1/2+x,1/2-y,1/2-z
1/2-x,1/2+y,1/2-z
1/2+y,1/2+x,1/2-z
1/2-y,1/2-x,1/2-z
1/2-x,1/2-y,1/2-z
1/2+y,1/2-x,1/2-z
1/2+x,1/2+y,1/2-z
1/2-y,1/2+x,1/2-z
1/2-x,1/2+y,1/2+z
1/2+x,1/2-y,1/2+z
1/2-y,1/2-x,1/2+z
1/2+y,1/2+x,1/2+z
loop_
_atom_site_type_symbol
_atom_site_label
_atom_site_fract_x
_atom_site_fract_y
_atom_site_fract_z
Si Si1 0.500000 0.795019 0.598052
Si Si2 0.373720 0.626280 0.819639
Si Si3 0.858953 0.644268 0.146569
Si Si4 0.577353 0.422648 0.000000
Si Si5 0.236168 0.763833 0.348134
Si Si6 0.500000 0.697526 0.246507
Si Si7 0.805356 0.500000 0.097249
O O1 0.500000 0.774613 0.500000
O O2 0.567734 0.835119 0.617074
O O3 0.500000 0.735247 0.664900
O O4 0.319496 0.680505 0.842719
O O5 0.433927 0.655929 0.766670
O O6 0.396348 0.603653 0.911913
O O7 0.857075 0.642926 0.250000
O O8 0.803166 0.699312 0.117759
O O9 0.842962 0.570060 0.113031
O O10 0.590607 0.500000 0.000000
O O11 0.250000 0.750000 0.250000
O O12 0.500000 0.748840 0.168169
O O13 0.780892 0.500000 0.000000
#
# Coordination Sequence:
#
# PCOD9571760 Si02
#       7
#    16  16  32   8  16  16  16
#     4  12  26  47  68  93 132 182 236 288 340 397
#     4  12  23  40  68  98 139 180 219 273 340 412
#     4  11  21  43  67  97 131 174 223 283 339 400
#     4  11  24  40  60 104 148 178 216 268 340 437
#     4  10  20  37  66  93 124 170 223 273 334 397
#     4  12  24  43  65  98 138 180 221 272 341 393
#     4  12  24  39  64 100 136 170 213 262 334 409
#
# _framework density 18.754065000000001
#
# number of rings (size 3 to 8) (size 9 to 14) (size 15 to 20)
#    0.000    0.600    6.667    2.400    1.867    0.800 
#    2.400    4.667    0.000    0.000    0.000    0.933 
#    0.000    0.000    0.000    0.000    0.000    0.000 
#
# Total GULP energy -334978.329620 kJ/mol
# GULP energy per Si atom -5582.972160 kJ/mol
# Density = 1.871138 g / cm^3
# Si number density = 18.754065 Si / 1000 Ang^3
#
#
#
# Elastic Constant Matrix: (Units=GPa)
#
#
# Indices 1 2 3 4 5 6 
#
# 1 159.0351 92.0827 51.1845 0.0000 0.0000 0.0000
# 2 92.0827 159.0356 51.1843 0.0000 0.0000 0.0000
# 3 51.1845 51.1843 145.1130 0.0000 0.0000 0.0000
# 4 0.0000 0.0000 0.0000 -79.9764 0.0000 0.0000
# 5 0.0000 0.0000 0.0000 0.0000 -81.1978 0.0000
# 6 0.0000 0.0000 0.0000 0.0000 0.0000 56.1542
#
#
#
# Elastic Compliance Matrix: (Units=1/GPa)
#
#
# Indices 1 2 3 4 5 6 
#
# 1 0.009793 -0.005142 -0.001641 0.000000 0.000000 0.000000
# 2 -0.005142 0.009793 -0.001640 0.000000 0.000000 0.000000
# 3 -0.001641 -0.001640 0.008048 0.000000 0.000000 0.000000
# 4 0.000000 0.000000 0.000000 -0.012504 0.000000 0.000000
# 5 0.000000 0.000000 0.000000 0.000000 -0.012316 0.000000
# 6 0.000000 0.000000 0.000000 0.000000 0.000000 0.017808
#
#
# Mechanical properties :
#
#
# Convention : Reuss Voigt Hill
#
# Bulk Modulus (GPa) = 92.69224 94.67630 93.68427
# Shear Modulus (GPa) = 121.75167 -3.08853 59.33157
#
# Velocity S-wave (km/s) = 8.06605 -1.28469 5.63075
# Velocity P-wave (km/s) = 11.67393 6.95644 9.60918
#
# Compressibility (1/GPa) = 0.01078839
#
# Stress axis : x y z
#
# Youngs Moduli (GPa) = 102.10899 102.10948 124.24757
#
# Poissons Ratio (x) = 0.52510 0.20383
# Poissons Ratio (y) = 0.52510 0.20382
# Poissons Ratio (z) = 0.16751 0.16751
#
# Static dielectric constant tensor:
#      x y z
#    x 1.659140 0.000000 0.000000 
#    y 0.000000 1.659140 0.000000 
#    z 0.000000 0.000000 1.616200 
# 
# From -- ./inp_files/5402.got.cif
#   From: 2010.05.17/outbox.cif.g08.bks.cpg/sg139_3_cif.got.tgz:5402.got - 2010.05.20 13:14:44.
