data_PCOD9571215
_publ_section_title
;
Structure prediction by ZEFSAII (Michael W. Deem and Ramdas Pophale) SiO2 
 PCOD9571215
Probable space group: I 4/M M M
;
_chemical_formula_sum "Si O2"
_cell_formula_units_Z 240
_cell_length_a 27.249615
_cell_length_b 27.249615
_cell_length_c 19.592895
_cell_angle_alpha 90.000000
_cell_angle_beta 90.000000
_cell_angle_gamma 90.000000
_cell_volume 14548.537988
_symmetry_space_group_name_H-M "I 4/M M M"
_symmetry_group_IT_number 139
_symmetry_cell_setting 'tetragonal'
loop_
_space_group_symop_operation_xyz
x,y,z
-y,x,z
-x,-y,z
y,-x,z
x,-y,-z
-x,y,-z
y,x,-z
-y,-x,-z
-x,-y,-z
y,-x,-z
x,y,-z
-y,x,-z
-x,y,z
x,-y,z
-y,-x,z
y,x,z
1/2+x,1/2+y,1/2+z
1/2-y,1/2+x,1/2+z
1/2-x,1/2-y,1/2+z
1/2+y,1/2-x,1/2+z
1/2+x,1/2-y,1/2-z
1/2-x,1/2+y,1/2-z
1/2+y,1/2+x,1/2-z
1/2-y,1/2-x,1/2-z
1/2-x,1/2-y,1/2-z
1/2+y,1/2-x,1/2-z
1/2+x,1/2+y,1/2-z
1/2-y,1/2+x,1/2-z
1/2-x,1/2+y,1/2+z
1/2+x,1/2-y,1/2+z
1/2-y,1/2-x,1/2+z
1/2+y,1/2+x,1/2+z
loop_
_atom_site_type_symbol
_atom_site_label
_atom_site_fract_x
_atom_site_fract_y
_atom_site_fract_z
Si Si1 0.392371 0.312527 0.820008
Si Si2 0.261526 0.941365 0.578163
Si Si3 0.140134 0.941814 0.811213
Si Si4 0.628712 0.085789 0.582527
Si Si5 0.881251 0.200442 0.919004
Si Si6 0.231969 0.687188 0.811161
Si Si7 0.309244 0.151082 0.918601
Si Si8 0.056569 0.500000 0.916486
O O1 0.357353 0.357353 0.843995
O O2 0.421505 0.283937 0.878447
O O3 0.425822 0.333115 0.759175
O O4 0.355167 0.270406 0.793804
O O5 0.258266 0.923154 0.500000
O O6 0.315842 0.927245 0.605692
O O7 0.259884 0.000000 0.577297
O O8 0.089809 0.910192 0.814747
O O9 0.174328 0.922078 0.872863
O O10 0.132710 0.000000 0.814249
O O11 0.630290 0.080861 0.500000
O O12 0.618852 0.142764 0.598065
O O13 0.587735 0.047566 0.606065
O O14 0.831535 0.168466 0.909038
O O15 0.871163 0.256711 0.898735
O O16 0.893033 0.198831 0.000000
O O17 0.263286 0.736715 0.817837
O O18 0.193894 0.693894 0.750000
O O19 0.202360 0.681558 0.880766
O O20 0.307853 0.158483 0.000000
O O21 0.000000 0.500000 0.894189
O O22 0.055914 0.500000 0.000000
#
# Coordination Sequence:
#
# PCOD9571215 Si02
#       8
#    32  32  32  32  32  32  32  16
#     4  10  20  32  47  71 103 137 169 206 254 305
#     4  10  18  30  48  69  98 135 174 216 260 302
#     4  10  21  38  58  78 102 131 169 217 263 314
#     4   9  16  27  43  67  96 127 168 214 254 297
#     4   9  18  33  53  77 106 140 168 193 244 314
#     4  10  19  29  43  66  99 137 170 198 233 282
#     4  10  18  29  47  72 104 137 171 209 245 292
#     4   9  16  28  46  66  94 130 166 214 270 308
#
# _framework density 16.496502
#
# number of rings (size 3 to 8) (size 9 to 14) (size 15 to 20)
#    0.000    2.333    2.000    1.600    0.000    3.600 
#    0.000    2.000    0.000    2.400    0.000    1.867 
#    0.000    0.000    0.000   12.400    0.000    0.133 
#
# Total GULP energy -668431.159599 kJ/mol
# GULP energy per Si atom -5570.259663 kJ/mol
# Density = 1.645896 g / cm^3
# Si number density = 16.496502 Si / 1000 Ang^3
#
#
#
# Elastic Constant Matrix: (Units=GPa)
#
#
# Indices 1 2 3 4 5 6 
#
# 1 120.3797 71.5572 40.3459 0.0000 0.0000 0.0000
# 2 71.5572 120.3797 40.3459 0.0000 0.0000 0.0000
# 3 40.3459 40.3459 37.3790 0.0000 0.0000 0.0000
# 4 0.0000 0.0000 0.0000 18.8262 0.0000 0.0000
# 5 0.0000 0.0000 0.0000 0.0000 18.8262 0.0000
# 6 0.0000 0.0000 0.0000 0.0000 0.0000 17.4277
#
#
#
# Elastic Compliance Matrix: (Units=1/GPa)
#
#
# Indices 1 2 3 4 5 6 
#
# 1 0.015010 -0.005472 -0.010295 0.000000 0.000000 0.000000
# 2 -0.005472 0.015010 -0.010295 0.000000 0.000000 0.000000
# 3 -0.010295 -0.010295 0.048978 0.000000 0.000000 0.000000
# 4 0.000000 0.000000 0.000000 0.053117 0.000000 0.000000
# 5 0.000000 0.000000 0.000000 0.000000 0.053117 0.000000
# 6 0.000000 0.000000 0.000000 0.000000 0.000000 0.057380
#
#
# Mechanical properties :
#
#
# Convention : Reuss Voigt Hill
#
# Bulk Modulus (GPa) = 37.21186 64.73736 50.97461
# Shear Modulus (GPa) = 16.46380 19.40866 17.93623
#
# Velocity S-wave (km/s) = 3.16257 3.43378 3.30096
# Velocity P-wave (km/s) = 5.99518 7.41953 6.74506
#
# Compressibility (1/GPa) = 0.02687316
#
# Stress axis : x y z
#
# Youngs Moduli (GPa) = 66.62073 66.62073 20.41731
#
# Poissons Ratio (x) = 0.36455 0.21020
# Poissons Ratio (y) = 0.36455 0.21020
# Poissons Ratio (z) = 0.68589 0.68589
#
# Static dielectric constant tensor:
#      x y z
#    x 1.557460 0.000000 0.000000 
#    y 0.000000 1.557460 0.000000 
#    z 0.000000 0.000000 1.562450 
# 
# From -- ./inp_files/9091.got.cif
#   From: 2010.05.17/outbox.cif.g08.bks.cpg/sg139_5_cif.got.tgz:9091.got - 2010.05.20 13:14:44.
