data_PCOD9571149
_publ_section_title
;
Structure prediction by ZEFSAII (Michael W. Deem and Ramdas Pophale) SiO2 
 PCOD9571149
Probable space group: I 4/M M M
;
_chemical_formula_sum "Si O2"
_cell_formula_units_Z 116
_cell_length_a 27.861288
_cell_length_b 27.861288
_cell_length_c 8.858412
_cell_angle_alpha 90.000000
_cell_angle_beta 90.000000
_cell_angle_gamma 90.000000
_cell_volume 6876.354442
_symmetry_space_group_name_H-M "I 4/M M M"
_symmetry_group_IT_number 139
_symmetry_cell_setting 'tetragonal'
loop_
_space_group_symop_operation_xyz
x,y,z
-y,x,z
-x,-y,z
y,-x,z
x,-y,-z
-x,y,-z
y,x,-z
-y,-x,-z
-x,-y,-z
y,-x,-z
x,y,-z
-y,x,-z
-x,y,z
x,-y,z
-y,-x,z
y,x,z
1/2+x,1/2+y,1/2+z
1/2-y,1/2+x,1/2+z
1/2-x,1/2-y,1/2+z
1/2+y,1/2-x,1/2+z
1/2+x,1/2-y,1/2-z
1/2-x,1/2+y,1/2-z
1/2+y,1/2+x,1/2-z
1/2-y,1/2-x,1/2-z
1/2-x,1/2-y,1/2-z
1/2+y,1/2-x,1/2-z
1/2+x,1/2+y,1/2-z
1/2-y,1/2+x,1/2-z
1/2-x,1/2+y,1/2+z
1/2+x,1/2-y,1/2+z
1/2-y,1/2-x,1/2+z
1/2+y,1/2+x,1/2+z
loop_
_atom_site_type_symbol
_atom_site_label
_atom_site_fract_x
_atom_site_fract_y
_atom_site_fract_z
Si Si1 0.171815 0.094523 0.319210
Si Si2 0.000000 0.000000 0.781513
Si Si3 0.943788 0.266767 0.820017
Si Si4 0.630269 0.055991 0.680622
Si Si5 0.391888 0.500000 0.819887
O O1 0.179085 0.096385 0.500000
O O2 0.140941 0.140941 0.273494
O O3 0.222417 0.087224 0.238942
O O4 0.139318 0.047344 0.289901
O O5 0.940992 0.000000 0.770758
O O6 0.930782 0.317254 0.744005
O O7 0.000000 0.257107 0.781117
O O8 0.940294 0.271046 0.000000
O O9 0.630266 0.059877 0.500000
O O10 0.590004 0.090004 0.750000
O O11 0.621872 0.000000 0.721086
O O12 0.404915 0.500000 0.000000
#
# Coordination Sequence:
#
# PCOD9571149 Si02
#       5
#    32   4  32  32  16
#     4  10  19  30  47  72 100 135 180 232 282 327
#     4  12  17  24  40  68 105 142 181 224 285 346
#     4  10  20  34  53  76 104 142 185 228 271 321
#     4  10  21  37  59  87 118 150 180 214 254 305
#     4  10  17  24  39  65  98 133 173 224 276 328
#
# _framework density 16.869403999999999
#
# number of rings (size 3 to 8) (size 9 to 14) (size 15 to 20)
#    0.000    1.931    2.759    2.276    0.000    3.586 
#    0.000    1.379    0.000    0.828    0.000    0.966 
#    0.000    0.000    0.000    0.000    0.000    0.000 
#
# Total GULP energy -323287.614988 kJ/mol
# GULP energy per Si atom -5573.924396 kJ/mol
# Density = 1.683101 g / cm^3
# Si number density = 16.869404 Si / 1000 Ang^3
#
#
#
# Elastic Constant Matrix: (Units=GPa)
#
#
# Indices 1 2 3 4 5 6 
#
# 1 118.1212 86.1590 49.7254 0.0000 0.0000 0.0000
# 2 86.1590 118.1212 49.7254 0.0000 0.0000 0.0000
# 3 49.7254 49.7254 39.7274 0.0000 0.0000 0.0000
# 4 0.0000 0.0000 0.0000 14.6529 0.0000 0.0000
# 5 0.0000 0.0000 0.0000 0.0000 14.6529 0.0000
# 6 0.0000 0.0000 0.0000 0.0000 0.0000 23.7122
#
#
#
# Elastic Compliance Matrix: (Units=1/GPa)
#
#
# Indices 1 2 3 4 5 6 
#
# 1 0.021909 -0.009378 -0.015685 0.000000 0.000000 0.000000
# 2 -0.009378 0.021909 -0.015685 0.000000 0.000000 0.000000
# 3 -0.015685 -0.015685 0.064436 0.000000 0.000000 0.000000
# 4 0.000000 0.000000 0.000000 0.068246 0.000000 0.000000
# 5 0.000000 0.000000 0.000000 0.000000 0.068246 0.000000
# 6 0.000000 0.000000 0.000000 0.000000 0.000000 0.042172
#
#
# Mechanical properties :
#
#
# Convention : Reuss Voigt Hill
#
# Bulk Modulus (GPa) = 37.37072 71.90995 54.64033
# Shear Modulus (GPa) = 13.25090 16.62761 14.93926
#
# Velocity S-wave (km/s) = 2.80572 3.14294 2.97910
# Velocity P-wave (km/s) = 5.71814 7.47601 6.65537
#
# Compressibility (1/GPa) = 0.02675892
#
# Stress axis : x y z
#
# Youngs Moduli (GPa) = 45.64315 45.64315 15.51927
#
# Poissons Ratio (x) = 0.42804 0.24342
# Poissons Ratio (y) = 0.42804 0.24342
# Poissons Ratio (z) = 0.71591 0.71591
#
# Static dielectric constant tensor:
#      x y z
#    x 1.548870 0.000000 0.000000 
#    y 0.000000 1.548870 0.000000 
#    z 0.000000 0.000000 1.578680 
# 
# From -- ./inp_files/1519.got.cif
#   From: 2010.05.17/outbox.cif.g08.bks.cpg/sg139_1_cif.got.tgz:1519.got - 2010.05.20 13:14:44.
