data_PCOD9571286
_publ_section_title
;
Structure prediction by ZEFSAII (Michael W. Deem and Ramdas Pophale) SiO2 
 PCOD9571286
Probable space group: I 4/M M M
;
_chemical_formula_sum "Si O2"
_cell_formula_units_Z 192
_cell_length_a 26.448003
_cell_length_b 26.448003
_cell_length_c 15.744256
_cell_angle_alpha 90.000000
_cell_angle_beta 90.000000
_cell_angle_gamma 90.000000
_cell_volume 11013.057677
_symmetry_space_group_name_H-M "I 4/M M M"
_symmetry_group_IT_number 139
_symmetry_cell_setting 'tetragonal'
loop_
_space_group_symop_operation_xyz
x,y,z
-y,x,z
-x,-y,z
y,-x,z
x,-y,-z
-x,y,-z
y,x,-z
-y,-x,-z
-x,-y,-z
y,-x,-z
x,y,-z
-y,x,-z
-x,y,z
x,-y,z
-y,-x,z
y,x,z
1/2+x,1/2+y,1/2+z
1/2-y,1/2+x,1/2+z
1/2-x,1/2-y,1/2+z
1/2+y,1/2-x,1/2+z
1/2+x,1/2-y,1/2-z
1/2-x,1/2+y,1/2-z
1/2+y,1/2+x,1/2-z
1/2-y,1/2-x,1/2-z
1/2-x,1/2-y,1/2-z
1/2+y,1/2-x,1/2-z
1/2+x,1/2+y,1/2-z
1/2-y,1/2+x,1/2-z
1/2-x,1/2+y,1/2+z
1/2+x,1/2-y,1/2+z
1/2-y,1/2-x,1/2+z
1/2+y,1/2+x,1/2+z
loop_
_atom_site_type_symbol
_atom_site_label
_atom_site_fract_x
_atom_site_fract_y
_atom_site_fract_z
Si Si1 0.500000 0.083736 0.599811
Si Si2 0.912932 0.607939 0.651411
Si Si3 0.689473 0.000000 0.653458
Si Si4 0.609396 0.201799 0.592953
Si Si5 0.247869 0.166500 0.753608
Si Si6 0.700390 0.500000 0.095445
Si Si7 0.801639 0.112836 0.399768
Si Si8 0.697029 0.000000 0.150883
O O1 0.500000 0.094815 0.500000
O O2 0.554865 0.061519 0.621810
O O3 0.500000 0.135837 0.652153
O O4 0.898971 0.601030 0.750000
O O5 0.858913 0.615775 0.605761
O O6 0.951143 0.654123 0.640688
O O7 0.738615 0.000000 0.595854
O O8 0.710817 0.000000 0.750184
O O9 0.628999 0.215527 0.500000
O O10 0.632603 0.233314 0.669481
O O11 0.549854 0.211755 0.601449
O O12 0.195494 0.195494 0.771476
O O13 0.290774 0.209227 0.750000
O O14 0.239519 0.136811 0.664861
O O15 0.686558 0.555525 0.130382
O O16 0.679702 0.500000 0.000000
O O17 0.785644 0.111223 0.500000
O O18 0.850316 0.149685 0.396233
#
# Coordination Sequence:
#
# PCOD9571286 Si02
#       8
#    16  32  16  32  32  16  32  16
#     4  10  20  35  51  66  91 122 165 219 273 336
#     4  11  20  36  51  72  94 131 177 225 280 333
#     4  12  22  33  54  72 101 134 173 231 283 328
#     4  11  22  35  55  75 103 137 173 223 274 324
#     4  10  22  37  53  77 107 140 185 224 261 320
#     4  10  22  34  51  83 112 136 173 219 267 336
#     4   9  19  38  61  83 112 148 181 224 280 332
#     4  10  18  34  52  74  93 124 172 215 262 317
#
# _framework density 17.433852000000002
#
# number of rings (size 3 to 8) (size 9 to 14) (size 15 to 20)
#    0.000    1.667    3.333    3.750    2.333    2.667 
#    0.000    2.917    0.000    0.250    0.000    1.750 
#    0.000    0.000    0.000    0.000    0.000    0.000 
#
# Total GULP energy -535261.462262 kJ/mol
# GULP energy per Si atom -5575.640232 kJ/mol
# Density = 1.739417 g / cm^3
# Si number density = 17.433852 Si / 1000 Ang^3
#
#
#
# Elastic Constant Matrix: (Units=GPa)
#
#
# Indices 1 2 3 4 5 6 
#
# 1 68.8470 25.8045 32.1191 0.0000 0.0000 0.0000
# 2 25.8045 68.8469 32.1187 0.0000 0.0000 0.0000
# 3 32.1191 32.1187 100.0504 0.0000 0.0000 0.0000
# 4 0.0000 0.0000 0.0000 8.5304 0.0000 0.0000
# 5 0.0000 0.0000 0.0000 0.0000 8.5289 0.0000
# 6 0.0000 0.0000 0.0000 0.0000 0.0000 19.6615
#
#
#
# Elastic Compliance Matrix: (Units=1/GPa)
#
#
# Indices 1 2 3 4 5 6 
#
# 1 0.018371 -0.004862 -0.004337 0.000000 0.000000 0.000000
# 2 -0.004862 0.018370 -0.004336 0.000000 0.000000 0.000000
# 3 -0.004337 -0.004336 0.012779 0.000000 0.000000 0.000000
# 4 0.000000 0.000000 0.000000 0.117227 0.000000 0.000000
# 5 0.000000 0.000000 0.000000 0.000000 0.117248 0.000000
# 6 0.000000 0.000000 0.000000 0.000000 0.000000 0.050861
#
#
# Mechanical properties :
#
#
# Convention : Reuss Voigt Hill
#
# Bulk Modulus (GPa) = 44.54424 46.42542 45.48483
# Shear Modulus (GPa) = 13.53509 17.19099 15.36304
#
# Velocity S-wave (km/s) = 2.78936 3.14358 2.97175
# Velocity P-wave (km/s) = 5.99833 6.31375 6.15806
#
# Compressibility (1/GPa) = 0.02244959
#
# Stress axis : x y z
#
# Youngs Moduli (GPa) = 54.43501 54.43520 78.25203
#
# Poissons Ratio (x) = 0.26468 0.33934
# Poissons Ratio (y) = 0.26468 0.33933
# Poissons Ratio (z) = 0.23606 0.23605
#
# Static dielectric constant tensor:
#      x y z
#    x 1.623360 0.000000 0.000000 
#    y 0.000000 1.623360 0.000000 
#    z 0.000000 0.000000 1.616490 
# 
# From -- ./inp_files/6570.got.cif
#   From: 2010.05.17/outbox.cif.g08.bks.cpg/sg139_4_cif.got.tgz:6570.got - 2010.05.20 13:14:44.
