data_PCOD9571865
_publ_section_title
;
Structure prediction by ZEFSAII (Michael W. Deem and Ramdas Pophale) SiO2 
 PCOD9571865
Probable space group: I 4/M M M
;
_chemical_formula_sum "Si O2"
_cell_formula_units_Z 80
_cell_length_a 14.803994
_cell_length_b 14.803994
_cell_length_c 18.862088
_cell_angle_alpha 90.000000
_cell_angle_beta 90.000000
_cell_angle_gamma 90.000000
_cell_volume 4133.781978
_symmetry_space_group_name_H-M "I 4/M M M"
_symmetry_group_IT_number 139
_symmetry_cell_setting 'tetragonal'
loop_
_space_group_symop_operation_xyz
x,y,z
-y,x,z
-x,-y,z
y,-x,z
x,-y,-z
-x,y,-z
y,x,-z
-y,-x,-z
-x,-y,-z
y,-x,-z
x,y,-z
-y,x,-z
-x,y,z
x,-y,z
-y,-x,z
y,x,z
1/2+x,1/2+y,1/2+z
1/2-y,1/2+x,1/2+z
1/2-x,1/2-y,1/2+z
1/2+y,1/2-x,1/2+z
1/2+x,1/2-y,1/2-z
1/2-x,1/2+y,1/2-z
1/2+y,1/2+x,1/2-z
1/2-y,1/2-x,1/2-z
1/2-x,1/2-y,1/2-z
1/2+y,1/2-x,1/2-z
1/2+x,1/2+y,1/2-z
1/2-y,1/2+x,1/2-z
1/2-x,1/2+y,1/2+z
1/2+x,1/2-y,1/2+z
1/2-y,1/2-x,1/2+z
1/2+y,1/2+x,1/2+z
loop_
_atom_site_type_symbol
_atom_site_label
_atom_site_fract_x
_atom_site_fract_y
_atom_site_fract_z
Si Si1 0.197290 0.659454 0.581540
Si Si2 0.103104 0.248847 0.771649
Si Si3 0.500000 0.102429 0.915006
O O1 0.208548 0.627368 0.500000
O O2 0.241282 0.758719 0.584965
O O3 0.247454 0.603552 0.642275
O O4 0.092177 0.653703 0.600712
O O5 0.160125 0.160125 0.749702
O O6 0.165551 0.334450 0.750000
O O7 0.000000 0.252765 0.746683
O O8 0.500000 0.000000 0.884611
O O9 0.500000 0.092971 0.000000
#
# Coordination Sequence:
#
# PCOD9571865 Si02
#       3
#    32  32  16
#     4   9  18  33  53  78 109 140 171 217 272 320
#     4  10  22  38  56  81 111 143 181 223 269 322
#     4   9  16  26  46  75 101 131 172 209 249 306
#
# _framework density 19.352740000000001
#
# number of rings (size 3 to 8) (size 9 to 14) (size 15 to 20)
#    0.000    2.600    0.000    1.200    2.800    3.200 
#    0.000    0.000    0.000    0.600    0.000    9.800 
#    0.000    0.000    0.000    0.000    0.000    0.000 
#
# Total GULP energy -222770.123365 kJ/mol
# GULP energy per Si atom -5569.253084 kJ/mol
# Density = 1.930869 g / cm^3
# Si number density = 19.352740 Si / 1000 Ang^3
#
#
#
# Elastic Constant Matrix: (Units=GPa)
#
#
# Indices 1 2 3 4 5 6 
#
# 1 146.6154 85.7637 8.7810 0.0000 0.0000 0.0000
# 2 85.7637 146.6148 8.7807 0.0000 0.0000 0.0000
# 3 8.7810 8.7807 74.1781 0.0000 0.0000 0.0000
# 4 0.0000 0.0000 0.0000 14.8014 0.0000 0.0000
# 5 0.0000 0.0000 0.0000 0.0000 14.8016 0.0000
# 6 0.0000 0.0000 0.0000 0.0000 0.0000 7.9474
#
#
#
# Elastic Compliance Matrix: (Units=1/GPa)
#
#
# Indices 1 2 3 4 5 6 
#
# 1 0.010388 -0.006046 -0.000514 0.000000 0.000000 0.000000
# 2 -0.006046 0.010388 -0.000514 0.000000 0.000000 0.000000
# 3 -0.000514 -0.000514 0.013603 0.000000 0.000000 0.000000
# 4 0.000000 0.000000 0.000000 0.067561 0.000000 0.000000
# 5 0.000000 0.000000 0.000000 0.000000 0.067560 0.000000
# 6 0.000000 0.000000 0.000000 0.000000 0.000000 0.125828
#
#
# Mechanical properties :
#
#
# Convention : Reuss Voigt Hill
#
# Bulk Modulus (GPa) = 49.42892 63.78434 56.60663
# Shear Modulus (GPa) = 15.81183 25.11560 20.46372
#
# Velocity S-wave (km/s) = 2.86148 3.60638 3.25531
# Velocity P-wave (km/s) = 6.04267 7.09730 6.59111
#
# Compressibility (1/GPa) = 0.02023107
#
# Stress axis : x y z
#
# Youngs Moduli (GPa) = 96.26688 96.26653 73.51447
#
# Poissons Ratio (x) = 0.58199 0.03779
# Poissons Ratio (y) = 0.58200 0.03778
# Poissons Ratio (z) = 0.04948 0.04948
#
# Static dielectric constant tensor:
#      x y z
#    x 1.678640 0.000000 0.000000 
#    y 0.000000 1.678640 0.000000 
#    z 0.000000 0.000000 1.768260 
# 
# From -- ./inp_files/9266.got.cif
#   From: 2010.05.17/outbox.cif.g08.bks.cpg/sg139_5_cif.got.tgz:9266.got - 2010.05.20 13:14:44.
