data_PCOD9571135
_publ_section_title
;
Structure prediction by ZEFSAII (Michael W. Deem and Ramdas Pophale) SiO2 
 PCOD9571135
Probable space group: P 42/N C M
;
_chemical_formula_sum "Si O2"
_cell_formula_units_Z 96
_cell_length_a 15.000000
_cell_length_b 15.000000
_cell_length_c 24.000000
_cell_angle_alpha 90.000000
_cell_angle_beta 90.000000
_cell_angle_gamma 90.000000
_cell_volume 5400.000000
_symmetry_space_group_name_H-M "P 42/N C M"
_symmetry_group_IT_number 138
_space_group.IT_coordinate_system_code '2'
_symmetry_cell_setting 'tetragonal'
loop_
_space_group_symop_operation_xyz
x,y,z
1/2-y,x,1/2+z
1/2-x,1/2-y,z
y,1/2-x,1/2+z
1/2+x,-y,1/2-z
-x,1/2+y,1/2-z
1/2+y,1/2+x,-z
-y,-x,-z
-x,-y,-z
1/2+y,-x,1/2-z
1/2+x,1/2+y,-z
-y,1/2+x,1/2-z
1/2-x,y,1/2+z
x,1/2-y,1/2+z
1/2-y,1/2-x,z
y,x,z
loop_
_atom_site_type_symbol
_atom_site_label
_atom_site_fract_x
_atom_site_fract_y
_atom_site_fract_z
Si Si1 0.320846 0.179155 0.630396
Si Si2 0.676129 0.676129 0.736771
Si Si3 0.113415 0.964062 0.865772
Si Si4 0.003235 0.353808 0.485171
Si Si5 0.469126 0.766409 0.222308
Si Si6 0.701108 0.349347 0.325120
Si Si7 0.476489 0.720686 0.903940
O O1 0.250000 0.250000 0.607175
O O2 0.318079 0.181922 0.696873
O O3 0.421117 0.209406 0.614953
O O4 0.750000 0.750000 0.714957
O O5 0.700874 0.572000 0.723958
O O6 0.174558 0.965533 0.812167
O O7 0.071512 0.869272 0.881208
O O8 0.168391 0.993191 0.920660
O O9 0.032879 0.032879 0.859924
O O10 0.098523 0.401478 0.494890
O O11 0.931094 0.431094 0.500000
O O12 0.982851 0.278688 0.529477
O O13 0.400797 0.832385 0.191470
O O14 0.416090 0.747207 0.280069
O O15 0.750000 0.250000 0.326614
O O16 0.706389 0.408621 0.380621
#
# Coordination Sequence:
#
# PCOD9571135 Si02
#       7
#     8   8  16  16  16  16  16
#     4  11  22  36  55  87 119 152 199 244 290 345
#     4  11  26  44  58  87 118 148 198 252 283 349
#     4  10  19  32  60  89 109 153 203 246 300 349
#     4   8  15  29  54  86 111 143 201 250 290 342
#     4  12  22  40  58  80 122 153 189 238 297 349
#     4  12  22  36  57  88 118 153 196 237 283 369
#     4  11  18  35  59  80 120 153 189 252 297 331
#
# _framework density 17.777778000000001
#
# number of rings (size 3 to 8) (size 9 to 14) (size 15 to 20)
#    0.000    1.333    6.667    1.500    0.000    0.000 
#    3.000    0.833    1.833    0.000    0.000    1.167 
#    0.000    0.000    0.000    0.000    0.000    0.000 
#
# Total GULP energy -534443.425961 kJ/mol
# GULP energy per Si atom -5567.119020 kJ/mol
# Density = 1.773731 g / cm^3
# Si number density = 17.777778 Si / 1000 Ang^3
#
#
#
# Elastic Constant Matrix: (Units=GPa)
#
#
# Indices 1 2 3 4 5 6 
#
# 1 72.7908 19.1068 -5.7518 0.0000 0.0000 0.0000
# 2 19.1068 72.7908 -5.7518 0.0000 0.0000 0.0000
# 3 -5.7518 -5.7518 41.6790 0.0000 0.0000 0.0000
# 4 0.0000 0.0000 0.0000 12.4746 0.0000 0.0000
# 5 0.0000 0.0000 0.0000 0.0000 12.4746 0.0000
# 6 0.0000 0.0000 0.0000 0.0000 0.0000 23.2111
#
#
#
# Elastic Compliance Matrix: (Units=1/GPa)
#
#
# Indices 1 2 3 4 5 6 
#
# 1 0.014850 -0.003777 0.001528 0.000000 0.000000 0.000000
# 2 -0.003777 0.014850 0.001528 0.000000 0.000000 0.000000
# 3 0.001528 0.001528 0.024415 0.000000 0.000000 0.000000
# 4 0.000000 0.000000 0.000000 0.080163 0.000000 0.000000
# 5 0.000000 0.000000 0.000000 0.000000 0.080163 0.000000
# 6 0.000000 0.000000 0.000000 0.000000 0.000000 0.043083
#
#
# Mechanical properties :
#
#
# Convention : Reuss Voigt Hill
#
# Bulk Modulus (GPa) = 18.98507 22.49632 20.74070
# Shear Modulus (GPa) = 18.08168 21.60924 19.84546
#
# Velocity S-wave (km/s) = 3.19265 3.49021 3.34474
# Velocity P-wave (km/s) = 4.92879 5.37808 5.15833
#
# Compressibility (1/GPa) = 0.05267296
#
# Stress axis : x y z
#
# Youngs Moduli (GPa) = 67.33897 67.33897 40.95903
#
# Poissons Ratio (x) = 0.25436 -0.06259
# Poissons Ratio (y) = 0.25436 -0.06259
# Poissons Ratio (z) = -0.10290 -0.10290
#
# Static dielectric constant tensor:
#      x y z
#    x 1.621440 0.000000 0.000000 
#    y 0.000000 1.621440 0.000000 
#    z 0.000000 0.000000 1.675050 
# 
# From -- ./inp_files/7007.got.cif
#   From: 2010.05.17/outbox.ucp.g08.bks.cvg/sg138_4_cif.got.tgz:7007.got - 2010.06.11 11:41:40.
