data_PCOD9571630
_publ_section_title
;
Structure prediction by ZEFSAII (Michael W. Deem and Ramdas Pophale) SiO2 
 PCOD9571630
Probable space group: I 4/M M M
;
_chemical_formula_sum "Si O2"
_cell_formula_units_Z 128
_cell_length_a 20.343120
_cell_length_b 20.343120
_cell_length_c 15.475398
_cell_angle_alpha 90.000000
_cell_angle_beta 90.000000
_cell_angle_gamma 90.000000
_cell_volume 6404.377882
_symmetry_space_group_name_H-M "I 4/M M M"
_symmetry_group_IT_number 139
_symmetry_cell_setting 'tetragonal'
loop_
_space_group_symop_operation_xyz
x,y,z
-y,x,z
-x,-y,z
y,-x,z
x,-y,-z
-x,y,-z
y,x,-z
-y,-x,-z
-x,-y,-z
y,-x,-z
x,y,-z
-y,x,-z
-x,y,z
x,-y,z
-y,-x,z
y,x,z
1/2+x,1/2+y,1/2+z
1/2-y,1/2+x,1/2+z
1/2-x,1/2-y,1/2+z
1/2+y,1/2-x,1/2+z
1/2+x,1/2-y,1/2-z
1/2-x,1/2+y,1/2-z
1/2+y,1/2+x,1/2-z
1/2-y,1/2-x,1/2-z
1/2-x,1/2-y,1/2-z
1/2+y,1/2-x,1/2-z
1/2+x,1/2+y,1/2-z
1/2-y,1/2+x,1/2-z
1/2-x,1/2+y,1/2+z
1/2+x,1/2-y,1/2+z
1/2-y,1/2-x,1/2+z
1/2+y,1/2+x,1/2+z
loop_
_atom_site_type_symbol
_atom_site_label
_atom_site_fract_x
_atom_site_fract_y
_atom_site_fract_z
Si Si1 0.742619 0.361173 0.835184
Si Si2 0.577447 0.691032 0.337070
Si Si3 0.072317 0.572317 0.750000
Si Si4 0.576066 0.674439 0.000000
Si Si5 0.331161 0.111309 0.900126
O O1 0.705976 0.294025 0.812763
O O2 0.725854 0.408745 0.755743
O O3 0.814989 0.342731 0.864930
O O4 0.708611 0.393502 0.917187
O O5 0.500000 0.672066 0.344630
O O6 0.629394 0.629394 0.346751
O O7 0.593168 0.753760 0.397790
O O8 0.078521 0.500000 0.791073
O O9 0.075043 0.626014 0.826476
O O10 0.500000 0.682008 0.000000
O O11 0.599371 0.599371 0.000000
O O12 0.353672 0.104084 0.000000
#
# Coordination Sequence:
#
# PCOD9571630 Si02
#       5
#    32  32  16  16  32
#     4  10  20  37  60  90 125 164 213 271 329 386
#     4  11  24  42  66  96 133 176 223 275 330 390
#     4  11  26  46  65  92 134 174 211 266 333 400
#     4  10  20  33  54  86 125 169 218 270 326 394
#     4  12  24  41  69 101 129 169 219 273 329 394
#
# _framework density 19.986328
#
# number of rings (size 3 to 8) (size 9 to 14) (size 15 to 20)
#    0.000    1.125    3.750    2.250    0.000    7.375 
#    0.000    1.250    0.000    4.500    0.000    1.750 
#    0.000    0.000    0.000    0.000    0.000    0.000 
#
# Total GULP energy -356674.669415 kJ/mol
# GULP energy per Si atom -5573.041710 kJ/mol
# Density = 1.994084 g / cm^3
# Si number density = 19.986328 Si / 1000 Ang^3
#
#
#
# Elastic Constant Matrix: (Units=GPa)
#
#
# Indices 1 2 3 4 5 6 
#
# 1 157.0458 37.3393 30.8646 0.0000 0.0000 0.0000
# 2 37.3393 157.0458 30.8646 0.0000 0.0000 0.0000
# 3 30.8646 30.8646 95.1639 0.0000 0.0000 0.0000
# 4 0.0000 0.0000 0.0000 16.3696 0.0000 0.0000
# 5 0.0000 0.0000 0.0000 0.0000 16.3696 0.0000
# 6 0.0000 0.0000 0.0000 0.0000 0.0000 16.1101
#
#
#
# Elastic Compliance Matrix: (Units=1/GPa)
#
#
# Indices 1 2 3 4 5 6 
#
# 1 0.007044 -0.001309 -0.001860 0.000000 0.000000 0.000000
# 2 -0.001309 0.007044 -0.001860 0.000000 0.000000 0.000000
# 3 -0.001860 -0.001860 0.011715 0.000000 0.000000 0.000000
# 4 0.000000 0.000000 0.000000 0.061089 0.000000 0.000000
# 5 0.000000 0.000000 0.000000 0.000000 0.061089 0.000000
# 6 0.000000 0.000000 0.000000 0.000000 0.000000 0.062073
#
#
# Mechanical properties :
#
#
# Convention : Reuss Voigt Hill
#
# Bulk Modulus (GPa) = 63.51355 67.48806 65.50080
# Shear Modulus (GPa) = 22.18661 30.44901 26.31781
#
# Velocity S-wave (km/s) = 3.33542 3.90743 3.63270
# Velocity P-wave (km/s) = 6.83234 7.36191 7.10206
#
# Compressibility (1/GPa) = 0.01574467
#
# Stress axis : x y z
#
# Youngs Moduli (GPa) = 141.95595 141.95595 85.36249
#
# Poissons Ratio (x) = 0.18587 0.15878
# Poissons Ratio (y) = 0.18587 0.15878
# Poissons Ratio (z) = 0.26405 0.26405
#
# Static dielectric constant tensor:
#      x y z
#    x 1.767030 0.000000 0.000000 
#    y 0.000000 1.767030 0.000000 
#    z 0.000000 0.000000 1.698610 
# 
# From -- ./inp_files/5496.got.cif
#   From: 2010.05.17/outbox.cif.g08.bks.cpg/sg139_3_cif.got.tgz:5496.got - 2010.05.20 13:14:44.
