data_PCOD9571531
_publ_section_title
;
Structure prediction by ZEFSAII (Michael W. Deem and Ramdas Pophale) SiO2 
 PCOD9571531
Probable space group: I 4/M M M
;
_chemical_formula_sum "Si O2"
_cell_formula_units_Z 192
_cell_length_a 28.535305
_cell_length_b 28.535305
_cell_length_c 14.194962
_cell_angle_alpha 90.000000
_cell_angle_beta 90.000000
_cell_angle_gamma 90.000000
_cell_volume 11558.441306
_symmetry_space_group_name_H-M "I 4/M M M"
_symmetry_group_IT_number 139
_symmetry_cell_setting 'tetragonal'
loop_
_space_group_symop_operation_xyz
x,y,z
-y,x,z
-x,-y,z
y,-x,z
x,-y,-z
-x,y,-z
y,x,-z
-y,-x,-z
-x,-y,-z
y,-x,-z
x,y,-z
-y,x,-z
-x,y,z
x,-y,z
-y,-x,z
y,x,z
1/2+x,1/2+y,1/2+z
1/2-y,1/2+x,1/2+z
1/2-x,1/2-y,1/2+z
1/2+y,1/2-x,1/2+z
1/2+x,1/2-y,1/2-z
1/2-x,1/2+y,1/2-z
1/2+y,1/2+x,1/2-z
1/2-y,1/2-x,1/2-z
1/2-x,1/2-y,1/2-z
1/2+y,1/2-x,1/2-z
1/2+x,1/2+y,1/2-z
1/2-y,1/2+x,1/2-z
1/2-x,1/2+y,1/2+z
1/2+x,1/2-y,1/2+z
1/2-y,1/2-x,1/2+z
1/2+y,1/2+x,1/2+z
loop_
_atom_site_type_symbol
_atom_site_label
_atom_site_fract_x
_atom_site_fract_y
_atom_site_fract_z
Si Si1 0.950540 0.420095 0.885927
Si Si2 0.349941 0.944565 0.605021
Si Si3 0.267142 0.343070 0.786999
Si Si4 0.819919 0.294704 0.889540
Si Si5 0.074884 0.315279 0.891927
Si Si6 0.242968 0.554296 0.780941
O O1 0.900654 0.437076 0.849470
O O2 0.949561 0.364390 0.872514
O O3 0.000000 0.439414 0.850594
O O4 0.949326 0.429239 0.000000
O O5 0.348674 0.922704 0.500000
O O6 0.304708 0.931628 0.663823
O O7 0.345867 0.000000 0.594656
O O8 0.313252 0.313252 0.807956
O O9 0.224789 0.323771 0.853160
O O10 0.248536 0.328908 0.681980
O O11 0.274263 0.399192 0.795746
O O12 0.869116 0.322548 0.878499
O O13 0.814662 0.282516 0.000000
O O14 0.056236 0.274397 0.826355
O O15 0.067445 0.303134 0.000000
O O16 0.256671 0.500000 0.804618
#
# Coordination Sequence:
#
# PCOD9571531 Si02
#       6
#    32  32  32  32  32  32
#     4   9  16  25  38  56  78 104 136 178 223 256
#     4   9  18  31  44  58  78 106 141 178 215 259
#     4  10  20  31  45  69  95 116 145 182 216 260
#     4   9  17  30  48  68  93 123 149 177 217 262
#     4   9  17  29  45  64  84 108 142 181 215 249
#     4  10  20  33  48  63  82 112 145 175 213 260
#
# _framework density 16.611236999999999
#
# number of rings (size 3 to 8) (size 9 to 14) (size 15 to 20)
#    0.000    2.667    0.000    2.500    0.000    6.667 
#    0.000    1.667    0.000    0.000    0.000    2.333 
#    0.000    0.333    0.000    0.000    0.000    0.000 
#
# Total GULP energy -534963.733225 kJ/mol
# GULP energy per Si atom -5572.538888 kJ/mol
# Density = 1.657343 g / cm^3
# Si number density = 16.611237 Si / 1000 Ang^3
#
#
#
# Elastic Constant Matrix: (Units=GPa)
#
#
# Indices 1 2 3 4 5 6 
#
# 1 76.0966 50.5737 14.2854 0.0000 0.0000 0.0000
# 2 50.5737 76.0966 14.2854 0.0000 0.0000 0.0000
# 3 14.2854 14.2854 41.0704 0.0000 0.0000 0.0000
# 4 0.0000 0.0000 0.0000 8.8622 0.0000 0.0000
# 5 0.0000 0.0000 0.0000 0.0000 8.8622 0.0000
# 6 0.0000 0.0000 0.0000 0.0000 0.0000 17.2142
#
#
#
# Elastic Compliance Matrix: (Units=1/GPa)
#
#
# Indices 1 2 3 4 5 6 
#
# 1 0.023874 -0.015307 -0.002980 0.000000 0.000000 0.000000
# 2 -0.015307 0.023874 -0.002980 0.000000 0.000000 0.000000
# 3 -0.002980 -0.002980 0.026421 0.000000 0.000000 0.000000
# 4 0.000000 0.000000 0.000000 0.112839 0.000000 0.000000
# 5 0.000000 0.000000 0.000000 0.000000 0.112839 0.000000
# 6 0.000000 0.000000 0.000000 0.000000 0.000000 0.058091
#
#
# Mechanical properties :
#
#
# Convention : Reuss Voigt Hill
#
# Bulk Modulus (GPa) = 31.60990 39.06143 35.33566
# Shear Modulus (GPa) = 12.16499 14.59566 13.38032
#
# Velocity S-wave (km/s) = 2.70910 2.96744 2.84121
# Velocity P-wave (km/s) = 5.37180 5.94197 5.66406
#
# Compressibility (1/GPa) = 0.03163566
#
# Stress axis : x y z
#
# Youngs Moduli (GPa) = 41.88733 41.88733 37.84826
#
# Poissons Ratio (x) = 0.64117 0.11278
# Poissons Ratio (y) = 0.64117 0.11278
# Poissons Ratio (z) = 0.12481 0.12481
#
# Static dielectric constant tensor:
#      x y z
#    x 1.578270 0.000000 0.000000 
#    y 0.000000 1.578270 0.000000 
#    z 0.000000 0.000000 1.738550 
# 
# From -- ./inp_files/6670.got.cif
#   From: 2010.05.17/outbox.cif.g08.bks.cpg/sg139_4_cif.got.tgz:6670.got - 2010.05.20 13:14:44.
