data_PCOD9571438
_publ_section_title
;
Structure prediction by ZEFSAII (Michael W. Deem and Ramdas Pophale) SiO2 
 PCOD9571438
Probable space group: I 4/M M M
;
_chemical_formula_sum "Si O2"
_cell_formula_units_Z 160
_cell_length_a 32.597803
_cell_length_b 32.597803
_cell_length_c 7.948493
_cell_angle_alpha 90.000000
_cell_angle_beta 90.000000
_cell_angle_gamma 90.000000
_cell_volume 8446.201882
_symmetry_space_group_name_H-M "I 4/M M M"
_symmetry_group_IT_number 139
_symmetry_cell_setting 'tetragonal'
loop_
_space_group_symop_operation_xyz
x,y,z
-y,x,z
-x,-y,z
y,-x,z
x,-y,-z
-x,y,-z
y,x,-z
-y,-x,-z
-x,-y,-z
y,-x,-z
x,y,-z
-y,x,-z
-x,y,z
x,-y,z
-y,-x,z
y,x,z
1/2+x,1/2+y,1/2+z
1/2-y,1/2+x,1/2+z
1/2-x,1/2-y,1/2+z
1/2+y,1/2-x,1/2+z
1/2+x,1/2-y,1/2-z
1/2-x,1/2+y,1/2-z
1/2+y,1/2+x,1/2-z
1/2-y,1/2-x,1/2-z
1/2-x,1/2-y,1/2-z
1/2+y,1/2-x,1/2-z
1/2+x,1/2+y,1/2-z
1/2-y,1/2+x,1/2-z
1/2-x,1/2+y,1/2+z
1/2+x,1/2-y,1/2+z
1/2-y,1/2-x,1/2+z
1/2+y,1/2+x,1/2+z
loop_
_atom_site_type_symbol
_atom_site_label
_atom_site_fract_x
_atom_site_fract_y
_atom_site_fract_z
Si Si1 0.047476 0.047476 0.294593
Si Si2 0.548772 0.743389 0.500000
Si Si3 0.451003 0.890509 0.810753
Si Si4 0.209703 0.099540 0.303564
Si Si5 0.748209 0.183631 0.201338
Si Si6 0.614572 0.385429 0.797651
Si Si7 0.663369 0.949970 0.000000
O O1 0.047984 0.047984 0.500000
O O2 0.081071 0.081071 0.234984
O O3 0.000000 0.056664 0.244743
O O4 0.500000 0.741593 0.500000
O O5 0.566212 0.724534 0.329323
O O6 0.563176 0.790276 0.500000
O O7 0.500000 0.890323 0.810601
O O8 0.434037 0.934037 0.750000
O O9 0.436082 0.859070 0.669302
O O10 0.437099 0.881277 0.000000
O O11 0.211688 0.087394 0.500000
O O12 0.237138 0.140664 0.279749
O O13 0.162050 0.106803 0.255812
O O14 0.782988 0.217013 0.251002
O O15 0.704874 0.204874 0.250000
O O16 0.749115 0.178859 0.000000
O O17 0.612088 0.387913 0.000000
O O18 0.662028 0.000000 0.000000
#
# Coordination Sequence:
#
# PCOD9571438 Si02
#       7
#    16  16  32  32  32  16  16
#     4   8  14  27  49  80 121 166 210 259 314 367
#     4  11  26  45  63  84 116 159 211 267 312 360
#     4  10  19  32  56  86 115 150 190 234 292 360
#     4  11  22  39  64  93 125 162 205 254 315 380
#     4  10  19  33  59  91 126 165 200 244 304 383
#     4   9  19  33  57  90 127 165 203 251 305 373
#     4   9  20  40  58  75 106 150 196 242 292 346
#
# _framework density 18.943425999999999
#
# number of rings (size 3 to 8) (size 9 to 14) (size 15 to 20)
#    0.000    2.100    3.000    0.900    0.000    3.400 
#    0.000    6.000    0.000    0.000    0.000    0.000 
#    0.000    2.400    0.000    0.200    0.000    0.000 
#
# Total GULP energy -445992.348291 kJ/mol
# GULP energy per Si atom -5574.904354 kJ/mol
# Density = 1.890031 g / cm^3
# Si number density = 18.943426 Si / 1000 Ang^3
#
#
#
# Elastic Constant Matrix: (Units=GPa)
#
#
# Indices 1 2 3 4 5 6 
#
# 1 86.9374 55.9658 47.2610 0.0000 0.0000 0.0000
# 2 55.9658 86.9372 47.2611 0.0000 0.0000 0.0000
# 3 47.2610 47.2611 129.7268 0.0000 0.0000 0.0000
# 4 0.0000 0.0000 0.0000 8.8442 0.0000 0.0000
# 5 0.0000 0.0000 0.0000 0.0000 8.8445 0.0000
# 6 0.0000 0.0000 0.0000 0.0000 0.0000 32.4518
#
#
#
# Elastic Compliance Matrix: (Units=1/GPa)
#
#
# Indices 1 2 3 4 5 6 
#
# 1 0.020753 -0.011534 -0.003359 0.000000 0.000000 0.000000
# 2 -0.011534 0.020754 -0.003359 0.000000 0.000000 0.000000
# 3 -0.003359 -0.003359 0.010156 0.000000 0.000000 0.000000
# 4 0.000000 0.000000 0.000000 0.113069 0.000000 0.000000
# 5 0.000000 0.000000 0.000000 0.000000 0.113064 0.000000
# 6 0.000000 0.000000 0.000000 0.000000 0.000000 0.030815
#
#
# Mechanical properties :
#
#
# Convention : Reuss Voigt Hill
#
# Bulk Modulus (GPa) = 65.96494 67.17523 66.57008
# Shear Modulus (GPa) = 14.27888 20.23567 17.25728
#
# Velocity S-wave (km/s) = 2.74846 3.27190 3.02154
# Velocity P-wave (km/s) = 6.70594 7.05774 6.88409
#
# Compressibility (1/GPa) = 0.01515957
#
# Stress axis : x y z
#
# Youngs Moduli (GPa) = 48.18465 48.18442 98.46639
#
# Poissons Ratio (x) = 0.55577 0.33072
# Poissons Ratio (y) = 0.55577 0.33072
# Poissons Ratio (z) = 0.16184 0.16184
#
# Static dielectric constant tensor:
#      x y z
#    x 1.655490 0.000000 0.000000 
#    y 0.000000 1.655490 0.000000 
#    z 0.000000 0.000000 1.651670 
# 
# From -- ./inp_files/2319.got.cif
#   From: 2010.05.17/outbox.cif.g08.bks.cpg/sg139_2_cif.got.tgz:2319.got - 2010.05.20 13:14:44.
