data_PCOD9571648
_publ_section_title
;
Structure prediction by ZEFSAII (Michael W. Deem and Ramdas Pophale) SiO2 
 PCOD9571648
Probable space group: I 4/M M M
;
_chemical_formula_sum "Si O2"
_cell_formula_units_Z 176
_cell_length_a 23.586712
_cell_length_b 23.586712
_cell_length_c 16.230636
_cell_angle_alpha 90.000000
_cell_angle_beta 90.000000
_cell_angle_gamma 90.000000
_cell_volume 9029.638141
_symmetry_space_group_name_H-M "I 4/M M M"
_symmetry_group_IT_number 139
_symmetry_cell_setting 'tetragonal'
loop_
_space_group_symop_operation_xyz
x,y,z
-y,x,z
-x,-y,z
y,-x,z
x,-y,-z
-x,y,-z
y,x,-z
-y,-x,-z
-x,-y,-z
y,-x,-z
x,y,-z
-y,x,-z
-x,y,z
x,-y,z
-y,-x,z
y,x,z
1/2+x,1/2+y,1/2+z
1/2-y,1/2+x,1/2+z
1/2-x,1/2-y,1/2+z
1/2+y,1/2-x,1/2+z
1/2+x,1/2-y,1/2-z
1/2-x,1/2+y,1/2-z
1/2+y,1/2+x,1/2-z
1/2-y,1/2-x,1/2-z
1/2-x,1/2-y,1/2-z
1/2+y,1/2-x,1/2-z
1/2+x,1/2+y,1/2-z
1/2-y,1/2+x,1/2-z
1/2-x,1/2+y,1/2+z
1/2+x,1/2-y,1/2+z
1/2-y,1/2-x,1/2+z
1/2+y,1/2+x,1/2+z
loop_
_atom_site_type_symbol
_atom_site_label
_atom_site_fract_x
_atom_site_fract_y
_atom_site_fract_z
Si Si1 0.882148 0.791811 0.649308
Si Si2 0.374537 0.000000 0.099980
Si Si3 0.784637 0.118439 0.839883
Si Si4 0.340415 0.437550 0.000000
Si Si5 0.684239 0.174817 0.653191
Si Si6 0.934406 0.616699 0.600036
Si Si7 0.500000 0.743620 0.403118
O O1 0.851815 0.851815 0.658616
O O2 0.896020 0.774861 0.742725
O O3 0.929085 0.801043 0.580472
O O4 0.835735 0.746501 0.618455
O O5 0.410948 0.945241 0.123259
O O6 0.309179 0.000000 0.131294
O O7 0.371886 0.000000 0.000000
O O8 0.836595 0.163406 0.847297
O O9 0.727984 0.147881 0.877981
O O10 0.789519 0.056971 0.879640
O O11 0.365796 0.500000 0.000000
O O12 0.388766 0.388766 0.000000
O O13 0.689018 0.189018 0.750000
O O14 0.656556 0.113404 0.639036
O O15 0.931981 0.622172 0.500000
O O16 0.000000 0.625698 0.624661
O O17 0.500000 0.750895 0.500000
#
# Coordination Sequence:
#
# PCOD9571648 Si02
#       7
#    32  16  32  16  32  32  16
#     4   9  20  38  59  85 117 153 191 238 297 353
#     4   9  17  34  55  72 102 145 192 236 281 321
#     4  10  21  39  64  87 115 156 197 245 305 360
#     4  10  22  39  60  90 124 157 199 247 298 364
#     4  10  20  36  55  84 116 151 196 244 288 343
#     4  10  20  34  52  75 107 151 196 234 278 330
#     4  11  22  37  60  89 121 148 190 247 297 358
#
# _framework density 19.491367
#
# number of rings (size 3 to 8) (size 9 to 14) (size 15 to 20)
#    0.000    2.182    1.818    0.818    2.545    4.455 
#    6.545    0.000    0.000    0.273    0.000    0.636 
#    0.000    0.000    0.000    0.000    0.000    0.000 
#
# Total GULP energy -490010.923491 kJ/mol
# GULP energy per Si atom -5568.305949 kJ/mol
# Density = 1.944700 g / cm^3
# Si number density = 19.491367 Si / 1000 Ang^3
#
#
#
# Elastic Constant Matrix: (Units=GPa)
#
#
# Indices 1 2 3 4 5 6 
#
# 1 94.8719 37.6201 16.3612 0.0000 0.0000 0.0000
# 2 37.6201 94.8719 16.3612 0.0000 0.0000 0.0000
# 3 16.3612 16.3612 30.8103 0.0000 0.0000 0.0000
# 4 0.0000 0.0000 0.0000 13.6024 0.0000 0.0000
# 5 0.0000 0.0000 0.0000 0.0000 13.6024 0.0000
# 6 0.0000 0.0000 0.0000 0.0000 0.0000 22.4523
#
#
#
# Elastic Compliance Matrix: (Units=1/GPa)
#
#
# Indices 1 2 3 4 5 6 
#
# 1 0.013077 -0.004390 -0.004613 0.000000 0.000000 0.000000
# 2 -0.004390 0.013077 -0.004613 0.000000 0.000000 0.000000
# 3 -0.004613 -0.004613 0.037356 0.000000 0.000000 0.000000
# 4 0.000000 0.000000 0.000000 0.073517 0.000000 0.000000
# 5 0.000000 0.000000 0.000000 0.000000 0.073517 0.000000
# 6 0.000000 0.000000 0.000000 0.000000 0.000000 0.044539
#
#
# Mechanical properties :
#
#
# Convention : Reuss Voigt Hill
#
# Bulk Modulus (GPa) = 27.56506 40.13766 33.85136
# Shear Modulus (GPa) = 16.98333 19.94550 18.46441
#
# Velocity S-wave (km/s) = 2.95503 3.20238 3.08118
# Velocity P-wave (km/s) = 5.08092 5.85755 5.48300
#
# Compressibility (1/GPa) = 0.03627781
#
# Stress axis : x y z
#
# Youngs Moduli (GPa) = 76.47115 76.47115 26.76944
#
# Poissons Ratio (x) = 0.33570 0.12349
# Poissons Ratio (y) = 0.33570 0.12349
# Poissons Ratio (z) = 0.35276 0.35276
#
# Static dielectric constant tensor:
#      x y z
#    x 1.722050 0.000000 0.000000 
#    y 0.000000 1.722050 0.000000 
#    z 0.000000 0.000000 1.723660 
# 
# From -- ./inp_files/6153.got.cif
#   From: 2010.05.17/outbox.cif.g08.bks.cpg/sg139_4_cif.got.tgz:6153.got - 2010.05.20 13:14:44.
