data_PCOD9571525
_publ_section_title
;
Structure prediction by ZEFSAII (Michael W. Deem and Ramdas Pophale) SiO2 
 PCOD9571525
Probable space group: I 4/M M M
;
_chemical_formula_sum "Si O2"
_cell_formula_units_Z 84
_cell_length_a 11.581332
_cell_length_b 11.581332
_cell_length_c 31.485792
_cell_angle_alpha 90.000000
_cell_angle_beta 90.000000
_cell_angle_gamma 90.000000
_cell_volume 4223.102723
_symmetry_space_group_name_H-M "I 4/M M M"
_symmetry_group_IT_number 139
_symmetry_cell_setting 'tetragonal'
loop_
_space_group_symop_operation_xyz
x,y,z
-y,x,z
-x,-y,z
y,-x,z
x,-y,-z
-x,y,-z
y,x,-z
-y,-x,-z
-x,-y,-z
y,-x,-z
x,y,-z
-y,x,-z
-x,y,z
x,-y,z
-y,-x,z
y,x,z
1/2+x,1/2+y,1/2+z
1/2-y,1/2+x,1/2+z
1/2-x,1/2-y,1/2+z
1/2+y,1/2-x,1/2+z
1/2+x,1/2-y,1/2-z
1/2-x,1/2+y,1/2-z
1/2+y,1/2+x,1/2-z
1/2-y,1/2-x,1/2-z
1/2-x,1/2-y,1/2-z
1/2+y,1/2-x,1/2-z
1/2+x,1/2+y,1/2-z
1/2-y,1/2+x,1/2-z
1/2-x,1/2+y,1/2+z
1/2+x,1/2-y,1/2+z
1/2-y,1/2-x,1/2+z
1/2+y,1/2+x,1/2+z
loop_
_atom_site_type_symbol
_atom_site_label
_atom_site_fract_x
_atom_site_fract_y
_atom_site_fract_z
Si Si1 0.238547 0.761454 0.699747
Si Si2 0.000000 0.000000 0.605782
Si Si3 0.365435 0.365435 0.627397
Si Si4 0.000000 0.267737 0.580521
Si Si5 0.500000 0.861429 0.171112
Si Si6 0.750246 0.750246 0.546451
O O1 0.250000 0.750000 0.750000
O O2 0.320479 0.679522 0.672178
O O3 0.287150 0.888607 0.686825
O O4 0.858179 0.000000 0.602597
O O5 0.500000 0.342187 0.624664
O O6 0.306108 0.306108 0.587520
O O7 0.000000 0.356140 0.619739
O O8 0.113804 0.273228 0.552100
O O9 0.500000 0.000000 0.183744
O O10 0.710584 0.710584 0.500000
#
# Coordination Sequence:
#
# PCOD9571525 Si02
#       6
#    16   4  16  16  16  16
#     4  12  28  45  75 109 140 186 236 289 363 430
#     4   8  16  32  61  92 136 168 228 288 336 412
#     4  11  25  47  69  91 133 182 234 290 347 418
#     4  10  19  38  64  96 138 183 226 284 361 420
#     4  12  26  47  75 105 152 189 236 295 361 425
#     4  11  22  38  64 100 136 178 233 291 352 421
#
# _framework density 19.890588000000001
#
# number of rings (size 3 to 8) (size 9 to 14) (size 15 to 20)
#    0.000    0.952    3.810    2.857    5.333    1.143 
#    0.000    3.810    0.000    3.429    0.000    0.000 
#    0.000    0.000    0.000    0.000    0.000    0.000 
#
# Total GULP energy -233844.966417 kJ/mol
# GULP energy per Si atom -5567.737296 kJ/mol
# Density = 1.984532 g / cm^3
# Si number density = 19.890588 Si / 1000 Ang^3
#
#
#
# Elastic Constant Matrix: (Units=GPa)
#
#
# Indices 1 2 3 4 5 6 
#
# 1 128.6046 18.3676 23.5526 0.0000 0.0000 0.0000
# 2 18.3676 128.6046 23.5526 0.0000 0.0000 0.0000
# 3 23.5526 23.5526 136.6927 0.0000 0.0000 0.0000
# 4 0.0000 0.0000 0.0000 -30.0640 0.0000 0.0000
# 5 0.0000 0.0000 0.0000 0.0000 -30.0640 0.0000
# 6 0.0000 0.0000 0.0000 0.0000 0.0000 25.4125
#
#
#
# Elastic Compliance Matrix: (Units=1/GPa)
#
#
# Indices 1 2 3 4 5 6 
#
# 1 0.008137 -0.000935 -0.001241 0.000000 0.000000 0.000000
# 2 -0.000935 0.008137 -0.001241 0.000000 0.000000 0.000000
# 3 -0.001241 -0.001241 0.007743 0.000000 0.000000 0.000000
# 4 0.000000 0.000000 0.000000 -0.033262 0.000000 0.000000
# 5 0.000000 0.000000 0.000000 0.000000 -0.033262 0.000000
# 6 0.000000 0.000000 0.000000 0.000000 0.000000 0.039351
#
#
# Mechanical properties :
#
#
# Convention : Reuss Voigt Hill
#
# Bulk Modulus (GPa) = 58.19637 58.31641 58.25639
# Shear Modulus (GPa) = 531.72692 14.95216 273.33954
#
# Velocity S-wave (km/s) = 16.36784 2.74473 11.73541
# Velocity P-wave (km/s) = 19.66037 6.27909 14.59378
#
# Compressibility (1/GPa) = 0.01718320
#
# Stress axis : x y z
#
# Youngs Moduli (GPa) = 122.90238 122.90239 129.14396
#
# Poissons Ratio (x) = 0.11489 0.16025
# Poissons Ratio (y) = 0.11489 0.16025
# Poissons Ratio (z) = 0.15251 0.15251
#
# Static dielectric constant tensor:
#      x y z
#    x 1.725800 0.000000 0.000000 
#    y 0.000000 1.725800 0.000000 
#    z 0.000000 0.000000 1.692300 
# 
# From -- ./inp_files/13606.got.cif
#   From: 2010.05.17/outbox.cif.g08.bks.cpg/sg139_7_cif.got.tgz:13606.got - 2010.05.20 13:14:44.
