data_PCOD9571931
_publ_section_title
;
Structure prediction by ZEFSAII (Michael W. Deem and Ramdas Pophale) SiO2 
 PCOD9571931
Probable space group: I 4/M M M
;
_chemical_formula_sum "Si O2"
_cell_formula_units_Z 112
_cell_length_a 17.596061
_cell_length_b 17.596061
_cell_length_c 19.769133
_cell_angle_alpha 90.000000
_cell_angle_beta 90.000000
_cell_angle_gamma 90.000000
_cell_volume 6120.945899
_symmetry_space_group_name_H-M "I 4/M M M"
_symmetry_group_IT_number 139
_symmetry_cell_setting 'tetragonal'
loop_
_space_group_symop_operation_xyz
x,y,z
-y,x,z
-x,-y,z
y,-x,z
x,-y,-z
-x,y,-z
y,x,-z
-y,-x,-z
-x,-y,-z
y,-x,-z
x,y,-z
-y,x,-z
-x,y,z
x,-y,z
-y,-x,z
y,x,z
1/2+x,1/2+y,1/2+z
1/2-y,1/2+x,1/2+z
1/2-x,1/2-y,1/2+z
1/2+y,1/2-x,1/2+z
1/2+x,1/2-y,1/2-z
1/2-x,1/2+y,1/2-z
1/2+y,1/2+x,1/2-z
1/2-y,1/2-x,1/2-z
1/2-x,1/2-y,1/2-z
1/2+y,1/2-x,1/2-z
1/2+x,1/2+y,1/2-z
1/2-y,1/2+x,1/2-z
1/2-x,1/2+y,1/2+z
1/2+x,1/2-y,1/2+z
1/2-y,1/2-x,1/2+z
1/2+y,1/2+x,1/2+z
loop_
_atom_site_type_symbol
_atom_site_label
_atom_site_fract_x
_atom_site_fract_y
_atom_site_fract_z
Si Si1 0.331982 0.154071 0.127636
Si Si2 0.158210 0.158210 0.919130
Si Si3 0.197676 0.802325 0.700472
Si Si4 0.913697 0.586304 0.250000
Si Si5 0.910338 0.413910 0.500000
Si Si6 0.589321 0.410680 0.710135
O O1 0.245808 0.144219 0.102277
O O2 0.344055 0.240112 0.153836
O O3 0.353862 0.101391 0.190836
O O4 0.383698 0.130433 0.065754
O O5 0.107915 0.107915 0.868450
O O6 0.147893 0.147893 0.000000
O O7 0.250000 0.750000 0.750000
O O8 0.143306 0.856695 0.743801
O O9 0.905620 0.500000 0.223962
O O10 0.877987 0.500000 0.500000
O O11 0.000000 0.419682 0.500000
O O12 0.604328 0.500000 0.723099
#
# Coordination Sequence:
#
# PCOD9571931 Si02
#       6
#    32  16  16  16  16  16
#     4  11  21  38  61  85 119 161 205 256 303 361
#     4  11  22  41  60  85 115 160 212 255 303 372
#     4  11  21  42  64  90 115 151 209 260 305 371
#     4  11  22  35  54  86 124 159 198 241 296 368
#     4  11  24  39  56  90 134 169 202 243 306 374
#     4  11  25  43  63  92 128 161 206 270 325 367
#
# _framework density 18.297826000000001
#
# number of rings (size 3 to 8) (size 9 to 14) (size 15 to 20)
#    0.000    1.000    5.714    1.714    0.000    9.714 
#    0.000    0.714    0.000    0.000    0.000    0.000 
#    0.000    3.429    0.000    0.000    0.000    0.000 
#
# Total GULP energy -312705.376324 kJ/mol
# GULP energy per Si atom -5584.024577 kJ/mol
# Density = 1.825618 g / cm^3
# Si number density = 18.297826 Si / 1000 Ang^3
#
#
#
# Elastic Constant Matrix: (Units=GPa)
#
#
# Indices 1 2 3 4 5 6 
#
# 1 88.2603 69.2898 51.2985 0.0000 0.0000 0.0000
# 2 69.2898 88.2605 51.2988 0.0000 0.0000 0.0000
# 3 51.2985 51.2988 134.9530 0.0000 0.0000 0.0000
# 4 0.0000 0.0000 0.0000 -29.4728 0.0000 0.0000
# 5 0.0000 0.0000 0.0000 0.0000 -29.4852 0.0000
# 6 0.0000 0.0000 0.0000 0.0000 0.0000 33.4699
#
#
#
# Elastic Compliance Matrix: (Units=1/GPa)
#
#
# Indices 1 2 3 4 5 6 
#
# 1 0.030574 -0.022139 -0.003206 0.000000 0.000000 0.000000
# 2 -0.022139 0.030574 -0.003206 0.000000 0.000000 0.000000
# 3 -0.003206 -0.003206 0.009848 0.000000 0.000000 0.000000
# 4 0.000000 0.000000 0.000000 -0.033930 0.000000 0.000000
# 5 0.000000 0.000000 0.000000 0.000000 -0.033915 0.000000
# 6 0.000000 0.000000 0.000000 0.000000 0.000000 0.029878
#
#
# Mechanical properties :
#
#
# Convention : Reuss Voigt Hill
#
# Bulk Modulus (GPa) = 71.98170 72.80533 72.39352
# Shear Modulus (GPa) = 52.76321 4.20817 28.48569
#
# Velocity S-wave (km/s) = 5.37572 1.51816 3.94989
# Velocity P-wave (km/s) = 8.82924 6.55351 7.77509
#
# Compressibility (1/GPa) = 0.01389242
#
# Stress axis : x y z
#
# Youngs Moduli (GPa) = 32.70734 32.70734 101.54707
#
# Poissons Ratio (x) = 0.72411 0.32560
# Poissons Ratio (y) = 0.72411 0.32561
# Poissons Ratio (z) = 0.10487 0.10488
#
# Static dielectric constant tensor:
#      x y z
#    x 1.633050 0.000000 0.000000 
#    y 0.000000 1.633050 0.000000 
#    z 0.000000 0.000000 1.641410 
# 
# From -- ./inp_files/7660.got.cif
#   From: 2010.05.17/outbox.cif.g08.bks.cpg/sg139_4_cif.got.tgz:7660.got - 2010.05.20 13:14:44.
