data_PCOD9571711
_publ_section_title
;
Structure prediction by ZEFSAII (Michael W. Deem and Ramdas Pophale) SiO2 
 PCOD9571711
Probable space group: I 4/M M M
;
_chemical_formula_sum "Si O2"
_cell_formula_units_Z 160
_cell_length_a 25.466409
_cell_length_b 25.466409
_cell_length_c 13.136956
_cell_angle_alpha 90.000000
_cell_angle_beta 90.000000
_cell_angle_gamma 90.000000
_cell_volume 8519.815004
_symmetry_space_group_name_H-M "I 4/M M M"
_symmetry_group_IT_number 139
_symmetry_cell_setting 'tetragonal'
loop_
_space_group_symop_operation_xyz
x,y,z
-y,x,z
-x,-y,z
y,-x,z
x,-y,-z
-x,y,-z
y,x,-z
-y,-x,-z
-x,-y,-z
y,-x,-z
x,y,-z
-y,x,-z
-x,y,z
x,-y,z
-y,-x,z
y,x,z
1/2+x,1/2+y,1/2+z
1/2-y,1/2+x,1/2+z
1/2-x,1/2-y,1/2+z
1/2+y,1/2-x,1/2+z
1/2+x,1/2-y,1/2-z
1/2-x,1/2+y,1/2-z
1/2+y,1/2+x,1/2-z
1/2-y,1/2-x,1/2-z
1/2-x,1/2-y,1/2-z
1/2+y,1/2-x,1/2-z
1/2+x,1/2+y,1/2-z
1/2-y,1/2+x,1/2-z
1/2-x,1/2+y,1/2+z
1/2+x,1/2-y,1/2+z
1/2-y,1/2-x,1/2+z
1/2+y,1/2+x,1/2+z
loop_
_atom_site_type_symbol
_atom_site_label
_atom_site_fract_x
_atom_site_fract_y
_atom_site_fract_z
Si Si1 0.919059 0.437523 0.000000
Si Si2 0.436555 0.202962 0.000000
Si Si3 0.283641 0.561339 0.827634
Si Si4 0.603144 0.245436 0.617314
Si Si5 0.152293 0.847708 0.387026
Si Si6 0.867804 0.559867 0.317086
Si Si7 0.289985 0.710016 0.300172
O O1 0.857488 0.420790 0.000000
O O2 0.945072 0.411250 0.096352
O O3 0.922489 0.500000 0.000000
O O4 0.419726 0.234209 0.102105
O O5 0.500000 0.202731 0.000000
O O6 0.287963 0.500000 0.842336
O O7 0.275996 0.574073 0.708914
O O8 0.333061 0.592181 0.871205
O O9 0.590487 0.258833 0.500000
O O10 0.583721 0.185871 0.637786
O O11 0.664579 0.259285 0.637340
O O12 0.169123 0.830878 0.500000
O O13 0.182149 0.817852 0.296413
O O14 0.858507 0.500000 0.273436
O O15 0.895130 0.604871 0.250000
O O16 0.250000 0.750000 0.250000
#
# Coordination Sequence:
#
# PCOD9571711 Si02
#       7
#    16  16  32  32  16  32  16
#     4  11  23  38  56  79 107 143 195 252 301 353
#     4   9  18  34  55  82 110 144 192 245 300 349
#     4  10  20  36  61  87 120 159 196 248 303 356
#     4  11  23  41  62  89 122 158 205 255 310 377
#     4  10  20  35  56  90 120 149 197 239 287 364
#     4  12  25  41  59  82 113 155 204 256 310 364
#     4  10  23  41  60  89 124 159 192 243 316 378
#
# _framework density 18.77975
#
# number of rings (size 3 to 8) (size 9 to 14) (size 15 to 20)
#    0.000    1.400    2.000    3.600    0.000    7.000 
#    0.000    0.000    0.000    0.300    0.000    0.700 
#    0.000    0.000    0.000    7.300    0.000    0.000 
#
# Total GULP energy -446112.829766 kJ/mol
# GULP energy per Si atom -5576.410372 kJ/mol
# Density = 1.873701 g / cm^3
# Si number density = 18.779750 Si / 1000 Ang^3
#
#
#
# Elastic Constant Matrix: (Units=GPa)
#
#
# Indices 1 2 3 4 5 6 
#
# 1 83.7058 55.2287 19.2970 0.0000 0.0000 0.0000
# 2 55.2287 83.7045 19.2960 0.0000 0.0000 0.0000
# 3 19.2970 19.2960 112.9496 0.0000 0.0000 0.0000
# 4 0.0000 0.0000 0.0000 22.5007 0.0000 0.0000
# 5 0.0000 0.0000 0.0000 0.0000 22.5010 0.0000
# 6 0.0000 0.0000 0.0000 0.0000 0.0000 24.1274
#
#
#
# Elastic Compliance Matrix: (Units=1/GPa)
#
#
# Indices 1 2 3 4 5 6 
#
# 1 0.021336 -0.013780 -0.001291 0.000000 0.000000 0.000000
# 2 -0.013780 0.021337 -0.001291 0.000000 0.000000 0.000000
# 3 -0.001291 -0.001291 0.009295 0.000000 0.000000 0.000000
# 4 0.000000 0.000000 0.000000 0.044443 0.000000 0.000000
# 5 0.000000 0.000000 0.000000 0.000000 0.044442 0.000000
# 6 0.000000 0.000000 0.000000 0.000000 0.000000 0.041447
#
#
# Mechanical properties :
#
#
# Convention : Reuss Voigt Hill
#
# Bulk Modulus (GPa) = 51.96582 52.00037 51.98309
# Shear Modulus (GPa) = 22.57962 26.26169 24.42065
#
# Velocity S-wave (km/s) = 3.47124 3.74358 3.60998
# Velocity P-wave (km/s) = 6.61795 6.81437 6.71688
#
# Compressibility (1/GPa) = 0.01924342
#
# Stress axis : x y z
#
# Youngs Moduli (GPa) = 46.86826 46.86771 107.58946
#
# Poissons Ratio (x) = 0.64585 0.13890
# Poissons Ratio (y) = 0.64586 0.13888
# Poissons Ratio (z) = 0.06051 0.06050
#
# Static dielectric constant tensor:
#      x y z
#    x 1.681110 0.000000 0.000000 
#    y 0.000000 1.681110 0.000000 
#    z 0.000000 0.000000 1.134920 
# 
# From -- ./inp_files/3992.got.cif
#   From: 2010.05.17/outbox.cif.g08.bks.cpg/sg139_2_cif.got.tgz:3992.got - 2010.05.20 13:14:44.
