data_PCOD9571949
_publ_section_title
;
Structure prediction by ZEFSAII (Michael W. Deem and Ramdas Pophale) SiO2 
 PCOD9571949
Probable space group: I 4/M M M
;
_chemical_formula_sum "Si O2"
_cell_formula_units_Z 136
_cell_length_a 22.701851
_cell_length_b 22.701851
_cell_length_c 13.701002
_cell_angle_alpha 90.000000
_cell_angle_beta 90.000000
_cell_angle_gamma 90.000000
_cell_volume 7061.140737
_symmetry_space_group_name_H-M "I 4/M M M"
_symmetry_group_IT_number 139
_symmetry_cell_setting 'tetragonal'
loop_
_space_group_symop_operation_xyz
x,y,z
-y,x,z
-x,-y,z
y,-x,z
x,-y,-z
-x,y,-z
y,x,-z
-y,-x,-z
-x,-y,-z
y,-x,-z
x,y,-z
-y,x,-z
-x,y,z
x,-y,z
-y,-x,z
y,x,z
1/2+x,1/2+y,1/2+z
1/2-y,1/2+x,1/2+z
1/2-x,1/2-y,1/2+z
1/2+y,1/2-x,1/2+z
1/2+x,1/2-y,1/2-z
1/2-x,1/2+y,1/2-z
1/2+y,1/2+x,1/2-z
1/2-y,1/2-x,1/2-z
1/2-x,1/2-y,1/2-z
1/2+y,1/2-x,1/2-z
1/2+x,1/2+y,1/2-z
1/2-y,1/2+x,1/2-z
1/2-x,1/2+y,1/2+z
1/2+x,1/2-y,1/2+z
1/2-y,1/2-x,1/2+z
1/2+y,1/2+x,1/2+z
loop_
_atom_site_type_symbol
_atom_site_label
_atom_site_fract_x
_atom_site_fract_y
_atom_site_fract_z
Si Si1 0.359342 0.804024 0.500000
Si Si2 0.866105 0.133896 0.789682
Si Si3 0.353443 0.066921 0.185590
Si Si4 0.930027 0.069974 0.390785
Si Si5 0.933393 0.766278 0.701457
Si Si6 0.339696 0.660305 0.500000
Si Si7 0.732465 0.632661 0.000000
O O1 0.394096 0.829624 0.594780
O O2 0.352172 0.731883 0.500000
O O3 0.294395 0.832594 0.500000
O O4 0.901907 0.098094 0.706041
O O5 0.800312 0.114060 0.766437
O O6 0.869838 0.130163 0.905715
O O7 0.405729 0.094272 0.250000
O O8 0.299885 0.065102 0.262176
O O9 0.365848 0.000000 0.152668
O O10 0.909941 0.090060 0.500000
O O11 0.000000 0.079910 0.387755
O O12 0.909374 0.771665 0.593111
O O13 0.000000 0.790341 0.711887
O O14 0.681750 0.681750 0.000000
#
# Coordination Sequence:
#
# PCOD9571949 Si02
#       7
#    16  16  32  16  32   8  16
#     4  12  23  43  66  98 132 166 214 262 334 399
#     4  12  23  41  60  93 132 172 223 265 325 388
#     4  11  24  44  68  93 128 172 216 269 326 392
#     4   9  20  40  63  87 120 166 220 275 327 385
#     4  11  24  40  62  92 132 174 215 269 324 381
#     4  12  26  40  64  95 138 176 218 271 318 406
#     4  12  23  38  67 100 131 168 207 267 337 394
#
# _framework density 19.260344
#
# number of rings (size 3 to 8) (size 9 to 14) (size 15 to 20)
#    0.000    0.824    6.471    1.765    1.647    0.235 
#    0.000    6.471    0.000    2.118    0.000    0.000 
#    0.000    0.000    0.000    0.000    0.000    0.000 
#
# Total GULP energy -379320.031868 kJ/mol
# GULP energy per Si atom -5578.235763 kJ/mol
# Density = 1.921651 g / cm^3
# Si number density = 19.260344 Si / 1000 Ang^3
#
#
#
# Elastic Constant Matrix: (Units=GPa)
#
#
# Indices 1 2 3 4 5 6 
#
# 1 76.4976 40.9015 13.7707 0.0000 0.0000 0.0000
# 2 40.9015 76.5060 13.7723 0.0000 0.0000 0.0000
# 3 13.7707 13.7723 133.7855 0.0000 0.0000 0.0000
# 4 0.0000 0.0000 0.0000 20.4320 0.0000 0.0000
# 5 0.0000 0.0000 0.0000 0.0000 20.4300 0.0000
# 6 0.0000 0.0000 0.0000 0.0000 0.0000 32.9924
#
#
#
# Elastic Compliance Matrix: (Units=1/GPa)
#
#
# Indices 1 2 3 4 5 6 
#
# 1 0.018410 -0.009681 -0.000898 0.000000 0.000000 0.000000
# 2 -0.009681 0.018408 -0.000899 0.000000 0.000000 0.000000
# 3 -0.000898 -0.000899 0.007660 0.000000 0.000000 0.000000
# 4 0.000000 0.000000 0.000000 0.048943 0.000000 0.000000
# 5 0.000000 0.000000 0.000000 0.000000 0.048948 0.000000
# 6 0.000000 0.000000 0.000000 0.000000 0.000000 0.030310
#
#
# Mechanical properties :
#
#
# Convention : Reuss Voigt Hill
#
# Bulk Modulus (GPa) = 46.46285 47.07534 46.76909
# Shear Modulus (GPa) = 24.65392 29.32718 26.99055
#
# Velocity S-wave (km/s) = 3.58164 3.90638 3.74753
# Velocity P-wave (km/s) = 6.42496 6.69634 6.56206
#
# Compressibility (1/GPa) = 0.02152257
#
# Stress axis : x y z
#
# Youngs Moduli (GPa) = 54.31825 54.32410 130.55471
#
# Poissons Ratio (x) = 0.52589 0.11729
# Poissons Ratio (y) = 0.52583 0.11731
# Poissons Ratio (z) = 0.04880 0.04881
#
# Static dielectric constant tensor:
#      x y z
#    x 1.688850 0.000000 0.000000 
#    y 0.000000 1.688840 0.000000 
#    z 0.000000 0.000000 1.618920 
# 
# From -- ./inp_files/3606.got.cif
#   From: 2010.05.17/outbox.cif.g08.bks.cpg/sg139_2_cif.got.tgz:3606.got - 2010.05.20 13:14:44.
