data_PCOD9571860
_publ_section_title
;
Structure prediction by ZEFSAII (Michael W. Deem and Ramdas Pophale) SiO2 
 PCOD9571860
Probable space group: I 4/M M M
;
_chemical_formula_sum "Si O2"
_cell_formula_units_Z 104
_cell_length_a 19.173893
_cell_length_b 19.173893
_cell_length_c 15.815255
_cell_angle_alpha 90.000000
_cell_angle_beta 90.000000
_cell_angle_gamma 90.000000
_cell_volume 5814.291450
_symmetry_space_group_name_H-M "I 4/M M M"
_symmetry_group_IT_number 139
_symmetry_cell_setting 'tetragonal'
loop_
_space_group_symop_operation_xyz
x,y,z
-y,x,z
-x,-y,z
y,-x,z
x,-y,-z
-x,y,-z
y,x,-z
-y,-x,-z
-x,-y,-z
y,-x,-z
x,y,-z
-y,x,-z
-x,y,z
x,-y,z
-y,-x,z
y,x,z
1/2+x,1/2+y,1/2+z
1/2-y,1/2+x,1/2+z
1/2-x,1/2-y,1/2+z
1/2+y,1/2-x,1/2+z
1/2+x,1/2-y,1/2-z
1/2-x,1/2+y,1/2-z
1/2+y,1/2+x,1/2-z
1/2-y,1/2-x,1/2-z
1/2-x,1/2-y,1/2-z
1/2+y,1/2-x,1/2-z
1/2+x,1/2+y,1/2-z
1/2-y,1/2+x,1/2-z
1/2-x,1/2+y,1/2+z
1/2+x,1/2-y,1/2+z
1/2-y,1/2-x,1/2+z
1/2+y,1/2+x,1/2+z
loop_
_atom_site_type_symbol
_atom_site_label
_atom_site_fract_x
_atom_site_fract_y
_atom_site_fract_z
Si Si1 0.000000 0.380309 0.839570
Si Si2 0.222250 0.500000 0.180289
Si Si3 0.160766 0.279155 0.000000
Si Si4 0.224790 0.657276 0.831514
Si Si5 0.500000 0.907124 0.903416
Si Si6 0.718289 0.000000 0.000000
O O1 0.000000 0.332773 0.757810
O O2 0.064022 0.433120 0.853734
O O3 0.000000 0.328709 0.917514
O O4 0.253057 0.422028 0.179196
O O5 0.174843 0.500000 0.097397
O O6 0.180351 0.325032 0.083364
O O7 0.213123 0.213123 0.000000
O O8 0.080062 0.252304 0.000000
O O9 0.289817 0.710184 0.833131
O O10 0.178200 0.678200 0.750000
O O11 0.500000 0.930716 0.000000
#
# Coordination Sequence:
#
# PCOD9571860 Si02
#       6
#    16  16  16  32  16   8
#     4  11  21  32  44  76 108 142 173 213 261 319
#     4  12  22  32  56  77  99 145 191 213 266 326
#     4  10  22  37  55  79 108 145 179 222 279 322
#     4  10  22  39  55  78 112 142 180 230 273 323
#     4  11  20  32  45  73 115 143 166 213 257 316
#     4  12  18  31  56  69 104 138 184 222 260 320
#
# _framework density 17.886959000000001
#
# number of rings (size 3 to 8) (size 9 to 14) (size 15 to 20)
#    0.000    1.231    1.538    6.923    2.154    1.231 
#    0.000    1.538    0.000    0.692    0.000    0.000 
#    0.000   13.538    0.000    0.000    0.000    2.000 
#
# Total GULP energy -289656.149675 kJ/mol
# GULP energy per Si atom -5570.310571 kJ/mol
# Density = 1.784625 g / cm^3
# Si number density = 17.886959 Si / 1000 Ang^3
#
#
#
# Elastic Constant Matrix: (Units=GPa)
#
#
# Indices 1 2 3 4 5 6 
#
# 1 99.3454 29.0378 23.9518 0.0000 0.0000 0.0000
# 2 29.0378 99.3454 23.9518 0.0000 0.0000 0.0000
# 3 23.9518 23.9518 133.7311 0.0000 0.0000 0.0000
# 4 0.0000 0.0000 0.0000 18.9157 0.0000 0.0000
# 5 0.0000 0.0000 0.0000 0.0000 18.9157 0.0000
# 6 0.0000 0.0000 0.0000 0.0000 0.0000 38.6991
#
#
#
# Elastic Compliance Matrix: (Units=1/GPa)
#
#
# Indices 1 2 3 4 5 6 
#
# 1 0.011285 -0.002938 -0.001495 0.000000 0.000000 0.000000
# 2 -0.002938 0.011285 -0.001495 0.000000 0.000000 0.000000
# 3 -0.001495 -0.001495 0.008013 0.000000 0.000000 0.000000
# 4 0.000000 0.000000 0.000000 0.052866 0.000000 0.000000
# 5 0.000000 0.000000 0.000000 0.000000 0.052866 0.000000
# 6 0.000000 0.000000 0.000000 0.000000 0.000000 0.025840
#
#
# Mechanical properties :
#
#
# Convention : Reuss Voigt Hill
#
# Bulk Modulus (GPa) = 53.39801 54.03384 53.71593
# Shear Modulus (GPa) = 27.73854 32.33814 30.03834
#
# Velocity S-wave (km/s) = 3.94225 4.25657 4.10242
# Velocity P-wave (km/s) = 7.11615 7.37780 7.24816
#
# Compressibility (1/GPa) = 0.01872729
#
# Stress axis : x y z
#
# Youngs Moduli (GPa) = 88.61228 88.61228 124.79402
#
# Poissons Ratio (x) = 0.26035 0.18656
# Poissons Ratio (y) = 0.26035 0.18656
# Poissons Ratio (z) = 0.13247 0.13247
#
# Static dielectric constant tensor:
#      x y z
#    x 1.659200 0.000000 0.000000 
#    y 0.000000 1.659200 0.000000 
#    z 0.000000 0.000000 1.710610 
# 
# From -- ./inp_files/7501.got.cif
#   From: 2010.05.17/outbox.cif.g08.bks.cpg/sg139_4_cif.got.tgz:7501.got - 2010.05.20 13:14:44.
