data_PCOD9571912
_publ_section_title
;
Structure prediction by ZEFSAII (Michael W. Deem and Ramdas Pophale) SiO2 
 PCOD9571912
Probable space group: I 4/M M M
;
_chemical_formula_sum "Si O2"
_cell_formula_units_Z 104
_cell_length_a 14.760592
_cell_length_b 14.760592
_cell_length_c 23.795288
_cell_angle_alpha 90.000000
_cell_angle_beta 90.000000
_cell_angle_gamma 90.000000
_cell_volume 5184.400186
_symmetry_space_group_name_H-M "I 4/M M M"
_symmetry_group_IT_number 139
_symmetry_cell_setting 'tetragonal'
loop_
_space_group_symop_operation_xyz
x,y,z
-y,x,z
-x,-y,z
y,-x,z
x,-y,-z
-x,y,-z
y,x,-z
-y,-x,-z
-x,-y,-z
y,-x,-z
x,y,-z
-y,x,-z
-x,y,z
x,-y,z
-y,-x,z
y,x,z
1/2+x,1/2+y,1/2+z
1/2-y,1/2+x,1/2+z
1/2-x,1/2-y,1/2+z
1/2+y,1/2-x,1/2+z
1/2+x,1/2-y,1/2-z
1/2-x,1/2+y,1/2-z
1/2+y,1/2+x,1/2-z
1/2-y,1/2-x,1/2-z
1/2-x,1/2-y,1/2-z
1/2+y,1/2-x,1/2-z
1/2+x,1/2+y,1/2-z
1/2-y,1/2+x,1/2-z
1/2-x,1/2+y,1/2+z
1/2+x,1/2-y,1/2+z
1/2-y,1/2-x,1/2+z
1/2+y,1/2+x,1/2+z
loop_
_atom_site_type_symbol
_atom_site_label
_atom_site_fract_x
_atom_site_fract_y
_atom_site_fract_z
Si Si1 0.155444 0.694948 0.563362
Si Si2 0.608196 0.000000 0.089137
Si Si3 0.000000 0.362400 0.222136
Si Si4 0.649497 0.500000 0.246919
Si Si5 0.500000 0.648278 0.000000
Si Si6 0.224747 0.000000 0.375071
O O1 0.116455 0.716236 0.500000
O O2 0.246297 0.753704 0.567920
O O3 0.158649 0.587764 0.565785
O O4 0.091005 0.717382 0.616554
O O5 0.615077 0.000000 0.156386
O O6 0.500000 0.000000 0.073706
O O7 0.087163 0.412838 0.250000
O O8 0.000000 0.253336 0.230789
O O9 0.588338 0.588338 0.261923
O O10 0.664043 0.500000 0.179349
O O11 0.410556 0.589445 0.000000
O O12 0.500000 0.678155 0.064982
#
# Coordination Sequence:
#
# PCOD9571912 Si02
#       6
#    32  16  16  16   8  16
#     4  11  23  38  60  93 130 164 202 247 301 364
#     4  12  23  41  67  92 119 160 208 259 306 362
#     4  11  23  43  64  89 120 155 206 264 319 360
#     4  11  25  42  62  89 123 163 209 256 302 363
#     4  11  20  28  44  73 116 166 200 227 280 355
#     4  12  20  35  55  86 124 162 199 239 298 360
#
# _framework density 20.060179999999999
#
# number of rings (size 3 to 8) (size 9 to 14) (size 15 to 20)
#    0.000    0.692    4.615    5.077    0.000    3.692 
#    0.000    0.000    0.000    0.462    0.000    2.154 
#    0.000    0.000    0.000    0.000    0.000    0.000 
#
# Total GULP energy -289741.533424 kJ/mol
# GULP energy per Si atom -5571.952566 kJ/mol
# Density = 2.001452 g / cm^3
# Si number density = 20.060180 Si / 1000 Ang^3
#
#
#
# Elastic Constant Matrix: (Units=GPa)
#
#
# Indices 1 2 3 4 5 6 
#
# 1 126.1998 45.7023 10.7716 0.0000 0.0000 0.0000
# 2 45.7023 126.1999 10.7723 0.0000 0.0000 0.0000
# 3 10.7716 10.7723 68.3529 0.0000 0.0000 0.0000
# 4 0.0000 0.0000 0.0000 12.5205 0.0000 0.0000
# 5 0.0000 0.0000 0.0000 0.0000 12.5209 0.0000
# 6 0.0000 0.0000 0.0000 0.0000 0.0000 -15.3405
#
#
#
# Elastic Compliance Matrix: (Units=1/GPa)
#
#
# Indices 1 2 3 4 5 6 
#
# 1 0.009179 -0.003244 -0.000935 0.000000 0.000000 0.000000
# 2 -0.003244 0.009179 -0.000935 0.000000 0.000000 0.000000
# 3 -0.000935 -0.000935 0.014925 0.000000 0.000000 0.000000
# 4 0.000000 0.000000 0.000000 0.079869 0.000000 0.000000
# 5 0.000000 0.000000 0.000000 0.000000 0.079867 0.000000
# 6 0.000000 0.000000 0.000000 0.000000 0.000000 -0.065187
#
#
# Mechanical properties :
#
#
# Convention : Reuss Voigt Hill
#
# Bulk Modulus (GPa) = 43.37876 50.58276 46.98076
# Shear Modulus (GPa) = 34.30670 18.84060 26.57365
#
# Velocity S-wave (km/s) = 4.13993 3.06797 3.64359
# Velocity P-wave (km/s) = 6.67258 6.14981 6.41652
#
# Compressibility (1/GPa) = 0.02305276
#
# Stress axis : x y z
#
# Youngs Moduli (GPa) = 108.94904 108.94895 67.00287
#
# Poissons Ratio (x) = 0.35345 0.06266
# Poissons Ratio (y) = 0.35345 0.06267
# Poissons Ratio (z) = 0.10189 0.10190
#
# Static dielectric constant tensor:
#      x y z
#    x 2.415230 0.000000 0.000000 
#    y 0.000000 2.415050 0.000000 
#    z 0.000000 0.000000 1.697160 
# 
# From -- ./inp_files/11142.got.cif
#   From: 2010.05.17/outbox.cif.g08.bks.cpg/sg139_6_cif.got.tgz:11142.got - 2010.05.20 13:14:44.
