data_PCOD9571529
_publ_section_title
;
Structure prediction by ZEFSAII (Michael W. Deem and Ramdas Pophale) SiO2 
 PCOD9571529
Probable space group: I 4/M M M
;
_chemical_formula_sum "Si O2"
_cell_formula_units_Z 192
_cell_length_a 21.896902
_cell_length_b 21.896902
_cell_length_c 24.536116
_cell_angle_alpha 90.000000
_cell_angle_beta 90.000000
_cell_angle_gamma 90.000000
_cell_volume 11764.437466
_symmetry_space_group_name_H-M "I 4/M M M"
_symmetry_group_IT_number 139
_symmetry_cell_setting 'tetragonal'
loop_
_space_group_symop_operation_xyz
x,y,z
-y,x,z
-x,-y,z
y,-x,z
x,-y,-z
-x,y,-z
y,x,-z
-y,-x,-z
-x,-y,-z
y,-x,-z
x,y,-z
-y,x,-z
-x,y,z
x,-y,z
-y,-x,z
y,x,z
1/2+x,1/2+y,1/2+z
1/2-y,1/2+x,1/2+z
1/2-x,1/2-y,1/2+z
1/2+y,1/2-x,1/2+z
1/2+x,1/2-y,1/2-z
1/2-x,1/2+y,1/2-z
1/2+y,1/2+x,1/2-z
1/2-y,1/2-x,1/2-z
1/2-x,1/2-y,1/2-z
1/2+y,1/2-x,1/2-z
1/2+x,1/2+y,1/2-z
1/2-y,1/2+x,1/2-z
1/2-x,1/2+y,1/2+z
1/2+x,1/2-y,1/2+z
1/2-y,1/2-x,1/2+z
1/2+y,1/2+x,1/2+z
loop_
_atom_site_type_symbol
_atom_site_label
_atom_site_fract_x
_atom_site_fract_y
_atom_site_fract_z
Si Si1 0.263920 0.736081 0.168404
Si Si2 0.678322 0.149706 0.115773
Si Si3 0.303858 0.196380 0.500000
Si Si4 0.169295 0.931229 0.618805
Si Si5 0.196732 0.570315 0.173366
Si Si6 0.826210 0.173791 0.765014
Si Si7 0.072993 0.259316 0.790436
Si Si8 0.726104 0.570447 0.000000
O O1 0.303086 0.781698 0.133315
O O2 0.219085 0.780916 0.201648
O O3 0.305914 0.694087 0.205205
O O4 0.696262 0.152123 0.052888
O O5 0.608167 0.151445 0.134781
O O6 0.712607 0.101598 0.154582
O O7 0.251732 0.251732 0.500000
O O8 0.270332 0.129725 0.500000
O O9 0.119472 0.880529 0.633094
O O10 0.234007 0.927150 0.650232
O O11 0.186741 0.925013 0.554991
O O12 0.145684 0.000000 0.628245
O O13 0.178357 0.500000 0.173935
O O14 0.201140 0.591727 0.236586
O O15 0.805503 0.106045 0.779779
O O16 0.000000 0.255716 0.792016
O O17 0.752803 0.500000 0.000000
#
# Coordination Sequence:
#
# PCOD9571529 Si02
#       8
#    16  32  16  32  32  16  32  16
#     4   9  16  27  46  78 106 129 162 206 254 306
#     4  11  20  33  51  75 106 136 169 215 262 311
#     4  12  22  30  49  77 104 136 174 219 271 320
#     4  10  20  31  44  65  96 137 183 222 256 296
#     4  10  20  31  49  76 103 137 177 215 259 312
#     4   9  16  28  52  77 104 136 164 201 254 316
#     4  10  21  35  53  78 105 135 171 213 260 312
#     4  10  20  32  45  66 101 142 180 215 256 301
#
# _framework density 16.320373
#
# number of rings (size 3 to 8) (size 9 to 14) (size 15 to 20)
#    0.000    1.833    4.167    1.250    2.333    0.167 
#    0.000    0.417    0.000    2.250    0.000    2.333 
#    0.000    2.000    0.000    0.750    0.000    0.000 
#
# Total GULP energy -534625.359220 kJ/mol
# GULP energy per Si atom -5569.014159 kJ/mol
# Density = 1.628323 g / cm^3
# Si number density = 16.320373 Si / 1000 Ang^3
#
#
#
# Elastic Constant Matrix: (Units=GPa)
#
#
# Indices 1 2 3 4 5 6 
#
# 1 51.2918 26.7460 28.3067 0.0000 0.0000 0.0000
# 2 26.7460 51.2918 28.3067 0.0000 0.0000 0.0000
# 3 28.3067 28.3067 121.7927 0.0000 0.0000 0.0000
# 4 0.0000 0.0000 0.0000 16.4621 0.0000 0.0000
# 5 0.0000 0.0000 0.0000 0.0000 16.4621 0.0000
# 6 0.0000 0.0000 0.0000 0.0000 0.0000 16.2603
#
#
#
# Elastic Compliance Matrix: (Units=1/GPa)
#
#
# Indices 1 2 3 4 5 6 
#
# 1 0.028077 -0.012663 -0.003582 0.000000 0.000000 0.000000
# 2 -0.012663 0.028077 -0.003582 0.000000 0.000000 0.000000
# 3 -0.003582 -0.003582 0.009876 0.000000 0.000000 0.000000
# 4 0.000000 0.000000 0.000000 0.060746 0.000000 0.000000
# 5 0.000000 0.000000 0.000000 0.000000 0.060746 0.000000
# 6 0.000000 0.000000 0.000000 0.000000 0.000000 0.061500
#
#
# Mechanical properties :
#
#
# Convention : Reuss Voigt Hill
#
# Bulk Modulus (GPa) = 37.91760 43.45499 40.68630
# Shear Modulus (GPa) = 16.80861 19.23804 18.02332
#
# Velocity S-wave (km/s) = 3.21271 3.43705 3.32677
# Velocity P-wave (km/s) = 6.08652 6.51423 6.30400
#
# Compressibility (1/GPa) = 0.02637297
#
# Stress axis : x y z
#
# Youngs Moduli (GPa) = 35.61689 35.61689 101.25734
#
# Poissons Ratio (x) = 0.45103 0.36273
# Poissons Ratio (y) = 0.45103 0.36273
# Poissons Ratio (z) = 0.12759 0.12759
#
# Static dielectric constant tensor:
#      x y z
#    x 1.563740 0.000000 0.000000 
#    y 0.000000 1.563740 0.000000 
#    z 0.000000 0.000000 1.608190 
# 
# From -- ./inp_files/12067.got.cif
#   From: 2010.05.17/outbox.cif.g08.bks.cpg/sg139_7_cif.got.tgz:12067.got - 2010.05.20 13:14:44.
