data_PCOD9571471
_publ_section_title
;
Structure prediction by ZEFSAII (Michael W. Deem and Ramdas Pophale) SiO2 
 PCOD9571471
Probable space group: I 4/M M M
;
_chemical_formula_sum "Si O2"
_cell_formula_units_Z 192
_cell_length_a 17.620486
_cell_length_b 17.620486
_cell_length_c 34.323411
_cell_angle_alpha 90.000000
_cell_angle_beta 90.000000
_cell_angle_gamma 90.000000
_cell_volume 10656.785055
_symmetry_space_group_name_H-M "I 4/M M M"
_symmetry_group_IT_number 139
_symmetry_cell_setting 'tetragonal'
loop_
_space_group_symop_operation_xyz
x,y,z
-y,x,z
-x,-y,z
y,-x,z
x,-y,-z
-x,y,-z
y,x,-z
-y,-x,-z
-x,-y,-z
y,-x,-z
x,y,-z
-y,x,-z
-x,y,z
x,-y,z
-y,-x,z
y,x,z
1/2+x,1/2+y,1/2+z
1/2-y,1/2+x,1/2+z
1/2-x,1/2-y,1/2+z
1/2+y,1/2-x,1/2+z
1/2+x,1/2-y,1/2-z
1/2-x,1/2+y,1/2-z
1/2+y,1/2+x,1/2-z
1/2-y,1/2-x,1/2-z
1/2-x,1/2-y,1/2-z
1/2+y,1/2-x,1/2-z
1/2+x,1/2+y,1/2-z
1/2-y,1/2+x,1/2-z
1/2-x,1/2+y,1/2+z
1/2+x,1/2-y,1/2+z
1/2-y,1/2-x,1/2+z
1/2+y,1/2+x,1/2+z
loop_
_atom_site_type_symbol
_atom_site_label
_atom_site_fract_x
_atom_site_fract_y
_atom_site_fract_z
Si Si1 0.290526 0.587527 0.321103
Si Si2 0.699851 0.173267 0.115239
Si Si3 0.359963 0.088962 0.954719
Si Si4 0.123668 0.000000 0.452434
Si Si5 0.787982 0.587662 0.760355
Si Si6 0.500000 0.202231 0.953946
Si Si7 0.784277 0.090068 0.345015
O O1 0.296044 0.500000 0.331497
O O2 0.366937 0.633064 0.329187
O O3 0.225296 0.627208 0.346575
O O4 0.269980 0.593885 0.275623
O O5 0.763030 0.236971 0.107509
O O6 0.696507 0.116448 0.078839
O O7 0.623909 0.220122 0.126155
O O8 0.428801 0.147203 0.947441
O O9 0.380437 0.000000 0.949991
O O10 0.335482 0.098290 0.000000
O O11 0.074362 0.074362 0.440686
O O12 0.123375 0.000000 0.500000
O O13 0.211056 0.000000 0.438137
O O14 0.814238 0.500000 0.762142
O O15 0.856007 0.643994 0.750000
O O16 0.747676 0.605089 0.801294
O O17 0.500000 0.216322 0.000000
O O18 0.860252 0.139749 0.350398
O O19 0.795655 0.000000 0.348893
#
# Coordination Sequence:
#
# PCOD9571471 Si02
#       7
#    32  32  32  16  32  16  32
#     4  10  20  34  55  82 112 146 180 220 269 320
#     4  10  21  36  57  81 107 142 184 228 275 335
#     4  10  21  37  56  78 107 141 179 229 285 340
#     4   8  14  26  46  74 107 139 172 216 268 320
#     4  10  19  33  54  80 114 151 188 228 271 321
#     4   9  18  32  52  75  99 133 177 220 274 336
#     4  10  21  36  56  82 111 147 190 231 277 332
#
# _framework density 18.016691000000002
#
# number of rings (size 3 to 8) (size 9 to 14) (size 15 to 20)
#    0.000    2.250    1.667    1.500    1.167    3.167 
#    0.000    1.667    0.000    3.000    0.000    0.000 
#    0.000    0.000    0.000   15.500    0.000    0.167 
#
# Total GULP energy -535116.112183 kJ/mol
# GULP energy per Si atom -5574.126169 kJ/mol
# Density = 1.797568 g / cm^3
# Si number density = 18.016691 Si / 1000 Ang^3
#
#
#
# Elastic Constant Matrix: (Units=GPa)
#
#
# Indices 1 2 3 4 5 6 
#
# 1 111.6065 58.6255 36.6546 0.0000 0.0000 0.0000
# 2 58.6255 111.6083 36.6537 0.0000 0.0000 0.0000
# 3 36.6546 36.6537 104.4976 0.0000 0.0000 0.0000
# 4 0.0000 0.0000 0.0000 22.2353 0.0000 0.0000
# 5 0.0000 0.0000 0.0000 0.0000 22.2352 0.0000
# 6 0.0000 0.0000 0.0000 0.0000 0.0000 13.4309
#
#
#
# Elastic Compliance Matrix: (Units=1/GPa)
#
#
# Indices 1 2 3 4 5 6 
#
# 1 0.012897 -0.005977 -0.002427 0.000000 0.000000 0.000000
# 2 -0.005977 0.012897 -0.002427 0.000000 0.000000 0.000000
# 3 -0.002427 -0.002427 0.011272 0.000000 0.000000 0.000000
# 4 0.000000 0.000000 0.000000 0.044973 0.000000 0.000000
# 5 0.000000 0.000000 0.000000 0.000000 0.044974 0.000000
# 6 0.000000 0.000000 0.000000 0.000000 0.000000 0.074455
#
#
# Mechanical properties :
#
#
# Convention : Reuss Voigt Hill
#
# Bulk Modulus (GPa) = 64.92317 65.73111 65.32714
# Shear Modulus (GPa) = 21.90427 24.63220 23.26823
#
# Velocity S-wave (km/s) = 3.49058 3.70156 3.59762
# Velocity P-wave (km/s) = 7.23594 7.40482 7.32087
#
# Compressibility (1/GPa) = 0.01540282
#
# Stress axis : x y z
#
# Youngs Moduli (GPa) = 77.53673 77.53863 88.71305
#
# Poissons Ratio (x) = 0.46348 0.21533
# Poissons Ratio (y) = 0.46347 0.21531
# Poissons Ratio (z) = 0.18820 0.18819
#
# Static dielectric constant tensor:
#      x y z
#    x 1.608340 0.000000 0.000000 
#    y 0.000000 1.608340 0.000000 
#    z 0.000000 0.000000 1.623030 
# 
# From -- ./inp_files/14377.got.cif
#   From: 2010.05.17/outbox.cif.g08.bks.cpg/sg139_8_cif.got.tgz:14377.got - 2010.05.20 13:14:44.
