data_PCOD9571836
_publ_section_title
;
Structure prediction by ZEFSAII (Michael W. Deem and Ramdas Pophale) SiO2 
 PCOD9571836
Probable space group: I 4/M M M
;
_chemical_formula_sum "Si O2"
_cell_formula_units_Z 176
_cell_length_a 18.582223
_cell_length_b 18.582223
_cell_length_c 25.668691
_cell_angle_alpha 90.000000
_cell_angle_beta 90.000000
_cell_angle_gamma 90.000000
_cell_volume 8863.373632
_symmetry_space_group_name_H-M "I 4/M M M"
_symmetry_group_IT_number 139
_symmetry_cell_setting 'tetragonal'
loop_
_space_group_symop_operation_xyz
x,y,z
-y,x,z
-x,-y,z
y,-x,z
x,-y,-z
-x,y,-z
y,x,-z
-y,-x,-z
-x,-y,-z
y,-x,-z
x,y,-z
-y,x,-z
-x,y,z
x,-y,z
-y,-x,z
y,x,z
1/2+x,1/2+y,1/2+z
1/2-y,1/2+x,1/2+z
1/2-x,1/2-y,1/2+z
1/2+y,1/2-x,1/2+z
1/2+x,1/2-y,1/2-z
1/2-x,1/2+y,1/2-z
1/2+y,1/2+x,1/2-z
1/2-y,1/2-x,1/2-z
1/2-x,1/2-y,1/2-z
1/2+y,1/2-x,1/2-z
1/2+x,1/2+y,1/2-z
1/2-y,1/2+x,1/2-z
1/2-x,1/2+y,1/2+z
1/2+x,1/2-y,1/2+z
1/2-y,1/2-x,1/2+z
1/2+y,1/2+x,1/2+z
loop_
_atom_site_type_symbol
_atom_site_label
_atom_site_fract_x
_atom_site_fract_y
_atom_site_fract_z
Si Si1 0.696481 0.416291 0.623865
Si Si2 0.084569 0.799615 0.437081
Si Si3 0.081219 0.414485 0.500000
Si Si4 0.699364 0.582813 0.749484
Si Si5 0.654675 0.840299 0.402893
Si Si6 0.917541 0.646421 0.701586
O O1 0.703036 0.500000 0.608472
O O2 0.618789 0.381212 0.613175
O O3 0.707056 0.412861 0.686722
O O4 0.756598 0.365627 0.597665
O O5 0.087313 0.788401 0.500000
O O6 0.124682 0.875319 0.426392
O O7 0.132085 0.736578 0.410674
O O8 0.000000 0.797329 0.421629
O O9 0.078315 0.500000 0.500000
O O10 0.121747 0.387582 0.550758
O O11 0.000000 0.384789 0.500000
O O12 0.682116 0.500000 0.762291
O O13 0.637281 0.637281 0.765787
O O14 0.774598 0.601777 0.776459
O O15 0.627880 0.869410 0.347421
O O16 0.906110 0.593891 0.750000
O O17 0.000000 0.647464 0.684721
#
# Coordination Sequence:
#
# PCOD9571836 Si02
#       6
#    32  32  16  32  32  32
#     4  10  21  38  62  91 124 161 202 251 306 367
#     4  10  21  38  61  90 125 165 210 258 307 360
#     4  11  24  40  61  90 124 164 207 255 310 366
#     4   9  19  36  57  86 121 157 200 247 298 358
#     4  12  22  40  64  90 122 161 203 254 309 365
#     4  11  23  38  58  85 119 159 199 244 299 359
#
# _framework density 19.856999999999999
#
# number of rings (size 3 to 8) (size 9 to 14) (size 15 to 20)
#    0.000    1.545    2.727    2.727    0.000    3.273 
#    0.000    2.727    0.000    0.000    0.000    2.545 
#    0.000    2.182    0.000    0.000    0.000    0.000 
#
# Total GULP energy -491508.400085 kJ/mol
# GULP energy per Si atom -5585.322728 kJ/mol
# Density = 1.981180 g / cm^3
# Si number density = 19.857000 Si / 1000 Ang^3
#
#
#
# Elastic Constant Matrix: (Units=GPa)
#
#
# Indices 1 2 3 4 5 6 
#
# 1 82.6646 56.9550 17.3306 0.0000 0.0000 0.0000
# 2 56.9550 82.6680 17.3310 0.0000 0.0000 0.0000
# 3 17.3306 17.3310 41.0767 0.0000 0.0000 0.0000
# 4 0.0000 0.0000 0.0000 -9.2376 0.0000 0.0000
# 5 0.0000 0.0000 0.0000 0.0000 -9.2468 0.0000
# 6 0.0000 0.0000 0.0000 0.0000 0.0000 31.0200
#
#
#
# Elastic Compliance Matrix: (Units=1/GPa)
#
#
# Indices 1 2 3 4 5 6 
#
# 1 0.023447 -0.015447 -0.003375 0.000000 0.000000 0.000000
# 2 -0.015447 0.023446 -0.003375 0.000000 0.000000 0.000000
# 3 -0.003375 -0.003375 0.027193 0.000000 0.000000 0.000000
# 4 0.000000 0.000000 0.000000 -0.108253 0.000000 0.000000
# 5 0.000000 0.000000 0.000000 0.000000 -0.108145 0.000000
# 6 0.000000 0.000000 0.000000 0.000000 0.000000 0.032237
#
#
# Mechanical properties :
#
#
# Convention : Reuss Voigt Hill
#
# Bulk Modulus (GPa) = 33.67934 43.29359 38.48647
# Shear Modulus (GPa) = -89.63410 10.15997 -39.73707
#
# Velocity S-wave (km/s) = -6.72590 2.26444 -4.47829
# Velocity P-wave (km/s) = 6.58174 5.35602 2.70485
#
# Compressibility (1/GPa) = 0.02969179
#
# Stress axis : x y z
#
# Youngs Moduli (GPa) = 42.64886 42.65061 36.77427
#
# Poissons Ratio (x) = 0.65881 0.12413
# Poissons Ratio (y) = 0.65878 0.12413
# Poissons Ratio (z) = 0.14396 0.14396
#
# Static dielectric constant tensor:
#      x y z
#    x 1.693110 0.000000 0.000000 
#    y 0.000000 1.693110 0.000000 
#    z 0.000000 0.000000 1.691650 
# 
# From -- ./inp_files/13155.got.cif
#   From: 2010.05.17/outbox.cif.g08.bks.cpg/sg139_7_cif.got.tgz:13155.got - 2010.05.20 13:14:44.
