data_PCOD9571272
_publ_section_title
;
Structure prediction by ZEFSAII (Michael W. Deem and Ramdas Pophale) SiO2 
 PCOD9571272
Probable space group: I 4/M M M
;
_chemical_formula_sum "Si O2"
_cell_formula_units_Z 160
_cell_length_a 22.727372
_cell_length_b 22.727372
_cell_length_c 18.263340
_cell_angle_alpha 90.000000
_cell_angle_beta 90.000000
_cell_angle_gamma 90.000000
_cell_volume 9433.625800
_symmetry_space_group_name_H-M "I 4/M M M"
_symmetry_group_IT_number 139
_symmetry_cell_setting 'tetragonal'
loop_
_space_group_symop_operation_xyz
x,y,z
-y,x,z
-x,-y,z
y,-x,z
x,-y,-z
-x,y,-z
y,x,-z
-y,-x,-z
-x,-y,-z
y,-x,-z
x,y,-z
-y,x,-z
-x,y,z
x,-y,z
-y,-x,z
y,x,z
1/2+x,1/2+y,1/2+z
1/2-y,1/2+x,1/2+z
1/2-x,1/2-y,1/2+z
1/2+y,1/2-x,1/2+z
1/2+x,1/2-y,1/2-z
1/2-x,1/2+y,1/2-z
1/2+y,1/2+x,1/2-z
1/2-y,1/2-x,1/2-z
1/2-x,1/2-y,1/2-z
1/2+y,1/2-x,1/2-z
1/2+x,1/2+y,1/2-z
1/2-y,1/2+x,1/2-z
1/2-x,1/2+y,1/2+z
1/2+x,1/2-y,1/2+z
1/2-y,1/2-x,1/2+z
1/2+y,1/2+x,1/2+z
loop_
_atom_site_type_symbol
_atom_site_label
_atom_site_fract_x
_atom_site_fract_y
_atom_site_fract_z
Si Si1 0.432634 0.762400 0.686968
Si Si2 0.257216 0.839553 0.302065
Si Si3 0.158750 0.934488 0.087385
Si Si4 0.933204 0.401652 0.167567
Si Si5 0.816488 0.432218 0.912574
O O1 0.500000 0.756790 0.711656
O O2 0.389041 0.735081 0.745931
O O3 0.424776 0.724913 0.613867
O O4 0.422741 0.831394 0.674246
O O5 0.207363 0.792638 0.324909
O O6 0.303428 0.803428 0.250000
O O7 0.284820 0.879159 0.367422
O O8 0.114912 0.885089 0.115973
O O9 0.140671 0.000000 0.111605
O O10 0.156896 0.933403 0.000000
O O11 0.925713 0.425713 0.250000
O O12 0.883788 0.428287 0.115482
O O13 0.000000 0.411765 0.142779
O O14 0.796119 0.500000 0.896310
O O15 0.812186 0.423507 0.000000
#
# Coordination Sequence:
#
# PCOD9571272 Si02
#       5
#    32  32  32  32  32
#     4  10  18  32  54  76 104 139 176 219 264 311
#     4  11  21  36  57  80 106 137 178 223 269 321
#     4   9  18  31  47  71 102 136 175 216 261 313
#     4  11  21  35  57  81 107 142 182 223 264 309
#     4  11  23  39  57  78 110 147 182 225 272 317
#
# _framework density 16.960605000000001
#
# number of rings (size 3 to 8) (size 9 to 14) (size 15 to 20)
#    0.000    1.600    4.000    1.800    0.000    3.200 
#    0.000    4.000    0.000    0.000    0.000    0.000 
#    0.000    3.600    0.000    8.800    0.000    0.000 
#
# Total GULP energy -445644.562573 kJ/mol
# GULP energy per Si atom -5570.557032 kJ/mol
# Density = 1.692200 g / cm^3
# Si number density = 16.960605 Si / 1000 Ang^3
#
#
#
# Elastic Constant Matrix: (Units=GPa)
#
#
# Indices 1 2 3 4 5 6 
#
# 1 83.0435 63.9720 34.9104 0.0000 0.0000 0.0000
# 2 63.9720 83.0435 34.9104 0.0000 0.0000 0.0000
# 3 34.9104 34.9104 66.2462 0.0000 0.0000 0.0000
# 4 0.0000 0.0000 0.0000 22.8717 0.0000 0.0000
# 5 0.0000 0.0000 0.0000 0.0000 22.8717 0.0000
# 6 0.0000 0.0000 0.0000 0.0000 0.0000 28.5431
#
#
#
# Elastic Compliance Matrix: (Units=1/GPa)
#
#
# Indices 1 2 3 4 5 6 
#
# 1 0.030754 -0.021681 -0.004781 0.000000 0.000000 0.000000
# 2 -0.021681 0.030754 -0.004781 0.000000 0.000000 0.000000
# 3 -0.004781 -0.004781 0.020134 0.000000 0.000000 0.000000
# 4 0.000000 0.000000 0.000000 0.043722 0.000000 0.000000
# 5 0.000000 0.000000 0.000000 0.000000 0.043722 0.000000
# 6 0.000000 0.000000 0.000000 0.000000 0.000000 0.035035
#
#
# Mechanical properties :
#
#
# Convention : Reuss Voigt Hill
#
# Bulk Modulus (GPa) = 52.20518 55.54654 53.87586
# Shear Modulus (GPa) = 18.31557 21.42664 19.87111
#
# Velocity S-wave (km/s) = 3.28973 3.55817 3.42658
# Velocity P-wave (km/s) = 6.72881 7.04998 6.89127
#
# Compressibility (1/GPa) = 0.01915519
#
# Stress axis : x y z
#
# Youngs Moduli (GPa) = 32.51658 32.51658 49.66643
#
# Poissons Ratio (x) = 0.70499 0.23746
# Poissons Ratio (y) = 0.70499 0.23746
# Poissons Ratio (z) = 0.15547 0.15547
#
# Static dielectric constant tensor:
#      x y z
#    x 1.600090 0.000000 0.000000 
#    y 0.000000 1.600090 0.000000 
#    z 0.000000 0.000000 1.563220 
# 
# From -- ./inp_files/8381.got.cif
#   From: 2010.05.17/outbox.cif.g08.bks.cpg/sg139_5_cif.got.tgz:8381.got - 2010.05.20 13:14:44.
