data_PCOD9571367
_publ_section_title
;
Structure prediction by ZEFSAII (Michael W. Deem and Ramdas Pophale) SiO2 
 PCOD9571367
Probable space group: I 4/M M M
;
_chemical_formula_sum "Si O2"
_cell_formula_units_Z 192
_cell_length_a 26.250005
_cell_length_b 26.250005
_cell_length_c 15.450671
_cell_angle_alpha 90.000000
_cell_angle_beta 90.000000
_cell_angle_gamma 90.000000
_cell_volume 10646.482042
_symmetry_space_group_name_H-M "I 4/M M M"
_symmetry_group_IT_number 139
_symmetry_cell_setting 'tetragonal'
loop_
_space_group_symop_operation_xyz
x,y,z
-y,x,z
-x,-y,z
y,-x,z
x,-y,-z
-x,y,-z
y,x,-z
-y,-x,-z
-x,-y,-z
y,-x,-z
x,y,-z
-y,x,-z
-x,y,z
x,-y,z
-y,-x,z
y,x,z
1/2+x,1/2+y,1/2+z
1/2-y,1/2+x,1/2+z
1/2-x,1/2-y,1/2+z
1/2+y,1/2-x,1/2+z
1/2+x,1/2-y,1/2-z
1/2-x,1/2+y,1/2-z
1/2+y,1/2+x,1/2-z
1/2-y,1/2-x,1/2-z
1/2-x,1/2-y,1/2-z
1/2+y,1/2-x,1/2-z
1/2+x,1/2+y,1/2-z
1/2-y,1/2+x,1/2-z
1/2-x,1/2+y,1/2+z
1/2+x,1/2-y,1/2+z
1/2-y,1/2-x,1/2+z
1/2+y,1/2+x,1/2+z
loop_
_atom_site_type_symbol
_atom_site_label
_atom_site_fract_x
_atom_site_fract_y
_atom_site_fract_z
Si Si1 0.943400 0.140183 0.839428
Si Si2 0.782609 0.944182 0.000000
Si Si3 0.857610 0.440197 0.259229
Si Si4 0.440315 0.217673 0.901230
Si Si5 0.382157 0.700082 0.794530
Si Si6 0.853461 0.707799 0.822287
Si Si7 0.242725 0.670741 0.500000
O O1 0.902459 0.097542 0.861562
O O2 0.943411 0.182068 0.915023
O O3 0.925936 0.166348 0.750205
O O4 0.000000 0.119017 0.832376
O O5 0.754603 0.890052 0.000000
O O6 0.755515 0.000000 0.000000
O O7 0.861072 0.500000 0.280079
O O8 0.911308 0.411308 0.250000
O O9 0.828224 0.434708 0.167210
O O10 0.822230 0.407437 0.325185
O O11 0.500000 0.232973 0.897074
O O12 0.405210 0.263252 0.866888
O O13 0.428653 0.203419 0.000000
O O14 0.336795 0.663206 0.823460
O O15 0.362624 0.736162 0.716232
O O16 0.821816 0.678185 0.750000
O O17 0.823077 0.711541 0.911509
O O18 0.292555 0.707446 0.500000
#
# Coordination Sequence:
#
# PCOD9571367 Si02
#       7
#    32  16  32  32  32  32  16
#     4  10  19  31  48  72 103 138 176 220 269 318
#     4  10  20  32  51  77 103 135 182 227 266 315
#     4   9  19  38  61  85 114 145 177 223 276 330
#     4   9  18  34  56  77 102 141 182 216 266 332
#     4  10  19  32  52  75 104 134 175 231 270 310
#     4  10  22  39  55  79 112 146 183 226 275 330
#     4  12  22  36  60  80 109 155 196 231 280 333
#
# _framework density 18.034125
#
# number of rings (size 3 to 8) (size 9 to 14) (size 15 to 20)
#    0.000    2.167    1.667    1.750    0.000    3.333 
#   13.500    0.000    0.000    1.500    0.000    2.333 
#    0.000    0.000    0.000   15.500    0.000    0.000 
#
# Total GULP energy -535387.820825 kJ/mol
# GULP energy per Si atom -5576.956467 kJ/mol
# Density = 1.799308 g / cm^3
# Si number density = 18.034125 Si / 1000 Ang^3
#
#
#
# Elastic Constant Matrix: (Units=GPa)
#
#
# Indices 1 2 3 4 5 6 
#
# 1 67.6778 34.3830 26.5869 0.0000 0.0000 0.0000
# 2 34.3830 67.6776 26.5900 0.0000 0.0000 0.0000
# 3 26.5869 26.5900 76.3666 0.0000 0.0000 0.0000
# 4 0.0000 0.0000 0.0000 17.3557 0.0000 0.0000
# 5 0.0000 0.0000 0.0000 0.0000 17.3557 0.0000
# 6 0.0000 0.0000 0.0000 0.0000 0.0000 19.8544
#
#
#
# Elastic Compliance Matrix: (Units=1/GPa)
#
#
# Indices 1 2 3 4 5 6 
#
# 1 0.021002 -0.009033 -0.004167 0.000000 0.000000 0.000000
# 2 -0.009033 0.021003 -0.004168 0.000000 0.000000 0.000000
# 3 -0.004167 -0.004168 0.015997 0.000000 0.000000 0.000000
# 4 0.000000 0.000000 0.000000 0.057618 0.000000 0.000000
# 5 0.000000 0.000000 0.000000 0.000000 0.057618 0.000000
# 6 0.000000 0.000000 0.000000 0.000000 0.000000 0.050367
#
#
# Mechanical properties :
#
#
# Convention : Reuss Voigt Hill
#
# Bulk Modulus (GPa) = 42.98123 42.98242 42.98183
# Shear Modulus (GPa) = 18.79036 19.19062 18.99049
#
# Velocity S-wave (km/s) = 3.23140 3.26564 3.24856
# Velocity P-wave (km/s) = 6.14879 6.17291 6.16086
#
# Compressibility (1/GPa) = 0.02326597
#
# Stress axis : x y z
#
# Youngs Moduli (GPa) = 47.61515 47.61328 62.51318
#
# Poissons Ratio (x) = 0.43008 0.26047
# Poissons Ratio (y) = 0.43009 0.26056
# Poissons Ratio (z) = 0.19840 0.19846
#
# Static dielectric constant tensor:
#      x y z
#    x 1.635910 0.000000 0.000000 
#    y 0.000000 1.635910 0.000000 
#    z 0.000000 0.000000 1.637540 
# 
# From -- ./inp_files/6494.got.cif
#   From: 2010.05.17/outbox.cif.g08.bks.cpg/sg139_4_cif.got.tgz:6494.got - 2010.05.20 13:14:44.
