data_PCOD9571132
_publ_section_title
;
Structure prediction by ZEFSAII (Michael W. Deem and Ramdas Pophale) SiO2 
 PCOD9571132
Probable space group: P 42/N C M
;
_chemical_formula_sum "Si O2"
_cell_formula_units_Z 112
_cell_length_a 13.351912
_cell_length_b 13.351912
_cell_length_c 37.597237
_cell_angle_alpha 90.000000
_cell_angle_beta 90.000000
_cell_angle_gamma 90.000000
_cell_volume 6702.593063
_symmetry_space_group_name_H-M "P 42/N C M"
_symmetry_group_IT_number 138
_space_group.IT_coordinate_system_code '2'
_symmetry_cell_setting 'tetragonal'
loop_
_space_group_symop_operation_xyz
x,y,z
1/2-y,x,1/2+z
1/2-x,1/2-y,z
y,1/2-x,1/2+z
1/2+x,-y,1/2-z
-x,1/2+y,1/2-z
1/2+y,1/2+x,-z
-y,-x,-z
-x,-y,-z
1/2+y,-x,1/2-z
1/2+x,1/2+y,-z
-y,1/2+x,1/2-z
1/2-x,y,1/2+z
x,1/2-y,1/2+z
1/2-y,1/2-x,z
y,x,z
loop_
_atom_site_type_symbol
_atom_site_label
_atom_site_fract_x
_atom_site_fract_y
_atom_site_fract_z
Si Si1 0.668760 0.001729 0.780710
Si Si2 0.251127 0.581511 0.570081
Si Si3 0.495475 0.167753 0.860068
Si Si4 0.332245 0.004528 0.139932
Si Si5 0.501730 0.331241 0.280709
Si Si6 0.995249 0.667912 0.500000
Si Si7 0.251128 0.581512 0.429919
O O1 0.714082 0.998411 0.820629
O O2 0.602293 0.102291 0.777155
O O3 0.590050 0.909951 0.778661
O O4 0.750001 0.995521 0.750000
O O5 0.263471 0.520287 0.606482
O O6 0.231122 0.513935 0.535643
O O7 0.159420 0.659420 0.573499
O O8 0.350173 0.649826 0.564811
O O9 0.391813 0.108188 0.864862
O O10 0.582153 0.082150 0.859409
O O11 0.498413 0.214080 0.820629
O O12 0.520289 0.236528 0.893517
O O13 0.391810 0.108191 0.135137
O O14 0.409952 0.409952 0.278661
O O15 0.082717 0.582717 0.500000
O O16 0.013935 0.731122 0.535643
O O17 0.891071 0.608929 0.500000
#
# Coordination Sequence:
#
# PCOD9571132 Si02
#       7
#    16  16  16  16  16  16  16
#     4   9  18  32  49  70  96 125 157 193 233 278
#     4   9  16  27  46  69  88 110 146 185 216 256
#     4   8  15  29  47  66  90 118 147 183 226 267
#     4   8  15  29  47  66  90 118 147 183 226 267
#     4   9  18  32  49  70  96 125 157 193 233 278
#     4   9  17  29  44  63  90 120 144 173 220 268
#     4   9  16  27  46  69  88 110 146 185 216 256
#
# _framework density 16.709952000000001
#
# number of rings (size 3 to 8) (size 9 to 14) (size 15 to 20)
#    0.000    3.286    0.000    2.143    0.000    3.429 
#    0.000    5.000    0.000   10.286    0.000    0.000 
#    0.000    0.000    0.000    0.000    0.000    0.000 
#
# Total GULP energy -623617.916480 kJ/mol
# GULP energy per Si atom -5568.017111 kJ/mol
# Density = 1.667192 g / cm^3
# Si number density = 16.709952 Si / 1000 Ang^3
#
#
#
# Elastic Constant Matrix: (Units=GPa)
#
#
# Indices 1 2 3 4 5 6 
#
# 1 46.7159 15.8671 64.9254 0.0000 0.0000 0.0000
# 2 15.8671 46.7159 64.9254 0.0000 0.0000 0.0000
# 3 64.9254 64.9254 211.3927 0.0000 0.0000 0.0000
# 4 0.0000 0.0000 0.0000 -18.5239 0.0000 0.0000
# 5 0.0000 0.0000 0.0000 0.0000 -18.5239 0.0000
# 6 0.0000 0.0000 0.0000 0.0000 0.0000 2.4260
#
#
#
# Elastic Compliance Matrix: (Units=1/GPa)
#
#
# Indices 1 2 3 4 5 6 
#
# 1 0.038233 0.005817 -0.013529 0.000000 0.000000 0.000000
# 2 0.005817 0.038233 -0.013529 0.000000 0.000000 0.000000
# 3 -0.013529 -0.013529 0.013041 0.000000 0.000000 0.000000
# 4 0.000000 0.000000 0.000000 -0.053984 0.000000 0.000000
# 5 0.000000 0.000000 0.000000 0.000000 -0.053984 0.000000
# 6 0.000000 0.000000 0.000000 0.000000 0.000000 0.412193
#
#
# Mechanical properties :
#
#
# Convention : Reuss Voigt Hill
#
# Bulk Modulus (GPa) = 21.26574 66.25116 43.75845
# Shear Modulus (GPa) = 11.06467 3.68274 7.37370
#
# Velocity S-wave (km/s) = 2.57604 1.48617 2.10294
# Velocity P-wave (km/s) = 4.64779 6.53290 5.66925
#
# Compressibility (1/GPa) = 0.04702398
#
# Stress axis : x y z
#
# Youngs Moduli (GPa) = 26.15547 26.15547 76.68166
#
# Poissons Ratio (x) = -0.15214 1.03743
# Poissons Ratio (y) = -0.15214 1.03743
# Poissons Ratio (z) = 0.35386 0.35386
#
# Static dielectric constant tensor:
#      x y z
#    x 1.553000 0.000000 0.000000 
#    y 0.000000 1.553000 0.000000 
#    z 0.000000 0.000000 1.566170 
# 
# From -- ./inp_files/8253.got.cif
#   From: 2010.05.17/outbox.cif.g08.bks.cpg/sg138_5_cif.got.tgz:8253.got - 2010.05.20 13:08:53.
