data_PCOD9571414
_publ_section_title
;
Structure prediction by ZEFSAII (Michael W. Deem and Ramdas Pophale) SiO2 
 PCOD9571414
Probable space group: I 4/M M M
;
_chemical_formula_sum "Si O2"
_cell_formula_units_Z 112
_cell_length_a 18.494131
_cell_length_b 18.494131
_cell_length_c 18.778213
_cell_angle_alpha 90.000000
_cell_angle_beta 90.000000
_cell_angle_gamma 90.000000
_cell_volume 6422.766301
_symmetry_space_group_name_H-M "I 4/M M M"
_symmetry_group_IT_number 139
_symmetry_cell_setting 'tetragonal'
loop_
_space_group_symop_operation_xyz
x,y,z
-y,x,z
-x,-y,z
y,-x,z
x,-y,-z
-x,y,-z
y,x,-z
-y,-x,-z
-x,-y,-z
y,-x,-z
x,y,-z
-y,x,-z
-x,y,z
x,-y,z
-y,-x,z
y,x,z
1/2+x,1/2+y,1/2+z
1/2-y,1/2+x,1/2+z
1/2-x,1/2-y,1/2+z
1/2+y,1/2-x,1/2+z
1/2+x,1/2-y,1/2-z
1/2-x,1/2+y,1/2-z
1/2+y,1/2+x,1/2-z
1/2-y,1/2-x,1/2-z
1/2-x,1/2-y,1/2-z
1/2+y,1/2-x,1/2-z
1/2+x,1/2+y,1/2-z
1/2-y,1/2+x,1/2-z
1/2-x,1/2+y,1/2+z
1/2+x,1/2-y,1/2+z
1/2-y,1/2-x,1/2+z
1/2+y,1/2+x,1/2+z
loop_
_atom_site_type_symbol
_atom_site_label
_atom_site_fract_x
_atom_site_fract_y
_atom_site_fract_z
Si Si1 0.415122 0.807828 0.710577
Si Si2 0.419784 0.000000 0.585293
Si Si3 0.646983 0.166489 0.916459
Si Si4 0.800024 0.084479 0.340933
O O1 0.500000 0.822946 0.698593
O O2 0.373650 0.873650 0.750000
O O3 0.371815 0.797000 0.636836
O O4 0.409782 0.740567 0.764683
O O5 0.375962 0.927859 0.601174
O O6 0.500000 0.000000 0.617059
O O7 0.426673 0.000000 0.500000
O O8 0.628771 0.248112 0.894545
O O9 0.663209 0.159526 0.000000
O O10 0.876994 0.123007 0.338535
O O11 0.802675 0.000000 0.360585
#
# Coordination Sequence:
#
# PCOD9571414 Si02
#       4
#    32  16  32  32
#     4   9  19  32  48  73 105 138 172 210 253 304
#     4   9  16  26  44  70 101 137 170 200 235 282
#     4  10  19  32  50  75 107 139 172 206 251 310
#     4  10  21  38  56  73  98 132 174 226 273 312
#
# _framework density 17.437968999999999
#
# number of rings (size 3 to 8) (size 9 to 14) (size 15 to 20)
#    0.000    2.429    1.429    0.857    2.000    8.000 
#    0.000    0.000    0.000    0.000    0.000    2.000 
#    0.000    0.000    0.000    6.286    0.000    0.000 
#
# Total GULP energy -312203.219518 kJ/mol
# GULP energy per Si atom -5575.057491 kJ/mol
# Density = 1.739828 g / cm^3
# Si number density = 17.437969 Si / 1000 Ang^3
#
#
#
# Elastic Constant Matrix: (Units=GPa)
#
#
# Indices 1 2 3 4 5 6 
#
# 1 42.7424 30.2016 10.4627 0.0000 0.0000 0.0000
# 2 30.2016 42.7424 10.4627 0.0000 0.0000 0.0000
# 3 10.4627 10.4627 110.3042 0.0000 0.0000 0.0000
# 4 0.0000 0.0000 0.0000 10.4381 0.0000 0.0000
# 5 0.0000 0.0000 0.0000 0.0000 10.4381 0.0000
# 6 0.0000 0.0000 0.0000 0.0000 0.0000 15.3367
#
#
#
# Elastic Compliance Matrix: (Units=1/GPa)
#
#
# Indices 1 2 3 4 5 6 
#
# 1 0.046916 -0.032824 -0.001337 0.000000 0.000000 0.000000
# 2 -0.032824 0.046916 -0.001337 0.000000 0.000000 0.000000
# 3 -0.001337 -0.001337 0.009319 0.000000 0.000000 0.000000
# 4 0.000000 0.000000 0.000000 0.095803 0.000000 0.000000
# 5 0.000000 0.000000 0.000000 0.000000 0.095803 0.000000
# 6 0.000000 0.000000 0.000000 0.000000 0.000000 0.065203
#
#
# Mechanical properties :
#
#
# Convention : Reuss Voigt Hill
#
# Bulk Modulus (GPa) = 31.09671 33.11588 32.10630
# Shear Modulus (GPa) = 11.32055 16.88671 14.10363
#
# Velocity S-wave (km/s) = 2.55068 3.11527 2.84701
# Velocity P-wave (km/s) = 5.15229 5.65436 5.40915
#
# Compressibility (1/GPa) = 0.03215774
#
# Stress axis : x y z
#
# Youngs Moduli (GPa) = 21.31450 21.31450 107.30279
#
# Poissons Ratio (x) = 0.69962 0.14343
# Poissons Ratio (y) = 0.69962 0.14343
# Poissons Ratio (z) = 0.02849 0.02849
#
# Static dielectric constant tensor:
#      x y z
#    x 1.608290 0.000000 0.000000 
#    y 0.000000 1.608290 0.000000 
#    z 0.000000 0.000000 1.623220 
# 
# From -- ./inp_files/7551.got.cif
#   From: 2010.05.17/outbox.cif.g08.bks.cpg/sg139_4_cif.got.tgz:7551.got - 2010.05.20 13:14:44.
