data_PCOD9571058
_publ_section_title
;
Structure prediction by ZEFSAII (Michael W. Deem and Ramdas Pophale) SiO2 
 PCOD9571058
Probable space group: P 42/N C M
;
_chemical_formula_sum "Si O2"
_cell_formula_units_Z 60
_cell_length_a 13.090677
_cell_length_b 13.090677
_cell_length_c 16.442504
_cell_angle_alpha 90.000000
_cell_angle_beta 90.000000
_cell_angle_gamma 90.000000
_cell_volume 2817.683252
_symmetry_space_group_name_H-M "P 42/N C M"
_symmetry_group_IT_number 138
_space_group.IT_coordinate_system_code '2'
_symmetry_cell_setting 'tetragonal'
loop_
_space_group_symop_operation_xyz
x,y,z
1/2-y,x,1/2+z
1/2-x,1/2-y,z
y,1/2-x,1/2+z
1/2+x,-y,1/2-z
-x,1/2+y,1/2-z
1/2+y,1/2+x,-z
-y,-x,-z
-x,-y,-z
1/2+y,-x,1/2-z
1/2+x,1/2+y,-z
-y,1/2+x,1/2-z
1/2-x,y,1/2+z
x,1/2-y,1/2+z
1/2-y,1/2-x,z
y,x,z
loop_
_atom_site_type_symbol
_atom_site_label
_atom_site_fract_x
_atom_site_fract_y
_atom_site_fract_z
Si Si1 0.250000 0.250000 0.637965
Si Si2 0.975139 0.524862 0.320871
Si Si3 0.890482 0.609519 0.475309
Si Si4 0.682354 0.099151 0.226155
Si Si5 0.545412 0.789485 0.090479
Si Si6 0.644479 0.644479 0.217332
O O1 0.178986 0.321015 0.583533
O O2 0.179136 0.179136 0.694639
O O3 0.959978 0.540023 0.416878
O O4 0.871038 0.486211 0.281165
O O5 0.058425 0.441576 0.293152
O O6 0.805847 0.547683 0.528138
O O7 0.621128 0.203542 0.242918
O O8 0.680804 0.062154 0.132073
O O9 0.613777 0.886224 0.061873
O O10 0.603176 0.740595 0.167613
#
# Coordination Sequence:
#
# PCOD9571058 Si02
#       6
#     4   8   8  16  16   8
#     4  12  20  40  70 106 132 174 244 286 350 390
#     4  12  24  42  70 100 131 182 241 275 351 416
#     4  11  25  38  68 107 142 179 224 299 348 425
#     4  11  24  43  68  99 135 181 239 291 341 418
#     4  11  20  42  64 100 141 172 225 292 353 399
#     4  11  21  36  69  97 129 184 232 295 317 407
#
# _framework density 21.294087999999999
#
# number of rings (size 3 to 8) (size 9 to 14) (size 15 to 20)
#    0.000    0.800    6.667    2.400    0.000    2.133 
#    0.000    1.333    0.000    6.400    0.000    0.000 
#    0.000    0.000    0.000    0.000    0.000    0.000 
#
# Total GULP energy -335063.236989 kJ/mol
# GULP energy per Si atom -5584.387283 kJ/mol
# Density = 2.124562 g / cm^3
# Si number density = 21.294088 Si / 1000 Ang^3
#
#
#
# Elastic Constant Matrix: (Units=GPa)
#
#
# Indices 1 2 3 4 5 6 
#
# 1 65.9975 75.6278 42.4944 0.0000 0.0000 0.0000
# 2 75.6278 65.9975 42.4944 0.0000 0.0000 0.0000
# 3 42.4944 42.4944 116.1730 0.0000 0.0000 0.0000
# 4 0.0000 0.0000 0.0000 25.9613 0.0000 0.0000
# 5 0.0000 0.0000 0.0000 0.0000 25.9613 0.0000
# 6 0.0000 0.0000 0.0000 0.0000 0.0000 49.7737
#
#
#
# Elastic Compliance Matrix: (Units=1/GPa)
#
#
# Indices 1 2 3 4 5 6 
#
# 1 -0.047396 0.056443 -0.003309 0.000000 0.000000 0.000000
# 2 0.056443 -0.047396 -0.003309 0.000000 0.000000 0.000000
# 3 -0.003309 -0.003309 0.011029 0.000000 0.000000 0.000000
# 4 0.000000 0.000000 0.000000 0.038519 0.000000 0.000000
# 5 0.000000 0.000000 0.000000 0.000000 0.038519 0.000000
# 6 0.000000 0.000000 0.000000 0.000000 0.000000 0.020091
#
#
# Mechanical properties :
#
#
# Convention : Reuss Voigt Hill
#
# Bulk Modulus (GPa) = 62.95040 63.26678 63.10859
# Shear Modulus (GPa) = -61.73652 26.17602 -17.78025
#
# Velocity S-wave (km/s) = -5.39029 3.50989 -2.89275
# Velocity P-wave (km/s) = 3.01891 6.79715 4.30624
#
# Compressibility (1/GPa) = 0.01588552
#
# Stress axis : x y z
#
# Youngs Moduli (GPa) = -21.09870 -21.09870 90.67230
#
# Poissons Ratio (x) = 1.19087 0.30005
# Poissons Ratio (y) = 1.19087 0.30005
# Poissons Ratio (z) = -0.06982 -0.06982
#
# Static dielectric constant tensor:
#      x y z
#    x 1.873120 0.000000 0.000000 
#    y 0.000000 1.873120 0.000000 
#    z 0.000000 0.000000 1.762450 
# 
# From -- ./inp_files/3968.got.cif
#   From: 2010.05.17/outbox.cif.g08.bks.cpg/sg138_2_cif.got.tgz:3968.got - 2010.05.20 13:08:53.
