data_PCOD9571222
_publ_section_title
;
Structure prediction by ZEFSAII (Michael W. Deem and Ramdas Pophale) SiO2 
 PCOD9571222
Probable space group: I 4/M M M
;
_chemical_formula_sum "Si O2"
_cell_formula_units_Z 128
_cell_length_a 32.992101
_cell_length_b 32.992101
_cell_length_c 7.978132
_cell_angle_alpha 90.000000
_cell_angle_beta 90.000000
_cell_angle_gamma 90.000000
_cell_volume 8684.026974
_symmetry_space_group_name_H-M "I 4/M M M"
_symmetry_group_IT_number 139
_symmetry_cell_setting 'tetragonal'
loop_
_space_group_symop_operation_xyz
x,y,z
-y,x,z
-x,-y,z
y,-x,z
x,-y,-z
-x,y,-z
y,x,-z
-y,-x,-z
-x,-y,-z
y,-x,-z
x,y,-z
-y,x,-z
-x,y,z
x,-y,z
-y,-x,z
y,x,z
1/2+x,1/2+y,1/2+z
1/2-y,1/2+x,1/2+z
1/2-x,1/2-y,1/2+z
1/2+y,1/2-x,1/2+z
1/2+x,1/2-y,1/2-z
1/2-x,1/2+y,1/2-z
1/2+y,1/2+x,1/2-z
1/2-y,1/2-x,1/2-z
1/2-x,1/2-y,1/2-z
1/2+y,1/2-x,1/2-z
1/2+x,1/2+y,1/2-z
1/2-y,1/2+x,1/2-z
1/2-x,1/2+y,1/2+z
1/2+x,1/2-y,1/2+z
1/2-y,1/2-x,1/2+z
1/2+y,1/2+x,1/2+z
loop_
_atom_site_type_symbol
_atom_site_label
_atom_site_fract_x
_atom_site_fract_y
_atom_site_fract_z
Si Si1 0.612402 0.953223 0.200575
Si Si2 0.547714 0.612309 0.190955
Si Si3 0.090934 0.155999 0.000000
Si Si4 0.450479 0.741823 0.500000
Si Si5 0.951001 0.701153 0.315005
O O1 0.575672 0.924329 0.250000
O O2 0.654938 0.938431 0.277774
O O3 0.605376 0.000000 0.253860
O O4 0.617135 0.953252 0.000000
O O5 0.500000 0.611279 0.220495
O O6 0.568030 0.568030 0.199499
O O7 0.569478 0.638179 0.333573
O O8 0.554708 0.627522 0.000000
O O9 0.136435 0.136435 0.000000
O O10 0.078644 0.202947 0.000000
O O11 0.500000 0.732382 0.500000
O O12 0.441224 0.768676 0.335795
O O13 0.937010 0.713973 0.500000
O O14 0.000000 0.699862 0.316854
#
# Coordination Sequence:
#
# PCOD9571222 Si02
#       5
#    32  32  16  16  32
#     4  10  19  31  46  66  97 135 170 204 235 263
#     4   9  17  28  41  58  82 113 149 186 222 264
#     4  10  20  32  45  63  89 117 145 184 238 291
#     4  10  18  30  48  68  89 117 154 193 235 288
#     4   9  17  30  47  67  91 119 153 197 242 274
#
# _framework density 14.739705000000001
#
# number of rings (size 3 to 8) (size 9 to 14) (size 15 to 20)
#    0.000    2.500    1.250    1.875    0.000    3.000 
#    0.000    5.000    0.000    2.250    0.000    0.000 
#    0.000    1.000    0.000    0.000    0.000    0.000 
#
# Total GULP energy -356320.428761 kJ/mol
# GULP energy per Si atom -5567.506699 kJ/mol
# Density = 1.470616 g / cm^3
# Si number density = 14.739705 Si / 1000 Ang^3
#
#
#
# Elastic Constant Matrix: (Units=GPa)
#
#
# Indices 1 2 3 4 5 6 
#
# 1 78.7513 39.5166 39.8696 0.0000 0.0000 0.0000
# 2 39.5166 78.7436 39.8686 0.0000 0.0000 0.0000
# 3 39.8696 39.8686 98.8781 0.0000 0.0000 0.0000
# 4 0.0000 0.0000 0.0000 10.4398 0.0000 0.0000
# 5 0.0000 0.0000 0.0000 0.0000 10.4394 0.0000
# 6 0.0000 0.0000 0.0000 0.0000 0.0000 12.1470
#
#
#
# Elastic Compliance Matrix: (Units=1/GPa)
#
#
# Indices 1 2 3 4 5 6 
#
# 1 0.018550 -0.006939 -0.004682 0.000000 0.000000 0.000000
# 2 -0.006939 0.018552 -0.004683 0.000000 0.000000 0.000000
# 3 -0.004682 -0.004683 0.013889 0.000000 0.000000 0.000000
# 4 0.000000 0.000000 0.000000 0.095788 0.000000 0.000000
# 5 0.000000 0.000000 0.000000 0.000000 0.095791 0.000000
# 6 0.000000 0.000000 0.000000 0.000000 0.000000 0.082325
#
#
# Mechanical properties :
#
#
# Convention : Reuss Voigt Hill
#
# Bulk Modulus (GPa) = 54.39137 54.98696 54.68916
# Shear Modulus (GPa) = 13.75021 15.74646 14.74834
#
# Velocity S-wave (km/s) = 3.05760 3.27204 3.16664
# Velocity P-wave (km/s) = 7.03183 7.18758 7.11013
#
# Compressibility (1/GPa) = 0.01838527
#
# Stress axis : x y z
#
# Youngs Moduli (GPa) = 53.90716 53.90122 71.99684
#
# Poissons Ratio (x) = 0.37401 0.33710
# Poissons Ratio (y) = 0.37405 0.33714
# Poissons Ratio (z) = 0.25240 0.25240
#
# Static dielectric constant tensor:
#      x y z
#    x 1.473800 0.000000 0.000000 
#    y 0.000000 1.473800 0.000000 
#    z 0.000000 0.000000 1.523570 
# 
# From -- ./inp_files/1792.got.cif
#   From: 2010.05.17/outbox.cif.g08.bks.cpg/sg139_1_cif.got.tgz:1792.got - 2010.05.20 13:14:44.
