data_PCOD9571187
_publ_section_title
;
Structure prediction by ZEFSAII (Michael W. Deem and Ramdas Pophale) SiO2 
 PCOD9571187
Probable space group: I 4/M M M
;
_chemical_formula_sum "Si O2"
_cell_formula_units_Z 144
_cell_length_a 29.278063
_cell_length_b 29.278063
_cell_length_c 10.866112
_cell_angle_alpha 90.000000
_cell_angle_beta 90.000000
_cell_angle_gamma 90.000000
_cell_volume 9314.485244
_symmetry_space_group_name_H-M "I 4/M M M"
_symmetry_group_IT_number 139
_symmetry_cell_setting 'tetragonal'
loop_
_space_group_symop_operation_xyz
x,y,z
-y,x,z
-x,-y,z
y,-x,z
x,-y,-z
-x,y,-z
y,x,-z
-y,-x,-z
-x,-y,-z
y,-x,-z
x,y,-z
-y,x,-z
-x,y,z
x,-y,z
-y,-x,z
y,x,z
1/2+x,1/2+y,1/2+z
1/2-y,1/2+x,1/2+z
1/2-x,1/2-y,1/2+z
1/2+y,1/2-x,1/2+z
1/2+x,1/2-y,1/2-z
1/2-x,1/2+y,1/2-z
1/2+y,1/2+x,1/2-z
1/2-y,1/2-x,1/2-z
1/2-x,1/2-y,1/2-z
1/2+y,1/2-x,1/2-z
1/2+x,1/2+y,1/2-z
1/2-y,1/2+x,1/2-z
1/2-x,1/2+y,1/2+z
1/2+x,1/2-y,1/2+z
1/2-y,1/2-x,1/2+z
1/2+y,1/2+x,1/2+z
loop_
_atom_site_type_symbol
_atom_site_label
_atom_site_fract_x
_atom_site_fract_y
_atom_site_fract_z
Si Si1 0.267059 0.949081 0.856648
Si Si2 0.642377 0.357624 0.132063
Si Si3 0.690421 0.309580 0.638320
Si Si4 0.125270 0.945888 0.000000
Si Si5 0.170085 0.052370 0.742486
Si Si6 0.794855 0.654125 0.640766
O O1 0.224263 0.946795 0.764960
O O2 0.292942 0.901060 0.842917
O O3 0.288765 0.000000 0.840171
O O4 0.250625 0.948823 0.000000
O O5 0.666271 0.333730 0.247628
O O6 0.588872 0.347106 0.145636
O O7 0.659363 0.340638 0.000000
O O8 0.675578 0.324423 0.500000
O O9 0.676461 0.256124 0.647251
O O10 0.149978 0.932276 0.125488
O O11 0.075730 0.924270 0.000000
O O12 0.124597 0.000000 0.000000
O O13 0.156526 0.000000 0.717709
O O14 0.811156 0.663036 0.500000
O O15 0.824083 0.675918 0.750000
#
# Coordination Sequence:
#
# PCOD9571187 Si02
#       6
#    32  16  16  16  32  32
#     4   9  16  29  51  77  99 123 162 206 246 287
#     4  12  24  33  49  73  96 126 160 204 255 303
#     4  10  21  35  53  72  97 135 173 206 242 284
#     4  10  18  27  48  72  86 110 146 200 247 293
#     4  10  19  32  50  70  92 118 157 203 251 299
#     4  10  20  33  51  74 103 138 169 203 242 289
#
# _framework density 15.459790999999999
#
# number of rings (size 3 to 8) (size 9 to 14) (size 15 to 20)
#    0.000    2.000    4.444    0.333    1.556    1.444 
#    0.000    0.000    0.000    1.000    0.000    0.778 
#    0.000    0.444    0.000    5.556    0.000    0.000 
#
# Total GULP energy -400815.601186 kJ/mol
# GULP energy per Si atom -5566.883350 kJ/mol
# Density = 1.542460 g / cm^3
# Si number density = 15.459791 Si / 1000 Ang^3
#
#
#
# Elastic Constant Matrix: (Units=GPa)
#
#
# Indices 1 2 3 4 5 6 
#
# 1 62.3964 33.2681 45.6250 0.0000 0.0000 0.0000
# 2 33.2681 62.3913 45.6265 0.0000 0.0000 0.0000
# 3 45.6250 45.6265 102.5779 0.0000 0.0000 0.0000
# 4 0.0000 0.0000 0.0000 14.5377 0.0000 0.0000
# 5 0.0000 0.0000 0.0000 0.0000 14.5374 0.0000
# 6 0.0000 0.0000 0.0000 0.0000 0.0000 16.1789
#
#
#
# Elastic Compliance Matrix: (Units=1/GPa)
#
#
# Indices 1 2 3 4 5 6 
#
# 1 0.026244 -0.008088 -0.008075 0.000000 0.000000 0.000000
# 2 -0.008088 0.026248 -0.008077 0.000000 0.000000 0.000000
# 3 -0.008075 -0.008077 0.016933 0.000000 0.000000 0.000000
# 4 0.000000 0.000000 0.000000 0.068787 0.000000 0.000000
# 5 0.000000 0.000000 0.000000 0.000000 0.068788 0.000000
# 6 0.000000 0.000000 0.000000 0.000000 0.000000 0.061809
#
#
# Mechanical properties :
#
#
# Convention : Reuss Voigt Hill
#
# Bulk Modulus (GPa) = 47.74875 52.93385 50.34130
# Shear Modulus (GPa) = 15.41923 15.90721 15.66322
#
# Velocity S-wave (km/s) = 3.16155 3.21119 3.18647
# Velocity P-wave (km/s) = 6.65432 6.93275 6.79496
#
# Compressibility (1/GPa) = 0.02094296
#
# Stress axis : x y z
#
# Youngs Moduli (GPa) = 38.10450 38.09868 59.05565
#
# Poissons Ratio (x) = 0.30815 0.47688
# Poissons Ratio (y) = 0.30820 0.47702
# Poissons Ratio (z) = 0.30770 0.30774
#
# Static dielectric constant tensor:
#      x y z
#    x 1.523700 0.000000 0.000000 
#    y 0.000000 1.523710 0.000000 
#    z 0.000000 0.000000 1.522020 
# 
# From -- ./inp_files/2065.got.cif
#   From: 2010.05.17/outbox.cif.g08.bks.cpg/sg139_2_cif.got.tgz:2065.got - 2010.05.20 13:14:44.
