data_PCOD9571310
_publ_section_title
;
Structure prediction by ZEFSAII (Michael W. Deem and Ramdas Pophale) SiO2 
 PCOD9571310
Probable space group: I 4/M M M
;
_chemical_formula_sum "Si O2"
_cell_formula_units_Z 208
_cell_length_a 21.183381
_cell_length_b 21.183381
_cell_length_c 31.456776
_cell_angle_alpha 90.000000
_cell_angle_beta 90.000000
_cell_angle_gamma 90.000000
_cell_volume 14115.776215
_symmetry_space_group_name_H-M "I 4/M M M"
_symmetry_group_IT_number 139
_symmetry_cell_setting 'tetragonal'
loop_
_space_group_symop_operation_xyz
x,y,z
-y,x,z
-x,-y,z
y,-x,z
x,-y,-z
-x,y,-z
y,x,-z
-y,-x,-z
-x,-y,-z
y,-x,-z
x,y,-z
-y,x,-z
-x,y,z
x,-y,z
-y,-x,z
y,x,z
1/2+x,1/2+y,1/2+z
1/2-y,1/2+x,1/2+z
1/2-x,1/2-y,1/2+z
1/2+y,1/2-x,1/2+z
1/2+x,1/2-y,1/2-z
1/2-x,1/2+y,1/2-z
1/2+y,1/2+x,1/2-z
1/2-y,1/2-x,1/2-z
1/2-x,1/2-y,1/2-z
1/2+y,1/2-x,1/2-z
1/2+x,1/2+y,1/2-z
1/2-y,1/2+x,1/2-z
1/2-x,1/2+y,1/2+z
1/2+x,1/2-y,1/2+z
1/2-y,1/2-x,1/2+z
1/2+y,1/2+x,1/2+z
loop_
_atom_site_type_symbol
_atom_site_label
_atom_site_fract_x
_atom_site_fract_y
_atom_site_fract_z
Si Si1 0.858539 0.573582 0.086676
Si Si2 0.570759 0.924897 0.822650
Si Si3 0.335361 0.236287 0.870177
Si Si4 0.428885 0.923673 0.500000
Si Si5 0.330410 0.428894 0.177276
Si Si6 0.147286 0.694044 0.793668
Si Si7 0.677294 0.426895 0.279630
O O1 0.837336 0.500000 0.083084
O O2 0.904834 0.575178 0.127727
O O3 0.803769 0.623007 0.097313
O O4 0.893234 0.592492 0.043391
O O5 0.500000 0.905051 0.807848
O O6 0.628524 0.891314 0.799165
O O7 0.575158 0.000000 0.818387
O O8 0.283253 0.283253 0.889021
O O9 0.384902 0.278003 0.843420
O O10 0.303081 0.191351 0.835113
O O11 0.500000 0.898560 0.500000
O O12 0.432556 0.000000 0.500000
O O13 0.324487 0.500000 0.162094
O O14 0.397764 0.397764 0.167292
O O15 0.322950 0.427745 0.228150
O O16 0.187043 0.687043 0.750000
O O17 0.102884 0.755340 0.792243
O O18 0.670160 0.500000 0.293738
O O19 0.620067 0.379934 0.292800
#
# Coordination Sequence:
#
# PCOD9571310 Si02
#       7
#    32  32  32  16  32  32  32
#     4   9  17  29  46  66  87 112 141 175 214 259
#     4   9  18  30  42  61  90 120 149 184 225 266
#     4  10  19  30  44  61  85 116 148 182 222 264
#     4   9  16  28  49  72  90 110 136 165 200 249
#     4   9  17  28  42  59  80 108 144 187 231 271
#     4  11  20  30  45  62  85 118 156 191 223 266
#     4  10  20  32  46  63  82 108 147 193 238 279
#
# _framework density 14.735286
#
# number of rings (size 3 to 8) (size 9 to 14) (size 15 to 20)
#    0.000    2.385    1.538    1.846    0.000    4.615 
#    0.000    2.692    0.000    0.000    0.000    0.000 
#    0.000    0.000    0.000    0.000    0.000   46.154 
#
# Total GULP energy -579556.737710 kJ/mol
# GULP energy per Si atom -5572.660940 kJ/mol
# Density = 1.470175 g / cm^3
# Si number density = 14.735286 Si / 1000 Ang^3
#
#
#
# Elastic Constant Matrix: (Units=GPa)
#
#
# Indices 1 2 3 4 5 6 
#
# 1 98.8786 52.7428 27.4315 0.0000 0.0000 0.0000
# 2 52.7428 98.8786 27.4315 0.0000 0.0000 0.0000
# 3 27.4315 27.4315 51.1248 0.0000 0.0000 0.0000
# 4 0.0000 0.0000 0.0000 11.1036 0.0000 0.0000
# 5 0.0000 0.0000 0.0000 0.0000 11.1036 0.0000
# 6 0.0000 0.0000 0.0000 0.0000 0.0000 27.0711
#
#
#
# Elastic Compliance Matrix: (Units=1/GPa)
#
#
# Indices 1 2 3 4 5 6 
#
# 1 0.014930 -0.006745 -0.004391 0.000000 0.000000 0.000000
# 2 -0.006745 0.014930 -0.004391 0.000000 0.000000 0.000000
# 3 -0.004391 -0.004391 0.024273 0.000000 0.000000 0.000000
# 4 0.000000 0.000000 0.000000 0.090061 0.000000 0.000000
# 5 0.000000 0.000000 0.000000 0.000000 0.090061 0.000000
# 6 0.000000 0.000000 0.000000 0.000000 0.000000 0.036940
#
#
# Mechanical properties :
#
#
# Convention : Reuss Voigt Hill
#
# Bulk Modulus (GPa) = 43.33581 51.56597 47.45089
# Shear Modulus (GPa) = 16.13207 19.27407 17.70307
#
# Velocity S-wave (km/s) = 3.31235 3.62058 3.46989
# Velocity P-wave (km/s) = 6.64096 7.24907 6.95167
#
# Compressibility (1/GPa) = 0.02307561
#
# Stress axis : x y z
#
# Youngs Moduli (GPa) = 66.98023 66.98023 41.19889
#
# Poissons Ratio (x) = 0.45181 0.18092
# Poissons Ratio (y) = 0.45181 0.18092
# Poissons Ratio (z) = 0.29414 0.29414
#
# Static dielectric constant tensor:
#      x y z
#    x 1.498980 0.000000 0.000000 
#    y 0.000000 1.498980 0.000000 
#    z 0.000000 0.000000 1.463660 
# 
# From -- ./inp_files/14493.got.cif
#   From: 2010.05.17/outbox.cif.g08.bks.cpg/sg139_8_cif.got.tgz:14493.got - 2010.05.20 13:14:44.
