data_PCOD9571420
_publ_section_title
;
Structure prediction by ZEFSAII (Michael W. Deem and Ramdas Pophale) SiO2 
 PCOD9571420
Probable space group: I 4/M M M
;
_chemical_formula_sum "Si O2"
_cell_formula_units_Z 160
_cell_length_a 24.474482
_cell_length_b 24.474482
_cell_length_c 15.324683
_cell_angle_alpha 90.000000
_cell_angle_beta 90.000000
_cell_angle_gamma 90.000000
_cell_volume 9179.489242
_symmetry_space_group_name_H-M "I 4/M M M"
_symmetry_group_IT_number 139
_symmetry_cell_setting 'tetragonal'
loop_
_space_group_symop_operation_xyz
x,y,z
-y,x,z
-x,-y,z
y,-x,z
x,-y,-z
-x,y,-z
y,x,-z
-y,-x,-z
-x,-y,-z
y,-x,-z
x,y,-z
-y,x,-z
-x,y,z
x,-y,z
-y,-x,z
y,x,z
1/2+x,1/2+y,1/2+z
1/2-y,1/2+x,1/2+z
1/2-x,1/2-y,1/2+z
1/2+y,1/2-x,1/2+z
1/2+x,1/2-y,1/2-z
1/2-x,1/2+y,1/2-z
1/2+y,1/2+x,1/2-z
1/2-y,1/2-x,1/2-z
1/2-x,1/2-y,1/2-z
1/2+y,1/2-x,1/2-z
1/2+x,1/2+y,1/2-z
1/2-y,1/2+x,1/2-z
1/2-x,1/2+y,1/2+z
1/2+x,1/2-y,1/2+z
1/2-y,1/2-x,1/2+z
1/2+y,1/2+x,1/2+z
loop_
_atom_site_type_symbol
_atom_site_label
_atom_site_fract_x
_atom_site_fract_y
_atom_site_fract_z
Si Si1 0.863932 0.333119 0.097163
Si Si2 0.437789 0.936660 0.144442
Si Si3 0.264700 0.645546 0.093871
Si Si4 0.646950 0.438422 0.603425
Si Si5 0.361771 0.273556 0.710776
O O1 0.899322 0.387785 0.112879
O O2 0.800089 0.347631 0.094958
O O3 0.867869 0.287267 0.172353
O O4 0.878400 0.311029 0.000000
O O5 0.500000 0.919821 0.118530
O O6 0.436196 0.936196 0.250000
O O7 0.430403 0.000000 0.116766
O O8 0.296421 0.703580 0.093653
O O9 0.278542 0.620774 0.188021
O O10 0.279695 0.619023 0.000000
O O11 0.657924 0.436474 0.500000
O O12 0.650688 0.500000 0.633954
O O13 0.587401 0.412600 0.617163
O O14 0.689286 0.400459 0.652546
O O15 0.300819 0.300819 0.703370
#
# Coordination Sequence:
#
# PCOD9571420 Si02
#       5
#    32  32  32  32  32
#     4  11  21  31  48  73  99 131 168 202 242 296
#     4   9  19  36  54  69  89 123 168 215 258 297
#     4   9  18  32  50  73  99 127 162 201 242 295
#     4   9  18  32  50  74 104 136 167 198 236 286
#     4  10  19  32  51  74 103 134 162 201 251 295
#
# _framework density 17.430164000000001
#
# number of rings (size 3 to 8) (size 9 to 14) (size 15 to 20)
#    0.000    2.400    0.000    3.600    0.000    5.400 
#    0.000    3.000    0.000    1.800    0.000    0.000 
#    0.000    0.000    0.000    7.800    0.000    0.200 
#
# Total GULP energy -445359.760659 kJ/mol
# GULP energy per Si atom -5566.997008 kJ/mol
# Density = 1.739049 g / cm^3
# Si number density = 17.430164 Si / 1000 Ang^3
#
#
#
# Elastic Constant Matrix: (Units=GPa)
#
#
# Indices 1 2 3 4 5 6 
#
# 1 77.6029 15.3468 18.9807 0.0000 0.0000 0.0000
# 2 15.3468 77.6029 18.9807 0.0000 0.0000 0.0000
# 3 18.9807 18.9807 61.3578 0.0000 0.0000 0.0000
# 4 0.0000 0.0000 0.0000 11.0171 0.0000 0.0000
# 5 0.0000 0.0000 0.0000 0.0000 11.0171 0.0000
# 6 0.0000 0.0000 0.0000 0.0000 0.0000 19.3915
#
#
#
# Elastic Compliance Matrix: (Units=1/GPa)
#
#
# Indices 1 2 3 4 5 6 
#
# 1 0.014188 -0.001874 -0.003809 0.000000 0.000000 0.000000
# 2 -0.001874 0.014188 -0.003809 0.000000 0.000000 0.000000
# 3 -0.003809 -0.003809 0.018655 0.000000 0.000000 0.000000
# 4 0.000000 0.000000 0.000000 0.090768 0.000000 0.000000
# 5 0.000000 0.000000 0.000000 0.000000 0.090768 0.000000
# 6 0.000000 0.000000 0.000000 0.000000 0.000000 0.051569
#
#
# Mechanical properties :
#
#
# Convention : Reuss Voigt Hill
#
# Bulk Modulus (GPa) = 35.65596 35.90887 35.78241
# Shear Modulus (GPa) = 16.20901 19.16886 17.68893
#
# Velocity S-wave (km/s) = 3.05280 3.31985 3.18912
# Velocity P-wave (km/s) = 5.73820 5.94487 5.84245
#
# Compressibility (1/GPa) = 0.02804580
#
# Stress axis : x y z
#
# Youngs Moduli (GPa) = 70.47976 70.47976 53.60599
#
# Poissons Ratio (x) = 0.13209 0.20420
# Poissons Ratio (y) = 0.13209 0.20420
# Poissons Ratio (z) = 0.26848 0.26848
#
# Static dielectric constant tensor:
#      x y z
#    x 1.576460 0.000000 0.000000 
#    y 0.000000 1.576460 0.000000 
#    z 0.000000 0.000000 1.653930 
# 
# From -- ./inp_files/5889.got.cif
#   From: 2010.05.17/outbox.cif.g08.bks.cpg/sg139_3_cif.got.tgz:5889.got - 2010.05.20 13:14:44.
