data_PCOD9571116
_publ_section_title
;
Structure prediction by ZEFSAII (Michael W. Deem and Ramdas Pophale) SiO2 
 PCOD9571116
Probable space group: P 42/N C M
;
_chemical_formula_sum "Si O2"
_cell_formula_units_Z 60
_cell_length_a 11.708297
_cell_length_b 11.708297
_cell_length_c 22.568897
_cell_angle_alpha 90.000000
_cell_angle_beta 90.000000
_cell_angle_gamma 90.000000
_cell_volume 3093.839611
_symmetry_space_group_name_H-M "P 42/N C M"
_symmetry_group_IT_number 138
_space_group.IT_coordinate_system_code '2'
_symmetry_cell_setting 'tetragonal'
loop_
_space_group_symop_operation_xyz
x,y,z
1/2-y,x,1/2+z
1/2-x,1/2-y,z
y,1/2-x,1/2+z
1/2+x,-y,1/2-z
-x,1/2+y,1/2-z
1/2+y,1/2+x,-z
-y,-x,-z
-x,-y,-z
1/2+y,-x,1/2-z
1/2+x,1/2+y,-z
-y,1/2+x,1/2-z
1/2-x,y,1/2+z
x,1/2-y,1/2+z
1/2-y,1/2-x,z
y,x,z
loop_
_atom_site_type_symbol
_atom_site_label
_atom_site_fract_x
_atom_site_fract_y
_atom_site_fract_z
Si Si1 0.591153 0.591153 0.475298
Si Si2 0.538620 0.961381 0.842074
Si Si3 0.486466 0.679848 0.032805
Si Si4 0.750000 0.250000 0.250000
Si Si5 0.233492 0.548183 0.836325
Si Si6 0.339493 0.339493 0.766960
O O1 0.500000 0.500000 0.500000
O O2 0.586223 0.586223 0.404174
O O3 0.713790 0.547443 0.499431
O O4 0.402928 0.941526 0.839045
O O5 0.596846 0.903155 0.785928
O O6 0.581828 0.581828 0.039750
O O7 0.446225 0.720622 0.097200
O O8 0.379231 0.620770 0.000000
O O9 0.853838 0.280901 0.293252
O O10 0.272411 0.429290 0.807712
O O11 0.250000 0.250000 0.741134
#
# Coordination Sequence:
#
# PCOD9571116 Si02
#       6
#     8   8  16   4  16   8
#     4  12  25  43  70 102 140 179 234 289 347 425
#     4  12  26  46  66 107 139 184 236 287 355 415
#     4  11  26  45  71 105 139 185 234 291 358 424
#     4  12  28  40  66 108 140 176 232 302 336 408
#     4  12  24  44  71  99 141 183 236 288 349 422
#     4  12  26  44  73 102 137 189 232 285 353 415
#
# _framework density 19.393377000000001
#
# number of rings (size 3 to 8) (size 9 to 14) (size 15 to 20)
#    0.000    0.267    8.000    0.400    3.733    1.600 
#    0.000    2.667    0.000    0.000    0.000    0.000 
#    0.000    0.000    0.000    0.000    0.000    0.000 
#
# Total GULP energy -335582.789957 kJ/mol
# GULP energy per Si atom -5593.046499 kJ/mol
# Density = 1.934924 g / cm^3
# Si number density = 19.393377 Si / 1000 Ang^3
#
#
#
# Elastic Constant Matrix: (Units=GPa)
#
#
# Indices 1 2 3 4 5 6 
#
# 1 118.8111 48.7182 71.8897 0.0000 0.0000 0.0000
# 2 48.7182 118.8086 71.8903 0.0000 0.0000 0.0000
# 3 71.8897 71.8903 186.5449 0.0000 0.0000 0.0000
# 4 0.0000 0.0000 0.0000 27.5755 0.0000 0.0000
# 5 0.0000 0.0000 0.0000 0.0000 27.5755 0.0000
# 6 0.0000 0.0000 0.0000 0.0000 0.0000 34.5889
#
#
#
# Elastic Compliance Matrix: (Units=1/GPa)
#
#
# Indices 1 2 3 4 5 6 
#
# 1 0.011593 -0.002674 -0.003437 0.000000 0.000000 0.000000
# 2 -0.002674 0.011593 -0.003437 0.000000 0.000000 0.000000
# 3 -0.003437 -0.003437 0.008010 0.000000 0.000000 0.000000
# 4 0.000000 0.000000 0.000000 0.036264 0.000000 0.000000
# 5 0.000000 0.000000 0.000000 0.000000 0.036264 0.000000
# 6 0.000000 0.000000 0.000000 0.000000 0.000000 0.028911
#
#
# Mechanical properties :
#
#
# Convention : Reuss Voigt Hill
#
# Bulk Modulus (GPa) = 82.64971 89.90678 86.27824
# Shear Modulus (GPa) = 32.09963 33.39241 32.74602
#
# Velocity S-wave (km/s) = 4.07281 4.15401 4.11361
# Velocity P-wave (km/s) = 8.05153 8.33474 8.19436
#
# Compressibility (1/GPa) = 0.01209926
#
# Stress axis : x y z
#
# Youngs Moduli (GPa) = 86.25971 86.25694 124.84565
#
# Poissons Ratio (x) = 0.23065 0.42911
# Poissons Ratio (y) = 0.23065 0.42913
# Poissons Ratio (z) = 0.29649 0.29649
#
# Static dielectric constant tensor:
#      x y z
#    x 1.672410 0.000000 0.000000 
#    y 0.000000 1.672420 0.000000 
#    z 0.000000 0.000000 1.639000 
# 
# From -- ./inp_files/5900.got.cif
#   From: 2010.05.17/outbox.cif.g08.bks.cpg/sg138_3_cif.got.tgz:5900.got - 2010.05.20 13:08:53.
