data_PCOD9571573
_publ_section_title
;
Structure prediction by ZEFSAII (Michael W. Deem and Ramdas Pophale) SiO2 
 PCOD9571573
Probable space group: I 4/M M M
;
_chemical_formula_sum "Si O2"
_cell_formula_units_Z 192
_cell_length_a 28.023410
_cell_length_b 28.023410
_cell_length_c 14.209751
_cell_angle_alpha 90.000000
_cell_angle_beta 90.000000
_cell_angle_gamma 90.000000
_cell_volume 11159.080987
_symmetry_space_group_name_H-M "I 4/M M M"
_symmetry_group_IT_number 139
_symmetry_cell_setting 'tetragonal'
loop_
_space_group_symop_operation_xyz
x,y,z
-y,x,z
-x,-y,z
y,-x,z
x,-y,-z
-x,y,-z
y,x,-z
-y,-x,-z
-x,-y,-z
y,-x,-z
x,y,-z
-y,x,-z
-x,y,z
x,-y,z
-y,-x,z
y,x,z
1/2+x,1/2+y,1/2+z
1/2-y,1/2+x,1/2+z
1/2-x,1/2-y,1/2+z
1/2+y,1/2-x,1/2+z
1/2+x,1/2-y,1/2-z
1/2-x,1/2+y,1/2-z
1/2+y,1/2+x,1/2-z
1/2-y,1/2-x,1/2-z
1/2-x,1/2-y,1/2-z
1/2+y,1/2-x,1/2-z
1/2+x,1/2+y,1/2-z
1/2-y,1/2+x,1/2-z
1/2-x,1/2+y,1/2+z
1/2+x,1/2-y,1/2+z
1/2-y,1/2-x,1/2+z
1/2+y,1/2+x,1/2+z
loop_
_atom_site_type_symbol
_atom_site_label
_atom_site_fract_x
_atom_site_fract_y
_atom_site_fract_z
Si Si1 0.279407 0.085847 0.108921
Si Si2 0.802432 0.725541 0.114376
Si Si3 0.056420 0.353789 0.608370
Si Si4 0.273211 0.351809 0.887589
Si Si5 0.553484 0.248495 0.201778
Si Si6 0.553215 0.110922 0.611498
O O1 0.276723 0.141813 0.136387
O O2 0.249752 0.057389 0.185938
O O3 0.333411 0.066485 0.116088
O O4 0.264643 0.080902 0.000000
O O5 0.772391 0.772391 0.145177
O O6 0.772908 0.678870 0.145907
O O7 0.800057 0.725217 0.000000
O O8 0.073065 0.344859 0.500000
O O9 0.063624 0.306172 0.668482
O O10 0.081823 0.401008 0.646379
O O11 0.000000 0.362621 0.605406
O O12 0.318201 0.318201 0.868458
O O13 0.277442 0.403344 0.842452
O O14 0.268622 0.357172 0.000000
O O15 0.500000 0.260364 0.169803
O O16 0.550438 0.098615 0.500000
O O17 0.500000 0.102769 0.652050
#
# Coordination Sequence:
#
# PCOD9571573 Si02
#       6
#    32  32  32  32  32  32
#     4  10  20  33  47  63  88 122 160 201 239 276
#     4   8  15  29  49  72  96 122 154 193 237 287
#     4   9  18  31  45  63  87 112 143 190 245 296
#     4   9  18  33  52  75 103 129 153 188 237 293
#     4  11  22  33  48  70  94 124 161 196 236 287
#     4   9  17  29  44  60  81 114 155 197 240 284
#
# _framework density 17.205718000000001
#
# number of rings (size 3 to 8) (size 9 to 14) (size 15 to 20)
#    0.000    2.667    0.000    3.000    0.000    8.333 
#    0.000    3.333    0.000    0.000    0.000    2.333 
#    0.000    0.333    0.000    1.833    0.000    0.000 
#
# Total GULP energy -535791.834639 kJ/mol
# GULP energy per Si atom -5581.164944 kJ/mol
# Density = 1.716656 g / cm^3
# Si number density = 17.205718 Si / 1000 Ang^3
#
#
#
# Elastic Constant Matrix: (Units=GPa)
#
#
# Indices 1 2 3 4 5 6 
#
# 1 46.1429 15.2688 18.4298 0.0000 0.0000 0.0000
# 2 15.2688 46.1429 18.4298 0.0000 0.0000 0.0000
# 3 18.4298 18.4298 61.4988 0.0000 0.0000 0.0000
# 4 0.0000 0.0000 0.0000 11.6809 0.0000 0.0000
# 5 0.0000 0.0000 0.0000 0.0000 11.6809 0.0000
# 6 0.0000 0.0000 0.0000 0.0000 0.0000 12.1656
#
#
#
# Elastic Compliance Matrix: (Units=1/GPa)
#
#
# Indices 1 2 3 4 5 6 
#
# 1 0.026122 -0.006267 -0.005950 0.000000 0.000000 0.000000
# 2 -0.006267 0.026122 -0.005950 0.000000 0.000000 0.000000
# 3 -0.005950 -0.005950 0.019827 0.000000 0.000000 0.000000
# 4 0.000000 0.000000 0.000000 0.085610 0.000000 0.000000
# 5 0.000000 0.000000 0.000000 0.000000 0.085610 0.000000
# 6 0.000000 0.000000 0.000000 0.000000 0.000000 0.082199
#
#
# Mechanical properties :
#
#
# Convention : Reuss Voigt Hill
#
# Bulk Modulus (GPa) = 27.98291 28.67128 28.32709
# Shear Modulus (GPa) = 13.37840 13.88256 13.63048
#
# Velocity S-wave (km/s) = 2.79149 2.84361 2.81767
# Velocity P-wave (km/s) = 5.16613 5.24227 5.20434
#
# Compressibility (1/GPa) = 0.03573610
#
# Stress axis : x y z
#
# Youngs Moduli (GPa) = 38.28169 38.28169 50.43718
#
# Poissons Ratio (x) = 0.23993 0.30010
# Poissons Ratio (y) = 0.23993 0.30010
# Poissons Ratio (z) = 0.22778 0.22778
#
# Static dielectric constant tensor:
#      x y z
#    x 1.575620 0.000000 0.000000 
#    y 0.000000 1.575620 0.000000 
#    z 0.000000 0.000000 1.682050 
# 
# From -- ./inp_files/6617.got.cif
#   From: 2010.05.17/outbox.cif.g08.bks.cpg/sg139_4_cif.got.tgz:6617.got - 2010.05.20 13:14:44.
