data_PCOD9571174
_publ_section_title
;
Structure prediction by ZEFSAII (Michael W. Deem and Ramdas Pophale) SiO2 
 PCOD9571174
Probable space group: I 4/M M M
;
_chemical_formula_sum "Si O2"
_cell_formula_units_Z 160
_cell_length_a 18.777709
_cell_length_b 18.777709
_cell_length_c 32.044651
_cell_angle_alpha 90.000000
_cell_angle_beta 90.000000
_cell_angle_gamma 90.000000
_cell_volume 11299.019417
_symmetry_space_group_name_H-M "I 4/M M M"
_symmetry_group_IT_number 139
_symmetry_cell_setting 'tetragonal'
loop_
_space_group_symop_operation_xyz
x,y,z
-y,x,z
-x,-y,z
y,-x,z
x,-y,-z
-x,y,-z
y,x,-z
-y,-x,-z
-x,-y,-z
y,-x,-z
x,y,-z
-y,x,-z
-x,y,z
x,-y,z
-y,-x,z
y,x,z
1/2+x,1/2+y,1/2+z
1/2-y,1/2+x,1/2+z
1/2-x,1/2-y,1/2+z
1/2+y,1/2-x,1/2+z
1/2+x,1/2-y,1/2-z
1/2-x,1/2+y,1/2-z
1/2+y,1/2+x,1/2-z
1/2-y,1/2-x,1/2-z
1/2-x,1/2-y,1/2-z
1/2+y,1/2-x,1/2-z
1/2+x,1/2+y,1/2-z
1/2-y,1/2+x,1/2-z
1/2-x,1/2+y,1/2+z
1/2+x,1/2-y,1/2+z
1/2-y,1/2-x,1/2+z
1/2+y,1/2+x,1/2+z
loop_
_atom_site_type_symbol
_atom_site_label
_atom_site_fract_x
_atom_site_fract_y
_atom_site_fract_z
Si Si1 0.415491 0.917533 0.826639
Si Si2 0.651473 0.086401 0.913545
Si Si3 0.659007 0.159007 0.250000
Si Si4 0.199401 0.084430 0.777691
Si Si5 0.413058 0.082811 0.500000
Si Si6 0.417331 0.698669 0.622589
O O1 0.500000 0.916414 0.821620
O O2 0.395017 0.893430 0.873189
O O3 0.379719 0.871524 0.790935
O O4 0.390947 0.000000 0.821910
O O5 0.732181 0.106734 0.903001
O O6 0.649687 0.000000 0.914872
O O7 0.621014 0.111553 0.957608
O O8 0.740530 0.133386 0.244249
O O9 0.123059 0.123059 0.771017
O O10 0.214081 0.087549 0.827688
O O11 0.201521 0.000000 0.766066
O O12 0.500000 0.084816 0.500000
O O13 0.392762 0.000000 0.500000
O O14 0.500000 0.684610 0.613405
O O15 0.368208 0.631793 0.613390
#
# Coordination Sequence:
#
# PCOD9571174 Si02
#       6
#    32  32  16  32  16  32
#     4  10  18  26  39  60  89 123 152 180 218 267
#     4   9  16  28  42  59  84 111 142 182 221 260
#     4  12  19  29  44  66  94 119 148 182 227 278
#     4  10  20  33  48  66  89 120 158 196 233 274
#     4   9  16  26  43  64  83 107 140 173 209 258
#     4   9  17  30  46  63  85 114 149 191 234 272
#
# _framework density 14.16052
#
# number of rings (size 3 to 8) (size 9 to 14) (size 15 to 20)
#    0.000    2.300    2.000    2.700    0.000    3.600 
#    0.000    2.500    0.000    0.000    0.000    0.000 
#    0.000    4.000    0.000    0.000    0.000    0.000 
#
# Total GULP energy -445568.664763 kJ/mol
# GULP energy per Si atom -5569.608310 kJ/mol
# Density = 1.412829 g / cm^3
# Si number density = 14.160520 Si / 1000 Ang^3
#
#
#
# Elastic Constant Matrix: (Units=GPa)
#
#
# Indices 1 2 3 4 5 6 
#
# 1 65.1824 40.3515 24.9334 0.0000 0.0000 0.0000
# 2 40.3515 65.1824 24.9334 0.0000 0.0000 0.0000
# 3 24.9334 24.9334 71.6372 0.0000 0.0000 0.0000
# 4 0.0000 0.0000 0.0000 14.5181 0.0000 0.0000
# 5 0.0000 0.0000 0.0000 0.0000 14.5181 0.0000
# 6 0.0000 0.0000 0.0000 0.0000 0.0000 18.5619
#
#
#
# Elastic Compliance Matrix: (Units=1/GPa)
#
#
# Indices 1 2 3 4 5 6 
#
# 1 0.025807 -0.014466 -0.003947 0.000000 0.000000 0.000000
# 2 -0.014466 0.025807 -0.003947 0.000000 0.000000 0.000000
# 3 -0.003947 -0.003947 0.016707 0.000000 0.000000 0.000000
# 4 0.000000 0.000000 0.000000 0.068880 0.000000 0.000000
# 5 0.000000 0.000000 0.000000 0.000000 0.068880 0.000000
# 6 0.000000 0.000000 0.000000 0.000000 0.000000 0.053874
#
#
# Mechanical properties :
#
#
# Convention : Reuss Voigt Hill
#
# Bulk Modulus (GPa) = 42.37340 42.49316 42.43328
# Shear Modulus (GPa) = 15.99796 16.97186 16.48491
#
# Velocity S-wave (km/s) = 3.36483 3.46574 3.41566
# Velocity P-wave (km/s) = 6.71452 6.78885 6.75179
#
# Compressibility (1/GPa) = 0.02359971
#
# Stress axis : x y z
#
# Youngs Moduli (GPa) = 38.74982 38.74982 59.85568
#
# Poissons Ratio (x) = 0.56055 0.23626
# Poissons Ratio (y) = 0.56055 0.23626
# Poissons Ratio (z) = 0.15295 0.15295
#
# Static dielectric constant tensor:
#      x y z
#    x 1.470740 0.000000 0.000000 
#    y 0.000000 1.470740 0.000000 
#    z 0.000000 0.000000 1.461420 
# 
# From -- ./inp_files/14088.got.cif
#   From: 2010.05.17/outbox.cif.g08.bks.cpg/sg139_8_cif.got.tgz:14088.got - 2010.05.20 13:14:44.
