data_PCOD9571553
_publ_section_title
;
Structure prediction by ZEFSAII (Michael W. Deem and Ramdas Pophale) SiO2 
 PCOD9571553
Probable space group: I 4/M M M
;
_chemical_formula_sum "Si O2"
_cell_formula_units_Z 176
_cell_length_a 18.596226
_cell_length_b 18.596226
_cell_length_c 30.577556
_cell_angle_alpha 90.000000
_cell_angle_beta 90.000000
_cell_angle_gamma 90.000000
_cell_volume 10574.318841
_symmetry_space_group_name_H-M "I 4/M M M"
_symmetry_group_IT_number 139
_symmetry_cell_setting 'tetragonal'
loop_
_space_group_symop_operation_xyz
x,y,z
-y,x,z
-x,-y,z
y,-x,z
x,-y,-z
-x,y,-z
y,x,-z
-y,-x,-z
-x,-y,-z
y,-x,-z
x,y,-z
-y,x,-z
-x,y,z
x,-y,z
-y,-x,z
y,x,z
1/2+x,1/2+y,1/2+z
1/2-y,1/2+x,1/2+z
1/2-x,1/2-y,1/2+z
1/2+y,1/2-x,1/2+z
1/2+x,1/2-y,1/2-z
1/2-x,1/2+y,1/2-z
1/2+y,1/2+x,1/2-z
1/2-y,1/2-x,1/2-z
1/2-x,1/2-y,1/2-z
1/2+y,1/2-x,1/2-z
1/2+x,1/2+y,1/2-z
1/2-y,1/2+x,1/2-z
1/2-x,1/2+y,1/2+z
1/2+x,1/2-y,1/2+z
1/2-y,1/2-x,1/2+z
1/2+y,1/2+x,1/2+z
loop_
_atom_site_type_symbol
_atom_site_label
_atom_site_fract_x
_atom_site_fract_y
_atom_site_fract_z
Si Si1 0.299651 0.416787 0.195015
Si Si2 0.311501 0.688500 0.585904
Si Si3 0.585307 0.807397 0.626856
Si Si4 0.790644 0.585330 0.892714
Si Si5 0.693297 0.917694 0.768503
Si Si6 0.800821 0.800821 0.551514
Si Si7 0.421237 0.578764 0.551681
O O1 0.321479 0.500000 0.195468
O O2 0.365225 0.365225 0.185064
O O3 0.240906 0.407834 0.156576
O O4 0.265221 0.397907 0.241961
O O5 0.260272 0.633963 0.612332
O O6 0.260217 0.739784 0.557742
O O7 0.362489 0.637512 0.558914
O O8 0.500000 0.806155 0.613883
O O9 0.631232 0.875587 0.608454
O O10 0.587041 0.805399 0.679481
O O11 0.794258 0.500000 0.903338
O O12 0.734928 0.629983 0.923797
O O13 0.631697 0.868304 0.750000
O O14 0.678968 0.000000 0.756082
O O15 0.814200 0.814200 0.500000
O O16 0.401472 0.500000 0.569720
O O17 0.428216 0.571785 0.500000
#
# Coordination Sequence:
#
# PCOD9571553 Si02
#       7
#    32  16  32  32  32  16  16
#     4  10  20  34  53  75 102 138 179 222 267 318
#     4  10  20  34  52  75 104 138 172 218 257 309
#     4  10  21  34  51  78 109 145 185 220 259 310
#     4  10  20  36  56  80 107 138 176 218 270 327
#     4  10  20  32  48  73 104 138 177 217 258 303
#     4  10  21  37  57  82 105 131 171 218 270 329
#     4   9  17  30  51  76  98 125 161 202 254 308
#
# _framework density 16.644098
#
# number of rings (size 3 to 8) (size 9 to 14) (size 15 to 20)
#    0.000    2.091    2.727    1.091    1.273    1.455 
#    0.000    1.818    0.000    5.182    0.000    5.727 
#    0.000    0.000    0.000    0.000    0.000    0.000 
#
# Total GULP energy -489910.339103 kJ/mol
# GULP energy per Si atom -5567.162944 kJ/mol
# Density = 1.660622 g / cm^3
# Si number density = 16.644098 Si / 1000 Ang^3
#
#
#
# Elastic Constant Matrix: (Units=GPa)
#
#
# Indices 1 2 3 4 5 6 
#
# 1 99.2292 79.5519 28.4773 0.0000 0.0000 0.0000
# 2 79.5519 99.2246 28.4812 0.0000 0.0000 0.0000
# 3 28.4773 28.4812 47.2158 0.0000 0.0000 0.0000
# 4 0.0000 0.0000 0.0000 19.3571 0.0000 0.0000
# 5 0.0000 0.0000 0.0000 0.0000 19.3554 0.0000
# 6 0.0000 0.0000 0.0000 0.0000 0.0000 27.0245
#
#
#
# Elastic Compliance Matrix: (Units=1/GPa)
#
#
# Indices 1 2 3 4 5 6 
#
# 1 0.028873 -0.021951 -0.004173 0.000000 0.000000 0.000000
# 2 -0.021951 0.028877 -0.004180 0.000000 0.000000 0.000000
# 3 -0.004173 -0.004180 0.026218 0.000000 0.000000 0.000000
# 4 0.000000 0.000000 0.000000 0.051661 0.000000 0.000000
# 5 0.000000 0.000000 0.000000 0.000000 0.051665 0.000000
# 6 0.000000 0.000000 0.000000 0.000000 0.000000 0.037003
#
#
# Mechanical properties :
#
#
# Convention : Reuss Voigt Hill
#
# Bulk Modulus (GPa) = 42.80807 57.63227 50.22017
# Shear Modulus (GPa) = 17.08285 20.42468 18.75377
#
# Velocity S-wave (km/s) = 3.20716 3.50686 3.36035
# Velocity P-wave (km/s) = 6.28411 7.14835 6.73011
#
# Compressibility (1/GPa) = 0.02336008
#
# Stress axis : x y z
#
# Youngs Moduli (GPa) = 34.63396 34.63003 38.14234
#
# Poissons Ratio (x) = 0.76016 0.15918
# Poissons Ratio (y) = 0.76025 0.15942
# Poissons Ratio (z) = 0.14454 0.14474
#
# Static dielectric constant tensor:
#      x y z
#    x 1.538780 0.000000 0.000000 
#    y 0.000000 1.538340 0.000000 
#    z 0.000000 0.000000 1.566580 
# 
# From -- ./inp_files/14296.got.cif
#   From: 2010.05.17/outbox.cif.g08.bks.cpg/sg139_8_cif.got.tgz:14296.got - 2010.05.20 13:14:44.
