data_PCOD9571545
_publ_section_title
;
Structure prediction by ZEFSAII (Michael W. Deem and Ramdas Pophale) SiO2 
 PCOD9571545
Probable space group: I 4/M M M
;
_chemical_formula_sum "Si O2"
_cell_formula_units_Z 112
_cell_length_a 13.819821
_cell_length_b 13.819821
_cell_length_c 36.606779
_cell_angle_alpha 90.000000
_cell_angle_beta 90.000000
_cell_angle_gamma 90.000000
_cell_volume 6991.435464
_symmetry_space_group_name_H-M "I 4/M M M"
_symmetry_group_IT_number 139
_symmetry_cell_setting 'tetragonal'
loop_
_space_group_symop_operation_xyz
x,y,z
-y,x,z
-x,-y,z
y,-x,z
x,-y,-z
-x,y,-z
y,x,-z
-y,-x,-z
-x,-y,-z
y,-x,-z
x,y,-z
-y,x,-z
-x,y,z
x,-y,z
-y,-x,z
y,x,z
1/2+x,1/2+y,1/2+z
1/2-y,1/2+x,1/2+z
1/2-x,1/2-y,1/2+z
1/2+y,1/2-x,1/2+z
1/2+x,1/2-y,1/2-z
1/2-x,1/2+y,1/2-z
1/2+y,1/2+x,1/2-z
1/2-y,1/2-x,1/2-z
1/2-x,1/2-y,1/2-z
1/2+y,1/2-x,1/2-z
1/2+x,1/2+y,1/2-z
1/2-y,1/2+x,1/2-z
1/2-x,1/2+y,1/2+z
1/2+x,1/2-y,1/2+z
1/2-y,1/2-x,1/2+z
1/2+y,1/2+x,1/2+z
loop_
_atom_site_type_symbol
_atom_site_label
_atom_site_fract_x
_atom_site_fract_y
_atom_site_fract_z
Si Si1 0.888542 0.617448 0.459181
Si Si2 0.886804 0.386804 0.750000
Si Si3 0.226294 0.614804 0.175348
Si Si4 0.884359 0.272522 0.887077
O O1 0.858878 0.649215 0.500000
O O2 0.889321 0.500000 0.459569
O O3 0.820124 0.644948 0.425865
O O4 0.000000 0.648119 0.452992
O O5 0.874007 0.500000 0.739970
O O6 0.820922 0.366410 0.784977
O O7 0.238397 0.500000 0.170992
O O8 0.325596 0.674405 0.172186
O O9 0.154302 0.657116 0.144712
O O10 0.828733 0.171267 0.882879
O O11 0.000000 0.263144 0.885584
#
# Coordination Sequence:
#
# PCOD9571545 Si02
#       4
#    32  16  32  32
#     4   8  14  26  45  67  89 115 150 192 234 274
#     4   9  17  30  50  74  97 123 156 192 229 273
#     4  10  20  33  50  72  97 125 158 196 237 281
#     4  10  20  32  47  68  94 125 161 200 241 286
#
# _framework density 16.019601000000002
#
# number of rings (size 3 to 8) (size 9 to 14) (size 15 to 20)
#    0.000    2.714    0.000    3.000    0.000    4.000 
#    0.000    0.000    0.000    0.000    0.000    8.000 
#    0.000    0.000    0.000   26.571    0.000    1.429 
#
# Total GULP energy -312014.518130 kJ/mol
# GULP energy per Si atom -5571.687824 kJ/mol
# Density = 1.598314 g / cm^3
# Si number density = 16.019601 Si / 1000 Ang^3
#
#
#
# Elastic Constant Matrix: (Units=GPa)
#
#
# Indices 1 2 3 4 5 6 
#
# 1 87.7346 57.2407 57.9796 0.0000 0.0000 0.0000
# 2 57.2407 87.7346 57.9796 0.0000 0.0000 0.0000
# 3 57.9796 57.9796 107.0005 0.0000 0.0000 0.0000
# 4 0.0000 0.0000 0.0000 18.0540 0.0000 0.0000
# 5 0.0000 0.0000 0.0000 0.0000 18.0540 0.0000
# 6 0.0000 0.0000 0.0000 0.0000 0.0000 8.3479
#
#
#
# Elastic Compliance Matrix: (Units=1/GPa)
#
#
# Indices 1 2 3 4 5 6 
#
# 1 0.022484 -0.010310 -0.006597 0.000000 0.000000 0.000000
# 2 -0.010310 0.022484 -0.006597 0.000000 0.000000 0.000000
# 3 -0.006597 -0.006597 0.016495 0.000000 0.000000 0.000000
# 4 0.000000 0.000000 0.000000 0.055390 0.000000 0.000000
# 5 0.000000 0.000000 0.000000 0.000000 0.055390 0.000000
# 6 0.000000 0.000000 0.000000 0.000000 0.000000 0.119790
#
#
# Mechanical properties :
#
#
# Convention : Reuss Voigt Hill
#
# Bulk Modulus (GPa) = 69.17442 69.87436 69.52439
# Shear Modulus (GPa) = 14.54095 16.17583 15.35839
#
# Velocity S-wave (km/s) = 3.01607 3.18111 3.09969
# Velocity P-wave (km/s) = 7.44337 7.56342 7.50364
#
# Compressibility (1/GPa) = 0.01445621
#
# Stress axis : x y z
#
# Youngs Moduli (GPa) = 44.47648 44.47648 60.62527
#
# Poissons Ratio (x) = 0.45854 0.39993
# Poissons Ratio (y) = 0.45854 0.39993
# Poissons Ratio (z) = 0.29340 0.29340
#
# Static dielectric constant tensor:
#      x y z
#    x 1.515990 0.000000 0.000000 
#    y 0.000000 1.515990 0.000000 
#    z 0.000000 0.000000 1.544190 
# 
# From -- ./inp_files/13708.got.cif
#   From: 2010.05.17/outbox.cif.g08.bks.cpg/sg139_7_cif.got.tgz:13708.got - 2010.05.20 13:14:44.
