data_PCOD9571190
_publ_section_title
;
Structure prediction by ZEFSAII (Michael W. Deem and Ramdas Pophale) SiO2 
 PCOD9571190
Probable space group: I 4/M M M
;
_chemical_formula_sum "Si O2"
_cell_formula_units_Z 128
_cell_length_a 30.839252
_cell_length_b 30.839252
_cell_length_c 9.251778
_cell_angle_alpha 90.000000
_cell_angle_beta 90.000000
_cell_angle_gamma 90.000000
_cell_volume 8798.991025
_symmetry_space_group_name_H-M "I 4/M M M"
_symmetry_group_IT_number 139
_symmetry_cell_setting 'tetragonal'
loop_
_space_group_symop_operation_xyz
x,y,z
-y,x,z
-x,-y,z
y,-x,z
x,-y,-z
-x,y,-z
y,x,-z
-y,-x,-z
-x,-y,-z
y,-x,-z
x,y,-z
-y,x,-z
-x,y,z
x,-y,z
-y,-x,z
y,x,z
1/2+x,1/2+y,1/2+z
1/2-y,1/2+x,1/2+z
1/2-x,1/2-y,1/2+z
1/2+y,1/2-x,1/2+z
1/2+x,1/2-y,1/2-z
1/2-x,1/2+y,1/2-z
1/2+y,1/2+x,1/2-z
1/2-y,1/2-x,1/2-z
1/2-x,1/2-y,1/2-z
1/2+y,1/2-x,1/2-z
1/2+x,1/2+y,1/2-z
1/2-y,1/2+x,1/2-z
1/2-x,1/2+y,1/2+z
1/2+x,1/2-y,1/2+z
1/2-y,1/2-x,1/2+z
1/2+y,1/2+x,1/2+z
loop_
_atom_site_type_symbol
_atom_site_label
_atom_site_fract_x
_atom_site_fract_y
_atom_site_fract_z
Si Si1 0.818249 0.255405 0.667517
Si Si2 0.353545 0.086121 0.166489
Si Si3 0.500000 0.754646 0.674193
Si Si4 0.847457 0.500000 0.827223
Si Si5 0.404916 0.250770 0.335806
O O1 0.823654 0.267258 0.500000
O O2 0.784075 0.215926 0.678254
O O3 0.795676 0.295676 0.750000
O O4 0.864110 0.241056 0.733960
O O5 0.373637 0.126364 0.250000
O O6 0.301489 0.089490 0.165820
O O7 0.366441 0.043121 0.254439
O O8 0.367788 0.084189 0.000000
O O9 0.500000 0.766382 0.500000
O O10 0.500000 0.797213 0.774446
O O11 0.453427 0.732076 0.700510
O O12 0.850573 0.500000 0.000000
O O13 0.394353 0.264001 0.500000
#
# Coordination Sequence:
#
# PCOD9571190 Si02
#       5
#    32  32  16  16  32
#     4  10  20  31  42  58  82 112 145 178 209 243
#     4  10  19  30  43  60  79  98 122 155 194 235
#     4   8  16  30  44  60  81 103 128 163 205 244
#     4  10  18  28  42  59  77  98 122 150 189 235
#     4   9  17  29  45  62  81 104 131 165 203 241
#
# _framework density 14.547122999999999
#
# number of rings (size 3 to 8) (size 9 to 14) (size 15 to 20)
#    0.000    2.500    0.000    4.875    0.000    8.500 
#    0.000    0.000    0.000    0.375    0.000    2.625 
#    0.000    0.000    0.000    0.000    0.000    0.625 
#
# Total GULP energy -356371.948039 kJ/mol
# GULP energy per Si atom -5568.311688 kJ/mol
# Density = 1.451401 g / cm^3
# Si number density = 14.547123 Si / 1000 Ang^3
#
#
#
# Elastic Constant Matrix: (Units=GPa)
#
#
# Indices 1 2 3 4 5 6 
#
# 1 49.6507 -1.6345 29.4670 0.0000 0.0000 0.0000
# 2 -1.6345 49.6496 29.4665 0.0000 0.0000 0.0000
# 3 29.4670 29.4665 107.3486 0.0000 0.0000 0.0000
# 4 0.0000 0.0000 0.0000 20.9817 0.0000 0.0000
# 5 0.0000 0.0000 0.0000 0.0000 20.9822 0.0000
# 6 0.0000 0.0000 0.0000 0.0000 0.0000 8.3767
#
#
#
# Elastic Compliance Matrix: (Units=1/GPa)
#
#
# Indices 1 2 3 4 5 6 
#
# 1 0.025453 0.005955 -0.008621 0.000000 0.000000 0.000000
# 2 0.005955 0.025454 -0.008621 0.000000 0.000000 0.000000
# 3 -0.008621 -0.008621 0.014049 0.000000 0.000000 0.000000
# 4 0.000000 0.000000 0.000000 0.047661 0.000000 0.000000
# 5 0.000000 0.000000 0.000000 0.000000 0.047659 0.000000
# 6 0.000000 0.000000 0.000000 0.000000 0.000000 0.119379
#
#
# Mechanical properties :
#
#
# Convention : Reuss Voigt Hill
#
# Bulk Modulus (GPa) = 23.59637 35.69409 29.64523
# Shear Modulus (GPa) = 15.80489 20.02477 17.91483
#
# Velocity S-wave (km/s) = 3.29973 3.71421 3.51309
# Velocity P-wave (km/s) = 5.54738 6.55621 6.07278
#
# Compressibility (1/GPa) = 0.04237941
#
# Stress axis : x y z
#
# Youngs Moduli (GPa) = 39.28742 39.28665 71.18168
#
# Poissons Ratio (x) = -0.23394 0.61369
# Poissons Ratio (y) = -0.23394 0.61369
# Poissons Ratio (z) = 0.33871 0.33871
#
# Static dielectric constant tensor:
#      x y z
#    x 1.501300 0.000000 0.000000 
#    y 0.000000 1.501300 0.000000 
#    z 0.000000 0.000000 1.492560 
# 
# From -- ./inp_files/1805.got.cif
#   From: 2010.05.17/outbox.cif.g08.bks.cpg/sg139_1_cif.got.tgz:1805.got - 2010.05.20 13:14:44.
