data_PCOD9571257
_publ_section_title
;
Structure prediction by ZEFSAII (Michael W. Deem and Ramdas Pophale) SiO2 
 PCOD9571257
Probable space group: I 4/M M M
;
_chemical_formula_sum "Si O2"
_cell_formula_units_Z 208
_cell_length_a 21.239705
_cell_length_b 21.239705
_cell_length_c 27.671212
_cell_angle_alpha 90.000000
_cell_angle_beta 90.000000
_cell_angle_gamma 90.000000
_cell_volume 12483.177409
_symmetry_space_group_name_H-M "I 4/M M M"
_symmetry_group_IT_number 139
_symmetry_cell_setting 'tetragonal'
loop_
_space_group_symop_operation_xyz
x,y,z
-y,x,z
-x,-y,z
y,-x,z
x,-y,-z
-x,y,-z
y,x,-z
-y,-x,-z
-x,-y,-z
y,-x,-z
x,y,-z
-y,x,-z
-x,y,z
x,-y,z
-y,-x,z
y,x,z
1/2+x,1/2+y,1/2+z
1/2-y,1/2+x,1/2+z
1/2-x,1/2-y,1/2+z
1/2+y,1/2-x,1/2+z
1/2+x,1/2-y,1/2-z
1/2-x,1/2+y,1/2-z
1/2+y,1/2+x,1/2-z
1/2-y,1/2-x,1/2-z
1/2-x,1/2-y,1/2-z
1/2+y,1/2-x,1/2-z
1/2+x,1/2+y,1/2-z
1/2-y,1/2+x,1/2-z
1/2-x,1/2+y,1/2+z
1/2+x,1/2-y,1/2+z
1/2-y,1/2-x,1/2+z
1/2+y,1/2+x,1/2+z
loop_
_atom_site_type_symbol
_atom_site_label
_atom_site_fract_x
_atom_site_fract_y
_atom_site_fract_z
Si Si1 0.106408 0.570257 0.802343
Si Si2 0.132610 0.237941 0.416693
Si Si3 0.160687 0.266515 0.055281
Si Si4 0.202824 0.574512 0.646067
Si Si5 0.571848 0.251380 0.813890
Si Si6 0.924159 0.820505 0.783010
Si Si7 0.931939 0.825467 0.500000
O O1 0.092949 0.500000 0.823644
O O2 0.074614 0.574614 0.750000
O O3 0.090692 0.632455 0.833913
O O4 0.181154 0.572776 0.792554
O O5 0.179291 0.179291 0.413742
O O6 0.173195 0.293569 0.439886
O O7 0.111171 0.251287 0.362649
O O8 0.077896 0.217687 0.452964
O O9 0.205261 0.205261 0.064279
O O10 0.109853 0.277979 0.096874
O O11 0.137060 0.262254 0.000000
O O12 0.203747 0.500000 0.638592
O O13 0.258566 0.589551 0.684482
O O14 0.500000 0.266518 0.827365
O O15 0.590488 0.299640 0.772088
O O16 0.879626 0.879626 0.796077
O O17 0.000000 0.833130 0.786544
O O18 0.877911 0.877911 0.500000
O O19 0.000000 0.855433 0.500000
#
# Coordination Sequence:
#
# PCOD9571257 Si02
#       7
#    32  32  32  32  32  32  16
#     4  11  21  35  53  76 109 147 185 223 263 313
#     4  10  18  31  51  75 100 130 171 220 267 310
#     4  10  20  36  57  80 106 134 172 221 272 325
#     4  11  22  37  56  80 110 142 180 222 267 322
#     4  10  19  32  51  76 108 141 174 218 266 312
#     4  10  21  37  56  81 112 144 180 222 270 327
#     4  10  20  33  50  72  99 133 175 219 266 318
#
# _framework density 16.662424999999999
#
# number of rings (size 3 to 8) (size 9 to 14) (size 15 to 20)
#    0.000    1.692    3.846    1.846    0.000    1.615 
#    0.000    0.769    0.000    0.000    0.000    3.231 
#    0.000    0.000    0.000   14.308    0.000    0.000 
#
# Total GULP energy -579369.886309 kJ/mol
# GULP energy per Si atom -5570.864291 kJ/mol
# Density = 1.662450 g / cm^3
# Si number density = 16.662425 Si / 1000 Ang^3
#
#
#
# Elastic Constant Matrix: (Units=GPa)
#
#
# Indices 1 2 3 4 5 6 
#
# 1 77.9624 41.3995 38.9473 0.0000 0.0000 0.0000
# 2 41.3995 77.9624 38.9473 0.0000 0.0000 0.0000
# 3 38.9473 38.9473 99.4818 0.0000 0.0000 0.0000
# 4 0.0000 0.0000 0.0000 17.6280 0.0000 0.0000
# 5 0.0000 0.0000 0.0000 0.0000 17.6280 0.0000
# 6 0.0000 0.0000 0.0000 0.0000 0.0000 23.0247
#
#
#
# Elastic Compliance Matrix: (Units=1/GPa)
#
#
# Indices 1 2 3 4 5 6 
#
# 1 0.019302 -0.008049 -0.004406 0.000000 0.000000 0.000000
# 2 -0.008049 0.019302 -0.004406 0.000000 0.000000 0.000000
# 3 -0.004406 -0.004406 0.013502 0.000000 0.000000 0.000000
# 4 0.000000 0.000000 0.000000 0.056728 0.000000 0.000000
# 5 0.000000 0.000000 0.000000 0.000000 0.056728 0.000000
# 6 0.000000 0.000000 0.000000 0.000000 0.000000 0.043432
#
#
# Mechanical properties :
#
#
# Convention : Reuss Voigt Hill
#
# Bulk Modulus (GPa) = 54.39124 54.88830 54.63977
# Shear Modulus (GPa) = 20.09325 20.73032 20.41178
#
# Velocity S-wave (km/s) = 3.47638 3.53106 3.50382
# Velocity P-wave (km/s) = 6.98767 7.04538 7.01658
#
# Compressibility (1/GPa) = 0.01838531
#
# Stress axis : x y z
#
# Youngs Moduli (GPa) = 51.80941 51.80941 74.06511
#
# Poissons Ratio (x) = 0.41699 0.32630
# Poissons Ratio (y) = 0.41699 0.32630
# Poissons Ratio (z) = 0.22825 0.22825
#
# Static dielectric constant tensor:
#      x y z
#    x 1.561210 0.000000 0.000000 
#    y 0.000000 1.561210 0.000000 
#    z 0.000000 0.000000 1.576970 
# 
# From -- ./inp_files/14492.got.cif
#   From: 2010.05.17/outbox.cif.g08.bks.cpg/sg139_8_cif.got.tgz:14492.got - 2010.05.20 13:14:44.
