data_PCOD9571379
_publ_section_title
;
Structure prediction by ZEFSAII (Michael W. Deem and Ramdas Pophale) SiO2 
 PCOD9571379
Probable space group: I 4/M M M
;
_chemical_formula_sum "Si O2"
_cell_formula_units_Z 160
_cell_length_a 32.822884
_cell_length_b 32.822884
_cell_length_c 8.991192
_cell_angle_alpha 90.000000
_cell_angle_beta 90.000000
_cell_angle_gamma 90.000000
_cell_volume 9686.586201
_symmetry_space_group_name_H-M "I 4/M M M"
_symmetry_group_IT_number 139
_symmetry_cell_setting 'tetragonal'
loop_
_space_group_symop_operation_xyz
x,y,z
-y,x,z
-x,-y,z
y,-x,z
x,-y,-z
-x,y,-z
y,x,-z
-y,-x,-z
-x,-y,-z
y,-x,-z
x,y,-z
-y,x,-z
-x,y,z
x,-y,z
-y,-x,z
y,x,z
1/2+x,1/2+y,1/2+z
1/2-y,1/2+x,1/2+z
1/2-x,1/2-y,1/2+z
1/2+y,1/2-x,1/2+z
1/2+x,1/2-y,1/2-z
1/2-x,1/2+y,1/2-z
1/2+y,1/2+x,1/2-z
1/2-y,1/2-x,1/2-z
1/2-x,1/2-y,1/2-z
1/2+y,1/2-x,1/2-z
1/2+x,1/2+y,1/2-z
1/2-y,1/2+x,1/2-z
1/2-x,1/2+y,1/2+z
1/2+x,1/2-y,1/2+z
1/2-y,1/2-x,1/2+z
1/2+y,1/2+x,1/2+z
loop_
_atom_site_type_symbol
_atom_site_label
_atom_site_fract_x
_atom_site_fract_y
_atom_site_fract_z
Si Si1 0.584590 0.349103 0.678880
Si Si2 0.147068 0.000000 0.331955
Si Si3 0.000000 0.245624 0.669313
Si Si4 0.254432 0.584764 0.322034
Si Si5 0.385616 0.823648 0.821938
Si Si6 0.547294 0.109757 0.179065
O O1 0.580770 0.350215 0.500000
O O2 0.621211 0.378790 0.723813
O O3 0.541782 0.363301 0.748374
O O4 0.592478 0.301747 0.719397
O O5 0.196426 0.000000 0.338816
O O6 0.131267 0.000000 0.500000
O O7 0.040221 0.256544 0.758776
O O8 0.000000 0.261878 0.500000
O O9 0.251255 0.585867 0.500000
O O10 0.221272 0.613372 0.246310
O O11 0.349439 0.849439 0.750000
O O12 0.426741 0.849530 0.784591
O O13 0.382382 0.822139 0.000000
O O14 0.500000 0.111852 0.225929
O O15 0.572069 0.072069 0.250000
O O16 0.548188 0.105470 0.000000
#
# Coordination Sequence:
#
# PCOD9571379 Si02
#       6
#    32  16  16  32  32  32
#     4   9  18  33  53  76 105 140 172 204 244 294
#     4   9  17  29  47  74 106 137 167 204 245 284
#     4   9  17  29  45  69 100 130 160 194 243 298
#     4  10  19  31  49  75 101 126 163 206 249 298
#     4  10  20  34  51  69  95 129 164 204 254 308
#     4   9  19  34  49  67  91 122 159 199 244 295
#
# _framework density 16.517688
#
# number of rings (size 3 to 8) (size 9 to 14) (size 15 to 20)
#    0.000    2.600    0.000    1.800    1.400    5.000 
#    0.000    1.000    0.000    0.900    0.000    2.100 
#    0.000    0.000    0.000    0.000    0.000    0.000 
#
# Total GULP energy -445915.644436 kJ/mol
# GULP energy per Si atom -5573.945555 kJ/mol
# Density = 1.648009 g / cm^3
# Si number density = 16.517688 Si / 1000 Ang^3
#
#
#
# Elastic Constant Matrix: (Units=GPa)
#
#
# Indices 1 2 3 4 5 6 
#
# 1 110.1918 68.1448 44.7488 0.0000 0.0000 0.0000
# 2 68.1448 110.1918 44.7488 0.0000 0.0000 0.0000
# 3 44.7488 44.7488 54.1779 0.0000 0.0000 0.0000
# 4 0.0000 0.0000 0.0000 22.0232 0.0000 0.0000
# 5 0.0000 0.0000 0.0000 0.0000 22.0232 0.0000
# 6 0.0000 0.0000 0.0000 0.0000 0.0000 10.6921
#
#
#
# Elastic Compliance Matrix: (Units=1/GPa)
#
#
# Indices 1 2 3 4 5 6 
#
# 1 0.016680 -0.007103 -0.007910 0.000000 0.000000 0.000000
# 2 -0.007103 0.016680 -0.007910 0.000000 0.000000 0.000000
# 3 -0.007910 -0.007910 0.031525 0.000000 0.000000 0.000000
# 4 0.000000 0.000000 0.000000 0.045407 0.000000 0.000000
# 5 0.000000 0.000000 0.000000 0.000000 0.045407 0.000000
# 6 0.000000 0.000000 0.000000 0.000000 0.000000 0.093527
#
#
# Mechanical properties :
#
#
# Convention : Reuss Voigt Hill
#
# Bulk Modulus (GPa) = 52.52682 65.53847 59.03264
# Shear Modulus (GPa) = 16.58821 18.74230 17.66525
#
# Velocity S-wave (km/s) = 3.17246 3.37216 3.27383
# Velocity P-wave (km/s) = 6.72969 7.41119 7.07865
#
# Compressibility (1/GPa) = 0.01903789
#
# Stress axis : x y z
#
# Youngs Moduli (GPa) = 59.95191 59.95191 31.72085
#
# Poissons Ratio (x) = 0.42583 0.25092
# Poissons Ratio (y) = 0.42583 0.25092
# Poissons Ratio (z) = 0.47424 0.47424
#
# Static dielectric constant tensor:
#      x y z
#    x 1.584220 0.000000 0.000000 
#    y 0.000000 1.584220 0.000000 
#    z 0.000000 0.000000 1.553000 
# 
# From -- ./inp_files/2212.got.cif
#   From: 2010.05.17/outbox.cif.g08.bks.cpg/sg139_2_cif.got.tgz:2212.got - 2010.05.20 13:14:44.
