data_PCOD9571858
_publ_section_title
;
Structure prediction by ZEFSAII (Michael W. Deem and Ramdas Pophale) SiO2 
 PCOD9571858
Probable space group: I 4/M M M
;
_chemical_formula_sum "Si O2"
_cell_formula_units_Z 160
_cell_length_a 25.215199
_cell_length_b 25.215199
_cell_length_c 13.908027
_cell_angle_alpha 90.000000
_cell_angle_beta 90.000000
_cell_angle_gamma 90.000000
_cell_volume 8842.810639
_symmetry_space_group_name_H-M "I 4/M M M"
_symmetry_group_IT_number 139
_symmetry_cell_setting 'tetragonal'
loop_
_space_group_symop_operation_xyz
x,y,z
-y,x,z
-x,-y,z
y,-x,z
x,-y,-z
-x,y,-z
y,x,-z
-y,-x,-z
-x,-y,-z
y,-x,-z
x,y,-z
-y,x,-z
-x,y,z
x,-y,z
-y,-x,z
y,x,z
1/2+x,1/2+y,1/2+z
1/2-y,1/2+x,1/2+z
1/2-x,1/2-y,1/2+z
1/2+y,1/2-x,1/2+z
1/2+x,1/2-y,1/2-z
1/2-x,1/2+y,1/2-z
1/2+y,1/2+x,1/2-z
1/2-y,1/2-x,1/2-z
1/2-x,1/2-y,1/2-z
1/2+y,1/2-x,1/2-z
1/2+x,1/2+y,1/2-z
1/2-y,1/2+x,1/2-z
1/2-x,1/2+y,1/2+z
1/2+x,1/2-y,1/2+z
1/2-y,1/2-x,1/2+z
1/2+y,1/2+x,1/2+z
loop_
_atom_site_type_symbol
_atom_site_label
_atom_site_fract_x
_atom_site_fract_y
_atom_site_fract_z
Si Si1 0.310862 0.391296 0.385763
Si Si2 0.000000 0.361297 0.117581
Si Si3 0.500000 0.738589 0.382874
Si Si4 0.090745 0.559086 0.883175
Si Si5 0.561008 0.215407 0.115695
Si Si6 0.835433 0.250958 0.728723
O O1 0.304412 0.388599 0.500000
O O2 0.369336 0.369336 0.362291
O O3 0.294417 0.449073 0.352688
O O4 0.270524 0.353088 0.332310
O O5 0.051739 0.394296 0.149568
O O6 0.000000 0.300012 0.148482
O O7 0.000000 0.360684 0.000000
O O8 0.500000 0.740355 0.500000
O O9 0.073025 0.500000 0.853281
O O10 0.152670 0.565380 0.860120
O O11 0.087970 0.559597 0.000000
O O12 0.500000 0.232256 0.140219
O O13 0.611293 0.243249 0.165794
O O14 0.565634 0.220429 0.000000
O O15 0.791899 0.208102 0.690128
O O16 0.805693 0.305693 0.750000
#
# Coordination Sequence:
#
# PCOD9571858 Si02
#       6
#    32  16  16  32  32  32
#     4   9  19  36  54  74 104 135 165 211 268 320
#     4   9  15  22  39  68  95 121 166 216 251 300
#     4   9  18  29  48  76  95 122 167 202 249 317
#     4   8  14  25  41  63  93 130 168 209 257 300
#     4   9  19  35  54  76 106 145 184 223 270 324
#     4  10  22  36  52  78 107 140 183 227 274 326
#
# _framework density 18.093795
#
# number of rings (size 3 to 8) (size 9 to 14) (size 15 to 20)
#    0.000    3.000    0.000    1.500    4.200    2.400 
#    0.000    2.000    0.000    0.300    0.000    2.100 
#    0.000    0.400    0.000    2.200    0.000    0.000 
#
# Total GULP energy -445951.084665 kJ/mol
# GULP energy per Si atom -5574.388558 kJ/mol
# Density = 1.805261 g / cm^3
# Si number density = 18.093795 Si / 1000 Ang^3
#
#
#
# Elastic Constant Matrix: (Units=GPa)
#
#
# Indices 1 2 3 4 5 6 
#
# 1 116.8991 79.0789 22.6319 0.0000 0.0000 0.0000
# 2 79.0789 116.8991 22.6319 0.0000 0.0000 0.0000
# 3 22.6319 22.6319 42.7909 0.0000 0.0000 0.0000
# 4 0.0000 0.0000 0.0000 13.7803 0.0000 0.0000
# 5 0.0000 0.0000 0.0000 0.0000 13.7803 0.0000
# 6 0.0000 0.0000 0.0000 0.0000 0.0000 30.3036
#
#
#
# Elastic Compliance Matrix: (Units=1/GPa)
#
#
# Indices 1 2 3 4 5 6 
#
# 1 0.016127 -0.010314 -0.003074 0.000000 0.000000 0.000000
# 2 -0.010314 0.016127 -0.003074 0.000000 0.000000 0.000000
# 3 -0.003074 -0.003074 0.026621 0.000000 0.000000 0.000000
# 4 0.000000 0.000000 0.000000 0.072567 0.000000 0.000000
# 5 0.000000 0.000000 0.000000 0.000000 0.072567 0.000000
# 6 0.000000 0.000000 0.000000 0.000000 0.000000 0.032999
#
#
# Mechanical properties :
#
#
# Convention : Reuss Voigt Hill
#
# Bulk Modulus (GPa) = 38.53628 58.36385 48.45006
# Shear Modulus (GPa) = 17.94791 21.72261 19.83526
#
# Velocity S-wave (km/s) = 3.15292 3.46866 3.31455
# Velocity P-wave (km/s) = 5.88208 6.95474 6.44078
#
# Compressibility (1/GPa) = 0.02594957
#
# Stress axis : x y z
#
# Youngs Moduli (GPa) = 62.00857 62.00857 37.56374
#
# Poissons Ratio (x) = 0.63957 0.11548
# Poissons Ratio (y) = 0.63957 0.11548
# Poissons Ratio (z) = 0.19063 0.19063
#
# Static dielectric constant tensor:
#      x y z
#    x 1.637010 0.000000 0.000000 
#    y 0.000000 1.637010 0.000000 
#    z 0.000000 0.000000 1.660960 
# 
# From -- ./inp_files/6001.got.cif
#   From: 2010.05.17/outbox.cif.g08.bks.cpg/sg139_4_cif.got.tgz:6001.got - 2010.05.20 13:14:44.
