data_PCOD9571157
_publ_section_title
;
Structure prediction by ZEFSAII (Michael W. Deem and Ramdas Pophale) SiO2 
 PCOD9571157
Probable space group: I 4/M M M
;
_chemical_formula_sum "Si O2"
_cell_formula_units_Z 192
_cell_length_a 23.552423
_cell_length_b 23.552423
_cell_length_c 22.016847
_cell_angle_alpha 90.000000
_cell_angle_beta 90.000000
_cell_angle_gamma 90.000000
_cell_volume 12213.111153
_symmetry_space_group_name_H-M "I 4/M M M"
_symmetry_group_IT_number 139
_symmetry_cell_setting 'tetragonal'
loop_
_space_group_symop_operation_xyz
x,y,z
-y,x,z
-x,-y,z
y,-x,z
x,-y,-z
-x,y,-z
y,x,-z
-y,-x,-z
-x,-y,-z
y,-x,-z
x,y,-z
-y,x,-z
-x,y,z
x,-y,z
-y,-x,z
y,x,z
1/2+x,1/2+y,1/2+z
1/2-y,1/2+x,1/2+z
1/2-x,1/2-y,1/2+z
1/2+y,1/2-x,1/2+z
1/2+x,1/2-y,1/2-z
1/2-x,1/2+y,1/2-z
1/2+y,1/2+x,1/2-z
1/2-y,1/2-x,1/2-z
1/2-x,1/2-y,1/2-z
1/2+y,1/2-x,1/2-z
1/2+x,1/2+y,1/2-z
1/2-y,1/2+x,1/2-z
1/2-x,1/2+y,1/2+z
1/2+x,1/2-y,1/2+z
1/2-y,1/2-x,1/2+z
1/2+y,1/2+x,1/2+z
loop_
_atom_site_type_symbol
_atom_site_label
_atom_site_fract_x
_atom_site_fract_y
_atom_site_fract_z
Si Si1 0.933438 0.161324 0.000000
Si Si2 0.723522 0.933528 0.427411
Si Si3 0.636032 0.888563 0.926395
Si Si4 0.840407 0.066093 0.360200
Si Si5 0.567114 0.254156 0.387317
Si Si6 0.158487 0.065421 0.215323
Si Si7 0.000000 0.435015 0.073792
O O1 0.922944 0.200561 0.941079
O O2 0.892258 0.107743 0.000000
O O3 0.000000 0.145277 0.000000
O O4 0.731420 0.928241 0.500000
O O5 0.669958 0.895013 0.409899
O O6 0.781968 0.918879 0.393850
O O7 0.710787 0.000000 0.414745
O O8 0.698010 0.896707 0.898343
O O9 0.597889 0.942861 0.908296
O O10 0.641507 0.890127 0.000000
O O11 0.891407 0.108593 0.376502
O O12 0.831667 0.069833 0.287450
O O13 0.853904 0.000000 0.374363
O O14 0.500000 0.238661 0.390524
O O15 0.578287 0.285964 0.324173
O O16 0.108129 0.108129 0.198724
O O17 0.142695 0.000000 0.201706
O O18 0.000000 0.500000 0.094989
O O19 0.000000 0.436194 0.000000
#
# Coordination Sequence:
#
# PCOD9571157 Si02
#       7
#    16  32  32  32  32  32  16
#     4  10  20  31  46  64  90 126 162 206 251 291
#     4   9  18  32  51  74 101 130 158 191 238 293
#     4  10  17  28  47  70  99 130 162 199 242 289
#     4   9  18  34  54  75  99 125 157 198 242 291
#     4  10  18  30  47  68  96 128 161 200 247 291
#     4   9  18  32  51  72  95 123 160 202 246 292
#     4   9  16  24  42  72 102 124 154 204 253 289
#
# _framework density 15.720810999999999
#
# number of rings (size 3 to 8) (size 9 to 14) (size 15 to 20)
#    0.000    2.583    1.667    1.000    0.000    2.750 
#    0.000    4.167    0.000    5.000    0.000    2.333 
#    0.000    0.000    0.000    0.000    0.000    0.000 
#
# Total GULP energy -535031.330769 kJ/mol
# GULP energy per Si atom -5573.243029 kJ/mol
# Density = 1.568503 g / cm^3
# Si number density = 15.720811 Si / 1000 Ang^3
#
#
#
# Elastic Constant Matrix: (Units=GPa)
#
#
# Indices 1 2 3 4 5 6 
#
# 1 130.3610 106.0854 41.4234 0.0000 0.0000 0.0000
# 2 106.0854 130.3621 41.4234 0.0000 0.0000 0.0000
# 3 41.4234 41.4234 22.2595 0.0000 0.0000 0.0000
# 4 0.0000 0.0000 0.0000 21.6407 0.0000 0.0000
# 5 0.0000 0.0000 0.0000 0.0000 21.6409 0.0000
# 6 0.0000 0.0000 0.0000 0.0000 0.0000 31.2667
#
#
#
# Elastic Compliance Matrix: (Units=1/GPa)
#
#
# Indices 1 2 3 4 5 6 
#
# 1 0.026674 -0.014519 -0.022619 0.000000 0.000000 0.000000
# 2 -0.014519 0.026673 -0.022618 0.000000 0.000000 0.000000
# 3 -0.022619 -0.022618 0.129108 0.000000 0.000000 0.000000
# 4 0.000000 0.000000 0.000000 0.046209 0.000000 0.000000
# 5 0.000000 0.000000 0.000000 0.000000 0.046209 0.000000
# 6 0.000000 0.000000 0.000000 0.000000 0.000000 0.031983
#
#
# Mechanical properties :
#
#
# Convention : Reuss Voigt Hill
#
# Bulk Modulus (GPa) = 15.88754 73.42745 44.65750
# Shear Modulus (GPa) = 11.17696 21.17967 16.17831
#
# Velocity S-wave (km/s) = 2.66929 3.67446 3.21144
# Velocity P-wave (km/s) = 4.43036 8.05051 6.49765
#
# Compressibility (1/GPa) = 0.06294239
#
# Stress axis : x y z
#
# Youngs Moduli (GPa) = 37.48998 37.49058 7.74548
#
# Poissons Ratio (x) = 0.54433 0.17519
# Poissons Ratio (y) = 0.54432 0.17519
# Poissons Ratio (z) = 0.84798 0.84797
#
# Static dielectric constant tensor:
#      x y z
#    x 1.509940 0.000000 0.000000 
#    y 0.000000 1.509940 0.000000 
#    z 0.000000 0.000000 1.521590 
# 
# From -- ./inp_files/11985.got.cif
#   From: 2010.05.17/outbox.cif.g08.bks.cpg/sg139_6_cif.got.tgz:11985.got - 2010.05.20 13:14:44.
