data_PCOD9571114
_publ_section_title
;
Structure prediction by ZEFSAII (Michael W. Deem and Ramdas Pophale) SiO2 
 PCOD9571114
Probable space group: P 42/N C M
;
_chemical_formula_sum "Si O2"
_cell_formula_units_Z 52
_cell_length_a 16.725002
_cell_length_b 16.725002
_cell_length_c 9.186963
_cell_angle_alpha 90.000000
_cell_angle_beta 90.000000
_cell_angle_gamma 90.000000
_cell_volume 2569.829582
_symmetry_space_group_name_H-M "P 42/N C M"
_symmetry_group_IT_number 138
_space_group.IT_coordinate_system_code '2'
_symmetry_cell_setting 'tetragonal'
loop_
_space_group_symop_operation_xyz
x,y,z
1/2-y,x,1/2+z
1/2-x,1/2-y,z
y,1/2-x,1/2+z
1/2+x,-y,1/2-z
-x,1/2+y,1/2-z
1/2+y,1/2+x,-z
-y,-x,-z
-x,-y,-z
1/2+y,-x,1/2-z
1/2+x,1/2+y,-z
-y,1/2+x,1/2-z
1/2-x,y,1/2+z
x,1/2-y,1/2+z
1/2-y,1/2-x,z
y,x,z
loop_
_atom_site_type_symbol
_atom_site_label
_atom_site_fract_x
_atom_site_fract_y
_atom_site_fract_z
Si Si1 0.882555 0.127837 0.665854
Si Si2 0.967577 0.834613 0.830749
Si Si3 0.250000 0.750000 0.250000
Si Si4 0.455799 0.179148 0.328009
O O1 0.897330 0.102671 0.500000
O O2 0.816348 0.197818 0.666392
O O3 0.963603 0.156493 0.742384
O O4 0.850462 0.053253 0.758803
O O5 0.913696 0.913696 0.821234
O O6 0.927864 0.762293 0.741770
O O7 0.974844 0.812412 0.000739
O O8 0.389995 0.110006 0.311800
#
# Coordination Sequence:
#
# PCOD9571114 Si02
#       4
#    16  16   4  16
#     4  12  25  42  68  99 135 173 213 266 330 395
#     4  11  25  44  67  96 132 173 219 273 327 385
#     4  12  26  40  68 106 134 164 206 264 326 388
#     4  11  25  44  67  96 132 173 219 273 327 385
#
# _framework density 20.234805999999999
#
# number of rings (size 3 to 8) (size 9 to 14) (size 15 to 20)
#    0.000    0.615    3.077    4.154    0.000   11.692 
#    0.000    3.077    0.000    0.000    0.000    0.000 
#    0.000    0.000    0.000    0.000    0.000    0.000 
#
# Total GULP energy -290896.017548 kJ/mol
# GULP energy per Si atom -5594.154184 kJ/mol
# Density = 2.018875 g / cm^3
# Si number density = 20.234806 Si / 1000 Ang^3
#
#
#
# Elastic Constant Matrix: (Units=GPa)
#
#
# Indices 1 2 3 4 5 6 
#
# 1 51.4652 -1.7186 6.1473 0.0000 0.0000 0.0000
# 2 -1.7186 51.4652 6.1474 0.0000 0.0000 0.0000
# 3 6.1473 6.1474 92.3909 0.0000 0.0000 0.0000
# 4 0.0000 0.0000 0.0000 32.8098 0.0000 0.0000
# 5 0.0000 0.0000 0.0000 0.0000 32.8101 0.0000
# 6 0.0000 0.0000 0.0000 0.0000 0.0000 30.8736
#
#
#
# Elastic Compliance Matrix: (Units=1/GPa)
#
#
# Indices 1 2 3 4 5 6 
#
# 1 0.019620 0.000818 -0.001360 0.000000 0.000000 0.000000
# 2 0.000818 0.019620 -0.001360 0.000000 0.000000 0.000000
# 3 -0.001360 -0.001360 0.011005 0.000000 0.000000 0.000000
# 4 0.000000 0.000000 0.000000 0.030479 0.000000 0.000000
# 5 0.000000 0.000000 0.000000 0.000000 0.030478 0.000000
# 6 0.000000 0.000000 0.000000 0.000000 0.000000 0.032390
#
#
# Mechanical properties :
#
#
# Convention : Reuss Voigt Hill
#
# Bulk Modulus (GPa) = 21.53269 24.05260 22.79265
# Shear Modulus (GPa) = 30.69800 31.61504 31.15652
#
# Velocity S-wave (km/s) = 3.89921 3.95702 3.92822
# Velocity P-wave (km/s) = 5.56204 5.72625 5.64474
#
# Compressibility (1/GPa) = 0.04644102
#
# Stress axis : x y z
#
# Youngs Moduli (GPa) = 50.96750 50.96756 90.87160
#
# Poissons Ratio (x) = -0.04167 0.12357
# Poissons Ratio (y) = -0.04167 0.12357
# Poissons Ratio (z) = 0.06931 0.06931
#
# Static dielectric constant tensor:
#      x y z
#    x 1.715160 0.000000 0.000000 
#    y 0.000000 1.715160 0.000000 
#    z 0.000000 0.000000 1.689420 
# 
# From -- ./inp_files/1091.got.cif
#   From: 2010.05.17/outbox.cif.g08.bks.cpg/sg138_1_cif.got.tgz:1091.got - 2010.05.20 13:08:53.
