data_PCOD9571577
_publ_section_title
;
Structure prediction by ZEFSAII (Michael W. Deem and Ramdas Pophale) SiO2 
 PCOD9571577
Probable space group: I 4/M M M
;
_chemical_formula_sum "Si O2"
_cell_formula_units_Z 224
_cell_length_a 23.663310
_cell_length_b 23.663310
_cell_length_c 24.398777
_cell_angle_alpha 90.000000
_cell_angle_beta 90.000000
_cell_angle_gamma 90.000000
_cell_volume 13662.149838
_symmetry_space_group_name_H-M "I 4/M M M"
_symmetry_group_IT_number 139
_symmetry_cell_setting 'tetragonal'
loop_
_space_group_symop_operation_xyz
x,y,z
-y,x,z
-x,-y,z
y,-x,z
x,-y,-z
-x,y,-z
y,x,-z
-y,-x,-z
-x,-y,-z
y,-x,-z
x,y,-z
-y,x,-z
-x,y,z
x,-y,z
-y,-x,z
y,x,z
1/2+x,1/2+y,1/2+z
1/2-y,1/2+x,1/2+z
1/2-x,1/2-y,1/2+z
1/2+y,1/2-x,1/2+z
1/2+x,1/2-y,1/2-z
1/2-x,1/2+y,1/2-z
1/2+y,1/2+x,1/2-z
1/2-y,1/2-x,1/2-z
1/2-x,1/2-y,1/2-z
1/2+y,1/2-x,1/2-z
1/2+x,1/2+y,1/2-z
1/2-y,1/2+x,1/2-z
1/2-x,1/2+y,1/2+z
1/2+x,1/2-y,1/2+z
1/2-y,1/2-x,1/2+z
1/2+y,1/2+x,1/2+z
loop_
_atom_site_type_symbol
_atom_site_label
_atom_site_fract_x
_atom_site_fract_y
_atom_site_fract_z
Si Si1 0.846784 0.347651 0.061163
Si Si2 0.182856 0.275288 0.335409
Si Si3 0.866799 0.561927 0.289740
Si Si4 0.433323 0.342322 0.660415
Si Si5 0.936472 0.567217 0.095249
Si Si6 0.621609 0.755231 0.276606
Si Si7 0.753972 0.935731 0.063381
O O1 0.802295 0.344942 0.110603
O O2 0.885772 0.403362 0.063253
O O3 0.890503 0.295721 0.070434
O O4 0.822292 0.341508 0.000000
O O5 0.220439 0.220439 0.347664
O O6 0.225244 0.322644 0.309912
O O7 0.138376 0.261615 0.287043
O O8 0.876605 0.500000 0.265592
O O9 0.890718 0.609283 0.250000
O O10 0.900784 0.564817 0.346230
O O11 0.800797 0.574400 0.294907
O O12 0.500000 0.347630 0.670928
O O13 0.401430 0.401430 0.654710
O O14 0.401694 0.305301 0.706659
O O15 0.425847 0.304767 0.605299
O O16 0.929195 0.500000 0.101436
O O17 0.000000 0.576554 0.072141
O O18 0.732351 0.000000 0.072709
O O19 0.772712 0.932353 0.000000
#
# Coordination Sequence:
#
# PCOD9571577 Si02
#       7
#    32  32  32  32  32  32  32
#     4  11  21  34  52  73  99 131 169 215 261 299
#     4  11  21  34  53  76 102 128 161 208 262 311
#     4  11  19  30  48  73 105 137 173 211 254 297
#     4  11  22  36  55  78 104 134 170 210 257 310
#     4  10  20  33  48  68  98 138 179 213 248 293
#     4  11  19  35  55  76  99 133 167 207 254 305
#     4   9  18  32  50  72  99 134 176 218 253 288
#
# _framework density 16.395662000000002
#
# number of rings (size 3 to 8) (size 9 to 14) (size 15 to 20)
#    0.000    1.429    4.286    3.000    0.000    4.857 
#    0.000    2.857    0.000    0.000    0.000    2.000 
#    0.000    0.000    0.000    0.000    0.000    0.143 
#
# Total GULP energy -625146.550986 kJ/mol
# GULP energy per Si atom -5581.665634 kJ/mol
# Density = 1.635834 g / cm^3
# Si number density = 16.395662 Si / 1000 Ang^3
#
#
#
# Elastic Constant Matrix: (Units=GPa)
#
#
# Indices 1 2 3 4 5 6 
#
# 1 68.8375 40.9781 35.9809 0.0000 0.0000 0.0000
# 2 40.9781 68.8372 35.9811 0.0000 0.0000 0.0000
# 3 35.9809 35.9811 105.0787 0.0000 0.0000 0.0000
# 4 0.0000 0.0000 0.0000 10.5104 0.0000 0.0000
# 5 0.0000 0.0000 0.0000 0.0000 10.5106 0.0000
# 6 0.0000 0.0000 0.0000 0.0000 0.0000 28.6645
#
#
#
# Elastic Compliance Matrix: (Units=1/GPa)
#
#
# Indices 1 2 3 4 5 6 
#
# 1 0.023818 -0.012077 -0.004020 0.000000 0.000000 0.000000
# 2 -0.012077 0.023818 -0.004020 0.000000 0.000000 0.000000
# 3 -0.004020 -0.004020 0.012270 0.000000 0.000000 0.000000
# 4 0.000000 0.000000 0.000000 0.095144 0.000000 0.000000
# 5 0.000000 0.000000 0.000000 0.000000 0.095142 0.000000
# 6 0.000000 0.000000 0.000000 0.000000 0.000000 0.034886
#
#
# Mechanical properties :
#
#
# Convention : Reuss Voigt Hill
#
# Bulk Modulus (GPa) = 50.83818 52.07042 51.45430
# Shear Modulus (GPa) = 15.06618 18.59131 16.82874
#
# Velocity S-wave (km/s) = 3.03465 3.37102 3.20725
# Velocity P-wave (km/s) = 6.58431 6.85415 6.72058
#
# Compressibility (1/GPa) = 0.01967026
#
# Stress axis : x y z
#
# Youngs Moduli (GPa) = 41.98575 41.98538 81.50035
#
# Poissons Ratio (x) = 0.50706 0.32764
# Poissons Ratio (y) = 0.50707 0.32766
# Poissons Ratio (z) = 0.16879 0.16879
#
# Static dielectric constant tensor:
#      x y z
#    x 1.554140 0.000000 0.000000 
#    y 0.000000 1.554150 0.000000 
#    z 0.000000 0.000000 1.575510 
# 
# From -- ./inp_files/12175.got.cif
#   From: 2010.05.17/outbox.cif.g08.bks.cpg/sg139_7_cif.got.tgz:12175.got - 2010.05.20 13:14:44.
