data_PCOD9571966
_publ_section_title
;
Structure prediction by ZEFSAII (Michael W. Deem and Ramdas Pophale) SiO2 
 PCOD9571966
Probable space group: I 4/M M M
;
_chemical_formula_sum "Si O2"
_cell_formula_units_Z 88
_cell_length_a 27.000000
_cell_length_b 27.000000
_cell_length_c 15.000000
_cell_angle_alpha 90.000000
_cell_angle_beta 90.000000
_cell_angle_gamma 90.000000
_cell_volume 10935.000000
_symmetry_space_group_name_H-M "I 4/M M M"
_symmetry_group_IT_number 139
_symmetry_cell_setting 'tetragonal'
loop_
_space_group_symop_operation_xyz
x,y,z
-y,x,z
-x,-y,z
y,-x,z
x,-y,-z
-x,y,-z
y,x,-z
-y,-x,-z
-x,-y,-z
y,-x,-z
x,y,-z
-y,x,-z
-x,y,z
x,-y,z
-y,-x,z
y,x,z
1/2+x,1/2+y,1/2+z
1/2-y,1/2+x,1/2+z
1/2-x,1/2-y,1/2+z
1/2+y,1/2-x,1/2+z
1/2+x,1/2-y,1/2-z
1/2-x,1/2+y,1/2-z
1/2+y,1/2+x,1/2-z
1/2-y,1/2-x,1/2-z
1/2-x,1/2-y,1/2-z
1/2+y,1/2-x,1/2-z
1/2+x,1/2+y,1/2-z
1/2-y,1/2+x,1/2-z
1/2-x,1/2+y,1/2+z
1/2+x,1/2-y,1/2+z
1/2-y,1/2-x,1/2+z
1/2+y,1/2+x,1/2+z
loop_
_atom_site_type_symbol
_atom_site_label
_atom_site_fract_x
_atom_site_fract_y
_atom_site_fract_z
Si Si1 0.117388 0.440042 0.173780
Si Si2 0.805292 0.638184 0.106723
Si Si3 0.945720 0.440875 0.000000
Si Si4 0.123919 0.792356 0.717204
Si Si5 0.641100 0.442042 0.103044
Si Si6 0.747506 0.663746 0.604154
O O1 0.125834 0.500000 0.182815
O O2 0.082800 0.417201 0.250000
O O3 0.165308 0.405479 0.158619
O O4 0.085745 0.429548 0.085732
O O5 0.751378 0.638398 0.150197
O O6 0.827126 0.693802 0.118902
O O7 0.804678 0.628294 0.000000
O O8 0.951272 0.500000 0.000000
O O9 0.000000 0.417721 0.000000
O O10 0.165823 0.834178 0.712795
O O11 0.075473 0.818529 0.675704
O O12 0.126441 0.772023 0.818973
O O13 0.629743 0.500000 0.112796
O O14 0.592743 0.407258 0.113405
O O15 0.658946 0.434228 0.000000
O O16 0.741019 0.648222 0.500000
O O17 0.714454 0.714454 0.614258
#
# Coordination Sequence:
#
# PCOD9571966 Si02
#       6
#    32  32  16  32  32  32
#     4  11  22  36  53  74  96 123 162 207 259 312
#     4  11  21  33  50  73 104 135 163 206 255 302
#     4   9  18  34  52  68  87 112 150 200 246 293
#     4  10  19  32  51  75 105 139 172 205 243 293
#     4   9  18  32  50  75 105 136 171 207 246 295
#     4   9  18  32  51  75 102 137 175 205 240 291
#
# _framework density 8.0475539999999999
#
# number of rings (size 3 to 8) (size 9 to 14) (size 15 to 20)
#    0.000    2.091    0.909    3.273    0.000    5.091 
#    0.000    0.909    0.000    0.545    0.000    0.000 
#    0.000    0.000    0.000    7.091    0.000    0.182 
#
# Total GULP energy -490025.183966 kJ/mol
# GULP energy per Si atom -5568.468000 kJ/mol
# Density = 0.802924 g / cm^3
# Si number density = 8.047554 Si / 1000 Ang^3
#
#
#
# Elastic Constant Matrix: (Units=GPa)
#
#
# Indices 1 2 3 4 5 6 
#
# 1 47.3899 27.0990 41.7550 0.0000 0.0000 0.0000
# 2 27.0990 47.3896 41.7544 0.0000 0.0000 0.0000
# 3 41.7550 41.7544 108.2587 0.0000 0.0000 0.0000
# 4 0.0000 0.0000 0.0000 27.1768 0.0000 0.0000
# 5 0.0000 0.0000 0.0000 0.0000 27.1764 0.0000
# 6 0.0000 0.0000 0.0000 0.0000 0.0000 8.1848
#
#
#
# Elastic Compliance Matrix: (Units=1/GPa)
#
#
# Indices 1 2 3 4 5 6 
#
# 1 0.036468 -0.012816 -0.009123 0.000000 0.000000 0.000000
# 2 -0.012816 0.036468 -0.009122 0.000000 0.000000 0.000000
# 3 -0.009123 -0.009122 0.016274 0.000000 0.000000 0.000000
# 4 0.000000 0.000000 0.000000 0.036796 0.000000 0.000000
# 5 0.000000 0.000000 0.000000 0.000000 0.036797 0.000000
# 6 0.000000 0.000000 0.000000 0.000000 0.000000 0.122178
#
#
# Mechanical properties :
#
#
# Convention : Reuss Voigt Hill
#
# Bulk Modulus (GPa) = 36.91621 47.13944 42.02783
# Shear Modulus (GPa) = 14.03978 18.66959 16.35469
#
# Velocity S-wave (km/s) = 2.95668 3.40951 3.19113
# Velocity P-wave (km/s) = 5.88575 6.69711 6.30449
#
# Compressibility (1/GPa) = 0.02708837
#
# Stress axis : x y z
#
# Youngs Moduli (GPa) = 27.42137 27.42154 61.44741
#
# Poissons Ratio (x) = 0.35143 0.56056
# Poissons Ratio (y) = 0.35143 0.56054
# Poissons Ratio (z) = 0.25015 0.25015
#
# Static dielectric constant tensor:
#      x y z
#    x 1.548530 0.000000 0.000000 
#    y 0.000000 1.548540 0.000000 
#    z 0.000000 0.000000 1.512820 
# 
# From -- ./inp_files/6357.got.cif
#   From: 2010.05.17/outbox.ucp.g08.bks.cvg/sg139_4_cif.got.tgz:6357.got - 2010.06.11 11:42:03.
