data_PCOD9571417
_publ_section_title
;
Structure prediction by ZEFSAII (Michael W. Deem and Ramdas Pophale) SiO2 
 PCOD9571417
Probable space group: I 4/M M M
;
_chemical_formula_sum "Si O2"
_cell_formula_units_Z 152
_cell_length_a 23.731256
_cell_length_b 23.731256
_cell_length_c 17.819876
_cell_angle_alpha 90.000000
_cell_angle_beta 90.000000
_cell_angle_gamma 90.000000
_cell_volume 10035.664319
_symmetry_space_group_name_H-M "I 4/M M M"
_symmetry_group_IT_number 139
_symmetry_cell_setting 'tetragonal'
loop_
_space_group_symop_operation_xyz
x,y,z
-y,x,z
-x,-y,z
y,-x,z
x,-y,-z
-x,y,-z
y,x,-z
-y,-x,-z
-x,-y,-z
y,-x,-z
x,y,-z
-y,x,-z
-x,y,z
x,-y,z
-y,-x,z
y,x,z
1/2+x,1/2+y,1/2+z
1/2-y,1/2+x,1/2+z
1/2-x,1/2-y,1/2+z
1/2+y,1/2-x,1/2+z
1/2+x,1/2-y,1/2-z
1/2-x,1/2+y,1/2-z
1/2+y,1/2+x,1/2-z
1/2-y,1/2-x,1/2-z
1/2-x,1/2-y,1/2-z
1/2+y,1/2-x,1/2-z
1/2+x,1/2+y,1/2-z
1/2-y,1/2+x,1/2-z
1/2-x,1/2+y,1/2+z
1/2+x,1/2-y,1/2+z
1/2-y,1/2-x,1/2+z
1/2+y,1/2+x,1/2+z
loop_
_atom_site_type_symbol
_atom_site_label
_atom_site_fract_x
_atom_site_fract_y
_atom_site_fract_z
Si Si1 0.594285 0.500000 0.000000
Si Si2 0.177006 0.000000 0.359495
Si Si3 0.381377 0.713018 0.352779
Si Si4 0.500000 0.671293 0.588496
Si Si5 0.784620 0.121122 0.327477
Si Si6 0.800283 0.703843 0.414692
Si Si7 0.000000 0.092634 0.776882
O O1 0.554201 0.554201 0.000000
O O2 0.632243 0.500000 0.926299
O O3 0.209934 0.941138 0.361390
O O4 0.144037 0.000000 0.280270
O O5 0.340639 0.659362 0.370820
O O6 0.442860 0.703070 0.386968
O O7 0.383299 0.717342 0.262611
O O8 0.351423 0.768681 0.384967
O O9 0.500000 0.661356 0.500000
O O10 0.500000 0.614841 0.638608
O O11 0.839478 0.160523 0.345748
O O12 0.730272 0.152877 0.360529
O O13 0.820682 0.696648 0.500000
O O14 0.751253 0.751253 0.415789
O O15 0.054499 0.054499 0.762796
#
# Coordination Sequence:
#
# PCOD9571417 Si02
#       7
#     8  16  32  16  32  32  16
#     4  11  24  36  48  68  96 136 182 221 256 292
#     4  12  22  35  52  72  98 131 172 219 257 295
#     4  10  19  34  51  70  96 129 165 204 252 302
#     4  12  23  33  49  72  98 129 169 214 253 295
#     4  10  19  32  51  71  94 127 168 206 249 303
#     4   9  18  31  49  72  96 122 155 202 255 305
#     4  11  22  36  50  64  92 134 174 210 248 289
#
# _framework density 15.145982999999999
#
# number of rings (size 3 to 8) (size 9 to 14) (size 15 to 20)
#    0.000    1.632    2.105    3.789    1.474    5.895 
#    0.000    0.526    0.000    0.000    0.000    0.000 
#    0.000    0.842    0.000    7.263    0.000    3.053 
#
# Total GULP energy -424147.817451 kJ/mol
# GULP energy per Si atom -5580.892335 kJ/mol
# Density = 1.511151 g / cm^3
# Si number density = 15.145983 Si / 1000 Ang^3
#
#
#
# Elastic Constant Matrix: (Units=GPa)
#
#
# Indices 1 2 3 4 5 6 
#
# 1 70.7729 38.9350 21.6549 0.0000 0.0000 0.0000
# 2 38.9350 70.7729 21.6549 0.0000 0.0000 0.0000
# 3 21.6549 21.6549 67.3953 0.0000 0.0000 0.0000
# 4 0.0000 0.0000 0.0000 8.6129 0.0000 0.0000
# 5 0.0000 0.0000 0.0000 0.0000 8.6129 0.0000
# 6 0.0000 0.0000 0.0000 0.0000 0.0000 -72.9262
#
#
#
# Elastic Compliance Matrix: (Units=1/GPa)
#
#
# Indices 1 2 3 4 5 6 
#
# 1 0.020924 -0.010485 -0.003354 0.000000 0.000000 0.000000
# 2 -0.010485 0.020924 -0.003354 0.000000 0.000000 0.000000
# 3 -0.003354 -0.003354 0.016993 0.000000 0.000000 0.000000
# 4 0.000000 0.000000 0.000000 0.116105 0.000000 0.000000
# 5 0.000000 0.000000 0.000000 0.000000 0.116105 0.000000
# 6 0.000000 0.000000 0.000000 0.000000 0.000000 -0.013712
#
#
# Mechanical properties :
#
#
# Convention : Reuss Voigt Hill
#
# Bulk Modulus (GPa) = 40.89162 41.49228 41.19195
# Shear Modulus (GPa) = 15.63100 -2.69364 6.46868
#
# Velocity S-wave (km/s) = 3.21600 -1.33503 2.06885
# Velocity P-wave (km/s) = 6.39117 5.00779 5.74130
#
# Compressibility (1/GPa) = 0.02445489
#
# Stress axis : x y z
#
# Youngs Moduli (GPa) = 47.79161 47.79161 58.84654
#
# Poissons Ratio (x) = 0.50109 0.19739
# Poissons Ratio (y) = 0.50109 0.19739
# Poissons Ratio (z) = 0.16031 0.16031
#
# Static dielectric constant tensor:
#      x y z
#    x 1.494290 0.000000 0.000000 
#    y 0.000000 1.494290 0.000000 
#    z 0.000000 0.000000 1.516840 
# 
# From -- ./inp_files/6036.got.cif
#   From: 2010.05.17/outbox.cif.g08.bks.cpg/sg139_4_cif.got.tgz:6036.got - 2010.05.20 13:14:44.
