data_PCOD9571876
_publ_section_title
;
Structure prediction by ZEFSAII (Michael W. Deem and Ramdas Pophale) SiO2 
 PCOD9571876
Probable space group: I 4/M M M
;
_chemical_formula_sum "Si O2"
_cell_formula_units_Z 168
_cell_length_a 24.438661
_cell_length_b 24.438661
_cell_length_c 15.243353
_cell_angle_alpha 90.000000
_cell_angle_beta 90.000000
_cell_angle_gamma 90.000000
_cell_volume 9104.064401
_symmetry_space_group_name_H-M "I 4/M M M"
_symmetry_group_IT_number 139
_symmetry_cell_setting 'tetragonal'
loop_
_space_group_symop_operation_xyz
x,y,z
-y,x,z
-x,-y,z
y,-x,z
x,-y,-z
-x,y,-z
y,x,-z
-y,-x,-z
-x,-y,-z
y,-x,-z
x,y,-z
-y,x,-z
-x,y,z
x,-y,z
-y,-x,z
y,x,z
1/2+x,1/2+y,1/2+z
1/2-y,1/2+x,1/2+z
1/2-x,1/2-y,1/2+z
1/2+y,1/2-x,1/2+z
1/2+x,1/2-y,1/2-z
1/2-x,1/2+y,1/2-z
1/2+y,1/2+x,1/2-z
1/2-y,1/2-x,1/2-z
1/2-x,1/2-y,1/2-z
1/2+y,1/2-x,1/2-z
1/2+x,1/2+y,1/2-z
1/2-y,1/2+x,1/2-z
1/2-x,1/2+y,1/2+z
1/2+x,1/2-y,1/2+z
1/2-y,1/2-x,1/2+z
1/2+y,1/2+x,1/2+z
loop_
_atom_site_type_symbol
_atom_site_label
_atom_site_fract_x
_atom_site_fract_y
_atom_site_fract_z
Si Si1 0.437685 0.063001 0.393172
Si Si2 0.063024 0.199296 0.000000
Si Si3 0.630229 0.718585 0.140647
Si Si4 0.433104 0.433104 0.500000
Si Si5 0.769214 0.859658 0.841763
Si Si6 0.851985 0.343868 0.603762
Si Si7 0.152016 0.935722 0.500000
O O1 0.437172 0.062766 0.500000
O O2 0.500000 0.078153 0.366572
O O3 0.390021 0.104771 0.366033
O O4 0.427675 0.000000 0.365318
O O5 0.094638 0.219929 0.085838
O O6 0.067144 0.134237 0.000000
O O7 0.000000 0.217315 0.000000
O O8 0.689255 0.689255 0.122467
O O9 0.621281 0.714684 0.244516
O O10 0.627719 0.781758 0.113861
O O11 0.587132 0.684593 0.084117
O O12 0.500000 0.432364 0.500000
O O13 0.806152 0.806152 0.862051
O O14 0.705059 0.846902 0.845084
O O15 0.841206 0.353469 0.500000
O O16 0.093284 0.906717 0.500000
O O17 0.148778 0.000000 0.500000
#
# Coordination Sequence:
#
# PCOD9571876 Si02
#       7
#    32  16  32   8  32  32  16
#     4   8  16  32  52  76 109 148 189 233 281 333
#     4  11  22  37  59  86 119 157 195 235 290 356
#     4  10  22  39  60  86 118 156 196 241 293 351
#     4   9  18  36  62  86 110 148 198 246 288 344
#     4  11  22  38  57  85 122 160 193 235 293 353
#     4  11  20  32  57  91 116 152 200 242 287 347
#     4  10  22  42  66  89 117 152 195 250 307 359
#
# _framework density 18.453298
#
# number of rings (size 3 to 8) (size 9 to 14) (size 15 to 20)
#    0.000    1.952    2.857    1.714    0.000    4.667 
#    0.000    0.000    0.000    3.429    0.000    5.333 
#    0.000    0.000    0.000    0.000    0.000    0.000 
#
# Total GULP energy -467759.261596 kJ/mol
# GULP energy per Si atom -5568.562638 kJ/mol
# Density = 1.841130 g / cm^3
# Si number density = 18.453298 Si / 1000 Ang^3
#
#
#
# Elastic Constant Matrix: (Units=GPa)
#
#
# Indices 1 2 3 4 5 6 
#
# 1 147.1095 81.1801 35.6858 0.0000 0.0000 0.0000
# 2 81.1801 147.1083 35.6856 0.0000 0.0000 0.0000
# 3 35.6858 35.6856 83.6994 0.0000 0.0000 0.0000
# 4 0.0000 0.0000 0.0000 92.7840 0.0000 0.0000
# 5 0.0000 0.0000 0.0000 0.0000 93.1013 0.0000
# 6 0.0000 0.0000 0.0000 0.0000 0.0000 17.8724
#
#
#
# Elastic Compliance Matrix: (Units=1/GPa)
#
#
# Indices 1 2 3 4 5 6 
#
# 1 0.010111 -0.005057 -0.002155 0.000000 0.000000 0.000000
# 2 -0.005057 0.010111 -0.002155 0.000000 0.000000 0.000000
# 3 -0.002155 -0.002155 0.013785 0.000000 0.000000 0.000000
# 4 0.000000 0.000000 0.000000 0.010778 0.000000 0.000000
# 5 0.000000 0.000000 0.000000 0.000000 0.010741 0.000000
# 6 0.000000 0.000000 0.000000 0.000000 0.000000 0.055952
#
#
# Mechanical properties :
#
#
# Convention : Reuss Voigt Hill
#
# Bulk Modulus (GPa) = 65.47161 75.89113 70.68137
# Shear Modulus (GPa) = 36.95427 55.77591 46.36509
#
# Velocity S-wave (km/s) = 4.47988 5.50373 5.01799
# Velocity P-wave (km/s) = 7.89403 9.03346 8.48290
#
# Compressibility (1/GPa) = 0.01527380
#
# Stress axis : x y z
#
# Youngs Moduli (GPa) = 98.90279 98.90197 72.54277
#
# Poissons Ratio (x) = 0.50014 0.15632
# Poissons Ratio (y) = 0.50014 0.15632
# Poissons Ratio (z) = 0.21312 0.21312
#
# Static dielectric constant tensor:
#      x y z
#    x 1.621740 0.000000 0.000000 
#    y 0.000000 1.621740 0.000000 
#    z 0.000000 0.000000 1.524430 
# 
# From -- ./inp_files/6180.got.cif
#   From: 2010.05.17/outbox.cif.g08.bks.cpg/sg139_4_cif.got.tgz:6180.got - 2010.05.20 13:14:44.
