data_PCOD9571224
_publ_section_title
;
Structure prediction by ZEFSAII (Michael W. Deem and Ramdas Pophale) SiO2 
 PCOD9571224
Probable space group: I 4/M M M
;
_chemical_formula_sum "Si O2"
_cell_formula_units_Z 208
_cell_length_a 26.708596
_cell_length_b 26.708596
_cell_length_c 18.372967
_cell_angle_alpha 90.000000
_cell_angle_beta 90.000000
_cell_angle_gamma 90.000000
_cell_volume 13106.339479
_symmetry_space_group_name_H-M "I 4/M M M"
_symmetry_group_IT_number 139
_symmetry_cell_setting 'tetragonal'
loop_
_space_group_symop_operation_xyz
x,y,z
-y,x,z
-x,-y,z
y,-x,z
x,-y,-z
-x,y,-z
y,x,-z
-y,-x,-z
-x,-y,-z
y,-x,-z
x,y,-z
-y,x,-z
-x,y,z
x,-y,z
-y,-x,z
y,x,z
1/2+x,1/2+y,1/2+z
1/2-y,1/2+x,1/2+z
1/2-x,1/2-y,1/2+z
1/2+y,1/2-x,1/2+z
1/2+x,1/2-y,1/2-z
1/2-x,1/2+y,1/2-z
1/2+y,1/2+x,1/2-z
1/2-y,1/2-x,1/2-z
1/2-x,1/2-y,1/2-z
1/2+y,1/2-x,1/2-z
1/2+x,1/2+y,1/2-z
1/2-y,1/2+x,1/2-z
1/2-x,1/2+y,1/2+z
1/2+x,1/2-y,1/2+z
1/2-y,1/2-x,1/2+z
1/2+y,1/2+x,1/2+z
loop_
_atom_site_type_symbol
_atom_site_label
_atom_site_fract_x
_atom_site_fract_y
_atom_site_fract_z
Si Si1 0.305507 0.228713 0.586573
Si Si2 0.634034 0.135144 0.915471
Si Si3 0.059515 0.746872 0.263674
Si Si4 0.807523 0.888955 0.864752
Si Si5 0.778618 0.560048 0.919266
Si Si6 0.440781 0.866695 0.708532
Si Si7 0.058487 0.856483 0.000000
O O1 0.298071 0.222868 0.500000
O O2 0.255279 0.255279 0.616705
O O3 0.325792 0.175802 0.614590
O O4 0.350318 0.267788 0.600248
O O5 0.582413 0.165660 0.911413
O O6 0.635124 0.084472 0.870701
O O7 0.645304 0.125408 0.000000
O O8 0.086412 0.781627 0.204963
O O9 0.075831 0.752374 0.348007
O O10 0.067341 0.688356 0.243252
O O11 0.000000 0.756189 0.259317
O O12 0.855799 0.855799 0.844138
O O13 0.824706 0.926990 0.927979
O O14 0.780706 0.500000 0.918049
O O15 0.760555 0.576183 0.000000
O O16 0.500000 0.876613 0.708060
O O17 0.409013 0.909013 0.750000
O O18 0.095125 0.904876 0.000000
O O19 0.000000 0.869012 0.000000
#
# Coordination Sequence:
#
# PCOD9571224 Si02
#       7
#    32  32  32  32  32  32  16
#     4   9  16  28  45  67  98 133 160 188 236 290
#     4  10  19  32  51  72  97 125 159 204 247 301
#     4  10  19  32  51  71  93 125 162 202 243 292
#     4  10  18  30  48  73 102 131 164 202 243 285
#     4   9  18  33  53  71  88 119 161 203 249 299
#     4  11  22  35  50  69  95 124 159 207 257 312
#     4  10  20  33  50  74 108 146 179 209 239 281
#
# _framework density 15.870182
#
# number of rings (size 3 to 8) (size 9 to 14) (size 15 to 20)
#    0.000    2.154    3.846    0.462    0.000    0.538 
#    0.000    0.769    0.000    4.154    0.000    3.231 
#    0.000    0.000    0.000    0.000    0.000    0.000 
#
# Total GULP energy -579109.988854 kJ/mol
# GULP energy per Si atom -5568.365277 kJ/mol
# Density = 1.583406 g / cm^3
# Si number density = 15.870182 Si / 1000 Ang^3
#
#
#
# Elastic Constant Matrix: (Units=GPa)
#
#
# Indices 1 2 3 4 5 6 
#
# 1 57.0104 32.2977 42.8582 0.0000 0.0000 0.0000
# 2 32.2977 57.0120 42.8584 0.0000 0.0000 0.0000
# 3 42.8582 42.8584 101.3092 0.0000 0.0000 0.0000
# 4 0.0000 0.0000 0.0000 21.5223 0.0000 0.0000
# 5 0.0000 0.0000 0.0000 0.0000 21.5224 0.0000
# 6 0.0000 0.0000 0.0000 0.0000 0.0000 13.2750
#
#
#
# Elastic Compliance Matrix: (Units=1/GPa)
#
#
# Indices 1 2 3 4 5 6 
#
# 1 0.029658 -0.010806 -0.007975 0.000000 0.000000 0.000000
# 2 -0.010806 0.029657 -0.007975 0.000000 0.000000 0.000000
# 3 -0.007975 -0.007975 0.016618 0.000000 0.000000 0.000000
# 4 0.000000 0.000000 0.000000 0.046464 0.000000 0.000000
# 5 0.000000 0.000000 0.000000 0.000000 0.046463 0.000000
# 6 0.000000 0.000000 0.000000 0.000000 0.000000 0.075330
#
#
# Mechanical properties :
#
#
# Convention : Reuss Voigt Hill
#
# Bulk Modulus (GPa) = 44.60090 50.15114 47.37602
# Shear Modulus (GPa) = 16.38402 17.75175 17.06788
#
# Velocity S-wave (km/s) = 3.21655 3.34812 3.28299
# Velocity P-wave (km/s) = 6.47762 6.82759 6.65490
#
# Compressibility (1/GPa) = 0.02242107
#
# Stress axis : x y z
#
# Youngs Moduli (GPa) = 33.71771 33.71900 60.17475
#
# Poissons Ratio (x) = 0.36437 0.47990
# Poissons Ratio (y) = 0.36436 0.47988
# Poissons Ratio (z) = 0.26890 0.26890
#
# Static dielectric constant tensor:
#      x y z
#    x 1.525780 0.000000 0.000000 
#    y 0.000000 1.525780 0.000000 
#    z 0.000000 0.000000 1.570780 
# 
# From -- ./inp_files/8970.got.cif
#   From: 2010.05.17/outbox.cif.g08.bks.cpg/sg139_5_cif.got.tgz:8970.got - 2010.05.20 13:14:44.
