data_PCOD9571805
_publ_section_title
;
Structure prediction by ZEFSAII (Michael W. Deem and Ramdas Pophale) SiO2 
 PCOD9571805
Probable space group: I 4/M M M
;
_chemical_formula_sum "Si O2"
_cell_formula_units_Z 144
_cell_length_a 30.309449
_cell_length_b 30.309449
_cell_length_c 7.626638
_cell_angle_alpha 90.000000
_cell_angle_beta 90.000000
_cell_angle_gamma 90.000000
_cell_volume 7006.307847
_symmetry_space_group_name_H-M "I 4/M M M"
_symmetry_group_IT_number 139
_symmetry_cell_setting 'tetragonal'
loop_
_space_group_symop_operation_xyz
x,y,z
-y,x,z
-x,-y,z
y,-x,z
x,-y,-z
-x,y,-z
y,x,-z
-y,-x,-z
-x,-y,-z
y,-x,-z
x,y,-z
-y,x,-z
-x,y,z
x,-y,z
-y,-x,z
y,x,z
1/2+x,1/2+y,1/2+z
1/2-y,1/2+x,1/2+z
1/2-x,1/2-y,1/2+z
1/2+y,1/2-x,1/2+z
1/2+x,1/2-y,1/2-z
1/2-x,1/2+y,1/2-z
1/2+y,1/2+x,1/2-z
1/2-y,1/2-x,1/2-z
1/2-x,1/2-y,1/2-z
1/2+y,1/2-x,1/2-z
1/2+x,1/2+y,1/2-z
1/2-y,1/2+x,1/2-z
1/2-x,1/2+y,1/2+z
1/2+x,1/2-y,1/2+z
1/2-y,1/2-x,1/2+z
1/2+y,1/2+x,1/2+z
loop_
_atom_site_type_symbol
_atom_site_label
_atom_site_fract_x
_atom_site_fract_y
_atom_site_fract_z
Si Si1 0.246903 0.179973 0.710146
Si Si2 0.550303 0.123655 0.789081
Si Si3 0.448193 0.311556 0.194667
Si Si4 0.553615 0.375701 0.500000
Si Si5 0.281743 0.086263 0.286618
O O1 0.242912 0.175385 0.500000
O O2 0.200522 0.200522 0.775303
O O3 0.283400 0.216601 0.750000
O O4 0.266264 0.134208 0.778185
O O5 0.500000 0.116559 0.725603
O O6 0.584011 0.084011 0.750000
O O7 0.569319 0.170816 0.723277
O O8 0.548048 0.126823 0.000000
O O9 0.500000 0.320220 0.180385
O O10 0.431401 0.346842 0.332813
O O11 0.443337 0.260829 0.253656
O O12 0.427846 0.315424 0.000000
O O13 0.500000 0.379252 0.500000
O O14 0.577500 0.422501 0.500000
O O15 0.285394 0.087669 0.500000
#
# Coordination Sequence:
#
# PCOD9571805 Si02
#       5
#    32  32  32  16  32
#     4   9  17  29  44  65  96 132 169 210 259 317
#     4  10  21  37  56  79 108 143 187 239 296 358
#     4   9  18  35  58  82 112 148 183 231 293 343
#     4  10  22  39  58  86 120 154 199 245 287 345
#     4   9  17  32  55  79 104 140 182 225 277 345
#
# _framework density 20.552907999999999
#
# number of rings (size 3 to 8) (size 9 to 14) (size 15 to 20)
#    0.000    2.667    0.000    1.333    0.000    4.778 
#    4.000    3.333    0.000    0.000    0.000    3.111 
#    0.000    0.000    0.000    0.000    0.000    0.000 
#
# Total GULP energy -401322.284935 kJ/mol
# GULP energy per Si atom -5573.920624 kJ/mol
# Density = 2.050613 g / cm^3
# Si number density = 20.552908 Si / 1000 Ang^3
#
#
#
# Elastic Constant Matrix: (Units=GPa)
#
#
# Indices 1 2 3 4 5 6 
#
# 1 117.6979 67.4195 32.4029 0.0000 0.0000 0.0000
# 2 67.4195 117.6826 32.4044 0.0000 0.0000 0.0000
# 3 32.4029 32.4044 56.9079 0.0000 0.0000 0.0000
# 4 0.0000 0.0000 0.0000 3.3953 0.0000 0.0000
# 5 0.0000 0.0000 0.0000 0.0000 3.4017 0.0000
# 6 0.0000 0.0000 0.0000 0.0000 0.0000 37.8363
#
#
#
# Elastic Compliance Matrix: (Units=1/GPa)
#
#
# Indices 1 2 3 4 5 6 
#
# 1 0.013319 -0.006573 -0.003841 0.000000 0.000000 0.000000
# 2 -0.006573 0.013321 -0.003843 0.000000 0.000000 0.000000
# 3 -0.003841 -0.003843 0.021947 0.000000 0.000000 0.000000
# 4 0.000000 0.000000 0.000000 0.294524 0.000000 0.000000
# 5 0.000000 0.000000 0.000000 0.000000 0.293972 0.000000
# 6 0.000000 0.000000 0.000000 0.000000 0.000000 0.026430
#
#
# Mechanical properties :
#
#
# Convention : Reuss Voigt Hill
#
# Bulk Modulus (GPa) = 49.81494 61.86023 55.83758
# Shear Modulus (GPa) = 7.15598 19.59744 13.37671
#
# Velocity S-wave (km/s) = 1.86796 3.09125 2.55393
# Velocity P-wave (km/s) = 5.37982 6.55015 5.99362
#
# Compressibility (1/GPa) = 0.02007430
#
# Stress axis : x y z
#
# Youngs Moduli (GPa) = 75.08277 75.06993 45.56335
#
# Poissons Ratio (x) = 0.49340 0.17501
# Poissons Ratio (y) = 0.49348 0.17509
# Poissons Ratio (z) = 0.28839 0.28848
#
# Static dielectric constant tensor:
#      x y z
#    x 1.734590 0.000000 0.000000 
#    y 0.000000 1.734590 0.000000 
#    z 0.000000 0.000000 1.806930 
# 
# From -- ./inp_files/2044.got.cif
#   From: 2010.05.17/outbox.cif.g08.bks.cpg/sg139_2_cif.got.tgz:2044.got - 2010.05.20 13:14:44.
