data_PCOD9571564
_publ_section_title
;
Structure prediction by ZEFSAII (Michael W. Deem and Ramdas Pophale) SiO2 
 PCOD9571564
Probable space group: I 4/M M M
;
_chemical_formula_sum "Si O2"
_cell_formula_units_Z 112
_cell_length_a 25.094561
_cell_length_b 25.094561
_cell_length_c 10.074763
_cell_angle_alpha 90.000000
_cell_angle_beta 90.000000
_cell_angle_gamma 90.000000
_cell_volume 6344.450945
_symmetry_space_group_name_H-M "I 4/M M M"
_symmetry_group_IT_number 139
_symmetry_cell_setting 'tetragonal'
loop_
_space_group_symop_operation_xyz
x,y,z
-y,x,z
-x,-y,z
y,-x,z
x,-y,-z
-x,y,-z
y,x,-z
-y,-x,-z
-x,-y,-z
y,-x,-z
x,y,-z
-y,x,-z
-x,y,z
x,-y,z
-y,-x,z
y,x,z
1/2+x,1/2+y,1/2+z
1/2-y,1/2+x,1/2+z
1/2-x,1/2-y,1/2+z
1/2+y,1/2-x,1/2+z
1/2+x,1/2-y,1/2-z
1/2-x,1/2+y,1/2-z
1/2+y,1/2+x,1/2-z
1/2-y,1/2-x,1/2-z
1/2-x,1/2-y,1/2-z
1/2+y,1/2-x,1/2-z
1/2+x,1/2+y,1/2-z
1/2-y,1/2+x,1/2-z
1/2-x,1/2+y,1/2+z
1/2+x,1/2-y,1/2+z
1/2-y,1/2-x,1/2+z
1/2+y,1/2+x,1/2+z
loop_
_atom_site_type_symbol
_atom_site_label
_atom_site_fract_x
_atom_site_fract_y
_atom_site_fract_z
Si Si1 0.409153 0.259593 0.846153
Si Si2 0.783795 0.783795 0.649114
Si Si3 0.563212 0.863787 0.843014
Si Si4 0.440484 0.647244 0.655739
O O1 0.346118 0.271153 0.835199
O O2 0.422237 0.198114 0.816400
O O3 0.436040 0.300653 0.746085
O O4 0.424955 0.269352 0.000000
O O5 0.768381 0.768381 0.500000
O O6 0.750000 0.750000 0.750000
O O7 0.500000 0.871277 0.821301
O O8 0.597962 0.902039 0.750000
O O9 0.574149 0.873455 0.000000
O O10 0.432646 0.660735 0.500000
O O11 0.500000 0.624448 0.669158
O O12 0.395604 0.604397 0.693670
#
# Coordination Sequence:
#
# PCOD9571564 Si02
#       4
#    32  16  32  32
#     4  10  20  37  58  83 114 147 185 228 280 338
#     4  10  20  32  52  82 113 146 181 219 270 329
#     4  10  22  39  59  84 114 149 188 233 284 335
#     4  10  21  36  55  81 112 148 190 233 279 330
#
# _framework density 17.653222
#
# number of rings (size 3 to 8) (size 9 to 14) (size 15 to 20)
#    0.000    2.000    1.429    1.714    0.000    5.143 
#    0.000    2.857    0.000    0.000    0.000    2.000 
#    0.000    0.000    0.000    0.000    0.000    0.000 
#
# Total GULP energy -312553.163406 kJ/mol
# GULP energy per Si atom -5581.306489 kJ/mol
# Density = 1.761304 g / cm^3
# Si number density = 17.653222 Si / 1000 Ang^3
#
#
#
# Elastic Constant Matrix: (Units=GPa)
#
#
# Indices 1 2 3 4 5 6 
#
# 1 105.1937 82.6005 75.0778 0.0000 0.0000 0.0000
# 2 82.6005 105.1961 75.0770 0.0000 0.0000 0.0000
# 3 75.0778 75.0770 78.6030 0.0000 0.0000 0.0000
# 4 0.0000 0.0000 0.0000 25.7591 0.0000 0.0000
# 5 0.0000 0.0000 0.0000 0.0000 25.7574 0.0000
# 6 0.0000 0.0000 0.0000 0.0000 0.0000 5.5482
#
#
#
# Elastic Compliance Matrix: (Units=1/GPa)
#
#
# Indices 1 2 3 4 5 6 
#
# 1 0.033399 -0.010862 -0.021526 0.000000 0.000000 0.000000
# 2 -0.010862 0.033395 -0.021522 0.000000 0.000000 0.000000
# 3 -0.021526 -0.021522 0.053840 0.000000 0.000000 0.000000
# 4 0.000000 0.000000 0.000000 0.038821 0.000000 0.000000
# 5 0.000000 0.000000 0.000000 0.000000 0.038824 0.000000
# 6 0.000000 0.000000 0.000000 0.000000 0.000000 0.180240
#
#
# Mechanical properties :
#
#
# Convention : Reuss Voigt Hill
#
# Bulk Modulus (GPa) = 78.04674 83.83374 80.94024
# Shear Modulus (GPa) = 10.19138 15.16209 12.67674
#
# Velocity S-wave (km/s) = 2.40533 2.93385 2.68264
# Velocity P-wave (km/s) = 7.21257 7.68563 7.45286
#
# Compressibility (1/GPa) = 0.01281284
#
# Stress axis : x y z
#
# Youngs Moduli (GPa) = 29.94115 29.94466 18.57358
#
# Poissons Ratio (x) = 0.32525 0.39982
# Poissons Ratio (y) = 0.32522 0.39974
# Poissons Ratio (z) = 0.64452 0.64447
#
# Static dielectric constant tensor:
#      x y z
#    x 1.587540 0.000000 0.000000 
#    y 0.000000 1.587540 0.000000 
#    z 0.000000 0.000000 1.592940 
# 
# From -- ./inp_files/3247.got.cif
#   From: 2010.05.17/outbox.cif.g08.bks.cpg/sg139_2_cif.got.tgz:3247.got - 2010.05.20 13:14:44.
