data_PCOD9571003
_publ_section_title
;
Structure prediction by ZEFSAII (Michael W. Deem and Ramdas Pophale) SiO2 
 PCOD9571003
Probable space group: P 42/N C M
;
_chemical_formula_sum "Si O2"
_cell_formula_units_Z 64
_cell_length_a 11.879882
_cell_length_b 11.879882
_cell_length_c 19.302474
_cell_angle_alpha 90.000000
_cell_angle_beta 90.000000
_cell_angle_gamma 90.000000
_cell_volume 2724.188969
_symmetry_space_group_name_H-M "P 42/N C M"
_symmetry_group_IT_number 138
_space_group.IT_coordinate_system_code '2'
_symmetry_cell_setting 'tetragonal'
loop_
_space_group_symop_operation_xyz
x,y,z
1/2-y,x,1/2+z
1/2-x,1/2-y,z
y,1/2-x,1/2+z
1/2+x,-y,1/2-z
-x,1/2+y,1/2-z
1/2+y,1/2+x,-z
-y,-x,-z
-x,-y,-z
1/2+y,-x,1/2-z
1/2+x,1/2+y,-z
-y,1/2+x,1/2-z
1/2-x,y,1/2+z
x,1/2-y,1/2+z
1/2-y,1/2-x,z
y,x,z
loop_
_atom_site_type_symbol
_atom_site_label
_atom_site_fract_x
_atom_site_fract_y
_atom_site_fract_z
Si Si1 0.914838 0.405510 0.276713
Si Si2 0.755570 0.562904 0.139492
Si Si3 0.752913 0.061884 0.996329
Si Si4 0.799097 0.982587 0.343830
O O1 0.814136 0.481181 0.304734
O O2 0.019269 0.480732 0.292120
O O3 0.951743 0.294188 0.320164
O O4 0.926090 0.378775 0.194826
O O5 0.872173 0.627827 0.160358
O O6 0.662037 0.662037 0.144602
O O7 0.762492 0.521608 0.060335
O O8 0.728374 0.000620 0.923792
O O9 0.659487 0.159487 0.000000
O O10 0.873712 0.126289 0.000000
O O11 0.862730 0.862730 0.332812
#
# Coordination Sequence:
#
# PCOD9571003 Si02
#       4
#    16  16  16  16
#     4  10  24  44  69 103 143 184 235 303 363 433
#     4  10  22  43  70 100 140 189 234 287 362 434
#     4  11  24  42  69 103 138 185 238 294 358 430
#     4  11  25  44  69 101 138 187 240 296 367 436
#
# _framework density 23.493228999999999
#
# number of rings (size 3 to 8) (size 9 to 14) (size 15 to 20)
#    0.000    1.500    2.500    0.750    3.500    5.500 
#    0.000    2.500    0.000    0.000    0.000    0.000 
#    0.000    0.000    0.000    0.000    0.000    0.000 
#
# Total GULP energy -356353.493852 kJ/mol
# GULP energy per Si atom -5568.023341 kJ/mol
# Density = 2.343976 g / cm^3
# Si number density = 23.493229 Si / 1000 Ang^3
#
#
#
# Elastic Constant Matrix: (Units=GPa)
#
#
# Indices 1 2 3 4 5 6 
#
# 1 -80.4840 184.8664 38.2837 0.0000 0.0000 0.0000
# 2 184.8664 -80.4867 38.2755 0.0000 0.0000 0.0000
# 3 38.2837 38.2755 141.6257 0.0000 0.0000 0.0000
# 4 0.0000 0.0000 0.0000 16.9486 0.0000 0.0000
# 5 0.0000 0.0000 0.0000 0.0000 16.9454 0.0000
# 6 0.0000 0.0000 0.0000 0.0000 0.0000 39.1882
#
#
#
# Elastic Compliance Matrix: (Units=1/GPa)
#
#
# Indices 1 2 3 4 5 6 
#
# 1 0.004090 0.007859 -0.003230 0.000000 0.000000 0.000000
# 2 0.007859 0.004090 -0.003230 0.000000 0.000000 0.000000
# 3 -0.003230 -0.003230 0.008807 0.000000 0.000000 0.000000
# 4 0.000000 0.000000 0.000000 0.059002 0.000000 0.000000
# 5 0.000000 0.000000 0.000000 0.000000 0.059013 0.000000
# 6 0.000000 0.000000 0.000000 0.000000 0.000000 0.025518
#
#
# Mechanical properties :
#
#
# Convention : Reuss Voigt Hill
#
# Bulk Modulus (GPa) = 50.54018 55.94513 53.24266
# Shear Modulus (GPa) = 30.42905 -4.10159 13.16373
#
# Velocity S-wave (km/s) = 3.60283 -1.32274 2.36968
# Velocity P-wave (km/s) = 6.23430 4.64027 5.49539
#
# Compressibility (1/GPa) = 0.01978624
#
# Stress axis : x y z
#
# Youngs Moduli (GPa) = 244.48456 244.47974 113.54912
#
# Poissons Ratio (x) = -1.92133 0.36672
# Poissons Ratio (y) = -1.92137 0.36674
# Poissons Ratio (z) = 0.78958 0.78963
#
# Static dielectric constant tensor:
#      x y z
#    x 1.626380 0.000000 0.000000 
#    y 0.000000 1.626430 0.000000 
#    z 0.000000 0.000000 1.923050 
# 
# From -- ./inp_files/5819.got.cif
#   From: 2010.05.17/outbox.cif.g08.bks.cpg/sg138_3_cif.got.tgz:5819.got - 2010.05.20 13:08:53.
