data_PCOD9571098
_publ_section_title
;
Structure prediction by ZEFSAII (Michael W. Deem and Ramdas Pophale) SiO2 
 PCOD9571098
Probable space group: P 42/N C M
;
_chemical_formula_sum "Si O2"
_cell_formula_units_Z 72
_cell_length_a 17.252809
_cell_length_b 17.252809
_cell_length_c 11.713404
_cell_angle_alpha 90.000000
_cell_angle_beta 90.000000
_cell_angle_gamma 90.000000
_cell_volume 3486.605022
_symmetry_space_group_name_H-M "P 42/N C M"
_symmetry_group_IT_number 138
_space_group.IT_coordinate_system_code '2'
_symmetry_cell_setting 'tetragonal'
loop_
_space_group_symop_operation_xyz
x,y,z
1/2-y,x,1/2+z
1/2-x,1/2-y,z
y,1/2-x,1/2+z
1/2+x,-y,1/2-z
-x,1/2+y,1/2-z
1/2+y,1/2+x,-z
-y,-x,-z
-x,-y,-z
1/2+y,-x,1/2-z
1/2+x,1/2+y,-z
-y,1/2+x,1/2-z
1/2-x,y,1/2+z
x,1/2-y,1/2+z
1/2-y,1/2-x,z
y,x,z
loop_
_atom_site_type_symbol
_atom_site_label
_atom_site_fract_x
_atom_site_fract_y
_atom_site_fract_z
Si Si1 0.398215 0.101786 0.288633
Si Si2 0.620897 0.244481 0.761326
Si Si3 0.392898 0.107103 0.560739
Si Si4 0.026516 0.026516 0.256135
Si Si5 0.464481 0.649872 0.567224
Si Si6 0.730450 0.537024 0.367592
O O1 0.397653 0.102348 0.424775
O O2 0.316684 0.076449 0.234684
O O3 0.461128 0.038873 0.246029
O O4 0.673235 0.321302 0.766034
O O5 0.580609 0.223301 0.881051
O O6 0.551700 0.253065 0.670831
O O7 0.450294 0.049707 0.628678
O O8 0.417314 0.192293 0.601994
O O9 0.996346 0.100803 0.326293
O O10 0.405612 0.594388 0.500000
O O11 0.529869 0.677028 0.479759
#
# Coordination Sequence:
#
# PCOD9571098 Si02
#       6
#     8  16   8   8  16  16
#     4  12  26  51  74 106 145 183 242 301 351 427
#     4  11  23  41  65 103 148 186 231 290 362 434
#     4  12  29  46  73 107 149 193 227 303 365 417
#     4  12  23  46  78 108 135 192 251 294 346 425
#     4  12  22  42  73 104 137 188 238 296 349 419
#     4  12  26  48  72 106 145 183 246 292 359 429
#
# _framework density 20.650461
#
# number of rings (size 3 to 8) (size 9 to 14) (size 15 to 20)
#    0.000    0.222    6.667    2.667    0.000    1.333 
#    4.000    1.111    0.000    0.000    0.000    0.000 
#    0.000    0.000    0.000    0.000    0.000    0.000 
#
# Total GULP energy -402963.570417 kJ/mol
# GULP energy per Si atom -5596.716256 kJ/mol
# Density = 2.060346 g / cm^3
# Si number density = 20.650461 Si / 1000 Ang^3
#
#
#
# Elastic Constant Matrix: (Units=GPa)
#
#
# Indices 1 2 3 4 5 6 
#
# 1 85.0678 61.7245 38.5994 0.0000 0.0000 0.0000
# 2 61.7245 85.0661 38.5991 0.0000 0.0000 0.0000
# 3 38.5994 38.5991 125.8803 0.0000 0.0000 0.0000
# 4 0.0000 0.0000 0.0000 33.2713 0.0000 0.0000
# 5 0.0000 0.0000 0.0000 0.0000 33.2710 0.0000
# 6 0.0000 0.0000 0.0000 0.0000 0.0000 35.2865
#
#
#
# Elastic Compliance Matrix: (Units=1/GPa)
#
#
# Indices 1 2 3 4 5 6 
#
# 1 0.025481 -0.017359 -0.002491 0.000000 0.000000 0.000000
# 2 -0.017359 0.025482 -0.002491 0.000000 0.000000 0.000000
# 3 -0.002491 -0.002491 0.009471 0.000000 0.000000 0.000000
# 4 0.000000 0.000000 0.000000 0.030056 0.000000 0.000000
# 5 0.000000 0.000000 0.000000 0.000000 0.030056 0.000000
# 6 0.000000 0.000000 0.000000 0.000000 0.000000 0.028339
#
#
# Mechanical properties :
#
#
# Convention : Reuss Voigt Hill
#
# Bulk Modulus (GPa) = 63.47748 63.76225 63.61987
# Shear Modulus (GPa) = 25.14874 30.83850 27.99362
#
# Velocity S-wave (km/s) = 3.49353 3.86859 3.68583
# Velocity P-wave (km/s) = 6.86139 7.13432 6.99919
#
# Compressibility (1/GPa) = 0.01575362
#
# Stress axis : x y z
#
# Youngs Moduli (GPa) = 39.24490 39.24412 105.58068
#
# Poissons Ratio (x) = 0.68124 0.26295
# Poissons Ratio (y) = 0.68126 0.26296
# Poissons Ratio (z) = 0.09774 0.09774
#
# Static dielectric constant tensor:
#      x y z
#    x 1.736050 0.000000 0.000000 
#    y 0.000000 1.736050 0.000000 
#    z 0.000000 0.000000 1.738760 
# 
# From -- ./inp_files/2854.got.cif
#   From: 2010.05.17/outbox.cif.g08.bks.cpg/sg138_2_cif.got.tgz:2854.got - 2010.05.20 13:08:53.
