data_PCOD9571094
_publ_section_title
;
Structure prediction by ZEFSAII (Michael W. Deem and Ramdas Pophale) SiO2 
 PCOD9571094
Probable space group: P 42/N C M
;
_chemical_formula_sum "Si O2"
_cell_formula_units_Z 64
_cell_length_a 19.200459
_cell_length_b 19.200459
_cell_length_c 9.399312
_cell_angle_alpha 90.000000
_cell_angle_beta 90.000000
_cell_angle_gamma 90.000000
_cell_volume 3465.128046
_symmetry_space_group_name_H-M "P 42/N C M"
_symmetry_group_IT_number 138
_space_group.IT_coordinate_system_code '2'
_symmetry_cell_setting 'tetragonal'
loop_
_space_group_symop_operation_xyz
x,y,z
1/2-y,x,1/2+z
1/2-x,1/2-y,z
y,1/2-x,1/2+z
1/2+x,-y,1/2-z
-x,1/2+y,1/2-z
1/2+y,1/2+x,-z
-y,-x,-z
-x,-y,-z
1/2+y,-x,1/2-z
1/2+x,1/2+y,-z
-y,1/2+x,1/2-z
1/2-x,y,1/2+z
x,1/2-y,1/2+z
1/2-y,1/2-x,z
y,x,z
loop_
_atom_site_type_symbol
_atom_site_label
_atom_site_fract_x
_atom_site_fract_y
_atom_site_fract_z
Si Si1 0.826187 0.463179 0.307651
Si Si2 0.480464 0.019537 0.657472
Si Si3 0.449212 0.449212 0.590136
Si Si4 0.828548 0.328548 0.000000
Si Si5 0.308466 0.977402 0.027167
Si Si6 0.672804 0.327197 0.000000
O O1 0.900037 0.501684 0.315090
O O2 0.764358 0.496794 0.401490
O O3 0.900604 0.330281 0.088025
O O4 0.834356 0.387136 0.381765
O O5 0.500000 0.000000 0.500000
O O6 0.529408 0.970592 0.752593
O O7 0.500000 0.500000 0.500000
O O8 0.469483 0.370312 0.557827
O O9 0.965138 0.304409 0.857557
O O10 0.750768 0.331265 0.065186
#
# Coordination Sequence:
#
# PCOD9571094 Si02
#       6
#    16   8   8   8  16   8
#     4  11  23  39  59  89 118 161 202 259 307 375
#     4  12  24  40  66  89 124 161 211 260 313 366
#     4  12  22  42  64  89 118 165 201 260 307 366
#     4   9  18  33  50  76 116 159 194 239 282 358
#     4  11  23  39  61  86 122 156 207 250 315 367
#     4   9  20  33  50  78 118 159 200 235 296 350
#
# _framework density 18.469736999999999
#
# number of rings (size 3 to 8) (size 9 to 14) (size 15 to 20)
#    0.000    1.250    5.000    0.000    3.500    8.000 
#    0.000   10.000    0.000    0.750    0.000    3.500 
#    0.000    0.000    0.000    0.000    0.000    0.000 
#
# Total GULP energy -357010.577693 kJ/mol
# GULP energy per Si atom -5578.290276 kJ/mol
# Density = 1.842770 g / cm^3
# Si number density = 18.469737 Si / 1000 Ang^3
#
#
#
# Elastic Constant Matrix: (Units=GPa)
#
#
# Indices 1 2 3 4 5 6 
#
# 1 94.1871 84.4614 39.0019 0.0000 0.0000 0.0000
# 2 84.4614 94.1861 39.0024 0.0000 0.0000 0.0000
# 3 39.0019 39.0024 148.6152 0.0000 0.0000 0.0000
# 4 0.0000 0.0000 0.0000 23.6119 0.0000 0.0000
# 5 0.0000 0.0000 0.0000 0.0000 23.6119 0.0000
# 6 0.0000 0.0000 0.0000 0.0000 0.0000 41.2134
#
#
#
# Elastic Compliance Matrix: (Units=1/GPa)
#
#
# Indices 1 2 3 4 5 6 
#
# 1 0.054574 -0.048252 -0.001659 0.000000 0.000000 0.000000
# 2 -0.048252 0.054574 -0.001659 0.000000 0.000000 0.000000
# 3 -0.001659 -0.001659 0.007600 0.000000 0.000000 0.000000
# 4 0.000000 0.000000 0.000000 0.042352 0.000000 0.000000
# 5 0.000000 0.000000 0.000000 0.000000 0.042351 0.000000
# 6 0.000000 0.000000 0.000000 0.000000 0.000000 0.024264
#
#
# Mechanical properties :
#
#
# Convention : Reuss Voigt Hill
#
# Bulk Modulus (GPa) = 73.49076 73.54665 73.51870
# Shear Modulus (GPa) = 14.99742 29.32228 22.15985
#
# Velocity S-wave (km/s) = 2.85265 3.98877 3.46756
# Velocity P-wave (km/s) = 7.12224 7.81795 7.47819
#
# Compressibility (1/GPa) = 0.01360715
#
# Stress axis : x y z
#
# Youngs Moduli (GPa) = 18.32388 18.32361 131.58537
#
# Poissons Ratio (x) = 0.88415 0.21828
# Poissons Ratio (y) = 0.88416 0.21835
# Poissons Ratio (z) = 0.03040 0.03041
#
# Static dielectric constant tensor:
#      x y z
#    x 1.600080 0.000000 0.000000 
#    y 0.000000 1.600070 0.000000 
#    z 0.000000 0.000000 1.654560 
# 
# From -- ./inp_files/2771.got.cif
#   From: 2010.05.17/outbox.cif.g08.bks.cpg/sg138_2_cif.got.tgz:2771.got - 2010.05.20 13:08:53.
