data_PCOD9571165
_publ_section_title
;
Structure prediction by ZEFSAII (Michael W. Deem and Ramdas Pophale) SiO2 
 PCOD9571165
Probable space group: I 4/M M M
;
_chemical_formula_sum "Si O2"
_cell_formula_units_Z 176
_cell_length_a 27.191442
_cell_length_b 27.191442
_cell_length_c 15.084338
_cell_angle_alpha 90.000000
_cell_angle_beta 90.000000
_cell_angle_gamma 90.000000
_cell_volume 11152.975139
_symmetry_space_group_name_H-M "I 4/M M M"
_symmetry_group_IT_number 139
_symmetry_cell_setting 'tetragonal'
loop_
_space_group_symop_operation_xyz
x,y,z
-y,x,z
-x,-y,z
y,-x,z
x,-y,-z
-x,y,-z
y,x,-z
-y,-x,-z
-x,-y,-z
y,-x,-z
x,y,-z
-y,x,-z
-x,y,z
x,-y,z
-y,-x,z
y,x,z
1/2+x,1/2+y,1/2+z
1/2-y,1/2+x,1/2+z
1/2-x,1/2-y,1/2+z
1/2+y,1/2-x,1/2+z
1/2+x,1/2-y,1/2-z
1/2-x,1/2+y,1/2-z
1/2+y,1/2+x,1/2-z
1/2-y,1/2-x,1/2-z
1/2-x,1/2-y,1/2-z
1/2+y,1/2-x,1/2-z
1/2+x,1/2+y,1/2-z
1/2-y,1/2+x,1/2-z
1/2-x,1/2+y,1/2+z
1/2+x,1/2-y,1/2+z
1/2-y,1/2-x,1/2+z
1/2+y,1/2+x,1/2+z
loop_
_atom_site_type_symbol
_atom_site_label
_atom_site_fract_x
_atom_site_fract_y
_atom_site_fract_z
Si Si1 0.204285 0.284965 0.351884
Si Si2 0.000000 0.555459 0.105673
Si Si3 0.378567 0.907186 0.151757
Si Si4 0.865078 0.215918 0.898478
Si Si5 0.699378 0.096702 0.596017
Si Si6 0.558076 0.773864 0.290874
O O1 0.234677 0.234677 0.350875
O O2 0.197810 0.302191 0.250000
O O3 0.238964 0.325977 0.395467
O O4 0.151584 0.278961 0.394874
O O5 0.047783 0.585729 0.132761
O O6 0.000000 0.500000 0.141650
O O7 0.000000 0.552594 0.000000
O O8 0.388873 0.888873 0.250000
O O9 0.392893 0.859317 0.096276
O O10 0.322289 0.925408 0.152635
O O11 0.832372 0.167629 0.875904
O O12 0.907821 0.230321 0.829724
O O13 0.882970 0.211199 0.000000
O O14 0.712802 0.074636 0.500000
O O15 0.714761 0.068736 0.686430
O O16 0.500000 0.765726 0.302452
#
# Coordination Sequence:
#
# PCOD9571165 Si02
#       6
#    32  16  32  32  32  32
#     4  10  17  29  50  76 105 133 164 204 250 304
#     4  11  24  36  48  66  82 108 158 218 271 313
#     4  10  21  35  49  65  89 123 163 213 261 308
#     4  10  20  34  53  78 105 131 161 204 258 315
#     4  11  21  34  51  69  98 134 170 211 254 300
#     4  11  22  37  52  74 101 133 172 210 262 313
#
# _framework density 15.780543
#
# number of rings (size 3 to 8) (size 9 to 14) (size 15 to 20)
#    0.000    1.545    4.545    1.636    1.273    3.273 
#    0.000    0.000    0.000    0.000    0.000    0.000 
#    0.000    0.364    0.000    2.000    0.000    0.000 
#
# Total GULP energy -490779.361515 kJ/mol
# GULP energy per Si atom -5577.038199 kJ/mol
# Density = 1.574463 g / cm^3
# Si number density = 15.780543 Si / 1000 Ang^3
#
#
#
# Elastic Constant Matrix: (Units=GPa)
#
#
# Indices 1 2 3 4 5 6 
#
# 1 70.1800 44.6169 26.4835 0.0000 0.0000 0.0000
# 2 44.6169 70.1801 26.4833 0.0000 0.0000 0.0000
# 3 26.4835 26.4833 79.5335 0.0000 0.0000 0.0000
# 4 0.0000 0.0000 0.0000 40.7302 0.0000 0.0000
# 5 0.0000 0.0000 0.0000 0.0000 40.7188 0.0000
# 6 0.0000 0.0000 0.0000 0.0000 0.0000 22.0714
#
#
#
# Elastic Compliance Matrix: (Units=1/GPa)
#
#
# Indices 1 2 3 4 5 6 
#
# 1 0.024706 -0.014413 -0.003427 0.000000 0.000000 0.000000
# 2 -0.014413 0.024706 -0.003427 0.000000 0.000000 0.000000
# 3 -0.003427 -0.003427 0.014856 0.000000 0.000000 0.000000
# 4 0.000000 0.000000 0.000000 0.024552 0.000000 0.000000
# 5 0.000000 0.000000 0.000000 0.000000 0.024559 0.000000
# 6 0.000000 0.000000 0.000000 0.000000 0.000000 0.045308
#
#
# Mechanical properties :
#
#
# Convention : Reuss Voigt Hill
#
# Bulk Modulus (GPa) = 46.01588 46.11790 46.06689
# Shear Modulus (GPa) = 23.98493 28.85805 26.42149
#
# Velocity S-wave (km/s) = 3.90283 4.28098 4.09627
# Velocity P-wave (km/s) = 7.03794 7.32965 7.18527
#
# Compressibility (1/GPa) = 0.02173163
#
# Stress axis : x y z
#
# Youngs Moduli (GPa) = 40.47657 40.47670 67.31421
#
# Poissons Ratio (x) = 0.58340 0.23070
# Poissons Ratio (y) = 0.58340 0.23069
# Poissons Ratio (z) = 0.13872 0.13872
#
# Static dielectric constant tensor:
#      x y z
#    x 1.514290 0.000000 0.000000 
#    y 0.000000 1.514290 0.000000 
#    z 0.000000 0.000000 1.593430 
# 
# From -- ./inp_files/6417.got.cif
#   From: 2010.05.17/outbox.cif.g08.bks.cpg/sg139_4_cif.got.tgz:6417.got - 2010.05.20 13:14:44.
