data_PCOD9571921
_publ_section_title
;
Structure prediction by ZEFSAII (Michael W. Deem and Ramdas Pophale) SiO2 
 PCOD9571921
Probable space group: I 4/M M M
;
_chemical_formula_sum "Si O2"
_cell_formula_units_Z 96
_cell_length_a 17.492062
_cell_length_b 17.492062
_cell_length_c 17.730345
_cell_angle_alpha 90.000000
_cell_angle_beta 90.000000
_cell_angle_gamma 90.000000
_cell_volume 5424.993252
_symmetry_space_group_name_H-M "I 4/M M M"
_symmetry_group_IT_number 139
_symmetry_cell_setting 'tetragonal'
loop_
_space_group_symop_operation_xyz
x,y,z
-y,x,z
-x,-y,z
y,-x,z
x,-y,-z
-x,y,-z
y,x,-z
-y,-x,-z
-x,-y,-z
y,-x,-z
x,y,-z
-y,x,-z
-x,y,z
x,-y,z
-y,-x,z
y,x,z
1/2+x,1/2+y,1/2+z
1/2-y,1/2+x,1/2+z
1/2-x,1/2-y,1/2+z
1/2+y,1/2-x,1/2+z
1/2+x,1/2-y,1/2-z
1/2-x,1/2+y,1/2-z
1/2+y,1/2+x,1/2-z
1/2-y,1/2-x,1/2-z
1/2-x,1/2-y,1/2-z
1/2+y,1/2-x,1/2-z
1/2+x,1/2+y,1/2-z
1/2-y,1/2+x,1/2-z
1/2-x,1/2+y,1/2+z
1/2+x,1/2-y,1/2+z
1/2-y,1/2-x,1/2+z
1/2+y,1/2+x,1/2+z
loop_
_atom_site_type_symbol
_atom_site_label
_atom_site_fract_x
_atom_site_fract_y
_atom_site_fract_z
Si Si1 0.860897 0.860897 0.585154
Si Si2 0.679299 0.851169 0.588464
Si Si3 0.793985 0.206016 0.183214
Si Si4 0.911791 0.500000 0.092047
Si Si5 0.588013 0.411988 0.244028
O O1 0.883418 0.883418 0.500000
O O2 0.769353 0.871999 0.593068
O O3 0.901805 0.901805 0.653885
O O4 0.662503 0.838443 0.500000
O O5 0.667703 0.772977 0.633587
O O6 0.630658 0.922896 0.616916
O O7 0.750000 0.250000 0.250000
O O8 0.853843 0.146158 0.216318
O O9 0.000000 0.500000 0.114187
O O10 0.907771 0.500000 0.000000
O O11 0.604768 0.500000 0.263703
#
# Coordination Sequence:
#
# PCOD9571921 Si02
#       5
#    16  32  16  16  16
#     4   9  18  33  57  83 106 141 183 229 275 332
#     4   9  18  33  57  86 113 142 181 224 275 333
#     4  11  20  36  57  81 108 149 193 230 273 333
#     4   9  18  32  54  86 119 145 172 218 278 335
#     4  11  25  40  54  78 114 154 190 233 285 333
#
# _framework density 17.695875000000001
#
# number of rings (size 3 to 8) (size 9 to 14) (size 15 to 20)
#    0.000    2.333    3.333    1.500    2.333    2.000 
#    0.000    0.833    0.000    3.000    0.000    4.667 
#    0.000    0.000    0.000    0.000    0.000    0.000 
#
# Total GULP energy -267763.203696 kJ/mol
# GULP energy per Si atom -5578.400077 kJ/mol
# Density = 1.765560 g / cm^3
# Si number density = 17.695875 Si / 1000 Ang^3
#
#
#
# Elastic Constant Matrix: (Units=GPa)
#
#
# Indices 1 2 3 4 5 6 
#
# 1 117.3932 104.3787 45.5228 0.0000 0.0000 0.0000
# 2 104.3787 117.3932 45.5228 0.0000 0.0000 0.0000
# 3 45.5228 45.5228 62.1432 0.0000 0.0000 0.0000
# 4 0.0000 0.0000 0.0000 20.1208 0.0000 0.0000
# 5 0.0000 0.0000 0.0000 0.0000 20.1208 0.0000
# 6 0.0000 0.0000 0.0000 0.0000 0.0000 38.4036
#
#
#
# Elastic Compliance Matrix: (Units=1/GPa)
#
#
# Indices 1 2 3 4 5 6 
#
# 1 0.041643 -0.035195 -0.004724 0.000000 0.000000 0.000000
# 2 -0.035195 0.041643 -0.004724 0.000000 0.000000 0.000000
# 3 -0.004724 -0.004724 0.023013 0.000000 0.000000 0.000000
# 4 0.000000 0.000000 0.000000 0.049700 0.000000 0.000000
# 5 0.000000 0.000000 0.000000 0.000000 0.049700 0.000000
# 6 0.000000 0.000000 0.000000 0.000000 0.000000 0.026039
#
#
# Mechanical properties :
#
#
# Convention : Reuss Voigt Hill
#
# Bulk Modulus (GPa) = 58.77379 76.41980 67.59679
# Shear Modulus (GPa) = 15.30487 22.49605 18.90046
#
# Velocity S-wave (km/s) = 2.94408 3.56934 3.27168
# Velocity P-wave (km/s) = 6.69643 7.76310 7.24941
#
# Compressibility (1/GPa) = 0.01701439
#
# Stress axis : x y z
#
# Youngs Moduli (GPa) = 24.01363 24.01363 43.45446
#
# Poissons Ratio (x) = 0.84515 0.20527
# Poissons Ratio (y) = 0.84515 0.20527
# Poissons Ratio (z) = 0.11343 0.11343
#
# Static dielectric constant tensor:
#      x y z
#    x 1.593050 0.000000 0.000000 
#    y 0.000000 1.593050 0.000000 
#    z 0.000000 0.000000 1.622250 
# 
# From -- ./inp_files/7368.got.cif
#   From: 2010.05.17/outbox.cif.g08.bks.cpg/sg139_4_cif.got.tgz:7368.got - 2010.05.20 13:14:44.
