data_PCOD9571456
_publ_section_title
;
Structure prediction by ZEFSAII (Michael W. Deem and Ramdas Pophale) SiO2 
 PCOD9571456
Probable space group: I 4/M M M
;
_chemical_formula_sum "Si O2"
_cell_formula_units_Z 112
_cell_length_a 17.382541
_cell_length_b 17.382541
_cell_length_c 20.867901
_cell_angle_alpha 90.000000
_cell_angle_beta 90.000000
_cell_angle_gamma 90.000000
_cell_volume 6305.293290
_symmetry_space_group_name_H-M "I 4/M M M"
_symmetry_group_IT_number 139
_symmetry_cell_setting 'tetragonal'
loop_
_space_group_symop_operation_xyz
x,y,z
-y,x,z
-x,-y,z
y,-x,z
x,-y,-z
-x,y,-z
y,x,-z
-y,-x,-z
-x,-y,-z
y,-x,-z
x,y,-z
-y,x,-z
-x,y,z
x,-y,z
-y,-x,z
y,x,z
1/2+x,1/2+y,1/2+z
1/2-y,1/2+x,1/2+z
1/2-x,1/2-y,1/2+z
1/2+y,1/2-x,1/2+z
1/2+x,1/2-y,1/2-z
1/2-x,1/2+y,1/2-z
1/2+y,1/2+x,1/2-z
1/2-y,1/2-x,1/2-z
1/2-x,1/2-y,1/2-z
1/2+y,1/2-x,1/2-z
1/2+x,1/2+y,1/2-z
1/2-y,1/2+x,1/2-z
1/2-x,1/2+y,1/2+z
1/2+x,1/2-y,1/2+z
1/2-y,1/2-x,1/2+z
1/2+y,1/2+x,1/2+z
loop_
_atom_site_type_symbol
_atom_site_label
_atom_site_fract_x
_atom_site_fract_y
_atom_site_fract_z
Si Si1 0.807655 0.192346 0.785902
Si Si2 0.830904 0.408895 0.312804
Si Si3 0.411273 0.588728 0.195386
Si Si4 0.343525 0.343525 0.074813
Si Si5 0.174958 0.408983 0.925625
O O1 0.750000 0.250000 0.750000
O O2 0.751793 0.132725 0.821633
O O3 0.855912 0.144089 0.734600
O O4 0.823057 0.500000 0.304209
O O5 0.871880 0.371880 0.250000
O O6 0.881193 0.387419 0.374781
O O7 0.394858 0.500000 0.210184
O O8 0.394950 0.605051 0.121048
O O9 0.364035 0.254645 0.087640
O O10 0.358471 0.358471 0.000000
O O11 0.189726 0.500000 0.918095
O O12 0.153559 0.395357 0.000000
#
# Coordination Sequence:
#
# PCOD9571456 Si02
#       5
#    16  32  16  16  32
#     4  10  21  37  55  75 100 134 175 219 261 309
#     4  11  22  36  57  81 106 139 180 224 267 318
#     4  11  22  34  51  77 110 142 172 216 273 323
#     4  10  19  33  53  75 104 144 188 223 253 307
#     4  10  21  36  54  78 110 145 178 218 269 320
#
# _framework density 17.762854000000001
#
# number of rings (size 3 to 8) (size 9 to 14) (size 15 to 20)
#    0.000    1.571    0.000    6.857    0.000    4.286 
#    0.000    2.143    0.000    0.000    0.000    0.000 
#    0.000    0.000    0.000   13.714    0.000    0.000 
#
# Total GULP energy -312723.805409 kJ/mol
# GULP energy per Si atom -5584.353668 kJ/mol
# Density = 1.772242 g / cm^3
# Si number density = 17.762854 Si / 1000 Ang^3
#
#
#
# Elastic Constant Matrix: (Units=GPa)
#
#
# Indices 1 2 3 4 5 6 
#
# 1 75.6936 75.1709 34.9891 0.0000 0.0000 0.0000
# 2 75.1709 75.6936 34.9891 0.0000 0.0000 0.0000
# 3 34.9891 34.9891 59.0329 0.0000 0.0000 0.0000
# 4 0.0000 0.0000 0.0000 25.5123 0.0000 0.0000
# 5 0.0000 0.0000 0.0000 0.0000 25.5123 0.0000
# 6 0.0000 0.0000 0.0000 0.0000 0.0000 24.7490
#
#
#
# Elastic Compliance Matrix: (Units=1/GPa)
#
#
# Indices 1 2 3 4 5 6 
#
# 1 0.961070 -0.951928 -0.005418 0.000000 0.000000 0.000000
# 2 -0.951928 0.961070 -0.005418 0.000000 0.000000 0.000000
# 3 -0.005418 -0.005418 0.023363 0.000000 0.000000 0.000000
# 4 0.000000 0.000000 0.000000 0.039197 0.000000 0.000000
# 5 0.000000 0.000000 0.000000 0.000000 0.039197 0.000000
# 6 0.000000 0.000000 0.000000 0.000000 0.000000 0.040406
#
#
# Mechanical properties :
#
#
# Convention : Reuss Voigt Hill
#
# Bulk Modulus (GPa) = 50.06826 55.63539 52.85182
# Shear Modulus (GPa) = 1.25110 19.50613 10.37862
#
# Velocity S-wave (km/s) = 0.84016 3.31742 2.41983
# Velocity P-wave (km/s) = 5.40272 6.78696 6.13401
#
# Compressibility (1/GPa) = 0.01997273
#
# Stress axis : x y z
#
# Youngs Moduli (GPa) = 1.04051 1.04051 42.80330
#
# Poissons Ratio (x) = 0.99049 0.23192
# Poissons Ratio (y) = 0.99049 0.23193
# Poissons Ratio (z) = 0.00564 0.00564
#
# Static dielectric constant tensor:
#      x y z
#    x 1.604890 0.000000 0.000000 
#    y 0.000000 1.604890 0.000000 
#    z 0.000000 0.000000 1.603580 
# 
# From -- ./inp_files/7597.got.cif
#   From: 2010.05.17/outbox.cif.g08.bks.cpg/sg139_4_cif.got.tgz:7597.got - 2010.05.20 13:14:44.
