data_PCOD9571015
_publ_section_title
;
Structure prediction by ZEFSAII (Michael W. Deem and Ramdas Pophale) SiO2 
 PCOD9571015
Probable space group: P 42/N C M
;
_chemical_formula_sum "Si O2"
_cell_formula_units_Z 64
_cell_length_a 10.069312
_cell_length_b 10.069312
_cell_length_c 26.205225
_cell_angle_alpha 90.000000
_cell_angle_beta 90.000000
_cell_angle_gamma 90.000000
_cell_volume 2656.975125
_symmetry_space_group_name_H-M "P 42/N C M"
_symmetry_group_IT_number 138
_space_group.IT_coordinate_system_code '2'
_symmetry_cell_setting 'tetragonal'
loop_
_space_group_symop_operation_xyz
x,y,z
1/2-y,x,1/2+z
1/2-x,1/2-y,z
y,1/2-x,1/2+z
1/2+x,-y,1/2-z
-x,1/2+y,1/2-z
1/2+y,1/2+x,-z
-y,-x,-z
-x,-y,-z
1/2+y,-x,1/2-z
1/2+x,1/2+y,-z
-y,1/2+x,1/2-z
1/2-x,y,1/2+z
x,1/2-y,1/2+z
1/2-y,1/2-x,z
y,x,z
loop_
_atom_site_type_symbol
_atom_site_label
_atom_site_fract_x
_atom_site_fract_y
_atom_site_fract_z
Si Si1 0.965992 0.253142 0.990671
Si Si2 0.667246 0.056360 0.117936
Si Si3 0.758256 0.954514 0.899246
Si Si4 0.663499 0.438579 0.732372
O O1 0.058217 0.244440 0.039306
O O2 0.892074 0.392074 0.000000
O O3 0.863072 0.136929 0.000000
O O4 0.993151 0.248374 0.930505
O O5 0.602574 0.203953 0.110879
O O6 0.720020 0.045050 0.174835
O O7 0.541667 0.958334 0.116173
O O8 0.650622 0.849379 0.878256
O O9 0.902219 0.902219 0.881631
O O10 0.797586 0.417128 0.765529
O O11 0.561217 0.561217 0.743182
#
# Coordination Sequence:
#
# PCOD9571015 Si02
#       4
#    16  16  16  16
#     4   9  17  28  46  72 102 135 173 215 269 338
#     4   9  18  35  55  74 105 152 195 238 304 378
#     4   9  17  29  47  73 103 136 177 222 270 338
#     4  10  23  42  65  92 124 165 216 274 334 391
#
# _framework density 24.087540000000001
#
# number of rings (size 3 to 8) (size 9 to 14) (size 15 to 20)
#    0.000    2.750    0.000    0.750    0.000   13.000 
#    0.000    3.750    0.000    1.500    0.000    0.000 
#    0.000    0.000    0.000    0.000    0.000    0.000 
#
# Total GULP energy -356335.810905 kJ/mol
# GULP energy per Si atom -5567.747045 kJ/mol
# Density = 2.403272 g / cm^3
# Si number density = 24.087540 Si / 1000 Ang^3
#
#
#
# Elastic Constant Matrix: (Units=GPa)
#
#
# Indices 1 2 3 4 5 6 
#
# 1 37.9535 20.7630 -9.6038 0.0000 0.0000 0.0000
# 2 20.7630 37.9540 -9.6031 0.0000 0.0000 0.0000
# 3 -9.6038 -9.6031 109.1402 0.0000 0.0000 0.0000
# 4 0.0000 0.0000 0.0000 -36.5036 0.0000 0.0000
# 5 0.0000 0.0000 0.0000 0.0000 -36.4996 0.0000
# 6 0.0000 0.0000 0.0000 0.0000 0.0000 31.6551
#
#
#
# Elastic Compliance Matrix: (Units=1/GPa)
#
#
# Indices 1 2 3 4 5 6 
#
# 1 0.037853 -0.020318 0.001543 0.000000 0.000000 0.000000
# 2 -0.020318 0.037853 0.001543 0.000000 0.000000 0.000000
# 3 0.001543 0.001543 0.009434 0.000000 0.000000 0.000000
# 4 0.000000 0.000000 0.000000 -0.027395 0.000000 0.000000
# 5 0.000000 0.000000 0.000000 0.000000 -0.027398 0.000000
# 6 0.000000 0.000000 0.000000 0.000000 0.000000 0.031590
#
#
# Mechanical properties :
#
#
# Convention : Reuss Voigt Hill
#
# Bulk Modulus (GPa) = 19.73270 20.90667 20.31969
# Shear Modulus (GPa) = 44.13281 3.96316 24.04799
#
# Velocity S-wave (km/s) = 4.28505 1.28409 3.16311
# Velocity P-wave (km/s) = 5.71769 3.30103 4.66845
#
# Compressibility (1/GPa) = 0.05067730
#
# Stress axis : x y z
#
# Youngs Moduli (GPa) = 26.41764 26.41806 105.99883
#
# Poissons Ratio (x) = 0.53675 -0.16358
# Poissons Ratio (y) = 0.53674 -0.16353
# Poissons Ratio (z) = -0.04077 -0.04076
#
# Static dielectric constant tensor:
#      x y z
#    x 1.962380 0.000000 0.000000 
#    y 0.000000 1.962370 0.000000 
#    z 0.000000 0.000000 1.987270 
# 
# From -- ./inp_files/7315.got.cif
#   From: 2010.05.17/outbox.cif.g08.bks.cpg/sg138_4_cif.got.tgz:7315.got - 2010.05.20 13:08:53.
