data_PCOD9571129
_publ_section_title
;
Structure prediction by ZEFSAII (Michael W. Deem and Ramdas Pophale) SiO2 
 PCOD9571129
Probable space group: P 42/N C M
;
_chemical_formula_sum "Si O2"
_cell_formula_units_Z 112
_cell_length_a 22.608549
_cell_length_b 22.608549
_cell_length_c 13.101774
_cell_angle_alpha 90.000000
_cell_angle_beta 90.000000
_cell_angle_gamma 90.000000
_cell_volume 6696.925765
_symmetry_space_group_name_H-M "P 42/N C M"
_symmetry_group_IT_number 138
_space_group.IT_coordinate_system_code '2'
_symmetry_cell_setting 'tetragonal'
loop_
_space_group_symop_operation_xyz
x,y,z
1/2-y,x,1/2+z
1/2-x,1/2-y,z
y,1/2-x,1/2+z
1/2+x,-y,1/2-z
-x,1/2+y,1/2-z
1/2+y,1/2+x,-z
-y,-x,-z
-x,-y,-z
1/2+y,-x,1/2-z
1/2+x,1/2+y,-z
-y,1/2+x,1/2-z
1/2-x,y,1/2+z
x,1/2-y,1/2+z
1/2-y,1/2-x,z
y,x,z
loop_
_atom_site_type_symbol
_atom_site_label
_atom_site_fract_x
_atom_site_fract_y
_atom_site_fract_z
Si Si1 0.013225 0.588648 0.704429
Si Si2 0.066116 0.165460 0.412556
Si Si3 0.873669 0.781631 0.059247
Si Si4 0.561749 0.836073 0.852351
Si Si5 0.891653 0.506274 0.270032
Si Si6 0.526541 0.625735 0.997574
Si Si7 0.254364 0.155688 0.672500
O O1 0.070801 0.553661 0.740666
O O2 0.960623 0.539378 0.701592
O O3 0.989844 0.638780 0.781090
O O4 0.018998 0.612680 0.588753
O O5 0.109503 0.109503 0.417756
O O6 0.105601 0.222582 0.386547
O O7 0.043550 0.173930 0.529342
O O8 0.019271 0.151614 0.324173
O O9 0.818481 0.818481 0.793025
O O10 0.929565 0.823392 0.037068
O O11 0.849325 0.760789 0.950134
O O12 0.613453 0.886547 0.853354
O O13 0.593276 0.777836 0.806265
O O14 0.939809 0.560192 0.269881
O O15 0.862325 0.505896 0.382485
O O16 0.566808 0.566808 0.989284
O O17 0.293270 0.206731 0.192832
O O18 0.176971 0.176971 0.893377
#
# Coordination Sequence:
#
# PCOD9571129 Si02
#       7
#    16  16  16  16  16  16  16
#     4   9  16  27  44  63  82 106 139 189 243 281
#     4   9  17  29  43  63  88 114 148 190 236 284
#     4   9  16  27  42  59  81 114 153 195 228 259
#     4   8  14  24  39  61  84 105 137 183 230 282
#     4   9  17  29  45  62  82 107 140 190 242 284
#     4   9  17  29  43  60  79 105 146 188 225 269
#     4   8  13  23  40  58  80 114 152 191 231 266
#
# _framework density 16.724091999999999
#
# number of rings (size 3 to 8) (size 9 to 14) (size 15 to 20)
#    0.000    3.286    0.000    1.714    0.000    3.143 
#    5.143    2.857    0.000    0.857    0.000   10.000 
#    0.000    0.000    0.000    0.000    0.000    0.714 
#
# Total GULP energy -623753.481717 kJ/mol
# GULP energy per Si atom -5569.227515 kJ/mol
# Density = 1.668603 g / cm^3
# Si number density = 16.724092 Si / 1000 Ang^3
#
#
#
# Elastic Constant Matrix: (Units=GPa)
#
#
# Indices 1 2 3 4 5 6 
#
# 1 22.9035 23.1437 26.0178 0.0000 0.0000 0.0000
# 2 23.1437 22.9035 26.0178 0.0000 0.0000 0.0000
# 3 26.0178 26.0178 96.7304 0.0000 0.0000 0.0000
# 4 0.0000 0.0000 0.0000 65.7448 0.0000 0.0000
# 5 0.0000 0.0000 0.0000 0.0000 65.7448 0.0000
# 6 0.0000 0.0000 0.0000 0.0000 0.0000 15.1860
#
#
#
# Elastic Compliance Matrix: (Units=1/GPa)
#
#
# Indices 1 2 3 4 5 6 
#
# 1 -2.065376 2.096576 -0.008392 0.000000 0.000000 0.000000
# 2 2.096576 -2.065376 -0.008392 0.000000 0.000000 0.000000
# 3 -0.008392 -0.008392 0.014852 0.000000 0.000000 0.000000
# 4 0.000000 0.000000 0.000000 0.015210 0.000000 0.000000
# 5 0.000000 0.000000 0.000000 0.000000 0.015210 0.000000
# 6 0.000000 0.000000 0.000000 0.000000 0.000000 0.065850
#
#
# Mechanical properties :
#
#
# Convention : Reuss Voigt Hill
#
# Bulk Modulus (GPa) = 22.89121 32.54402 27.71761
# Shear Modulus (GPa) = -0.61240 33.82565 16.60663
#
# Velocity S-wave (km/s) = -0.60578 4.50218 3.15457
# Velocity P-wave (km/s) = 3.63703 6.82113 5.46607
#
# Compressibility (1/GPa) = 0.04368489
#
# Stress axis : x y z
#
# Youngs Moduli (GPa) = -0.48417 -0.48417 67.32892
#
# Poissons Ratio (x) = 1.01511 0.56503
# Poissons Ratio (y) = 1.01511 0.56503
# Poissons Ratio (z) = -0.00406 -0.00406
#
# Static dielectric constant tensor:
#      x y z
#    x 1.561480 0.000000 0.000000 
#    y 0.000000 1.561480 0.000000 
#    z 0.000000 0.000000 1.658590 
# 
# From -- ./inp_files/3291.got.cif
#   From: 2010.05.17/outbox.cif.g08.bks.cpg/sg138_2_cif.got.tgz:3291.got - 2010.05.20 13:08:53.
