data_PCOD9571527
_publ_section_title
;
Structure prediction by ZEFSAII (Michael W. Deem and Ramdas Pophale) SiO2 
 PCOD9571527
Probable space group: I 4/M M M
;
_chemical_formula_sum "Si O2"
_cell_formula_units_Z 192
_cell_length_a 18.158731
_cell_length_b 18.158731
_cell_length_c 29.919606
_cell_angle_alpha 90.000000
_cell_angle_beta 90.000000
_cell_angle_gamma 90.000000
_cell_volume 9865.676268
_symmetry_space_group_name_H-M "I 4/M M M"
_symmetry_group_IT_number 139
_symmetry_cell_setting 'tetragonal'
loop_
_space_group_symop_operation_xyz
x,y,z
-y,x,z
-x,-y,z
y,-x,z
x,-y,-z
-x,y,-z
y,x,-z
-y,-x,-z
-x,-y,-z
y,-x,-z
x,y,-z
-y,x,-z
-x,y,z
x,-y,z
-y,-x,z
y,x,z
1/2+x,1/2+y,1/2+z
1/2-y,1/2+x,1/2+z
1/2-x,1/2-y,1/2+z
1/2+y,1/2-x,1/2+z
1/2+x,1/2-y,1/2-z
1/2-x,1/2+y,1/2-z
1/2+y,1/2+x,1/2-z
1/2-y,1/2-x,1/2-z
1/2-x,1/2-y,1/2-z
1/2+y,1/2-x,1/2-z
1/2+x,1/2+y,1/2-z
1/2-y,1/2+x,1/2-z
1/2-x,1/2+y,1/2+z
1/2+x,1/2-y,1/2+z
1/2-y,1/2-x,1/2+z
1/2+y,1/2+x,1/2+z
loop_
_atom_site_type_symbol
_atom_site_label
_atom_site_fract_x
_atom_site_fract_y
_atom_site_fract_z
Si Si1 0.662921 0.840048 0.949047
Si Si2 0.915058 0.800247 0.205387
Si Si3 0.118563 0.000000 0.445325
Si Si4 0.293716 0.585673 0.187390
Si Si5 0.581889 0.000000 0.143371
Si Si6 0.715396 0.000000 0.553064
Si Si7 0.846235 0.328129 0.149575
Si Si8 0.624613 0.000000 0.953341
O O1 0.576261 0.825444 0.938073
O O2 0.697438 0.823128 0.900808
O O3 0.672960 0.927145 0.952724
O O4 0.677617 0.809266 0.000000
O O5 0.880508 0.880508 0.197164
O O6 0.911860 0.787075 0.258663
O O7 0.864162 0.741274 0.180482
O O8 0.000000 0.793912 0.190961
O O9 0.071787 0.928214 0.432097
O O10 0.119581 0.000000 0.500000
O O11 0.201733 0.000000 0.428563
O O12 0.302140 0.500000 0.174891
O O13 0.363719 0.636282 0.174772
O O14 0.220334 0.621743 0.167176
O O15 0.625737 0.923693 0.152064
O O16 0.500000 0.000000 0.163718
O O17 0.576006 0.000000 0.089925
O O18 0.723760 0.000000 0.500000
O O19 0.582399 0.000000 0.000000
#
# Coordination Sequence:
#
# PCOD9571527 Si02
#       8
#    32  32  16  32  16  16  32  16
#     4   9  19  31  49  77 110 148 189 234 282 334
#     4  10  21  40  64  92 120 149 189 237 295 361
#     4   8  14  27  47  64  79 112 168 233 295 339
#     4  10  22  39  64  91 119 156 198 244 295 354
#     4  10  20  29  46  77 114 154 190 235 282 341
#     4   9  17  29  45  70 100 133 180 239 285 326
#     4  11  20  35  58  85 121 158 195 240 294 351
#     4   8  16  27  42  68 101 137 180 226 275 327
#
# _framework density 19.461413
#
# number of rings (size 3 to 8) (size 9 to 14) (size 15 to 20)
#    0.000    2.417    0.833    1.750    5.833    1.833 
#    0.000    3.333    0.000    4.000    0.000    0.000 
#    0.000    0.000    0.000    1.500    0.000    0.167 
#
# Total GULP energy -534495.392594 kJ/mol
# GULP energy per Si atom -5567.660340 kJ/mol
# Density = 1.941712 g / cm^3
# Si number density = 19.461413 Si / 1000 Ang^3
#
#
#
# Elastic Constant Matrix: (Units=GPa)
#
#
# Indices 1 2 3 4 5 6 
#
# 1 96.7800 74.5874 37.2788 0.0000 0.0000 0.0000
# 2 74.5874 96.7800 37.2788 0.0000 0.0000 0.0000
# 3 37.2788 37.2788 71.7502 0.0000 0.0000 0.0000
# 4 0.0000 0.0000 0.0000 2.1834 0.0000 0.0000
# 5 0.0000 0.0000 0.0000 0.0000 2.1834 0.0000
# 6 0.0000 0.0000 0.0000 0.0000 0.0000 -107.7788
#
#
#
# Elastic Compliance Matrix: (Units=1/GPa)
#
#
# Indices 1 2 3 4 5 6 
#
# 1 0.026300 -0.018760 -0.003917 0.000000 0.000000 0.000000
# 2 -0.018760 0.026300 -0.003917 0.000000 0.000000 0.000000
# 3 -0.003917 -0.003917 0.018008 0.000000 0.000000 0.000000
# 4 0.000000 0.000000 0.000000 0.457994 0.000000 0.000000
# 5 0.000000 0.000000 0.000000 0.000000 0.457994 0.000000
# 6 0.000000 0.000000 0.000000 0.000000 0.000000 -0.009278
#
#
# Mechanical properties :
#
#
# Convention : Reuss Voigt Hill
#
# Bulk Modulus (GPa) = 57.41221 62.62223 60.01722
# Shear Modulus (GPa) = 4.82480 -12.93803 -4.05662
#
# Velocity S-wave (km/s) = 1.57624 -2.58118 -1.44533
# Velocity P-wave (km/s) = 5.73387 4.83365 5.30290
#
# Compressibility (1/GPa) = 0.01741790
#
# Stress axis : x y z
#
# Youngs Moduli (GPa) = 38.02289 38.02289 55.53116
#
# Poissons Ratio (x) = 0.71332 0.21754
# Poissons Ratio (y) = 0.71332 0.21754
# Poissons Ratio (z) = 0.14895 0.14895
#
# Static dielectric constant tensor:
#      x y z
#    x 1.694900 0.000000 0.000000 
#    y 0.000000 1.694900 0.000000 
#    z 0.000000 0.000000 1.734410 
# 
# From -- ./inp_files/14408.got.cif
#   From: 2010.05.17/outbox.cif.g08.bks.cpg/sg139_8_cif.got.tgz:14408.got - 2010.05.20 13:14:44.
