data_PCOD9571480
_publ_section_title
;
Structure prediction by ZEFSAII (Michael W. Deem and Ramdas Pophale) SiO2 
 PCOD9571480
Probable space group: I 4/M M M
;
_chemical_formula_sum "Si O2"
_cell_formula_units_Z 112
_cell_length_a 26.486686
_cell_length_b 26.486686
_cell_length_c 7.447474
_cell_angle_alpha 90.000000
_cell_angle_beta 90.000000
_cell_angle_gamma 90.000000
_cell_volume 5224.734686
_symmetry_space_group_name_H-M "I 4/M M M"
_symmetry_group_IT_number 139
_symmetry_cell_setting 'tetragonal'
loop_
_space_group_symop_operation_xyz
x,y,z
-y,x,z
-x,-y,z
y,-x,z
x,-y,-z
-x,y,-z
y,x,-z
-y,-x,-z
-x,-y,-z
y,-x,-z
x,y,-z
-y,x,-z
-x,y,z
x,-y,z
-y,-x,z
y,x,z
1/2+x,1/2+y,1/2+z
1/2-y,1/2+x,1/2+z
1/2-x,1/2-y,1/2+z
1/2+y,1/2-x,1/2+z
1/2+x,1/2-y,1/2-z
1/2-x,1/2+y,1/2-z
1/2+y,1/2+x,1/2-z
1/2-y,1/2-x,1/2-z
1/2-x,1/2-y,1/2-z
1/2+y,1/2-x,1/2-z
1/2+x,1/2+y,1/2-z
1/2-y,1/2+x,1/2-z
1/2-x,1/2+y,1/2+z
1/2+x,1/2-y,1/2+z
1/2-y,1/2-x,1/2+z
1/2+y,1/2+x,1/2+z
loop_
_atom_site_type_symbol
_atom_site_label
_atom_site_fract_x
_atom_site_fract_y
_atom_site_fract_z
Si Si1 0.000000 0.303121 0.704040
Si Si2 0.904224 0.242611 0.283395
Si Si3 0.000000 0.583052 0.791228
Si Si4 0.292076 0.292076 0.214523
Si Si5 0.133935 0.945280 0.282081
O O1 0.054701 0.284610 0.780152
O O2 0.000000 0.282081 0.500000
O O3 0.000000 0.363291 0.697704
O O4 0.898670 0.249720 0.500000
O O5 0.846548 0.230273 0.219249
O O6 0.933884 0.191369 0.240990
O O7 0.048416 0.548416 0.750000
O O8 0.000000 0.594489 0.000000
O O9 0.250000 0.250000 0.250000
O O10 0.299338 0.299338 0.000000
O O11 0.131057 0.945022 0.500000
O O12 0.098619 0.901381 0.213921
O O13 0.117914 0.000000 0.218864
#
# Coordination Sequence:
#
# PCOD9571480 Si02
#       5
#    16  32  16  16  32
#     4  10  19  33  56  86 112 142 186 233 276 327
#     4   9  16  28  48  71  99 137 181 221 263 316
#     4  11  23  42  65  88 114 143 171 210 266 331
#     4  10  20  34  50  72 101 139 181 223 264 314
#     4   9  14  21  36  61  95 134 175 218 263 312
#
# _framework density 21.436496000000002
#
# number of rings (size 3 to 8) (size 9 to 14) (size 15 to 20)
#    0.000    2.429    2.857    1.714    0.000    1.429 
#    0.000    5.714    0.000    0.000    0.000    0.000 
#    0.000    0.000    0.000    0.000    0.000    2.857 
#
# Total GULP energy -311858.095372 kJ/mol
# GULP energy per Si atom -5568.894560 kJ/mol
# Density = 2.138771 g / cm^3
# Si number density = 21.436496 Si / 1000 Ang^3
#
#
#
# Elastic Constant Matrix: (Units=GPa)
#
#
# Indices 1 2 3 4 5 6 
#
# 1 152.2635 79.8256 -3.9176 0.0000 0.0000 0.0000
# 2 79.8256 152.2635 -3.9176 0.0000 0.0000 0.0000
# 3 -3.9176 -3.9176 66.9097 0.0000 0.0000 0.0000
# 4 0.0000 0.0000 0.0000 -14.4383 0.0000 0.0000
# 5 0.0000 0.0000 0.0000 0.0000 -14.4383 0.0000
# 6 0.0000 0.0000 0.0000 0.0000 0.0000 20.0980
#
#
#
# Elastic Compliance Matrix: (Units=1/GPa)
#
#
# Indices 1 2 3 4 5 6 
#
# 1 0.009061 -0.004744 0.000253 0.000000 0.000000 0.000000
# 2 -0.004744 0.009061 0.000253 0.000000 0.000000 0.000000
# 3 0.000253 0.000253 0.014975 0.000000 0.000000 0.000000
# 4 0.000000 0.000000 0.000000 -0.069260 0.000000 0.000000
# 5 0.000000 0.000000 0.000000 0.000000 -0.069260 0.000000
# 6 0.000000 0.000000 0.000000 0.000000 0.000000 0.049756
#
#
# Mechanical properties :
#
#
# Convention : Reuss Voigt Hill
#
# Bulk Modulus (GPa) = 40.61627 57.26858 48.94243
# Shear Modulus (GPa) = -128.25891 18.20737 -55.02577
#
# Velocity S-wave (km/s) = -7.74351 2.91755 -5.07197
# Velocity P-wave (km/s) = 7.80774 6.17437 3.37920
#
# Compressibility (1/GPa) = 0.02462068
#
# Stress axis : x y z
#
# Youngs Moduli (GPa) = 110.36218 110.36218 66.77746
#
# Poissons Ratio (x) = 0.52354 -0.01688
# Poissons Ratio (y) = 0.52354 -0.01688
# Poissons Ratio (z) = -0.02790 -0.02790
#
# Static dielectric constant tensor:
#      x y z
#    x 1.709250 0.000000 0.000000 
#    y 0.000000 1.709250 0.000000 
#    z 0.000000 0.000000 1.865680 
# 
# From -- ./inp_files/3317.got.cif
#   From: 2010.05.17/outbox.cif.g08.bks.cpg/sg139_2_cif.got.tgz:3317.got - 2010.05.20 13:14:44.
