data_PCOD9571498
_publ_section_title
;
Structure prediction by ZEFSAII (Michael W. Deem and Ramdas Pophale) SiO2 
 PCOD9571498
Probable space group: I 4/M M M
;
_chemical_formula_sum "Si O2"
_cell_formula_units_Z 176
_cell_length_a 19.224323
_cell_length_b 19.224323
_cell_length_c 25.877080
_cell_angle_alpha 90.000000
_cell_angle_beta 90.000000
_cell_angle_gamma 90.000000
_cell_volume 9563.511356
_symmetry_space_group_name_H-M "I 4/M M M"
_symmetry_group_IT_number 139
_symmetry_cell_setting 'tetragonal'
loop_
_space_group_symop_operation_xyz
x,y,z
-y,x,z
-x,-y,z
y,-x,z
x,-y,-z
-x,y,-z
y,x,-z
-y,-x,-z
-x,-y,-z
y,-x,-z
x,y,-z
-y,x,-z
-x,y,z
x,-y,z
-y,-x,z
y,x,z
1/2+x,1/2+y,1/2+z
1/2-y,1/2+x,1/2+z
1/2-x,1/2-y,1/2+z
1/2+y,1/2-x,1/2+z
1/2+x,1/2-y,1/2-z
1/2-x,1/2+y,1/2-z
1/2+y,1/2+x,1/2-z
1/2-y,1/2-x,1/2-z
1/2-x,1/2-y,1/2-z
1/2+y,1/2-x,1/2-z
1/2+x,1/2+y,1/2-z
1/2-y,1/2+x,1/2-z
1/2-x,1/2+y,1/2+z
1/2+x,1/2-y,1/2+z
1/2-y,1/2-x,1/2+z
1/2+y,1/2+x,1/2+z
loop_
_atom_site_type_symbol
_atom_site_label
_atom_site_fract_x
_atom_site_fract_y
_atom_site_fract_z
Si Si1 0.874605 0.757944 0.056492
Si Si2 0.198598 0.081413 0.649807
Si Si3 0.000000 0.579357 0.562618
Si Si4 0.305163 0.110325 0.439506
Si Si5 0.302790 0.918665 0.744594
Si Si6 0.422899 0.694495 0.336770
O O1 0.824120 0.824120 0.053843
O O2 0.826651 0.690490 0.064523
O O3 0.920423 0.770733 0.106615
O O4 0.909290 0.749770 0.000000
O O5 0.133618 0.133618 0.653228
O O6 0.240297 0.092215 0.596291
O O7 0.254675 0.097389 0.694883
O O8 0.178796 0.000000 0.654944
O O9 0.065867 0.626933 0.577124
O O10 0.000000 0.500000 0.582317
O O11 0.000000 0.574767 0.500000
O O12 0.291371 0.094593 0.500000
O O13 0.367830 0.867830 0.750000
O O14 0.253424 0.909643 0.794321
O O15 0.323241 0.000000 0.741180
O O16 0.500000 0.665376 0.327443
O O17 0.364648 0.635353 0.333436
#
# Coordination Sequence:
#
# PCOD9571498 Si02
#       6
#    32  32  16  32  32  32
#     4   9  18  32  53  81 110 142 182 227 276 331
#     4  11  23  38  58  83 113 150 195 244 292 342
#     4   9  18  32  50  74 107 145 181 223 279 343
#     4  10  19  34  55  79 111 148 189 236 286 341
#     4  10  22  40  62  86 115 147 186 230 280 341
#     4  10  21  37  57  82 111 145 186 231 279 331
#
# _framework density 18.403282999999998
#
# number of rings (size 3 to 8) (size 9 to 14) (size 15 to 20)
#    0.000    2.091    0.909    2.182    0.000    5.636 
#    0.000    2.727    0.000    3.273    0.000    3.818 
#    0.000    0.000    0.000    0.000    0.000    0.000 
#
# Total GULP energy -490962.824098 kJ/mol
# GULP energy per Si atom -5579.123001 kJ/mol
# Density = 1.836140 g / cm^3
# Si number density = 18.403283 Si / 1000 Ang^3
#
#
#
# Elastic Constant Matrix: (Units=GPa)
#
#
# Indices 1 2 3 4 5 6 
#
# 1 108.9601 66.0161 50.7403 0.0000 0.0000 0.0000
# 2 66.0161 108.9601 50.7403 0.0000 0.0000 0.0000
# 3 50.7403 50.7403 97.6632 0.0000 0.0000 0.0000
# 4 0.0000 0.0000 0.0000 13.6638 0.0000 0.0000
# 5 0.0000 0.0000 0.0000 0.0000 13.6638 0.0000
# 6 0.0000 0.0000 0.0000 0.0000 0.0000 4.7354
#
#
#
# Elastic Compliance Matrix: (Units=1/GPa)
#
#
# Indices 1 2 3 4 5 6 
#
# 1 0.015733 -0.007553 -0.004250 0.000000 0.000000 0.000000
# 2 -0.007553 0.015733 -0.004250 0.000000 0.000000 0.000000
# 3 -0.004250 -0.004250 0.014655 0.000000 0.000000 0.000000
# 4 0.000000 0.000000 0.000000 0.073186 0.000000 0.000000
# 5 0.000000 0.000000 0.000000 0.000000 0.073186 0.000000
# 6 0.000000 0.000000 0.000000 0.000000 0.000000 0.211173
#
#
# Mechanical properties :
#
#
# Convention : Reuss Voigt Hill
#
# Bulk Modulus (GPa) = 71.34863 72.28631 71.81747
# Shear Modulus (GPa) = 11.35218 16.28505 13.81862
#
# Velocity S-wave (km/s) = 2.48635 2.97795 2.74319
# Velocity P-wave (km/s) = 6.86267 7.15462 7.01017
#
# Compressibility (1/GPa) = 0.01401569
#
# Stress axis : x y z
#
# Youngs Moduli (GPa) = 63.56081 63.56081 68.23545
#
# Poissons Ratio (x) = 0.48009 0.28998
# Poissons Ratio (y) = 0.48009 0.28998
# Poissons Ratio (z) = 0.27012 0.27012
#
# Static dielectric constant tensor:
#      x y z
#    x 1.623010 0.000000 0.000000 
#    y 0.000000 1.623010 0.000000 
#    z 0.000000 0.000000 1.667500 
# 
# From -- ./inp_files/13103.got.cif
#   From: 2010.05.17/outbox.cif.g08.bks.cpg/sg139_7_cif.got.tgz:13103.got - 2010.05.20 13:14:44.
