data_PCOD9571073
_publ_section_title
;
Structure prediction by ZEFSAII (Michael W. Deem and Ramdas Pophale) SiO2 
 PCOD9571073
Probable space group: P 42/N C M
;
_chemical_formula_sum "Si O2"
_cell_formula_units_Z 32
_cell_length_a 9.517998
_cell_length_b 9.517998
_cell_length_c 15.990544
_cell_angle_alpha 90.000000
_cell_angle_beta 90.000000
_cell_angle_gamma 90.000000
_cell_volume 1448.619934
_symmetry_space_group_name_H-M "P 42/N C M"
_symmetry_group_IT_number 138
_space_group.IT_coordinate_system_code '2'
_symmetry_cell_setting 'tetragonal'
loop_
_space_group_symop_operation_xyz
x,y,z
1/2-y,x,1/2+z
1/2-x,1/2-y,z
y,1/2-x,1/2+z
1/2+x,-y,1/2-z
-x,1/2+y,1/2-z
1/2+y,1/2+x,-z
-y,-x,-z
-x,-y,-z
1/2+y,-x,1/2-z
1/2+x,1/2+y,-z
-y,1/2+x,1/2-z
1/2-x,y,1/2+z
x,1/2-y,1/2+z
1/2-y,1/2-x,z
y,x,z
loop_
_atom_site_type_symbol
_atom_site_label
_atom_site_fract_x
_atom_site_fract_y
_atom_site_fract_z
Si Si1 0.111539 0.111539 0.323117
Si Si2 0.924439 0.924439 0.229105
Si Si3 0.077365 0.422636 0.575265
Si Si4 0.615185 0.615185 0.483338
O O1 0.256892 0.058511 0.281354
O O2 0.147663 0.147663 0.418778
O O3 0.993085 0.993085 0.310974
O O4 0.008720 0.008720 0.156875
O O5 0.060739 0.255155 0.562623
O O6 0.000000 0.500000 0.500000
O O7 0.500000 0.500000 0.500000
#
# Coordination Sequence:
#
# PCOD9571073 Si02
#       4
#     8   8   8   8
#     4  11  25  46  66  99 138 181 222 277 336 412
#     4  11  25  45  70  96 138 177 226 278 346 398
#     4  11  21  47  70  93 134 180 222 290 330 390
#     4  11  25  42  70 103 134 173 232 277 339 405
#
# _framework density 22.089988000000002
#
# number of rings (size 3 to 8) (size 9 to 14) (size 15 to 20)
#    0.000    1.000    5.000    1.500    7.000    4.000 
#    0.000    0.000    0.000    0.000    0.000    0.000 
#    0.000    0.000    0.000    0.000    0.000    0.000 
#
# Total GULP energy -178803.782385 kJ/mol
# GULP energy per Si atom -5587.618200 kJ/mol
# Density = 2.203971 g / cm^3
# Si number density = 22.089988 Si / 1000 Ang^3
#
#
#
# Elastic Constant Matrix: (Units=GPa)
#
#
# Indices 1 2 3 4 5 6 
#
# 1 6.5035 274.0686 38.9694 0.0000 0.0000 0.0000
# 2 274.0686 6.5035 38.9694 0.0000 0.0000 0.0000
# 3 38.9694 38.9694 104.2698 0.0000 0.0000 0.0000
# 4 0.0000 0.0000 0.0000 37.9884 0.0000 0.0000
# 5 0.0000 0.0000 0.0000 0.0000 37.9884 0.0000
# 6 0.0000 0.0000 0.0000 0.0000 0.0000 65.6355
#
#
#
# Elastic Compliance Matrix: (Units=1/GPa)
#
#
# Indices 1 2 3 4 5 6 
#
# 1 0.000120 0.003857 -0.001486 0.000000 0.000000 0.000000
# 2 0.003857 0.000120 -0.001486 0.000000 0.000000 0.000000
# 3 -0.001486 -0.001486 0.010702 0.000000 0.000000 0.000000
# 4 0.000000 0.000000 0.000000 0.026324 0.000000 0.000000
# 5 0.000000 0.000000 0.000000 0.000000 0.026324 0.000000
# 6 0.000000 0.000000 0.000000 0.000000 0.000000 0.015236
#
#
# Mechanical properties :
#
#
# Convention : Reuss Voigt Hill
#
# Bulk Modulus (GPa) = 78.67733 91.25463 84.96598
# Shear Modulus (GPa) = 61.50658 12.67377 37.09018
#
# Velocity S-wave (km/s) = 5.28243 2.39787 4.10207
# Velocity P-wave (km/s) = 8.53812 7.00475 7.80916
#
# Compressibility (1/GPa) = 0.01271014
#
# Stress axis : x y z
#
# Youngs Moduli (GPa) = 8346.25584 8346.25584 93.44462
#
# Poissons Ratio (x) = -32.19337 0.13889
# Poissons Ratio (y) = -32.19337 0.13889
# Poissons Ratio (z) = 12.40558 12.40558
#
# Static dielectric constant tensor:
#      x y z
#    x 1.776890 0.000000 0.000000 
#    y 0.000000 1.776890 0.000000 
#    z 0.000000 0.000000 1.924480 
# 
# From -- ./inp_files/5548.got.cif
#   From: 2010.05.17/outbox.cif.g08.bks.cpg/sg138_3_cif.got.tgz:5548.got - 2010.05.20 13:08:53.
