data_PCOD9571898
_publ_section_title
;
Structure prediction by ZEFSAII (Michael W. Deem and Ramdas Pophale) SiO2 
 PCOD9571898
Probable space group: I 4/M M M
;
_chemical_formula_sum "Si O2"
_cell_formula_units_Z 96
_cell_length_a 23.012599
_cell_length_b 23.012599
_cell_length_c 9.057164
_cell_angle_alpha 90.000000
_cell_angle_beta 90.000000
_cell_angle_gamma 90.000000
_cell_volume 4796.490309
_symmetry_space_group_name_H-M "I 4/M M M"
_symmetry_group_IT_number 139
_symmetry_cell_setting 'tetragonal'
loop_
_space_group_symop_operation_xyz
x,y,z
-y,x,z
-x,-y,z
y,-x,z
x,-y,-z
-x,y,-z
y,x,-z
-y,-x,-z
-x,-y,-z
y,-x,-z
x,y,-z
-y,x,-z
-x,y,z
x,-y,z
-y,-x,z
y,x,z
1/2+x,1/2+y,1/2+z
1/2-y,1/2+x,1/2+z
1/2-x,1/2-y,1/2+z
1/2+y,1/2-x,1/2+z
1/2+x,1/2-y,1/2-z
1/2-x,1/2+y,1/2-z
1/2+y,1/2+x,1/2-z
1/2-y,1/2-x,1/2-z
1/2-x,1/2-y,1/2-z
1/2+y,1/2-x,1/2-z
1/2+x,1/2+y,1/2-z
1/2-y,1/2+x,1/2-z
1/2-x,1/2+y,1/2+z
1/2+x,1/2-y,1/2+z
1/2-y,1/2-x,1/2+z
1/2+y,1/2+x,1/2+z
loop_
_atom_site_type_symbol
_atom_site_label
_atom_site_fract_x
_atom_site_fract_y
_atom_site_fract_z
Si Si1 0.341034 0.658967 0.323262
Si Si2 0.132511 0.719168 0.328637
Si Si3 0.500000 0.188091 0.839120
Si Si4 0.931563 0.068438 0.677674
Si Si5 0.000000 0.418198 0.832349
O O1 0.343105 0.656896 0.500000
O O2 0.276675 0.646777 0.262312
O O3 0.387468 0.612533 0.257026
O O4 0.152657 0.721848 0.500000
O O5 0.163963 0.663963 0.250000
O O6 0.062263 0.718150 0.334921
O O7 0.500000 0.148878 0.695082
O O8 0.500000 0.155498 0.000000
O O9 0.925099 0.074902 0.500000
O O10 0.000000 0.079908 0.712598
O O11 0.054869 0.445132 0.750000
O O12 0.000000 0.434814 0.000000
#
# Coordination Sequence:
#
# PCOD9571898 Si02
#       5
#    16  32  16  16  16
#     4  12  26  42  65  97 133 173 216 268 323 382
#     4  11  24  44  67  94 128 171 218 268 325 388
#     4  10  23  41  64  92 122 159 206 259 318 378
#     4   9  20  41  69  99 134 177 220 265 324 391
#     4  11  21  34  55  82 118 159 201 249 304 365
#
# _framework density 20.014631999999999
#
# number of rings (size 3 to 8) (size 9 to 14) (size 15 to 20)
#    0.000    1.333    0.000    6.500    2.333    6.000 
#    0.000    0.833    0.000    0.000    0.000    0.000 
#    0.000    0.000    0.000    0.000    0.000    0.000 
#
# Total GULP energy -267736.360674 kJ/mol
# GULP energy per Si atom -5577.840847 kJ/mol
# Density = 1.996908 g / cm^3
# Si number density = 20.014632 Si / 1000 Ang^3
#
#
#
# Elastic Constant Matrix: (Units=GPa)
#
#
# Indices 1 2 3 4 5 6 
#
# 1 109.2495 53.3298 53.9882 0.0000 0.0000 0.0000
# 2 53.3298 109.2516 53.9892 0.0000 0.0000 0.0000
# 3 53.9882 53.9892 158.3533 0.0000 0.0000 0.0000
# 4 0.0000 0.0000 0.0000 28.2262 0.0000 0.0000
# 5 0.0000 0.0000 0.0000 0.0000 28.2326 0.0000
# 6 0.0000 0.0000 0.0000 0.0000 0.0000 41.5318
#
#
#
# Elastic Compliance Matrix: (Units=1/GPa)
#
#
# Indices 1 2 3 4 5 6 
#
# 1 0.012917 -0.004966 -0.002711 0.000000 0.000000 0.000000
# 2 -0.004966 0.012917 -0.002711 0.000000 0.000000 0.000000
# 3 -0.002711 -0.002711 0.008163 0.000000 0.000000 0.000000
# 4 0.000000 0.000000 0.000000 0.035428 0.000000 0.000000
# 5 0.000000 0.000000 0.000000 0.000000 0.035420 0.000000
# 6 0.000000 0.000000 0.000000 0.000000 0.000000 0.024078
#
#
# Mechanical properties :
#
#
# Convention : Reuss Voigt Hill
#
# Bulk Modulus (GPa) = 75.62910 77.71875 76.67392
# Shear Modulus (GPa) = 32.44530 33.96791 33.20660
#
# Velocity S-wave (km/s) = 4.03063 4.12412 4.07764
# Velocity P-wave (km/s) = 7.71558 7.84813 7.78214
#
# Compressibility (1/GPa) = 0.01322242
#
# Stress axis : x y z
#
# Youngs Moduli (GPa) = 77.41766 77.41887 122.49680
#
# Poissons Ratio (x) = 0.38443 0.33207
# Poissons Ratio (y) = 0.38443 0.33208
# Poissons Ratio (z) = 0.20987 0.20987
#
# Static dielectric constant tensor:
#      x y z
#    x 1.749890 0.000000 0.000000 
#    y 0.000000 1.749880 0.000000 
#    z 0.000000 0.000000 1.710350 
# 
# From -- ./inp_files/1171.got.cif
#   From: 2010.05.17/outbox.cif.g08.bks.cpg/sg139_1_cif.got.tgz:1171.got - 2010.05.20 13:14:44.
