data_PCOD9571781
_publ_section_title
;
Structure prediction by ZEFSAII (Michael W. Deem and Ramdas Pophale) SiO2 
 PCOD9571781
Probable space group: I 4/M M M
;
_chemical_formula_sum "Si O2"
_cell_formula_units_Z 144
_cell_length_a 29.375675
_cell_length_b 29.375675
_cell_length_c 8.137841
_cell_angle_alpha 90.000000
_cell_angle_beta 90.000000
_cell_angle_gamma 90.000000
_cell_volume 7022.389427
_symmetry_space_group_name_H-M "I 4/M M M"
_symmetry_group_IT_number 139
_symmetry_cell_setting 'tetragonal'
loop_
_space_group_symop_operation_xyz
x,y,z
-y,x,z
-x,-y,z
y,-x,z
x,-y,-z
-x,y,-z
y,x,-z
-y,-x,-z
-x,-y,-z
y,-x,-z
x,y,-z
-y,x,-z
-x,y,z
x,-y,z
-y,-x,z
y,x,z
1/2+x,1/2+y,1/2+z
1/2-y,1/2+x,1/2+z
1/2-x,1/2-y,1/2+z
1/2+y,1/2-x,1/2+z
1/2+x,1/2-y,1/2-z
1/2-x,1/2+y,1/2-z
1/2+y,1/2+x,1/2-z
1/2-y,1/2-x,1/2-z
1/2-x,1/2-y,1/2-z
1/2+y,1/2-x,1/2-z
1/2+x,1/2+y,1/2-z
1/2-y,1/2+x,1/2-z
1/2-x,1/2+y,1/2+z
1/2+x,1/2-y,1/2+z
1/2-y,1/2-x,1/2+z
1/2+y,1/2+x,1/2+z
loop_
_atom_site_type_symbol
_atom_site_label
_atom_site_fract_x
_atom_site_fract_y
_atom_site_fract_z
Si Si1 0.248698 0.176990 0.696895
Si Si2 0.551701 0.125899 0.698154
Si Si3 0.447314 0.321964 0.176715
Si Si4 0.626632 0.444942 0.500000
Si Si5 0.272127 0.077429 0.191862
O O1 0.250858 0.170089 0.500000
O O2 0.199978 0.199978 0.736278
O O3 0.286249 0.213752 0.750000
O O4 0.260672 0.130555 0.787117
O O5 0.551327 0.126496 0.500000
O O6 0.500000 0.116505 0.755108
O O7 0.587979 0.087979 0.750000
O O8 0.566464 0.176846 0.750653
O O9 0.500000 0.336117 0.167972
O O10 0.428493 0.346700 0.337446
O O11 0.446302 0.268049 0.208521
O O12 0.425268 0.332004 0.000000
O O13 0.625954 0.500000 0.500000
O O14 0.577010 0.422991 0.500000
O O15 0.268959 0.064016 0.000000
#
# Coordination Sequence:
#
# PCOD9571781 Si02
#       5
#    32  32  32  16  32
#     4  10  21  36  52  74 109 151 194 242 296 355
#     4  10  23  41  61  87 119 157 203 261 324 386
#     4  10  21  38  61  89 122 160 201 251 313 371
#     4  10  22  41  64  92 128 168 211 263 317 373
#     4  11  21  36  60  87 118 157 202 254 309 375
#
# _framework density 20.505841
#
# number of rings (size 3 to 8) (size 9 to 14) (size 15 to 20)
#    0.000    1.778    1.111    2.667    0.000    7.889 
#    0.000    1.111    0.000    0.000    0.000    3.111 
#    0.000    0.000    0.000    0.000    0.000    0.000 
#
# Total GULP energy -402002.277432 kJ/mol
# GULP energy per Si atom -5583.364964 kJ/mol
# Density = 2.045917 g / cm^3
# Si number density = 20.505841 Si / 1000 Ang^3
#
#
#
# Elastic Constant Matrix: (Units=GPa)
#
#
# Indices 1 2 3 4 5 6 
#
# 1 71.1365 38.6913 30.6935 0.0000 0.0000 0.0000
# 2 38.6913 71.1195 30.6941 0.0000 0.0000 0.0000
# 3 30.6935 30.6941 107.9936 0.0000 0.0000 0.0000
# 4 0.0000 0.0000 0.0000 2.2021 0.0000 0.0000
# 5 0.0000 0.0000 0.0000 0.0000 2.2048 0.0000
# 6 0.0000 0.0000 0.0000 0.0000 0.0000 32.3426
#
#
#
# Elastic Compliance Matrix: (Units=1/GPa)
#
#
# Indices 1 2 3 4 5 6 
#
# 1 0.020825 -0.010002 -0.003076 0.000000 0.000000 0.000000
# 2 -0.010002 0.020830 -0.003078 0.000000 0.000000 0.000000
# 3 -0.003076 -0.003078 0.011009 0.000000 0.000000 0.000000
# 4 0.000000 0.000000 0.000000 0.454106 0.000000 0.000000
# 5 0.000000 0.000000 0.000000 0.000000 0.453557 0.000000
# 6 0.000000 0.000000 0.000000 0.000000 0.000000 0.030919
#
#
# Mechanical properties :
#
#
# Convention : Reuss Voigt Hill
#
# Bulk Modulus (GPa) = 49.13311 50.04525 49.58918
# Shear Modulus (GPa) = 4.85276 17.36129 11.10702
#
# Velocity S-wave (km/s) = 1.54002 2.91288 2.32987
# Velocity P-wave (km/s) = 5.21294 5.98093 5.61009
#
# Compressibility (1/GPa) = 0.02035287
#
# Stress axis : x y z
#
# Youngs Moduli (GPa) = 48.01997 48.00664 90.83616
#
# Poissons Ratio (x) = 0.48015 0.27941
# Poissons Ratio (y) = 0.48028 0.27958
# Poissons Ratio (z) = 0.14771 0.14775
#
# Static dielectric constant tensor:
#      x y z
#    x 1.732970 0.000000 0.000000 
#    y 0.000000 1.732970 0.000000 
#    z 0.000000 0.000000 1.767010 
# 
# From -- ./inp_files/1979.got.cif
#   From: 2010.05.17/outbox.cif.g08.bks.cpg/sg139_1_cif.got.tgz:1979.got - 2010.05.20 13:14:44.
