data_PCOD9571181
_publ_section_title
;
Structure prediction by ZEFSAII (Michael W. Deem and Ramdas Pophale) SiO2 
 PCOD9571181
Probable space group: I 4/M M M
;
_chemical_formula_sum "Si O2"
_cell_formula_units_Z 176
_cell_length_a 18.646632
_cell_length_b 18.646632
_cell_length_c 27.920224
_cell_angle_alpha 90.000000
_cell_angle_beta 90.000000
_cell_angle_gamma 90.000000
_cell_volume 9707.774912
_symmetry_space_group_name_H-M "I 4/M M M"
_symmetry_group_IT_number 139
_symmetry_cell_setting 'tetragonal'
loop_
_space_group_symop_operation_xyz
x,y,z
-y,x,z
-x,-y,z
y,-x,z
x,-y,-z
-x,y,-z
y,x,-z
-y,-x,-z
-x,-y,-z
y,-x,-z
x,y,-z
-y,x,-z
-x,y,z
x,-y,z
-y,-x,z
y,x,z
1/2+x,1/2+y,1/2+z
1/2-y,1/2+x,1/2+z
1/2-x,1/2-y,1/2+z
1/2+y,1/2-x,1/2+z
1/2+x,1/2-y,1/2-z
1/2-x,1/2+y,1/2-z
1/2+y,1/2+x,1/2-z
1/2-y,1/2-x,1/2-z
1/2-x,1/2-y,1/2-z
1/2+y,1/2-x,1/2-z
1/2+x,1/2+y,1/2-z
1/2-y,1/2+x,1/2-z
1/2-x,1/2+y,1/2+z
1/2+x,1/2-y,1/2+z
1/2-y,1/2-x,1/2+z
1/2+y,1/2+x,1/2+z
loop_
_atom_site_type_symbol
_atom_site_label
_atom_site_fract_x
_atom_site_fract_y
_atom_site_fract_z
Si Si1 0.419711 0.805398 0.912769
Si Si2 0.149893 0.732503 0.943703
Si Si3 0.417700 0.298469 0.823972
Si Si4 0.298677 0.583346 0.353357
Si Si5 0.805625 0.923633 0.500000
Si Si6 0.199055 0.583897 0.266484
O O1 0.500000 0.839201 0.912580
O O2 0.349894 0.850530 0.926536
O O3 0.408661 0.765099 0.862588
O O4 0.420946 0.744759 0.953780
O O5 0.228278 0.771723 0.937914
O O6 0.098441 0.775465 0.907951
O O7 0.132382 0.736891 0.000000
O O8 0.500000 0.324084 0.828474
O O9 0.360883 0.360883 0.832430
O O10 0.408096 0.263166 0.771950
O O11 0.315440 0.500000 0.345638
O O12 0.365079 0.634922 0.342026
O O13 0.232541 0.602222 0.318127
O O14 0.858508 0.858508 0.500000
O O15 0.844640 0.000000 0.500000
O O16 0.177522 0.500000 0.266397
O O17 0.135150 0.635150 0.250000
#
# Coordination Sequence:
#
# PCOD9571181 Si02
#       6
#    32  32  32  32  16  32
#     4  10  19  30  47  73 103 137 178 225 270 314
#     4  10  19  32  54  79 104 138 179 225 275 325
#     4  10  20  32  48  72 102 138 180 223 268 318
#     4  10  22  39  59  85 113 141 176 217 265 322
#     4  10  18  27  40  60  91 131 174 220 266 312
#     4  10  21  37  57  82 111 143 179 219 261 309
#
# _framework density 18.129798999999998
#
# number of rings (size 3 to 8) (size 9 to 14) (size 15 to 20)
#    0.000    2.000    0.909    3.273    0.000    3.909 
#    0.000    0.000    0.000    8.182    0.000    3.818 
#    0.000    0.000    0.000    0.000    0.000    0.000 
#
# Total GULP energy -490822.524428 kJ/mol
# GULP energy per Si atom -5577.528687 kJ/mol
# Density = 1.808853 g / cm^3
# Si number density = 18.129799 Si / 1000 Ang^3
#
#
#
# Elastic Constant Matrix: (Units=GPa)
#
#
# Indices 1 2 3 4 5 6 
#
# 1 72.4181 45.5855 13.8589 0.0000 0.0000 0.0000
# 2 45.5855 72.4181 13.8589 0.0000 0.0000 0.0000
# 3 13.8589 13.8589 93.1492 0.0000 0.0000 0.0000
# 4 0.0000 0.0000 0.0000 22.8079 0.0000 0.0000
# 5 0.0000 0.0000 0.0000 0.0000 22.8079 0.0000
# 6 0.0000 0.0000 0.0000 0.0000 0.0000 14.4921
#
#
#
# Elastic Compliance Matrix: (Units=1/GPa)
#
#
# Indices 1 2 3 4 5 6 
#
# 1 0.023025 -0.014243 -0.001306 0.000000 0.000000 0.000000
# 2 -0.014243 0.023025 -0.001306 0.000000 0.000000 0.000000
# 3 -0.001306 -0.001306 0.011124 0.000000 0.000000 0.000000
# 4 0.000000 0.000000 0.000000 0.043844 0.000000 0.000000
# 5 0.000000 0.000000 0.000000 0.000000 0.043844 0.000000
# 6 0.000000 0.000000 0.000000 0.000000 0.000000 0.069003
#
#
# Mechanical properties :
#
#
# Convention : Reuss Voigt Hill
#
# Bulk Modulus (GPa) = 42.62446 42.73241 42.67843
# Shear Modulus (GPa) = 19.57723 23.00039 21.28881
#
# Velocity S-wave (km/s) = 3.28965 3.56568 3.43044
# Velocity P-wave (km/s) = 6.16367 6.36973 6.26755
#
# Compressibility (1/GPa) = 0.02346071
#
# Stress axis : x y z
#
# Youngs Moduli (GPa) = 43.43165 43.43165 89.89390
#
# Poissons Ratio (x) = 0.61862 0.11744
# Poissons Ratio (y) = 0.61862 0.11744
# Poissons Ratio (z) = 0.05674 0.05674
#
# Static dielectric constant tensor:
#      x y z
#    x 1.618610 0.000000 0.000000 
#    y 0.000000 1.618610 0.000000 
#    z 0.000000 0.000000 1.631480 
# 
# From -- ./inp_files/13104.got.cif
#   From: 2010.05.17/outbox.cif.g08.bks.cpg/sg139_7_cif.got.tgz:13104.got - 2010.05.20 13:14:44.
