data_PCOD9571374
_publ_section_title
;
Structure prediction by ZEFSAII (Michael W. Deem and Ramdas Pophale) SiO2 
 PCOD9571374
Probable space group: I 4/M M M
;
_chemical_formula_sum "Si O2"
_cell_formula_units_Z 176
_cell_length_a 20.052977
_cell_length_b 20.052977
_cell_length_c 26.195195
_cell_angle_alpha 90.000000
_cell_angle_beta 90.000000
_cell_angle_gamma 90.000000
_cell_volume 10533.661232
_symmetry_space_group_name_H-M "I 4/M M M"
_symmetry_group_IT_number 139
_symmetry_cell_setting 'tetragonal'
loop_
_space_group_symop_operation_xyz
x,y,z
-y,x,z
-x,-y,z
y,-x,z
x,-y,-z
-x,y,-z
y,x,-z
-y,-x,-z
-x,-y,-z
y,-x,-z
x,y,-z
-y,x,-z
-x,y,z
x,-y,z
-y,-x,z
y,x,z
1/2+x,1/2+y,1/2+z
1/2-y,1/2+x,1/2+z
1/2-x,1/2-y,1/2+z
1/2+y,1/2-x,1/2+z
1/2+x,1/2-y,1/2-z
1/2-x,1/2+y,1/2-z
1/2+y,1/2+x,1/2-z
1/2-y,1/2-x,1/2-z
1/2-x,1/2-y,1/2-z
1/2+y,1/2-x,1/2-z
1/2+x,1/2+y,1/2-z
1/2-y,1/2+x,1/2-z
1/2-x,1/2+y,1/2+z
1/2+x,1/2-y,1/2+z
1/2-y,1/2-x,1/2+z
1/2+y,1/2+x,1/2+z
loop_
_atom_site_type_symbol
_atom_site_label
_atom_site_fract_x
_atom_site_fract_y
_atom_site_fract_z
Si Si1 0.261210 0.368640 0.906054
Si Si2 0.073334 0.311779 0.500000
Si Si3 0.215816 0.421313 0.701618
Si Si4 0.308646 0.420734 0.202352
Si Si5 0.245106 0.647716 0.597040
Si Si6 0.422265 0.188705 0.500000
Si Si7 0.922441 0.422441 0.250000
O O1 0.327836 0.327836 0.920981
O O2 0.275816 0.404171 0.852457
O O3 0.203537 0.313032 0.900770
O O4 0.234527 0.415387 0.950675
O O5 0.126061 0.371894 0.500000
O O6 0.000000 0.340570 0.500000
O O7 0.224871 0.500000 0.695017
O O8 0.255923 0.402584 0.752980
O O9 0.244167 0.385408 0.652316
O O10 0.136237 0.410614 0.709088
O O11 0.322971 0.500000 0.205602
O O12 0.373951 0.373951 0.207502
O O13 0.313174 0.686827 0.586719
O O14 0.228756 0.597338 0.551227
O O15 0.500000 0.171173 0.500000
O O16 0.915047 0.500000 0.232493
#
# Coordination Sequence:
#
# PCOD9571374 Si02
#       7
#    32  16  32  32  32  16  16
#     4   9  18  31  49  72  96 124 161 206 249 289
#     4  10  19  32  51  71  96 132 167 199 238 287
#     4  10  19  31  49  73 101 131 164 204 246 291
#     4  10  20  33  49  71  99 130 166 209 257 307
#     4  10  19  33  53  74  96 124 160 202 249 296
#     4  10  21  36  51  71 100 128 159 199 242 295
#     4   9  18  32  49  72 104 142 177 202 234 289
#
# _framework density 16.708341000000001
#
# number of rings (size 3 to 8) (size 9 to 14) (size 15 to 20)
#    0.000    2.273    0.000    3.273    0.000    2.545 
#    0.000    7.273    0.000    4.364    0.000    0.000 
#    0.000   20.364    0.000    0.000    0.000    0.000 
#
# Total GULP energy -490494.811855 kJ/mol
# GULP energy per Si atom -5573.804680 kJ/mol
# Density = 1.667031 g / cm^3
# Si number density = 16.708341 Si / 1000 Ang^3
#
#
#
# Elastic Constant Matrix: (Units=GPa)
#
#
# Indices 1 2 3 4 5 6 
#
# 1 68.7709 36.3175 46.4033 0.0000 0.0000 0.0000
# 2 36.3175 68.7709 46.4033 0.0000 0.0000 0.0000
# 3 46.4033 46.4033 110.1457 0.0000 0.0000 0.0000
# 4 0.0000 0.0000 0.0000 16.9147 0.0000 0.0000
# 5 0.0000 0.0000 0.0000 0.0000 16.9147 0.0000
# 6 0.0000 0.0000 0.0000 0.0000 0.0000 10.4201
#
#
#
# Elastic Compliance Matrix: (Units=1/GPa)
#
#
# Indices 1 2 3 4 5 6 
#
# 1 0.022984 -0.007830 -0.006384 0.000000 0.000000 0.000000
# 2 -0.007830 0.022984 -0.006384 0.000000 0.000000 0.000000
# 3 -0.006384 -0.006384 0.014458 0.000000 0.000000 0.000000
# 4 0.000000 0.000000 0.000000 0.059120 0.000000 0.000000
# 5 0.000000 0.000000 0.000000 0.000000 0.059120 0.000000
# 6 0.000000 0.000000 0.000000 0.000000 0.000000 0.095968
#
#
# Mechanical properties :
#
#
# Convention : Reuss Voigt Hill
#
# Bulk Modulus (GPa) = 52.00459 56.21507 54.10983
# Shear Modulus (GPa) = 15.51638 16.75411 16.13524
#
# Velocity S-wave (km/s) = 3.05070 3.17004 3.11094
# Velocity P-wave (km/s) = 6.60314 6.86417 6.73492
#
# Compressibility (1/GPa) = 0.01922907
#
# Stress axis : x y z
#
# Youngs Moduli (GPa) = 43.50923 43.50923 69.16564
#
# Poissons Ratio (x) = 0.34067 0.44156
# Poissons Ratio (y) = 0.34067 0.44156
# Poissons Ratio (z) = 0.27777 0.27777
#
# Static dielectric constant tensor:
#      x y z
#    x 1.553690 0.000000 0.000000 
#    y 0.000000 1.553690 0.000000 
#    z 0.000000 0.000000 1.553630 
# 
# From -- ./inp_files/13173.got.cif
#   From: 2010.05.17/outbox.cif.g08.bks.cpg/sg139_7_cif.got.tgz:13173.got - 2010.05.20 13:14:44.
