data_PCOD9571758
_publ_section_title
;
Structure prediction by ZEFSAII (Michael W. Deem and Ramdas Pophale) SiO2 
 PCOD9571758
Probable space group: I 4/M M M
;
_chemical_formula_sum "Si O2"
_cell_formula_units_Z 160
_cell_length_a 20.564347
_cell_length_b 20.564347
_cell_length_c 19.326701
_cell_angle_alpha 90.000000
_cell_angle_beta 90.000000
_cell_angle_gamma 90.000000
_cell_volume 8173.114343
_symmetry_space_group_name_H-M "I 4/M M M"
_symmetry_group_IT_number 139
_symmetry_cell_setting 'tetragonal'
loop_
_space_group_symop_operation_xyz
x,y,z
-y,x,z
-x,-y,z
y,-x,z
x,-y,-z
-x,y,-z
y,x,-z
-y,-x,-z
-x,-y,-z
y,-x,-z
x,y,-z
-y,x,-z
-x,y,z
x,-y,z
-y,-x,z
y,x,z
1/2+x,1/2+y,1/2+z
1/2-y,1/2+x,1/2+z
1/2-x,1/2-y,1/2+z
1/2+y,1/2-x,1/2+z
1/2+x,1/2-y,1/2-z
1/2-x,1/2+y,1/2-z
1/2+y,1/2+x,1/2-z
1/2-y,1/2-x,1/2-z
1/2-x,1/2-y,1/2-z
1/2+y,1/2-x,1/2-z
1/2+x,1/2+y,1/2-z
1/2-y,1/2+x,1/2-z
1/2-x,1/2+y,1/2+z
1/2+x,1/2-y,1/2+z
1/2-y,1/2-x,1/2+z
1/2+y,1/2+x,1/2+z
loop_
_atom_site_type_symbol
_atom_site_label
_atom_site_fract_x
_atom_site_fract_y
_atom_site_fract_z
Si Si1 0.227572 0.874622 0.279314
Si Si2 0.365862 0.075052 0.690295
Si Si3 0.681589 0.575299 0.638262
Si Si4 0.422145 0.174868 0.418479
Si Si5 0.923222 0.178758 0.424677
O O1 0.197820 0.802181 0.269125
O O2 0.302228 0.894010 0.273334
O O3 0.190514 0.916759 0.221231
O O4 0.212760 0.893662 0.358172
O O5 0.419966 0.080035 0.750000
O O6 0.386017 0.120049 0.626034
O O7 0.353646 0.000000 0.671182
O O8 0.668564 0.500000 0.620764
O O9 0.624694 0.624694 0.616423
O O10 0.751806 0.594480 0.606415
O O11 0.409029 0.168548 0.500000
O O12 0.500000 0.167719 0.407270
O O13 0.904980 0.207585 0.500000
O O14 0.893393 0.106608 0.423748
O O15 0.000000 0.178783 0.419276
#
# Coordination Sequence:
#
# PCOD9571758 Si02
#       5
#    32  32  32  32  32
#     4  10  21  37  59  85 119 160 202 246 299 365
#     4  12  24  39  63  93 123 156 203 257 311 370
#     4  10  20  37  62  91 125 166 211 260 313 370
#     4  10  23  43  63  86 120 161 203 250 313 382
#     4   9  17  29  46  71 106 148 192 239 290 342
#
# _framework density 19.576381999999999
#
# number of rings (size 3 to 8) (size 9 to 14) (size 15 to 20)
#    0.000    1.800    2.000    2.400    0.000    4.600 
#    0.000    2.000    0.000    3.600    0.000    2.800 
#    0.000    0.000    0.000    0.000    0.000    0.000 
#
# Total GULP energy -445988.790336 kJ/mol
# GULP energy per Si atom -5574.859879 kJ/mol
# Density = 1.953182 g / cm^3
# Si number density = 19.576382 Si / 1000 Ang^3
#
#
#
# Elastic Constant Matrix: (Units=GPa)
#
#
# Indices 1 2 3 4 5 6 
#
# 1 95.1551 65.2754 14.1016 0.0000 0.0000 0.0000
# 2 65.2754 95.1570 14.1020 0.0000 0.0000 0.0000
# 3 14.1016 14.1020 45.5916 0.0000 0.0000 0.0000
# 4 0.0000 0.0000 0.0000 22.6514 0.0000 0.0000
# 5 0.0000 0.0000 0.0000 0.0000 22.6512 0.0000
# 6 0.0000 0.0000 0.0000 0.0000 0.0000 20.8621
#
#
#
# Elastic Compliance Matrix: (Units=1/GPa)
#
#
# Indices 1 2 3 4 5 6 
#
# 1 0.020029 -0.013437 -0.002039 0.000000 0.000000 0.000000
# 2 -0.013437 0.020029 -0.002039 0.000000 0.000000 0.000000
# 3 -0.002039 -0.002039 0.023195 0.000000 0.000000 0.000000
# 4 0.000000 0.000000 0.000000 0.044147 0.000000 0.000000
# 5 0.000000 0.000000 0.000000 0.000000 0.044148 0.000000
# 6 0.000000 0.000000 0.000000 0.000000 0.000000 0.047934
#
#
# Mechanical properties :
#
#
# Convention : Reuss Voigt Hill
#
# Bulk Modulus (GPa) = 35.43206 46.98464 41.20835
# Shear Modulus (GPa) = 20.49854 22.72793 21.61324
#
# Velocity S-wave (km/s) = 3.23941 3.41102 3.32632
# Velocity P-wave (km/s) = 5.66837 6.29017 5.98735
#
# Compressibility (1/GPa) = 0.02822303
#
# Stress axis : x y z
#
# Youngs Moduli (GPa) = 49.92714 49.92803 43.11247
#
# Poissons Ratio (x) = 0.67090 0.08789
# Poissons Ratio (y) = 0.67089 0.08790
# Poissons Ratio (z) = 0.10179 0.10180
#
# Static dielectric constant tensor:
#      x y z
#    x 1.699200 0.000000 0.000000 
#    y 0.000000 1.699200 0.000000 
#    z 0.000000 0.000000 1.702980 
# 
# From -- ./inp_files/8380.got.cif
#   From: 2010.05.17/outbox.cif.g08.bks.cpg/sg139_5_cif.got.tgz:8380.got - 2010.05.20 13:14:44.
