data_PCOD9571355
_publ_section_title
;
Structure prediction by ZEFSAII (Michael W. Deem and Ramdas Pophale) SiO2 
 PCOD9571355
Probable space group: I 4/M M M
;
_chemical_formula_sum "Si O2"
_cell_formula_units_Z 128
_cell_length_a 17.936779
_cell_length_b 17.936779
_cell_length_c 24.795542
_cell_angle_alpha 90.000000
_cell_angle_beta 90.000000
_cell_angle_gamma 90.000000
_cell_volume 7977.421151
_symmetry_space_group_name_H-M "I 4/M M M"
_symmetry_group_IT_number 139
_symmetry_cell_setting 'tetragonal'
loop_
_space_group_symop_operation_xyz
x,y,z
-y,x,z
-x,-y,z
y,-x,z
x,-y,-z
-x,y,-z
y,x,-z
-y,-x,-z
-x,-y,-z
y,-x,-z
x,y,-z
-y,x,-z
-x,y,z
x,-y,z
-y,-x,z
y,x,z
1/2+x,1/2+y,1/2+z
1/2-y,1/2+x,1/2+z
1/2-x,1/2-y,1/2+z
1/2+y,1/2-x,1/2+z
1/2+x,1/2-y,1/2-z
1/2-x,1/2+y,1/2-z
1/2+y,1/2+x,1/2-z
1/2-y,1/2-x,1/2-z
1/2-x,1/2-y,1/2-z
1/2+y,1/2-x,1/2-z
1/2+x,1/2+y,1/2-z
1/2-y,1/2+x,1/2-z
1/2-x,1/2+y,1/2+z
1/2+x,1/2-y,1/2+z
1/2-y,1/2-x,1/2+z
1/2+y,1/2+x,1/2+z
loop_
_atom_site_type_symbol
_atom_site_label
_atom_site_fract_x
_atom_site_fract_y
_atom_site_fract_z
Si Si1 0.854290 0.733204 0.116944
Si Si2 0.164245 0.587724 0.175625
Si Si3 0.500000 0.198166 0.438441
Si Si4 0.000000 0.414917 0.839688
Si Si5 0.088850 0.788724 0.765906
O O1 0.785943 0.785943 0.102242
O O2 0.828180 0.647932 0.127520
O O3 0.922864 0.739641 0.075588
O O4 0.885710 0.760108 0.175273
O O5 0.172761 0.500000 0.161052
O O6 0.076809 0.597990 0.191515
O O7 0.224755 0.604436 0.221515
O O8 0.500000 0.173290 0.500000
O O9 0.500000 0.133982 0.393172
O O10 0.000000 0.500000 0.856469
O O11 0.138401 0.861600 0.753643
O O12 0.000000 0.802382 0.766452
#
# Coordination Sequence:
#
# PCOD9571355 Si02
#       5
#    32  32  16  16  32
#     4  10  19  33  49  66  92 124 159 197 242 290
#     4   9  17  29  47  71 100 123 153 187 225 284
#     4  10  20  33  50  69  90 118 159 207 244 276
#     4   8  16  31  48  70  99 131 156 178 227 279
#     4  10  19  31  47  67  92 126 160 196 238 283
#
# _framework density 16.045285
#
# number of rings (size 3 to 8) (size 9 to 14) (size 15 to 20)
#    0.000    2.500    1.250    1.500    0.000    3.000 
#    2.250    0.000    0.000    0.375    0.000    0.875 
#    0.000    0.000    0.000    0.000    0.000    0.000 
#
# Total GULP energy -356510.308224 kJ/mol
# GULP energy per Si atom -5570.473566 kJ/mol
# Density = 1.600877 g / cm^3
# Si number density = 16.045285 Si / 1000 Ang^3
#
#
#
# Elastic Constant Matrix: (Units=GPa)
#
#
# Indices 1 2 3 4 5 6 
#
# 1 82.4928 48.3628 21.4725 0.0000 0.0000 0.0000
# 2 48.3628 82.4928 21.4725 0.0000 0.0000 0.0000
# 3 21.4725 21.4725 60.6464 0.0000 0.0000 0.0000
# 4 0.0000 0.0000 0.0000 8.3140 0.0000 0.0000
# 5 0.0000 0.0000 0.0000 0.0000 8.3140 0.0000
# 6 0.0000 0.0000 0.0000 0.0000 0.0000 29.9719
#
#
#
# Elastic Compliance Matrix: (Units=1/GPa)
#
#
# Indices 1 2 3 4 5 6 
#
# 1 0.018973 -0.010326 -0.003061 0.000000 0.000000 0.000000
# 2 -0.010326 0.018973 -0.003061 0.000000 0.000000 0.000000
# 3 -0.003061 -0.003061 0.018657 0.000000 0.000000 0.000000
# 4 0.000000 0.000000 0.000000 0.120279 0.000000 0.000000
# 5 0.000000 0.000000 0.000000 0.000000 0.120279 0.000000
# 6 0.000000 0.000000 0.000000 0.000000 0.000000 0.033365
#
#
# Mechanical properties :
#
#
# Convention : Reuss Voigt Hill
#
# Bulk Modulus (GPa) = 42.18604 45.36084 43.77344
# Shear Modulus (GPa) = 13.46525 18.27492 15.87008
#
# Velocity S-wave (km/s) = 2.90004 3.37851 3.14838
# Velocity P-wave (km/s) = 6.12883 6.59932 6.36842
#
# Compressibility (1/GPa) = 0.02370452
#
# Stress axis : x y z
#
# Youngs Moduli (GPa) = 52.70580 52.70580 53.59938
#
# Poissons Ratio (x) = 0.54427 0.16409
# Poissons Ratio (y) = 0.54427 0.16409
# Poissons Ratio (z) = 0.16136 0.16136
#
# Static dielectric constant tensor:
#      x y z
#    x 1.572310 0.000000 0.000000 
#    y 0.000000 1.572310 0.000000 
#    z 0.000000 0.000000 1.503050 
# 
# From -- ./inp_files/11382.got.cif
#   From: 2010.05.17/outbox.cif.g08.bks.cpg/sg139_6_cif.got.tgz:11382.got - 2010.05.20 13:14:44.
