data_PCOD9571450
_publ_section_title
;
Structure prediction by ZEFSAII (Michael W. Deem and Ramdas Pophale) SiO2 
 PCOD9571450
Probable space group: I 4/M M M
;
_chemical_formula_sum "Si O2"
_cell_formula_units_Z 160
_cell_length_a 21.693974
_cell_length_b 21.693974
_cell_length_c 20.264362
_cell_angle_alpha 90.000000
_cell_angle_beta 90.000000
_cell_angle_gamma 90.000000
_cell_volume 9536.986452
_symmetry_space_group_name_H-M "I 4/M M M"
_symmetry_group_IT_number 139
_symmetry_cell_setting 'tetragonal'
loop_
_space_group_symop_operation_xyz
x,y,z
-y,x,z
-x,-y,z
y,-x,z
x,-y,-z
-x,y,-z
y,x,-z
-y,-x,-z
-x,-y,-z
y,-x,-z
x,y,-z
-y,x,-z
-x,y,z
x,-y,z
-y,-x,z
y,x,z
1/2+x,1/2+y,1/2+z
1/2-y,1/2+x,1/2+z
1/2-x,1/2-y,1/2+z
1/2+y,1/2-x,1/2+z
1/2+x,1/2-y,1/2-z
1/2-x,1/2+y,1/2-z
1/2+y,1/2+x,1/2-z
1/2-y,1/2-x,1/2-z
1/2-x,1/2-y,1/2-z
1/2+y,1/2-x,1/2-z
1/2+x,1/2+y,1/2-z
1/2-y,1/2+x,1/2-z
1/2-x,1/2+y,1/2+z
1/2+x,1/2-y,1/2+z
1/2-y,1/2-x,1/2+z
1/2+y,1/2+x,1/2+z
loop_
_atom_site_type_symbol
_atom_site_label
_atom_site_fract_x
_atom_site_fract_y
_atom_site_fract_z
Si Si1 0.569205 0.102578 0.080281
Si Si2 0.127820 0.770193 0.500000
Si Si3 0.664000 0.231951 0.500000
Si Si4 0.247781 0.851437 0.238902
Si Si5 0.795478 0.570438 0.617243
Si Si6 0.741817 0.930989 0.366034
O O1 0.500000 0.076875 0.092607
O O2 0.630072 0.069788 0.107788
O O3 0.571236 0.169130 0.115701
O O4 0.574469 0.107574 0.000000
O O5 0.173569 0.826432 0.500000
O O6 0.172414 0.709524 0.500000
O O7 0.087093 0.771605 0.435061
O O8 0.708680 0.291321 0.500000
O O9 0.619002 0.228218 0.562666
O O10 0.186554 0.813447 0.218403
O O11 0.300790 0.800790 0.250000
O O12 0.272568 0.900856 0.186122
O O13 0.239840 0.884230 0.309097
O O14 0.773923 0.500000 0.608341
O O15 0.757127 0.000000 0.345392
#
# Coordination Sequence:
#
# PCOD9571450 Si02
#       6
#    32  16  16  32  32  32
#     4  10  19  33  52  76 111 149 185 218 251 298
#     4  11  19  32  56  81 107 141 180 217 265 320
#     4  11  21  36  54  76 106 140 179 221 277 322
#     4  11  22  37  54  76 106 140 179 222 280 326
#     4  12  22  36  54  78 107 141 187 226 264 308
#     4  11  19  33  53  78 110 142 179 216 258 314
#
# _framework density 16.776788
#
# number of rings (size 3 to 8) (size 9 to 14) (size 15 to 20)
#    0.000    1.000    6.000    2.400    0.000    3.600 
#    0.000    1.000    0.000    0.000    0.000    0.000 
#    0.000   56.000    0.000    0.000    0.000    0.000 
#
# Total GULP energy -446288.432608 kJ/mol
# GULP energy per Si atom -5578.605408 kJ/mol
# Density = 1.673860 g / cm^3
# Si number density = 16.776788 Si / 1000 Ang^3
#
#
#
# Elastic Constant Matrix: (Units=GPa)
#
#
# Indices 1 2 3 4 5 6 
#
# 1 61.9379 46.3695 11.0744 0.0000 0.0000 0.0000
# 2 46.3695 61.9378 11.0732 0.0000 0.0000 0.0000
# 3 11.0744 11.0732 66.6992 0.0000 0.0000 0.0000
# 4 0.0000 0.0000 0.0000 -13.0518 0.0000 0.0000
# 5 0.0000 0.0000 0.0000 0.0000 -13.0489 0.0000
# 6 0.0000 0.0000 0.0000 0.0000 0.0000 13.9693
#
#
#
# Elastic Compliance Matrix: (Units=1/GPa)
#
#
# Indices 1 2 3 4 5 6 
#
# 1 0.036895 -0.027338 -0.001587 0.000000 0.000000 0.000000
# 2 -0.027338 0.036895 -0.001586 0.000000 0.000000 0.000000
# 3 -0.001587 -0.001586 0.015520 0.000000 0.000000 0.000000
# 4 0.000000 0.000000 0.000000 -0.076618 0.000000 0.000000
# 5 0.000000 0.000000 0.000000 0.000000 -0.076635 0.000000
# 6 0.000000 0.000000 0.000000 0.000000 0.000000 0.071586
#
#
# Mechanical properties :
#
#
# Convention : Reuss Voigt Hill
#
# Bulk Modulus (GPa) = 35.35149 36.40101 35.87625
# Shear Modulus (GPa) = 64.02483 5.71090 34.86787
#
# Velocity S-wave (km/s) = 6.18430 1.84701 4.56383
# Velocity P-wave (km/s) = 8.49185 5.12766 7.01443
#
# Compressibility (1/GPa) = 0.02828735
#
# Stress axis : x y z
#
# Youngs Moduli (GPa) = 27.10376 27.10390 64.43477
#
# Poissons Ratio (x) = 0.74096 0.10228
# Poissons Ratio (y) = 0.74095 0.10221
# Poissons Ratio (z) = 0.04302 0.04299
#
# Static dielectric constant tensor:
#      x y z
#    x 1.561330 0.000000 0.000000 
#    y 0.000000 1.561330 0.000000 
#    z 0.000000 0.000000 1.566510 
# 
# From -- ./inp_files/8446.got.cif
#   From: 2010.05.17/outbox.cif.g08.bks.cpg/sg139_5_cif.got.tgz:8446.got - 2010.05.20 13:14:44.
