data_PCOD9571070
_publ_section_title
;
Structure prediction by ZEFSAII (Michael W. Deem and Ramdas Pophale) SiO2 
 PCOD9571070
Probable space group: P 42/N C M
;
_chemical_formula_sum "Si O2"
_cell_formula_units_Z 96
_cell_length_a 15.293961
_cell_length_b 15.293961
_cell_length_c 22.247983
_cell_angle_alpha 90.000000
_cell_angle_beta 90.000000
_cell_angle_gamma 90.000000
_cell_volume 5203.919871
_symmetry_space_group_name_H-M "P 42/N C M"
_symmetry_group_IT_number 138
_space_group.IT_coordinate_system_code '2'
_symmetry_cell_setting 'tetragonal'
loop_
_space_group_symop_operation_xyz
x,y,z
1/2-y,x,1/2+z
1/2-x,1/2-y,z
y,1/2-x,1/2+z
1/2+x,-y,1/2-z
-x,1/2+y,1/2-z
1/2+y,1/2+x,-z
-y,-x,-z
-x,-y,-z
1/2+y,-x,1/2-z
1/2+x,1/2+y,-z
-y,1/2+x,1/2-z
1/2-x,y,1/2+z
x,1/2-y,1/2+z
1/2-y,1/2-x,z
y,x,z
loop_
_atom_site_type_symbol
_atom_site_label
_atom_site_fract_x
_atom_site_fract_y
_atom_site_fract_z
Si Si1 0.498254 0.146880 0.002473
Si Si2 0.435697 0.582429 0.161104
Si Si3 0.176357 0.176357 0.303917
Si Si4 0.823432 0.676569 0.332931
Si Si5 0.915619 0.062195 0.305499
Si Si6 0.246070 0.994385 0.123145
Si Si7 0.000660 0.724880 0.129905
O O1 0.410302 0.089699 0.011907
O O2 0.513712 0.211951 0.057563
O O3 0.493820 0.196882 0.939364
O O4 0.577109 0.077109 0.000000
O O5 0.505467 0.505467 0.146007
O O6 0.429386 0.584901 0.233680
O O7 0.340474 0.562318 0.134292
O O8 0.468286 0.676327 0.138546
O O9 0.250000 0.250000 0.301899
O O10 0.151405 0.151405 0.235574
O O11 0.092450 0.212599 0.338054
O O12 0.750000 0.750000 0.329781
O O13 0.784756 0.592939 0.365491
O O14 0.937486 0.154003 0.337027
O O15 0.822995 0.028347 0.329837
O O16 0.991841 0.991841 0.322140
#
# Coordination Sequence:
#
# PCOD9571070 Si02
#       7
#    16  16   8   8  16  16  16
#     4  11  23  45  70  95 128 170 225 278 324 393
#     4  11  25  43  63  97 142 180 214 269 345 408
#     4  11  22  40  65  99 134 171 228 286 337 389
#     4  11  22  40  66  98 136 171 223 289 339 389
#     4  11  21  40  71  99 131 172 228 284 332 387
#     4  12  24  42  66 102 134 177 223 271 340 397
#     4  12  23  42  68  98 131 179 223 274 332 395
#
# _framework density 18.447633
#
# number of rings (size 3 to 8) (size 9 to 14) (size 15 to 20)
#    0.000    0.667    4.167    5.000    0.000    4.000 
#    3.000    3.333    0.000    0.000    0.000    0.000 
#    0.000    0.000    0.000    0.000    0.000    0.000 
#
# Total GULP energy -537010.860601 kJ/mol
# GULP energy per Si atom -5593.863131 kJ/mol
# Density = 1.840565 g / cm^3
# Si number density = 18.447633 Si / 1000 Ang^3
#
#
#
# Elastic Constant Matrix: (Units=GPa)
#
#
# Indices 1 2 3 4 5 6 
#
# 1 141.6842 47.8837 47.2789 0.0000 0.0000 0.0000
# 2 47.8837 141.6842 47.2789 0.0000 0.0000 0.0000
# 3 47.2789 47.2789 92.6975 0.0000 0.0000 0.0000
# 4 0.0000 0.0000 0.0000 -64.5951 0.0000 0.0000
# 5 0.0000 0.0000 0.0000 0.0000 -64.5951 0.0000
# 6 0.0000 0.0000 0.0000 0.0000 0.0000 37.0450
#
#
#
# Elastic Compliance Matrix: (Units=1/GPa)
#
#
# Indices 1 2 3 4 5 6 
#
# 1 0.008868 -0.001793 -0.003609 0.000000 0.000000 0.000000
# 2 -0.001793 0.008868 -0.003609 0.000000 0.000000 0.000000
# 3 -0.003609 -0.003609 0.014469 0.000000 0.000000 0.000000
# 4 0.000000 0.000000 0.000000 -0.015481 0.000000 0.000000
# 5 0.000000 0.000000 0.000000 0.000000 -0.015481 0.000000
# 6 0.000000 0.000000 0.000000 0.000000 0.000000 0.026994
#
#
# Mechanical properties :
#
#
# Convention : Reuss Voigt Hill
#
# Bulk Modulus (GPa) = 70.49807 73.43875 71.96841
# Shear Modulus (GPa) = 98.06777 -2.85406 47.60685
#
# Velocity S-wave (km/s) = 7.29901 -1.24518 5.08552
# Velocity P-wave (km/s) = 10.45620 6.15048 8.57790
#
# Compressibility (1/GPa) = 0.01418479
#
# Stress axis : x y z
#
# Youngs Moduli (GPa) = 112.76467 112.76467 69.11447
#
# Poissons Ratio (x) = 0.20218 0.24940
# Poissons Ratio (y) = 0.20218 0.24940
# Poissons Ratio (z) = 0.40692 0.40692
#
# Static dielectric constant tensor:
#      x y z
#    x 1.615670 0.000000 0.000000 
#    y 0.000000 1.615670 0.000000 
#    z 0.000000 0.000000 1.619680 
# 
# From -- ./inp_files/6308.got.cif
#   From: 2010.05.17/outbox.cif.g08.bks.cpg/sg138_4_cif.got.tgz:6308.got - 2010.05.20 13:08:53.
