data_PCOD9571523
_publ_section_title
;
Structure prediction by ZEFSAII (Michael W. Deem and Ramdas Pophale) SiO2 
 PCOD9571523
Probable space group: I 4/M M M
;
_chemical_formula_sum "Si O2"
_cell_formula_units_Z 128
_cell_length_a 21.365214
_cell_length_b 21.365214
_cell_length_c 13.641983
_cell_angle_alpha 90.000000
_cell_angle_beta 90.000000
_cell_angle_gamma 90.000000
_cell_volume 6227.188301
_symmetry_space_group_name_H-M "I 4/M M M"
_symmetry_group_IT_number 139
_symmetry_cell_setting 'tetragonal'
loop_
_space_group_symop_operation_xyz
x,y,z
-y,x,z
-x,-y,z
y,-x,z
x,-y,-z
-x,y,-z
y,x,-z
-y,-x,-z
-x,-y,-z
y,-x,-z
x,y,-z
-y,x,-z
-x,y,z
x,-y,z
-y,-x,z
y,x,z
1/2+x,1/2+y,1/2+z
1/2-y,1/2+x,1/2+z
1/2-x,1/2-y,1/2+z
1/2+y,1/2-x,1/2+z
1/2+x,1/2-y,1/2-z
1/2-x,1/2+y,1/2-z
1/2+y,1/2+x,1/2-z
1/2-y,1/2-x,1/2-z
1/2-x,1/2-y,1/2-z
1/2+y,1/2-x,1/2-z
1/2+x,1/2+y,1/2-z
1/2-y,1/2+x,1/2-z
1/2-x,1/2+y,1/2+z
1/2+x,1/2-y,1/2+z
1/2-y,1/2-x,1/2+z
1/2+y,1/2+x,1/2+z
loop_
_atom_site_type_symbol
_atom_site_label
_atom_site_fract_x
_atom_site_fract_y
_atom_site_fract_z
Si Si1 0.867506 0.769368 0.808366
Si Si2 0.574503 0.268373 0.106943
Si Si3 0.500000 0.926519 0.117212
Si Si4 0.168886 0.073087 0.000000
Si Si5 0.368414 0.868571 0.612058
O O1 0.796709 0.796709 0.806465
O O2 0.901654 0.794475 0.710337
O O3 0.899180 0.798436 0.904005
O O4 0.874759 0.694677 0.824939
O O5 0.500000 0.255582 0.113857
O O6 0.613549 0.204191 0.102838
O O7 0.584312 0.300173 0.000000
O O8 0.566727 0.899055 0.149740
O O9 0.500000 0.000000 0.135050
O O10 0.500000 0.914363 0.000000
O O11 0.098401 0.098401 0.000000
O O12 0.173856 0.000000 0.000000
O O13 0.392264 0.856448 0.500000
#
# Coordination Sequence:
#
# PCOD9571523 Si02
#       5
#    32  32  16  16  32
#     4  11  23  39  61  92 127 161 207 266 328 393
#     4  10  21  38  60  81 116 163 210 255 312 374
#     4   9  18  32  54  86 119 161 217 264 302 364
#     4  10  22  41  64  93 127 161 201 251 314 388
#     4  10  19  36  57  82 120 160 204 262 319 370
#
# _framework density 20.555024
#
# number of rings (size 3 to 8) (size 9 to 14) (size 15 to 20)
#    0.000    1.875    2.500    1.500    0.000    4.625 
#    0.000    2.500    0.000    0.000    0.000    0.000 
#    0.000    0.000    0.000   23.250    0.000    0.875 
#
# Total GULP energy -356765.208312 kJ/mol
# GULP energy per Si atom -5574.456380 kJ/mol
# Density = 2.050824 g / cm^3
# Si number density = 20.555024 Si / 1000 Ang^3
#
#
#
# Elastic Constant Matrix: (Units=GPa)
#
#
# Indices 1 2 3 4 5 6 
#
# 1 72.2579 52.0293 38.9280 0.0000 0.0000 0.0000
# 2 52.0293 72.2579 38.9280 0.0000 0.0000 0.0000
# 3 38.9280 38.9280 189.7760 0.0000 0.0000 0.0000
# 4 0.0000 0.0000 0.0000 49.0475 0.0000 0.0000
# 5 0.0000 0.0000 0.0000 0.0000 49.0475 0.0000
# 6 0.0000 0.0000 0.0000 0.0000 0.0000 15.6967
#
#
#
# Elastic Compliance Matrix: (Units=1/GPa)
#
#
# Indices 1 2 3 4 5 6 
#
# 1 0.029334 -0.020101 -0.001894 0.000000 0.000000 0.000000
# 2 -0.020101 0.029334 -0.001894 0.000000 0.000000 0.000000
# 3 -0.001894 -0.001894 0.006046 0.000000 0.000000 0.000000
# 4 0.000000 0.000000 0.000000 0.020388 0.000000 0.000000
# 5 0.000000 0.000000 0.000000 0.000000 0.020388 0.000000
# 6 0.000000 0.000000 0.000000 0.000000 0.000000 0.063708
#
#
# Mechanical properties :
#
#
# Convention : Reuss Voigt Hill
#
# Bulk Modulus (GPa) = 59.04722 66.00693 62.52708
# Shear Modulus (GPa) = 22.45971 36.38542 29.42257
#
# Velocity S-wave (km/s) = 3.30913 4.21188 3.78750
# Velocity P-wave (km/s) = 6.58705 7.47230 7.04360
#
# Compressibility (1/GPa) = 0.01693560
#
# Stress axis : x y z
#
# Youngs Moduli (GPa) = 34.09067 34.09067 165.39069
#
# Poissons Ratio (x) = 0.68527 0.31321
# Poissons Ratio (y) = 0.68527 0.31321
# Poissons Ratio (z) = 0.06456 0.06456
#
# Static dielectric constant tensor:
#      x y z
#    x 1.721810 0.000000 0.000000 
#    y 0.000000 1.721810 0.000000 
#    z 0.000000 0.000000 1.052610 
# 
# From -- ./inp_files/5448.got.cif
#   From: 2010.05.17/outbox.cif.g08.bks.cpg/sg139_3_cif.got.tgz:5448.got - 2010.05.20 13:14:44.
