data_PCOD9571967
_publ_section_title
;
Structure prediction by ZEFSAII (Michael W. Deem and Ramdas Pophale) SiO2 
 PCOD9571967
Probable space group: I 4/M M M
;
_chemical_formula_sum "Si O2"
_cell_formula_units_Z 96
_cell_length_a 27.000000
_cell_length_b 27.000000
_cell_length_c 15.000000
_cell_angle_alpha 90.000000
_cell_angle_beta 90.000000
_cell_angle_gamma 90.000000
_cell_volume 10935.000000
_symmetry_space_group_name_H-M "I 4/M M M"
_symmetry_group_IT_number 139
_symmetry_cell_setting 'tetragonal'
loop_
_space_group_symop_operation_xyz
x,y,z
-y,x,z
-x,-y,z
y,-x,z
x,-y,-z
-x,y,-z
y,x,-z
-y,-x,-z
-x,-y,-z
y,-x,-z
x,y,-z
-y,x,-z
-x,y,z
x,-y,z
-y,-x,z
y,x,z
1/2+x,1/2+y,1/2+z
1/2-y,1/2+x,1/2+z
1/2-x,1/2-y,1/2+z
1/2+y,1/2-x,1/2+z
1/2+x,1/2-y,1/2-z
1/2-x,1/2+y,1/2-z
1/2+y,1/2+x,1/2-z
1/2-y,1/2-x,1/2-z
1/2-x,1/2-y,1/2-z
1/2+y,1/2-x,1/2-z
1/2+x,1/2+y,1/2-z
1/2-y,1/2+x,1/2-z
1/2-x,1/2+y,1/2+z
1/2+x,1/2-y,1/2+z
1/2-y,1/2-x,1/2+z
1/2+y,1/2+x,1/2+z
loop_
_atom_site_type_symbol
_atom_site_label
_atom_site_fract_x
_atom_site_fract_y
_atom_site_fract_z
Si Si1 0.000000 0.079542 0.107758
Si Si2 0.614745 0.054719 0.394157
Si Si3 0.691448 0.771799 0.605445
Si Si4 0.752513 0.407832 0.702490
Si Si5 0.717206 0.887127 0.394883
Si Si6 0.150130 0.558852 0.395764
Si Si7 0.000000 0.803853 0.109461
O O1 0.000000 0.137393 0.129012
O O2 0.951715 0.048286 0.137720
O O3 0.000000 0.077515 0.000000
O O4 0.604105 0.050397 0.500000
O O5 0.669706 0.077063 0.388375
O O6 0.577689 0.097108 0.362611
O O7 0.611114 0.000000 0.353977
O O8 0.680089 0.767060 0.500000
O O9 0.741894 0.741894 0.623343
O O10 0.646912 0.747070 0.660519
O O11 0.699597 0.830365 0.622659
O O12 0.749133 0.403571 0.810280
O O13 0.808047 0.421434 0.670032
O O14 0.719836 0.450820 0.655233
O O15 0.734675 0.889061 0.500000
O O16 0.158034 0.576220 0.500000
O O17 0.152407 0.500000 0.397808
O O18 0.000000 0.795761 0.000000
#
# Coordination Sequence:
#
# PCOD9571967 Si02
#       7
#    16  32  32  32  32  32  16
#     4   8  16  35  62  89 121 159 186 207 253 327
#     4   9  18  32  51  73 100 137 187 239 280 326
#     4  10  21  38  60  85 113 146 187 234 286 346
#     4  12  22  34  55  81 113 151 188 228 283 345
#     4  10  22  38  54  75 106 146 192 240 284 331
#     4  10  19  32  51  75 108 143 178 227 290 348
#     4  11  23  36  56  89 124 152 188 233 282 339
#
# _framework density 8.7791499999999996
#
# number of rings (size 3 to 8) (size 9 to 14) (size 15 to 20)
#    0.000    1.917    2.500    2.250    1.167    2.333 
#    0.000    3.333    0.000    0.000    0.000    2.333 
#    0.000    0.667    0.000    3.667    0.000    0.333 
#
# Total GULP energy -535397.546584 kJ/mol
# GULP energy per Si atom -5577.057777 kJ/mol
# Density = 0.875917 g / cm^3
# Si number density = 8.779150 Si / 1000 Ang^3
#
#
#
# Elastic Constant Matrix: (Units=GPa)
#
#
# Indices 1 2 3 4 5 6 
#
# 1 82.6106 47.5228 26.9899 0.0000 0.0000 0.0000
# 2 47.5228 82.6106 26.9899 0.0000 0.0000 0.0000
# 3 26.9899 26.9899 98.1420 0.0000 0.0000 0.0000
# 4 0.0000 0.0000 0.0000 9.4115 0.0000 0.0000
# 5 0.0000 0.0000 0.0000 0.0000 9.4115 0.0000
# 6 0.0000 0.0000 0.0000 0.0000 0.0000 23.5418
#
#
#
# Elastic Compliance Matrix: (Units=1/GPa)
#
#
# Indices 1 2 3 4 5 6 
#
# 1 0.018587 -0.009913 -0.002385 0.000000 0.000000 0.000000
# 2 -0.009913 0.018587 -0.002385 0.000000 0.000000 0.000000
# 3 -0.002385 -0.002385 0.011501 0.000000 0.000000 0.000000
# 4 0.000000 0.000000 0.000000 0.106253 0.000000 0.000000
# 5 0.000000 0.000000 0.000000 0.000000 0.106253 0.000000
# 6 0.000000 0.000000 0.000000 0.000000 0.000000 0.042478
#
#
# Mechanical properties :
#
#
# Convention : Reuss Voigt Hill
#
# Bulk Modulus (GPa) = 51.79327 51.81871 51.80599
# Shear Modulus (GPa) = 14.72915 19.26365 16.99640
#
# Velocity S-wave (km/s) = 2.89947 3.31588 3.11464
# Velocity P-wave (km/s) = 6.38523 6.65106 6.51950
#
# Compressibility (1/GPa) = 0.01930753
#
# Stress axis : x y z
#
# Youngs Moduli (GPa) = 53.80125 53.80125 86.94649
#
# Poissons Ratio (x) = 0.53333 0.20740
# Poissons Ratio (y) = 0.53333 0.20740
# Poissons Ratio (z) = 0.12834 0.12834
#
# Static dielectric constant tensor:
#      x y z
#    x 1.606870 0.000000 0.000000 
#    y 0.000000 1.606870 0.000000 
#    z 0.000000 0.000000 1.651010 
# 
# From -- ./inp_files/6506.got.cif
#   From: 2010.05.17/outbox.ucp.g08.bks.cvg/sg139_4_cif.got.tgz:6506.got - 2010.06.11 11:42:03.
