data_PCOD9571724
_publ_section_title
;
Structure prediction by ZEFSAII (Michael W. Deem and Ramdas Pophale) SiO2 
 PCOD9571724
Probable space group: I 4/M M M
;
_chemical_formula_sum "Si O2"
_cell_formula_units_Z 128
_cell_length_a 23.382038
_cell_length_b 23.382038
_cell_length_c 14.722785
_cell_angle_alpha 90.000000
_cell_angle_beta 90.000000
_cell_angle_gamma 90.000000
_cell_volume 8049.236614
_symmetry_space_group_name_H-M "I 4/M M M"
_symmetry_group_IT_number 139
_symmetry_cell_setting 'tetragonal'
loop_
_space_group_symop_operation_xyz
x,y,z
-y,x,z
-x,-y,z
y,-x,z
x,-y,-z
-x,y,-z
y,x,-z
-y,-x,-z
-x,-y,-z
y,-x,-z
x,y,-z
-y,x,-z
-x,y,z
x,-y,z
-y,-x,z
y,x,z
1/2+x,1/2+y,1/2+z
1/2-y,1/2+x,1/2+z
1/2-x,1/2-y,1/2+z
1/2+y,1/2-x,1/2+z
1/2+x,1/2-y,1/2-z
1/2-x,1/2+y,1/2-z
1/2+y,1/2+x,1/2-z
1/2-y,1/2-x,1/2-z
1/2-x,1/2-y,1/2-z
1/2+y,1/2-x,1/2-z
1/2+x,1/2+y,1/2-z
1/2-y,1/2+x,1/2-z
1/2-x,1/2+y,1/2+z
1/2+x,1/2-y,1/2+z
1/2-y,1/2-x,1/2+z
1/2+y,1/2+x,1/2+z
loop_
_atom_site_type_symbol
_atom_site_label
_atom_site_fract_x
_atom_site_fract_y
_atom_site_fract_z
Si Si1 0.932779 0.758317 0.338388
Si Si2 0.758047 0.241954 0.890417
Si Si3 0.068005 0.326019 0.500000
Si Si4 0.336914 0.663087 0.108188
Si Si5 0.645576 0.930736 0.000000
Si Si6 0.126571 0.698806 0.179379
O O1 0.912283 0.710767 0.412688
O O2 0.897337 0.815197 0.357087
O O3 0.916356 0.735828 0.239899
O O4 0.000000 0.765673 0.350056
O O5 0.710537 0.289464 0.864383
O O6 0.735805 0.181522 0.852362
O O7 0.760767 0.239234 0.000000
O O8 0.088817 0.391051 0.500000
O O9 0.000000 0.325775 0.500000
O O10 0.337983 0.662018 0.000000
O O11 0.676427 0.907233 0.091148
O O12 0.639453 0.000000 0.000000
O O13 0.150829 0.650829 0.250000
#
# Coordination Sequence:
#
# PCOD9571724 Si02
#       6
#    32  16  16  16  16  32
#     4  11  22  36  56  82 112 146 183 227 276 332
#     4  11  20  34  58  84 114 137 174 237 293 333
#     4  10  20  36  55  77 104 137 187 237 268 313
#     4  11  19  31  55  86 113 141 180 224 282 337
#     4  12  24  38  53  75 111 148 183 229 272 319
#     4  12  21  36  57  81 109 145 183 227 279 336
#
# _framework density 15.90213
#
# number of rings (size 3 to 8) (size 9 to 14) (size 15 to 20)
#    0.000    0.750    7.500    1.875    0.000    0.250 
#    0.000    0.000    0.000    0.375    0.000    0.875 
#    0.000    0.000    0.000    1.125    0.000    0.000 
#
# Total GULP energy -357158.711338 kJ/mol
# GULP energy per Si atom -5580.604865 kJ/mol
# Density = 1.586594 g / cm^3
# Si number density = 15.902130 Si / 1000 Ang^3
#
#
#
# Elastic Constant Matrix: (Units=GPa)
#
#
# Indices 1 2 3 4 5 6 
#
# 1 92.8128 49.8567 38.4703 0.0000 0.0000 0.0000
# 2 49.8567 92.8128 38.4699 0.0000 0.0000 0.0000
# 3 38.4703 38.4699 109.5981 0.0000 0.0000 0.0000
# 4 0.0000 0.0000 0.0000 21.0312 0.0000 0.0000
# 5 0.0000 0.0000 0.0000 0.0000 21.0313 0.0000
# 6 0.0000 0.0000 0.0000 0.0000 0.0000 20.0076
#
#
#
# Elastic Compliance Matrix: (Units=1/GPa)
#
#
# Indices 1 2 3 4 5 6 
#
# 1 0.015963 -0.007317 -0.003035 0.000000 0.000000 0.000000
# 2 -0.007317 0.015963 -0.003035 0.000000 0.000000 0.000000
# 3 -0.003035 -0.003035 0.011255 0.000000 0.000000 0.000000
# 4 0.000000 0.000000 0.000000 0.047548 0.000000 0.000000
# 5 0.000000 0.000000 0.000000 0.000000 0.047548 0.000000
# 6 0.000000 0.000000 0.000000 0.000000 0.000000 0.049981
#
#
# Mechanical properties :
#
#
# Convention : Reuss Voigt Hill
#
# Bulk Modulus (GPa) = 60.94858 60.97972 60.96415
# Shear Modulus (GPa) = 22.67576 23.64247 23.15912
#
# Velocity S-wave (km/s) = 3.78028 3.86002 3.82036
# Velocity P-wave (km/s) = 7.58054 7.63521 7.60792
#
# Compressibility (1/GPa) = 0.01640727
#
# Stress axis : x y z
#
# Youngs Moduli (GPa) = 62.64591 62.64609 88.85154
#
# Poissons Ratio (x) = 0.45837 0.26965
# Poissons Ratio (y) = 0.45837 0.26964
# Poissons Ratio (z) = 0.19012 0.19011
#
# Static dielectric constant tensor:
#      x y z
#    x 1.524190 0.000000 0.000000 
#    y 0.000000 1.524190 0.000000 
#    z 0.000000 0.000000 1.564980 
# 
# From -- ./inp_files/5509.got.cif
#   From: 2010.05.17/outbox.cif.g08.bks.cpg/sg139_3_cif.got.tgz:5509.got - 2010.05.20 13:14:44.
