data_PCOD9571883
_publ_section_title
;
Structure prediction by ZEFSAII (Michael W. Deem and Ramdas Pophale) SiO2 
 PCOD9571883
Probable space group: I 4/M M M
;
_chemical_formula_sum "Si O2"
_cell_formula_units_Z 192
_cell_length_a 19.045548
_cell_length_b 19.045548
_cell_length_c 26.864388
_cell_angle_alpha 90.000000
_cell_angle_beta 90.000000
_cell_angle_gamma 90.000000
_cell_volume 9744.597329
_symmetry_space_group_name_H-M "I 4/M M M"
_symmetry_group_IT_number 139
_symmetry_cell_setting 'tetragonal'
loop_
_space_group_symop_operation_xyz
x,y,z
-y,x,z
-x,-y,z
y,-x,z
x,-y,-z
-x,y,-z
y,x,-z
-y,-x,-z
-x,-y,-z
y,-x,-z
x,y,-z
-y,x,-z
-x,y,z
x,-y,z
-y,-x,z
y,x,z
1/2+x,1/2+y,1/2+z
1/2-y,1/2+x,1/2+z
1/2-x,1/2-y,1/2+z
1/2+y,1/2-x,1/2+z
1/2+x,1/2-y,1/2-z
1/2-x,1/2+y,1/2-z
1/2+y,1/2+x,1/2-z
1/2-y,1/2-x,1/2-z
1/2-x,1/2-y,1/2-z
1/2+y,1/2-x,1/2-z
1/2+x,1/2+y,1/2-z
1/2-y,1/2+x,1/2-z
1/2-x,1/2+y,1/2+z
1/2+x,1/2-y,1/2+z
1/2-y,1/2-x,1/2+z
1/2+y,1/2+x,1/2+z
loop_
_atom_site_type_symbol
_atom_site_label
_atom_site_fract_x
_atom_site_fract_y
_atom_site_fract_z
Si Si1 0.304980 0.581433 0.802811
Si Si2 0.500000 0.768800 0.940665
Si Si3 0.416223 0.855153 0.198694
Si Si4 0.891016 0.000000 0.439582
Si Si5 0.421073 0.174630 0.381323
Si Si6 0.217654 0.664188 0.060153
Si Si7 0.813392 0.923771 0.182971
O O1 0.316650 0.500000 0.817781
O O2 0.364142 0.635859 0.820572
O O3 0.225306 0.604311 0.814135
O O4 0.307351 0.581566 0.742486
O O5 0.500000 0.687909 0.927318
O O6 0.419508 0.786456 0.925157
O O7 0.500000 0.781799 0.000000
O O8 0.500000 0.855733 0.205562
O O9 0.380374 0.880374 0.250000
O O10 0.392609 0.903696 0.152998
O O11 0.932404 0.932404 0.422018
O O12 0.894245 0.000000 0.500000
O O13 0.500000 0.169430 0.402923
O O14 0.357301 0.190063 0.418969
O O15 0.420630 0.237955 0.341796
O O16 0.284480 0.715521 0.075603
O O17 0.220080 0.664957 0.000000
O O18 0.861919 0.861919 0.164217
O O19 0.845098 0.000000 0.171689
#
# Coordination Sequence:
#
# PCOD9571883 Si02
#       7
#    32  16  32  16  32  32  32
#     4   9  18  32  51  78 111 145 184 228 277 337
#     4   9  17  32  54  78 107 141 181 229 275 326
#     4  11  22  37  56  81 113 149 193 242 293 348
#     4   8  12  19  38  71 104 130 161 207 264 320
#     4  11  23  38  58  83 111 148 193 241 292 344
#     4  10  22  40  61  85 115 152 192 236 290 349
#     4   9  17  31  51  78 111 144 181 226 278 338
#
# _framework density 19.703226000000001
#
# number of rings (size 3 to 8) (size 9 to 14) (size 15 to 20)
#    0.000    2.250    1.667    1.750    1.167    5.500 
#    0.000    1.667    0.000    1.500    0.000    0.000 
#    0.000    0.000    0.000   15.500    0.000    0.167 
#
# Total GULP energy -534858.901694 kJ/mol
# GULP energy per Si atom -5571.446893 kJ/mol
# Density = 1.965838 g / cm^3
# Si number density = 19.703226 Si / 1000 Ang^3
#
#
#
# Elastic Constant Matrix: (Units=GPa)
#
#
# Indices 1 2 3 4 5 6 
#
# 1 105.5261 46.7224 18.2034 0.0000 0.0000 0.0000
# 2 46.7224 105.5261 18.2034 0.0000 0.0000 0.0000
# 3 18.2034 18.2034 42.7228 0.0000 0.0000 0.0000
# 4 0.0000 0.0000 0.0000 18.9270 0.0000 0.0000
# 5 0.0000 0.0000 0.0000 0.0000 18.9270 0.0000
# 6 0.0000 0.0000 0.0000 0.0000 0.0000 39.5296
#
#
#
# Elastic Compliance Matrix: (Units=1/GPa)
#
#
# Indices 1 2 3 4 5 6 
#
# 1 0.012160 -0.004846 -0.003116 0.000000 0.000000 0.000000
# 2 -0.004846 0.012160 -0.003116 0.000000 0.000000 0.000000
# 3 -0.003116 -0.003116 0.026062 0.000000 0.000000 0.000000
# 4 0.000000 0.000000 0.000000 0.052835 0.000000 0.000000
# 5 0.000000 0.000000 0.000000 0.000000 0.052835 0.000000
# 6 0.000000 0.000000 0.000000 0.000000 0.000000 0.025298
#
#
# Mechanical properties :
#
#
# Convention : Reuss Voigt Hill
#
# Bulk Modulus (GPa) = 35.43024 46.67038 41.05031
# Shear Modulus (GPa) = 23.48380 26.85310 25.16845
#
# Velocity S-wave (km/s) = 3.45610 3.69572 3.57792
# Velocity P-wave (km/s) = 5.82642 6.47682 6.16021
#
# Compressibility (1/GPa) = 0.02822448
#
# Stress axis : x y z
#
# Youngs Moduli (GPa) = 82.23998 82.23998 38.36988
#
# Poissons Ratio (x) = 0.39855 0.11956
# Poissons Ratio (y) = 0.39855 0.11956
# Poissons Ratio (z) = 0.25627 0.25627
#
# Static dielectric constant tensor:
#      x y z
#    x 1.731770 0.000000 0.000000 
#    y 0.000000 1.731770 0.000000 
#    z 0.000000 0.000000 1.707530 
# 
# From -- ./inp_files/14342.got.cif
#   From: 2010.05.17/outbox.cif.g08.bks.cpg/sg139_8_cif.got.tgz:14342.got - 2010.05.20 13:14:44.
