data_PCOD9571670
_publ_section_title
;
Structure prediction by ZEFSAII (Michael W. Deem and Ramdas Pophale) SiO2 
 PCOD9571670
Probable space group: I 4/M M M
;
_chemical_formula_sum "Si O2"
_cell_formula_units_Z 160
_cell_length_a 19.824676
_cell_length_b 19.824676
_cell_length_c 23.054832
_cell_angle_alpha 90.000000
_cell_angle_beta 90.000000
_cell_angle_gamma 90.000000
_cell_volume 9060.958856
_symmetry_space_group_name_H-M "I 4/M M M"
_symmetry_group_IT_number 139
_symmetry_cell_setting 'tetragonal'
loop_
_space_group_symop_operation_xyz
x,y,z
-y,x,z
-x,-y,z
y,-x,z
x,-y,-z
-x,y,-z
y,x,-z
-y,-x,-z
-x,-y,-z
y,-x,-z
x,y,-z
-y,x,-z
-x,y,z
x,-y,z
-y,-x,z
y,x,z
1/2+x,1/2+y,1/2+z
1/2-y,1/2+x,1/2+z
1/2-x,1/2-y,1/2+z
1/2+y,1/2-x,1/2+z
1/2+x,1/2-y,1/2-z
1/2-x,1/2+y,1/2-z
1/2+y,1/2+x,1/2-z
1/2-y,1/2-x,1/2-z
1/2-x,1/2-y,1/2-z
1/2+y,1/2-x,1/2-z
1/2+x,1/2+y,1/2-z
1/2-y,1/2+x,1/2-z
1/2-x,1/2+y,1/2+z
1/2+x,1/2-y,1/2+z
1/2-y,1/2-x,1/2+z
1/2+y,1/2+x,1/2+z
loop_
_atom_site_type_symbol
_atom_site_label
_atom_site_fract_x
_atom_site_fract_y
_atom_site_fract_z
Si Si1 0.193648 0.919639 0.332025
Si Si2 0.674299 0.077023 0.104797
Si Si3 0.080425 0.699014 0.567645
Si Si4 0.179348 0.074516 0.931985
Si Si5 0.076529 0.311137 0.240649
O O1 0.129090 0.870910 0.329408
O O2 0.238136 0.904835 0.389817
O O3 0.244737 0.906871 0.277993
O O4 0.177040 0.000000 0.331937
O O5 0.618919 0.132910 0.090870
O O6 0.742689 0.093670 0.071235
O O7 0.697603 0.077201 0.171673
O O8 0.652656 0.000000 0.090537
O O9 0.097907 0.711083 0.500000
O O10 0.000000 0.687654 0.570941
O O11 0.129861 0.129861 0.905704
O O12 0.171285 0.000000 0.905434
O O13 0.163692 0.068813 0.000000
O O14 0.129382 0.370619 0.250000
O O15 0.000000 0.330799 0.258254
#
# Coordination Sequence:
#
# PCOD9571670 Si02
#       5
#    32  32  32  32  32
#     4  10  22  40  60  83 111 143 184 233 284 336
#     4  10  20  34  54  80 112 147 183 221 263 320
#     4  10  21  37  56  80 112 147 185 230 278 329
#     4   9  18  32  49  71 101 136 175 219 263 308
#     4  10  20  36  57  83 113 145 181 219 264 320
#
# _framework density 17.658175
#
# number of rings (size 3 to 8) (size 9 to 14) (size 15 to 20)
#    0.000    2.200    2.000    0.600    0.000    4.600 
#    0.000    4.000    0.000    0.000    0.000    8.400 
#    0.000    0.000    0.000    0.000    0.000    0.000 
#
# Total GULP energy -445714.036737 kJ/mol
# GULP energy per Si atom -5571.425459 kJ/mol
# Density = 1.761798 g / cm^3
# Si number density = 17.658175 Si / 1000 Ang^3
#
#
#
# Elastic Constant Matrix: (Units=GPa)
#
#
# Indices 1 2 3 4 5 6 
#
# 1 99.2003 92.1917 33.3987 0.0000 0.0000 0.0000
# 2 92.1917 99.1986 33.3995 0.0000 0.0000 0.0000
# 3 33.3987 33.3995 72.4835 0.0000 0.0000 0.0000
# 4 0.0000 0.0000 0.0000 17.1881 0.0000 0.0000
# 5 0.0000 0.0000 0.0000 0.0000 17.1883 0.0000
# 6 0.0000 0.0000 0.0000 0.0000 0.0000 48.7571
#
#
#
# Elastic Compliance Matrix: (Units=1/GPa)
#
#
# Indices 1 2 3 4 5 6 
#
# 1 0.074461 -0.068236 -0.002868 0.000000 0.000000 0.000000
# 2 -0.068236 0.074463 -0.002870 0.000000 0.000000 0.000000
# 3 -0.002868 -0.002870 0.016440 0.000000 0.000000 0.000000
# 4 0.000000 0.000000 0.000000 0.058180 0.000000 0.000000
# 5 0.000000 0.000000 0.000000 0.000000 0.058179 0.000000
# 6 0.000000 0.000000 0.000000 0.000000 0.000000 0.020510
#
#
# Mechanical properties :
#
#
# Convention : Reuss Voigt Hill
#
# Bulk Modulus (GPa) = 57.41566 65.42913 61.42239
# Shear Modulus (GPa) = 10.96526 24.08619 17.52572
#
# Velocity S-wave (km/s) = 2.49464 3.69728 3.15381
# Velocity P-wave (km/s) = 6.39400 7.44044 6.93698
#
# Compressibility (1/GPa) = 0.01741685
#
# Stress axis : x y z
#
# Youngs Moduli (GPa) = 13.42987 13.42949 60.82675
#
# Poissons Ratio (x) = 0.91637 0.17443
# Poissons Ratio (y) = 0.91640 0.17458
# Poissons Ratio (z) = 0.03851 0.03854
#
# Static dielectric constant tensor:
#      x y z
#    x 1.598500 0.000000 0.000000 
#    y 0.000000 1.598500 0.000000 
#    z 0.000000 0.000000 1.567650 
# 
# From -- ./inp_files/12931.got.cif
#   From: 2010.05.17/outbox.cif.g08.bks.cpg/sg139_7_cif.got.tgz:12931.got - 2010.05.20 13:14:44.
