data_PCOD9571511
_publ_section_title
;
Structure prediction by ZEFSAII (Michael W. Deem and Ramdas Pophale) SiO2 
 PCOD9571511
Probable space group: I 4/M M M
;
_chemical_formula_sum "Si O2"
_cell_formula_units_Z 160
_cell_length_a 21.222148
_cell_length_b 21.222148
_cell_length_c 19.193832
_cell_angle_alpha 90.000000
_cell_angle_beta 90.000000
_cell_angle_gamma 90.000000
_cell_volume 8644.509721
_symmetry_space_group_name_H-M "I 4/M M M"
_symmetry_group_IT_number 139
_symmetry_cell_setting 'tetragonal'
loop_
_space_group_symop_operation_xyz
x,y,z
-y,x,z
-x,-y,z
y,-x,z
x,-y,-z
-x,y,-z
y,x,-z
-y,-x,-z
-x,-y,-z
y,-x,-z
x,y,-z
-y,x,-z
-x,y,z
x,-y,z
-y,-x,z
y,x,z
1/2+x,1/2+y,1/2+z
1/2-y,1/2+x,1/2+z
1/2-x,1/2-y,1/2+z
1/2+y,1/2-x,1/2+z
1/2+x,1/2-y,1/2-z
1/2-x,1/2+y,1/2-z
1/2+y,1/2+x,1/2-z
1/2-y,1/2-x,1/2-z
1/2-x,1/2-y,1/2-z
1/2+y,1/2-x,1/2-z
1/2+x,1/2+y,1/2-z
1/2-y,1/2+x,1/2-z
1/2-x,1/2+y,1/2+z
1/2+x,1/2-y,1/2+z
1/2-y,1/2-x,1/2+z
1/2+y,1/2+x,1/2+z
loop_
_atom_site_type_symbol
_atom_site_label
_atom_site_fract_x
_atom_site_fract_y
_atom_site_fract_z
Si Si1 0.174392 0.928319 0.210617
Si Si2 0.823441 0.072603 0.379488
Si Si3 0.831931 0.729215 0.812471
Si Si4 0.929359 0.574617 0.167110
Si Si5 0.811782 0.629750 0.081782
O O1 0.116811 0.883189 0.188297
O O2 0.177335 0.925875 0.295026
O O3 0.241262 0.900969 0.184480
O O4 0.164519 0.000000 0.189325
O O5 0.877052 0.122949 0.402259
O O6 0.753891 0.093635 0.403825
O O7 0.836267 0.000000 0.400690
O O8 0.789060 0.789060 0.793501
O O9 0.819533 0.680468 0.750000
O O10 0.807500 0.698184 0.882766
O O11 0.930911 0.500000 0.154064
O O12 0.918303 0.581698 0.250000
O O13 0.872188 0.601480 0.122074
O O14 0.000000 0.599929 0.151350
O O15 0.822795 0.631296 0.000000
#
# Coordination Sequence:
#
# PCOD9571511 Si02
#       5
#    32  32  32  32  32
#     4   9  18  33  56  84 112 145 187 237 290 345
#     4  10  21  37  57  83 114 150 194 242 293 348
#     4  10  19  35  56  77 105 144 188 230 277 335
#     4   9  20  39  60  81 106 142 189 234 278 336
#     4  12  24  36  54  84 119 151 188 236 289 347
#
# _framework density 18.508858
#
# number of rings (size 3 to 8) (size 9 to 14) (size 15 to 20)
#    0.000    2.000    2.000    2.400    0.000    4.800 
#    0.000    3.000    0.000    0.000    0.000    1.400 
#    0.000    0.000    0.000    4.400    0.000    0.200 
#
# Total GULP energy -446076.887204 kJ/mol
# GULP energy per Si atom -5575.961090 kJ/mol
# Density = 1.846673 g / cm^3
# Si number density = 18.508858 Si / 1000 Ang^3
#
#
#
# Elastic Constant Matrix: (Units=GPa)
#
#
# Indices 1 2 3 4 5 6 
#
# 1 107.5617 82.5706 31.5396 0.0000 0.0000 0.0000
# 2 82.5706 107.5629 31.5397 0.0000 0.0000 0.0000
# 3 31.5396 31.5397 55.2634 0.0000 0.0000 0.0000
# 4 0.0000 0.0000 0.0000 4.6602 0.0000 0.0000
# 5 0.0000 0.0000 0.0000 0.0000 4.6603 0.0000
# 6 0.0000 0.0000 0.0000 0.0000 0.0000 31.8287
#
#
#
# Elastic Compliance Matrix: (Units=1/GPa)
#
#
# Indices 1 2 3 4 5 6 
#
# 1 0.023251 -0.016763 -0.003703 0.000000 0.000000 0.000000
# 2 -0.016763 0.023250 -0.003703 0.000000 0.000000 0.000000
# 3 -0.003703 -0.003703 0.022322 0.000000 0.000000 0.000000
# 4 0.000000 0.000000 0.000000 0.214585 0.000000 0.000000
# 5 0.000000 0.000000 0.000000 0.000000 0.214581 0.000000
# 6 0.000000 0.000000 0.000000 0.000000 0.000000 0.031418
#
#
# Mechanical properties :
#
#
# Convention : Reuss Voigt Hill
#
# Bulk Modulus (GPa) = 48.81281 62.40977 55.61129
# Shear Modulus (GPa) = 8.55327 16.54570 12.54948
#
# Velocity S-wave (km/s) = 2.15202 2.99312 2.60672
# Velocity P-wave (km/s) = 5.71007 6.76292 6.25867
#
# Compressibility (1/GPa) = 0.02048642
#
# Stress axis : x y z
#
# Youngs Moduli (GPa) = 43.00939 43.00994 44.79961
#
# Poissons Ratio (x) = 0.72096 0.16588
# Poissons Ratio (y) = 0.72095 0.16588
# Poissons Ratio (z) = 0.15926 0.15925
#
# Static dielectric constant tensor:
#      x y z
#    x 1.697710 0.000000 0.000000 
#    y 0.000000 1.697710 0.000000 
#    z 0.000000 0.000000 1.603750 
# 
# From -- ./inp_files/8387.got.cif
#   From: 2010.05.17/outbox.cif.g08.bks.cpg/sg139_5_cif.got.tgz:8387.got - 2010.05.20 13:14:44.
