data_PCOD9571069
_publ_section_title
;
Structure prediction by ZEFSAII (Michael W. Deem and Ramdas Pophale) SiO2 
 PCOD9571069
Probable space group: P 42/N C M
;
_chemical_formula_sum "Si O2"
_cell_formula_units_Z 72
_cell_length_a 11.573478
_cell_length_b 11.573478
_cell_length_c 28.285130
_cell_angle_alpha 90.000000
_cell_angle_beta 90.000000
_cell_angle_gamma 90.000000
_cell_volume 3788.662854
_symmetry_space_group_name_H-M "P 42/N C M"
_symmetry_group_IT_number 138
_space_group.IT_coordinate_system_code '2'
_symmetry_cell_setting 'tetragonal'
loop_
_space_group_symop_operation_xyz
x,y,z
1/2-y,x,1/2+z
1/2-x,1/2-y,z
y,1/2-x,1/2+z
1/2+x,-y,1/2-z
-x,1/2+y,1/2-z
1/2+y,1/2+x,-z
-y,-x,-z
-x,-y,-z
1/2+y,-x,1/2-z
1/2+x,1/2+y,-z
-y,1/2+x,1/2-z
1/2-x,y,1/2+z
x,1/2-y,1/2+z
1/2-y,1/2-x,z
y,x,z
loop_
_atom_site_type_symbol
_atom_site_label
_atom_site_fract_x
_atom_site_fract_y
_atom_site_fract_z
Si Si1 0.775431 0.112436 0.875075
Si Si2 0.656209 0.843792 0.532510
Si Si3 0.273885 0.929617 0.230501
Si Si4 0.545142 0.954859 0.625525
Si Si5 0.343545 0.156456 0.282419
Si Si6 0.066956 0.742711 0.982074
O O1 0.750000 0.250000 0.876764
O O2 0.718657 0.070633 0.826204
O O3 0.735476 0.063779 0.925418
O O4 0.910008 0.077070 0.872464
O O5 0.750000 0.750000 0.547972
O O6 0.596152 0.903849 0.577199
O O7 0.556093 0.779751 0.502760
O O8 0.371176 0.846403 0.253255
O O9 0.286815 0.055209 0.251792
O O10 0.603134 0.896867 0.670597
O O11 0.250000 0.250000 0.295730
O O12 0.123499 0.623499 0.000000
O O13 0.157016 0.842985 0.000000
#
# Coordination Sequence:
#
# PCOD9571069 Si02
#       6
#    16   8  16   8   8  16
#     4  12  21  39  69  96 119 167 219 267 325 383
#     4  12  25  42  62  96 137 173 204 262 333 388
#     4  11  23  44  68  90 129 169 218 269 325 383
#     4  12  22  40  70  91 128 167 217 266 320 388
#     4  12  27  41  63  96 132 168 214 269 329 383
#     4  11  21  40  68  92 125 161 217 266 311 380
#
# _framework density 19.004066000000002
#
# number of rings (size 3 to 8) (size 9 to 14) (size 15 to 20)
#    0.000    0.444    8.889    1.333    3.111    0.444 
#    2.000    0.000    0.000    0.000    0.000    0.000 
#    0.000    0.000    0.000    0.000    0.000    0.000 
#
# Total GULP energy -402361.564867 kJ/mol
# GULP energy per Si atom -5588.355068 kJ/mol
# Density = 1.896081 g / cm^3
# Si number density = 19.004066 Si / 1000 Ang^3
#
#
#
# Elastic Constant Matrix: (Units=GPa)
#
#
# Indices 1 2 3 4 5 6 
#
# 1 304.4212 -206.8645 10.7322 0.0000 0.0000 0.0000
# 2 -206.8645 304.4300 10.7594 0.0000 0.0000 0.0000
# 3 10.7322 10.7594 166.1845 0.0000 0.0000 0.0000
# 4 0.0000 0.0000 0.0000 36.6008 0.0000 0.0000
# 5 0.0000 0.0000 0.0000 0.0000 36.2832 0.0000
# 6 0.0000 0.0000 0.0000 0.0000 0.0000 22.6212
#
#
#
# Elastic Compliance Matrix: (Units=1/GPa)
#
#
# Indices 1 2 3 4 5 6 
#
# 1 0.006177 0.004221 -0.000672 0.000000 0.000000 0.000000
# 2 0.004221 0.006177 -0.000673 0.000000 0.000000 0.000000
# 3 -0.000672 -0.000673 0.006104 0.000000 0.000000 0.000000
# 4 0.000000 0.000000 0.000000 0.027322 0.000000 0.000000
# 5 0.000000 0.000000 0.000000 0.000000 0.027561 0.000000
# 6 0.000000 0.000000 0.000000 0.000000 0.000000 0.044206
#
#
# Mechanical properties :
#
#
# Convention : Reuss Voigt Hill
#
# Bulk Modulus (GPa) = 41.30334 44.92110 43.11222
# Shear Modulus (GPa) = 41.71362 83.12827 62.42095
#
# Velocity S-wave (km/s) = 4.69015 6.62098 5.73737
# Velocity P-wave (km/s) = 7.14920 9.06304 8.16241
#
# Compressibility (1/GPa) = 0.02421112
#
# Stress axis : x y z
#
# Youngs Moduli (GPa) = 161.89030 161.89311 163.81732
#
# Poissons Ratio (x) = -0.68337 0.11012
# Poissons Ratio (y) = -0.68336 0.11017
# Poissons Ratio (z) = 0.10882 0.10888
#
# Static dielectric constant tensor:
#      x y z
#    x 1.610760 0.000000 0.000000 
#    y 0.000000 1.610760 0.000000 
#    z 0.000000 0.000000 1.657070 
# 
# From -- ./inp_files/7453.got.cif
#   From: 2010.05.17/outbox.cif.g08.bks.cpg/sg138_4_cif.got.tgz:7453.got - 2010.05.20 13:08:53.
