data_PCOD9571365
_publ_section_title
;
Structure prediction by ZEFSAII (Michael W. Deem and Ramdas Pophale) SiO2 
 PCOD9571365
Probable space group: I 4/M M M
;
_chemical_formula_sum "Si O2"
_cell_formula_units_Z 192
_cell_length_a 26.618658
_cell_length_b 26.618658
_cell_length_c 15.378684
_cell_angle_alpha 90.000000
_cell_angle_beta 90.000000
_cell_angle_gamma 90.000000
_cell_volume 10896.611973
_symmetry_space_group_name_H-M "I 4/M M M"
_symmetry_group_IT_number 139
_symmetry_cell_setting 'tetragonal'
loop_
_space_group_symop_operation_xyz
x,y,z
-y,x,z
-x,-y,z
y,-x,z
x,-y,-z
-x,y,-z
y,x,-z
-y,-x,-z
-x,-y,-z
y,-x,-z
x,y,-z
-y,x,-z
-x,y,z
x,-y,z
-y,-x,z
y,x,z
1/2+x,1/2+y,1/2+z
1/2-y,1/2+x,1/2+z
1/2-x,1/2-y,1/2+z
1/2+y,1/2-x,1/2+z
1/2+x,1/2-y,1/2-z
1/2-x,1/2+y,1/2-z
1/2+y,1/2+x,1/2-z
1/2-y,1/2-x,1/2-z
1/2-x,1/2-y,1/2-z
1/2+y,1/2-x,1/2-z
1/2+x,1/2+y,1/2-z
1/2-y,1/2+x,1/2-z
1/2-x,1/2+y,1/2+z
1/2+x,1/2-y,1/2+z
1/2-y,1/2-x,1/2+z
1/2+y,1/2+x,1/2+z
loop_
_atom_site_type_symbol
_atom_site_label
_atom_site_fract_x
_atom_site_fract_y
_atom_site_fract_z
Si Si1 0.942306 0.139703 0.826973
Si Si2 0.817597 0.903470 0.000000
Si Si3 0.858774 0.441143 0.258292
Si Si4 0.441550 0.218037 0.899264
Si Si5 0.375834 0.704896 0.795168
Si Si6 0.855897 0.703408 0.823867
Si Si7 0.234388 0.680211 0.500000
O O1 0.910788 0.089213 0.842476
O O2 0.934919 0.173987 0.912794
O O3 0.916923 0.167817 0.746113
O O4 0.000000 0.129694 0.811934
O O5 0.766935 0.871426 0.000000
O O6 0.860910 0.860910 0.000000
O O7 0.864285 0.500000 0.278639
O O8 0.910846 0.410846 0.250000
O O9 0.828897 0.436706 0.166431
O O10 0.823052 0.410534 0.325858
O O11 0.500000 0.235375 0.890804
O O12 0.402703 0.260005 0.865699
O O13 0.432984 0.205277 0.000000
O O14 0.328337 0.671664 0.824534
O O15 0.359759 0.740459 0.714252
O O16 0.827078 0.672923 0.750000
O O17 0.824409 0.702864 0.912059
O O18 0.272649 0.727352 0.500000
#
# Coordination Sequence:
#
# PCOD9571365 Si02
#       7
#    32  16  32  32  32  32  16
#     4  10  19  31  48  71 101 137 176 221 270 316
#     4   9  17  31  48  69  97 133 176 220 261 305
#     4   9  19  38  60  83 112 143 175 222 276 327
#     4   9  18  34  56  77 101 140 181 214 263 328
#     4  10  19  32  51  75 104 134 174 227 267 309
#     4  10  21  38  55  78 112 145 180 225 270 321
#     4  11  20  35  57  78 110 155 190 220 269 325
#
# _framework density 17.620155
#
# number of rings (size 3 to 8) (size 9 to 14) (size 15 to 20)
#    0.000    2.333    1.667    1.250    0.000    2.667 
#   13.500    0.417    0.000    1.500    0.000    2.333 
#    0.000    0.000    0.000   15.500    0.000    0.000 
#
# Total GULP energy -535332.685695 kJ/mol
# GULP energy per Si atom -5576.382143 kJ/mol
# Density = 1.758005 g / cm^3
# Si number density = 17.620155 Si / 1000 Ang^3
#
#
#
# Elastic Constant Matrix: (Units=GPa)
#
#
# Indices 1 2 3 4 5 6 
#
# 1 82.9137 47.6569 23.6898 0.0000 0.0000 0.0000
# 2 47.6569 82.9138 23.6930 0.0000 0.0000 0.0000
# 3 23.6898 23.6930 78.7309 0.0000 0.0000 0.0000
# 4 0.0000 0.0000 0.0000 17.0419 0.0000 0.0000
# 5 0.0000 0.0000 0.0000 0.0000 17.0421 0.0000
# 6 0.0000 0.0000 0.0000 0.0000 0.0000 25.5862
#
#
#
# Elastic Compliance Matrix: (Units=1/GPa)
#
#
# Indices 1 2 3 4 5 6 
#
# 1 0.018480 -0.009883 -0.002586 0.000000 0.000000 0.000000
# 2 -0.009883 0.018481 -0.002588 0.000000 0.000000 0.000000
# 3 -0.002586 -0.002588 0.014259 0.000000 0.000000 0.000000
# 4 0.000000 0.000000 0.000000 0.058679 0.000000 0.000000
# 5 0.000000 0.000000 0.000000 0.000000 0.058678 0.000000
# 6 0.000000 0.000000 0.000000 0.000000 0.000000 0.039083
#
#
# Mechanical properties :
#
#
# Convention : Reuss Voigt Hill
#
# Bulk Modulus (GPa) = 47.38207 48.29311 47.83759
# Shear Modulus (GPa) = 20.42405 21.90195 21.16300
#
# Velocity S-wave (km/s) = 3.40829 3.52945 3.46940
# Velocity P-wave (km/s) = 6.51443 6.63903 6.57703
#
# Compressibility (1/GPa) = 0.02110503
#
# Stress axis : x y z
#
# Youngs Moduli (GPa) = 54.11206 54.11075 70.13346
#
# Poissons Ratio (x) = 0.53477 0.18140
# Poissons Ratio (y) = 0.53478 0.18149
# Poissons Ratio (z) = 0.13996 0.14003
#
# Static dielectric constant tensor:
#      x y z
#    x 1.612760 0.000000 0.000000 
#    y 0.000000 1.612760 0.000000 
#    z 0.000000 0.000000 1.623480 
# 
# From -- ./inp_files/6495.got.cif
#   From: 2010.05.17/outbox.cif.g08.bks.cpg/sg139_4_cif.got.tgz:6495.got - 2010.05.20 13:14:44.
