data_PCOD9571406
_publ_section_title
;
Structure prediction by ZEFSAII (Michael W. Deem and Ramdas Pophale) SiO2 
 PCOD9571406
Probable space group: I 4/M M M
;
_chemical_formula_sum "Si O2"
_cell_formula_units_Z 240
_cell_length_a 21.276174
_cell_length_b 21.276174
_cell_length_c 31.008663
_cell_angle_alpha 90.000000
_cell_angle_beta 90.000000
_cell_angle_gamma 90.000000
_cell_volume 14036.864511
_symmetry_space_group_name_H-M "I 4/M M M"
_symmetry_group_IT_number 139
_symmetry_cell_setting 'tetragonal'
loop_
_space_group_symop_operation_xyz
x,y,z
-y,x,z
-x,-y,z
y,-x,z
x,-y,-z
-x,y,-z
y,x,-z
-y,-x,-z
-x,-y,-z
y,-x,-z
x,y,-z
-y,x,-z
-x,y,z
x,-y,z
-y,-x,z
y,x,z
1/2+x,1/2+y,1/2+z
1/2-y,1/2+x,1/2+z
1/2-x,1/2-y,1/2+z
1/2+y,1/2-x,1/2+z
1/2+x,1/2-y,1/2-z
1/2-x,1/2+y,1/2-z
1/2+y,1/2+x,1/2-z
1/2-y,1/2-x,1/2-z
1/2-x,1/2-y,1/2-z
1/2+y,1/2-x,1/2-z
1/2+x,1/2+y,1/2-z
1/2-y,1/2+x,1/2-z
1/2-x,1/2+y,1/2+z
1/2+x,1/2-y,1/2+z
1/2-y,1/2-x,1/2+z
1/2+y,1/2+x,1/2+z
loop_
_atom_site_type_symbol
_atom_site_label
_atom_site_fract_x
_atom_site_fract_y
_atom_site_fract_z
Si Si1 0.425580 0.256436 0.249350
Si Si2 0.069945 0.726529 0.095574
Si Si3 0.072186 0.173366 0.166779
Si Si4 0.199148 0.696128 0.051344
Si Si5 0.429118 0.103600 0.654990
Si Si6 0.928179 0.825927 0.337414
Si Si7 0.430076 0.801123 0.106956
Si Si8 0.120119 0.620119 0.250000
O O1 0.500000 0.241192 0.252180
O O2 0.402865 0.281913 0.295165
O O3 0.418305 0.308552 0.212689
O O4 0.391148 0.192361 0.238028
O O5 0.075675 0.790964 0.121651
O O6 0.129374 0.719093 0.064728
O O7 0.071714 0.672557 0.132713
O O8 0.000000 0.722158 0.075434
O O9 0.110633 0.110633 0.165838
O O10 0.000000 0.161627 0.177540
O O11 0.253053 0.746948 0.064944
O O12 0.204468 0.628426 0.074496
O O13 0.203601 0.689449 0.000000
O O14 0.500000 0.078196 0.646238
O O15 0.367483 0.072898 0.632997
O O16 0.419051 0.105538 0.706595
O O17 0.876581 0.876581 0.351506
O O18 0.923743 0.758924 0.361592
O O19 0.000000 0.848840 0.343169
O O20 0.500000 0.797761 0.086892
#
# Coordination Sequence:
#
# PCOD9571406 Si02
#       8
#    32  32  32  32  32  32  32  16
#     4  10  20  33  47  69 102 138 175 217 260 300
#     4   9  18  34  54  77 105 135 165 204 257 310
#     4  10  19  32  50  71  99 135 173 214 259 305
#     4  10  21  37  58  83 107 131 168 214 252 305
#     4  10  20  33  51  74 102 139 179 218 254 294
#     4  10  20  35  54  75 103 138 177 221 267 313
#     4  10  21  37  55  76 106 140 170 211 265 314
#     4  12  18  30  51  75 102 140 184 218 253 299
#
# _framework density 17.097835
#
# number of rings (size 3 to 8) (size 9 to 14) (size 15 to 20)
#    0.000    2.000    2.667    1.600    0.000    1.600 
#    0.000    2.667    0.000    4.200    0.000    3.733 
#    0.000    0.000    0.000   24.800    0.000    0.000 
#
# Total GULP energy -668668.392939 kJ/mol
# GULP energy per Si atom -5572.236608 kJ/mol
# Density = 1.705892 g / cm^3
# Si number density = 17.097835 Si / 1000 Ang^3
#
#
#
# Elastic Constant Matrix: (Units=GPa)
#
#
# Indices 1 2 3 4 5 6 
#
# 1 92.4860 67.7719 27.9482 0.0000 0.0000 0.0000
# 2 67.7719 92.4860 27.9482 0.0000 0.0000 0.0000
# 3 27.9482 27.9482 53.9986 0.0000 0.0000 0.0000
# 4 0.0000 0.0000 0.0000 17.3095 0.0000 0.0000
# 5 0.0000 0.0000 0.0000 0.0000 17.3095 0.0000
# 6 0.0000 0.0000 0.0000 0.0000 0.0000 18.3648
#
#
#
# Elastic Compliance Matrix: (Units=1/GPa)
#
#
# Indices 1 2 3 4 5 6 
#
# 1 0.024039 -0.016424 -0.003941 0.000000 0.000000 0.000000
# 2 -0.016424 0.024039 -0.003941 0.000000 0.000000 0.000000
# 3 -0.003941 -0.003941 0.022599 0.000000 0.000000 0.000000
# 4 0.000000 0.000000 0.000000 0.057772 0.000000 0.000000
# 5 0.000000 0.000000 0.000000 0.000000 0.057772 0.000000
# 6 0.000000 0.000000 0.000000 0.000000 0.000000 0.054452
#
#
# Mechanical properties :
#
#
# Convention : Reuss Voigt Hill
#
# Bulk Modulus (GPa) = 45.32400 54.03415 49.67908
# Shear Modulus (GPa) = 16.85554 18.28357 17.56955
#
# Velocity S-wave (km/s) = 3.14320 3.27364 3.20908
# Velocity P-wave (km/s) = 6.30389 6.77942 6.54597
#
# Compressibility (1/GPa) = 0.02206336
#
# Stress axis : x y z
#
# Youngs Moduli (GPa) = 41.59971 41.59971 44.25047
#
# Poissons Ratio (x) = 0.68324 0.17440
# Poissons Ratio (y) = 0.68324 0.17440
# Poissons Ratio (z) = 0.16395 0.16395
#
# Static dielectric constant tensor:
#      x y z
#    x 1.586480 0.000000 0.000000 
#    y 0.000000 1.586480 0.000000 
#    z 0.000000 0.000000 1.565110 
# 
# From -- ./inp_files/14611.got.cif
#   From: 2010.05.17/outbox.cif.g08.bks.cpg/sg139_8_cif.got.tgz:14611.got - 2010.05.20 13:14:44.
