data_PCOD9571568
_publ_section_title
;
Structure prediction by ZEFSAII (Michael W. Deem and Ramdas Pophale) SiO2 
 PCOD9571568
Probable space group: I 4/M M M
;
_chemical_formula_sum "Si O2"
_cell_formula_units_Z 148
_cell_length_a 17.923819
_cell_length_b 17.923819
_cell_length_c 24.654042
_cell_angle_alpha 90.000000
_cell_angle_beta 90.000000
_cell_angle_gamma 90.000000
_cell_volume 7920.438584
_symmetry_space_group_name_H-M "I 4/M M M"
_symmetry_group_IT_number 139
_symmetry_cell_setting 'tetragonal'
loop_
_space_group_symop_operation_xyz
x,y,z
-y,x,z
-x,-y,z
y,-x,z
x,-y,-z
-x,y,-z
y,x,-z
-y,-x,-z
-x,-y,-z
y,-x,-z
x,y,-z
-y,x,-z
-x,y,z
x,-y,z
-y,-x,z
y,x,z
1/2+x,1/2+y,1/2+z
1/2-y,1/2+x,1/2+z
1/2-x,1/2-y,1/2+z
1/2+y,1/2-x,1/2+z
1/2+x,1/2-y,1/2-z
1/2-x,1/2+y,1/2-z
1/2+y,1/2+x,1/2-z
1/2-y,1/2-x,1/2-z
1/2-x,1/2-y,1/2-z
1/2+y,1/2-x,1/2-z
1/2+x,1/2+y,1/2-z
1/2-y,1/2+x,1/2-z
1/2-x,1/2+y,1/2+z
1/2+x,1/2-y,1/2+z
1/2-y,1/2-x,1/2+z
1/2+y,1/2+x,1/2+z
loop_
_atom_site_type_symbol
_atom_site_label
_atom_site_fract_x
_atom_site_fract_y
_atom_site_fract_z
Si Si1 0.253573 0.857564 0.715281
Si Si2 0.338501 0.000000 0.739452
Si Si3 0.708052 0.587077 0.434295
Si Si4 0.409166 0.710869 0.000000
Si Si5 0.143039 0.320878 0.405451
Si Si6 0.500000 0.088656 0.880941
Si Si7 0.500000 0.000000 0.750000
O O1 0.167651 0.832350 0.716617
O O2 0.298923 0.798923 0.750000
O O3 0.282969 0.931823 0.742993
O O4 0.282456 0.855782 0.653558
O O5 0.376469 0.000000 0.679723
O O6 0.414466 0.000000 0.774965
O O7 0.710146 0.586250 0.500000
O O8 0.709207 0.500000 0.416258
O O9 0.634036 0.634036 0.418125
O O10 0.780116 0.634829 0.415555
O O11 0.376887 0.757250 0.948903
O O12 0.500000 0.709495 0.000000
O O13 0.370460 0.629541 0.000000
O O14 0.074608 0.379136 0.407861
O O15 0.500000 0.000000 0.880896
#
# Coordination Sequence:
#
# PCOD9571568 Si02
#       7
#    32  16  32  16  32  16   4
#     4  10  21  37  57  83 113 149 190 233 285 347
#     4  10  20  32  55  81 116 146 179 231 279 338
#     4  10  20  34  53  77 107 145 185 225 267 317
#     4  12  24  41  62  86 115 153 199 245 301 358
#     4  11  21  38  59  84 113 150 191 233 290 353
#     4  10  20  33  52  86 121 145 175 229 287 349
#     4  12  16  32  52  84 112 142 184 212 292 340
#
# _framework density 18.685835000000001
#
# number of rings (size 3 to 8) (size 9 to 14) (size 15 to 20)
#    0.000    1.514    3.784    2.595    0.000    0.324 
#    1.946    1.622    0.000    0.324    0.000    0.000 
#    0.000    0.000    0.000    0.216    0.000    0.000 
#
# Total GULP energy -412243.026305 kJ/mol
# GULP energy per Si atom -5570.851707 kJ/mol
# Density = 1.864331 g / cm^3
# Si number density = 18.685835 Si / 1000 Ang^3
#
#
#
# Elastic Constant Matrix: (Units=GPa)
#
#
# Indices 1 2 3 4 5 6 
#
# 1 127.5557 85.2976 1.7836 0.0000 0.0000 0.0000
# 2 85.2976 127.5592 1.7842 0.0000 0.0000 0.0000
# 3 1.7836 1.7842 45.8907 0.0000 0.0000 0.0000
# 4 0.0000 0.0000 0.0000 17.9660 0.0000 0.0000
# 5 0.0000 0.0000 0.0000 0.0000 17.9659 0.0000
# 6 0.0000 0.0000 0.0000 0.0000 0.0000 41.0926
#
#
#
# Elastic Compliance Matrix: (Units=1/GPa)
#
#
# Indices 1 2 3 4 5 6 
#
# 1 0.014182 -0.009481 -0.000183 0.000000 0.000000 0.000000
# 2 -0.009481 0.014182 -0.000183 0.000000 0.000000 0.000000
# 3 -0.000183 -0.000183 0.021805 0.000000 0.000000 0.000000
# 4 0.000000 0.000000 0.000000 0.055661 0.000000 0.000000
# 5 0.000000 0.000000 0.000000 0.000000 0.055661 0.000000
# 6 0.000000 0.000000 0.000000 0.000000 0.000000 0.024335
#
#
# Mechanical properties :
#
#
# Convention : Reuss Voigt Hill
#
# Bulk Modulus (GPa) = 32.81233 53.19291 43.00262
# Shear Modulus (GPa) = 23.18272 29.54759 26.36516
#
# Velocity S-wave (km/s) = 3.52612 3.98085 3.76036
# Velocity P-wave (km/s) = 5.84604 7.04687 6.47435
#
# Compressibility (1/GPa) = 0.03047635
#
# Stress axis : x y z
#
# Youngs Moduli (GPa) = 70.51049 70.51241 45.86079
#
# Poissons Ratio (x) = 0.66853 0.00837
# Poissons Ratio (y) = 0.66851 0.00839
# Poissons Ratio (z) = 0.01287 0.01290
#
# Static dielectric constant tensor:
#      x y z
#    x 1.556230 0.000000 0.000000 
#    y 0.000000 1.556230 0.000000 
#    z 0.000000 0.000000 1.593350 
# 
# From -- ./inp_files/14174.got.cif
#   From: 2010.05.17/outbox.cif.g08.bks.cpg/sg139_8_cif.got.tgz:14174.got - 2010.05.20 13:14:44.
