data_PCOD9571708
_publ_section_title
;
Structure prediction by ZEFSAII (Michael W. Deem and Ramdas Pophale) SiO2 
 PCOD9571708
Probable space group: I 4/M M M
;
_chemical_formula_sum "Si O2"
_cell_formula_units_Z 144
_cell_length_a 20.476957
_cell_length_b 20.476957
_cell_length_c 17.667351
_cell_angle_alpha 90.000000
_cell_angle_beta 90.000000
_cell_angle_gamma 90.000000
_cell_volume 7408.022179
_symmetry_space_group_name_H-M "I 4/M M M"
_symmetry_group_IT_number 139
_symmetry_cell_setting 'tetragonal'
loop_
_space_group_symop_operation_xyz
x,y,z
-y,x,z
-x,-y,z
y,-x,z
x,-y,-z
-x,y,-z
y,x,-z
-y,-x,-z
-x,-y,-z
y,-x,-z
x,y,-z
-y,x,-z
-x,y,z
x,-y,z
-y,-x,z
y,x,z
1/2+x,1/2+y,1/2+z
1/2-y,1/2+x,1/2+z
1/2-x,1/2-y,1/2+z
1/2+y,1/2-x,1/2+z
1/2+x,1/2-y,1/2-z
1/2-x,1/2+y,1/2-z
1/2+y,1/2+x,1/2-z
1/2-y,1/2-x,1/2-z
1/2-x,1/2-y,1/2-z
1/2+y,1/2-x,1/2-z
1/2+x,1/2+y,1/2-z
1/2-y,1/2+x,1/2-z
1/2-x,1/2+y,1/2+z
1/2+x,1/2-y,1/2+z
1/2-y,1/2-x,1/2+z
1/2+y,1/2+x,1/2+z
loop_
_atom_site_type_symbol
_atom_site_label
_atom_site_fract_x
_atom_site_fract_y
_atom_site_fract_z
Si Si1 0.770691 0.874061 0.162291
Si Si2 0.125664 0.576940 0.327967
Si Si3 0.682089 0.577389 0.500000
Si Si4 0.575994 0.681329 0.816147
Si Si5 0.577949 0.196027 0.916460
O O1 0.800923 0.800923 0.168085
O O2 0.696105 0.888944 0.181221
O O3 0.809307 0.915024 0.226020
O O4 0.783333 0.898138 0.076850
O O5 0.132129 0.500000 0.345308
O O6 0.086388 0.586388 0.250000
O O7 0.092650 0.622579 0.390544
O O8 0.679519 0.500000 0.500000
O O9 0.611257 0.611257 0.500000
O O10 0.500000 0.670351 0.833437
O O11 0.622075 0.622075 0.840684
O O12 0.598996 0.748404 0.856929
O O13 0.500000 0.202140 0.919348
O O14 0.605603 0.208419 0.000000
#
# Coordination Sequence:
#
# PCOD9571708 Si02
#       5
#    32  32  16  32  32
#     4  10  22  39  60  86 119 159 202 247 299 365
#     4  12  24  39  63  91 121 157 202 254 309 365
#     4  10  20  35  56  84 119 157 197 245 298 354
#     4  10  20  38  63  90 122 161 205 254 310 370
#     4  10  23  42  60  84 121 162 203 248 302 364
#
# _framework density 19.438386999999999
#
# number of rings (size 3 to 8) (size 9 to 14) (size 15 to 20)
#    0.000    1.556    2.222    2.667    1.556    4.111 
#    0.000    1.111    0.000    4.000    0.000    3.111 
#    0.000    0.000    0.000    0.000    0.000    0.000 
#
# Total GULP energy -401576.160216 kJ/mol
# GULP energy per Si atom -5577.446670 kJ/mol
# Density = 1.939414 g / cm^3
# Si number density = 19.438387 Si / 1000 Ang^3
#
#
#
# Elastic Constant Matrix: (Units=GPa)
#
#
# Indices 1 2 3 4 5 6 
#
# 1 90.6423 30.3876 35.8689 0.0000 0.0000 0.0000
# 2 30.3876 90.6423 35.8689 0.0000 0.0000 0.0000
# 3 35.8689 35.8689 107.5592 0.0000 0.0000 0.0000
# 4 0.0000 0.0000 0.0000 17.8585 0.0000 0.0000
# 5 0.0000 0.0000 0.0000 0.0000 17.8585 0.0000
# 6 0.0000 0.0000 0.0000 0.0000 0.0000 20.3489
#
#
#
# Elastic Compliance Matrix: (Units=1/GPa)
#
#
# Indices 1 2 3 4 5 6 
#
# 1 0.013447 -0.003149 -0.003434 0.000000 0.000000 0.000000
# 2 -0.003149 0.013447 -0.003434 0.000000 0.000000 0.000000
# 3 -0.003434 -0.003434 0.011588 0.000000 0.000000 0.000000
# 4 0.000000 0.000000 0.000000 0.055996 0.000000 0.000000
# 5 0.000000 0.000000 0.000000 0.000000 0.055996 0.000000
# 6 0.000000 0.000000 0.000000 0.000000 0.000000 0.049143
#
#
# Mechanical properties :
#
#
# Convention : Reuss Voigt Hill
#
# Bulk Modulus (GPa) = 54.20966 54.78828 54.49897
# Shear Modulus (GPa) = 22.14348 23.66107 22.90227
#
# Velocity S-wave (km/s) = 3.37881 3.49267 3.43621
# Velocity P-wave (km/s) = 6.57041 6.67172 6.62126
#
# Compressibility (1/GPa) = 0.01844690
#
# Stress axis : x y z
#
# Youngs Moduli (GPa) = 74.36560 74.36560 86.29873
#
# Poissons Ratio (x) = 0.23419 0.29636
# Poissons Ratio (y) = 0.23419 0.29636
# Poissons Ratio (z) = 0.25538 0.25538
#
# Static dielectric constant tensor:
#      x y z
#    x 1.682480 0.000000 0.000000 
#    y 0.000000 1.682480 0.000000 
#    z 0.000000 0.000000 1.708230 
# 
# From -- ./inp_files/8177.got.cif
#   From: 2010.05.17/outbox.cif.g08.bks.cpg/sg139_5_cif.got.tgz:8177.got - 2010.05.20 13:14:44.
