data_PCOD9571991
_publ_section_title
;
Structure prediction by ZEFSAII (Michael W. Deem and Ramdas Pophale) SiO2 
 PCOD9571991
Probable space group: I 4/M C M
;
_chemical_formula_sum "Si O2"
_cell_formula_units_Z 152
_cell_length_a 23.824357
_cell_length_b 23.824357
_cell_length_c 14.582668
_cell_angle_alpha 90.000000
_cell_angle_beta 90.000000
_cell_angle_gamma 90.000000
_cell_volume 8277.122159
_symmetry_space_group_name_H-M "I 4/M C M"
_symmetry_group_IT_number 140
_symmetry_cell_setting 'tetragonal'
loop_
_space_group_symop_operation_xyz
x,y,z
-y,x,z
-x,-y,z
y,-x,z
x,-y,1/2-z
-x,y,1/2-z
y,x,1/2-z
-y,-x,1/2-z
-x,-y,-z
y,-x,-z
x,y,-z
-y,x,-z
-x,y,1/2+z
x,-y,1/2+z
-y,-x,1/2+z
y,x,1/2+z
1/2+x,1/2+y,1/2+z
1/2-y,1/2+x,1/2+z
1/2-x,1/2-y,1/2+z
1/2+y,1/2-x,1/2+z
1/2+x,1/2-y,-z
1/2-x,1/2+y,-z
1/2+y,1/2+x,-z
1/2-y,1/2-x,-z
1/2-x,1/2-y,1/2-z
1/2+y,1/2-x,1/2-z
1/2+x,1/2+y,1/2-z
1/2-y,1/2+x,1/2-z
1/2-x,1/2+y,z
1/2+x,1/2-y,z
1/2-y,1/2-x,z
1/2+y,1/2+x,z
loop_
_atom_site_type_symbol
_atom_site_label
_atom_site_fract_x
_atom_site_fract_y
_atom_site_fract_z
Si Si1 0.824572 0.230760 0.000000
Si Si2 0.107678 0.222248 0.000000
Si Si3 0.434356 0.934356 0.103859
Si Si4 0.765470 0.046079 0.818931
Si Si5 0.018733 0.654655 0.888768
Si Si6 0.373526 0.213706 0.821121
Si Si7 0.145146 0.354855 0.000000
O O1 0.858416 0.250508 0.089399
O O2 0.767026 0.267026 0.000000
O O3 0.811297 0.165564 0.000000
O O4 0.070088 0.208239 0.911278
O O5 0.127188 0.289148 0.000000
O O6 0.487531 0.901879 0.143387
O O7 0.451231 0.951231 0.000000
O O8 0.386256 0.886256 0.085321
O O9 0.750664 0.099304 0.757042
O O10 0.792448 0.000000 0.750000
O O11 0.707622 0.017128 0.853442
O O12 0.080110 0.667740 0.851371
O O13 0.018977 0.654419 0.000000
O O14 0.318388 0.181613 0.788684
#
# Coordination Sequence:
#
# PCOD9571991 Si02
#       7
#    16  16  16  32  32  32   8
#     4  10  22  36  51  73 107 154 188 233 288 341
#     4  12  20  35  55  78 106 137 184 233 279 331
#     4   8  14  24  47  75  88 119 172 239 262 326
#     4  10  21  33  55  78  99 136 183 234 283 343
#     4  10  16  31  52  70  97 132 182 235 293 336
#     4  10  22  35  49  71 107 147 187 234 291 348
#     4  10  16  26  52  70 101 126 166 229 270 308
#
# _framework density 18.363871
#
# number of rings (size 3 to 8) (size 9 to 14) (size 15 to 20)
#    0.316    1.684    4.737    0.000    2.947    0.842 
#    0.000    2.632    0.000    1.895    0.000    0.000 
#    0.000    0.000    0.000    0.000    0.000  466.316 
#
# Total GULP energy -423798.763998 kJ/mol
# GULP energy per Si atom -5576.299526 kJ/mol
# Density = 1.832207 g / cm^3
# Si number density = 18.363871 Si / 1000 Ang^3
#
#
#
# Elastic Constant Matrix: (Units=GPa)
#
#
# Indices 1 2 3 4 5 6 
#
# 1 59.2193 22.6342 24.1130 0.0000 0.0000 0.0000
# 2 22.6342 59.2191 24.1131 0.0000 0.0000 0.0000
# 3 24.1130 24.1131 91.3483 0.0000 0.0000 0.0000
# 4 0.0000 0.0000 0.0000 -7.5621 0.0000 0.0000
# 5 0.0000 0.0000 0.0000 0.0000 -7.5617 0.0000
# 6 0.0000 0.0000 0.0000 0.0000 0.0000 9.8226
#
#
#
# Elastic Compliance Matrix: (Units=1/GPa)
#
#
# Indices 1 2 3 4 5 6 
#
# 1 0.020900 -0.006433 -0.003819 0.000000 0.000000 0.000000
# 2 -0.006433 0.020900 -0.003819 0.000000 0.000000 0.000000
# 3 -0.003819 -0.003819 0.012963 0.000000 0.000000 0.000000
# 4 0.000000 0.000000 0.000000 -0.132238 0.000000 0.000000
# 5 0.000000 0.000000 0.000000 0.000000 -0.132246 0.000000
# 6 0.000000 0.000000 0.000000 0.000000 0.000000 0.101806
#
#
# Mechanical properties :
#
#
# Convention : Reuss Voigt Hill
#
# Bulk Modulus (GPa) = 37.56322 39.05639 38.30981
# Shear Modulus (GPa) = -70.52353 8.20152 -31.16101
#
# Velocity S-wave (km/s) = -6.20377 2.11561 -4.12377
# Velocity P-wave (km/s) = 5.55125 5.22322 1.32935
#
# Compressibility (1/GPa) = 0.02662179
#
# Stress axis : x y z
#
# Youngs Moduli (GPa) = 47.84644 47.84615 77.14140
#
# Poissons Ratio (x) = 0.30781 0.29459
# Poissons Ratio (y) = 0.30781 0.29459
# Poissons Ratio (z) = 0.18271 0.18272
#
# Static dielectric constant tensor:
#      x y z
#    x 1.634640 0.000000 0.000000 
#    y 0.000000 1.634640 0.000000 
#    z 0.000000 0.000000 1.680620 
# 
# From -- ./inp_files/5080.got.cif
#   From: 2010.05.17/outbox.cif.g08.bks.cpg/sg140_3_cif.got.tgz:5080.got - 2010.06.21 00:45:31.
