data_PCOD9571492
_publ_section_title
;
Structure prediction by ZEFSAII (Michael W. Deem and Ramdas Pophale) SiO2 
 PCOD9571492
Probable space group: I 4/M M M
;
_chemical_formula_sum "Si O2"
_cell_formula_units_Z 160
_cell_length_a 31.424866
_cell_length_b 31.424866
_cell_length_c 9.292165
_cell_angle_alpha 90.000000
_cell_angle_beta 90.000000
_cell_angle_gamma 90.000000
_cell_volume 9176.219253
_symmetry_space_group_name_H-M "I 4/M M M"
_symmetry_group_IT_number 139
_symmetry_cell_setting 'tetragonal'
loop_
_space_group_symop_operation_xyz
x,y,z
-y,x,z
-x,-y,z
y,-x,z
x,-y,-z
-x,y,-z
y,x,-z
-y,-x,-z
-x,-y,-z
y,-x,-z
x,y,-z
-y,x,-z
-x,y,z
x,-y,z
-y,-x,z
y,x,z
1/2+x,1/2+y,1/2+z
1/2-y,1/2+x,1/2+z
1/2-x,1/2-y,1/2+z
1/2+y,1/2-x,1/2+z
1/2+x,1/2-y,1/2-z
1/2-x,1/2+y,1/2-z
1/2+y,1/2+x,1/2-z
1/2-y,1/2-x,1/2-z
1/2-x,1/2-y,1/2-z
1/2+y,1/2-x,1/2-z
1/2+x,1/2+y,1/2-z
1/2-y,1/2+x,1/2-z
1/2-x,1/2+y,1/2+z
1/2+x,1/2-y,1/2+z
1/2-y,1/2-x,1/2+z
1/2+y,1/2+x,1/2+z
loop_
_atom_site_type_symbol
_atom_site_label
_atom_site_fract_x
_atom_site_fract_y
_atom_site_fract_z
Si Si1 0.239149 0.000000 0.165920
Si Si2 0.951476 0.048525 0.674895
Si Si3 0.213278 0.347305 0.665776
Si Si4 0.705063 0.404084 0.329662
Si Si5 0.080648 0.360189 0.833690
Si Si6 0.500000 0.824330 0.169851
Si Si7 0.881844 0.118157 0.326792
O O1 0.215672 0.954592 0.181836
O O2 0.275237 0.000000 0.285469
O O3 0.256704 0.000000 0.000000
O O4 0.951551 0.048449 0.500000
O O5 0.916928 0.083073 0.720227
O O6 0.000000 0.058553 0.720448
O O7 0.220171 0.334489 0.500000
O O8 0.192857 0.307144 0.750000
O O9 0.255854 0.372607 0.714966
O O10 0.176921 0.383720 0.667733
O O11 0.697645 0.396064 0.500000
O O12 0.663763 0.394246 0.236967
O O13 0.100281 0.399720 0.750000
O O14 0.040838 0.344092 0.745306
O O15 0.070524 0.369150 0.000000
O O16 0.500000 0.830354 0.000000
O O17 0.880854 0.119147 0.500000
#
# Coordination Sequence:
#
# PCOD9571492 Si02
#       7
#    16  16  32  32  32  16  16
#     4  10  20  38  60  82 112 152 190 233 289 343
#     4   8  16  34  57  79 109 147 182 220 276 341
#     4   9  18  33  56  81 109 145 185 230 280 334
#     4  10  21  39  59  81 113 154 190 227 284 346
#     4  10  19  34  53  78 112 149 190 237 287 342
#     4  12  22  32  52  85 117 149 189 236 290 347
#     4  11  24  37  57  87 116 147 187 238 281 329
#
# _framework density 17.436375000000002
#
# number of rings (size 3 to 8) (size 9 to 14) (size 15 to 20)
#    0.000    2.100    2.000    2.100    1.400    2.400 
#    0.000    0.500    0.000    0.300    0.000    4.900 
#    0.000    0.000    0.000    0.000    0.000    0.000 
#
# Total GULP energy -445876.943046 kJ/mol
# GULP energy per Si atom -5573.461788 kJ/mol
# Density = 1.739669 g / cm^3
# Si number density = 17.436375 Si / 1000 Ang^3
#
#
#
# Elastic Constant Matrix: (Units=GPa)
#
#
# Indices 1 2 3 4 5 6 
#
# 1 105.2859 62.6382 60.2065 0.0000 0.0000 0.0000
# 2 62.6382 105.2824 60.2068 0.0000 0.0000 0.0000
# 3 60.2065 60.2068 109.4161 0.0000 0.0000 0.0000
# 4 0.0000 0.0000 0.0000 25.2677 0.0000 0.0000
# 5 0.0000 0.0000 0.0000 0.0000 25.2692 0.0000
# 6 0.0000 0.0000 0.0000 0.0000 0.0000 38.2563
#
#
#
# Elastic Compliance Matrix: (Units=1/GPa)
#
#
# Indices 1 2 3 4 5 6 
#
# 1 0.016642 -0.006806 -0.005412 0.000000 0.000000 0.000000
# 2 -0.006806 0.016643 -0.005413 0.000000 0.000000 0.000000
# 3 -0.005412 -0.005413 0.015096 0.000000 0.000000 0.000000
# 4 0.000000 0.000000 0.000000 0.039576 0.000000 0.000000
# 5 0.000000 0.000000 0.000000 0.000000 0.039574 0.000000
# 6 0.000000 0.000000 0.000000 0.000000 0.000000 0.026139
#
#
# Mechanical properties :
#
#
# Convention : Reuss Voigt Hill
#
# Bulk Modulus (GPa) = 76.22752 76.23192 76.22972
# Shear Modulus (GPa) = 25.86574 26.88750 26.37662
#
# Velocity S-wave (km/s) = 3.85572 3.93114 3.89361
# Velocity P-wave (km/s) = 7.97712 8.02621 8.00171
#
# Compressibility (1/GPa) = 0.01311862
#
# Stress axis : x y z
#
# Youngs Moduli (GPa) = 60.08846 60.08523 66.24329
#
# Poissons Ratio (x) = 0.40896 0.35852
# Poissons Ratio (y) = 0.40898 0.35856
# Poissons Ratio (z) = 0.32521 0.32523
#
# Static dielectric constant tensor:
#      x y z
#    x 1.718520 0.000000 0.000000 
#    y 0.000000 1.718820 0.000000 
#    z 0.000000 0.000000 1.582240 
# 
# From -- ./inp_files/2333.got.cif
#   From: 2010.05.17/outbox.cif.g08.bks.cpg/sg139_2_cif.got.tgz:2333.got - 2010.05.20 13:14:44.
