data_PCOD9571158
_publ_section_title
;
Structure prediction by ZEFSAII (Michael W. Deem and Ramdas Pophale) SiO2 
 PCOD9571158
Probable space group: I 4/M M M
;
_chemical_formula_sum "Si O2"
_cell_formula_units_Z 224
_cell_length_a 22.900552
_cell_length_b 22.900552
_cell_length_c 26.100197
_cell_angle_alpha 90.000000
_cell_angle_beta 90.000000
_cell_angle_gamma 90.000000
_cell_volume 13687.864171
_symmetry_space_group_name_H-M "I 4/M M M"
_symmetry_group_IT_number 139
_symmetry_cell_setting 'tetragonal'
loop_
_space_group_symop_operation_xyz
x,y,z
-y,x,z
-x,-y,z
y,-x,z
x,-y,-z
-x,y,-z
y,x,-z
-y,-x,-z
-x,-y,-z
y,-x,-z
x,y,-z
-y,x,-z
-x,y,z
x,-y,z
-y,-x,z
y,x,z
1/2+x,1/2+y,1/2+z
1/2-y,1/2+x,1/2+z
1/2-x,1/2-y,1/2+z
1/2+y,1/2-x,1/2+z
1/2+x,1/2-y,1/2-z
1/2-x,1/2+y,1/2-z
1/2+y,1/2+x,1/2-z
1/2-y,1/2-x,1/2-z
1/2-x,1/2-y,1/2-z
1/2+y,1/2-x,1/2-z
1/2+x,1/2+y,1/2-z
1/2-y,1/2+x,1/2-z
1/2-x,1/2+y,1/2+z
1/2+x,1/2-y,1/2+z
1/2-y,1/2-x,1/2+z
1/2+y,1/2+x,1/2+z
loop_
_atom_site_type_symbol
_atom_site_label
_atom_site_fract_x
_atom_site_fract_y
_atom_site_fract_z
Si Si1 0.238277 0.143969 0.590040
Si Si2 0.658530 0.751800 0.265399
Si Si3 0.933995 0.589505 0.000000
Si Si4 0.255715 0.833000 0.886662
Si Si5 0.564861 0.838731 0.605221
Si Si6 0.067588 0.396350 0.308162
Si Si7 0.755674 0.566137 0.813442
Si Si8 0.932856 0.704300 0.500000
O O1 0.179291 0.179291 0.574802
O O2 0.285302 0.194020 0.603290
O O3 0.230675 0.105795 0.641106
O O4 0.268793 0.102364 0.548132
O O5 0.704148 0.704148 0.244190
O O6 0.685613 0.814388 0.250000
O O7 0.659057 0.748660 0.325952
O O8 0.596657 0.741461 0.240173
O O9 0.934438 0.625592 0.947483
O O10 0.867018 0.564671 0.000000
O O11 0.000000 0.560808 0.000000
O O12 0.196029 0.803972 0.907342
O O13 0.284002 0.892968 0.904045
O O14 0.500000 0.818025 0.617012
O O15 0.582253 0.883615 0.651119
O O16 0.084730 0.415271 0.250000
O O17 0.066781 0.326352 0.315211
O O18 0.000000 0.416538 0.318178
O O19 0.735602 0.500000 0.817570
O O20 0.000000 0.724320 0.500000
#
# Coordination Sequence:
#
# PCOD9571158 Si02
#       8
#    32  32  16  32  32  32  32  16
#     4  11  21  36  55  76 102 134 176 226 283 331
#     4  10  17  28  47  71  98 129 165 204 251 313
#     4  10  22  38  54  73 104 146 187 218 255 307
#     4  10  19  32  53  75  97 128 171 214 263 317
#     4  11  21  36  53  71 100 134 175 219 259 310
#     4  11  22  34  47  68  99 136 180 222 260 302
#     4  11  20  31  49  73 105 137 172 215 260 314
#     4  12  23  38  56  77 107 137 182 237 279 318
#
# _framework density 16.364861000000001
#
# number of rings (size 3 to 8) (size 9 to 14) (size 15 to 20)
#    0.000    1.286    4.286    2.786    0.000    4.571 
#    0.000    1.786    0.000    0.000    0.000    0.000 
#    0.000   22.000    0.000    6.286    0.000    4.000 
#
# Total GULP energy -624010.829057 kJ/mol
# GULP energy per Si atom -5571.525259 kJ/mol
# Density = 1.632761 g / cm^3
# Si number density = 16.364861 Si / 1000 Ang^3
#
#
#
# Elastic Constant Matrix: (Units=GPa)
#
#
# Indices 1 2 3 4 5 6 
#
# 1 89.7164 51.8968 22.2129 0.0000 0.0000 0.0000
# 2 51.8968 89.7161 22.2126 0.0000 0.0000 0.0000
# 3 22.2129 22.2126 71.5976 0.0000 0.0000 0.0000
# 4 0.0000 0.0000 0.0000 -2.3540 0.0000 0.0000
# 5 0.0000 0.0000 0.0000 0.0000 -2.3509 0.0000
# 6 0.0000 0.0000 0.0000 0.0000 0.0000 8.6859
#
#
#
# Elastic Compliance Matrix: (Units=1/GPa)
#
#
# Indices 1 2 3 4 5 6 
#
# 1 0.017132 -0.009309 -0.002427 0.000000 0.000000 0.000000
# 2 -0.009309 0.017132 -0.002427 0.000000 0.000000 0.000000
# 3 -0.002427 -0.002427 0.015473 0.000000 0.000000 0.000000
# 4 0.000000 0.000000 0.000000 -0.424817 0.000000 0.000000
# 5 0.000000 0.000000 0.000000 0.000000 -0.425363 0.000000
# 6 0.000000 0.000000 0.000000 0.000000 0.000000 0.115129
#
#
# Mechanical properties :
#
#
# Convention : Reuss Voigt Hill
#
# Bulk Modulus (GPa) = 46.70582 49.29720 48.00151
# Shear Modulus (GPa) = -7.69408 11.11005 1.70798
#
# Velocity S-wave (km/s) = -2.17067 2.60839 1.02272
# Velocity P-wave (km/s) = 4.72439 6.26585 5.54890
#
# Compressibility (1/GPa) = 0.02141061
#
# Stress axis : x y z
#
# Youngs Moduli (GPa) = 58.36982 58.36978 64.62916
#
# Poissons Ratio (x) = 0.54338 0.15686
# Poissons Ratio (y) = 0.54338 0.15685
# Poissons Ratio (z) = 0.14167 0.14166
#
# Static dielectric constant tensor:
#      x y z
#    x 1.570600 0.000000 0.000000 
#    y 0.000000 1.570590 0.000000 
#    z 0.000000 0.000000 1.562430 
# 
# From -- ./inp_files/12259.got.cif
#   From: 2010.05.17/outbox.cif.g08.bks.cpg/sg139_7_cif.got.tgz:12259.got - 2010.05.20 13:14:44.
