data_PCOD9571207
_publ_section_title
;
Structure prediction by ZEFSAII (Michael W. Deem and Ramdas Pophale) SiO2 
 PCOD9571207
Probable space group: I 4/M M M
;
_chemical_formula_sum "Si O2"
_cell_formula_units_Z 208
_cell_length_a 20.773624
_cell_length_b 20.773624
_cell_length_c 30.849632
_cell_angle_alpha 90.000000
_cell_angle_beta 90.000000
_cell_angle_gamma 90.000000
_cell_volume 13312.956751
_symmetry_space_group_name_H-M "I 4/M M M"
_symmetry_group_IT_number 139
_symmetry_cell_setting 'tetragonal'
loop_
_space_group_symop_operation_xyz
x,y,z
-y,x,z
-x,-y,z
y,-x,z
x,-y,-z
-x,y,-z
y,x,-z
-y,-x,-z
-x,-y,-z
y,-x,-z
x,y,-z
-y,x,-z
-x,y,z
x,-y,z
-y,-x,z
y,x,z
1/2+x,1/2+y,1/2+z
1/2-y,1/2+x,1/2+z
1/2-x,1/2-y,1/2+z
1/2+y,1/2-x,1/2+z
1/2+x,1/2-y,1/2-z
1/2-x,1/2+y,1/2-z
1/2+y,1/2+x,1/2-z
1/2-y,1/2-x,1/2-z
1/2-x,1/2-y,1/2-z
1/2+y,1/2-x,1/2-z
1/2+x,1/2+y,1/2-z
1/2-y,1/2+x,1/2-z
1/2-x,1/2+y,1/2+z
1/2+x,1/2-y,1/2+z
1/2-y,1/2-x,1/2+z
1/2+y,1/2+x,1/2+z
loop_
_atom_site_type_symbol
_atom_site_label
_atom_site_fract_x
_atom_site_fract_y
_atom_site_fract_z
Si Si1 0.320549 0.426149 0.926094
Si Si2 0.172001 0.717766 0.450640
Si Si3 0.763774 0.125878 0.912798
Si Si4 0.075024 0.184932 0.175908
Si Si5 0.253638 0.856316 0.746008
Si Si6 0.073702 0.821710 0.321711
Si Si7 0.181849 0.072811 0.000000
O O1 0.329004 0.500000 0.939623
O O2 0.380132 0.380132 0.939565
O O3 0.254386 0.394470 0.942390
O O4 0.317412 0.424036 0.873664
O O5 0.175019 0.693651 0.500000
O O6 0.225328 0.774673 0.447023
O O7 0.195575 0.662123 0.418316
O O8 0.817218 0.182783 0.912330
O O9 0.777547 0.086796 0.869331
O O10 0.777796 0.086201 0.956437
O O11 0.122309 0.122309 0.176418
O O12 0.098328 0.231781 0.214521
O O13 0.000000 0.167814 0.180391
O O14 0.202141 0.797860 0.746715
O O15 0.323036 0.823036 0.750000
O O16 0.239300 0.894182 0.701655
O O17 0.116433 0.883568 0.308826
O O18 0.000000 0.829008 0.308089
O O19 0.123260 0.123260 0.000000
O O20 0.158148 0.000000 0.000000
#
# Coordination Sequence:
#
# PCOD9571207 Si02
#       7
#    32  32  32  32  32  32  16
#     4   9  18  29  44  67  95 126 156 187 223 271
#     4   9  16  28  46  65  87 118 156 197 238 274
#     4   9  17  29  45  65  89 120 157 198 237 265
#     4  10  20  32  47  69  98 130 160 189 223 271
#     4   9  18  30  45  65  89 119 154 194 236 269
#     4   9  17  29  44  64  92 123 154 185 217 261
#     4  10  18  29  44  64  93 125 156 188 222 264
#
# _framework density 15.623877
#
# number of rings (size 3 to 8) (size 9 to 14) (size 15 to 20)
#    0.000    2.769    0.769    0.923    2.154    0.846 
#    0.000    1.538    0.000    5.538    0.000    2.154 
#    0.000   10.462    0.000    0.000    0.000    0.000 
#
# Total GULP energy -579003.812490 kJ/mol
# GULP energy per Si atom -5567.344351 kJ/mol
# Density = 1.558832 g / cm^3
# Si number density = 15.623877 Si / 1000 Ang^3
#
#
#
# Elastic Constant Matrix: (Units=GPa)
#
#
# Indices 1 2 3 4 5 6 
#
# 1 51.5538 51.0682 12.5789 0.0000 0.0000 0.0000
# 2 51.0682 51.5538 12.5789 0.0000 0.0000 0.0000
# 3 12.5789 12.5789 29.0469 0.0000 0.0000 0.0000
# 4 0.0000 0.0000 0.0000 17.1262 0.0000 0.0000
# 5 0.0000 0.0000 0.0000 0.0000 17.1262 0.0000
# 6 0.0000 0.0000 0.0000 0.0000 0.0000 15.0639
#
#
#
# Elastic Compliance Matrix: (Units=1/GPa)
#
#
# Indices 1 2 3 4 5 6 
#
# 1 1.035003 -1.024101 -0.004721 0.000000 0.000000 0.000000
# 2 -1.024101 1.035003 -0.004721 0.000000 0.000000 0.000000
# 3 -0.004721 -0.004721 0.038516 0.000000 0.000000 0.000000
# 4 0.000000 0.000000 0.000000 0.058390 0.000000 0.000000
# 5 0.000000 0.000000 0.000000 0.000000 0.058390 0.000000
# 6 0.000000 0.000000 0.000000 0.000000 0.000000 0.066384
#
#
# Mechanical properties :
#
#
# Convention : Reuss Voigt Hill
#
# Bulk Modulus (GPa) = 24.13395 31.62293 27.87844
# Shear Modulus (GPa) = 1.14349 13.59185 7.36767
#
# Velocity S-wave (km/s) = 0.85643 2.95268 2.17391
# Velocity P-wave (km/s) = 4.05689 5.64876 4.91766
#
# Compressibility (1/GPa) = 0.04143540
#
# Stress axis : x y z
#
# Youngs Moduli (GPa) = 0.96618 0.96618 25.96320
#
# Poissons Ratio (x) = 0.98947 0.12257
# Poissons Ratio (y) = 0.98947 0.12258
# Poissons Ratio (z) = 0.00456 0.00456
#
# Static dielectric constant tensor:
#      x y z
#    x 1.515570 0.000000 0.000000 
#    y 0.000000 1.515570 0.000000 
#    z 0.000000 0.000000 1.552530 
# 
# From -- ./inp_files/14546.got.cif
#   From: 2010.05.17/outbox.cif.g08.bks.cpg/sg139_8_cif.got.tgz:14546.got - 2010.05.20 13:14:44.
