data_PCOD9571745
_publ_section_title
;
Structure prediction by ZEFSAII (Michael W. Deem and Ramdas Pophale) SiO2 
 PCOD9571745
Probable space group: I 4/M M M
;
_chemical_formula_sum "Si O2"
_cell_formula_units_Z 176
_cell_length_a 27.855122
_cell_length_b 27.855122
_cell_length_c 12.572426
_cell_angle_alpha 90.000000
_cell_angle_beta 90.000000
_cell_angle_gamma 90.000000
_cell_volume 9755.043670
_symmetry_space_group_name_H-M "I 4/M M M"
_symmetry_group_IT_number 139
_symmetry_cell_setting 'tetragonal'
loop_
_space_group_symop_operation_xyz
x,y,z
-y,x,z
-x,-y,z
y,-x,z
x,-y,-z
-x,y,-z
y,x,-z
-y,-x,-z
-x,-y,-z
y,-x,-z
x,y,-z
-y,x,-z
-x,y,z
x,-y,z
-y,-x,z
y,x,z
1/2+x,1/2+y,1/2+z
1/2-y,1/2+x,1/2+z
1/2-x,1/2-y,1/2+z
1/2+y,1/2-x,1/2+z
1/2+x,1/2-y,1/2-z
1/2-x,1/2+y,1/2-z
1/2+y,1/2+x,1/2-z
1/2-y,1/2-x,1/2-z
1/2-x,1/2-y,1/2-z
1/2+y,1/2-x,1/2-z
1/2+x,1/2+y,1/2-z
1/2-y,1/2+x,1/2-z
1/2-x,1/2+y,1/2+z
1/2+x,1/2-y,1/2+z
1/2-y,1/2-x,1/2+z
1/2+y,1/2+x,1/2+z
loop_
_atom_site_type_symbol
_atom_site_label
_atom_site_fract_x
_atom_site_fract_y
_atom_site_fract_z
Si Si1 0.000000 0.557839 0.123845
Si Si2 0.136390 0.942324 0.500000
Si Si3 0.287366 0.557455 0.820338
Si Si4 0.820278 0.442777 0.877547
Si Si5 0.199856 0.120351 0.881785
Si Si6 0.781646 0.701374 0.624976
Si Si7 0.908433 0.408433 0.750000
O O1 0.047609 0.582148 0.169635
O O2 0.000000 0.500000 0.142738
O O3 0.000000 0.564251 0.000000
O O4 0.087878 0.912123 0.500000
O O5 0.169748 0.929281 0.399493
O O6 0.128633 0.000000 0.500000
O O7 0.286712 0.500000 0.815451
O O8 0.234867 0.572244 0.862888
O O9 0.295026 0.580936 0.707298
O O10 0.823929 0.500000 0.853690
O O11 0.857381 0.414897 0.804646
O O12 0.834209 0.436613 0.000000
O O13 0.152851 0.152851 0.864295
O O14 0.244289 0.157307 0.877716
O O15 0.197777 0.099526 0.000000
O O16 0.804550 0.700102 0.500000
O O17 0.750965 0.750965 0.625139
O O18 0.802099 0.697902 0.750000
#
# Coordination Sequence:
#
# PCOD9571745 Si02
#       7
#    16  16  32  32  32  32  16
#     4  11  20  32  50  80 114 142 192 250 314 395
#     4  10  20  37  64  98 130 157 195 239 289 357
#     4  10  20  37  59  83 113 153 198 238 282 346
#     4  10  20  37  58  77 108 153 196 246 306 364
#     4   9  18  34  56  80 108 143 181 227 284 338
#     4   8  14  27  46  68  98 134 172 220 277 330
#     4  12  19  34  54  80 105 150 192 248 316 370
#
# _framework density 18.041948999999999
#
# number of rings (size 3 to 8) (size 9 to 14) (size 15 to 20)
#    0.000    2.273    2.727    2.182    0.000    1.909 
#    3.273    1.818    0.000    0.000    0.000    0.000 
#    0.000    0.000    0.000   16.909    0.000    0.000 
#
# Total GULP energy -490069.475983 kJ/mol
# GULP energy per Si atom -5568.971318 kJ/mol
# Density = 1.800088 g / cm^3
# Si number density = 18.041949 Si / 1000 Ang^3
#
#
#
# Elastic Constant Matrix: (Units=GPa)
#
#
# Indices 1 2 3 4 5 6 
#
# 1 39.7974 46.2171 33.1169 0.0000 0.0000 0.0000
# 2 46.2171 39.7822 33.1112 0.0000 0.0000 0.0000
# 3 33.1169 33.1112 124.1758 0.0000 0.0000 0.0000
# 4 0.0000 0.0000 0.0000 -66.2684 0.0000 0.0000
# 5 0.0000 0.0000 0.0000 0.0000 -67.8393 0.0000
# 6 0.0000 0.0000 0.0000 0.0000 0.0000 12.3707
#
#
#
# Elastic Compliance Matrix: (Units=1/GPa)
#
#
# Indices 1 2 3 4 5 6 
#
# 1 -0.070464 0.085109 -0.003902 0.000000 0.000000 0.000000
# 2 0.085109 -0.070492 -0.003902 0.000000 0.000000 0.000000
# 3 -0.003902 -0.003902 0.010134 0.000000 0.000000 0.000000
# 4 0.000000 0.000000 0.000000 -0.015090 0.000000 0.000000
# 5 0.000000 0.000000 0.000000 0.000000 -0.014741 0.000000
# 6 0.000000 0.000000 0.000000 0.000000 0.000000 0.080836
#
#
# Mechanical properties :
#
#
# Convention : Reuss Voigt Hill
#
# Bulk Modulus (GPa) = 42.03467 47.62731 44.83099
# Shear Modulus (GPa) = -22.07527 -18.26004 -20.16765
#
# Velocity S-wave (km/s) = -3.50173 -3.18478 -3.34701
# Velocity P-wave (km/s) = 2.64564 3.59605 3.15682
#
# Compressibility (1/GPa) = 0.02378989
#
# Stress axis : x y z
#
# Youngs Moduli (GPa) = -14.19165 -14.18609 98.67690
#
# Poissons Ratio (x) = 1.20737 0.38503
# Poissons Ratio (y) = 1.20784 0.38500
# Poissons Ratio (z) = -0.05537 -0.05535
#
# Static dielectric constant tensor:
#      x y z
#    x 1.589780 0.000000 0.000000 
#    y 0.000000 1.589770 0.000000 
#    z 0.000000 0.000000 1.653220 
# 
# From -- ./inp_files/4071.got.cif
#   From: 2010.05.17/outbox.cif.g08.bks.cpg/sg139_3_cif.got.tgz:4071.got - 2010.05.20 13:14:44.
