data_PCOD9571964
_publ_section_title
;
Structure prediction by ZEFSAII (Michael W. Deem and Ramdas Pophale) SiO2 
 PCOD9571964
Probable space group: I 4/M M M
;
_chemical_formula_sum "Si O2"
_cell_formula_units_Z 88
_cell_length_a 27.000000
_cell_length_b 27.000000
_cell_length_c 15.000000
_cell_angle_alpha 90.000000
_cell_angle_beta 90.000000
_cell_angle_gamma 90.000000
_cell_volume 10935.000000
_symmetry_space_group_name_H-M "I 4/M M M"
_symmetry_group_IT_number 139
_symmetry_cell_setting 'tetragonal'
loop_
_space_group_symop_operation_xyz
x,y,z
-y,x,z
-x,-y,z
y,-x,z
x,-y,-z
-x,y,-z
y,x,-z
-y,-x,-z
-x,-y,-z
y,-x,-z
x,y,-z
-y,x,-z
-x,y,z
x,-y,z
-y,-x,z
y,x,z
1/2+x,1/2+y,1/2+z
1/2-y,1/2+x,1/2+z
1/2-x,1/2-y,1/2+z
1/2+y,1/2-x,1/2+z
1/2+x,1/2-y,1/2-z
1/2-x,1/2+y,1/2-z
1/2+y,1/2+x,1/2-z
1/2-y,1/2-x,1/2-z
1/2-x,1/2-y,1/2-z
1/2+y,1/2-x,1/2-z
1/2+x,1/2+y,1/2-z
1/2-y,1/2+x,1/2-z
1/2-x,1/2+y,1/2+z
1/2+x,1/2-y,1/2+z
1/2-y,1/2-x,1/2+z
1/2+y,1/2+x,1/2+z
loop_
_atom_site_type_symbol
_atom_site_label
_atom_site_fract_x
_atom_site_fract_y
_atom_site_fract_z
Si Si1 0.810353 0.889821 0.829038
Si Si2 0.270600 0.943323 0.733992
Si Si3 0.941030 0.142631 0.000000
Si Si4 0.192253 0.268091 0.892783
Si Si5 0.845478 0.555652 0.603771
Si Si6 0.662421 0.121539 0.606514
O O1 0.858263 0.858263 0.800887
O O2 0.782543 0.919000 0.751384
O O3 0.826800 0.924090 0.912114
O O4 0.769890 0.849946 0.862773
O O5 0.299572 0.941339 0.828951
O O6 0.305369 0.916034 0.663299
O O7 0.265032 0.000000 0.708236
O O8 0.907568 0.092433 0.000000
O O9 0.000000 0.134379 0.000000
O O10 0.244640 0.244640 0.863404
O O11 0.180139 0.323535 0.864507
O O12 0.191801 0.268700 0.000000
O O13 0.829615 0.560994 0.500000
O O14 0.867053 0.500000 0.613573
O O15 0.879994 0.603079 0.622730
O O16 0.670146 0.115904 0.500000
#
# Coordination Sequence:
#
# PCOD9571964 Si02
#       6
#    32  32  16  32  32  32
#     4  10  19  31  48  72 101 132 166 205 247 290
#     4  11  22  33  49  73  98 131 169 206 253 300
#     4  10  20  33  50  74 106 142 177 215 255 293
#     4   9  16  28  47  71 100 130 160 194 240 294
#     4   9  18  31  48  71  97 125 162 206 248 294
#     4  10  20  34  50  69  98 130 167 209 249 300
#
# _framework density 8.0475539999999999
#
# number of rings (size 3 to 8) (size 9 to 14) (size 15 to 20)
#    0.000    2.182    2.727    1.091    1.273    1.182 
#    0.000    1.818    0.000    0.545    0.000    5.091 
#    0.000    0.000    0.000    0.000    0.000    0.000 
#
# Total GULP energy -490572.423387 kJ/mol
# GULP energy per Si atom -5574.686629 kJ/mol
# Density = 0.802924 g / cm^3
# Si number density = 8.047554 Si / 1000 Ang^3
#
#
#
# Elastic Constant Matrix: (Units=GPa)
#
#
# Indices 1 2 3 4 5 6 
#
# 1 93.9316 76.3851 39.0380 0.0000 0.0000 0.0000
# 2 76.3851 93.9290 39.0378 0.0000 0.0000 0.0000
# 3 39.0380 39.0378 43.4319 0.0000 0.0000 0.0000
# 4 0.0000 0.0000 0.0000 17.0742 0.0000 0.0000
# 5 0.0000 0.0000 0.0000 0.0000 17.0739 0.0000
# 6 0.0000 0.0000 0.0000 0.0000 0.0000 7.8640
#
#
#
# Elastic Compliance Matrix: (Units=1/GPa)
#
#
# Indices 1 2 3 4 5 6 
#
# 1 0.033490 -0.023505 -0.008975 0.000000 0.000000 0.000000
# 2 -0.023505 0.033492 -0.008976 0.000000 0.000000 0.000000
# 3 -0.008975 -0.008976 0.039160 0.000000 0.000000 0.000000
# 4 0.000000 0.000000 0.000000 0.058568 0.000000 0.000000
# 5 0.000000 0.000000 0.000000 0.000000 0.058569 0.000000
# 6 0.000000 0.000000 0.000000 0.000000 0.000000 0.127162
#
#
# Mechanical properties :
#
#
# Convention : Reuss Voigt Hill
#
# Bulk Modulus (GPa) = 43.04965 60.02383 51.53674
# Shear Modulus (GPa) = 11.33538 13.52452 12.42995
#
# Velocity S-wave (km/s) = 2.65670 2.90192 2.78201
# Velocity P-wave (km/s) = 6.01796 6.97154 6.51223
#
# Compressibility (1/GPa) = 0.02322899
#
# Stress axis : x y z
#
# Youngs Moduli (GPa) = 29.85934 29.85818 25.53612
#
# Poissons Ratio (x) = 0.70181 0.22920
# Poissons Ratio (y) = 0.70184 0.22922
# Poissons Ratio (z) = 0.26800 0.26802
#
# Static dielectric constant tensor:
#      x y z
#    x 1.554240 0.000000 0.000000 
#    y 0.000000 1.554240 0.000000 
#    z 0.000000 0.000000 1.539820 
# 
# From -- ./inp_files/6373.got.cif
#   From: 2010.05.17/outbox.ucp.g08.bks.cvg/sg139_4_cif.got.tgz:6373.got - 2010.06.11 11:42:03.
