data_PCOD9571804
_publ_section_title
;
Structure prediction by ZEFSAII (Michael W. Deem and Ramdas Pophale) SiO2 
 PCOD9571804
Probable space group: I 4/M M M
;
_chemical_formula_sum "Si O2"
_cell_formula_units_Z 160
_cell_length_a 19.237336
_cell_length_b 19.237336
_cell_length_c 21.518526
_cell_angle_alpha 90.000000
_cell_angle_beta 90.000000
_cell_angle_gamma 90.000000
_cell_volume 7963.470583
_symmetry_space_group_name_H-M "I 4/M M M"
_symmetry_group_IT_number 139
_symmetry_cell_setting 'tetragonal'
loop_
_space_group_symop_operation_xyz
x,y,z
-y,x,z
-x,-y,z
y,-x,z
x,-y,-z
-x,y,-z
y,x,-z
-y,-x,-z
-x,-y,-z
y,-x,-z
x,y,-z
-y,x,-z
-x,y,z
x,-y,z
-y,-x,z
y,x,z
1/2+x,1/2+y,1/2+z
1/2-y,1/2+x,1/2+z
1/2-x,1/2-y,1/2+z
1/2+y,1/2-x,1/2+z
1/2+x,1/2-y,1/2-z
1/2-x,1/2+y,1/2-z
1/2+y,1/2+x,1/2-z
1/2-y,1/2-x,1/2-z
1/2-x,1/2-y,1/2-z
1/2+y,1/2-x,1/2-z
1/2+x,1/2+y,1/2-z
1/2-y,1/2+x,1/2-z
1/2-x,1/2+y,1/2+z
1/2+x,1/2-y,1/2+z
1/2-y,1/2-x,1/2+z
1/2+y,1/2+x,1/2+z
loop_
_atom_site_type_symbol
_atom_site_label
_atom_site_fract_x
_atom_site_fract_y
_atom_site_fract_z
Si Si1 0.304040 0.420640 0.115998
Si Si2 0.157907 0.730910 0.000000
Si Si3 0.916227 0.718842 0.876642
Si Si4 0.803695 0.081923 0.754012
Si Si5 0.700302 0.077426 0.500000
Si Si6 0.422621 0.915629 0.821750
O O1 0.331621 0.500000 0.117321
O O2 0.364973 0.364973 0.106011
O O3 0.272454 0.407086 0.184882
O O4 0.249224 0.417542 0.060727
O O5 0.119177 0.751780 0.936720
O O6 0.234155 0.765846 0.000000
O O7 0.156203 0.647306 0.000000
O O8 0.897444 0.756583 0.812218
O O9 0.894122 0.638637 0.867029
O O10 0.000000 0.720806 0.883293
O O11 0.873777 0.126224 0.755584
O O12 0.816873 0.000000 0.760376
O O13 0.666964 0.000000 0.500000
O O14 0.500000 0.887545 0.834307
O O15 0.402614 0.902614 0.750000
O O16 0.426532 0.000000 0.825421
#
# Coordination Sequence:
#
# PCOD9571804 Si02
#       6
#    32  16  32  32  16  32
#     4   9  17  31  52  77 107 141 175 213 256 305
#     4  12  25  39  56  76 102 138 178 223 271 316
#     4  10  21  37  56  78 105 137 174 217 265 316
#     4   9  18  33  54  80 108 138 173 213 258 309
#     4  10  22  39  55  73 103 143 180 213 256 308
#     4   8  15  30  53  80 108 137 170 209 254 307
#
# _framework density 20.091743000000001
#
# number of rings (size 3 to 8) (size 9 to 14) (size 15 to 20)
#    0.000    2.600    0.000    2.400    0.000    2.800 
#    0.000    6.000    0.000    9.600    0.000    0.000 
#    0.000    7.200    0.000    0.000    0.000    0.000 
#
# Total GULP energy -446432.445488 kJ/mol
# GULP energy per Si atom -5580.405569 kJ/mol
# Density = 2.004601 g / cm^3
# Si number density = 20.091743 Si / 1000 Ang^3
#
#
#
# Elastic Constant Matrix: (Units=GPa)
#
#
# Indices 1 2 3 4 5 6 
#
# 1 30.0531 18.1230 34.5772 0.0000 0.0000 0.0000
# 2 18.1230 30.0557 34.5784 0.0000 0.0000 0.0000
# 3 34.5772 34.5784 145.3242 0.0000 0.0000 0.0000
# 4 0.0000 0.0000 0.0000 24.8456 0.0000 0.0000
# 5 0.0000 0.0000 0.0000 0.0000 24.8449 0.0000
# 6 0.0000 0.0000 0.0000 0.0000 0.0000 21.3241
#
#
#
# Elastic Compliance Matrix: (Units=1/GPa)
#
#
# Indices 1 2 3 4 5 6 
#
# 1 0.057670 -0.026145 -0.007501 0.000000 0.000000 0.000000
# 2 -0.026145 0.057665 -0.007500 0.000000 0.000000 0.000000
# 3 -0.007501 -0.007500 0.010450 0.000000 0.000000 0.000000
# 4 0.000000 0.000000 0.000000 0.040249 0.000000 0.000000
# 5 0.000000 0.000000 0.000000 0.000000 0.040250 0.000000
# 6 0.000000 0.000000 0.000000 0.000000 0.000000 0.046895
#
#
# Mechanical properties :
#
#
# Convention : Reuss Voigt Hill
#
# Bulk Modulus (GPa) = 22.99131 42.22113 32.60622
# Shear Modulus (GPa) = 14.28697 22.07988 18.18342
#
# Velocity S-wave (km/s) = 2.66951 3.31864 3.01162
# Velocity P-wave (km/s) = 4.57927 5.97865 5.32513
#
# Compressibility (1/GPa) = 0.04349469
#
# Stress axis : x y z
#
# Youngs Moduli (GPa) = 17.33992 17.34146 95.68995
#
# Poissons Ratio (x) = 0.45339 0.71774
# Poissons Ratio (y) = 0.45335 0.71770
# Poissons Ratio (z) = 0.13006 0.13006
#
# Static dielectric constant tensor:
#      x y z
#    x 1.701730 0.000000 0.000000 
#    y 0.000000 1.701730 0.000000 
#    z 0.000000 0.000000 1.734650 
# 
# From -- ./inp_files/8454.got.cif
#   From: 2010.05.17/outbox.cif.g08.bks.cpg/sg139_5_cif.got.tgz:8454.got - 2010.05.20 13:14:44.
