data_PCOD9571449
_publ_section_title
;
Structure prediction by ZEFSAII (Michael W. Deem and Ramdas Pophale) SiO2 
 PCOD9571449
Probable space group: I 4/M M M
;
_chemical_formula_sum "Si O2"
_cell_formula_units_Z 240
_cell_length_a 19.497679
_cell_length_b 19.497679
_cell_length_c 37.033455
_cell_angle_alpha 90.000000
_cell_angle_beta 90.000000
_cell_angle_gamma 90.000000
_cell_volume 14078.619232
_symmetry_space_group_name_H-M "I 4/M M M"
_symmetry_group_IT_number 139
_symmetry_cell_setting 'tetragonal'
loop_
_space_group_symop_operation_xyz
x,y,z
-y,x,z
-x,-y,z
y,-x,z
x,-y,-z
-x,y,-z
y,x,-z
-y,-x,-z
-x,-y,-z
y,-x,-z
x,y,-z
-y,x,-z
-x,y,z
x,-y,z
-y,-x,z
y,x,z
1/2+x,1/2+y,1/2+z
1/2-y,1/2+x,1/2+z
1/2-x,1/2-y,1/2+z
1/2+y,1/2-x,1/2+z
1/2+x,1/2-y,1/2-z
1/2-x,1/2+y,1/2-z
1/2+y,1/2+x,1/2-z
1/2-y,1/2-x,1/2-z
1/2-x,1/2-y,1/2-z
1/2+y,1/2-x,1/2-z
1/2+x,1/2+y,1/2-z
1/2-y,1/2+x,1/2-z
1/2-x,1/2+y,1/2+z
1/2+x,1/2-y,1/2+z
1/2-y,1/2-x,1/2+z
1/2+y,1/2+x,1/2+z
loop_
_atom_site_type_symbol
_atom_site_label
_atom_site_fract_x
_atom_site_fract_y
_atom_site_fract_z
Si Si1 0.742702 0.625577 0.179087
Si Si2 0.077922 0.193763 0.754349
Si Si3 0.645662 0.762159 0.322119
Si Si4 0.160025 0.418766 0.927181
Si Si5 0.694850 0.421244 0.898301
Si Si6 0.580284 0.800547 0.605146
Si Si7 0.919146 0.195277 0.958828
Si Si8 0.921453 0.417141 0.000000
O O1 0.685281 0.685281 0.179808
O O2 0.729867 0.583197 0.215347
O O3 0.814265 0.665845 0.180537
O O4 0.728234 0.586497 0.141737
O O5 0.128231 0.128231 0.753890
O O6 0.105731 0.243536 0.785695
O O7 0.000000 0.173766 0.761661
O O8 0.703263 0.703263 0.327220
O O9 0.597938 0.764645 0.357158
O O10 0.149446 0.500000 0.920506
O O11 0.241760 0.407091 0.925446
O O12 0.124122 0.369592 0.898420
O O13 0.122118 0.400118 0.964533
O O14 0.671723 0.500000 0.902949
O O15 0.633761 0.366240 0.901813
O O16 0.500000 0.816337 0.602481
O O17 0.598507 0.750518 0.571783
O O18 0.871067 0.128934 0.954719
O O19 0.000000 0.178581 0.954968
O O20 0.909290 0.221663 0.000000
O O21 0.927218 0.500000 0.000000
O O22 0.000000 0.389507 0.000000
#
# Coordination Sequence:
#
# PCOD9571449 Si02
#       8
#    32  32  32  32  32  32  32  16
#     4   9  17  32  53  75 100 133 175 223 269 316
#     4  10  20  33  51  75 104 137 175 220 270 325
#     4  10  19  33  52  74 102 136 178 220 265 318
#     4  10  21  36  55  78 105 141 180 218 266 322
#     4  10  20  35  56  82 112 143 179 223 273 329
#     4  11  21  32  51  76 106 138 174 222 271 318
#     4   9  19  34  51  74 103 136 176 220 267 318
#     4   9  18  34  55  78 105 137 175 220 265 310
#
# _framework density 17.047125999999999
#
# number of rings (size 3 to 8) (size 9 to 14) (size 15 to 20)
#    0.000    2.200    1.333    2.000    0.933    3.333 
#    0.000    1.000    0.000    2.400    0.000    1.867 
#    0.000    4.800    0.000    0.000    0.000    0.000 
#
# Total GULP energy -669004.820379 kJ/mol
# GULP energy per Si atom -5575.040170 kJ/mol
# Density = 1.700833 g / cm^3
# Si number density = 17.047126 Si / 1000 Ang^3
#
#
#
# Elastic Constant Matrix: (Units=GPa)
#
#
# Indices 1 2 3 4 5 6 
#
# 1 83.7455 46.7573 37.9114 0.0000 0.0000 0.0000
# 2 46.7573 83.7455 37.9114 0.0000 0.0000 0.0000
# 3 37.9114 37.9114 81.2188 0.0000 0.0000 0.0000
# 4 0.0000 0.0000 0.0000 25.3278 0.0000 0.0000
# 5 0.0000 0.0000 0.0000 0.0000 25.3278 0.0000
# 6 0.0000 0.0000 0.0000 0.0000 0.0000 19.6312
#
#
#
# Elastic Compliance Matrix: (Units=1/GPa)
#
#
# Indices 1 2 3 4 5 6 
#
# 1 0.018775 -0.008261 -0.004908 0.000000 0.000000 0.000000
# 2 -0.008261 0.018775 -0.004908 0.000000 0.000000 0.000000
# 3 -0.004908 -0.004908 0.016894 0.000000 0.000000 0.000000
# 4 0.000000 0.000000 0.000000 0.039482 0.000000 0.000000
# 5 0.000000 0.000000 0.000000 0.000000 0.039482 0.000000
# 6 0.000000 0.000000 0.000000 0.000000 0.000000 0.050939
#
#
# Mechanical properties :
#
#
# Convention : Reuss Voigt Hill
#
# Bulk Modulus (GPa) = 54.67103 54.87444 54.77273
# Shear Modulus (GPa) = 22.06553 22.46599 22.26576
#
# Velocity S-wave (km/s) = 3.60166 3.63419 3.61796
# Velocity P-wave (km/s) = 7.03108 7.06184 7.04647
#
# Compressibility (1/GPa) = 0.01829122
#
# Stress axis : x y z
#
# Youngs Moduli (GPa) = 53.26268 53.26268 59.19212
#
# Poissons Ratio (x) = 0.43999 0.29050
# Poissons Ratio (y) = 0.43999 0.29050
# Poissons Ratio (z) = 0.26140 0.26140
#
# Static dielectric constant tensor:
#      x y z
#    x 1.564320 0.000000 0.000000 
#    y 0.000000 1.564320 0.000000 
#    z 0.000000 0.000000 1.590150 
# 
# From -- ./inp_files/14638.got.cif
#   From: 2010.05.17/outbox.cif.g08.bks.cpg/sg139_8_cif.got.tgz:14638.got - 2010.05.20 13:14:44.
