data_PCOD9571520
_publ_section_title
;
Structure prediction by ZEFSAII (Michael W. Deem and Ramdas Pophale) SiO2 
 PCOD9571520
Probable space group: I 4/M M M
;
_chemical_formula_sum "Si O2"
_cell_formula_units_Z 96
_cell_length_a 13.556761
_cell_length_b 13.556761
_cell_length_c 32.907968
_cell_angle_alpha 90.000000
_cell_angle_beta 90.000000
_cell_angle_gamma 90.000000
_cell_volume 6048.016199
_symmetry_space_group_name_H-M "I 4/M M M"
_symmetry_group_IT_number 139
_symmetry_cell_setting 'tetragonal'
loop_
_space_group_symop_operation_xyz
x,y,z
-y,x,z
-x,-y,z
y,-x,z
x,-y,-z
-x,y,-z
y,x,-z
-y,-x,-z
-x,-y,-z
y,-x,-z
x,y,-z
-y,x,-z
-x,y,z
x,-y,z
-y,-x,z
y,x,z
1/2+x,1/2+y,1/2+z
1/2-y,1/2+x,1/2+z
1/2-x,1/2-y,1/2+z
1/2+y,1/2-x,1/2+z
1/2+x,1/2-y,1/2-z
1/2-x,1/2+y,1/2-z
1/2+y,1/2+x,1/2-z
1/2-y,1/2-x,1/2-z
1/2-x,1/2-y,1/2-z
1/2+y,1/2-x,1/2-z
1/2+x,1/2+y,1/2-z
1/2-y,1/2+x,1/2-z
1/2-x,1/2+y,1/2+z
1/2+x,1/2-y,1/2+z
1/2-y,1/2-x,1/2+z
1/2+y,1/2+x,1/2+z
loop_
_atom_site_type_symbol
_atom_site_label
_atom_site_fract_x
_atom_site_fract_y
_atom_site_fract_z
Si Si1 0.116347 0.383706 0.086374
Si Si2 0.616647 0.616647 0.298788
Si Si3 0.885014 0.719463 0.000000
Si Si4 0.251557 0.748444 0.855403
Si Si5 0.383312 0.383312 0.796264
O O1 0.138106 0.500000 0.088908
O O2 0.131524 0.344802 0.040478
O O3 0.183941 0.320854 0.116404
O O4 0.000000 0.369873 0.095938
O O5 0.500000 0.634352 0.305415
O O6 0.682083 0.682083 0.328185
O O7 0.637717 0.637717 0.251267
O O8 0.812124 0.812124 0.000000
O O9 0.000000 0.750574 0.000000
O O10 0.318116 0.681885 0.825877
O O11 0.500000 0.365567 0.802790
#
# Coordination Sequence:
#
# PCOD9571520 Si02
#       5
#    32  16  16  16  16
#     4  10  21  35  52  75 104 136 170 208 250 302
#     4   9  19  35  52  72 102 137 168 202 251 313
#     4  10  19  36  55  76 102 138 173 202 246 302
#     4  12  19  31  54  80 102 126 170 217 259 288
#     4   9  19  35  52  72 100 135 172 206 249 305
#
# _framework density 15.872972000000001
#
# number of rings (size 3 to 8) (size 9 to 14) (size 15 to 20)
#    0.000    2.000    1.667    4.000    0.000    2.167 
#    0.000    0.000    0.000    0.000    0.000   15.167 
#    0.000    0.000    0.000    0.000    0.000    0.000 
#
# Total GULP energy -267871.171497 kJ/mol
# GULP energy per Si atom -5580.649406 kJ/mol
# Density = 1.583684 g / cm^3
# Si number density = 15.872972 Si / 1000 Ang^3
#
#
#
# Elastic Constant Matrix: (Units=GPa)
#
#
# Indices 1 2 3 4 5 6 
#
# 1 123.5678 106.4523 105.4992 0.0000 0.0000 0.0000
# 2 106.4523 123.5678 105.4992 0.0000 0.0000 0.0000
# 3 105.4992 105.4992 147.1744 0.0000 0.0000 0.0000
# 4 0.0000 0.0000 0.0000 30.8911 0.0000 0.0000
# 5 0.0000 0.0000 0.0000 0.0000 30.8911 0.0000
# 6 0.0000 0.0000 0.0000 0.0000 0.0000 33.9063
#
#
#
# Elastic Compliance Matrix: (Units=1/GPa)
#
#
# Indices 1 2 3 4 5 6 
#
# 1 0.035561 -0.022866 -0.009100 0.000000 0.000000 0.000000
# 2 -0.022866 0.035561 -0.009100 0.000000 0.000000 0.000000
# 3 -0.009100 -0.009100 0.019841 0.000000 0.000000 0.000000
# 4 0.000000 0.000000 0.000000 0.032372 0.000000 0.000000
# 5 0.000000 0.000000 0.000000 0.000000 0.032372 0.000000
# 6 0.000000 0.000000 0.000000 0.000000 0.000000 0.029493
#
#
# Mechanical properties :
#
#
# Convention : Reuss Voigt Hill
#
# Bulk Modulus (GPa) = 113.24287 114.35685 113.79986
# Shear Modulus (GPa) = 18.49958 24.26164 21.38061
#
# Velocity S-wave (km/s) = 3.41761 3.91383 3.67411
# Velocity P-wave (km/s) = 9.33121 9.62421 9.47884
#
# Compressibility (1/GPa) = 0.00883058
#
# Stress axis : x y z
#
# Youngs Moduli (GPa) = 28.12070 28.12070 50.39951
#
# Poissons Ratio (x) = 0.64300 0.45865
# Poissons Ratio (y) = 0.64300 0.45865
# Poissons Ratio (z) = 0.25591 0.25591
#
# Static dielectric constant tensor:
#      x y z
#    x 1.503210 0.000000 0.000000 
#    y 0.000000 1.503210 0.000000 
#    z 0.000000 0.000000 1.509060 
# 
# From -- ./inp_files/11005.got.cif
#   From: 2010.05.17/outbox.cif.g08.bks.cpg/sg139_6_cif.got.tgz:11005.got - 2010.05.20 13:14:44.
