data_PCOD9571978
_publ_section_title
;
Structure prediction by ZEFSAII (Michael W. Deem and Ramdas Pophale) SiO2 
 PCOD9571978
Probable space group: I 4/M M M
;
_chemical_formula_sum "Si O2"
_cell_formula_units_Z 96
_cell_length_a 21.000000
_cell_length_b 21.000000
_cell_length_c 24.000000
_cell_angle_alpha 90.000000
_cell_angle_beta 90.000000
_cell_angle_gamma 90.000000
_cell_volume 10584.000000
_symmetry_space_group_name_H-M "I 4/M M M"
_symmetry_group_IT_number 139
_symmetry_cell_setting 'tetragonal'
loop_
_space_group_symop_operation_xyz
x,y,z
-y,x,z
-x,-y,z
y,-x,z
x,-y,-z
-x,y,-z
y,x,-z
-y,-x,-z
-x,-y,-z
y,-x,-z
x,y,-z
-y,x,-z
-x,y,z
x,-y,z
-y,-x,z
y,x,z
1/2+x,1/2+y,1/2+z
1/2-y,1/2+x,1/2+z
1/2-x,1/2-y,1/2+z
1/2+y,1/2-x,1/2+z
1/2+x,1/2-y,1/2-z
1/2-x,1/2+y,1/2-z
1/2+y,1/2+x,1/2-z
1/2-y,1/2-x,1/2-z
1/2-x,1/2-y,1/2-z
1/2+y,1/2-x,1/2-z
1/2+x,1/2+y,1/2-z
1/2-y,1/2+x,1/2-z
1/2-x,1/2+y,1/2+z
1/2+x,1/2-y,1/2+z
1/2-y,1/2-x,1/2+z
1/2+y,1/2+x,1/2+z
loop_
_atom_site_type_symbol
_atom_site_label
_atom_site_fract_x
_atom_site_fract_y
_atom_site_fract_z
Si Si1 0.403889 0.185323 0.563397
Si Si2 0.075911 0.711220 0.325634
Si Si3 0.322072 0.574488 0.255599
Si Si4 0.675700 0.571444 0.388816
Si Si5 0.075837 0.569926 0.651926
Si Si6 0.848883 0.741565 0.436885
O O1 0.424288 0.175586 0.500000
O O2 0.424553 0.254465 0.584543
O O3 0.426957 0.125984 0.600929
O O4 0.326972 0.185381 0.564494
O O5 0.096104 0.758289 0.276227
O O6 0.090754 0.636240 0.316744
O O7 0.103948 0.736333 0.384382
O O8 0.000000 0.714908 0.329010
O O9 0.333971 0.500000 0.242527
O O10 0.380689 0.619312 0.238873
O O11 0.314849 0.578943 0.322202
O O12 0.649805 0.500000 0.398799
O O13 0.626361 0.626361 0.407283
O O14 0.084538 0.500000 0.679766
O O15 0.000000 0.573094 0.636198
O O16 0.876989 0.747589 0.500000
O O17 0.798438 0.798438 0.429673
#
# Coordination Sequence:
#
# PCOD9571978 Si02
#       6
#    32  32  32  32  32  32
#     4  10  20  34  53  75  99 129 165 206 251 296
#     4   9  17  30  49  71  97 130 165 203 245 288
#     4   9  18  33  53  76 101 129 162 202 247 294
#     4  10  21  36  54  76 101 129 163 204 249 298
#     4   9  18  32  50  74 102 131 166 205 244 289
#     4   9  17  29  46  69  98 130 163 201 243 289
#
# _framework density 9.0702949999999998
#
# number of rings (size 3 to 8) (size 9 to 14) (size 15 to 20)
#    0.000    2.667    0.000    1.500    0.000    3.333 
#    0.000    9.167    0.000   12.000    0.000    8.167 
#    0.000    0.000    0.000   15.500    0.000    0.500 
#
# Total GULP energy -534818.596645 kJ/mol
# GULP energy per Si atom -5571.027048 kJ/mol
# Density = 0.904965 g / cm^3
# Si number density = 9.070295 Si / 1000 Ang^3
#
#
#
# Elastic Constant Matrix: (Units=GPa)
#
#
# Indices 1 2 3 4 5 6 
#
# 1 64.6127 36.5388 9.6360 0.0000 0.0000 0.0000
# 2 36.5388 64.6127 9.6360 0.0000 0.0000 0.0000
# 3 9.6360 9.6360 1.1642 0.0000 0.0000 0.0000
# 4 0.0000 0.0000 0.0000 20.6817 0.0000 0.0000
# 5 0.0000 0.0000 0.0000 0.0000 20.6817 0.0000
# 6 0.0000 0.0000 0.0000 0.0000 0.0000 25.1747
#
#
#
# Elastic Compliance Matrix: (Units=1/GPa)
#
#
# Indices 1 2 3 4 5 6 
#
# 1 0.009242 -0.026378 0.141828 0.000000 0.000000 0.000000
# 2 -0.026378 0.009242 0.141828 0.000000 0.000000 0.000000
# 3 0.141828 0.141828 -1.488804 0.000000 0.000000 0.000000
# 4 0.000000 0.000000 0.000000 0.048352 0.000000 0.000000
# 5 0.000000 0.000000 0.000000 0.000000 0.048352 0.000000
# 6 0.000000 0.000000 0.000000 0.000000 0.000000 0.039722
#
#
# Mechanical properties :
#
#
# Convention : Reuss Voigt Hill
#
# Bulk Modulus (GPa) = -1.04628 26.89012 12.92192
# Shear Modulus (GPa) = -2.30730 18.27954 7.98612
#
# Velocity S-wave (km/s) = -1.12901 3.17781 2.10045
# Velocity P-wave (km/s) = 1.50916 5.32165 3.60849
#
# Compressibility (1/GPa) = -0.95576316
#
# Stress axis : x y z
#
# Youngs Moduli (GPa) = 108.19881 108.19913 -0.67168
#
# Poissons Ratio (x) = 2.85408 0.09526
# Poissons Ratio (y) = 2.85407 0.09526
# Poissons Ratio (z) = -15.34562 -15.34568
#
# Static dielectric constant tensor:
#      x y z
#    x 1.620990 0.000000 0.000000 
#    y 0.000000 1.620990 0.000000 
#    z 0.000000 0.000000 1.630740 
# 
# From -- ./inp_files/11918.got.cif
#   From: 2010.05.17/outbox.ucp.g08.bks.cvg/sg139_6_cif.got.tgz:11918.got - 2010.06.11 11:42:03.
