data_PCOD9571686
_publ_section_title
;
Structure prediction by ZEFSAII (Michael W. Deem and Ramdas Pophale) SiO2 
 PCOD9571686
Probable space group: I 4/M M M
;
_chemical_formula_sum "Si O2"
_cell_formula_units_Z 176
_cell_length_a 24.054183
_cell_length_b 24.054183
_cell_length_c 17.649624
_cell_angle_alpha 90.000000
_cell_angle_beta 90.000000
_cell_angle_gamma 90.000000
_cell_volume 10212.138099
_symmetry_space_group_name_H-M "I 4/M M M"
_symmetry_group_IT_number 139
_symmetry_cell_setting 'tetragonal'
loop_
_space_group_symop_operation_xyz
x,y,z
-y,x,z
-x,-y,z
y,-x,z
x,-y,-z
-x,y,-z
y,x,-z
-y,-x,-z
-x,-y,-z
y,-x,-z
x,y,-z
-y,x,-z
-x,y,z
x,-y,z
-y,-x,z
y,x,z
1/2+x,1/2+y,1/2+z
1/2-y,1/2+x,1/2+z
1/2-x,1/2-y,1/2+z
1/2+y,1/2-x,1/2+z
1/2+x,1/2-y,1/2-z
1/2-x,1/2+y,1/2-z
1/2+y,1/2+x,1/2-z
1/2-y,1/2-x,1/2-z
1/2-x,1/2-y,1/2-z
1/2+y,1/2-x,1/2-z
1/2+x,1/2+y,1/2-z
1/2-y,1/2+x,1/2-z
1/2-x,1/2+y,1/2+z
1/2+x,1/2-y,1/2+z
1/2-y,1/2-x,1/2+z
1/2+y,1/2+x,1/2+z
loop_
_atom_site_type_symbol
_atom_site_label
_atom_site_fract_x
_atom_site_fract_y
_atom_site_fract_z
Si Si1 0.770267 0.564913 0.168223
Si Si2 0.436398 0.000000 0.592144
Si Si3 0.886800 0.626209 0.409151
Si Si4 0.064433 0.844551 0.908425
Si Si5 0.844467 0.064152 0.411170
Si Si6 0.434852 0.777658 0.348774
O O1 0.781583 0.500000 0.147279
O O2 0.813153 0.604258 0.125524
O O3 0.708076 0.576793 0.141020
O O4 0.776612 0.570179 0.258053
O O5 0.407441 0.942424 0.616028
O O6 0.500000 0.000000 0.617435
O O7 0.435474 0.000000 0.500000
O O8 0.886796 0.628038 0.500000
O O9 0.829853 0.598481 0.381475
O O10 0.107206 0.892795 0.883607
O O11 0.081487 0.783188 0.880010
O O12 0.000000 0.854411 0.884108
O O13 0.064665 0.843887 0.000000
O O14 0.828302 0.070004 0.500000
O O15 0.894963 0.105038 0.395969
O O16 0.860490 0.000000 0.399473
O O17 0.500000 0.785114 0.368748
#
# Coordination Sequence:
#
# PCOD9571686 Si02
#       6
#    32  16  32  32  32  32
#     4  10  20  35  53  74 106 143 181 219 263 317
#     4   9  18  30  48  76 104 130 166 216 266 311
#     4  11  20  33  54  77 104 139 180 224 268 316
#     4   9  18  34  56  82 110 140 176 217 264 317
#     4   9  18  33  55  82 110 140 175 217 266 320
#     4  10  21  35  53  76 108 145 180 219 265 321
#
# _framework density 17.234393000000001
#
# number of rings (size 3 to 8) (size 9 to 14) (size 15 to 20)
#    0.000    2.273    0.909    2.182    0.000    3.636 
#    0.000    2.727    0.000    5.455    0.000    5.091 
#    0.000    0.000    0.000    0.000    0.000    0.000 
#
# Total GULP energy -490881.980894 kJ/mol
# GULP energy per Si atom -5578.204328 kJ/mol
# Density = 1.719517 g / cm^3
# Si number density = 17.234393 Si / 1000 Ang^3
#
#
#
# Elastic Constant Matrix: (Units=GPa)
#
#
# Indices 1 2 3 4 5 6 
#
# 1 96.6589 71.1829 35.1073 0.0000 0.0000 0.0000
# 2 71.1829 96.6589 35.1073 0.0000 0.0000 0.0000
# 3 35.1073 35.1073 35.7023 0.0000 0.0000 0.0000
# 4 0.0000 0.0000 0.0000 18.8443 0.0000 0.0000
# 5 0.0000 0.0000 0.0000 0.0000 18.8443 0.0000
# 6 0.0000 0.0000 0.0000 0.0000 0.0000 33.6593
#
#
#
# Elastic Compliance Matrix: (Units=1/GPa)
#
#
# Indices 1 2 3 4 5 6 
#
# 1 0.024687 -0.014565 -0.009953 0.000000 0.000000 0.000000
# 2 -0.014565 0.024687 -0.009953 0.000000 0.000000 0.000000
# 3 -0.009953 -0.009953 0.047584 0.000000 0.000000 0.000000
# 4 0.000000 0.000000 0.000000 0.053067 0.000000 0.000000
# 5 0.000000 0.000000 0.000000 0.000000 0.053067 0.000000
# 6 0.000000 0.000000 0.000000 0.000000 0.000000 0.029710
#
#
# Mechanical properties :
#
#
# Convention : Reuss Voigt Hill
#
# Bulk Modulus (GPa) = 35.69517 56.86832 46.28175
# Shear Modulus (GPa) = 16.07295 20.11108 18.09201
#
# Velocity S-wave (km/s) = 3.05718 3.41972 3.24352
# Velocity P-wave (km/s) = 5.76353 6.97576 6.39842
#
# Compressibility (1/GPa) = 0.02801499
#
# Stress axis : x y z
#
# Youngs Moduli (GPa) = 40.50691 40.50691 21.01565
#
# Poissons Ratio (x) = 0.59000 0.20917
# Poissons Ratio (y) = 0.59000 0.20917
# Poissons Ratio (z) = 0.40317 0.40317
#
# Static dielectric constant tensor:
#      x y z
#    x 1.571170 0.000000 0.000000 
#    y 0.000000 1.571170 0.000000 
#    z 0.000000 0.000000 1.578380 
# 
# From -- ./inp_files/6099.got.cif
#   From: 2010.05.17/outbox.cif.g08.bks.cpg/sg139_4_cif.got.tgz:6099.got - 2010.05.20 13:14:44.
