data_PCOD9571616
_publ_section_title
;
Structure prediction by ZEFSAII (Michael W. Deem and Ramdas Pophale) SiO2 
 PCOD9571616
Probable space group: I 4/M M M
;
_chemical_formula_sum "Si O2"
_cell_formula_units_Z 144
_cell_length_a 30.311476
_cell_length_b 30.311476
_cell_length_c 8.550775
_cell_angle_alpha 90.000000
_cell_angle_beta 90.000000
_cell_angle_gamma 90.000000
_cell_volume 7856.328745
_symmetry_space_group_name_H-M "I 4/M M M"
_symmetry_group_IT_number 139
_symmetry_cell_setting 'tetragonal'
loop_
_space_group_symop_operation_xyz
x,y,z
-y,x,z
-x,-y,z
y,-x,z
x,-y,-z
-x,y,-z
y,x,-z
-y,-x,-z
-x,-y,-z
y,-x,-z
x,y,-z
-y,x,-z
-x,y,z
x,-y,z
-y,-x,z
y,x,z
1/2+x,1/2+y,1/2+z
1/2-y,1/2+x,1/2+z
1/2-x,1/2-y,1/2+z
1/2+y,1/2-x,1/2+z
1/2+x,1/2-y,1/2-z
1/2-x,1/2+y,1/2-z
1/2+y,1/2+x,1/2-z
1/2-y,1/2-x,1/2-z
1/2-x,1/2-y,1/2-z
1/2+y,1/2-x,1/2-z
1/2+x,1/2+y,1/2-z
1/2-y,1/2+x,1/2-z
1/2-x,1/2+y,1/2+z
1/2+x,1/2-y,1/2+z
1/2-y,1/2-x,1/2+z
1/2+y,1/2+x,1/2+z
loop_
_atom_site_type_symbol
_atom_site_label
_atom_site_fract_x
_atom_site_fract_y
_atom_site_fract_z
Si Si1 0.047391 0.121788 0.500000
Si Si2 0.121796 0.550969 0.687460
Si Si3 0.075642 0.851713 0.828336
Si Si4 0.221703 0.152112 0.181119
Si Si5 0.687568 0.882185 0.684756
O O1 0.087552 0.087552 0.500000
O O2 0.050760 0.148792 0.337250
O O3 0.000000 0.098709 0.500000
O O4 0.120234 0.552187 0.500000
O O5 0.117578 0.500000 0.738856
O O6 0.082402 0.582402 0.750000
O O7 0.168005 0.572904 0.741565
O O8 0.101786 0.898215 0.832552
O O9 0.113365 0.814540 0.820055
O O10 0.053436 0.846854 0.000000
O O11 0.196015 0.196015 0.240230
O O12 0.263599 0.133613 0.271511
O O13 0.234461 0.160469 0.000000
O O14 0.682967 0.885601 0.500000
O O15 0.655377 0.844624 0.750000
#
# Coordination Sequence:
#
# PCOD9571616 Si02
#       5
#    16  32  32  32  32
#     4  10  20  33  52  76 104 136 174 220 269 331
#     4  10  21  38  60  83 109 143 182 226 278 335
#     4   8  16  32  53  75 100 134 175 221 271 318
#     4   9  18  34  56  79 105 140 183 228 271 320
#     4  11  22  35  54  79 112 150 183 221 269 323
#
# _framework density 18.329172
#
# number of rings (size 3 to 8) (size 9 to 14) (size 15 to 20)
#    0.000    2.444    0.000    5.333    1.556    3.444 
#    0.000    2.222    0.000    1.333    0.000    3.111 
#    0.000    0.000    0.000    0.000    0.000    0.000 
#
# Total GULP energy -400867.253240 kJ/mol
# GULP energy per Si atom -5567.600739 kJ/mol
# Density = 1.828745 g / cm^3
# Si number density = 18.329172 Si / 1000 Ang^3
#
#
#
# Elastic Constant Matrix: (Units=GPa)
#
#
# Indices 1 2 3 4 5 6 
#
# 1 86.4690 39.0782 37.2419 0.0000 0.0000 0.0000
# 2 39.0782 86.4678 37.2475 0.0000 0.0000 0.0000
# 3 37.2419 37.2475 128.7435 0.0000 0.0000 0.0000
# 4 0.0000 0.0000 0.0000 46.0147 0.0000 0.0000
# 5 0.0000 0.0000 0.0000 0.0000 46.0238 0.0000
# 6 0.0000 0.0000 0.0000 0.0000 0.0000 19.4149
#
#
#
# Elastic Compliance Matrix: (Units=1/GPa)
#
#
# Indices 1 2 3 4 5 6 
#
# 1 0.015358 -0.005743 -0.002781 0.000000 0.000000 0.000000
# 2 -0.005743 0.015359 -0.002782 0.000000 0.000000 0.000000
# 3 -0.002781 -0.002782 0.009377 0.000000 0.000000 0.000000
# 4 0.000000 0.000000 0.000000 0.021732 0.000000 0.000000
# 5 0.000000 0.000000 0.000000 0.000000 0.021728 0.000000
# 6 0.000000 0.000000 0.000000 0.000000 0.000000 0.051507
#
#
# Mechanical properties :
#
#
# Convention : Reuss Voigt Hill
#
# Bulk Modulus (GPa) = 57.20442 58.75726 57.98084
# Shear Modulus (GPa) = 30.58091 34.83152 32.70622
#
# Velocity S-wave (km/s) = 4.08907 4.36401 4.22878
# Velocity P-wave (km/s) = 7.31924 7.58413 7.45286
#
# Compressibility (1/GPa) = 0.01748117
#
# Stress axis : x y z
#
# Youngs Moduli (GPa) = 65.11234 65.10851 106.64550
#
# Poissons Ratio (x) = 0.37391 0.29660
# Poissons Ratio (y) = 0.37393 0.29672
# Poissons Ratio (z) = 0.18109 0.18115
#
# Static dielectric constant tensor:
#      x y z
#    x 1.624320 0.000000 0.000000 
#    y 0.000000 1.624320 0.000000 
#    z 0.000000 0.000000 1.664010 
# 
# From -- ./inp_files/1954.got.cif
#   From: 2010.05.17/outbox.cif.g08.bks.cpg/sg139_1_cif.got.tgz:1954.got - 2010.05.20 13:14:44.
