data_PCOD9571917
_publ_section_title
;
Structure prediction by ZEFSAII (Michael W. Deem and Ramdas Pophale) SiO2 
 PCOD9571917
Probable space group: I 4/M M M
;
_chemical_formula_sum "Si O2"
_cell_formula_units_Z 96
_cell_length_a 17.043532
_cell_length_b 17.043532
_cell_length_c 18.192122
_cell_angle_alpha 90.000000
_cell_angle_beta 90.000000
_cell_angle_gamma 90.000000
_cell_volume 5284.483674
_symmetry_space_group_name_H-M "I 4/M M M"
_symmetry_group_IT_number 139
_symmetry_cell_setting 'tetragonal'
loop_
_space_group_symop_operation_xyz
x,y,z
-y,x,z
-x,-y,z
y,-x,z
x,-y,-z
-x,y,-z
y,x,-z
-y,-x,-z
-x,-y,-z
y,-x,-z
x,y,-z
-y,x,-z
-x,y,z
x,-y,z
-y,-x,z
y,x,z
1/2+x,1/2+y,1/2+z
1/2-y,1/2+x,1/2+z
1/2-x,1/2-y,1/2+z
1/2+y,1/2-x,1/2+z
1/2+x,1/2-y,1/2-z
1/2-x,1/2+y,1/2-z
1/2+y,1/2+x,1/2-z
1/2-y,1/2-x,1/2-z
1/2-x,1/2-y,1/2-z
1/2+y,1/2-x,1/2-z
1/2+x,1/2+y,1/2-z
1/2-y,1/2+x,1/2-z
1/2-x,1/2+y,1/2+z
1/2+x,1/2-y,1/2+z
1/2-y,1/2-x,1/2+z
1/2+y,1/2+x,1/2+z
loop_
_atom_site_type_symbol
_atom_site_label
_atom_site_fract_x
_atom_site_fract_y
_atom_site_fract_z
Si Si1 0.640639 0.811103 0.641599
Si Si2 0.592024 0.000000 0.085960
Si Si3 0.594680 0.279249 0.208757
Si Si4 0.286596 0.405950 0.500000
O O1 0.575094 0.876593 0.628361
O O2 0.617292 0.759488 0.712448
O O3 0.722179 0.856762 0.653491
O O4 0.630481 0.756589 0.570730
O O5 0.500000 0.000000 0.085084
O O6 0.617984 0.000000 0.000000
O O7 0.500000 0.279034 0.199102
O O8 0.635222 0.364779 0.204988
O O9 0.283968 0.500000 0.500000
O O10 0.375020 0.375020 0.500000
#
# Coordination Sequence:
#
# PCOD9571917 Si02
#       4
#    32  16  32  16
#     4  11  20  39  57  87 116 150 190 233 288 346
#     4  11  20  34  58  88 122 149 181 237 290 342
#     4  11  23  39  59  83 114 151 194 239 286 342
#     4  12  22  37  60  86 119 157 193 231 285 342
#
# _framework density 18.166391999999998
#
# number of rings (size 3 to 8) (size 9 to 14) (size 15 to 20)
#    0.000    0.833    5.000    5.000    0.000    0.500 
#    0.000    0.000    0.000    4.000    0.000    0.000 
#    0.000    4.000    0.000    0.000    0.000    0.333 
#
# Total GULP energy -267802.847350 kJ/mol
# GULP energy per Si atom -5579.225986 kJ/mol
# Density = 1.812504 g / cm^3
# Si number density = 18.166392 Si / 1000 Ang^3
#
#
#
# Elastic Constant Matrix: (Units=GPa)
#
#
# Indices 1 2 3 4 5 6 
#
# 1 122.3107 97.3897 35.3363 0.0000 0.0000 0.0000
# 2 97.3897 122.3107 35.3363 0.0000 0.0000 0.0000
# 3 35.3363 35.3363 81.2083 0.0000 0.0000 0.0000
# 4 0.0000 0.0000 0.0000 8.0834 0.0000 0.0000
# 5 0.0000 0.0000 0.0000 0.0000 8.0834 0.0000
# 6 0.0000 0.0000 0.0000 0.0000 0.0000 33.5385
#
#
#
# Elastic Compliance Matrix: (Units=1/GPa)
#
#
# Indices 1 2 3 4 5 6 
#
# 1 0.022710 -0.017417 -0.002303 0.000000 0.000000 0.000000
# 2 -0.017417 0.022710 -0.002303 0.000000 0.000000 0.000000
# 3 -0.002303 -0.002303 0.014318 0.000000 0.000000 0.000000
# 4 0.000000 0.000000 0.000000 0.123711 0.000000 0.000000
# 5 0.000000 0.000000 0.000000 0.000000 0.123711 0.000000
# 6 0.000000 0.000000 0.000000 0.000000 0.000000 0.029816
#
#
# Mechanical properties :
#
#
# Convention : Reuss Voigt Hill
#
# Bulk Modulus (GPa) = 63.72919 73.55049 68.63984
# Shear Modulus (GPa) = 12.94492 20.45889 16.70190
#
# Velocity S-wave (km/s) = 2.67231 3.35952 3.03543
# Velocity P-wave (km/s) = 6.68421 7.45812 7.08174
#
# Compressibility (1/GPa) = 0.01569140
#
# Stress axis : x y z
#
# Youngs Moduli (GPa) = 44.03428 44.03428 69.84142
#
# Poissons Ratio (x) = 0.76695 0.16084
# Poissons Ratio (y) = 0.76695 0.16084
# Poissons Ratio (z) = 0.10141 0.10141
#
# Static dielectric constant tensor:
#      x y z
#    x 1.631200 0.000000 0.000000 
#    y 0.000000 1.631200 0.000000 
#    z 0.000000 0.000000 1.640420 
# 
# From -- ./inp_files/7290.got.cif
#   From: 2010.05.17/outbox.cif.g08.bks.cpg/sg139_4_cif.got.tgz:7290.got - 2010.05.20 13:14:44.
