data_PCOD9571794
_publ_section_title
;
Structure prediction by ZEFSAII (Michael W. Deem and Ramdas Pophale) SiO2 
 PCOD9571794
Probable space group: I 4/M M M
;
_chemical_formula_sum "Si O2"
_cell_formula_units_Z 168
_cell_length_a 23.933288
_cell_length_b 23.933288
_cell_length_c 14.330118
_cell_angle_alpha 90.000000
_cell_angle_beta 90.000000
_cell_angle_gamma 90.000000
_cell_volume 8208.324184
_symmetry_space_group_name_H-M "I 4/M M M"
_symmetry_group_IT_number 139
_symmetry_cell_setting 'tetragonal'
loop_
_space_group_symop_operation_xyz
x,y,z
-y,x,z
-x,-y,z
y,-x,z
x,-y,-z
-x,y,-z
y,x,-z
-y,-x,-z
-x,-y,-z
y,-x,-z
x,y,-z
-y,x,-z
-x,y,z
x,-y,z
-y,-x,z
y,x,z
1/2+x,1/2+y,1/2+z
1/2-y,1/2+x,1/2+z
1/2-x,1/2-y,1/2+z
1/2+y,1/2-x,1/2+z
1/2+x,1/2-y,1/2-z
1/2-x,1/2+y,1/2-z
1/2+y,1/2+x,1/2-z
1/2-y,1/2-x,1/2-z
1/2-x,1/2-y,1/2-z
1/2+y,1/2-x,1/2-z
1/2+x,1/2+y,1/2-z
1/2-y,1/2+x,1/2-z
1/2-x,1/2+y,1/2+z
1/2+x,1/2-y,1/2+z
1/2-y,1/2-x,1/2+z
1/2+y,1/2+x,1/2+z
loop_
_atom_site_type_symbol
_atom_site_label
_atom_site_fract_x
_atom_site_fract_y
_atom_site_fract_z
Si Si1 0.110432 0.277206 0.606101
Si Si2 0.905232 0.180876 0.149729
Si Si3 0.786435 0.345811 0.390255
Si Si4 0.844264 0.064835 0.359606
Si Si5 0.000000 0.792100 0.000000
Si Si6 0.150687 0.564477 0.724899
O O1 0.101252 0.298984 0.500000
O O2 0.175162 0.291899 0.629592
O O3 0.093860 0.212637 0.605664
O O4 0.074953 0.309267 0.685181
O O5 0.872914 0.127087 0.110645
O O6 0.858974 0.229421 0.163084
O O7 0.931509 0.162894 0.247541
O O8 0.951353 0.204478 0.081004
O O9 0.773636 0.345359 0.500000
O O10 0.825421 0.397601 0.358756
O O11 0.897808 0.102193 0.385606
O O12 0.847732 0.000000 0.387576
O O13 0.149643 0.500000 0.701031
O O14 0.090881 0.590881 0.750000
#
# Coordination Sequence:
#
# PCOD9571794 Si02
#       6
#    32  32  32  32   8  32
#     4  10  22  40  62  90 119 155 199 251 311 371
#     4  11  23  37  58  89 124 164 205 249 299 358
#     4  10  21  36  59  92 125 155 194 244 307 367
#     4  11  24  42  63  88 120 159 204 253 307 363
#     4  12  22  36  60  89 126 172 205 242 290 368
#     4  10  21  36  56  83 119 158 201 250 300 360
#
# _framework density 20.467027999999999
#
# number of rings (size 3 to 8) (size 9 to 14) (size 15 to 20)
#    0.000    1.524    3.810    0.857    1.333    3.429 
#    0.000    3.810    0.000    2.286    0.000    6.667 
#    0.000    0.000    0.000    0.000    0.000    0.000 
#
# Total GULP energy -467864.723305 kJ/mol
# GULP energy per Si atom -5569.818135 kJ/mol
# Density = 2.042044 g / cm^3
# Si number density = 20.467028 Si / 1000 Ang^3
#
#
#
# Elastic Constant Matrix: (Units=GPa)
#
#
# Indices 1 2 3 4 5 6 
#
# 1 98.0804 85.5579 5.4381 0.0000 0.0000 0.0000
# 2 85.5579 98.0804 5.4381 0.0000 0.0000 0.0000
# 3 5.4381 5.4381 64.5383 0.0000 0.0000 0.0000
# 4 0.0000 0.0000 0.0000 20.2805 0.0000 0.0000
# 5 0.0000 0.0000 0.0000 0.0000 20.2805 0.0000
# 6 0.0000 0.0000 0.0000 0.0000 0.0000 10.2766
#
#
#
# Elastic Compliance Matrix: (Units=1/GPa)
#
#
# Indices 1 2 3 4 5 6 
#
# 1 0.042665 -0.037192 -0.000461 0.000000 0.000000 0.000000
# 2 -0.037192 0.042665 -0.000461 0.000000 0.000000 0.000000
# 3 -0.000461 -0.000461 0.015572 0.000000 0.000000 0.000000
# 4 0.000000 0.000000 0.000000 0.049308 0.000000 0.000000
# 5 0.000000 0.000000 0.000000 0.000000 0.049308 0.000000
# 6 0.000000 0.000000 0.000000 0.000000 0.000000 0.097308
#
#
# Mechanical properties :
#
#
# Convention : Reuss Voigt Hill
#
# Bulk Modulus (GPa) = 40.52945 50.39635 45.46290
# Shear Modulus (GPa) = 13.11374 21.11853 17.11613
#
# Velocity S-wave (km/s) = 2.53400 3.21570 2.89499
# Velocity P-wave (km/s) = 5.32981 6.20196 5.78235
#
# Compressibility (1/GPa) = 0.02467341
#
# Stress axis : x y z
#
# Youngs Moduli (GPa) = 23.43863 23.43863 64.21622
#
# Poissons Ratio (x) = 0.87173 0.02961
# Poissons Ratio (y) = 0.87173 0.02961
# Poissons Ratio (z) = 0.01081 0.01081
#
# Static dielectric constant tensor:
#      x y z
#    x 1.738010 0.000000 0.000000 
#    y 0.000000 1.738010 0.000000 
#    z 0.000000 0.000000 1.759920 
# 
# From -- ./inp_files/6098.got.cif
#   From: 2010.05.17/outbox.cif.g08.bks.cpg/sg139_4_cif.got.tgz:6098.got - 2010.05.20 13:14:44.
