data_PCOD9571908
_publ_section_title
;
Structure prediction by ZEFSAII (Michael W. Deem and Ramdas Pophale) SiO2 
 PCOD9571908
Probable space group: I 4/M M M
;
_chemical_formula_sum "Si O2"
_cell_formula_units_Z 88
_cell_length_a 17.651213
_cell_length_b 17.651213
_cell_length_c 14.111436
_cell_angle_alpha 90.000000
_cell_angle_beta 90.000000
_cell_angle_gamma 90.000000
_cell_volume 4396.634078
_symmetry_space_group_name_H-M "I 4/M M M"
_symmetry_group_IT_number 139
_symmetry_cell_setting 'tetragonal'
loop_
_space_group_symop_operation_xyz
x,y,z
-y,x,z
-x,-y,z
y,-x,z
x,-y,-z
-x,y,-z
y,x,-z
-y,-x,-z
-x,-y,-z
y,-x,-z
x,y,-z
-y,x,-z
-x,y,z
x,-y,z
-y,-x,z
y,x,z
1/2+x,1/2+y,1/2+z
1/2-y,1/2+x,1/2+z
1/2-x,1/2-y,1/2+z
1/2+y,1/2-x,1/2+z
1/2+x,1/2-y,1/2-z
1/2-x,1/2+y,1/2-z
1/2+y,1/2+x,1/2-z
1/2-y,1/2-x,1/2-z
1/2-x,1/2-y,1/2-z
1/2+y,1/2-x,1/2-z
1/2+x,1/2+y,1/2-z
1/2-y,1/2+x,1/2-z
1/2-x,1/2+y,1/2+z
1/2+x,1/2-y,1/2+z
1/2-y,1/2-x,1/2+z
1/2+y,1/2+x,1/2+z
loop_
_atom_site_type_symbol
_atom_site_label
_atom_site_fract_x
_atom_site_fract_y
_atom_site_fract_z
Si Si1 0.155426 0.844575 0.808090
Si Si2 0.827584 0.827584 0.394259
Si Si3 0.413963 0.000000 0.114664
Si Si4 0.088341 0.911660 0.000000
Si Si5 0.817652 0.352695 0.610837
O O1 0.136000 0.864001 0.699671
O O2 0.118176 0.881825 0.899599
O O3 0.141673 0.755636 0.823998
O O4 0.851734 0.851734 0.500000
O O5 0.841164 0.736032 0.387912
O O6 0.373511 0.920546 0.139770
O O7 0.500000 0.000000 0.147011
O O8 0.414587 0.000000 0.000000
O O9 0.000000 0.895650 0.000000
O O10 0.795994 0.366464 0.500000
#
# Coordination Sequence:
#
# PCOD9571908 Si02
#       5
#    16  16  16   8  32
#     4  11  19  35  64  84 116 154 196 251 310 366
#     4   9  19  35  58  86 111 153 211 259 285 337
#     4   9  18  30  50  82 125 171 201 242 309 370
#     4  11  26  42  62 100 124 132 174 254 336 381
#     4   9  16  29  53  85 119 156 209 254 295 355
#
# _framework density 20.015309999999999
#
# number of rings (size 3 to 8) (size 9 to 14) (size 15 to 20)
#    0.000    2.455    1.818    3.273    2.545    0.000 
#    0.000    1.818   12.000    3.273    0.000    1.273 
#    0.000    0.000    0.000    0.000    0.000    0.000 
#
# Total GULP energy -245083.690726 kJ/mol
# GULP energy per Si atom -5570.083880 kJ/mol
# Density = 1.996975 g / cm^3
# Si number density = 20.015310 Si / 1000 Ang^3
#
#
#
# Elastic Constant Matrix: (Units=GPa)
#
#
# Indices 1 2 3 4 5 6 
#
# 1 65.6481 63.8962 26.1573 0.0000 0.0000 0.0000
# 2 63.8962 65.6488 26.1574 0.0000 0.0000 0.0000
# 3 26.1573 26.1574 196.9895 0.0000 0.0000 0.0000
# 4 0.0000 0.0000 0.0000 -96.1538 0.0000 0.0000
# 5 0.0000 0.0000 0.0000 0.0000 -96.4440 0.0000
# 6 0.0000 0.0000 0.0000 0.0000 0.0000 31.3152
#
#
#
# Elastic Compliance Matrix: (Units=1/GPa)
#
#
# Indices 1 2 3 4 5 6 
#
# 1 0.289429 -0.281271 -0.001083 0.000000 0.000000 0.000000
# 2 -0.281271 0.289426 -0.001083 0.000000 0.000000 0.000000
# 3 -0.001083 -0.001083 0.005364 0.000000 0.000000 0.000000
# 4 0.000000 0.000000 0.000000 -0.010400 0.000000 0.000000
# 5 0.000000 0.000000 0.000000 0.000000 -0.010369 0.000000
# 6 0.000000 0.000000 0.000000 0.000000 0.000000 0.031933
#
#
# Mechanical properties :
#
#
# Convention : Reuss Voigt Hill
#
# Bulk Modulus (GPa) = 57.65304 62.30092 59.97698
# Shear Modulus (GPa) = 4.28068 -18.11815 -6.91874
#
# Velocity S-wave (km/s) = 1.46402 -3.01194 -1.86124
# Velocity P-wave (km/s) = 5.63248 4.37018 5.04100
#
# Compressibility (1/GPa) = 0.01734514
#
# Stress axis : x y z
#
# Youngs Moduli (GPa) = 3.45507 3.45512 186.42628
#
# Poissons Ratio (x) = 0.97182 0.20195
# Poissons Ratio (y) = 0.97181 0.20189
# Poissons Ratio (z) = 0.00374 0.00374
#
# Static dielectric constant tensor:
#      x y z
#    x 1.805250 0.000000 0.000000 
#    y 0.000000 1.805250 0.000000 
#    z 0.000000 0.000000 1.819290 
# 
# From -- ./inp_files/4931.got.cif
#   From: 2010.05.17/outbox.cif.g08.bks.cpg/sg139_3_cif.got.tgz:4931.got - 2010.05.20 13:14:44.
