data_PCOD9571755
_publ_section_title
;
Structure prediction by ZEFSAII (Michael W. Deem and Ramdas Pophale) SiO2 
 PCOD9571755
Probable space group: I 4/M M M
;
_chemical_formula_sum "Si O2"
_cell_formula_units_Z 192
_cell_length_a 27.509370
_cell_length_b 27.509370
_cell_length_c 14.291608
_cell_angle_alpha 90.000000
_cell_angle_beta 90.000000
_cell_angle_gamma 90.000000
_cell_volume 10815.394985
_symmetry_space_group_name_H-M "I 4/M M M"
_symmetry_group_IT_number 139
_symmetry_cell_setting 'tetragonal'
loop_
_space_group_symop_operation_xyz
x,y,z
-y,x,z
-x,-y,z
y,-x,z
x,-y,-z
-x,y,-z
y,x,-z
-y,-x,-z
-x,-y,-z
y,-x,-z
x,y,-z
-y,x,-z
-x,y,z
x,-y,z
-y,-x,z
y,x,z
1/2+x,1/2+y,1/2+z
1/2-y,1/2+x,1/2+z
1/2-x,1/2-y,1/2+z
1/2+y,1/2-x,1/2+z
1/2+x,1/2-y,1/2-z
1/2-x,1/2+y,1/2-z
1/2+y,1/2+x,1/2-z
1/2-y,1/2-x,1/2-z
1/2-x,1/2-y,1/2-z
1/2+y,1/2-x,1/2-z
1/2+x,1/2+y,1/2-z
1/2-y,1/2+x,1/2-z
1/2-x,1/2+y,1/2+z
1/2+x,1/2-y,1/2+z
1/2-y,1/2-x,1/2+z
1/2+y,1/2+x,1/2+z
loop_
_atom_site_type_symbol
_atom_site_label
_atom_site_fract_x
_atom_site_fract_y
_atom_site_fract_z
Si Si1 0.813539 0.104648 0.500000
Si Si2 0.375675 0.944534 0.795171
Si Si3 0.370201 0.198352 0.795002
Si Si4 0.702463 0.621770 0.695753
Si Si5 0.156357 0.444293 0.500000
Si Si6 0.345960 0.206646 0.000000
Si Si7 0.057830 0.859499 0.318208
Si Si8 0.135741 0.258810 0.000000
O O1 0.854012 0.145989 0.500000
O O2 0.762708 0.134793 0.500000
O O3 0.825602 0.072556 0.592403
O O4 0.424394 0.924394 0.750000
O O5 0.332438 0.911903 0.754434
O O6 0.374678 0.938533 0.906483
O O7 0.366996 0.000000 0.772011
O O8 0.319988 0.180013 0.750000
O O9 0.376567 0.253892 0.769630
O O10 0.367872 0.186750 0.903977
O O11 0.667541 0.667541 0.710123
O O12 0.669759 0.575374 0.725030
O O13 0.726443 0.627089 0.592940
O O14 0.175815 0.500000 0.500000
O O15 0.199406 0.405365 0.500000
O O16 0.289403 0.187200 0.000000
O O17 0.091712 0.908289 0.324219
O O18 0.000000 0.868864 0.318393
#
# Coordination Sequence:
#
# PCOD9571755 Si02
#       8
#    16  32  32  32  16  16  32  16
#     4  10  21  37  57  86 120 157 195 236 293 351
#     4  10  21  38  60  83 112 147 190 244 298 351
#     4  11  21  38  56  80 116 155 201 241 281 340
#     4  11  23  37  56  86 120 152 192 242 288 336
#     4  10  20  37  62  85 108 152 202 242 291 350
#     4  12  22  35  56  86 121 165 199 240 278 345
#     4  10  22  41  63  87 119 153 193 248 305 363
#     4  12  21  39  57  85 122 158 204 242 283 342
#
# _framework density 17.752472000000001
#
# number of rings (size 3 to 8) (size 9 to 14) (size 15 to 20)
#    0.000    1.333    5.000    1.500    0.000    2.667 
#    0.000    1.667    0.000    3.000    0.000    0.000 
#    0.000    2.667    0.000    0.000    0.000    0.000 
#
# Total GULP energy -535011.078886 kJ/mol
# GULP energy per Si atom -5573.032072 kJ/mol
# Density = 1.771207 g / cm^3
# Si number density = 17.752472 Si / 1000 Ang^3
#
#
#
# Elastic Constant Matrix: (Units=GPa)
#
#
# Indices 1 2 3 4 5 6 
#
# 1 99.5154 41.1313 37.4296 0.0000 0.0000 0.0000
# 2 41.1313 99.5145 37.4285 0.0000 0.0000 0.0000
# 3 37.4296 37.4285 123.4769 0.0000 0.0000 0.0000
# 4 0.0000 0.0000 0.0000 25.4100 0.0000 0.0000
# 5 0.0000 0.0000 0.0000 0.0000 25.4099 0.0000
# 6 0.0000 0.0000 0.0000 0.0000 0.0000 12.0966
#
#
#
# Elastic Compliance Matrix: (Units=1/GPa)
#
#
# Indices 1 2 3 4 5 6 
#
# 1 0.012803 -0.004325 -0.002570 0.000000 0.000000 0.000000
# 2 -0.004325 0.012803 -0.002570 0.000000 0.000000 0.000000
# 3 -0.002570 -0.002570 0.009657 0.000000 0.000000 0.000000
# 4 0.000000 0.000000 0.000000 0.039355 0.000000 0.000000
# 5 0.000000 0.000000 0.000000 0.000000 0.039355 0.000000
# 6 0.000000 0.000000 0.000000 0.000000 0.000000 0.082668
#
#
# Mechanical properties :
#
#
# Convention : Reuss Voigt Hill
#
# Bulk Modulus (GPa) = 61.22609 61.60952 61.41781
# Shear Modulus (GPa) = 22.62302 26.35113 24.48707
#
# Velocity S-wave (km/s) = 3.57369 3.85692 3.71800
# Velocity P-wave (km/s) = 7.18276 7.39017 7.28720
#
# Compressibility (1/GPa) = 0.01633291
#
# Stress axis : x y z
#
# Youngs Moduli (GPa) = 78.10703 78.10688 103.55550
#
# Poissons Ratio (x) = 0.33782 0.26613
# Poissons Ratio (y) = 0.33782 0.26611
# Poissons Ratio (z) = 0.20073 0.20072
#
# Static dielectric constant tensor:
#      x y z
#    x 1.605110 0.000000 0.000000 
#    y 0.000000 1.605110 0.000000 
#    z 0.000000 0.000000 1.635050 
# 
# From -- ./inp_files/6566.got.cif
#   From: 2010.05.17/outbox.cif.g08.bks.cpg/sg139_4_cif.got.tgz:6566.got - 2010.05.20 13:14:44.
