data_PCOD9571316
_publ_section_title
;
Structure prediction by ZEFSAII (Michael W. Deem and Ramdas Pophale) SiO2 
 PCOD9571316
Probable space group: I 4/M M M
;
_chemical_formula_sum "Si O2"
_cell_formula_units_Z 192
_cell_length_a 29.882471
_cell_length_b 29.882471
_cell_length_c 13.397694
_cell_angle_alpha 90.000000
_cell_angle_beta 90.000000
_cell_angle_gamma 90.000000
_cell_volume 11963.632609
_symmetry_space_group_name_H-M "I 4/M M M"
_symmetry_group_IT_number 139
_symmetry_cell_setting 'tetragonal'
loop_
_space_group_symop_operation_xyz
x,y,z
-y,x,z
-x,-y,z
y,-x,z
x,-y,-z
-x,y,-z
y,x,-z
-y,-x,-z
-x,-y,-z
y,-x,-z
x,y,-z
-y,x,-z
-x,y,z
x,-y,z
-y,-x,z
y,x,z
1/2+x,1/2+y,1/2+z
1/2-y,1/2+x,1/2+z
1/2-x,1/2-y,1/2+z
1/2+y,1/2-x,1/2+z
1/2+x,1/2-y,1/2-z
1/2-x,1/2+y,1/2-z
1/2+y,1/2+x,1/2-z
1/2-y,1/2-x,1/2-z
1/2-x,1/2-y,1/2-z
1/2+y,1/2-x,1/2-z
1/2+x,1/2+y,1/2-z
1/2-y,1/2+x,1/2-z
1/2-x,1/2+y,1/2+z
1/2+x,1/2-y,1/2+z
1/2-y,1/2-x,1/2+z
1/2+y,1/2+x,1/2+z
loop_
_atom_site_type_symbol
_atom_site_label
_atom_site_fract_x
_atom_site_fract_y
_atom_site_fract_z
Si Si1 0.854732 0.247607 0.113220
Si Si2 0.265653 0.803956 0.384909
Si Si3 0.552959 0.243905 0.118754
Si Si4 0.374676 0.552599 0.611557
Si Si5 0.883297 0.312976 0.738561
Si Si6 0.608298 0.679336 0.229437
O O1 0.804429 0.266542 0.115833
O O2 0.884445 0.289256 0.153499
O O3 0.863950 0.208452 0.190397
O O4 0.864900 0.234879 0.000000
O O5 0.259316 0.818118 0.500000
O O6 0.220281 0.779720 0.350293
O O7 0.285460 0.844261 0.321136
O O8 0.500000 0.250224 0.139586
O O9 0.572722 0.200534 0.177286
O O10 0.582401 0.286474 0.156617
O O11 0.558537 0.238562 0.000000
O O12 0.355521 0.561978 0.500000
O O13 0.379850 0.500000 0.621185
O O14 0.421606 0.578395 0.615617
O O15 0.345508 0.572221 0.700975
O O16 0.862770 0.362770 0.750000
O O17 0.642119 0.642119 0.184421
#
# Coordination Sequence:
#
# PCOD9571316 Si02
#       6
#    32  32  32  32  32  32
#     4   9  17  27  39  59  88 120 151 183 220 261
#     4   9  16  25  38  58  86 118 151 187 224 260
#     4  10  21  36  52  70  95 126 158 195 240 285
#     4   9  17  28  42  60  81 107 143 191 248 306
#     4   9  18  30  46  66  89 119 155 192 226 269
#     4  10  19  30  45  64  88 120 159 199 234 273
#
# _framework density 16.048636999999999
#
# number of rings (size 3 to 8) (size 9 to 14) (size 15 to 20)
#    0.000    2.667    0.000    2.000    0.000    8.500 
#    0.000    0.833    0.000    4.500    0.000    0.000 
#    0.000    0.333    0.000   17.333    0.000    0.167 
#
# Total GULP energy -534767.387751 kJ/mol
# GULP energy per Si atom -5570.493622 kJ/mol
# Density = 1.601211 g / cm^3
# Si number density = 16.048637 Si / 1000 Ang^3
#
#
#
# Elastic Constant Matrix: (Units=GPa)
#
#
# Indices 1 2 3 4 5 6 
#
# 1 52.4015 41.4119 25.1475 0.0000 0.0000 0.0000
# 2 41.4119 52.4015 25.1475 0.0000 0.0000 0.0000
# 3 25.1475 25.1475 62.3408 0.0000 0.0000 0.0000
# 4 0.0000 0.0000 0.0000 19.4594 0.0000 0.0000
# 5 0.0000 0.0000 0.0000 0.0000 19.4594 0.0000
# 6 0.0000 0.0000 0.0000 0.0000 0.0000 8.7890
#
#
#
# Elastic Compliance Matrix: (Units=1/GPa)
#
#
# Indices 1 2 3 4 5 6 
#
# 1 0.052298 -0.038697 -0.005486 0.000000 0.000000 0.000000
# 2 -0.038697 0.052298 -0.005486 0.000000 0.000000 0.000000
# 3 -0.005486 -0.005486 0.020467 0.000000 0.000000 0.000000
# 4 0.000000 0.000000 0.000000 0.051389 0.000000 0.000000
# 5 0.000000 0.000000 0.000000 0.000000 0.051389 0.000000
# 6 0.000000 0.000000 0.000000 0.000000 0.000000 0.113779
#
#
# Mechanical properties :
#
#
# Convention : Reuss Voigt Hill
#
# Bulk Modulus (GPa) = 38.87545 38.95085 38.91315
# Shear Modulus (GPa) = 11.12263 14.57070 12.84667
#
# Velocity S-wave (km/s) = 2.63546 3.01642 2.83235
# Velocity P-wave (km/s) = 5.79111 6.03779 5.91574
#
# Compressibility (1/GPa) = 0.02572318
#
# Stress axis : x y z
#
# Youngs Moduli (GPa) = 19.12121 19.12121 48.85874
#
# Poissons Ratio (x) = 0.73994 0.26806
# Poissons Ratio (y) = 0.73994 0.26806
# Poissons Ratio (z) = 0.10491 0.10491
#
# Static dielectric constant tensor:
#      x y z
#    x 1.550890 0.000000 0.000000 
#    y 0.000000 1.550890 0.000000 
#    z 0.000000 0.000000 1.578150 
# 
# From -- ./inp_files/6655.got.cif
#   From: 2010.05.17/outbox.cif.g08.bks.cpg/sg139_4_cif.got.tgz:6655.got - 2010.05.20 13:14:44.
