data_PCOD9571034
_publ_section_title
;
Structure prediction by ZEFSAII (Michael W. Deem and Ramdas Pophale) SiO2 
 PCOD9571034
Probable space group: P 42/N C M
;
_chemical_formula_sum "Si O2"
_cell_formula_units_Z 56
_cell_length_a 14.178957
_cell_length_b 14.178957
_cell_length_c 10.532622
_cell_angle_alpha 90.000000
_cell_angle_beta 90.000000
_cell_angle_gamma 90.000000
_cell_volume 2117.508046
_symmetry_space_group_name_H-M "P 42/N C M"
_symmetry_group_IT_number 138
_space_group.IT_coordinate_system_code '2'
_symmetry_cell_setting 'tetragonal'
loop_
_space_group_symop_operation_xyz
x,y,z
1/2-y,x,1/2+z
1/2-x,1/2-y,z
y,1/2-x,1/2+z
1/2+x,-y,1/2-z
-x,1/2+y,1/2-z
1/2+y,1/2+x,-z
-y,-x,-z
-x,-y,-z
1/2+y,-x,1/2-z
1/2+x,1/2+y,-z
-y,1/2+x,1/2-z
1/2-x,y,1/2+z
x,1/2-y,1/2+z
1/2-y,1/2-x,z
y,x,z
loop_
_atom_site_type_symbol
_atom_site_label
_atom_site_fract_x
_atom_site_fract_y
_atom_site_fract_z
Si Si1 0.048590 0.673595 0.940888
Si Si2 0.173014 0.173014 0.514552
Si Si3 0.382332 0.117669 0.746199
Si Si4 0.238589 0.538718 0.320694
Si Si5 0.922640 0.577361 0.542426
O O1 0.086351 0.696629 0.802914
O O2 0.072712 0.572712 0.000000
O O3 0.092084 0.739612 0.049790
O O4 0.935198 0.689022 0.939931
O O5 0.250000 0.250000 0.559330
O O6 0.173414 0.173414 0.359800
O O7 0.484605 0.164738 0.777858
O O8 0.384812 0.115189 0.593041
O O9 0.158097 0.467064 0.370062
O O10 0.000000 0.500000 0.500000
#
# Coordination Sequence:
#
# PCOD9571034 Si02
#       5
#    16   8   8  16   8
#     4  11  25  45  73 108 157 206 266 337 413 494
#     4  10  24  42  71 104 158 202 266 326 414 477
#     4  10  24  43  64 112 151 189 254 327 399 463
#     4  11  25  44  73 108 153 206 267 334 403 492
#     4  12  27  46  75 110 156 218 271 332 415 505
#
# _framework density 26.446183000000001
#
# number of rings (size 3 to 8) (size 9 to 14) (size 15 to 20)
#    0.000    1.143    2.857    1.286   18.000    0.000 
#    2.571    0.000    0.000    6.857    0.000    0.000 
#    0.000    0.000    0.000    0.000    0.000    0.000 
#
# Total GULP energy -312181.068279 kJ/mol
# GULP energy per Si atom -5574.661934 kJ/mol
# Density = 2.638599 g / cm^3
# Si number density = 26.446183 Si / 1000 Ang^3
#
#
#
# Elastic Constant Matrix: (Units=GPa)
#
#
# Indices 1 2 3 4 5 6 
#
# 1 58.1933 68.0150 25.9174 0.0000 0.0000 0.0000
# 2 68.0150 58.1933 25.9174 0.0000 0.0000 0.0000
# 3 25.9174 25.9174 237.6124 0.0000 0.0000 0.0000
# 4 0.0000 0.0000 0.0000 36.3846 0.0000 0.0000
# 5 0.0000 0.0000 0.0000 0.0000 36.3846 0.0000
# 6 0.0000 0.0000 0.0000 0.0000 0.0000 52.8862
#
#
#
# Elastic Compliance Matrix: (Units=1/GPa)
#
#
# Indices 1 2 3 4 5 6 
#
# 1 -0.046760 0.055055 -0.000905 0.000000 0.000000 0.000000
# 2 0.055055 -0.046760 -0.000905 0.000000 0.000000 0.000000
# 3 -0.000905 -0.000905 0.004406 0.000000 0.000000 0.000000
# 4 0.000000 0.000000 0.000000 0.027484 0.000000 0.000000
# 5 0.000000 0.000000 0.000000 0.000000 0.027484 0.000000
# 6 0.000000 0.000000 0.000000 0.000000 0.000000 0.018909
#
#
# Mechanical properties :
#
#
# Convention : Reuss Voigt Hill
#
# Bulk Modulus (GPa) = 57.54790 65.96650 61.75720
# Shear Modulus (GPa) = -43.12701 40.74105 -1.19298
#
# Velocity S-wave (km/s) = -4.04263 3.92921 -0.67237
# Velocity P-wave (km/s) = 0.13090 6.75150 4.77493
#
# Compressibility (1/GPa) = 0.01737683
#
# Stress axis : x y z
#
# Youngs Moduli (GPa) = -21.38572 -21.38572 226.96791
#
# Poissons Ratio (x) = 1.17739 0.20535
# Poissons Ratio (y) = 1.17739 0.20535
# Poissons Ratio (z) = -0.01935 -0.01935
#
# Static dielectric constant tensor:
#      x y z
#    x 2.232380 0.000000 0.000000 
#    y 0.000000 2.232380 0.000000 
#    z 0.000000 0.000000 2.075120 
# 
# From -- ./inp_files/2531.got.cif
#   From: 2010.05.17/outbox.cif.g08.bks.cpg/sg138_2_cif.got.tgz:2531.got - 2010.05.20 13:08:53.
