data_PCOD9571118
_publ_section_title
;
Structure prediction by ZEFSAII (Michael W. Deem and Ramdas Pophale) SiO2 
 PCOD9571118
Probable space group: P 42/N C M
;
_chemical_formula_sum "Si O2"
_cell_formula_units_Z 96
_cell_length_a 23.141331
_cell_length_b 23.141331
_cell_length_c 9.723641
_cell_angle_alpha 90.000000
_cell_angle_beta 90.000000
_cell_angle_gamma 90.000000
_cell_volume 5207.215901
_symmetry_space_group_name_H-M "P 42/N C M"
_symmetry_group_IT_number 138
_space_group.IT_coordinate_system_code '2'
_symmetry_cell_setting 'tetragonal'
loop_
_space_group_symop_operation_xyz
x,y,z
1/2-y,x,1/2+z
1/2-x,1/2-y,z
y,1/2-x,1/2+z
1/2+x,-y,1/2-z
-x,1/2+y,1/2-z
1/2+y,1/2+x,-z
-y,-x,-z
-x,-y,-z
1/2+y,-x,1/2-z
1/2+x,1/2+y,-z
-y,1/2+x,1/2-z
1/2-x,y,1/2+z
x,1/2-y,1/2+z
1/2-y,1/2-x,z
y,x,z
loop_
_atom_site_type_symbol
_atom_site_label
_atom_site_fract_x
_atom_site_fract_y
_atom_site_fract_z
Si Si1 0.241139 0.079330 0.216414
Si Si2 0.427645 0.072356 0.471481
Si Si3 0.929946 0.570055 0.943266
Si Si4 0.108703 0.391297 0.756810
Si Si5 0.950560 0.130255 0.911632
Si Si6 0.144519 0.144519 0.773547
Si Si7 0.999861 0.248491 0.467994
Si Si8 0.448549 0.869176 0.911511
O O1 0.176438 0.098704 0.241100
O O2 0.289214 0.126518 0.255143
O O3 0.248655 0.022872 0.312258
O O4 0.249092 0.057343 0.061650
O O5 0.424648 0.075353 0.635612
O O6 0.490015 0.092950 0.420131
O O7 0.381140 0.118861 0.414733
O O8 0.891173 0.608828 0.841347
O O9 0.911795 0.504146 0.919102
O O10 0.913348 0.586653 0.097735
O O11 0.934996 0.137469 0.750633
O O12 0.964478 0.192255 0.979794
O O13 0.903011 0.096990 0.000000
O O14 0.966986 0.191317 0.517782
O O15 0.398031 0.898031 0.000000
#
# Coordination Sequence:
#
# PCOD9571118 Si02
#       8
#    16   8   8   8  16   8  16  16
#     4  12  22  39  64  88 126 179 226 266 322 374
#     4  12  21  40  59  91 131 164 211 276 331 387
#     4  12  21  40  59  91 131 164 211 276 331 387
#     4  12  24  33  63  98 118 176 230 270 313 381
#     4  12  26  41  66  98 129 168 214 268 327 392
#     4  12  20  41  63  84 130 178 224 272 315 371
#     4  12  22  44  64  88 132 176 210 260 330 398
#     4  12  26  41  66  98 129 168 214 268 327 392
#
# _framework density 18.435955
#
# number of rings (size 3 to 8) (size 9 to 14) (size 15 to 20)
#    0.000    0.000   10.000    0.500    4.667    0.333 
#    0.000    0.000    0.000    4.500    0.000    2.333 
#    0.000    0.000    0.000    0.000    0.000    0.000 
#
# Total GULP energy -536750.676966 kJ/mol
# GULP energy per Si atom -5591.152885 kJ/mol
# Density = 1.839399 g / cm^3
# Si number density = 18.435955 Si / 1000 Ang^3
#
#
#
# Elastic Constant Matrix: (Units=GPa)
#
#
# Indices 1 2 3 4 5 6 
#
# 1 61.0290 57.6045 13.4651 0.0000 0.0000 0.0000
# 2 57.6045 61.0264 13.4644 0.0000 0.0000 0.0000
# 3 13.4651 13.4644 80.8806 0.0000 0.0000 0.0000
# 4 0.0000 0.0000 0.0000 24.6311 0.0000 0.0000
# 5 0.0000 0.0000 0.0000 0.0000 24.6322 0.0000
# 6 0.0000 0.0000 0.0000 0.0000 0.0000 33.8675
#
#
#
# Elastic Compliance Matrix: (Units=1/GPa)
#
#
# Indices 1 2 3 4 5 6 
#
# 1 0.150438 -0.141680 -0.001459 0.000000 0.000000 0.000000
# 2 -0.141680 0.150444 -0.001458 0.000000 0.000000 0.000000
# 3 -0.001459 -0.001458 0.012849 0.000000 0.000000 0.000000
# 4 0.000000 0.000000 0.000000 0.040599 0.000000 0.000000
# 5 0.000000 0.000000 0.000000 0.000000 0.040597 0.000000
# 6 0.000000 0.000000 0.000000 0.000000 0.000000 0.029527
#
#
# Mechanical properties :
#
#
# Convention : Reuss Voigt Hill
#
# Bulk Modulus (GPa) = 40.75515 41.33377 41.04446
# Shear Modulus (GPa) = 6.92686 24.51962 15.72324
#
# Velocity S-wave (km/s) = 1.94047 3.65086 2.92354
# Velocity P-wave (km/s) = 5.21295 6.34354 5.80583
#
# Compressibility (1/GPa) = 0.02453677
#
# Stress axis : x y z
#
# Youngs Moduli (GPa) = 6.64726 6.64700 77.82409
#
# Poissons Ratio (x) = 0.94175 0.11356
# Poissons Ratio (y) = 0.94179 0.11344
# Poissons Ratio (z) = 0.00970 0.00969
#
# Static dielectric constant tensor:
#      x y z
#    x 1.646840 0.000000 0.000000 
#    y 0.000000 1.646850 0.000000 
#    z 0.000000 0.000000 1.644770 
# 
# From -- ./inp_files/1803.got.cif
#   From: 2010.05.17/outbox.cif.g08.bks.cpg/sg138_1_cif.got.tgz:1803.got - 2010.05.20 13:08:53.
