data_PCOD9571334
_publ_section_title
;
Structure prediction by ZEFSAII (Michael W. Deem and Ramdas Pophale) SiO2 
 PCOD9571334
Probable space group: I 4/M M M
;
_chemical_formula_sum "Si O2"
_cell_formula_units_Z 160
_cell_length_a 18.390861
_cell_length_b 18.390861
_cell_length_c 25.819369
_cell_angle_alpha 90.000000
_cell_angle_beta 90.000000
_cell_angle_gamma 90.000000
_cell_volume 8732.724279
_symmetry_space_group_name_H-M "I 4/M M M"
_symmetry_group_IT_number 139
_symmetry_cell_setting 'tetragonal'
loop_
_space_group_symop_operation_xyz
x,y,z
-y,x,z
-x,-y,z
y,-x,z
x,-y,-z
-x,y,-z
y,x,-z
-y,-x,-z
-x,-y,-z
y,-x,-z
x,y,-z
-y,x,-z
-x,y,z
x,-y,z
-y,-x,z
y,x,z
1/2+x,1/2+y,1/2+z
1/2-y,1/2+x,1/2+z
1/2-x,1/2-y,1/2+z
1/2+y,1/2-x,1/2+z
1/2+x,1/2-y,1/2-z
1/2-x,1/2+y,1/2-z
1/2+y,1/2+x,1/2-z
1/2-y,1/2-x,1/2-z
1/2-x,1/2-y,1/2-z
1/2+y,1/2-x,1/2-z
1/2+x,1/2+y,1/2-z
1/2-y,1/2+x,1/2-z
1/2-x,1/2+y,1/2+z
1/2+x,1/2-y,1/2+z
1/2-y,1/2-x,1/2+z
1/2+y,1/2+x,1/2+z
loop_
_atom_site_type_symbol
_atom_site_label
_atom_site_fract_x
_atom_site_fract_y
_atom_site_fract_z
Si Si1 0.667769 0.781248 0.942666
Si Si2 0.082705 0.413298 0.585839
Si Si3 0.357423 0.086553 0.195934
Si Si4 0.200933 0.085231 0.349894
Si Si5 0.706144 0.413256 0.730326
O O1 0.750120 0.750120 0.937997
O O2 0.646160 0.865761 0.939735
O O3 0.624430 0.745163 0.895241
O O4 0.642479 0.756704 0.000000
O O5 0.090746 0.500000 0.577956
O O6 0.093038 0.396202 0.646873
O O7 0.000000 0.393363 0.569871
O O8 0.390685 0.109316 0.250000
O O9 0.273764 0.112850 0.195237
O O10 0.351215 0.000000 0.196158
O O11 0.121167 0.121167 0.350447
O O12 0.228760 0.097854 0.290982
O O13 0.200043 0.000000 0.358963
O O14 0.693076 0.500000 0.723964
O O15 0.635235 0.364766 0.720952
#
# Coordination Sequence:
#
# PCOD9571334 Si02
#       5
#    32  32  32  32  32
#     4  10  21  36  53  72  95 126 164 205 250 299
#     4  10  21  35  52  77 106 135 168 205 248 299
#     4  10  19  30  46  69  97 128 161 196 236 287
#     4   9  17  29  45  66  93 126 166 210 253 298
#     4   9  18  31  47  69  96 127 164 204 246 292
#
# _framework density 18.321888000000001
#
# number of rings (size 3 to 8) (size 9 to 14) (size 15 to 20)
#    0.000    2.400    0.000    2.400    0.000    6.200 
#    0.000    3.000    0.000    0.000    0.000    2.800 
#    0.000    0.400    0.000    2.200    0.000    0.000 
#
# Total GULP energy -445603.271416 kJ/mol
# GULP energy per Si atom -5570.040893 kJ/mol
# Density = 1.828019 g / cm^3
# Si number density = 18.321888 Si / 1000 Ang^3
#
#
#
# Elastic Constant Matrix: (Units=GPa)
#
#
# Indices 1 2 3 4 5 6 
#
# 1 48.7748 39.7626 23.0902 0.0000 0.0000 0.0000
# 2 39.7626 48.7888 23.0872 0.0000 0.0000 0.0000
# 3 23.0902 23.0872 24.6921 0.0000 0.0000 0.0000
# 4 0.0000 0.0000 0.0000 10.3983 0.0000 0.0000
# 5 0.0000 0.0000 0.0000 0.0000 10.3983 0.0000
# 6 0.0000 0.0000 0.0000 0.0000 0.0000 25.1529
#
#
#
# Elastic Compliance Matrix: (Units=1/GPa)
#
#
# Indices 1 2 3 4 5 6 
#
# 1 0.066483 -0.044416 -0.020641 0.000000 0.000000 0.000000
# 2 -0.044416 0.066435 -0.020583 0.000000 0.000000 0.000000
# 3 -0.020641 -0.020583 0.079045 0.000000 0.000000 0.000000
# 4 0.000000 0.000000 0.000000 0.096169 0.000000 0.000000
# 5 0.000000 0.000000 0.000000 0.000000 0.096170 0.000000
# 6 0.000000 0.000000 0.000000 0.000000 0.000000 0.039757
#
#
# Mechanical properties :
#
#
# Convention : Reuss Voigt Hill
#
# Bulk Modulus (GPa) = 24.57931 32.68177 28.63054
# Shear Modulus (GPa) = 7.95038 11.61094 9.78066
#
# Velocity S-wave (km/s) = 2.08535 2.52011 2.31297
# Velocity P-wave (km/s) = 4.38665 5.13266 4.77425
#
# Compressibility (1/GPa) = 0.04068462
#
# Stress axis : x y z
#
# Youngs Moduli (GPa) = 15.04140 15.05223 12.65095
#
# Poissons Ratio (x) = 0.66856 0.26113
# Poissons Ratio (y) = 0.66808 0.26039
# Poissons Ratio (z) = 0.31047 0.30982
#
# Static dielectric constant tensor:
#      x y z
#    x 1.652170 0.000000 0.000000 
#    y 0.000000 1.652170 0.000000 
#    z 0.000000 0.000000 1.659320 
# 
# From -- ./inp_files/12916.got.cif
#   From: 2010.05.17/outbox.cif.g08.bks.cpg/sg139_7_cif.got.tgz:12916.got - 2010.05.20 13:14:44.
