data_PCOD9571635
_publ_section_title
;
Structure prediction by ZEFSAII (Michael W. Deem and Ramdas Pophale) SiO2 
 PCOD9571635
Probable space group: I 4/M M M
;
_chemical_formula_sum "Si O2"
_cell_formula_units_Z 128
_cell_length_a 23.302480
_cell_length_b 23.302480
_cell_length_c 14.049090
_cell_angle_alpha 90.000000
_cell_angle_beta 90.000000
_cell_angle_gamma 90.000000
_cell_volume 7628.734182
_symmetry_space_group_name_H-M "I 4/M M M"
_symmetry_group_IT_number 139
_symmetry_cell_setting 'tetragonal'
loop_
_space_group_symop_operation_xyz
x,y,z
-y,x,z
-x,-y,z
y,-x,z
x,-y,-z
-x,y,-z
y,x,-z
-y,-x,-z
-x,-y,-z
y,-x,-z
x,y,-z
-y,x,-z
-x,y,z
x,-y,z
-y,-x,z
y,x,z
1/2+x,1/2+y,1/2+z
1/2-y,1/2+x,1/2+z
1/2-x,1/2-y,1/2+z
1/2+y,1/2-x,1/2+z
1/2+x,1/2-y,1/2-z
1/2-x,1/2+y,1/2-z
1/2+y,1/2+x,1/2-z
1/2-y,1/2-x,1/2-z
1/2-x,1/2-y,1/2-z
1/2+y,1/2-x,1/2-z
1/2+x,1/2+y,1/2-z
1/2-y,1/2+x,1/2-z
1/2-x,1/2+y,1/2+z
1/2+x,1/2-y,1/2+z
1/2-y,1/2-x,1/2+z
1/2+y,1/2+x,1/2+z
loop_
_atom_site_type_symbol
_atom_site_label
_atom_site_fract_x
_atom_site_fract_y
_atom_site_fract_z
Si Si1 0.565212 0.122386 0.614687
Si Si2 0.432690 0.815549 0.891962
Si Si3 0.565367 0.434634 0.615383
Si Si4 0.839784 0.160217 0.884593
Si Si5 0.777466 0.370157 0.720245
O O1 0.563335 0.125260 0.500000
O O2 0.500000 0.108655 0.646490
O O3 0.618149 0.079873 0.638832
O O4 0.587968 0.181966 0.657761
O O5 0.500000 0.806667 0.891016
O O6 0.402463 0.772008 0.820627
O O7 0.410879 0.809783 0.000000
O O8 0.579097 0.500000 0.646121
O O9 0.564602 0.435399 0.500000
O O10 0.612452 0.387549 0.641446
O O11 0.857005 0.220732 0.837961
O O12 0.835965 0.164036 0.000000
O O13 0.813305 0.313305 0.750000
#
# Coordination Sequence:
#
# PCOD9571635 Si02
#       5
#    32  32  16  16  32
#     4   9  17  29  47  72 102 135 170 211 256 295
#     4   9  18  32  49  70 100 139 178 212 245 284
#     4   8  16  32  51  73 102 126 141 170 226 293
#     4  11  22  35  55  79  97 122 162 201 245 312
#     4  10  20  34  48  68  98 131 165 209 256 295
#
# _framework density 16.778668
#
# number of rings (size 3 to 8) (size 9 to 14) (size 15 to 20)
#    0.000    2.625    0.000    2.250    0.000    3.500 
#    0.000    5.625    0.000    4.500    0.000    0.000 
#    0.000    0.000    0.000    5.500    0.000    0.250 
#
# Total GULP energy -356409.999485 kJ/mol
# GULP energy per Si atom -5568.906242 kJ/mol
# Density = 1.674048 g / cm^3
# Si number density = 16.778668 Si / 1000 Ang^3
#
#
#
# Elastic Constant Matrix: (Units=GPa)
#
#
# Indices 1 2 3 4 5 6 
#
# 1 63.2362 40.3177 40.8508 0.0000 0.0000 0.0000
# 2 40.3177 63.2357 40.8504 0.0000 0.0000 0.0000
# 3 40.8508 40.8504 72.7767 0.0000 0.0000 0.0000
# 4 0.0000 0.0000 0.0000 26.9106 0.0000 0.0000
# 5 0.0000 0.0000 0.0000 0.0000 26.9105 0.0000
# 6 0.0000 0.0000 0.0000 0.0000 0.0000 12.5051
#
#
#
# Elastic Compliance Matrix: (Units=1/GPa)
#
#
# Indices 1 2 3 4 5 6 
#
# 1 0.030483 -0.013150 -0.009729 0.000000 0.000000 0.000000
# 2 -0.013150 0.030483 -0.009729 0.000000 0.000000 0.000000
# 3 -0.009729 -0.009729 0.024663 0.000000 0.000000 0.000000
# 4 0.000000 0.000000 0.000000 0.037160 0.000000 0.000000
# 5 0.000000 0.000000 0.000000 0.000000 0.037160 0.000000
# 6 0.000000 0.000000 0.000000 0.000000 0.000000 0.079968
#
#
# Mechanical properties :
#
#
# Convention : Reuss Voigt Hill
#
# Bulk Modulus (GPa) = 48.99093 49.25405 49.12249
# Shear Modulus (GPa) = 16.02880 18.41388 17.22134
#
# Velocity S-wave (km/s) = 3.09416 3.31638 3.20720
# Velocity P-wave (km/s) = 6.48281 6.63954 6.56164
#
# Compressibility (1/GPa) = 0.02041194
#
# Stress axis : x y z
#
# Youngs Moduli (GPa) = 32.80504 32.80495 40.54670
#
# Poissons Ratio (x) = 0.43139 0.39449
# Poissons Ratio (y) = 0.43139 0.39448
# Poissons Ratio (z) = 0.31917 0.31916
#
# Static dielectric constant tensor:
#      x y z
#    x 1.561090 0.000000 0.000000 
#    y 0.000000 1.561090 0.000000 
#    z 0.000000 0.000000 1.601710 
# 
# From -- ./inp_files/5483.got.cif
#   From: 2010.05.17/outbox.cif.g08.bks.cpg/sg139_3_cif.got.tgz:5483.got - 2010.05.20 13:14:44.
