data_PCOD9571726
_publ_section_title
;
Structure prediction by ZEFSAII (Michael W. Deem and Ramdas Pophale) SiO2 
 PCOD9571726
Probable space group: I 4/M M M
;
_chemical_formula_sum "Si O2"
_cell_formula_units_Z 112
_cell_length_a 19.752068
_cell_length_b 19.752068
_cell_length_c 15.655203
_cell_angle_alpha 90.000000
_cell_angle_beta 90.000000
_cell_angle_gamma 90.000000
_cell_volume 6107.786498
_symmetry_space_group_name_H-M "I 4/M M M"
_symmetry_group_IT_number 139
_symmetry_cell_setting 'tetragonal'
loop_
_space_group_symop_operation_xyz
x,y,z
-y,x,z
-x,-y,z
y,-x,z
x,-y,-z
-x,y,-z
y,x,-z
-y,-x,-z
-x,-y,-z
y,-x,-z
x,y,-z
-y,x,-z
-x,y,z
x,-y,z
-y,-x,z
y,x,z
1/2+x,1/2+y,1/2+z
1/2-y,1/2+x,1/2+z
1/2-x,1/2-y,1/2+z
1/2+y,1/2-x,1/2+z
1/2+x,1/2-y,1/2-z
1/2-x,1/2+y,1/2-z
1/2+y,1/2+x,1/2-z
1/2-y,1/2-x,1/2-z
1/2-x,1/2-y,1/2-z
1/2+y,1/2-x,1/2-z
1/2+x,1/2+y,1/2-z
1/2-y,1/2+x,1/2-z
1/2-x,1/2+y,1/2+z
1/2+x,1/2-y,1/2+z
1/2-y,1/2-x,1/2+z
1/2+y,1/2+x,1/2+z
loop_
_atom_site_type_symbol
_atom_site_label
_atom_site_fract_x
_atom_site_fract_y
_atom_site_fract_z
Si Si1 0.422344 0.922344 0.250000
Si Si2 0.715167 0.078825 0.159742
Si Si3 0.668966 0.779253 0.500000
Si Si4 0.273068 0.923833 0.500000
Si Si5 0.422160 0.308804 0.176751
O O1 0.500000 0.914465 0.218760
O O2 0.364586 0.911901 0.179571
O O3 0.754969 0.092037 0.247916
O O4 0.725591 0.000000 0.136927
O O5 0.738997 0.127263 0.084622
O O6 0.740414 0.740414 0.500000
O O7 0.677890 0.860061 0.500000
O O8 0.227796 0.917403 0.585213
O O9 0.302994 0.000000 0.500000
O O10 0.500000 0.331646 0.187179
O O11 0.369772 0.369772 0.181593
#
# Coordination Sequence:
#
# PCOD9571726 Si02
#       5
#    16  32  16  16  32
#     4   9  18  34  55  78 104 136 173 210 254 311
#     4  10  21  36  54  77 107 140 172 215 264 303
#     4  12  23  35  54  78 104 138 184 221 249 302
#     4  10  22  37  53  77 109 139 168 211 264 312
#     4  10  20  36  56  78 106 137 171 213 263 314
#
# _framework density 18.337250000000001
#
# number of rings (size 3 to 8) (size 9 to 14) (size 15 to 20)
#    0.000    1.857    0.000    4.286    0.000    3.714 
#    0.000    4.286    0.000    6.857    0.000    0.000 
#    0.000   10.286    0.000    0.000    0.000    0.000 
#
# Total GULP energy -312639.301561 kJ/mol
# GULP energy per Si atom -5582.844671 kJ/mol
# Density = 1.829551 g / cm^3
# Si number density = 18.337250 Si / 1000 Ang^3
#
#
#
# Elastic Constant Matrix: (Units=GPa)
#
#
# Indices 1 2 3 4 5 6 
#
# 1 53.9035 32.7335 48.5876 0.0000 0.0000 0.0000
# 2 32.7335 53.9035 48.5876 0.0000 0.0000 0.0000
# 3 48.5876 48.5876 116.8626 0.0000 0.0000 0.0000
# 4 0.0000 0.0000 0.0000 18.5612 0.0000 0.0000
# 5 0.0000 0.0000 0.0000 0.0000 18.5612 0.0000
# 6 0.0000 0.0000 0.0000 0.0000 0.0000 31.8205
#
#
#
# Elastic Compliance Matrix: (Units=1/GPa)
#
#
# Indices 1 2 3 4 5 6 
#
# 1 0.034433 -0.012804 -0.008993 0.000000 0.000000 0.000000
# 2 -0.012804 0.034433 -0.008993 0.000000 0.000000 0.000000
# 3 -0.008993 -0.008993 0.016035 0.000000 0.000000 0.000000
# 4 0.000000 0.000000 0.000000 0.053876 0.000000 0.000000
# 5 0.000000 0.000000 0.000000 0.000000 0.053876 0.000000
# 6 0.000000 0.000000 0.000000 0.000000 0.000000 0.031426
#
#
# Mechanical properties :
#
#
# Convention : Reuss Voigt Hill
#
# Bulk Modulus (GPa) = 42.87785 53.83187 48.35486
# Shear Modulus (GPa) = 17.03985 20.10600 18.57292
#
# Velocity S-wave (km/s) = 3.05166 3.31487 3.18599
# Velocity P-wave (km/s) = 5.98753 6.63863 6.32147
#
# Compressibility (1/GPa) = 0.02332207
#
# Stress axis : x y z
#
# Youngs Moduli (GPa) = 29.04211 29.04211 62.36500
#
# Poissons Ratio (x) = 0.37186 0.56082
# Poissons Ratio (y) = 0.37186 0.56082
# Poissons Ratio (z) = 0.26116 0.26116
#
# Static dielectric constant tensor:
#      x y z
#    x 1.620490 0.000000 0.000000 
#    y 0.000000 1.620490 0.000000 
#    z 0.000000 0.000000 1.619050 
# 
# From -- ./inp_files/7629.got.cif
#   From: 2010.05.17/outbox.cif.g08.bks.cpg/sg139_4_cif.got.tgz:7629.got - 2010.05.20 13:14:44.
