data_PCOD9571536
_publ_section_title
;
Structure prediction by ZEFSAII (Michael W. Deem and Ramdas Pophale) SiO2 
 PCOD9571536
Probable space group: I 4/M M M
;
_chemical_formula_sum "Si O2"
_cell_formula_units_Z 160
_cell_length_a 24.711543
_cell_length_b 24.711543
_cell_length_c 15.398958
_cell_angle_alpha 90.000000
_cell_angle_beta 90.000000
_cell_angle_gamma 90.000000
_cell_volume 9403.533196
_symmetry_space_group_name_H-M "I 4/M M M"
_symmetry_group_IT_number 139
_symmetry_cell_setting 'tetragonal'
loop_
_space_group_symop_operation_xyz
x,y,z
-y,x,z
-x,-y,z
y,-x,z
x,-y,-z
-x,y,-z
y,x,-z
-y,-x,-z
-x,-y,-z
y,-x,-z
x,y,-z
-y,x,-z
-x,y,z
x,-y,z
-y,-x,z
y,x,z
1/2+x,1/2+y,1/2+z
1/2-y,1/2+x,1/2+z
1/2-x,1/2-y,1/2+z
1/2+y,1/2-x,1/2+z
1/2+x,1/2-y,1/2-z
1/2-x,1/2+y,1/2-z
1/2+y,1/2+x,1/2-z
1/2-y,1/2-x,1/2-z
1/2-x,1/2-y,1/2-z
1/2+y,1/2-x,1/2-z
1/2+x,1/2+y,1/2-z
1/2-y,1/2+x,1/2-z
1/2-x,1/2+y,1/2+z
1/2+x,1/2-y,1/2+z
1/2-y,1/2-x,1/2+z
1/2+y,1/2+x,1/2+z
loop_
_atom_site_type_symbol
_atom_site_label
_atom_site_fract_x
_atom_site_fract_y
_atom_site_fract_z
Si Si1 0.351084 0.439296 0.144447
Si Si2 0.266181 0.938810 0.099138
Si Si3 0.239909 0.939089 0.500000
Si Si4 0.353977 0.440650 0.650368
Si Si5 0.733974 0.818839 0.500000
Si Si6 0.765794 0.320899 0.667596
O O1 0.373263 0.500000 0.131775
O O2 0.394327 0.394327 0.119244
O O3 0.339591 0.433160 0.247130
O O4 0.298409 0.435400 0.084875
O O5 0.201164 0.940217 0.098209
O O6 0.275147 0.885261 0.157250
O O7 0.283239 0.000000 0.128246
O O8 0.286004 0.930709 0.000000
O O9 0.272655 0.883367 0.500000
O O10 0.264628 0.000000 0.500000
O O11 0.379555 0.500000 0.642975
O O12 0.394593 0.394593 0.623122
O O13 0.796286 0.796286 0.500000
O O14 0.705898 0.792818 0.583391
O O15 0.703891 0.296110 0.671325
O O16 0.796520 0.296520 0.750000
#
# Coordination Sequence:
#
# PCOD9571536 Si02
#       6
#    32  32  16  32  16  32
#     4   9  17  28  41  59  85 120 164 208 248 290
#     4  10  20  35  54  75 101 132 168 211 259 310
#     4  10  20  32  45  64  93 128 164 203 248 301
#     4   9  18  29  43  63  88 123 164 207 251 293
#     4  10  20  34  51  73 104 137 172 213 260 317
#     4  10  21  35  53  79 109 142 177 216 263 316
#
# _framework density 17.014882
#
# number of rings (size 3 to 8) (size 9 to 14) (size 15 to 20)
#    0.000    2.400    1.000    1.500    2.800    1.600 
#    0.000    2.000    0.000    1.800    0.000    2.800 
#    0.000    3.600    0.000    0.000    0.000    0.000 
#
# Total GULP energy -445456.639684 kJ/mol
# GULP energy per Si atom -5568.207996 kJ/mol
# Density = 1.697616 g / cm^3
# Si number density = 17.014882 Si / 1000 Ang^3
#
#
#
# Elastic Constant Matrix: (Units=GPa)
#
#
# Indices 1 2 3 4 5 6 
#
# 1 74.5900 13.2684 16.1958 0.0000 0.0000 0.0000
# 2 13.2684 74.5900 16.1958 0.0000 0.0000 0.0000
# 3 16.1958 16.1958 59.3907 0.0000 0.0000 0.0000
# 4 0.0000 0.0000 0.0000 17.0827 0.0000 0.0000
# 5 0.0000 0.0000 0.0000 0.0000 17.0827 0.0000
# 6 0.0000 0.0000 0.0000 0.0000 0.0000 18.5495
#
#
#
# Elastic Compliance Matrix: (Units=1/GPa)
#
#
# Indices 1 2 3 4 5 6 
#
# 1 0.014481 -0.001827 -0.003451 0.000000 0.000000 0.000000
# 2 -0.001827 0.014481 -0.003451 0.000000 0.000000 0.000000
# 3 -0.003451 -0.003451 0.018720 0.000000 0.000000 0.000000
# 4 0.000000 0.000000 0.000000 0.058539 0.000000 0.000000
# 5 0.000000 0.000000 0.000000 0.000000 0.058539 0.000000
# 6 0.000000 0.000000 0.000000 0.000000 0.000000 0.053910
#
#
# Mechanical properties :
#
#
# Convention : Reuss Voigt Hill
#
# Bulk Modulus (GPa) = 33.08529 33.32121 33.20325
# Shear Modulus (GPa) = 20.30868 21.40369 20.85619
#
# Velocity S-wave (km/s) = 3.45858 3.55059 3.50489
# Velocity P-wave (km/s) = 5.95282 6.03614 5.99463
#
# Compressibility (1/GPa) = 0.03022491
#
# Stress axis : x y z
#
# Youngs Moduli (GPa) = 69.05680 69.05680 53.41966
#
# Poissons Ratio (x) = 0.12614 0.18434
# Poissons Ratio (y) = 0.12614 0.18434
# Poissons Ratio (z) = 0.23830 0.23830
#
# Static dielectric constant tensor:
#      x y z
#    x 1.595190 0.000000 0.000000 
#    y 0.000000 1.595190 0.000000 
#    z 0.000000 0.000000 1.596590 
# 
# From -- ./inp_files/5961.got.cif
#   From: 2010.05.17/outbox.cif.g08.bks.cpg/sg139_3_cif.got.tgz:5961.got - 2010.05.20 13:14:44.
