data_PCOD9571405
_publ_section_title
;
Structure prediction by ZEFSAII (Michael W. Deem and Ramdas Pophale) SiO2 
 PCOD9571405
Probable space group: I 4/M M M
;
_chemical_formula_sum "Si O2"
_cell_formula_units_Z 128
_cell_length_a 22.253071
_cell_length_b 22.253071
_cell_length_c 14.503814
_cell_angle_alpha 90.000000
_cell_angle_beta 90.000000
_cell_angle_gamma 90.000000
_cell_volume 7182.276639
_symmetry_space_group_name_H-M "I 4/M M M"
_symmetry_group_IT_number 139
_symmetry_cell_setting 'tetragonal'
loop_
_space_group_symop_operation_xyz
x,y,z
-y,x,z
-x,-y,z
y,-x,z
x,-y,-z
-x,y,-z
y,x,-z
-y,-x,-z
-x,-y,-z
y,-x,-z
x,y,-z
-y,x,-z
-x,y,z
x,-y,z
-y,-x,z
y,x,z
1/2+x,1/2+y,1/2+z
1/2-y,1/2+x,1/2+z
1/2-x,1/2-y,1/2+z
1/2+y,1/2-x,1/2+z
1/2+x,1/2-y,1/2-z
1/2-x,1/2+y,1/2-z
1/2+y,1/2+x,1/2-z
1/2-y,1/2-x,1/2-z
1/2-x,1/2-y,1/2-z
1/2+y,1/2-x,1/2-z
1/2+x,1/2+y,1/2-z
1/2-y,1/2+x,1/2-z
1/2-x,1/2+y,1/2+z
1/2+x,1/2-y,1/2+z
1/2-y,1/2-x,1/2+z
1/2+y,1/2+x,1/2+z
loop_
_atom_site_type_symbol
_atom_site_label
_atom_site_fract_x
_atom_site_fract_y
_atom_site_fract_z
Si Si1 0.071630 0.828230 0.000000
Si Si2 0.884216 0.628600 0.106002
Si Si3 0.069929 0.248410 0.816054
Si Si4 0.500000 0.069820 0.887863
Si Si5 0.740748 0.833886 0.673003
O O1 0.084993 0.788715 0.091191
O O2 0.112921 0.887080 0.000000
O O3 0.000000 0.841139 0.000000
O O4 0.916399 0.681634 0.161959
O O5 0.899298 0.562064 0.141557
O O6 0.812953 0.641012 0.110922
O O7 0.905009 0.632919 0.000000
O O8 0.112088 0.230269 0.731255
O O9 0.000000 0.240353 0.796016
O O10 0.500000 0.000000 0.861482
O O11 0.500000 0.072680 0.000000
O O12 0.790462 0.790462 0.629208
O O13 0.705870 0.794131 0.750000
#
# Coordination Sequence:
#
# PCOD9571405 Si02
#       5
#    16  32  32  16  32
#     4  10  20  33  52  77  99 127 163 201 252 306
#     4  10  19  32  49  73  98 132 170 208 249 298
#     4  10  19  32  52  72  96 128 166 207 244 297
#     4   9  18  30  48  70 100 135 166 204 249 295
#     4   9  19  33  47  68  97 128 163 207 251 291
#
# _framework density 17.821648
#
# number of rings (size 3 to 8) (size 9 to 14) (size 15 to 20)
#    0.000    2.375    1.250    1.500    1.750    2.625 
#    0.000    0.000    0.000    0.000    0.000    0.000 
#    0.000    0.000    0.000    0.000    0.000    7.000 
#
# Total GULP energy -357043.974944 kJ/mol
# GULP energy per Si atom -5578.812108 kJ/mol
# Density = 1.778108 g / cm^3
# Si number density = 17.821648 Si / 1000 Ang^3
#
#
#
# Elastic Constant Matrix: (Units=GPa)
#
#
# Indices 1 2 3 4 5 6 
#
# 1 78.1218 55.4031 2.9902 0.0000 0.0000 0.0000
# 2 55.4031 78.1140 2.9911 0.0000 0.0000 0.0000
# 3 2.9902 2.9911 23.9169 0.0000 0.0000 0.0000
# 4 0.0000 0.0000 0.0000 14.4538 0.0000 0.0000
# 5 0.0000 0.0000 0.0000 0.0000 14.4528 0.0000
# 6 0.0000 0.0000 0.0000 0.0000 0.0000 31.7885
#
#
#
# Elastic Compliance Matrix: (Units=1/GPa)
#
#
# Indices 1 2 3 4 5 6 
#
# 1 0.025777 -0.018246 -0.000941 0.000000 0.000000 0.000000
# 2 -0.018246 0.025779 -0.000943 0.000000 0.000000 0.000000
# 3 -0.000941 -0.000943 0.042047 0.000000 0.000000 0.000000
# 4 0.000000 0.000000 0.000000 0.069186 0.000000 0.000000
# 5 0.000000 0.000000 0.000000 0.000000 0.069191 0.000000
# 6 0.000000 0.000000 0.000000 0.000000 0.000000 0.031458
#
#
# Mechanical properties :
#
#
# Convention : Reuss Voigt Hill
#
# Bulk Modulus (GPa) = 18.74655 33.65794 26.20224
# Shear Modulus (GPa) = 15.55316 20.05690 17.80503
#
# Velocity S-wave (km/s) = 2.95737 3.35837 3.16423
# Velocity P-wave (km/s) = 4.71203 5.82797 5.29945
#
# Compressibility (1/GPa) = 0.05334315
#
# Stress axis : x y z
#
# Youngs Moduli (GPa) = 38.79482 38.79083 23.78293
#
# Poissons Ratio (x) = 0.70779 0.02237
# Poissons Ratio (y) = 0.70786 0.02242
# Poissons Ratio (z) = 0.03650 0.03657
#
# Static dielectric constant tensor:
#      x y z
#    x 1.615430 0.000000 0.000000 
#    y 0.000000 1.615430 0.000000 
#    z 0.000000 0.000000 1.641750 
# 
# From -- ./inp_files/5452.got.cif
#   From: 2010.05.17/outbox.cif.g08.bks.cpg/sg139_3_cif.got.tgz:5452.got - 2010.05.20 13:14:44.
