data_PCOD9571875
_publ_section_title
;
Structure prediction by ZEFSAII (Michael W. Deem and Ramdas Pophale) SiO2 
 PCOD9571875
Probable space group: I 4/M M M
;
_chemical_formula_sum "Si O2"
_cell_formula_units_Z 160
_cell_length_a 29.768630
_cell_length_b 29.768630
_cell_length_c 10.380953
_cell_angle_alpha 90.000000
_cell_angle_beta 90.000000
_cell_angle_gamma 90.000000
_cell_volume 9199.302948
_symmetry_space_group_name_H-M "I 4/M M M"
_symmetry_group_IT_number 139
_symmetry_cell_setting 'tetragonal'
loop_
_space_group_symop_operation_xyz
x,y,z
-y,x,z
-x,-y,z
y,-x,z
x,-y,-z
-x,y,-z
y,x,-z
-y,-x,-z
-x,-y,-z
y,-x,-z
x,y,-z
-y,x,-z
-x,y,z
x,-y,z
-y,-x,z
y,x,z
1/2+x,1/2+y,1/2+z
1/2-y,1/2+x,1/2+z
1/2-x,1/2-y,1/2+z
1/2+y,1/2-x,1/2+z
1/2+x,1/2-y,1/2-z
1/2-x,1/2+y,1/2-z
1/2+y,1/2+x,1/2-z
1/2-y,1/2-x,1/2-z
1/2-x,1/2-y,1/2-z
1/2+y,1/2-x,1/2-z
1/2+x,1/2+y,1/2-z
1/2-y,1/2+x,1/2-z
1/2-x,1/2+y,1/2+z
1/2+x,1/2-y,1/2+z
1/2-y,1/2-x,1/2+z
1/2+y,1/2+x,1/2+z
loop_
_atom_site_type_symbol
_atom_site_label
_atom_site_fract_x
_atom_site_fract_y
_atom_site_fract_z
Si Si1 0.681419 0.818582 0.750000
Si Si2 0.610223 0.313596 0.000000
Si Si3 0.391600 0.051247 0.850243
Si Si4 0.553944 0.630403 0.500000
Si Si5 0.206226 0.417115 0.652853
Si Si6 0.304533 0.446964 0.744726
Si Si7 0.240962 0.315998 0.000000
O O1 0.630373 0.808142 0.712451
O O2 0.691266 0.788495 0.873700
O O3 0.580813 0.317147 0.128651
O O4 0.635654 0.265411 0.000000
O O5 0.647846 0.352155 0.000000
O O6 0.416870 0.083131 0.750000
O O7 0.337948 0.052640 0.827257
O O8 0.407442 0.000000 0.836504
O O9 0.398620 0.065447 0.000000
O O10 0.500000 0.619183 0.500000
O O11 0.587166 0.587166 0.500000
O O12 0.562792 0.661824 0.374655
O O13 0.212571 0.411992 0.500000
O O14 0.253106 0.434916 0.708036
O O15 0.307139 0.500000 0.769969
O O16 0.280270 0.280270 0.000000
#
# Coordination Sequence:
#
# PCOD9571875 Si02
#       7
#    16  16  32  16  32  32  16
#     4  12  21  38  58  82 115 152 198 234 284 342
#     4  11  23  39  58  85 120 156 196 240 294 350
#     4  10  22  39  60  84 113 150 193 245 306 362
#     4  10  22  40  65  96 127 163 203 243 295 356
#     4  11  21  37  61  87 116 153 195 248 298 348
#     4  11  22  39  62  90 122 156 201 250 298 352
#     4  11  24  38  55  81 114 152 192 232 277 337
#
# _framework density 17.392623
#
# number of rings (size 3 to 8) (size 9 to 14) (size 15 to 20)
#    0.000    1.200    5.000    1.800    0.000    1.500 
#    1.800    2.000    0.000    0.000    0.000    0.000 
#    0.000    7.200    0.000    0.000    0.000    0.000 
#
# Total GULP energy -446545.759035 kJ/mol
# GULP energy per Si atom -5581.821988 kJ/mol
# Density = 1.735304 g / cm^3
# Si number density = 17.392623 Si / 1000 Ang^3
#
#
#
# Elastic Constant Matrix: (Units=GPa)
#
#
# Indices 1 2 3 4 5 6 
#
# 1 123.1585 31.9147 67.7318 0.0000 0.0000 0.0000
# 2 31.9147 123.1558 67.7372 0.0000 0.0000 0.0000
# 3 67.7318 67.7372 150.2643 0.0000 0.0000 0.0000
# 4 0.0000 0.0000 0.0000 41.3249 0.0000 0.0000
# 5 0.0000 0.0000 0.0000 0.0000 41.3188 0.0000
# 6 0.0000 0.0000 0.0000 0.0000 0.0000 28.0385
#
#
#
# Elastic Compliance Matrix: (Units=1/GPa)
#
#
# Indices 1 2 3 4 5 6 
#
# 1 0.010798 -0.000161 -0.004795 0.000000 0.000000 0.000000
# 2 -0.000161 0.010799 -0.004795 0.000000 0.000000 0.000000
# 3 -0.004795 -0.004795 0.010978 0.000000 0.000000 0.000000
# 4 0.000000 0.000000 0.000000 0.024198 0.000000 0.000000
# 5 0.000000 0.000000 0.000000 0.000000 0.024202 0.000000
# 6 0.000000 0.000000 0.000000 0.000000 0.000000 0.035665
#
#
# Mechanical properties :
#
#
# Convention : Reuss Voigt Hill
#
# Bulk Modulus (GPa) = 76.49545 81.26065 78.87805
# Shear Modulus (GPa) = 35.58691 37.41611 36.50151
#
# Velocity S-wave (km/s) = 4.52828 4.64320 4.58610
# Velocity P-wave (km/s) = 8.45089 8.69302 8.57281
#
# Compressibility (1/GPa) = 0.01307267
#
# Stress axis : x y z
#
# Youngs Moduli (GPa) = 92.60773 92.60019 91.09225
#
# Poissons Ratio (x) = 0.01492 0.43676
# Poissons Ratio (y) = 0.01492 0.43683
# Poissons Ratio (z) = 0.44402 0.44406
#
# Static dielectric constant tensor:
#      x y z
#    x 1.578360 0.000000 0.000000 
#    y 0.000000 1.578350 0.000000 
#    z 0.000000 0.000000 1.569530 
# 
# From -- ./inp_files/2287.got.cif
#   From: 2010.05.17/outbox.cif.g08.bks.cpg/sg139_2_cif.got.tgz:2287.got - 2010.05.20 13:14:44.
