data_PCOD9571486
_publ_section_title
;
Structure prediction by ZEFSAII (Michael W. Deem and Ramdas Pophale) SiO2 
 PCOD9571486
Probable space group: I 4/M M M
;
_chemical_formula_sum "Si O2"
_cell_formula_units_Z 160
_cell_length_a 17.925425
_cell_length_b 17.925425
_cell_length_c 24.664662
_cell_angle_alpha 90.000000
_cell_angle_beta 90.000000
_cell_angle_gamma 90.000000
_cell_volume 7925.270441
_symmetry_space_group_name_H-M "I 4/M M M"
_symmetry_group_IT_number 139
_symmetry_cell_setting 'tetragonal'
loop_
_space_group_symop_operation_xyz
x,y,z
-y,x,z
-x,-y,z
y,-x,z
x,-y,-z
-x,y,-z
y,x,-z
-y,-x,-z
-x,-y,-z
y,-x,-z
x,y,-z
-y,x,-z
-x,y,z
x,-y,z
-y,-x,z
y,x,z
1/2+x,1/2+y,1/2+z
1/2-y,1/2+x,1/2+z
1/2-x,1/2-y,1/2+z
1/2+y,1/2-x,1/2+z
1/2+x,1/2-y,1/2-z
1/2-x,1/2+y,1/2-z
1/2+y,1/2+x,1/2-z
1/2-y,1/2-x,1/2-z
1/2-x,1/2-y,1/2-z
1/2+y,1/2-x,1/2-z
1/2+x,1/2+y,1/2-z
1/2-y,1/2+x,1/2-z
1/2-x,1/2+y,1/2+z
1/2+x,1/2-y,1/2+z
1/2-y,1/2-x,1/2+z
1/2+y,1/2+x,1/2+z
loop_
_atom_site_type_symbol
_atom_site_label
_atom_site_fract_x
_atom_site_fract_y
_atom_site_fract_z
Si Si1 0.588363 0.784541 0.120165
Si Si2 0.292235 0.585979 0.768047
Si Si3 0.916920 0.340941 0.000000
Si Si4 0.294431 0.416097 0.581199
Si Si5 0.269354 0.915493 0.500000
Si Si6 0.914121 0.312511 0.826064
O O1 0.500000 0.803129 0.113492
O O2 0.593824 0.724344 0.167983
O O3 0.615820 0.754457 0.060966
O O4 0.632858 0.855380 0.145074
O O5 0.314075 0.500000 0.757358
O O6 0.354443 0.645558 0.752395
O O7 0.214664 0.598512 0.735398
O O8 0.906888 0.283005 0.950933
O O9 0.858805 0.406748 0.000000
O O10 0.000000 0.370072 0.000000
O O11 0.321720 0.500000 0.570130
O O12 0.354361 0.354361 0.566896
O O13 0.266883 0.409840 0.642551
O O14 0.241200 0.000000 0.500000
O O15 0.000000 0.339889 0.831606
#
# Coordination Sequence:
#
# PCOD9571486 Si02
#       6
#    32  32  16  32  16  32
#     4  10  21  37  57  84 117 151 189 233 280 335
#     4  10  22  40  61  85 113 146 186 234 286 339
#     4  10  19  34  51  73 104 141 186 233 276 330
#     4  10  20  33  50  73 104 142 186 235 282 331
#     4  10  20  36  56  80 114 151 188 234 282 335
#     4  10  20  35  56  83 115 150 187 227 274 330
#
# _framework density 20.188585
#
# number of rings (size 3 to 8) (size 9 to 14) (size 15 to 20)
#    0.000    2.000    2.000    1.500    0.000    3.400 
#    0.000    2.500    0.000    9.000    0.000    0.000 
#    0.000    4.000    0.000    0.000    0.000    0.000 
#
# Total GULP energy -445412.989530 kJ/mol
# GULP energy per Si atom -5567.662369 kJ/mol
# Density = 2.014263 g / cm^3
# Si number density = 20.188585 Si / 1000 Ang^3
#
#
#
# Elastic Constant Matrix: (Units=GPa)
#
#
# Indices 1 2 3 4 5 6 
#
# 1 46.8613 44.1771 5.1096 0.0000 0.0000 0.0000
# 2 44.1771 46.8613 5.1096 0.0000 0.0000 0.0000
# 3 5.1096 5.1096 130.4837 0.0000 0.0000 0.0000
# 4 0.0000 0.0000 0.0000 43.1947 0.0000 0.0000
# 5 0.0000 0.0000 0.0000 0.0000 43.1947 0.0000
# 6 0.0000 0.0000 0.0000 0.0000 0.0000 14.5525
#
#
#
# Elastic Compliance Matrix: (Units=1/GPa)
#
#
# Indices 1 2 3 4 5 6 
#
# 1 0.191797 -0.180764 -0.000432 0.000000 0.000000 0.000000
# 2 -0.180764 0.191797 -0.000432 0.000000 0.000000 0.000000
# 3 -0.000432 -0.000432 0.007698 0.000000 0.000000 0.000000
# 4 0.000000 0.000000 0.000000 0.023151 0.000000 0.000000
# 5 0.000000 0.000000 0.000000 0.000000 0.023151 0.000000
# 6 0.000000 0.000000 0.000000 0.000000 0.000000 0.068717
#
#
# Mechanical properties :
#
#
# Convention : Reuss Voigt Hill
#
# Bulk Modulus (GPa) = 35.66940 36.99987 36.33463
# Shear Modulus (GPa) = 5.68886 31.50904 18.59895
#
# Velocity S-wave (km/s) = 1.68047 3.95490 3.03852
# Velocity P-wave (km/s) = 4.63376 6.26274 5.50880
#
# Compressibility (1/GPa) = 0.02803524
#
# Stress axis : x y z
#
# Youngs Moduli (GPa) = 5.21385 5.21385 129.91011
#
# Poissons Ratio (x) = 0.94248 0.05613
# Poissons Ratio (y) = 0.94248 0.05613
# Poissons Ratio (z) = 0.00225 0.00225
#
# Static dielectric constant tensor:
#      x y z
#    x 1.689510 0.000000 0.000000 
#    y 0.000000 1.689510 0.000000 
#    z 0.000000 0.000000 1.905440 
# 
# From -- ./inp_files/12994.got.cif
#   From: 2010.05.17/outbox.cif.g08.bks.cpg/sg139_7_cif.got.tgz:12994.got - 2010.05.20 13:14:44.
