data_PCOD9571195
_publ_section_title
;
Structure prediction by ZEFSAII (Michael W. Deem and Ramdas Pophale) SiO2 
 PCOD9571195
Probable space group: I 4/M M M
;
_chemical_formula_sum "Si O2"
_cell_formula_units_Z 224
_cell_length_a 24.373592
_cell_length_b 24.373592
_cell_length_c 22.384883
_cell_angle_alpha 90.000000
_cell_angle_beta 90.000000
_cell_angle_gamma 90.000000
_cell_volume 13298.231922
_symmetry_space_group_name_H-M "I 4/M M M"
_symmetry_group_IT_number 139
_symmetry_cell_setting 'tetragonal'
loop_
_space_group_symop_operation_xyz
x,y,z
-y,x,z
-x,-y,z
y,-x,z
x,-y,-z
-x,y,-z
y,x,-z
-y,-x,-z
-x,-y,-z
y,-x,-z
x,y,-z
-y,x,-z
-x,y,z
x,-y,z
-y,-x,z
y,x,z
1/2+x,1/2+y,1/2+z
1/2-y,1/2+x,1/2+z
1/2-x,1/2-y,1/2+z
1/2+y,1/2-x,1/2+z
1/2+x,1/2-y,1/2-z
1/2-x,1/2+y,1/2-z
1/2+y,1/2+x,1/2-z
1/2-y,1/2-x,1/2-z
1/2-x,1/2-y,1/2-z
1/2+y,1/2-x,1/2-z
1/2+x,1/2+y,1/2-z
1/2-y,1/2+x,1/2-z
1/2-x,1/2+y,1/2+z
1/2+x,1/2-y,1/2+z
1/2-y,1/2-x,1/2+z
1/2+y,1/2+x,1/2+z
loop_
_atom_site_type_symbol
_atom_site_label
_atom_site_fract_x
_atom_site_fract_y
_atom_site_fract_z
Si Si1 0.268061 0.417316 0.567802
Si Si2 0.269242 0.176848 0.309464
Si Si3 0.062805 0.661768 0.854179
Si Si4 0.803664 0.714480 0.935106
Si Si5 0.237868 0.435720 0.246372
Si Si6 0.652832 0.438651 0.326850
Si Si7 0.937309 0.432988 0.568630
O O1 0.272693 0.435852 0.500000
O O2 0.211545 0.437500 0.598128
O O3 0.259160 0.351987 0.568284
O O4 0.319247 0.433435 0.608056
O O5 0.213377 0.213377 0.313178
O O6 0.299335 0.200666 0.250000
O O7 0.302820 0.185132 0.371081
O O8 0.259651 0.112176 0.301811
O O9 0.081339 0.689337 0.792582
O O10 0.088302 0.608392 0.885335
O O11 0.000000 0.646384 0.841691
O O12 0.746585 0.746585 0.937851
O O13 0.811533 0.685523 0.000000
O O14 0.230444 0.500000 0.228972
O O15 0.294971 0.432741 0.282959
O O16 0.630123 0.500000 0.319496
O O17 0.608076 0.391925 0.317514
O O18 0.925121 0.416747 0.500000
O O19 0.935650 0.500000 0.568886
O O20 0.000000 0.417180 0.583056
#
# Coordination Sequence:
#
# PCOD9571195 Si02
#       7
#    32  32  32  32  32  32  32
#     4  10  18  28  44  64  88 117 148 187 234 280
#     4  10  18  29  51  77  97 121 155 196 237 277
#     4   9  16  25  38  59  87 115 145 184 229 273
#     4   9  18  31  47  70  97 120 143 178 229 282
#     4   9  18  31  47  68  93 120 151 191 237 282
#     4  10  20  32  45  63  90 123 160 201 242 287
#     4   8  13  21  34  53  78 109 145 185 226 267
#
# _framework density 16.844344
#
# number of rings (size 3 to 8) (size 9 to 14) (size 15 to 20)
#    0.000    2.714    0.000    4.714    0.000    3.857 
#    0.000    0.000    0.000    3.857    0.000    3.000 
#    0.000    0.000    0.000    0.000    0.000    0.000 
#
# Total GULP energy -623482.855677 kJ/mol
# GULP energy per Si atom -5566.811211 kJ/mol
# Density = 1.680601 g / cm^3
# Si number density = 16.844344 Si / 1000 Ang^3
#
#
#
# Elastic Constant Matrix: (Units=GPa)
#
#
# Indices 1 2 3 4 5 6 
#
# 1 75.6813 28.2753 27.0015 0.0000 0.0000 0.0000
# 2 28.2753 75.6811 27.0014 0.0000 0.0000 0.0000
# 3 27.0015 27.0014 74.3993 0.0000 0.0000 0.0000
# 4 0.0000 0.0000 0.0000 11.5174 0.0000 0.0000
# 5 0.0000 0.0000 0.0000 0.0000 11.5175 0.0000
# 6 0.0000 0.0000 0.0000 0.0000 0.0000 19.3231
#
#
#
# Elastic Compliance Matrix: (Units=1/GPa)
#
#
# Indices 1 2 3 4 5 6 
#
# 1 0.016474 -0.004620 -0.004302 0.000000 0.000000 0.000000
# 2 -0.004620 0.016474 -0.004302 0.000000 0.000000 0.000000
# 3 -0.004302 -0.004302 0.016564 0.000000 0.000000 0.000000
# 4 0.000000 0.000000 0.000000 0.086825 0.000000 0.000000
# 5 0.000000 0.000000 0.000000 0.000000 0.086824 0.000000
# 6 0.000000 0.000000 0.000000 0.000000 0.000000 0.051752
#
#
# Mechanical properties :
#
#
# Convention : Reuss Voigt Hill
#
# Bulk Modulus (GPa) = 43.35864 43.36867 43.36365
# Shear Modulus (GPa) = 16.17860 18.03717 17.10789
#
# Velocity S-wave (km/s) = 3.10252 3.27588 3.19038
# Velocity P-wave (km/s) = 6.21537 6.33334 6.27463
#
# Compressibility (1/GPa) = 0.02306345
#
# Stress axis : x y z
#
# Youngs Moduli (GPa) = 60.70043 60.70031 60.37270
#
# Poissons Ratio (x) = 0.28044 0.25974
# Poissons Ratio (y) = 0.28044 0.25974
# Poissons Ratio (z) = 0.26115 0.26115
#
# Static dielectric constant tensor:
#      x y z
#    x 1.586650 0.000000 0.000000 
#    y 0.000000 1.586650 0.000000 
#    z 0.000000 0.000000 1.597730 
# 
# From -- ./inp_files/12180.got.cif
#   From: 2010.05.17/outbox.cif.g08.bks.cpg/sg139_7_cif.got.tgz:12180.got - 2010.05.20 13:14:44.
