data_PCOD9571182
_publ_section_title
;
Structure prediction by ZEFSAII (Michael W. Deem and Ramdas Pophale) SiO2 
 PCOD9571182
Probable space group: I 4/M M M
;
_chemical_formula_sum "Si O2"
_cell_formula_units_Z 160
_cell_length_a 19.811202
_cell_length_b 19.811202
_cell_length_c 27.002152
_cell_angle_alpha 90.000000
_cell_angle_beta 90.000000
_cell_angle_gamma 90.000000
_cell_volume 10597.905191
_symmetry_space_group_name_H-M "I 4/M M M"
_symmetry_group_IT_number 139
_symmetry_cell_setting 'tetragonal'
loop_
_space_group_symop_operation_xyz
x,y,z
-y,x,z
-x,-y,z
y,-x,z
x,-y,-z
-x,y,-z
y,x,-z
-y,-x,-z
-x,-y,-z
y,-x,-z
x,y,-z
-y,x,-z
-x,y,z
x,-y,z
-y,-x,z
y,x,z
1/2+x,1/2+y,1/2+z
1/2-y,1/2+x,1/2+z
1/2-x,1/2-y,1/2+z
1/2+y,1/2-x,1/2+z
1/2+x,1/2-y,1/2-z
1/2-x,1/2+y,1/2-z
1/2+y,1/2+x,1/2-z
1/2-y,1/2-x,1/2-z
1/2-x,1/2-y,1/2-z
1/2+y,1/2-x,1/2-z
1/2+x,1/2+y,1/2-z
1/2-y,1/2+x,1/2-z
1/2-x,1/2+y,1/2+z
1/2+x,1/2-y,1/2+z
1/2-y,1/2-x,1/2+z
1/2+y,1/2+x,1/2+z
loop_
_atom_site_type_symbol
_atom_site_label
_atom_site_fract_x
_atom_site_fract_y
_atom_site_fract_z
Si Si1 0.691763 0.420712 0.243622
Si Si2 0.079375 0.337907 0.709819
Si Si3 0.920370 0.189744 0.858535
Si Si4 0.420432 0.922539 0.390719
Si Si5 0.418364 0.210295 0.554621
O O1 0.673166 0.500000 0.237919
O O2 0.629829 0.370172 0.233871
O O3 0.757993 0.406213 0.211094
O O4 0.712798 0.411246 0.301551
O O5 0.124614 0.375387 0.750000
O O6 0.088773 0.374180 0.657243
O O7 0.000000 0.412369 0.592871
O O8 0.878519 0.121482 0.864346
O O9 0.896400 0.242964 0.899677
O O10 0.000000 0.178394 0.865418
O O11 0.500000 0.913384 0.377172
O O12 0.403517 0.867075 0.431685
O O13 0.345380 0.000000 0.276694
O O14 0.392836 0.228983 0.500000
O O15 0.500000 0.215866 0.553273
#
# Coordination Sequence:
#
# PCOD9571182 Si02
#       5
#    32  32  32  32  32
#     4   9  18  31  46  64  85 110 140 174 212 252
#     4  10  18  27  41  61  87 116 143 171 203 243
#     4   9  17  29  44  61  81 105 134 168 205 244
#     4   9  17  28  42  61  84 110 140 171 202 238
#     4   9  17  29  44  60  79 105 137 173 210 243
#
# _framework density 15.097322999999999
#
# number of rings (size 3 to 8) (size 9 to 14) (size 15 to 20)
#    0.000    2.800    0.000    1.800    0.000    5.800 
#    0.000    5.000    0.000    0.000    0.000    2.800 
#    0.000    0.000    0.000    0.000    0.000    0.200 
#
# Total GULP energy -445471.505720 kJ/mol
# GULP energy per Si atom -5568.393822 kJ/mol
# Density = 1.506296 g / cm^3
# Si number density = 15.097323 Si / 1000 Ang^3
#
#
#
# Elastic Constant Matrix: (Units=GPa)
#
#
# Indices 1 2 3 4 5 6 
#
# 1 41.4776 24.1445 17.5169 0.0000 0.0000 0.0000
# 2 24.1445 41.4738 17.5181 0.0000 0.0000 0.0000
# 3 17.5169 17.5181 25.2895 0.0000 0.0000 0.0000
# 4 0.0000 0.0000 0.0000 14.3749 0.0000 0.0000
# 5 0.0000 0.0000 0.0000 0.0000 14.3749 0.0000
# 6 0.0000 0.0000 0.0000 0.0000 0.0000 16.1800
#
#
#
# Elastic Compliance Matrix: (Units=1/GPa)
#
#
# Indices 1 2 3 4 5 6 
#
# 1 0.040937 -0.016758 -0.016747 0.000000 0.000000 0.000000
# 2 -0.016758 0.040945 -0.016755 0.000000 0.000000 0.000000
# 3 -0.016747 -0.016755 0.062748 0.000000 0.000000 0.000000
# 4 0.000000 0.000000 0.000000 0.069566 0.000000 0.000000
# 5 0.000000 0.000000 0.000000 0.000000 0.069566 0.000000
# 6 0.000000 0.000000 0.000000 0.000000 0.000000 0.061805
#
#
# Mechanical properties :
#
#
# Convention : Reuss Voigt Hill
#
# Bulk Modulus (GPa) = 22.67060 25.17776 23.92418
# Shear Modulus (GPa) = 10.85095 12.25672 11.55384
#
# Velocity S-wave (km/s) = 2.68383 2.85238 2.76939
# Velocity P-wave (km/s) = 4.96516 5.24989 5.10951
#
# Compressibility (1/GPa) = 0.04410999
#
# Stress axis : x y z
#
# Youngs Moduli (GPa) = 24.42767 24.42311 15.93682
#
# Poissons Ratio (x) = 0.40929 0.26689
# Poissons Ratio (y) = 0.40937 0.26702
# Poissons Ratio (z) = 0.40908 0.40920
#
# Static dielectric constant tensor:
#      x y z
#    x 1.497900 0.000000 0.000000 
#    y 0.000000 1.497900 0.000000 
#    z 0.000000 0.000000 1.504310 
# 
# From -- ./inp_files/12929.got.cif
#   From: 2010.05.17/outbox.cif.g08.bks.cpg/sg139_7_cif.got.tgz:12929.got - 2010.05.20 13:14:44.
