data_PCOD9571401
_publ_section_title
;
Structure prediction by ZEFSAII (Michael W. Deem and Ramdas Pophale) SiO2 
 PCOD9571401
Probable space group: I 4/M M M
;
_chemical_formula_sum "Si O2"
_cell_formula_units_Z 192
_cell_length_a 21.547701
_cell_length_b 21.547701
_cell_length_c 24.557282
_cell_angle_alpha 90.000000
_cell_angle_beta 90.000000
_cell_angle_gamma 90.000000
_cell_volume 11402.029979
_symmetry_space_group_name_H-M "I 4/M M M"
_symmetry_group_IT_number 139
_symmetry_cell_setting 'tetragonal'
loop_
_space_group_symop_operation_xyz
x,y,z
-y,x,z
-x,-y,z
y,-x,z
x,-y,-z
-x,y,-z
y,x,-z
-y,-x,-z
-x,-y,-z
y,-x,-z
x,y,-z
-y,x,-z
-x,y,z
x,-y,z
-y,-x,z
y,x,z
1/2+x,1/2+y,1/2+z
1/2-y,1/2+x,1/2+z
1/2-x,1/2-y,1/2+z
1/2+y,1/2-x,1/2+z
1/2+x,1/2-y,1/2-z
1/2-x,1/2+y,1/2-z
1/2+y,1/2+x,1/2-z
1/2-y,1/2-x,1/2-z
1/2-x,1/2-y,1/2-z
1/2+y,1/2-x,1/2-z
1/2+x,1/2+y,1/2-z
1/2-y,1/2+x,1/2-z
1/2-x,1/2+y,1/2+z
1/2+x,1/2-y,1/2+z
1/2-y,1/2-x,1/2+z
1/2+y,1/2+x,1/2+z
loop_
_atom_site_type_symbol
_atom_site_label
_atom_site_fract_x
_atom_site_fract_y
_atom_site_fract_z
Si Si1 0.672731 0.426578 0.060511
Si Si2 0.761739 0.339939 0.655217
Si Si3 0.675701 0.072055 0.244055
Si Si4 0.930857 0.293476 0.064517
Si Si5 0.107829 0.431610 0.935078
Si Si6 0.606722 0.779086 0.860435
O O1 0.668046 0.500000 0.064099
O O2 0.606870 0.393130 0.062958
O O3 0.714656 0.402350 0.109464
O O4 0.699824 0.411303 0.000000
O O5 0.701141 0.298860 0.666930
O O6 0.782895 0.389161 0.701193
O O7 0.758919 0.379406 0.599699
O O8 0.820884 0.294700 0.647849
O O9 0.611223 0.111223 0.250000
O O10 0.710380 0.075639 0.302035
O O11 0.666087 0.000000 0.228667
O O12 0.928197 0.367741 0.077375
O O13 0.000000 0.271109 0.077158
O O14 0.919947 0.287502 0.000000
O O15 0.080359 0.500000 0.922372
O O16 0.170586 0.423445 0.901249
O O17 0.119043 0.430918 0.000000
#
# Coordination Sequence:
#
# PCOD9571401 Si02
#       6
#    32  32  32  32  32  32
#     4  10  20  32  47  67  91 121 157 199 246 293
#     4  10  21  35  51  72  99 130 165 204 246 293
#     4  10  21  35  53  76 103 135 168 203 243 289
#     4   9  18  32  49  70  98 130 163 204 250 295
#     4   9  16  26  43  68  98 131 164 199 239 284
#     4  10  19  32  49  69  94 124 163 203 242 285
#
# _framework density 16.839106999999998
#
# number of rings (size 3 to 8) (size 9 to 14) (size 15 to 20)
#    0.000    2.333    0.000    3.000    0.000    6.667 
#    0.000    2.500    0.000    6.000    0.000    0.000 
#    0.000    5.333    0.000    7.333    0.000    0.000 
#
# Total GULP energy -535055.043566 kJ/mol
# GULP energy per Si atom -5573.490037 kJ/mol
# Density = 1.680078 g / cm^3
# Si number density = 16.839107 Si / 1000 Ang^3
#
#
#
# Elastic Constant Matrix: (Units=GPa)
#
#
# Indices 1 2 3 4 5 6 
#
# 1 69.8869 55.6736 37.3756 0.0000 0.0000 0.0000
# 2 55.6736 69.8869 37.3757 0.0000 0.0000 0.0000
# 3 37.3756 37.3757 48.4940 0.0000 0.0000 0.0000
# 4 0.0000 0.0000 0.0000 17.3398 0.0000 0.0000
# 5 0.0000 0.0000 0.0000 0.0000 17.3398 0.0000
# 6 0.0000 0.0000 0.0000 0.0000 0.0000 6.9229
#
#
#
# Elastic Compliance Matrix: (Units=1/GPa)
#
#
# Indices 1 2 3 4 5 6 
#
# 1 0.042537 -0.027820 -0.011343 0.000000 0.000000 0.000000
# 2 -0.027820 0.042537 -0.011343 0.000000 0.000000 0.000000
# 3 -0.011343 -0.011343 0.038106 0.000000 0.000000 0.000000
# 4 0.000000 0.000000 0.000000 0.057671 0.000000 0.000000
# 5 0.000000 0.000000 0.000000 0.000000 0.057671 0.000000
# 6 0.000000 0.000000 0.000000 0.000000 0.000000 0.144449
#
#
# Mechanical properties :
#
#
# Convention : Reuss Voigt Hill
#
# Bulk Modulus (GPa) = 45.10934 49.90196 47.50565
# Shear Modulus (GPa) = 10.17562 12.17669 11.17615
#
# Velocity S-wave (km/s) = 2.46089 2.69201 2.57904
# Velocity P-wave (km/s) = 5.90942 6.27387 6.09437
#
# Compressibility (1/GPa) = 0.02216836
#
# Stress axis : x y z
#
# Youngs Moduli (GPa) = 23.50895 23.50895 26.24275
#
# Poissons Ratio (x) = 0.65401 0.29767
# Poissons Ratio (y) = 0.65401 0.29767
# Poissons Ratio (z) = 0.26666 0.26666
#
# Static dielectric constant tensor:
#      x y z
#    x 1.570800 0.000000 0.000000 
#    y 0.000000 1.570800 0.000000 
#    z 0.000000 0.000000 1.589050 
# 
# From -- ./inp_files/11907.got.cif
#   From: 2010.05.17/outbox.cif.g08.bks.cpg/sg139_6_cif.got.tgz:11907.got - 2010.05.20 13:14:44.
