data_PCOD9571208
_publ_section_title
;
Structure prediction by ZEFSAII (Michael W. Deem and Ramdas Pophale) SiO2 
 PCOD9571208
Probable space group: I 4/M M M
;
_chemical_formula_sum "Si O2"
_cell_formula_units_Z 240
_cell_length_a 28.093399
_cell_length_b 28.093399
_cell_length_c 18.190748
_cell_angle_alpha 90.000000
_cell_angle_beta 90.000000
_cell_angle_gamma 90.000000
_cell_volume 14356.848986
_symmetry_space_group_name_H-M "I 4/M M M"
_symmetry_group_IT_number 139
_symmetry_cell_setting 'tetragonal'
loop_
_space_group_symop_operation_xyz
x,y,z
-y,x,z
-x,-y,z
y,-x,z
x,-y,-z
-x,y,-z
y,x,-z
-y,-x,-z
-x,-y,-z
y,-x,-z
x,y,-z
-y,x,-z
-x,y,z
x,-y,z
-y,-x,z
y,x,z
1/2+x,1/2+y,1/2+z
1/2-y,1/2+x,1/2+z
1/2-x,1/2-y,1/2+z
1/2+y,1/2-x,1/2+z
1/2+x,1/2-y,1/2-z
1/2-x,1/2+y,1/2-z
1/2+y,1/2+x,1/2-z
1/2-y,1/2-x,1/2-z
1/2-x,1/2-y,1/2-z
1/2+y,1/2-x,1/2-z
1/2+x,1/2+y,1/2-z
1/2-y,1/2+x,1/2-z
1/2-x,1/2+y,1/2+z
1/2+x,1/2-y,1/2+z
1/2-y,1/2-x,1/2+z
1/2+y,1/2+x,1/2+z
loop_
_atom_site_type_symbol
_atom_site_label
_atom_site_fract_x
_atom_site_fract_y
_atom_site_fract_z
Si Si1 0.718821 0.646553 0.697149
Si Si2 0.386308 0.946305 0.390790
Si Si3 0.052604 0.729097 0.195585
Si Si4 0.843528 0.412741 0.579482
Si Si5 0.553896 0.224196 0.871616
Si Si6 0.686583 0.209415 0.418175
Si Si7 0.649059 0.723796 0.873052
Si Si8 0.947024 0.447024 0.750000
O O1 0.665864 0.665864 0.684167
O O2 0.732429 0.592918 0.676982
O O3 0.753799 0.678136 0.647366
O O4 0.728647 0.652236 0.784125
O O5 0.413331 0.900402 0.420850
O O6 0.329670 0.939237 0.400569
O O7 0.403600 0.945237 0.306170
O O8 0.397896 0.000000 0.416594
O O9 0.061732 0.681994 0.147262
O O10 0.056183 0.719099 0.282668
O O11 0.000000 0.747081 0.180292
O O12 0.825820 0.430426 0.500000
O O13 0.827392 0.357524 0.586296
O O14 0.500000 0.239223 0.890847
O O15 0.595165 0.261203 0.893717
O O16 0.684707 0.231137 0.500000
O O17 0.735691 0.182173 0.407558
O O18 0.672623 0.672623 0.891769
O O19 0.945020 0.500000 0.713774
#
# Coordination Sequence:
#
# PCOD9571208 Si02
#       8
#    32  32  32  32  32  32  32  16
#     4   9  18  30  45  66  90 114 142 180 222 259
#     4  10  18  29  46  61  77 105 139 179 224 264
#     4   9  18  31  47  64  83 110 143 179 218 259
#     4  10  20  31  42  59  85 113 144 178 213 257
#     4   9  17  30  47  66  85 107 140 181 220 259
#     4  10  19  30  43  62  89 120 149 176 210 254
#     4  10  18  29  46  66  88 114 144 178 217 259
#     4   9  18  30  44  64  81  92 124 182 235 268
#
# _framework density 16.716760000000001
#
# number of rings (size 3 to 8) (size 9 to 14) (size 15 to 20)
#    0.000    2.467    1.333    1.600    0.000    4.267 
#    0.000    0.000    0.000    0.400    0.000    2.800 
#    0.000    0.533    0.000    7.467    0.000    0.000 
#
# Total GULP energy -668390.196374 kJ/mol
# GULP energy per Si atom -5569.918303 kJ/mol
# Density = 1.667871 g / cm^3
# Si number density = 16.716760 Si / 1000 Ang^3
#
#
#
# Elastic Constant Matrix: (Units=GPa)
#
#
# Indices 1 2 3 4 5 6 
#
# 1 55.8301 38.3865 5.4376 0.0000 0.0000 0.0000
# 2 38.3865 55.8301 5.4376 0.0000 0.0000 0.0000
# 3 5.4376 5.4376 19.2920 0.0000 0.0000 0.0000
# 4 0.0000 0.0000 0.0000 0.1061 0.0000 0.0000
# 5 0.0000 0.0000 0.0000 0.0000 0.1061 0.0000
# 6 0.0000 0.0000 0.0000 0.0000 0.0000 18.8784
#
#
#
# Elastic Compliance Matrix: (Units=1/GPa)
#
#
# Indices 1 2 3 4 5 6 
#
# 1 0.034149 -0.023178 -0.003092 0.000000 0.000000 0.000000
# 2 -0.023178 0.034149 -0.003092 0.000000 0.000000 0.000000
# 3 -0.003092 -0.003092 0.053578 0.000000 0.000000 0.000000
# 4 0.000000 0.000000 0.000000 9.427666 0.000000 0.000000
# 5 0.000000 0.000000 0.000000 0.000000 9.427666 0.000000
# 6 0.000000 0.000000 0.000000 0.000000 0.000000 0.052971
#
#
# Mechanical properties :
#
#
# Convention : Reuss Voigt Hill
#
# Bulk Modulus (GPa) = 15.83508 25.49728 20.66618
# Shear Modulus (GPa) = 0.26164 9.26413 4.76289
#
# Velocity S-wave (km/s) = 0.39605 2.35666 1.68978
# Velocity P-wave (km/s) = 3.11485 4.76348 4.02449
#
# Compressibility (1/GPa) = 0.06315092
#
# Stress axis : x y z
#
# Youngs Moduli (GPa) = 29.28324 29.28324 18.66430
#
# Poissons Ratio (x) = 0.67874 0.05771
# Poissons Ratio (y) = 0.67874 0.05771
# Poissons Ratio (z) = 0.09055 0.09055
#
# Static dielectric constant tensor:
#      x y z
#    x 1.573790 0.000000 0.000000 
#    y 0.000000 1.573790 0.000000 
#    z 0.000000 0.000000 1.612070 
# 
# From -- ./inp_files/10783.got.cif
#   From: 2010.05.17/outbox.cif.g08.bks.cpg/sg139_6_cif.got.tgz:10783.got - 2010.05.20 13:14:44.
