data_PCOD9571127
_publ_section_title
;
Structure prediction by ZEFSAII (Michael W. Deem and Ramdas Pophale) SiO2 
 PCOD9571127
Probable space group: P 42/N C M
;
_chemical_formula_sum "Si O2"
_cell_formula_units_Z 112
_cell_length_a 13.396927
_cell_length_b 13.396927
_cell_length_c 37.513775
_cell_angle_alpha 90.000000
_cell_angle_beta 90.000000
_cell_angle_gamma 90.000000
_cell_volume 6732.884294
_symmetry_space_group_name_H-M "P 42/N C M"
_symmetry_group_IT_number 138
_space_group.IT_coordinate_system_code '2'
_symmetry_cell_setting 'tetragonal'
loop_
_space_group_symop_operation_xyz
x,y,z
1/2-y,x,1/2+z
1/2-x,1/2-y,z
y,1/2-x,1/2+z
1/2+x,-y,1/2-z
-x,1/2+y,1/2-z
1/2+y,1/2+x,-z
-y,-x,-z
-x,-y,-z
1/2+y,-x,1/2-z
1/2+x,1/2+y,-z
-y,1/2+x,1/2-z
1/2-x,y,1/2+z
x,1/2-y,1/2+z
1/2-y,1/2-x,z
y,x,z
loop_
_atom_site_type_symbol
_atom_site_label
_atom_site_fract_x
_atom_site_fract_y
_atom_site_fract_z
Si Si1 0.167836 0.003990 0.539880
Si Si2 0.754982 0.417284 0.391519
Si Si3 0.250000 0.082466 0.750000
Si Si4 0.082716 0.745019 0.608481
Si Si5 0.000688 0.332223 0.178676
Si Si6 0.332225 0.000686 0.821324
Si Si7 0.332164 0.003990 0.960120
O O1 0.240208 0.980359 0.572483
O O2 0.083744 0.916256 0.540021
O O3 0.212260 0.004368 0.500000
O O4 0.105795 0.105795 0.545241
O O5 0.858504 0.358504 0.390515
O O6 0.667702 0.332299 0.392039
O O7 0.734210 0.480413 0.356026
O O8 0.345078 0.154923 0.744588
O O9 0.154922 0.154922 0.755413
O O10 0.270725 0.018982 0.785358
O O11 0.229277 0.018984 0.714642
O O12 0.019588 0.765791 0.643974
O O13 0.019641 0.759793 0.572483
O O14 0.907033 0.407031 0.183244
O O15 0.096910 0.403091 0.172778
O O16 0.403093 0.096908 0.827222
O O17 0.394205 0.105796 0.954758
#
# Coordination Sequence:
#
# PCOD9571127 Si02
#       7
#    16  16  16  16  16  16  16
#     4   8  13  21  33  49  72 106 145 179 211 250
#     4   9  16  24  35  54  80 108 138 173 211 249
#     4   9  18  32  48  65  84 106 136 175 212 244
#     4   9  16  24  35  54  80 108 138 173 211 249
#     4   9  17  29  44  60  80 108 137 164 201 250
#     4   9  17  29  44  60  80 108 137 164 201 250
#     4   8  13  21  33  49  72 106 145 179 211 250
#
# _framework density 16.634772999999999
#
# number of rings (size 3 to 8) (size 9 to 14) (size 15 to 20)
#    0.000    3.286    0.000    1.714    0.000    5.143 
#    0.000    2.857    0.000    0.000    0.000    0.000 
#    0.000    1.143    0.000   13.143    0.000   16.857 
#
# Total GULP energy -623605.744091 kJ/mol
# GULP energy per Si atom -5567.908429 kJ/mol
# Density = 1.659691 g / cm^3
# Si number density = 16.634773 Si / 1000 Ang^3
#
#
#
# Elastic Constant Matrix: (Units=GPa)
#
#
# Indices 1 2 3 4 5 6 
#
# 1 42.0263 26.3919 73.3898 0.0000 0.0000 0.0000
# 2 26.3919 42.0263 73.3898 0.0000 0.0000 0.0000
# 3 73.3898 73.3898 216.7335 0.0000 0.0000 0.0000
# 4 0.0000 0.0000 0.0000 2836.7976 0.0000 0.0000
# 5 0.0000 0.0000 0.0000 0.0000 2836.7976 0.0000
# 6 0.0000 0.0000 0.0000 0.0000 0.0000 4.6265
#
#
#
# Elastic Compliance Matrix: (Units=1/GPa)
#
#
# Indices 1 2 3 4 5 6 
#
# 1 0.058696 -0.005266 -0.018092 0.000000 0.000000 0.000000
# 2 -0.005266 0.058696 -0.018092 0.000000 0.000000 0.000000
# 3 -0.018092 -0.018092 0.016867 0.000000 0.000000 0.000000
# 4 0.000000 0.000000 0.000000 0.000353 0.000000 0.000000
# 5 0.000000 0.000000 0.000000 0.000000 0.000353 0.000000
# 6 0.000000 0.000000 0.000000 0.000000 0.000000 0.216147
#
#
# Mechanical properties :
#
#
# Convention : Reuss Voigt Hill
#
# Bulk Modulus (GPa) = 19.47137 71.90325 45.68731
# Shear Modulus (GPa) = 11.08329 1144.15200 577.61764
#
# Velocity S-wave (km/s) = 2.58403 26.25453 18.65446
# Velocity P-wave (km/s) = 4.54242 31.02235 22.17002
#
# Compressibility (1/GPa) = 0.05135746
#
# Stress axis : x y z
#
# Youngs Moduli (GPa) = 17.03702 17.03702 59.28817
#
# Poissons Ratio (x) = 0.08971 1.07266
# Poissons Ratio (y) = 0.08971 1.07266
# Poissons Ratio (z) = 0.30824 0.30824
#
# Static dielectric constant tensor:
#      x y z
#    x 1.552890 0.000000 0.000000 
#    y 0.000000 1.552890 0.000000 
#    z 0.000000 0.000000 1.556420 
# 
# From -- ./inp_files/8247.got.cif
#   From: 2010.05.17/outbox.cif.g08.bks.cpg/sg138_5_cif.got.tgz:8247.got - 2010.05.20 13:08:53.
