data_PCOD9571679
_publ_section_title
;
Structure prediction by ZEFSAII (Michael W. Deem and Ramdas Pophale) SiO2 
 PCOD9571679
Probable space group: I 4/M M M
;
_chemical_formula_sum "Si O2"
_cell_formula_units_Z 184
_cell_length_a 23.995764
_cell_length_b 23.995764
_cell_length_c 17.194596
_cell_angle_alpha 90.000000
_cell_angle_beta 90.000000
_cell_angle_gamma 90.000000
_cell_volume 9900.591462
_symmetry_space_group_name_H-M "I 4/M M M"
_symmetry_group_IT_number 139
_symmetry_cell_setting 'tetragonal'
loop_
_space_group_symop_operation_xyz
x,y,z
-y,x,z
-x,-y,z
y,-x,z
x,-y,-z
-x,y,-z
y,x,-z
-y,-x,-z
-x,-y,-z
y,-x,-z
x,y,-z
-y,x,-z
-x,y,z
x,-y,z
-y,-x,z
y,x,z
1/2+x,1/2+y,1/2+z
1/2-y,1/2+x,1/2+z
1/2-x,1/2-y,1/2+z
1/2+y,1/2-x,1/2+z
1/2+x,1/2-y,1/2-z
1/2-x,1/2+y,1/2-z
1/2+y,1/2+x,1/2-z
1/2-y,1/2-x,1/2-z
1/2-x,1/2-y,1/2-z
1/2+y,1/2-x,1/2-z
1/2+x,1/2+y,1/2-z
1/2-y,1/2+x,1/2-z
1/2-x,1/2+y,1/2+z
1/2+x,1/2-y,1/2+z
1/2-y,1/2-x,1/2+z
1/2+y,1/2+x,1/2+z
loop_
_atom_site_type_symbol
_atom_site_label
_atom_site_fract_x
_atom_site_fract_y
_atom_site_fract_z
Si Si1 0.500000 0.063535 0.094604
Si Si2 0.131369 0.609866 0.910985
Si Si3 0.765460 0.620121 0.203673
Si Si4 0.250000 0.750000 0.250000
Si Si5 0.344885 0.435701 0.618107
Si Si6 0.563610 0.347250 0.192209
Si Si7 0.280628 0.933661 0.129356
O O1 0.556471 0.095685 0.116889
O O2 0.500000 0.000000 0.123226
O O3 0.500000 0.061367 0.000000
O O4 0.183926 0.618799 0.855978
O O5 0.095278 0.666441 0.909062
O O6 0.148446 0.599033 0.000000
O O7 0.752004 0.682784 0.229456
O O8 0.710488 0.591898 0.168228
O O9 0.781072 0.585397 0.280830
O O10 0.354789 0.500000 0.593563
O O11 0.391611 0.391611 0.592206
O O12 0.346356 0.435982 0.712737
O O13 0.281332 0.418709 0.597621
O O14 0.500000 0.350926 0.166991
O O15 0.600862 0.399139 0.167200
O O16 0.285003 0.000000 0.123300
#
# Coordination Sequence:
#
# PCOD9571679 Si02
#       7
#    16  32  32   8  32  32  32
#     4   9  20  38  58  78 108 150 186 224 286 354
#     4  11  23  38  57  83 113 150 191 235 288 343
#     4  11  21  36  57  83 112 148 193 234 284 340
#     4  12  20  36  62  80 108 156 190 238 290 348
#     4   8  15  26  45  74 105 138 177 219 269 328
#     4   9  17  29  49  75 105 140 177 222 275 331
#     4  10  20  34  56  81 108 147 190 231 273 330
#
# _framework density 18.584748999999999
#
# number of rings (size 3 to 8) (size 9 to 14) (size 15 to 20)
#    0.000    2.174    2.609    2.087    3.652    1.391 
#    0.000    2.174    0.000    0.000    0.000    0.000 
#    0.000    0.000    0.000    5.391    0.000    5.217 
#
# Total GULP energy -512309.698003 kJ/mol
# GULP energy per Si atom -5568.583674 kJ/mol
# Density = 1.854245 g / cm^3
# Si number density = 18.584749 Si / 1000 Ang^3
#
#
#
# Elastic Constant Matrix: (Units=GPa)
#
#
# Indices 1 2 3 4 5 6 
#
# 1 146.2150 93.7278 16.6749 0.0000 0.0000 0.0000
# 2 93.7278 146.2150 16.6749 0.0000 0.0000 0.0000
# 3 16.6749 16.6749 30.5985 0.0000 0.0000 0.0000
# 4 0.0000 0.0000 0.0000 -13.4762 0.0000 0.0000
# 5 0.0000 0.0000 0.0000 0.0000 -13.4762 0.0000
# 6 0.0000 0.0000 0.0000 0.0000 0.0000 29.2459
#
#
#
# Elastic Compliance Matrix: (Units=1/GPa)
#
#
# Indices 1 2 3 4 5 6 
#
# 1 0.011781 -0.007272 -0.002457 0.000000 0.000000 0.000000
# 2 -0.007272 0.011781 -0.002457 0.000000 0.000000 0.000000
# 3 -0.002457 -0.002457 0.035360 0.000000 0.000000 0.000000
# 4 0.000000 0.000000 0.000000 -0.074205 0.000000 0.000000
# 5 0.000000 0.000000 0.000000 0.000000 -0.074205 0.000000
# 6 0.000000 0.000000 0.000000 0.000000 0.000000 0.034193
#
#
# Mechanical properties :
#
#
# Convention : Reuss Voigt Hill
#
# Bulk Modulus (GPa) = 28.94462 64.13150 46.53806
# Shear Modulus (GPa) = -257.63264 13.52210 -122.05527
#
# Velocity S-wave (km/s) = -11.78672 2.70032 -8.11280
# Velocity P-wave (km/s) = 13.02411 6.65618 7.91589
#
# Compressibility (1/GPa) = 0.03454874
#
# Stress axis : x y z
#
# Youngs Moduli (GPa) = 84.88430 84.88430 28.28085
#
# Poissons Ratio (x) = 0.61724 0.06950
# Poissons Ratio (y) = 0.61724 0.06950
# Poissons Ratio (z) = 0.20859 0.20859
#
# Static dielectric constant tensor:
#      x y z
#    x 1.633250 0.000000 0.000000 
#    y 0.000000 1.633250 0.000000 
#    z 0.000000 0.000000 1.622970 
# 
# From -- ./inp_files/8740.got.cif
#   From: 2010.05.17/outbox.cif.g08.bks.cpg/sg139_5_cif.got.tgz:8740.got - 2010.05.20 13:14:44.
