data_PCOD9571549
_publ_section_title
;
Structure prediction by ZEFSAII (Michael W. Deem and Ramdas Pophale) SiO2 
 PCOD9571549
Probable space group: I 4/M M M
;
_chemical_formula_sum "Si O2"
_cell_formula_units_Z 160
_cell_length_a 19.218632
_cell_length_b 19.218632
_cell_length_c 25.566791
_cell_angle_alpha 90.000000
_cell_angle_beta 90.000000
_cell_angle_gamma 90.000000
_cell_volume 9443.242951
_symmetry_space_group_name_H-M "I 4/M M M"
_symmetry_group_IT_number 139
_symmetry_cell_setting 'tetragonal'
loop_
_space_group_symop_operation_xyz
x,y,z
-y,x,z
-x,-y,z
y,-x,z
x,-y,-z
-x,y,-z
y,x,-z
-y,-x,-z
-x,-y,-z
y,-x,-z
x,y,-z
-y,x,-z
-x,y,z
x,-y,z
-y,-x,z
y,x,z
1/2+x,1/2+y,1/2+z
1/2-y,1/2+x,1/2+z
1/2-x,1/2-y,1/2+z
1/2+y,1/2-x,1/2+z
1/2+x,1/2-y,1/2-z
1/2-x,1/2+y,1/2-z
1/2+y,1/2+x,1/2-z
1/2-y,1/2-x,1/2-z
1/2-x,1/2-y,1/2-z
1/2+y,1/2-x,1/2-z
1/2+x,1/2+y,1/2-z
1/2-y,1/2+x,1/2-z
1/2-x,1/2+y,1/2+z
1/2+x,1/2-y,1/2+z
1/2-y,1/2-x,1/2+z
1/2+y,1/2+x,1/2+z
loop_
_atom_site_type_symbol
_atom_site_label
_atom_site_fract_x
_atom_site_fract_y
_atom_site_fract_z
Si Si1 0.192588 0.078930 0.339722
Si Si2 0.273307 0.158208 0.939099
Si Si3 0.921454 0.282064 0.439020
Si Si4 0.581947 0.698174 0.346107
Si Si5 0.303024 0.918880 0.250210
O O1 0.133350 0.133350 0.327561
O O2 0.218033 0.084616 0.399395
O O3 0.259091 0.091817 0.303116
O O4 0.169371 0.000000 0.329516
O O5 0.231729 0.231729 0.932502
O O6 0.355247 0.168830 0.928468
O O7 0.237587 0.105559 0.898996
O O8 0.264848 0.137949 0.000000
O O9 0.916124 0.261775 0.500000
O O10 0.000000 0.311606 0.431015
O O11 0.500000 0.681837 0.346814
O O12 0.630363 0.630363 0.340568
O O13 0.595447 0.750711 0.297938
O O14 0.367958 0.867958 0.250000
O O15 0.323363 0.000000 0.247275
#
# Coordination Sequence:
#
# PCOD9571549 Si02
#       5
#    32  32  32  32  32
#     4  10  20  32  47  69  97 130 168 208 249 293
#     4   9  17  30  50  74  99 130 167 206 249 296
#     4   9  17  29  47  72 100 129 164 208 253 295
#     4  10  21  36  54  77 103 131 165 204 246 292
#     4  10  21  36  54  77 103 130 162 200 242 290
#
# _framework density 16.943332000000002
#
# number of rings (size 3 to 8) (size 9 to 14) (size 15 to 20)
#    0.000    2.400    0.000    2.400    0.000    5.400 
#    0.000    0.000    0.000    5.400    0.000    8.400 
#    0.000    0.000    0.000    0.000    0.000    0.000 
#
# Total GULP energy -446016.021471 kJ/mol
# GULP energy per Si atom -5575.200268 kJ/mol
# Density = 1.690477 g / cm^3
# Si number density = 16.943332 Si / 1000 Ang^3
#
#
#
# Elastic Constant Matrix: (Units=GPa)
#
#
# Indices 1 2 3 4 5 6 
#
# 1 117.5438 87.5437 46.8826 0.0000 0.0000 0.0000
# 2 87.5437 117.5438 46.8826 0.0000 0.0000 0.0000
# 3 46.8826 46.8826 63.3389 0.0000 0.0000 0.0000
# 4 0.0000 0.0000 0.0000 20.5317 0.0000 0.0000
# 5 0.0000 0.0000 0.0000 0.0000 20.5317 0.0000
# 6 0.0000 0.0000 0.0000 0.0000 0.0000 2.3718
#
#
#
# Elastic Compliance Matrix: (Units=1/GPa)
#
#
# Indices 1 2 3 4 5 6 
#
# 1 0.020352 -0.012982 -0.005455 0.000000 0.000000 0.000000
# 2 -0.012982 0.020352 -0.005455 0.000000 0.000000 0.000000
# 3 -0.005455 -0.005455 0.023864 0.000000 0.000000 0.000000
# 4 0.000000 0.000000 0.000000 0.048705 0.000000 0.000000
# 5 0.000000 0.000000 0.000000 0.000000 0.048705 0.000000
# 6 0.000000 0.000000 0.000000 0.000000 0.000000 0.421627
#
#
# Mechanical properties :
#
#
# Convention : Reuss Voigt Hill
#
# Bulk Modulus (GPa) = 59.58378 73.44935 66.51657
# Shear Modulus (GPa) = 7.84950 16.49488 12.17219
#
# Velocity S-wave (km/s) = 2.15473 3.12353 2.68322
# Velocity P-wave (km/s) = 6.43687 7.51350 6.99593
#
# Compressibility (1/GPa) = 0.01678309
#
# Stress axis : x y z
#
# Youngs Moduli (GPa) = 49.13611 49.13610 41.90437
#
# Poissons Ratio (x) = 0.63786 0.22860
# Poissons Ratio (y) = 0.63786 0.22860
# Poissons Ratio (z) = 0.26805 0.26805
#
# Static dielectric constant tensor:
#      x y z
#    x 1.554360 0.000000 0.000000 
#    y 0.000000 1.554360 0.000000 
#    z 0.000000 0.000000 1.589360 
# 
# From -- ./inp_files/12932.got.cif
#   From: 2010.05.17/outbox.cif.g08.bks.cpg/sg139_7_cif.got.tgz:12932.got - 2010.05.20 13:14:44.
