data_PCOD9571022
_publ_section_title
;
Structure prediction by ZEFSAII (Michael W. Deem and Ramdas Pophale) SiO2 
 PCOD9571022
Probable space group: P 42/N C M
;
_chemical_formula_sum "Si O2"
_cell_formula_units_Z 48
_cell_length_a 12.832177
_cell_length_b 12.832177
_cell_length_c 12.716423
_cell_angle_alpha 90.000000
_cell_angle_beta 90.000000
_cell_angle_gamma 90.000000
_cell_volume 2093.946825
_symmetry_space_group_name_H-M "P 42/N C M"
_symmetry_group_IT_number 138
_space_group.IT_coordinate_system_code '2'
_symmetry_cell_setting 'tetragonal'
loop_
_space_group_symop_operation_xyz
x,y,z
1/2-y,x,1/2+z
1/2-x,1/2-y,z
y,1/2-x,1/2+z
1/2+x,-y,1/2-z
-x,1/2+y,1/2-z
1/2+y,1/2+x,-z
-y,-x,-z
-x,-y,-z
1/2+y,-x,1/2-z
1/2+x,1/2+y,-z
-y,1/2+x,1/2-z
1/2-x,y,1/2+z
x,1/2-y,1/2+z
1/2-y,1/2-x,z
y,x,z
loop_
_atom_site_type_symbol
_atom_site_label
_atom_site_fract_x
_atom_site_fract_y
_atom_site_fract_z
Si Si1 0.896320 0.068599 0.694425
Si Si2 0.412073 0.792432 0.413473
Si Si3 0.744220 0.916079 0.575124
O O1 0.002080 0.002080 0.680218
O O2 0.802740 0.995887 0.651609
O O3 0.823832 0.104248 0.369451
O O4 0.871016 0.090146 0.815706
O O5 0.330185 0.830185 0.500000
O O6 0.521964 0.793676 0.473421
O O7 0.648470 0.851531 0.623804
O O8 0.831759 0.831759 0.544561
#
# Coordination Sequence:
#
# PCOD9571022 Si02
#       3
#    16  16  16
#     4  11  26  46  69 100 139 181 226 282 344 406
#     4  12  26  43  68 100 135 178 226 280 342 409
#     4  10  23  44  69  97 132 177 227 278 336 406
#
# _framework density 22.923217999999999
#
# number of rings (size 3 to 8) (size 9 to 14) (size 15 to 20)
#    0.000    1.000    0.000    5.000    0.000   19.333 
#    0.000    3.333    0.000    0.000    0.000    0.000 
#    0.000    0.000    0.000    0.000    0.000    0.000 
#
# Total GULP energy -269005.304173 kJ/mol
# GULP energy per Si atom -5604.277170 kJ/mol
# Density = 2.287104 g / cm^3
# Si number density = 22.923218 Si / 1000 Ang^3
#
#
#
# Elastic Constant Matrix: (Units=GPa)
#
#
# Indices 1 2 3 4 5 6 
#
# 1 106.3808 76.7742 50.1125 0.0000 0.0000 0.0000
# 2 76.7742 106.3808 50.1125 0.0000 0.0000 0.0000
# 3 50.1125 50.1125 124.2802 0.0000 0.0000 0.0000
# 4 0.0000 0.0000 0.0000 27.4402 0.0000 0.0000
# 5 0.0000 0.0000 0.0000 0.0000 27.4402 0.0000
# 6 0.0000 0.0000 0.0000 0.0000 0.0000 42.3522
#
#
#
# Elastic Compliance Matrix: (Units=1/GPa)
#
#
# Indices 1 2 3 4 5 6 
#
# 1 0.020391 -0.013385 -0.002825 0.000000 0.000000 0.000000
# 2 -0.013385 0.020391 -0.002825 0.000000 0.000000 0.000000
# 3 -0.002825 -0.002825 0.010324 0.000000 0.000000 0.000000
# 4 0.000000 0.000000 0.000000 0.036443 0.000000 0.000000
# 5 0.000000 0.000000 0.000000 0.000000 0.036443 0.000000
# 6 0.000000 0.000000 0.000000 0.000000 0.000000 0.023612
#
#
# Mechanical properties :
#
#
# Convention : Reuss Voigt Hill
#
# Bulk Modulus (GPa) = 76.70846 76.78224 76.74535
# Shear Modulus (GPa) = 26.31319 30.11603 28.21461
#
# Velocity S-wave (km/s) = 3.39172 3.62854 3.51213
# Velocity P-wave (km/s) = 6.99101 7.15005 7.07098
#
# Compressibility (1/GPa) = 0.01303637
#
# Stress axis : x y z
#
# Youngs Moduli (GPa) = 49.04149 49.04149 96.85796
#
# Poissons Ratio (x) = 0.65643 0.27361
# Poissons Ratio (y) = 0.65643 0.27361
# Poissons Ratio (z) = 0.13853 0.13853
#
# Static dielectric constant tensor:
#      x y z
#    x 1.848900 0.000000 0.000000 
#    y 0.000000 1.848900 0.000000 
#    z 0.000000 0.000000 1.823800 
# 
# From -- ./inp_files/2386.got.cif
#   From: 2010.05.17/outbox.cif.g08.bks.cpg/sg138_2_cif.got.tgz:2386.got - 2010.05.20 13:08:53.
