data_PCOD9571561
_publ_section_title
;
Structure prediction by ZEFSAII (Michael W. Deem and Ramdas Pophale) SiO2 
 PCOD9571561
Probable space group: I 4/M M M
;
_chemical_formula_sum "Si O2"
_cell_formula_units_Z 240
_cell_length_a 22.769538
_cell_length_b 22.769538
_cell_length_c 27.843928
_cell_angle_alpha 90.000000
_cell_angle_beta 90.000000
_cell_angle_gamma 90.000000
_cell_volume 14435.736282
_symmetry_space_group_name_H-M "I 4/M M M"
_symmetry_group_IT_number 139
_symmetry_cell_setting 'tetragonal'
loop_
_space_group_symop_operation_xyz
x,y,z
-y,x,z
-x,-y,z
y,-x,z
x,-y,-z
-x,y,-z
y,x,-z
-y,-x,-z
-x,-y,-z
y,-x,-z
x,y,-z
-y,x,-z
-x,y,z
x,-y,z
-y,-x,z
y,x,z
1/2+x,1/2+y,1/2+z
1/2-y,1/2+x,1/2+z
1/2-x,1/2-y,1/2+z
1/2+y,1/2-x,1/2+z
1/2+x,1/2-y,1/2-z
1/2-x,1/2+y,1/2-z
1/2+y,1/2+x,1/2-z
1/2-y,1/2-x,1/2-z
1/2-x,1/2-y,1/2-z
1/2+y,1/2-x,1/2-z
1/2+x,1/2+y,1/2-z
1/2-y,1/2+x,1/2-z
1/2-x,1/2+y,1/2+z
1/2+x,1/2-y,1/2+z
1/2-y,1/2-x,1/2+z
1/2+y,1/2+x,1/2+z
loop_
_atom_site_type_symbol
_atom_site_label
_atom_site_fract_x
_atom_site_fract_y
_atom_site_fract_z
Si Si1 0.000000 0.568331 0.058602
Si Si2 0.238520 0.429840 0.946982
Si Si3 0.654196 0.250766 0.389543
Si Si4 0.133484 0.618298 0.556289
Si Si5 0.431842 0.662289 0.123843
Si Si6 0.341444 0.757028 0.275302
Si Si7 0.336484 0.569153 0.555641
Si Si8 0.833447 0.068896 0.738961
O O1 0.941879 0.603745 0.073839
O O2 0.000000 0.500000 0.074051
O O3 0.000000 0.567108 0.000000
O O4 0.241773 0.500000 0.947467
O O5 0.171468 0.412179 0.939725
O O6 0.281257 0.408931 0.905005
O O7 0.256746 0.407872 0.000000
O O8 0.714852 0.285149 0.401995
O O9 0.640399 0.190983 0.416750
O O10 0.655518 0.238370 0.332793
O O11 0.602947 0.294975 0.407045
O O12 0.147859 0.609882 0.500000
O O13 0.500000 0.652888 0.111893
O O14 0.393363 0.606637 0.110204
O O15 0.428081 0.670273 0.181067
O O16 0.293152 0.706848 0.263452
O O17 0.315939 0.815939 0.250000
O O18 0.402012 0.726800 0.258213
O O19 0.316034 0.578724 0.500000
O O20 0.338185 0.500000 0.564237
O O21 0.399876 0.600124 0.558993
O O22 0.889058 0.110943 0.753404
O O23 0.840675 0.000000 0.752414
#
# Coordination Sequence:
#
# PCOD9571561 Si02
#       8
#    16  32  32  32  32  32  32  32
#     4   9  18  34  54  76 104 134 169 213 255 299
#     4   9  18  32  48  69  98 129 162 201 246 294
#     4  10  21  34  49  73 104 135 166 208 259 306
#     4  10  20  32  51  77 102 133 167 204 252 306
#     4   9  18  31  49  72  99 133 169 208 251 298
#     4   9  19  35  54  73  97 132 171 214 258 304
#     4   9  18  32  50  72 103 142 178 214 253 299
#     4   9  18  33  53  77 103 130 164 207 256 307
#
# _framework density 16.625408
#
# number of rings (size 3 to 8) (size 9 to 14) (size 15 to 20)
#    0.000    2.733    0.000    0.800    2.800    4.133 
#    0.000    3.333    0.000    0.000    0.000    5.600 
#    0.000    0.000    0.000    0.000    0.000    0.000 
#
# Total GULP energy -668070.830361 kJ/mol
# GULP energy per Si atom -5567.256920 kJ/mol
# Density = 1.658757 g / cm^3
# Si number density = 16.625408 Si / 1000 Ang^3
#
#
#
# Elastic Constant Matrix: (Units=GPa)
#
#
# Indices 1 2 3 4 5 6 
#
# 1 81.8769 43.2732 36.7809 0.0000 0.0000 0.0000
# 2 43.2732 81.8769 36.7809 0.0000 0.0000 0.0000
# 3 36.7809 36.7809 32.1336 0.0000 0.0000 0.0000
# 4 0.0000 0.0000 0.0000 13.8828 0.0000 0.0000
# 5 0.0000 0.0000 0.0000 0.0000 13.8828 0.0000
# 6 0.0000 0.0000 0.0000 0.0000 0.0000 21.2617
#
#
#
# Elastic Compliance Matrix: (Units=1/GPa)
#
#
# Indices 1 2 3 4 5 6 
#
# 1 0.025162 -0.000742 -0.027952 0.000000 0.000000 0.000000
# 2 -0.000742 0.025162 -0.027952 0.000000 0.000000 0.000000
# 3 -0.027952 -0.027952 0.095110 0.000000 0.000000 0.000000
# 4 0.000000 0.000000 0.000000 0.072031 0.000000 0.000000
# 5 0.000000 0.000000 0.000000 0.000000 0.072031 0.000000
# 6 0.000000 0.000000 0.000000 0.000000 0.000000 0.047033
#
#
# Mechanical properties :
#
#
# Convention : Reuss Voigt Hill
#
# Bulk Modulus (GPa) = 31.11224 47.72861 39.42043
# Shear Modulus (GPa) = 10.85690 15.07564 12.96627
#
# Velocity S-wave (km/s) = 2.55822 3.01455 2.79571
# Velocity P-wave (km/s) = 5.24216 6.39431 5.84669
#
# Compressibility (1/GPa) = 0.03214169
#
# Stress axis : x y z
#
# Youngs Moduli (GPa) = 39.74197 39.74197 10.51417
#
# Poissons Ratio (x) = 0.02949 0.29389
# Poissons Ratio (y) = 0.02949 0.29389
# Poissons Ratio (z) = 1.11088 1.11088
#
# Static dielectric constant tensor:
#      x y z
#    x 1.565320 0.000000 0.000000 
#    y 0.000000 1.565320 0.000000 
#    z 0.000000 0.000000 1.565910 
# 
# From -- ./inp_files/14654.got.cif
#   From: 2010.05.17/outbox.cif.g08.bks.cpg/sg139_8_cif.got.tgz:14654.got - 2010.05.20 13:14:44.
