data_PCOD9571437
_publ_section_title
;
Structure prediction by ZEFSAII (Michael W. Deem and Ramdas Pophale) SiO2 
 PCOD9571437
Probable space group: I 4/M M M
;
_chemical_formula_sum "Si O2"
_cell_formula_units_Z 160
_cell_length_a 32.825891
_cell_length_b 32.825891
_cell_length_c 7.914079
_cell_angle_alpha 90.000000
_cell_angle_beta 90.000000
_cell_angle_gamma 90.000000
_cell_volume 8527.729721
_symmetry_space_group_name_H-M "I 4/M M M"
_symmetry_group_IT_number 139
_symmetry_cell_setting 'tetragonal'
loop_
_space_group_symop_operation_xyz
x,y,z
-y,x,z
-x,-y,z
y,-x,z
x,-y,-z
-x,y,-z
y,x,-z
-y,-x,-z
-x,-y,-z
y,-x,-z
x,y,-z
-y,x,-z
-x,y,z
x,-y,z
-y,-x,z
y,x,z
1/2+x,1/2+y,1/2+z
1/2-y,1/2+x,1/2+z
1/2-x,1/2-y,1/2+z
1/2+y,1/2-x,1/2+z
1/2+x,1/2-y,1/2-z
1/2-x,1/2+y,1/2-z
1/2+y,1/2+x,1/2-z
1/2-y,1/2-x,1/2-z
1/2-x,1/2-y,1/2-z
1/2+y,1/2-x,1/2-z
1/2+x,1/2+y,1/2-z
1/2-y,1/2+x,1/2-z
1/2-x,1/2+y,1/2+z
1/2+x,1/2-y,1/2+z
1/2-y,1/2-x,1/2+z
1/2+y,1/2+x,1/2+z
loop_
_atom_site_type_symbol
_atom_site_label
_atom_site_fract_x
_atom_site_fract_y
_atom_site_fract_z
Si Si1 0.046552 0.046552 0.202783
Si Si2 0.548402 0.742463 0.500000
Si Si3 0.451266 0.890105 0.809030
Si Si4 0.208863 0.100564 0.295576
Si Si5 0.748464 0.185657 0.297319
Si Si6 0.614014 0.385987 0.798736
Si Si7 0.664875 0.950372 0.000000
O O1 0.080640 0.080640 0.241582
O O2 0.000000 0.056412 0.262203
O O3 0.044671 0.044671 0.000000
O O4 0.500000 0.740941 0.500000
O O5 0.564990 0.723354 0.327143
O O6 0.562734 0.789050 0.500000
O O7 0.500000 0.891364 0.806157
O O8 0.432795 0.932795 0.750000
O O9 0.436903 0.858005 0.669331
O O10 0.438343 0.880492 0.000000
O O11 0.212543 0.093969 0.500000
O O12 0.235682 0.140756 0.250074
O O13 0.161066 0.106053 0.253269
O O14 0.750417 0.186320 0.500000
O O15 0.781957 0.218044 0.230310
O O16 0.704405 0.204405 0.250000
O O17 0.612447 0.387554 0.000000
O O18 0.663848 0.000000 0.000000
#
# Coordination Sequence:
#
# PCOD9571437 Si02
#       7
#    16  16  32  32  32  16  16
#     4   9  20  38  58  85 123 163 205 258 315 367
#     4  11  26  43  63  86 112 157 211 259 306 356
#     4  10  19  32  56  85 114 151 190 236 298 362
#     4  10  22  41  63  91 127 160 200 250 306 368
#     4   9  17  32  56  86 120 157 193 234 292 367
#     4  10  21  39  62  89 125 164 199 246 299 365
#     4   9  20  40  56  75 108 148 200 246 286 350
#
# _framework density 18.762319999999999
#
# number of rings (size 3 to 8) (size 9 to 14) (size 15 to 20)
#    0.000    2.300    2.000    0.300    2.800    2.600 
#    0.000    6.500    0.000    0.000    0.000    0.000 
#    0.000    0.000    0.000    0.000    0.000    0.000 
#
# Total GULP energy -445640.443094 kJ/mol
# GULP energy per Si atom -5570.505539 kJ/mol
# Density = 1.871962 g / cm^3
# Si number density = 18.762320 Si / 1000 Ang^3
#
#
#
# Elastic Constant Matrix: (Units=GPa)
#
#
# Indices 1 2 3 4 5 6 
#
# 1 106.8300 51.4335 46.1949 0.0000 0.0000 0.0000
# 2 51.4335 106.8287 46.1929 0.0000 0.0000 0.0000
# 3 46.1949 46.1929 99.3818 0.0000 0.0000 0.0000
# 4 0.0000 0.0000 0.0000 39.0654 0.0000 0.0000
# 5 0.0000 0.0000 0.0000 0.0000 39.0622 0.0000
# 6 0.0000 0.0000 0.0000 0.0000 0.0000 33.4226
#
#
#
# Elastic Compliance Matrix: (Units=1/GPa)
#
#
# Indices 1 2 3 4 5 6 
#
# 1 0.013362 -0.004690 -0.004031 0.000000 0.000000 0.000000
# 2 -0.004690 0.013362 -0.004030 0.000000 0.000000 0.000000
# 3 -0.004031 -0.004030 0.013809 0.000000 0.000000 0.000000
# 4 0.000000 0.000000 0.000000 0.025598 0.000000 0.000000
# 5 0.000000 0.000000 0.000000 0.000000 0.025600 0.000000
# 6 0.000000 0.000000 0.000000 0.000000 0.000000 0.029920
#
#
# Mechanical properties :
#
#
# Convention : Reuss Voigt Hill
#
# Bulk Modulus (GPa) = 66.53490 66.74256 66.63873
# Shear Modulus (GPa) = 32.85938 33.59133 33.22535
#
# Velocity S-wave (km/s) = 4.18945 4.23586 4.21272
# Velocity P-wave (km/s) = 7.67730 7.71837 7.69786
#
# Compressibility (1/GPa) = 0.01502971
#
# Stress axis : x y z
#
# Youngs Moduli (GPa) = 74.84045 74.84093 72.41556
#
# Poissons Ratio (x) = 0.35102 0.29190
# Poissons Ratio (y) = 0.35102 0.29187
# Poissons Ratio (z) = 0.30167 0.30164
#
# Static dielectric constant tensor:
#      x y z
#    x 1.659660 0.000000 0.000000 
#    y 0.000000 1.659650 0.000000 
#    z 0.000000 0.000000 1.649160 
# 
# From -- ./inp_files/2318.got.cif
#   From: 2010.05.17/outbox.cif.g08.bks.cpg/sg139_2_cif.got.tgz:2318.got - 2010.05.20 13:14:44.
