data_PCOD9571231
_publ_section_title
;
Structure prediction by ZEFSAII (Michael W. Deem and Ramdas Pophale) SiO2 
 PCOD9571231
Probable space group: I 4/M M M
;
_chemical_formula_sum "Si O2"
_cell_formula_units_Z 160
_cell_length_a 23.578117
_cell_length_b 23.578117
_cell_length_c 14.554334
_cell_angle_alpha 90.000000
_cell_angle_beta 90.000000
_cell_angle_gamma 90.000000
_cell_volume 8091.155989
_symmetry_space_group_name_H-M "I 4/M M M"
_symmetry_group_IT_number 139
_symmetry_cell_setting 'tetragonal'
loop_
_space_group_symop_operation_xyz
x,y,z
-y,x,z
-x,-y,z
y,-x,z
x,-y,-z
-x,y,-z
y,x,-z
-y,-x,-z
-x,-y,-z
y,-x,-z
x,y,-z
-y,x,-z
-x,y,z
x,-y,z
-y,-x,z
y,x,z
1/2+x,1/2+y,1/2+z
1/2-y,1/2+x,1/2+z
1/2-x,1/2-y,1/2+z
1/2+y,1/2-x,1/2+z
1/2+x,1/2-y,1/2-z
1/2-x,1/2+y,1/2-z
1/2+y,1/2+x,1/2-z
1/2-y,1/2-x,1/2-z
1/2-x,1/2-y,1/2-z
1/2+y,1/2-x,1/2-z
1/2+x,1/2+y,1/2-z
1/2-y,1/2+x,1/2-z
1/2-x,1/2+y,1/2+z
1/2+x,1/2-y,1/2+z
1/2-y,1/2-x,1/2+z
1/2+y,1/2+x,1/2+z
loop_
_atom_site_type_symbol
_atom_site_label
_atom_site_fract_x
_atom_site_fract_y
_atom_site_fract_z
Si Si1 0.418548 0.810052 0.098313
Si Si2 0.062576 0.405054 0.147111
Si Si3 0.724285 0.080664 0.800037
Si Si4 0.307310 0.784941 0.397262
Si Si5 0.154845 0.062346 0.109858
O O1 0.424466 0.878723 0.100938
O O2 0.437789 0.784040 0.194755
O O3 0.351529 0.797918 0.100088
O O4 0.440105 0.789346 0.000000
O O5 0.070882 0.429119 0.250000
O O6 0.064448 0.335849 0.151819
O O7 0.000000 0.421525 0.112555
O O8 0.726914 0.148120 0.817331
O O9 0.783189 0.061743 0.843976
O O10 0.331050 0.769422 0.500000
O O11 0.251193 0.748808 0.385024
O O12 0.113736 0.113736 0.140243
O O13 0.128573 0.000000 0.126584
O O14 0.162421 0.068211 0.000000
#
# Coordination Sequence:
#
# PCOD9571231 Si02
#       5
#    32  32  32  32  32
#     4   9  19  32  46  71 104 139 180 219 260 312
#     4   9  18  32  51  74 100 134 177 227 280 326
#     4  10  18  30  49  72 103 139 174 217 265 311
#     4   9  16  26  42  66  98 135 173 214 263 319
#     4  10  21  36  56  84 114 142 173 209 254 313
#
# _framework density 19.774678000000002
#
# number of rings (size 3 to 8) (size 9 to 14) (size 15 to 20)
#    0.000    2.600    0.000    3.600    0.000    5.600 
#    0.000    1.000    0.000   15.000    0.000    5.600 
#    0.000    0.000    0.000    1.800    0.000    0.200 
#
# Total GULP energy -445797.786961 kJ/mol
# GULP energy per Si atom -5572.472337 kJ/mol
# Density = 1.972967 g / cm^3
# Si number density = 19.774678 Si / 1000 Ang^3
#
#
#
# Elastic Constant Matrix: (Units=GPa)
#
#
# Indices 1 2 3 4 5 6 
#
# 1 90.5483 55.1898 21.9569 0.0000 0.0000 0.0000
# 2 55.1898 90.5483 21.9571 0.0000 0.0000 0.0000
# 3 21.9569 21.9571 99.3818 0.0000 0.0000 0.0000
# 4 0.0000 0.0000 0.0000 -10.9238 0.0000 0.0000
# 5 0.0000 0.0000 0.0000 0.0000 -10.9232 0.0000
# 6 0.0000 0.0000 0.0000 0.0000 0.0000 -7.5943
#
#
#
# Elastic Compliance Matrix: (Units=1/GPa)
#
#
# Indices 1 2 3 4 5 6 
#
# 1 0.017816 -0.010465 -0.001624 0.000000 0.000000 0.000000
# 2 -0.010465 0.017816 -0.001624 0.000000 0.000000 0.000000
# 3 -0.001624 -0.001624 0.010780 0.000000 0.000000 0.000000
# 4 0.000000 0.000000 0.000000 -0.091543 0.000000 0.000000
# 5 0.000000 0.000000 0.000000 0.000000 -0.091548 0.000000
# 6 0.000000 0.000000 0.000000 0.000000 0.000000 -0.131678
#
#
# Mechanical properties :
#
#
# Convention : Reuss Voigt Hill
#
# Bulk Modulus (GPa) = 52.67190 53.18732 52.92961
# Shear Modulus (GPa) = -21.31278 6.20337 -7.55471
#
# Velocity S-wave (km/s) = -3.28652 1.77309 -1.95670
# Velocity P-wave (km/s) = 3.50603 5.58094 4.66042
#
# Compressibility (1/GPa) = 0.01898546
#
# Stress axis : x y z
#
# Youngs Moduli (GPa) = 56.12816 56.12814 92.76565
#
# Poissons Ratio (x) = 0.58740 0.15066
# Poissons Ratio (y) = 0.58740 0.15066
# Poissons Ratio (z) = 0.09116 0.09116
#
# Static dielectric constant tensor:
#      x y z
#    x 1.708260 0.000000 0.000000 
#    y 0.000000 1.708260 0.000000 
#    z 0.000000 0.000000 1.755220 
# 
# From -- ./inp_files/5898.got.cif
#   From: 2010.05.17/outbox.cif.g08.bks.cpg/sg139_3_cif.got.tgz:5898.got - 2010.05.20 13:14:44.
