data_PCOD9571980
_publ_section_title
;
Structure prediction by ZEFSAII (Michael W. Deem and Ramdas Pophale) SiO2 
 PCOD9571980
Probable space group: I 4/M M M
;
_chemical_formula_sum "Si O2"
_cell_formula_units_Z 68
_cell_length_a 18.000000
_cell_length_b 18.000000
_cell_length_c 21.000000
_cell_angle_alpha 90.000000
_cell_angle_beta 90.000000
_cell_angle_gamma 90.000000
_cell_volume 6804.000000
_symmetry_space_group_name_H-M "I 4/M M M"
_symmetry_group_IT_number 139
_symmetry_cell_setting 'tetragonal'
loop_
_space_group_symop_operation_xyz
x,y,z
-y,x,z
-x,-y,z
y,-x,z
x,-y,-z
-x,y,-z
y,x,-z
-y,-x,-z
-x,-y,-z
y,-x,-z
x,y,-z
-y,x,-z
-x,y,z
x,-y,z
-y,-x,z
y,x,z
1/2+x,1/2+y,1/2+z
1/2-y,1/2+x,1/2+z
1/2-x,1/2-y,1/2+z
1/2+y,1/2-x,1/2+z
1/2+x,1/2-y,1/2-z
1/2-x,1/2+y,1/2-z
1/2+y,1/2+x,1/2-z
1/2-y,1/2-x,1/2-z
1/2-x,1/2-y,1/2-z
1/2+y,1/2-x,1/2-z
1/2+x,1/2+y,1/2-z
1/2-y,1/2+x,1/2-z
1/2-x,1/2+y,1/2+z
1/2+x,1/2-y,1/2+z
1/2-y,1/2-x,1/2+z
1/2+y,1/2+x,1/2+z
loop_
_atom_site_type_symbol
_atom_site_label
_atom_site_fract_x
_atom_site_fract_y
_atom_site_fract_z
Si Si1 0.878381 0.000000 0.924616
Si Si2 0.877778 0.000000 0.500000
Si Si3 0.846121 0.264751 0.806839
Si Si4 0.777849 0.339814 0.926570
Si Si5 0.379687 0.500000 0.208403
Si Si6 0.000000 0.758367 0.609524
Si Si7 0.000000 0.221272 0.183966
O O1 0.927838 0.072163 0.908838
O O2 0.800469 0.000000 0.889478
O O3 0.868374 0.000000 0.000000
O O4 0.826488 0.000000 0.560608
O O5 0.929045 0.929045 0.500000
O O6 0.820510 0.179491 0.802900
O O7 0.805465 0.305465 0.750000
O O8 0.823431 0.293735 0.875545
O O9 0.931059 0.268977 0.797092
O O10 0.693829 0.306172 0.921258
O O11 0.783373 0.424514 0.905288
O O12 0.799542 0.330784 0.000000
O O13 0.428646 0.428646 0.190884
O O14 0.299639 0.500000 0.176234
O O15 0.358960 0.500000 0.282095
#
# Coordination Sequence:
#
# PCOD9571980 Si02
#       7
#    16   8  32  32  16  16  16
#     4   9  18  32  52  82 118 148 175 215 274 348
#     4  11  20  28  44  76 116 149 182 220 260 325
#     4  10  22  39  58  83 113 144 185 238 289 341
#     4  10  20  35  55  80 111 149 192 234 279 334
#     4  11  22  32  48  80 118 150 180 217 268 341
#     4  12  20  33  54  78 113 157 193 224 267 330
#     4  12  22  37  60  80 105 147 193 237 286 344
#
# _framework density 9.9941209999999998
#
# number of rings (size 3 to 8) (size 9 to 14) (size 15 to 20)
#    0.000    1.471    1.176    6.000    0.000    4.706 
#    0.000    2.353    0.000    2.471    0.000    1.647 
#    0.000    0.000    0.000    0.000    0.000    0.000 
#
# Total GULP energy -378879.358970 kJ/mol
# GULP energy per Si atom -5571.755279 kJ/mol
# Density = 0.997137 g / cm^3
# Si number density = 9.994121 Si / 1000 Ang^3
#
#
#
# Elastic Constant Matrix: (Units=GPa)
#
#
# Indices 1 2 3 4 5 6 
#
# 1 80.7194 21.2905 33.6394 0.0000 0.0000 0.0000
# 2 21.2905 80.7194 33.6394 0.0000 0.0000 0.0000
# 3 33.6394 33.6394 86.5530 0.0000 0.0000 0.0000
# 4 0.0000 0.0000 0.0000 14.2571 0.0000 0.0000
# 5 0.0000 0.0000 0.0000 0.0000 14.2571 0.0000
# 6 0.0000 0.0000 0.0000 0.0000 0.0000 -2.6981
#
#
#
# Elastic Compliance Matrix: (Units=1/GPa)
#
#
# Indices 1 2 3 4 5 6 
#
# 1 0.015004 -0.001822 -0.005123 0.000000 0.000000 0.000000
# 2 -0.001822 0.015004 -0.005123 0.000000 0.000000 0.000000
# 3 -0.005123 -0.005123 0.015536 0.000000 0.000000 0.000000
# 4 0.000000 0.000000 0.000000 0.070141 0.000000 0.000000
# 5 0.000000 0.000000 0.000000 0.000000 0.070141 0.000000
# 6 0.000000 0.000000 0.000000 0.000000 0.000000 -0.370627
#
#
# Mechanical properties :
#
#
# Convention : Reuss Voigt Hill
#
# Bulk Modulus (GPa) = 46.71406 47.23674 46.97540
# Shear Modulus (GPa) = -32.56739 15.79138 -8.38801
#
# Velocity S-wave (km/s) = -4.04087 2.81380 -2.05075
# Velocity P-wave (km/s) = 1.28452 5.85151 4.23617
#
# Compressibility (1/GPa) = 0.02140683
#
# Stress axis : x y z
#
# Youngs Moduli (GPa) = 66.64727 66.64727 64.36676
#
# Poissons Ratio (x) = 0.12146 0.32977
# Poissons Ratio (y) = 0.12146 0.32977
# Poissons Ratio (z) = 0.34145 0.34145
#
# Static dielectric constant tensor:
#      x y z
#    x 1.651130 0.000000 0.000000 
#    y 0.000000 1.651130 0.000000 
#    z 0.000000 0.000000 1.748200 
# 
# From -- ./inp_files/9996.got.cif
#   From: 2010.05.17/outbox.ucp.g08.bks.cvg/sg139_5_cif.got.tgz:9996.got - 2010.06.11 11:42:03.
