data_PCOD9571939
_publ_section_title
;
Structure prediction by ZEFSAII (Michael W. Deem and Ramdas Pophale) SiO2 
 PCOD9571939
Probable space group: I 4/M M M
;
_chemical_formula_sum "Si O2"
_cell_formula_units_Z 176
_cell_length_a 25.376411
_cell_length_b 25.376411
_cell_length_c 13.336806
_cell_angle_alpha 90.000000
_cell_angle_beta 90.000000
_cell_angle_gamma 90.000000
_cell_volume 8588.399403
_symmetry_space_group_name_H-M "I 4/M M M"
_symmetry_group_IT_number 139
_symmetry_cell_setting 'tetragonal'
loop_
_space_group_symop_operation_xyz
x,y,z
-y,x,z
-x,-y,z
y,-x,z
x,-y,-z
-x,y,-z
y,x,-z
-y,-x,-z
-x,-y,-z
y,-x,-z
x,y,-z
-y,x,-z
-x,y,z
x,-y,z
-y,-x,z
y,x,z
1/2+x,1/2+y,1/2+z
1/2-y,1/2+x,1/2+z
1/2-x,1/2-y,1/2+z
1/2+y,1/2-x,1/2+z
1/2+x,1/2-y,1/2-z
1/2-x,1/2+y,1/2-z
1/2+y,1/2+x,1/2-z
1/2-y,1/2-x,1/2-z
1/2-x,1/2-y,1/2-z
1/2+y,1/2-x,1/2-z
1/2+x,1/2+y,1/2-z
1/2-y,1/2+x,1/2-z
1/2-x,1/2+y,1/2+z
1/2+x,1/2-y,1/2+z
1/2-y,1/2-x,1/2+z
1/2+y,1/2+x,1/2+z
loop_
_atom_site_type_symbol
_atom_site_label
_atom_site_fract_x
_atom_site_fract_y
_atom_site_fract_z
Si Si1 0.747357 0.623066 0.000000
Si Si2 0.187189 0.727048 0.000000
Si Si3 0.886360 0.685897 0.178441
Si Si4 0.937741 0.850871 0.889162
Si Si5 0.558938 0.082781 0.638145
Si Si6 0.277314 0.437137 0.198163
Si Si7 0.445786 0.151148 0.000000
O O1 0.718811 0.599480 0.901020
O O2 0.764590 0.684120 0.000000
O O3 0.806288 0.598843 0.000000
O O4 0.149944 0.715872 0.903098
O O5 0.215889 0.784112 0.000000
O O6 0.847618 0.652383 0.250000
O O7 0.926692 0.644527 0.128907
O O8 0.920678 0.722594 0.250359
O O9 0.903256 0.903256 0.886566
O O10 0.925638 0.817861 0.789055
O O11 0.000000 0.861563 0.886630
O O12 0.927096 0.825110 0.000000
O O13 0.500000 0.071724 0.602557
O O14 0.562881 0.062881 0.750000
O O15 0.609881 0.057031 0.588908
O O16 0.279511 0.500000 0.175097
O O17 0.500000 0.182130 0.000000
#
# Coordination Sequence:
#
# PCOD9571939 Si02
#       7
#    16  16  32  32  32  32  16
#     4  12  22  45  63  88 125 165 219 267 315 384
#     4  12  26  43  62  87 118 161 213 270 331 387
#     4  11  22  42  61  85 122 161 211 261 319 381
#     4   9  20  40  65  97 133 164 198 242 297 367
#     4  11  22  37  58  85 121 158 200 258 318 377
#     4  11  23  39  66  95 124 165 212 261 315 374
#     4  12  23  37  59  80 113 161 210 260 304 361
#
# _framework density 20.492759
#
# number of rings (size 3 to 8) (size 9 to 14) (size 15 to 20)
#    0.000    1.091    3.636    3.273    1.273    3.636 
#    0.000    1.818    0.000    0.000    0.000    0.000 
#    0.000    2.909    0.000    0.000    0.000    0.000 
#
# Total GULP energy -490943.127124 kJ/mol
# GULP energy per Si atom -5578.899172 kJ/mol
# Density = 2.044612 g / cm^3
# Si number density = 20.492759 Si / 1000 Ang^3
#
#
#
# Elastic Constant Matrix: (Units=GPa)
#
#
# Indices 1 2 3 4 5 6 
#
# 1 47.4234 30.2208 19.1240 0.0000 0.0000 0.0000
# 2 30.2208 47.4202 19.1226 0.0000 0.0000 0.0000
# 3 19.1240 19.1226 135.2642 0.0000 0.0000 0.0000
# 4 0.0000 0.0000 0.0000 20.4086 0.0000 0.0000
# 5 0.0000 0.0000 0.0000 0.0000 20.4098 0.0000
# 6 0.0000 0.0000 0.0000 0.0000 0.0000 -1.7248
#
#
#
# Elastic Compliance Matrix: (Units=1/GPa)
#
#
# Indices 1 2 3 4 5 6 
#
# 1 0.035989 -0.022146 -0.001957 0.000000 0.000000 0.000000
# 2 -0.022146 0.035991 -0.001957 0.000000 0.000000 0.000000
# 3 -0.001957 -0.001957 0.007946 0.000000 0.000000 0.000000
# 4 0.000000 0.000000 0.000000 0.048999 0.000000 0.000000
# 5 0.000000 0.000000 0.000000 0.000000 0.048996 0.000000
# 6 0.000000 0.000000 0.000000 0.000000 0.000000 -0.579778
#
#
# Mechanical properties :
#
#
# Convention : Reuss Voigt Hill
#
# Bulk Modulus (GPa) = 35.96490 40.78252 38.37371
# Shear Modulus (GPa) = -14.68571 18.59475 1.95452
#
# Velocity S-wave (km/s) = -2.67990 3.01554 0.97767
# Velocity P-wave (km/s) = 2.83061 5.66293 4.47667
#
# Compressibility (1/GPa) = 0.02780489
#
# Stress axis : x y z
#
# Youngs Moduli (GPa) = 27.78647 27.78468 125.84408
#
# Poissons Ratio (x) = 0.61533 0.24631
# Poissons Ratio (y) = 0.61537 0.24628
# Poissons Ratio (z) = 0.05439 0.05438
#
# Static dielectric constant tensor:
#      x y z
#    x 1.718450 0.000000 0.000000 
#    y 0.000000 1.718460 0.000000 
#    z 0.000000 0.000000 1.768150 
# 
# From -- ./inp_files/4063.got.cif
#   From: 2010.05.17/outbox.cif.g08.bks.cpg/sg139_3_cif.got.tgz:4063.got - 2010.05.20 13:14:44.
