data_PCOD9571103
_publ_section_title
;
Structure prediction by ZEFSAII (Michael W. Deem and Ramdas Pophale) SiO2 
 PCOD9571103
Probable space group: P 42/N C M
;
_chemical_formula_sum "Si O2"
_cell_formula_units_Z 72
_cell_length_a 11.527043
_cell_length_b 11.527043
_cell_length_c 28.516415
_cell_angle_alpha 90.000000
_cell_angle_beta 90.000000
_cell_angle_gamma 90.000000
_cell_volume 3789.053635
_symmetry_space_group_name_H-M "P 42/N C M"
_symmetry_group_IT_number 138
_space_group.IT_coordinate_system_code '2'
_symmetry_cell_setting 'tetragonal'
loop_
_space_group_symop_operation_xyz
x,y,z
1/2-y,x,1/2+z
1/2-x,1/2-y,z
y,1/2-x,1/2+z
1/2+x,-y,1/2-z
-x,1/2+y,1/2-z
1/2+y,1/2+x,-z
-y,-x,-z
-x,-y,-z
1/2+y,-x,1/2-z
1/2+x,1/2+y,-z
-y,1/2+x,1/2-z
1/2-x,y,1/2+z
x,1/2-y,1/2+z
1/2-y,1/2-x,z
y,x,z
loop_
_atom_site_type_symbol
_atom_site_label
_atom_site_fract_x
_atom_site_fract_y
_atom_site_fract_z
Si Si1 0.595424 0.904577 0.985457
Si Si2 0.223198 0.887668 0.373490
Si Si3 0.656099 0.843902 0.787555
Si Si4 0.451271 0.048730 0.119109
Si Si5 0.433475 0.768318 0.732441
Si Si6 0.481080 0.675988 0.030193
O O1 0.599535 0.900466 0.929185
O O2 0.548066 0.783615 0.006094
O O3 0.500000 0.000000 0.000000
O O4 0.250000 0.750000 0.371071
O O5 0.264202 0.938598 0.323678
O O6 0.287218 0.938049 0.418678
O O7 0.087907 0.920539 0.379774
O O8 0.750000 0.750000 0.801199
O O9 0.602390 0.897611 0.834273
O O10 0.555830 0.785859 0.756627
O O11 0.371582 0.651138 0.750483
O O12 0.571610 0.571610 0.034306
O O13 0.372360 0.627641 0.000000
#
# Coordination Sequence:
#
# PCOD9571103 Si02
#       6
#     8  16   8   8  16  16
#     4  12  23  43  70 100 133 188 220 275 334 396
#     4  12  23  42  70  98 128 178 227 274 337 406
#     4  12  28  42  67 103 137 175 222 284 337 401
#     4  12  24  43  70  98 131 175 236 272 327 413
#     4  11  23  46  68  95 135 177 223 278 338 400
#     4  11  26  44  66 102 142 172 224 284 338 405
#
# _framework density 19.002105
#
# number of rings (size 3 to 8) (size 9 to 14) (size 15 to 20)
#    0.000    0.444    6.667    1.667    4.667    0.889 
#    0.000    3.333    0.000    0.000    0.000    0.000 
#    0.000    0.000    0.000    0.000    0.000    0.000 
#
# Total GULP energy -402677.654204 kJ/mol
# GULP energy per Si atom -5592.745197 kJ/mol
# Density = 1.895886 g / cm^3
# Si number density = 19.002105 Si / 1000 Ang^3
#
#
#
# Elastic Constant Matrix: (Units=GPa)
#
#
# Indices 1 2 3 4 5 6 
#
# 1 44.5413 81.6443 44.1262 0.0000 0.0000 0.0000
# 2 81.6443 44.5354 44.1258 0.0000 0.0000 0.0000
# 3 44.1262 44.1258 205.8770 0.0000 0.0000 0.0000
# 4 0.0000 0.0000 0.0000 14.5386 0.0000 0.0000
# 5 0.0000 0.0000 0.0000 0.0000 14.5382 0.0000
# 6 0.0000 0.0000 0.0000 0.0000 0.0000 25.9552
#
#
#
# Elastic Compliance Matrix: (Units=1/GPa)
#
#
# Indices 1 2 3 4 5 6 
#
# 1 -0.008813 0.018136 -0.001998 0.000000 0.000000 0.000000
# 2 0.018136 -0.008814 -0.001998 0.000000 0.000000 0.000000
# 3 -0.001998 -0.001998 0.005714 0.000000 0.000000 0.000000
# 4 0.000000 0.000000 0.000000 0.068782 0.000000 0.000000
# 5 0.000000 0.000000 0.000000 0.000000 0.068784 0.000000
# 6 0.000000 0.000000 0.000000 0.000000 0.000000 0.038528
#
#
# Mechanical properties :
#
#
# Convention : Reuss Voigt Hill
#
# Bulk Modulus (GPa) = 61.10102 70.52737 65.81419
# Shear Modulus (GPa) = 35.37159 19.34357 27.35758
#
# Velocity S-wave (km/s) = 4.31914 3.19403 3.79847
# Velocity P-wave (km/s) = 7.55632 7.12731 7.34495
#
# Compressibility (1/GPa) = 0.01636634
#
# Stress axis : x y z
#
# Youngs Moduli (GPa) = -113.46901 -113.45065 175.01533
#
# Poissons Ratio (x) = 2.05756 0.34972
# Poissons Ratio (y) = 2.05789 0.34968
# Poissons Ratio (z) = -0.22674 -0.22667
#
# Static dielectric constant tensor:
#      x y z
#    x 1.651950 0.000000 0.000000 
#    y 0.000000 1.651950 0.000000 
#    z 0.000000 0.000000 1.638210 
# 
# From -- ./inp_files/7430.got.cif
#   From: 2010.05.17/outbox.cif.g08.bks.cpg/sg138_4_cif.got.tgz:7430.got - 2010.05.20 13:08:53.
