data_PCOD9571607
_publ_section_title
;
Structure prediction by ZEFSAII (Michael W. Deem and Ramdas Pophale) SiO2 
 PCOD9571607
Probable space group: I 4/M M M
;
_chemical_formula_sum "Si O2"
_cell_formula_units_Z 128
_cell_length_a 19.859807
_cell_length_b 19.859807
_cell_length_c 19.016862
_cell_angle_alpha 90.000000
_cell_angle_beta 90.000000
_cell_angle_gamma 90.000000
_cell_volume 7500.477322
_symmetry_space_group_name_H-M "I 4/M M M"
_symmetry_group_IT_number 139
_symmetry_cell_setting 'tetragonal'
loop_
_space_group_symop_operation_xyz
x,y,z
-y,x,z
-x,-y,z
y,-x,z
x,-y,-z
-x,y,-z
y,x,-z
-y,-x,-z
-x,-y,-z
y,-x,-z
x,y,-z
-y,x,-z
-x,y,z
x,-y,z
-y,-x,z
y,x,z
1/2+x,1/2+y,1/2+z
1/2-y,1/2+x,1/2+z
1/2-x,1/2-y,1/2+z
1/2+y,1/2-x,1/2+z
1/2+x,1/2-y,1/2-z
1/2-x,1/2+y,1/2-z
1/2+y,1/2+x,1/2-z
1/2-y,1/2-x,1/2-z
1/2-x,1/2-y,1/2-z
1/2+y,1/2-x,1/2-z
1/2+x,1/2+y,1/2-z
1/2-y,1/2+x,1/2-z
1/2-x,1/2+y,1/2+z
1/2+x,1/2-y,1/2+z
1/2-y,1/2-x,1/2+z
1/2+y,1/2+x,1/2+z
loop_
_atom_site_type_symbol
_atom_site_label
_atom_site_fract_x
_atom_site_fract_y
_atom_site_fract_z
Si Si1 0.678880 0.573925 0.728826
Si Si2 0.273700 0.425808 0.577740
Si Si3 0.921072 0.674866 0.294454
Si Si4 0.181134 0.293548 0.418419
O O1 0.656610 0.500000 0.752923
O O2 0.632698 0.632698 0.757938
O O3 0.677955 0.575747 0.644257
O O4 0.756555 0.582207 0.749207
O O5 0.305065 0.421948 0.500000
O O6 0.239181 0.500000 0.581806
O O7 0.224870 0.362163 0.583587
O O8 0.882790 0.617211 0.250000
O O9 0.880073 0.693566 0.365227
O O10 0.000000 0.659075 0.306729
O O11 0.160522 0.283085 0.500000
O O12 0.231608 0.231608 0.398723
#
# Coordination Sequence:
#
# PCOD9571607 Si02
#       4
#    32  32  32  32
#     4  10  20  33  51  75 102 136 174 212 260 314
#     4   9  17  29  47  74 107 137 167 204 247 304
#     4  11  23  37  54  77 106 142 181 224 273 324
#     4  10  20  34  56  82 106 138 179 223 273 326
#
# _framework density 17.065581000000002
#
# number of rings (size 3 to 8) (size 9 to 14) (size 15 to 20)
#    0.000    2.000    2.500    1.500    0.000    3.500 
#    0.000    0.000    0.000    0.000    0.000    8.750 
#    0.000    0.000    0.000   23.250    0.000    0.000 
#
# Total GULP energy -356351.827740 kJ/mol
# GULP energy per Si atom -5567.997308 kJ/mol
# Density = 1.702674 g / cm^3
# Si number density = 17.065581 Si / 1000 Ang^3
#
#
#
# Elastic Constant Matrix: (Units=GPa)
#
#
# Indices 1 2 3 4 5 6 
#
# 1 92.0154 79.7078 39.6592 0.0000 0.0000 0.0000
# 2 79.7078 92.0165 39.6591 0.0000 0.0000 0.0000
# 3 39.6592 39.6591 75.4194 0.0000 0.0000 0.0000
# 4 0.0000 0.0000 0.0000 17.8662 0.0000 0.0000
# 5 0.0000 0.0000 0.0000 0.0000 17.8663 0.0000
# 6 0.0000 0.0000 0.0000 0.0000 0.0000 19.1302
#
#
#
# Elastic Compliance Matrix: (Units=1/GPa)
#
#
# Indices 1 2 3 4 5 6 
#
# 1 0.044469 -0.036778 -0.004045 0.000000 0.000000 0.000000
# 2 -0.036778 0.044469 -0.004044 0.000000 0.000000 0.000000
# 3 -0.004045 -0.004044 0.017513 0.000000 0.000000 0.000000
# 4 0.000000 0.000000 0.000000 0.055972 0.000000 0.000000
# 5 0.000000 0.000000 0.000000 0.000000 0.055971 0.000000
# 6 0.000000 0.000000 0.000000 0.000000 0.000000 0.052273
#
#
# Mechanical properties :
#
#
# Convention : Reuss Voigt Hill
#
# Bulk Modulus (GPa) = 59.81729 64.16706 61.99217
# Shear Modulus (GPa) = 13.66221 17.66755 15.66488
#
# Velocity S-wave (km/s) = 2.83251 3.22106 3.03301
# Velocity P-wave (km/s) = 6.76941 7.17743 6.97641
#
# Compressibility (1/GPa) = 0.01671757
#
# Stress axis : x y z
#
# Youngs Moduli (GPa) = 22.48738 22.48773 57.10106
#
# Poissons Ratio (x) = 0.82704 0.23096
# Poissons Ratio (y) = 0.82703 0.23094
# Poissons Ratio (z) = 0.09096 0.09095
#
# Static dielectric constant tensor:
#      x y z
#    x 1.585840 0.000000 0.000000 
#    y 0.000000 1.585830 0.000000 
#    z 0.000000 0.000000 1.611750 
# 
# From -- ./inp_files/7968.got.cif
#   From: 2010.05.17/outbox.cif.g08.bks.cpg/sg139_4_cif.got.tgz:7968.got - 2010.05.20 13:14:44.
