data_PCOD9571156
_publ_section_title
;
Structure prediction by ZEFSAII (Michael W. Deem and Ramdas Pophale) SiO2 
 PCOD9571156
Probable space group: I 4/M M M
;
_chemical_formula_sum "Si O2"
_cell_formula_units_Z 192
_cell_length_a 23.212342
_cell_length_b 23.212342
_cell_length_c 25.489849
_cell_angle_alpha 90.000000
_cell_angle_beta 90.000000
_cell_angle_gamma 90.000000
_cell_volume 13734.257450
_symmetry_space_group_name_H-M "I 4/M M M"
_symmetry_group_IT_number 139
_symmetry_cell_setting 'tetragonal'
loop_
_space_group_symop_operation_xyz
x,y,z
-y,x,z
-x,-y,z
y,-x,z
x,-y,-z
-x,y,-z
y,x,-z
-y,-x,-z
-x,-y,-z
y,-x,-z
x,y,-z
-y,x,-z
-x,y,z
x,-y,z
-y,-x,z
y,x,z
1/2+x,1/2+y,1/2+z
1/2-y,1/2+x,1/2+z
1/2-x,1/2-y,1/2+z
1/2+y,1/2-x,1/2+z
1/2+x,1/2-y,1/2-z
1/2-x,1/2+y,1/2-z
1/2+y,1/2+x,1/2-z
1/2-y,1/2-x,1/2-z
1/2-x,1/2-y,1/2-z
1/2+y,1/2-x,1/2-z
1/2+x,1/2+y,1/2-z
1/2-y,1/2+x,1/2-z
1/2-x,1/2+y,1/2+z
1/2+x,1/2-y,1/2+z
1/2-y,1/2-x,1/2+z
1/2+y,1/2+x,1/2+z
loop_
_atom_site_type_symbol
_atom_site_label
_atom_site_fract_x
_atom_site_fract_y
_atom_site_fract_z
Si Si1 0.838773 0.934460 0.763058
Si Si2 0.662233 0.566255 0.939740
Si Si3 0.567027 0.662471 0.562018
Si Si4 0.065729 0.763540 0.338230
Si Si5 0.628824 0.727132 0.350713
Si Si6 0.312405 0.784408 0.810724
O O1 0.892947 0.892947 0.769842
O O2 0.815839 0.932173 0.703707
O O3 0.788277 0.910801 0.800848
O O4 0.852339 0.000000 0.776961
O O5 0.642094 0.500000 0.934721
O O6 0.610721 0.610721 0.930284
O O7 0.711336 0.574419 0.896407
O O8 0.682206 0.574190 0.000000
O O9 0.572249 0.674521 0.500000
O O10 0.500000 0.652567 0.574140
O O11 0.606019 0.606019 0.573258
O O12 0.592513 0.713683 0.597382
O O13 0.120713 0.725397 0.322860
O O14 0.000000 0.739539 0.334409
O O15 0.679641 0.679641 0.349267
O O16 0.662964 0.786308 0.344383
O O17 0.274041 0.725960 0.820477
O O18 0.300533 0.800533 0.750000
#
# Coordination Sequence:
#
# PCOD9571156 Si02
#       6
#    32  32  32  32  32  32
#     4  10  18  27  40  59  86 116 145 178 214 251
#     4   9  17  28  41  57  80 112 147 180 212 247
#     4   9  17  29  44  63  92 128 161 191 220 252
#     4  10  19  30  44  63  87 110 139 181 225 266
#     4   9  17  28  42  61  83 110 147 189 224 255
#     4  10  17  28  47  66  86 114 148 181 220 273
#
# _framework density 13.979642
#
# number of rings (size 3 to 8) (size 9 to 14) (size 15 to 20)
#    0.000    2.500    1.667    2.000    0.000    0.500 
#    0.000    2.500    0.000    9.000    0.000    0.000 
#    0.000    5.667    0.000    1.833    0.000    0.000 
#
# Total GULP energy -534427.191448 kJ/mol
# GULP energy per Si atom -5566.949911 kJ/mol
# Density = 1.394782 g / cm^3
# Si number density = 13.979642 Si / 1000 Ang^3
#
#
#
# Elastic Constant Matrix: (Units=GPa)
#
#
# Indices 1 2 3 4 5 6 
#
# 1 83.2555 53.4252 34.0306 0.0000 0.0000 0.0000
# 2 53.4252 83.2555 34.0306 0.0000 0.0000 0.0000
# 3 34.0306 34.0306 57.2870 0.0000 0.0000 0.0000
# 4 0.0000 0.0000 0.0000 18.7456 0.0000 0.0000
# 5 0.0000 0.0000 0.0000 0.0000 18.7456 0.0000
# 6 0.0000 0.0000 0.0000 0.0000 0.0000 20.0276
#
#
#
# Elastic Compliance Matrix: (Units=1/GPa)
#
#
# Indices 1 2 3 4 5 6 
#
# 1 0.021956 -0.011567 -0.006172 0.000000 0.000000 0.000000
# 2 -0.011567 0.021956 -0.006172 0.000000 0.000000 0.000000
# 3 -0.006172 -0.006172 0.024789 0.000000 0.000000 0.000000
# 4 0.000000 0.000000 0.000000 0.053346 0.000000 0.000000
# 5 0.000000 0.000000 0.000000 0.000000 0.053346 0.000000
# 6 0.000000 0.000000 0.000000 0.000000 0.000000 0.049931
#
#
# Mechanical properties :
#
#
# Convention : Reuss Voigt Hill
#
# Bulk Modulus (GPa) = 47.89153 51.86341 49.87747
# Shear Modulus (GPa) = 17.85047 18.32454 18.08751
#
# Velocity S-wave (km/s) = 3.57724 3.62443 3.60091
# Velocity P-wave (km/s) = 7.16900 7.39561 7.28319
#
# Compressibility (1/GPa) = 0.02088052
#
# Stress axis : x y z
#
# Youngs Moduli (GPa) = 45.54507 45.54508 40.34120
#
# Poissons Ratio (x) = 0.52680 0.24898
# Poissons Ratio (y) = 0.52680 0.24898
# Poissons Ratio (z) = 0.28110 0.28110
#
# Static dielectric constant tensor:
#      x y z
#    x 1.451640 0.000000 0.000000 
#    y 0.000000 1.451640 0.000000 
#    z 0.000000 0.000000 1.488730 
# 
# From -- ./inp_files/13313.got.cif
#   From: 2010.05.17/outbox.cif.g08.bks.cpg/sg139_7_cif.got.tgz:13313.got - 2010.05.20 13:14:44.
