data_PCOD9571989
_publ_section_title
;
Structure prediction by ZEFSAII (Michael W. Deem and Ramdas Pophale) SiO2 
 PCOD9571989
Probable space group: I 4/M C M
;
_chemical_formula_sum "Si O2"
_cell_formula_units_Z 96
_cell_length_a 15.919276
_cell_length_b 15.919276
_cell_length_c 18.316858
_cell_angle_alpha 90.000000
_cell_angle_beta 90.000000
_cell_angle_gamma 90.000000
_cell_volume 4641.919486
_symmetry_space_group_name_H-M "I 4/M C M"
_symmetry_group_IT_number 140
_symmetry_cell_setting 'tetragonal'
loop_
_space_group_symop_operation_xyz
x,y,z
-y,x,z
-x,-y,z
y,-x,z
x,-y,1/2-z
-x,y,1/2-z
y,x,1/2-z
-y,-x,1/2-z
-x,-y,-z
y,-x,-z
x,y,-z
-y,x,-z
-x,y,1/2+z
x,-y,1/2+z
-y,-x,1/2+z
y,x,1/2+z
1/2+x,1/2+y,1/2+z
1/2-y,1/2+x,1/2+z
1/2-x,1/2-y,1/2+z
1/2+y,1/2-x,1/2+z
1/2+x,1/2-y,-z
1/2-x,1/2+y,-z
1/2+y,1/2+x,-z
1/2-y,1/2-x,-z
1/2-x,1/2-y,1/2-z
1/2+y,1/2-x,1/2-z
1/2+x,1/2+y,1/2-z
1/2-y,1/2+x,1/2-z
1/2-x,1/2+y,z
1/2+x,1/2-y,z
1/2-y,1/2-x,z
1/2+y,1/2+x,z
loop_
_atom_site_type_symbol
_atom_site_label
_atom_site_fract_x
_atom_site_fract_y
_atom_site_fract_z
Si Si1 0.436373 0.624686 0.500000
Si Si2 0.072026 0.427975 0.581652
Si Si3 0.798979 0.831465 0.415296
Si Si4 0.955558 0.687744 0.175462
O O1 0.392487 0.533282 0.500000
O O2 0.398724 0.669284 0.571959
O O3 0.097327 0.402674 0.500000
O O4 0.147095 0.473325 0.624037
O O5 0.000000 0.500000 0.576581
O O6 0.771182 0.848609 0.500000
O O7 0.756504 0.743497 0.393978
O O8 0.760548 0.902493 0.364111
O O9 0.887641 0.612360 0.190096
O O10 0.000000 0.714041 0.250000
#
# Coordination Sequence:
#
# PCOD9571989 Si02
#       4
#    16  16  32  32
#     4   9  17  32  58  82  96 122 175 229 256 289
#     4   9  16  22  34  56  92 133 175 215 239 286
#     4   8  16  30  49  72 102 131 158 202 261 309
#     4  10  16  24  40  64  98 140 172 201 246 305
#
# _framework density 20.681100000000001
#
# number of rings (size 3 to 8) (size 9 to 14) (size 15 to 20)
#    1.000    2.000    1.667    1.000    0.000    4.000 
#    0.000    0.000    7.333    2.000    0.000    7.000 
#    0.000    0.000    0.000    0.000    0.000    0.000 
#
# Total GULP energy -267283.650010 kJ/mol
# GULP energy per Si atom -5568.409375 kJ/mol
# Density = 2.063403 g / cm^3
# Si number density = 20.681100 Si / 1000 Ang^3
#
#
#
# Elastic Constant Matrix: (Units=GPa)
#
#
# Indices 1 2 3 4 5 6 
#
# 1 59.9348 11.4948 -8.5971 0.0000 0.0000 0.0000
# 2 11.4948 59.9348 -8.5970 0.0000 0.0000 0.0000
# 3 -8.5971 -8.5970 64.4109 0.0000 0.0000 0.0000
# 4 0.0000 0.0000 0.0000 0.8073 0.0000 0.0000
# 5 0.0000 0.0000 0.0000 0.0000 0.8073 0.0000
# 6 0.0000 0.0000 0.0000 0.0000 0.0000 9.4805
#
#
#
# Elastic Compliance Matrix: (Units=1/GPa)
#
#
# Indices 1 2 3 4 5 6 
#
# 1 0.017554 -0.003090 0.001931 0.000000 0.000000 0.000000
# 2 -0.003090 0.017554 0.001931 0.000000 0.000000 0.000000
# 3 0.001931 0.001931 0.016041 0.000000 0.000000 0.000000
# 4 0.000000 0.000000 0.000000 1.238665 0.000002 0.000000
# 5 0.000000 0.000000 0.000000 0.000002 1.238713 0.000000
# 6 0.000000 0.000000 0.000000 0.000000 0.000000 0.105479
#
#
# Mechanical properties :
#
#
# Convention : Reuss Voigt Hill
#
# Bulk Modulus (GPa) = 18.97815 19.20909 19.09362
# Shear Modulus (GPa) = 1.88677 14.88435 8.38556
#
# Velocity S-wave (km/s) = 0.95619 2.68565 2.01581
# Velocity P-wave (km/s) = 3.22731 4.35033 3.83020
#
# Compressibility (1/GPa) = 0.05269218
#
# Stress axis : x y z
#
# Youngs Moduli (GPa) = 56.96608 56.96614 62.34144
#
# Poissons Ratio (x) = 0.17601 -0.12036
# Poissons Ratio (y) = 0.17601 -0.12036
# Poissons Ratio (z) = -0.10998 -0.10998
#
# Static dielectric constant tensor:
#      x y z
#    x 1.774050 0.000000 0.000000 
#    y 0.000000 1.774050 0.000000 
#    z 0.000000 0.000000 1.728950 
# 
# From -- ./inp_files/5904.got.cif
#   From: 2010.05.17/outbox.cif.g08.bks.cpg/sg140_3_cif.got.tgz:5904.got - 2010.06.21 00:45:31.
