data_PCOD9571986
_publ_section_title
;
Structure prediction by ZEFSAII (Michael W. Deem and Ramdas Pophale) SiO2 
 PCOD9571986
Probable space group: I 4/M C M
;
_chemical_formula_sum "Si O2"
_cell_formula_units_Z 168
_cell_length_a 17.683967
_cell_length_b 17.683967
_cell_length_c 24.739463
_cell_angle_alpha 90.000000
_cell_angle_beta 90.000000
_cell_angle_gamma 90.000000
_cell_volume 7736.591390
_symmetry_space_group_name_H-M "I 4/M C M"
_symmetry_group_IT_number 140
_symmetry_cell_setting 'tetragonal'
loop_
_space_group_symop_operation_xyz
x,y,z
-y,x,z
-x,-y,z
y,-x,z
x,-y,1/2-z
-x,y,1/2-z
y,x,1/2-z
-y,-x,1/2-z
-x,-y,-z
y,-x,-z
x,y,-z
-y,x,-z
-x,y,1/2+z
x,-y,1/2+z
-y,-x,1/2+z
y,x,1/2+z
1/2+x,1/2+y,1/2+z
1/2-y,1/2+x,1/2+z
1/2-x,1/2-y,1/2+z
1/2+y,1/2-x,1/2+z
1/2+x,1/2-y,-z
1/2-x,1/2+y,-z
1/2+y,1/2+x,-z
1/2-y,1/2-x,-z
1/2-x,1/2-y,1/2-z
1/2+y,1/2-x,1/2-z
1/2+x,1/2+y,1/2-z
1/2-y,1/2+x,1/2-z
1/2-x,1/2+y,z
1/2+x,1/2-y,z
1/2-y,1/2-x,z
1/2+y,1/2+x,z
loop_
_atom_site_type_symbol
_atom_site_label
_atom_site_fract_x
_atom_site_fract_y
_atom_site_fract_z
Si Si1 0.583170 0.916831 0.000000
Si Si2 0.381587 0.468991 0.434608
Si Si3 0.682529 0.948430 0.500000
Si Si4 0.462458 0.167521 0.307165
Si Si5 0.356788 0.739383 0.435288
Si Si6 0.381253 0.240810 0.393144
Si Si7 0.938893 0.561108 0.374657
O O1 0.537604 0.837002 0.000000
O O2 0.558672 0.941329 0.060479
O O3 0.447936 0.409653 0.417185
O O4 0.383337 0.470889 0.500000
O O5 0.299870 0.435608 0.419624
O O6 0.604824 0.895177 0.500000
O O7 0.731677 0.927183 0.551642
O O8 0.500000 0.183958 0.250000
O O9 0.398534 0.101467 0.297685
O O10 0.426408 0.239769 0.337455
O O11 0.527251 0.136545 0.348345
O O12 0.344591 0.726442 0.500000
O O13 0.325549 0.825549 0.425906
O O14 0.300065 0.684549 0.403161
O O15 0.340551 0.159450 0.390553
O O16 0.000000 0.500000 0.356094
#
# Coordination Sequence:
#
# PCOD9571986 Si02
#       7
#     8  32  16  32  32  32  16
#     4  12  17  20  28  44  60  84 136 192 240 276
#     4   8  14  25  42  67  96 124 156 197 247 297
#     4  10  15  20  28  42  62  89 130 179 226 261
#     4  10  17  23  30  42  63  95 137 187 236 278
#     4   9  15  24  40  63  88 118 154 188 229 286
#     4   9  16  23  32  48  72 101 136 182 223 265
#     4  10  17  20  28  40  56  84 128 182 234 285
#
# _framework density 21.71499
#
# number of rings (size 3 to 8) (size 9 to 14) (size 15 to 20)
#    0.000    2.667    3.810    1.429    0.000    0.000 
#    0.000    0.000    0.000    0.000    4.952    0.000 
#    0.000    1.524    0.000    8.952    0.000    0.381 
#
# Total GULP energy -467850.194079 kJ/mol
# GULP energy per Si atom -5569.645168 kJ/mol
# Density = 2.166557 g / cm^3
# Si number density = 21.714990 Si / 1000 Ang^3
#
#
#
# Elastic Constant Matrix: (Units=GPa)
#
#
# Indices 1 2 3 4 5 6 
#
# 1 78.4829 46.3054 11.6217 0.0000 0.0000 0.0000
# 2 46.3054 78.4824 11.6216 0.0000 0.0000 0.0000
# 3 11.6217 11.6216 103.4489 0.0000 0.0000 0.0000
# 4 0.0000 0.0000 0.0000 3.7273 0.0000 0.0000
# 5 0.0000 0.0000 0.0000 0.0000 3.7274 0.0000
# 6 0.0000 0.0000 0.0000 0.0000 0.0000 46.1610
#
#
#
# Elastic Compliance Matrix: (Units=1/GPa)
#
#
# Indices 1 2 3 4 5 6 
#
# 1 0.019631 -0.011447 -0.000920 0.000000 0.000000 0.000000
# 2 -0.011447 0.019631 -0.000919 0.000000 0.000000 0.000000
# 3 -0.000920 -0.000919 0.009873 0.000000 0.000000 0.000000
# 4 0.000000 0.000000 0.000000 0.268287 0.000000 0.000000
# 5 0.000000 0.000000 0.000000 0.000000 0.268284 0.000000
# 6 0.000000 0.000000 0.000000 0.000000 0.000000 0.021663
#
#
# Mechanical properties :
#
#
# Convention : Reuss Voigt Hill
#
# Bulk Modulus (GPa) = 44.31659 44.39017 44.35338
# Shear Modulus (GPa) = 7.79467 23.44752 15.62110
#
# Velocity S-wave (km/s) = 1.89666 3.28957 2.68502
# Velocity P-wave (km/s) = 5.02484 5.90889 5.48471
#
# Compressibility (1/GPa) = 0.02256491
#
# Stress axis : x y z
#
# Youngs Moduli (GPa) = 50.93900 50.93866 101.28426
#
# Poissons Ratio (x) = 0.58307 0.09313
# Poissons Ratio (y) = 0.58308 0.09313
# Poissons Ratio (z) = 0.04684 0.04684
#
# Static dielectric constant tensor:
#      x y z
#    x 1.905100 0.000000 0.000000 
#    y 0.000000 1.905100 0.000000 
#    z 0.000000 0.000000 1.733250 
# 
# From -- ./inp_files/9716.got.cif
#   From: 2010.05.17/outbox.cif.g08.bks.cpg/sg140_5_cif.got.tgz:9716.got - 2010.06.21 00:45:31.
