data_PCOD9571717
_publ_section_title
;
Structure prediction by ZEFSAII (Michael W. Deem and Ramdas Pophale) SiO2 
 PCOD9571717
Probable space group: I 4/M M M
;
_chemical_formula_sum "Si O2"
_cell_formula_units_Z 160
_cell_length_a 31.071402
_cell_length_b 31.071402
_cell_length_c 7.752442
_cell_angle_alpha 90.000000
_cell_angle_beta 90.000000
_cell_angle_gamma 90.000000
_cell_volume 7484.455757
_symmetry_space_group_name_H-M "I 4/M M M"
_symmetry_group_IT_number 139
_symmetry_cell_setting 'tetragonal'
loop_
_space_group_symop_operation_xyz
x,y,z
-y,x,z
-x,-y,z
y,-x,z
x,-y,-z
-x,y,-z
y,x,-z
-y,-x,-z
-x,-y,-z
y,-x,-z
x,y,-z
-y,x,-z
-x,y,z
x,-y,z
-y,-x,z
y,x,z
1/2+x,1/2+y,1/2+z
1/2-y,1/2+x,1/2+z
1/2-x,1/2-y,1/2+z
1/2+y,1/2-x,1/2+z
1/2+x,1/2-y,1/2-z
1/2-x,1/2+y,1/2-z
1/2+y,1/2+x,1/2-z
1/2-y,1/2-x,1/2-z
1/2-x,1/2-y,1/2-z
1/2+y,1/2-x,1/2-z
1/2+x,1/2+y,1/2-z
1/2-y,1/2+x,1/2-z
1/2-x,1/2+y,1/2+z
1/2+x,1/2-y,1/2+z
1/2-y,1/2-x,1/2+z
1/2+y,1/2+x,1/2+z
loop_
_atom_site_type_symbol
_atom_site_label
_atom_site_fract_x
_atom_site_fract_y
_atom_site_fract_z
Si Si1 0.121456 0.548674 0.207411
Si Si2 0.366893 0.633108 0.289412
Si Si3 0.795820 0.795820 0.208951
Si Si4 0.440635 0.779499 0.804898
Si Si5 0.046303 0.819142 0.794803
Si Si6 0.716206 0.846775 0.794800
O O1 0.106393 0.500000 0.257806
O O2 0.087262 0.587262 0.250000
O O3 0.171957 0.551831 0.271180
O O4 0.124691 0.549899 0.000000
O O5 0.369108 0.630893 0.500000
O O6 0.331216 0.668785 0.247666
O O7 0.412468 0.653629 0.228449
O O8 0.812244 0.750398 0.271821
O O9 0.793389 0.793389 0.000000
O O10 0.453078 0.733079 0.726440
O O11 0.389910 0.775228 0.801282
O O12 0.456316 0.780200 0.000000
O O13 0.000000 0.833856 0.724136
O O14 0.046773 0.826183 0.000000
O O15 0.669191 0.830810 0.750000
O O16 0.721226 0.853010 0.000000
#
# Coordination Sequence:
#
# PCOD9571717 Si02
#       6
#    32  16  16  32  32  32
#     4  10  23  42  61  82 109 141 177 222 278 333
#     4   9  16  33  55  80 114 146 184 233 281 332
#     4   9  17  31  51  71 103 148 185 231 278 318
#     4  11  22  37  57  82 114 149 183 229 281 330
#     4  10  20  35  59  86 112 149 191 230 278 335
#     4  11  21  34  51  75 108 149 193 232 274 327
#
# _framework density 21.377638999999999
#
# number of rings (size 3 to 8) (size 9 to 14) (size 15 to 20)
#    0.000    1.800    2.000    2.700    0.000    5.000 
#    0.000    4.000    0.000    0.300    0.000    2.100 
#    0.000    0.000    0.000    1.800    0.000    2.000 
#
# Total GULP energy -445543.789780 kJ/mol
# GULP energy per Si atom -5569.297372 kJ/mol
# Density = 2.132898 g / cm^3
# Si number density = 21.377639 Si / 1000 Ang^3
#
#
#
# Elastic Constant Matrix: (Units=GPa)
#
#
# Indices 1 2 3 4 5 6 
#
# 1 158.9168 73.8691 4.7534 0.0000 0.0000 0.0000
# 2 73.8691 158.9059 4.7409 0.0000 0.0000 0.0000
# 3 4.7534 4.7409 42.3973 0.0000 0.0000 0.0000
# 4 0.0000 0.0000 0.0000 -2.6230 0.0000 0.0000
# 5 0.0000 0.0000 0.0000 0.0000 -2.6189 0.0000
# 6 0.0000 0.0000 0.0000 0.0000 0.0000 6.2330
#
#
#
# Elastic Compliance Matrix: (Units=1/GPa)
#
#
# Indices 1 2 3 4 5 6 
#
# 1 0.008037 -0.003722 -0.000485 0.000000 0.000000 0.000000
# 2 -0.003722 0.008037 -0.000481 0.000000 0.000000 0.000000
# 3 -0.000485 -0.000481 0.023695 0.000000 0.000000 0.000000
# 4 0.000000 0.000000 0.000000 -0.381240 0.000000 0.000000
# 5 0.000000 0.000000 0.000000 0.000000 -0.381842 0.000000
# 6 0.000000 0.000000 0.000000 0.000000 0.000000 0.160436
#
#
# Mechanical properties :
#
#
# Convention : Reuss Voigt Hill
#
# Bulk Modulus (GPa) = 32.90235 58.54964 45.72599
# Shear Modulus (GPa) = -9.20183 18.65533 4.72675
#
# Velocity S-wave (km/s) = -2.07696 2.95728 1.48858
# Velocity P-wave (km/s) = 3.11010 6.25367 4.93868
#
# Compressibility (1/GPa) = 0.03039297
#
# Stress axis : x y z
#
# Youngs Moduli (GPa) = 124.42410 124.41775 42.20371
#
# Poissons Ratio (x) = 0.46304 0.02047
# Poissons Ratio (y) = 0.46306 0.02032
# Poissons Ratio (z) = 0.06034 0.05991
#
# Static dielectric constant tensor:
#      x y z
#    x 1.781050 0.000000 0.000000 
#    y 0.000000 1.781060 0.000000 
#    z 0.000000 0.000000 1.822480 
# 
# From -- ./inp_files/2182.got.cif
#   From: 2010.05.17/outbox.cif.g08.bks.cpg/sg139_2_cif.got.tgz:2182.got - 2010.05.20 13:14:44.
