data_PCOD9571304
_publ_section_title
;
Structure prediction by ZEFSAII (Michael W. Deem and Ramdas Pophale) SiO2 
 PCOD9571304
Probable space group: I 4/M M M
;
_chemical_formula_sum "Si O2"
_cell_formula_units_Z 192
_cell_length_a 22.196454
_cell_length_b 22.196454
_cell_length_c 25.008398
_cell_angle_alpha 90.000000
_cell_angle_beta 90.000000
_cell_angle_gamma 90.000000
_cell_volume 12321.201803
_symmetry_space_group_name_H-M "I 4/M M M"
_symmetry_group_IT_number 139
_symmetry_cell_setting 'tetragonal'
loop_
_space_group_symop_operation_xyz
x,y,z
-y,x,z
-x,-y,z
y,-x,z
x,-y,-z
-x,y,-z
y,x,-z
-y,-x,-z
-x,-y,-z
y,-x,-z
x,y,-z
-y,x,-z
-x,y,z
x,-y,z
-y,-x,z
y,x,z
1/2+x,1/2+y,1/2+z
1/2-y,1/2+x,1/2+z
1/2-x,1/2-y,1/2+z
1/2+y,1/2-x,1/2+z
1/2+x,1/2-y,1/2-z
1/2-x,1/2+y,1/2-z
1/2+y,1/2+x,1/2-z
1/2-y,1/2-x,1/2-z
1/2-x,1/2-y,1/2-z
1/2+y,1/2-x,1/2-z
1/2+x,1/2+y,1/2-z
1/2-y,1/2+x,1/2-z
1/2-x,1/2+y,1/2+z
1/2+x,1/2-y,1/2+z
1/2-y,1/2-x,1/2+z
1/2+y,1/2+x,1/2+z
loop_
_atom_site_type_symbol
_atom_site_label
_atom_site_fract_x
_atom_site_fract_y
_atom_site_fract_z
Si Si1 0.225606 0.674203 0.436446
Si Si2 0.124533 0.772310 0.559748
Si Si3 0.430024 0.669039 0.841149
Si Si4 0.572703 0.768862 0.761924
Si Si5 0.069296 0.602982 0.690751
Si Si6 0.806929 0.429447 0.356342
O O1 0.230325 0.662024 0.500000
O O2 0.282142 0.717858 0.422037
O O3 0.164847 0.713728 0.428506
O O4 0.218293 0.614316 0.401758
O O5 0.098336 0.767196 0.500000
O O6 0.173420 0.826581 0.558486
O O7 0.078952 0.789611 0.606296
O O8 0.500000 0.655108 0.833920
O O9 0.390180 0.609821 0.846887
O O10 0.406611 0.708976 0.791483
O O11 0.500000 0.766938 0.760724
O O12 0.586786 0.827620 0.797204
O O13 0.591284 0.779457 0.700965
O O14 0.073287 0.573287 0.750000
O O15 0.120751 0.576264 0.652848
O O16 0.000000 0.598818 0.672097
O O17 0.792840 0.500000 0.365125
#
# Coordination Sequence:
#
# PCOD9571304 Si02
#       6
#    32  32  32  32  32  32
#     4   9  18  33  51  68  87 115 152 190 228 272
#     4   8  15  29  47  64  82 108 145 185 221 260
#     4  10  19  30  45  64  88 118 151 191 238 282
#     4   8  16  29  42  61  89 119 152 185 216 256
#     4   9  16  27  44  66  95 129 159 182 208 254
#     4  10  19  29  45  71  98 121 148 185 227 268
#
# _framework density 15.582895000000001
#
# number of rings (size 3 to 8) (size 9 to 14) (size 15 to 20)
#    0.000    3.000    0.000    3.500    0.000    2.667 
#    0.000    0.000    0.000    7.500    0.000    3.500 
#    0.000    0.333    0.000    1.833    0.000    0.000 
#
# Total GULP energy -534439.325496 kJ/mol
# GULP energy per Si atom -5567.076307 kJ/mol
# Density = 1.554743 g / cm^3
# Si number density = 15.582895 Si / 1000 Ang^3
#
#
#
# Elastic Constant Matrix: (Units=GPa)
#
#
# Indices 1 2 3 4 5 6 
#
# 1 71.7813 35.2191 40.9015 0.0000 0.0000 0.0000
# 2 35.2191 71.7813 40.9015 0.0000 0.0000 0.0000
# 3 40.9015 40.9015 60.1333 0.0000 0.0000 0.0000
# 4 0.0000 0.0000 0.0000 19.8765 0.0000 0.0000
# 5 0.0000 0.0000 0.0000 0.0000 19.8765 0.0000
# 6 0.0000 0.0000 0.0000 0.0000 0.0000 14.1739
#
#
#
# Elastic Compliance Matrix: (Units=1/GPa)
#
#
# Indices 1 2 3 4 5 6 
#
# 1 0.023411 -0.003940 -0.013243 0.000000 0.000000 0.000000
# 2 -0.003940 0.023411 -0.013243 0.000000 0.000000 0.000000
# 3 -0.013243 -0.013243 0.034646 0.000000 0.000000 0.000000
# 4 0.000000 0.000000 0.000000 0.050311 0.000000 0.000000
# 5 0.000000 0.000000 0.000000 0.000000 0.050311 0.000000
# 6 0.000000 0.000000 0.000000 0.000000 0.000000 0.070552
#
#
# Mechanical properties :
#
#
# Convention : Reuss Voigt Hill
#
# Bulk Modulus (GPa) = 48.51354 48.63777 48.57566
# Shear Modulus (GPa) = 15.60717 16.56362 16.08540
#
# Velocity S-wave (km/s) = 3.16817 3.26381 3.21635
# Velocity P-wave (km/s) = 6.67707 6.74413 6.71068
#
# Compressibility (1/GPa) = 0.02061280
#
# Stress axis : x y z
#
# Youngs Moduli (GPa) = 42.71565 42.71565 28.86365
#
# Poissons Ratio (x) = 0.16830 0.38226
# Poissons Ratio (y) = 0.16830 0.38226
# Poissons Ratio (z) = 0.56570 0.56570
#
# Static dielectric constant tensor:
#      x y z
#    x 1.523240 0.000000 0.000000 
#    y 0.000000 1.523240 0.000000 
#    z 0.000000 0.000000 1.533100 
# 
# From -- ./inp_files/11894.got.cif
#   From: 2010.05.17/outbox.cif.g08.bks.cpg/sg139_6_cif.got.tgz:11894.got - 2010.05.20 13:14:44.
