data_PCOD9571844
_publ_section_title
;
Structure prediction by ZEFSAII (Michael W. Deem and Ramdas Pophale) SiO2 
 PCOD9571844
Probable space group: I 4/M M M
;
_chemical_formula_sum "Si O2"
_cell_formula_units_Z 160
_cell_length_a 23.310197
_cell_length_b 23.310197
_cell_length_c 14.449899
_cell_angle_alpha 90.000000
_cell_angle_beta 90.000000
_cell_angle_gamma 90.000000
_cell_volume 7851.573476
_symmetry_space_group_name_H-M "I 4/M M M"
_symmetry_group_IT_number 139
_symmetry_cell_setting 'tetragonal'
loop_
_space_group_symop_operation_xyz
x,y,z
-y,x,z
-x,-y,z
y,-x,z
x,-y,-z
-x,y,-z
y,x,-z
-y,-x,-z
-x,-y,-z
y,-x,-z
x,y,-z
-y,x,-z
-x,y,z
x,-y,z
-y,-x,z
y,x,z
1/2+x,1/2+y,1/2+z
1/2-y,1/2+x,1/2+z
1/2-x,1/2-y,1/2+z
1/2+y,1/2-x,1/2+z
1/2+x,1/2-y,1/2-z
1/2-x,1/2+y,1/2-z
1/2+y,1/2+x,1/2-z
1/2-y,1/2-x,1/2-z
1/2-x,1/2-y,1/2-z
1/2+y,1/2-x,1/2-z
1/2+x,1/2+y,1/2-z
1/2-y,1/2+x,1/2-z
1/2-x,1/2+y,1/2+z
1/2+x,1/2-y,1/2+z
1/2-y,1/2-x,1/2+z
1/2+y,1/2+x,1/2+z
loop_
_atom_site_type_symbol
_atom_site_label
_atom_site_fract_x
_atom_site_fract_y
_atom_site_fract_z
Si Si1 0.934296 0.273823 0.109816
Si Si2 0.434729 0.810919 0.895103
Si Si3 0.141144 0.765666 0.273987
Si Si4 0.649204 0.436248 0.109243
Si Si5 0.910459 0.436986 0.644440
O O1 0.886324 0.243407 0.172802
O O2 0.934312 0.341404 0.135135
O O3 0.000000 0.253261 0.128283
O O4 0.923498 0.268297 0.000000
O O5 0.500000 0.794546 0.862072
O O6 0.380608 0.791006 0.831477
O O7 0.433623 0.879449 0.900414
O O8 0.428022 0.788654 0.000000
O O9 0.204913 0.795088 0.272514
O O10 0.103874 0.810900 0.331391
O O11 0.658328 0.500000 0.139104
O O12 0.584469 0.415532 0.122095
O O13 0.661184 0.430883 0.000000
O O14 0.927872 0.500000 0.610068
O O15 0.930402 0.430402 0.750000
#
# Coordination Sequence:
#
# PCOD9571844 Si02
#       5
#    32  32  32  32  32
#     4  10  21  39  63  88 119 159 201 249 307 366
#     4  11  23  39  61  90 125 163 202 245 298 362
#     4  11  22  37  58  83 115 155 207 259 302 351
#     4   9  17  29  48  76 110 148 189 237 295 359
#     4  11  22  39  64  93 125 157 193 239 296 363
#
# _framework density 20.378080000000001
#
# number of rings (size 3 to 8) (size 9 to 14) (size 15 to 20)
#    0.000    1.600    2.000    3.600    0.000    6.000 
#    0.000    4.000    0.000    2.400    0.000    0.000 
#    0.000    0.000    0.000   31.200    0.000    0.200 
#
# Total GULP energy -445855.970392 kJ/mol
# GULP energy per Si atom -5573.199630 kJ/mol
# Density = 2.033170 g / cm^3
# Si number density = 20.378080 Si / 1000 Ang^3
#
#
#
# Elastic Constant Matrix: (Units=GPa)
#
#
# Indices 1 2 3 4 5 6 
#
# 1 91.2314 49.4788 18.2227 0.0000 0.0000 0.0000
# 2 49.4788 91.2314 18.2227 0.0000 0.0000 0.0000
# 3 18.2227 18.2227 91.3037 0.0000 0.0000 0.0000
# 4 0.0000 0.0000 0.0000 27.1726 0.0000 0.0000
# 5 0.0000 0.0000 0.0000 0.0000 27.1726 0.0000
# 6 0.0000 0.0000 0.0000 0.0000 0.0000 14.8624
#
#
#
# Elastic Compliance Matrix: (Units=1/GPa)
#
#
# Indices 1 2 3 4 5 6 
#
# 1 0.015722 -0.008228 -0.001496 0.000000 0.000000 0.000000
# 2 -0.008228 0.015722 -0.001496 0.000000 0.000000 0.000000
# 3 -0.001496 -0.001496 0.011550 0.000000 0.000000 0.000000
# 4 0.000000 0.000000 0.000000 0.036802 0.000000 0.000000
# 5 0.000000 0.000000 0.000000 0.000000 0.036802 0.000000
# 6 0.000000 0.000000 0.000000 0.000000 0.000000 0.067284
#
#
# Mechanical properties :
#
#
# Convention : Reuss Voigt Hill
#
# Bulk Modulus (GPa) = 48.64987 49.51277 49.08132
# Shear Modulus (GPa) = 23.45517 26.36434 24.90975
#
# Velocity S-wave (km/s) = 3.39632 3.60079 3.50005
# Velocity P-wave (km/s) = 6.26940 6.45270 6.36172
#
# Compressibility (1/GPa) = 0.02055504
#
# Stress axis : x y z
#
# Youngs Moduli (GPa) = 63.60347 63.60347 86.58382
#
# Poissons Ratio (x) = 0.52334 0.12951
# Poissons Ratio (y) = 0.52334 0.12951
# Poissons Ratio (z) = 0.09513 0.09513
#
# Static dielectric constant tensor:
#      x y z
#    x 1.761240 0.000000 0.000000 
#    y 0.000000 1.761240 0.000000 
#    z 0.000000 0.000000 1.739450 
# 
# From -- ./inp_files/5929.got.cif
#   From: 2010.05.17/outbox.cif.g08.bks.cpg/sg139_3_cif.got.tgz:5929.got - 2010.05.20 13:14:44.
