data_PCOD9571615
_publ_section_title
;
Structure prediction by ZEFSAII (Michael W. Deem and Ramdas Pophale) SiO2 
 PCOD9571615
Probable space group: I 4/M M M
;
_chemical_formula_sum "Si O2"
_cell_formula_units_Z 160
_cell_length_a 31.005187
_cell_length_b 31.005187
_cell_length_c 10.044354
_cell_angle_alpha 90.000000
_cell_angle_beta 90.000000
_cell_angle_gamma 90.000000
_cell_volume 9655.854668
_symmetry_space_group_name_H-M "I 4/M M M"
_symmetry_group_IT_number 139
_symmetry_cell_setting 'tetragonal'
loop_
_space_group_symop_operation_xyz
x,y,z
-y,x,z
-x,-y,z
y,-x,z
x,-y,-z
-x,y,-z
y,x,-z
-y,-x,-z
-x,-y,-z
y,-x,-z
x,y,-z
-y,x,-z
-x,y,z
x,-y,z
-y,-x,z
y,x,z
1/2+x,1/2+y,1/2+z
1/2-y,1/2+x,1/2+z
1/2-x,1/2-y,1/2+z
1/2+y,1/2-x,1/2+z
1/2+x,1/2-y,1/2-z
1/2-x,1/2+y,1/2-z
1/2+y,1/2+x,1/2-z
1/2-y,1/2-x,1/2-z
1/2-x,1/2-y,1/2-z
1/2+y,1/2-x,1/2-z
1/2+x,1/2+y,1/2-z
1/2-y,1/2+x,1/2-z
1/2-x,1/2+y,1/2+z
1/2+x,1/2-y,1/2+z
1/2-y,1/2-x,1/2+z
1/2+y,1/2+x,1/2+z
loop_
_atom_site_type_symbol
_atom_site_label
_atom_site_fract_x
_atom_site_fract_y
_atom_site_fract_z
Si Si1 0.549538 0.727236 0.657203
Si Si2 0.052442 0.376114 0.000000
Si Si3 0.379632 0.951368 0.500000
Si Si4 0.690336 0.619688 0.153807
Si Si5 0.924256 0.679584 0.744240
Si Si6 0.666189 0.780982 0.155632
O O1 0.561100 0.730389 0.500000
O O2 0.500000 0.712981 0.666029
O O3 0.581921 0.697362 0.740228
O O4 0.553575 0.774635 0.723482
O O5 0.068907 0.349362 0.126598
O O6 0.079131 0.420307 0.000000
O O7 0.000000 0.379747 0.000000
O O8 0.348437 0.943272 0.625058
O O9 0.395152 0.000000 0.500000
O O10 0.647226 0.647226 0.173194
O O11 0.731311 0.651864 0.167618
O O12 0.691808 0.603804 0.000000
O O13 0.875397 0.691860 0.705266
O O14 0.705242 0.794759 0.250000
O O15 0.674617 0.790330 0.000000
#
# Coordination Sequence:
#
# PCOD9571615 Si02
#       6
#    32  16  16  32  32  32
#     4  10  20  35  56  82 108 135 173 217 257 302
#     4  12  24  39  54  68  93 127 159 207 272 330
#     4  12  24  37  54  74  93 121 163 211 264 332
#     4   9  20  37  52  74 110 146 176 211 255 301
#     4  11  22  37  54  76 101 126 160 212 272 320
#     4  10  20  33  52  76 102 133 171 214 254 303
#
# _framework density 16.570257999999999
#
# number of rings (size 3 to 8) (size 9 to 14) (size 15 to 20)
#    0.000    1.600    2.000    3.600    2.800    2.200 
#    0.000    0.000    0.000    2.400    0.000    0.000 
#    0.000    0.400    0.000    4.400    0.000    3.200 
#
# Total GULP energy -446558.645871 kJ/mol
# GULP energy per Si atom -5581.983073 kJ/mol
# Density = 1.653254 g / cm^3
# Si number density = 16.570258 Si / 1000 Ang^3
#
#
#
# Elastic Constant Matrix: (Units=GPa)
#
#
# Indices 1 2 3 4 5 6 
#
# 1 50.6724 37.1872 38.7940 0.0000 0.0000 0.0000
# 2 37.1872 50.6749 38.7940 0.0000 0.0000 0.0000
# 3 38.7940 38.7940 133.4285 0.0000 0.0000 0.0000
# 4 0.0000 0.0000 0.0000 10.3760 0.0000 0.0000
# 5 0.0000 0.0000 0.0000 0.0000 10.3752 0.0000
# 6 0.0000 0.0000 0.0000 0.0000 0.0000 15.1019
#
#
#
# Elastic Compliance Matrix: (Units=1/GPa)
#
#
# Indices 1 2 3 4 5 6 
#
# 1 0.044732 -0.029417 -0.004453 0.000000 0.000000 0.000000
# 2 -0.029417 0.044729 -0.004452 0.000000 0.000000 0.000000
# 3 -0.004453 -0.004452 0.010084 0.000000 0.000000 0.000000
# 4 0.000000 0.000000 0.000000 0.096376 0.000000 0.000000
# 5 0.000000 0.000000 0.000000 0.000000 0.096383 0.000000
# 6 0.000000 0.000000 0.000000 0.000000 0.000000 0.066217
#
#
# Mechanical properties :
#
#
# Convention : Reuss Voigt Hill
#
# Bulk Modulus (GPa) = 43.66596 51.59177 47.62887
# Shear Modulus (GPa) = 11.29179 15.17067 13.23123
#
# Velocity S-wave (km/s) = 2.61329 3.02907 2.82883
# Velocity P-wave (km/s) = 5.95944 6.59063 6.28297
#
# Compressibility (1/GPa) = 0.02290113
#
# Stress axis : x y z
#
# Youngs Moduli (GPa) = 22.35523 22.35663 99.17040
#
# Poissons Ratio (x) = 0.65768 0.44158
# Poissons Ratio (y) = 0.65763 0.44150
# Poissons Ratio (z) = 0.09954 0.09953
#
# Static dielectric constant tensor:
#      x y z
#    x 1.552140 0.000000 0.000000 
#    y 0.000000 1.552140 0.000000 
#    z 0.000000 0.000000 1.538410 
# 
# From -- ./inp_files/2203.got.cif
#   From: 2010.05.17/outbox.cif.g08.bks.cpg/sg139_2_cif.got.tgz:2203.got - 2010.05.20 13:14:44.
