data_PCOD9571296
_publ_section_title
;
Structure prediction by ZEFSAII (Michael W. Deem and Ramdas Pophale) SiO2 
 PCOD9571296
Probable space group: I 4/M M M
;
_chemical_formula_sum "Si O2"
_cell_formula_units_Z 160
_cell_length_a 19.634850
_cell_length_b 19.634850
_cell_length_c 28.164830
_cell_angle_alpha 90.000000
_cell_angle_beta 90.000000
_cell_angle_gamma 90.000000
_cell_volume 10858.311837
_symmetry_space_group_name_H-M "I 4/M M M"
_symmetry_group_IT_number 139
_symmetry_cell_setting 'tetragonal'
loop_
_space_group_symop_operation_xyz
x,y,z
-y,x,z
-x,-y,z
y,-x,z
x,-y,-z
-x,y,-z
y,x,-z
-y,-x,-z
-x,-y,-z
y,-x,-z
x,y,-z
-y,x,-z
-x,y,z
x,-y,z
-y,-x,z
y,x,z
1/2+x,1/2+y,1/2+z
1/2-y,1/2+x,1/2+z
1/2-x,1/2-y,1/2+z
1/2+y,1/2-x,1/2+z
1/2+x,1/2-y,1/2-z
1/2-x,1/2+y,1/2-z
1/2+y,1/2+x,1/2-z
1/2-y,1/2-x,1/2-z
1/2-x,1/2-y,1/2-z
1/2+y,1/2-x,1/2-z
1/2+x,1/2+y,1/2-z
1/2-y,1/2+x,1/2-z
1/2-x,1/2+y,1/2+z
1/2+x,1/2-y,1/2+z
1/2-y,1/2-x,1/2+z
1/2+y,1/2+x,1/2+z
loop_
_atom_site_type_symbol
_atom_site_label
_atom_site_fract_x
_atom_site_fract_y
_atom_site_fract_z
Si Si1 0.190519 0.920762 0.712100
Si Si2 0.300194 0.183825 0.051310
Si Si3 0.921454 0.810556 0.080383
Si Si4 0.422807 0.751496 0.316281
Si Si5 0.326086 0.790341 0.844730
O O1 0.122672 0.877329 0.703136
O O2 0.210478 0.914574 0.767572
O O3 0.250575 0.885378 0.682047
O O4 0.182936 0.000000 0.700676
O O5 0.245049 0.245049 0.050520
O O6 0.254668 0.115961 0.057634
O O7 0.341242 0.195391 0.099773
O O8 0.335475 0.182918 0.000000
O O9 0.876494 0.876494 0.068697
O O10 0.917386 0.796147 0.137108
O O11 0.000000 0.816674 0.066773
O O12 0.500000 0.780379 0.316773
O O13 0.361910 0.805458 0.321148
O O14 0.259237 0.740764 0.842246
#
# Coordination Sequence:
#
# PCOD9571296 Si02
#       5
#    32  32  32  32  32
#     4  10  19  29  43  63  87 115 144 174 209 250
#     4   8  14  25  40  56  73  94 125 171 221 257
#     4   9  16  24  34  51  78 112 147 178 207 241
#     4   9  16  26  41  62  87 113 143 178 212 244
#     4   9  16  27  44  63  82 107 142 180 214 251
#
# _framework density 14.735256
#
# number of rings (size 3 to 8) (size 9 to 14) (size 15 to 20)
#    0.000    3.000    0.000    3.600    0.000    2.400 
#    0.000    0.000    0.000    4.800    0.000    5.600 
#    0.000    0.000    0.000   17.800    0.000    1.600 
#
# Total GULP energy -445338.234566 kJ/mol
# GULP energy per Si atom -5566.727932 kJ/mol
# Density = 1.470172 g / cm^3
# Si number density = 14.735256 Si / 1000 Ang^3
#
#
#
# Elastic Constant Matrix: (Units=GPa)
#
#
# Indices 1 2 3 4 5 6 
#
# 1 66.7608 35.2644 22.8468 0.0000 0.0000 0.0000
# 2 35.2644 66.7608 22.8468 0.0000 0.0000 0.0000
# 3 22.8468 22.8468 56.6606 0.0000 0.0000 0.0000
# 4 0.0000 0.0000 0.0000 6.4009 0.0000 0.0000
# 5 0.0000 0.0000 0.0000 0.0000 6.4009 0.0000
# 6 0.0000 0.0000 0.0000 0.0000 0.0000 10.0763
#
#
#
# Elastic Compliance Matrix: (Units=1/GPa)
#
#
# Indices 1 2 3 4 5 6 
#
# 1 0.021856 -0.009894 -0.004823 0.000000 0.000000 0.000000
# 2 -0.009894 0.021856 -0.004823 0.000000 0.000000 0.000000
# 3 -0.004823 -0.004823 0.021539 0.000000 0.000000 0.000000
# 4 0.000000 0.000000 0.000000 0.156228 0.000000 0.000000
# 5 0.000000 0.000000 0.000000 0.000000 0.156228 0.000000
# 6 0.000000 0.000000 0.000000 0.000000 0.000000 0.099243
#
#
# Mechanical properties :
#
#
# Convention : Reuss Voigt Hill
#
# Bulk Modulus (GPa) = 38.21304 39.12204 38.66754
# Shear Modulus (GPa) = 9.52829 11.85723 10.69276
#
# Velocity S-wave (km/s) = 2.54566 2.83977 2.69673
# Velocity P-wave (km/s) = 5.88471 6.11228 5.99958
#
# Compressibility (1/GPa) = 0.02616908
#
# Stress axis : x y z
#
# Youngs Moduli (GPa) = 45.75475 45.75475 46.42828
#
# Poissons Ratio (x) = 0.45270 0.22393
# Poissons Ratio (y) = 0.45270 0.22393
# Poissons Ratio (z) = 0.22068 0.22068
#
# Static dielectric constant tensor:
#      x y z
#    x 1.470110 0.000000 0.000000 
#    y 0.000000 1.470110 0.000000 
#    z 0.000000 0.000000 1.524450 
# 
# From -- ./inp_files/12897.got.cif
#   From: 2010.05.17/outbox.cif.g08.bks.cpg/sg139_7_cif.got.tgz:12897.got - 2010.05.20 13:14:44.
