data_PCOD9571166
_publ_section_title
;
Structure prediction by ZEFSAII (Michael W. Deem and Ramdas Pophale) SiO2 
 PCOD9571166
Probable space group: I 4/M M M
;
_chemical_formula_sum "Si O2"
_cell_formula_units_Z 160
_cell_length_a 22.945049
_cell_length_b 22.945049
_cell_length_c 17.706454
_cell_angle_alpha 90.000000
_cell_angle_beta 90.000000
_cell_angle_gamma 90.000000
_cell_volume 9322.010214
_symmetry_space_group_name_H-M "I 4/M M M"
_symmetry_group_IT_number 139
_symmetry_cell_setting 'tetragonal'
loop_
_space_group_symop_operation_xyz
x,y,z
-y,x,z
-x,-y,z
y,-x,z
x,-y,-z
-x,y,-z
y,x,-z
-y,-x,-z
-x,-y,-z
y,-x,-z
x,y,-z
-y,x,-z
-x,y,z
x,-y,z
-y,-x,z
y,x,z
1/2+x,1/2+y,1/2+z
1/2-y,1/2+x,1/2+z
1/2-x,1/2-y,1/2+z
1/2+y,1/2-x,1/2+z
1/2+x,1/2-y,1/2-z
1/2-x,1/2+y,1/2-z
1/2+y,1/2+x,1/2-z
1/2-y,1/2-x,1/2-z
1/2-x,1/2-y,1/2-z
1/2+y,1/2-x,1/2-z
1/2+x,1/2+y,1/2-z
1/2-y,1/2+x,1/2-z
1/2-x,1/2+y,1/2+z
1/2+x,1/2-y,1/2+z
1/2-y,1/2-x,1/2+z
1/2+y,1/2+x,1/2+z
loop_
_atom_site_type_symbol
_atom_site_label
_atom_site_fract_x
_atom_site_fract_y
_atom_site_fract_z
Si Si1 0.140008 0.614663 0.091668
Si Si2 0.933791 0.500000 0.091624
Si Si3 0.230304 0.432108 0.410389
Si Si4 0.930742 0.833485 0.203478
Si Si5 0.336904 0.433718 0.000000
Si Si6 0.068245 0.242358 0.352387
O O1 0.100100 0.558970 0.112135
O O2 0.107499 0.674887 0.109437
O O3 0.200674 0.606883 0.134864
O O4 0.149597 0.612352 0.000000
O O5 0.000000 0.500000 0.119945
O O6 0.936095 0.500000 0.000000
O O7 0.240134 0.426653 0.500000
O O8 0.215737 0.500000 0.394450
O O9 0.288633 0.418211 0.364588
O O10 0.889868 0.889868 0.200313
O O11 0.918861 0.796552 0.279531
O O12 0.000000 0.847858 0.202411
O O13 0.297310 0.425662 0.073610
O O14 0.358747 0.500000 0.000000
O O15 0.388928 0.388928 0.000000
O O16 0.000000 0.260611 0.347822
#
# Coordination Sequence:
#
# PCOD9571166 Si02
#       6
#    32  16  32  32  16  32
#     4  10  17  29  52  79 111 151 191 224 263 308
#     4   9  16  24  44  80 114 142 191 245 267 294
#     4   9  19  36  57  81 111 146 180 220 275 330
#     4  10  22  40  61  83 106 135 175 225 282 340
#     4  10  20  33  52  74 104 138 178 228 275 329
#     4  10  19  33  53  79 109 146 183 222 270 320
#
# _framework density 17.163679999999999
#
# number of rings (size 3 to 8) (size 9 to 14) (size 15 to 20)
#    0.000    2.300    2.000    1.200    0.000    3.900 
#    0.000    3.000    0.000    3.600    0.000    2.800 
#    0.000    0.000    0.000    0.000    0.000    0.000 
#
# Total GULP energy -446271.443005 kJ/mol
# GULP energy per Si atom -5578.393038 kJ/mol
# Density = 1.712461 g / cm^3
# Si number density = 17.163680 Si / 1000 Ang^3
#
#
#
# Elastic Constant Matrix: (Units=GPa)
#
#
# Indices 1 2 3 4 5 6 
#
# 1 118.9101 98.9977 47.1659 0.0000 0.0000 0.0000
# 2 98.9977 118.9101 47.1659 0.0000 0.0000 0.0000
# 3 47.1659 47.1659 42.2524 0.0000 0.0000 0.0000
# 4 0.0000 0.0000 0.0000 12.4472 0.0000 0.0000
# 5 0.0000 0.0000 0.0000 0.0000 12.4472 0.0000
# 6 0.0000 0.0000 0.0000 0.0000 0.0000 37.0864
#
#
#
# Elastic Compliance Matrix: (Units=1/GPa)
#
#
# Indices 1 2 3 4 5 6 
#
# 1 0.029550 -0.020670 -0.009913 0.000000 0.000000 0.000000
# 2 -0.020670 0.029550 -0.009913 0.000000 0.000000 0.000000
# 3 -0.009913 -0.009913 0.045799 0.000000 0.000000 0.000000
# 4 0.000000 0.000000 0.000000 0.080340 0.000000 0.000000
# 5 0.000000 0.000000 0.000000 0.000000 0.080340 0.000000
# 6 0.000000 0.000000 0.000000 0.000000 0.000000 0.026964
#
#
# Mechanical properties :
#
#
# Convention : Reuss Voigt Hill
#
# Bulk Modulus (GPa) = 41.82790 74.08129 57.95459
# Shear Modulus (GPa) = 13.10600 18.17902 15.64251
#
# Velocity S-wave (km/s) = 2.76631 3.25800 3.02217
# Velocity P-wave (km/s) = 5.88440 7.57681 6.78359
#
# Compressibility (1/GPa) = 0.02390749
#
# Stress axis : x y z
#
# Youngs Moduli (GPa) = 33.84070 33.84070 21.83436
#
# Poissons Ratio (x) = 0.69948 0.21645
# Poissons Ratio (y) = 0.69948 0.21645
# Poissons Ratio (z) = 0.33547 0.33547
#
# Static dielectric constant tensor:
#      x y z
#    x 1.559250 0.000000 0.000000 
#    y 0.000000 1.559250 0.000000 
#    z 0.000000 0.000000 1.589460 
# 
# From -- ./inp_files/8464.got.cif
#   From: 2010.05.17/outbox.cif.g08.bks.cpg/sg139_5_cif.got.tgz:8464.got - 2010.05.20 13:14:44.
