data_PCOD9571352
_publ_section_title
;
Structure prediction by ZEFSAII (Michael W. Deem and Ramdas Pophale) SiO2 
 PCOD9571352
Probable space group: I 4/M M M
;
_chemical_formula_sum "Si O2"
_cell_formula_units_Z 144
_cell_length_a 17.330018
_cell_length_b 17.330018
_cell_length_c 28.842916
_cell_angle_alpha 90.000000
_cell_angle_beta 90.000000
_cell_angle_gamma 90.000000
_cell_volume 8662.379230
_symmetry_space_group_name_H-M "I 4/M M M"
_symmetry_group_IT_number 139
_symmetry_cell_setting 'tetragonal'
loop_
_space_group_symop_operation_xyz
x,y,z
-y,x,z
-x,-y,z
y,-x,z
x,-y,-z
-x,y,-z
y,x,-z
-y,-x,-z
-x,-y,-z
y,-x,-z
x,y,-z
-y,x,-z
-x,y,z
x,-y,z
-y,-x,z
y,x,z
1/2+x,1/2+y,1/2+z
1/2-y,1/2+x,1/2+z
1/2-x,1/2-y,1/2+z
1/2+y,1/2-x,1/2+z
1/2+x,1/2-y,1/2-z
1/2-x,1/2+y,1/2-z
1/2+y,1/2+x,1/2-z
1/2-y,1/2-x,1/2-z
1/2-x,1/2-y,1/2-z
1/2+y,1/2-x,1/2-z
1/2+x,1/2+y,1/2-z
1/2-y,1/2+x,1/2-z
1/2-x,1/2+y,1/2+z
1/2+x,1/2-y,1/2+z
1/2-y,1/2-x,1/2+z
1/2+y,1/2+x,1/2+z
loop_
_atom_site_type_symbol
_atom_site_label
_atom_site_fract_x
_atom_site_fract_y
_atom_site_fract_z
Si Si1 0.088568 0.784913 0.444727
Si Si2 0.374289 0.500000 0.633890
Si Si3 0.000000 0.301020 0.865314
Si Si4 0.500000 0.289179 0.274014
Si Si5 0.237142 0.361055 0.213565
Si Si6 0.644229 0.910824 0.376366
O O1 0.095019 0.772482 0.500000
O O2 0.149017 0.850984 0.431259
O O3 0.102645 0.706426 0.416866
O O4 0.000000 0.808828 0.434914
O O5 0.424979 0.424979 0.621748
O O6 0.286692 0.500000 0.614804
O O7 0.359303 0.500000 0.689602
O O8 0.000000 0.283953 0.809732
O O9 0.074772 0.350253 0.878291
O O10 0.574571 0.283641 0.241998
O O11 0.295851 0.295851 0.195561
O O12 0.180490 0.319511 0.250000
O O13 0.189305 0.397882 0.171913
O O14 0.617568 0.000000 0.378881
#
# Coordination Sequence:
#
# PCOD9571352 Si02
#       6
#    32  16  16  16  32  32
#     4   9  19  36  58  83 109 138 174 216 262 311
#     4   9  18  33  52  72  98 134 176 219 259 306
#     4  10  22  34  51  74 103 136 177 216 258 310
#     4  10  19  31  46  69 100 136 173 214 254 306
#     4  11  20  31  49  73 102 139 179 215 259 308
#     4  11  21  35  52  75 105 141 177 216 260 308
#
# _framework density 16.623608000000001
#
# number of rings (size 3 to 8) (size 9 to 14) (size 15 to 20)
#    0.667    1.222    3.333    1.667    0.000    2.000 
#    0.000    1.667    0.000    2.667    0.000    0.000 
#    0.000    0.000    0.000    4.889    0.000    0.000 
#
# Total GULP energy -401187.850183 kJ/mol
# GULP energy per Si atom -5572.053475 kJ/mol
# Density = 1.658577 g / cm^3
# Si number density = 16.623608 Si / 1000 Ang^3
#
#
#
# Elastic Constant Matrix: (Units=GPa)
#
#
# Indices 1 2 3 4 5 6 
#
# 1 110.9857 79.3625 29.0944 0.0000 0.0000 0.0000
# 2 79.3625 110.9848 29.0945 0.0000 0.0000 0.0000
# 3 29.0944 29.0945 28.0217 0.0000 0.0000 0.0000
# 4 0.0000 0.0000 0.0000 17.5023 0.0000 0.0000
# 5 0.0000 0.0000 0.0000 0.0000 17.5032 0.0000
# 6 0.0000 0.0000 0.0000 0.0000 0.0000 32.2606
#
#
#
# Elastic Compliance Matrix: (Units=1/GPa)
#
#
# Indices 1 2 3 4 5 6 
#
# 1 0.019659 -0.011963 -0.007991 0.000000 0.000000 0.000000
# 2 -0.011963 0.019660 -0.007991 0.000000 0.000000 0.000000
# 3 -0.007991 -0.007991 0.052281 0.000000 0.000000 0.000000
# 4 0.000000 0.000000 0.000000 0.057135 0.000000 0.000000
# 5 0.000000 0.000000 0.000000 0.000000 0.057132 0.000000
# 6 0.000000 0.000000 0.000000 0.000000 0.000000 0.030998
#
#
# Mechanical properties :
#
#
# Convention : Reuss Voigt Hill
#
# Bulk Modulus (GPa) = 28.00398 58.34388 43.17393
# Shear Modulus (GPa) = 16.41183 20.94930 18.68056
#
# Velocity S-wave (km/s) = 3.14548 3.55380 3.35586
# Velocity P-wave (km/s) = 5.48402 7.21197 6.40652
#
# Compressibility (1/GPa) = 0.03570921
#
# Stress axis : x y z
#
# Youngs Moduli (GPa) = 50.86625 50.86547 19.12758
#
# Poissons Ratio (x) = 0.60851 0.15284
# Poissons Ratio (y) = 0.60852 0.15285
# Poissons Ratio (z) = 0.40646 0.40648
#
# Static dielectric constant tensor:
#      x y z
#    x 1.555320 0.000000 0.000000 
#    y 0.000000 1.555320 0.000000 
#    z 0.000000 0.000000 1.534940 
# 
# From -- ./inp_files/12847.got.cif
#   From: 2010.05.17/outbox.cif.g08.bks.cpg/sg139_7_cif.got.tgz:12847.got - 2010.05.20 13:14:44.
