data_PCOD9571930
_publ_section_title
;
Structure prediction by ZEFSAII (Michael W. Deem and Ramdas Pophale) SiO2 
 PCOD9571930
Probable space group: I 4/M M M
;
_chemical_formula_sum "Si O2"
_cell_formula_units_Z 84
_cell_length_a 15.905090
_cell_length_b 15.905090
_cell_length_c 20.509349
_cell_angle_alpha 90.000000
_cell_angle_beta 90.000000
_cell_angle_gamma 90.000000
_cell_volume 5188.288736
_symmetry_space_group_name_H-M "I 4/M M M"
_symmetry_group_IT_number 139
_symmetry_cell_setting 'tetragonal'
loop_
_space_group_symop_operation_xyz
x,y,z
-y,x,z
-x,-y,z
y,-x,z
x,-y,-z
-x,y,-z
y,x,-z
-y,-x,-z
-x,-y,-z
y,-x,-z
x,y,-z
-y,x,-z
-x,y,z
x,-y,z
-y,-x,z
y,x,z
1/2+x,1/2+y,1/2+z
1/2-y,1/2+x,1/2+z
1/2-x,1/2-y,1/2+z
1/2+y,1/2-x,1/2+z
1/2+x,1/2-y,1/2-z
1/2-x,1/2+y,1/2-z
1/2+y,1/2+x,1/2-z
1/2-y,1/2-x,1/2-z
1/2-x,1/2-y,1/2-z
1/2+y,1/2-x,1/2-z
1/2+x,1/2+y,1/2-z
1/2-y,1/2+x,1/2-z
1/2-x,1/2+y,1/2+z
1/2+x,1/2-y,1/2+z
1/2-y,1/2-x,1/2+z
1/2+y,1/2+x,1/2+z
loop_
_atom_site_type_symbol
_atom_site_label
_atom_site_fract_x
_atom_site_fract_y
_atom_site_fract_z
Si Si1 0.500000 0.500000 0.885126
Si Si2 0.659988 0.199179 0.121536
Si Si3 0.692479 0.500000 0.079178
Si Si4 0.601323 0.898678 0.250000
Si Si5 0.600501 0.099649 0.000000
O O1 0.601646 0.500000 0.890651
O O2 0.745105 0.254896 0.123776
O O3 0.582874 0.260983 0.104347
O O4 0.639336 0.148725 0.187360
O O5 0.650567 0.133820 0.062255
O O6 0.685089 0.500000 0.000000
O O7 0.500000 0.885447 0.252874
O O8 0.500000 0.126593 0.000000
O O9 0.598379 0.000000 0.000000
#
# Coordination Sequence:
#
# PCOD9571930 Si02
#       5
#     4  32  16  16  16
#     4  12  25  32  56  84 120 164 180 229 282 353
#     4  12  22  36  56  82 114 145 189 234 282 339
#     4  12  21  34  52  84 116 145 186 227 280 341
#     4  11  23  40  58  80 111 151 192 240 294 341
#     4  11  21  36  58  84 112 146 185 231 280 333
#
# _framework density 16.19031
#
# number of rings (size 3 to 8) (size 9 to 14) (size 15 to 20)
#    0.000    0.381    7.619    3.143    0.000    3.048 
#    0.000    0.000    0.000    0.000    0.000    0.000 
#    0.000   28.952    0.000    0.000    0.000    0.000 
#
# Total GULP energy -233818.497079 kJ/mol
# GULP energy per Si atom -5567.107073 kJ/mol
# Density = 1.615346 g / cm^3
# Si number density = 16.190310 Si / 1000 Ang^3
#
#
#
# Elastic Constant Matrix: (Units=GPa)
#
#
# Indices 1 2 3 4 5 6 
#
# 1 85.1757 18.7066 15.2330 0.0000 0.0000 0.0000
# 2 18.7066 85.1769 15.2331 0.0000 0.0000 0.0000
# 3 15.2330 15.2331 99.5034 0.0000 0.0000 0.0000
# 4 0.0000 0.0000 0.0000 36.0024 0.0000 0.0000
# 5 0.0000 0.0000 0.0000 0.0000 36.0001 0.0000
# 6 0.0000 0.0000 0.0000 0.0000 0.0000 32.8481
#
#
#
# Elastic Compliance Matrix: (Units=1/GPa)
#
#
# Indices 1 2 3 4 5 6 
#
# 1 0.012562 -0.002483 -0.001543 0.000000 0.000000 0.000000
# 2 -0.002483 0.012562 -0.001543 0.000000 0.000000 0.000000
# 3 -0.001543 -0.001543 0.010522 0.000000 0.000000 0.000000
# 4 0.000000 0.000000 0.000000 0.027776 0.000000 0.000000
# 5 0.000000 0.000000 0.000000 0.000000 0.027778 0.000000
# 6 0.000000 0.000000 0.000000 0.000000 0.000000 0.030443
#
#
# Mechanical properties :
#
#
# Convention : Reuss Voigt Hill
#
# Bulk Modulus (GPa) = 40.80309 40.91128 40.85719
# Shear Modulus (GPa) = 35.47379 35.68235 35.57807
#
# Velocity S-wave (km/s) = 4.68594 4.69970 4.69283
# Velocity P-wave (km/s) = 7.38473 7.40091 7.39282
#
# Compressibility (1/GPa) = 0.02450795
#
# Stress axis : x y z
#
# Youngs Moduli (GPa) = 79.60718 79.60833 95.03595
#
# Poissons Ratio (x) = 0.19766 0.14664
# Poissons Ratio (y) = 0.19765 0.14664
# Poissons Ratio (z) = 0.12283 0.12283
#
# Static dielectric constant tensor:
#      x y z
#    x 1.632620 0.000000 0.000000 
#    y 0.000000 1.632610 0.000000 
#    z 0.000000 0.000000 1.557580 
# 
# From -- ./inp_files/9404.got.cif
#   From: 2010.05.17/outbox.cif.g08.bks.cpg/sg139_5_cif.got.tgz:9404.got - 2010.05.20 13:14:44.
