data_PCOD9571023
_publ_section_title
;
Structure prediction by ZEFSAII (Michael W. Deem and Ramdas Pophale) SiO2 
 PCOD9571023
Probable space group: P 42/N C M
;
_chemical_formula_sum "Si O2"
_cell_formula_units_Z 80
_cell_length_a 10.373456
_cell_length_b 10.373456
_cell_length_c 34.303990
_cell_angle_alpha 90.000000
_cell_angle_beta 90.000000
_cell_angle_gamma 90.000000
_cell_volume 3691.403974
_symmetry_space_group_name_H-M "P 42/N C M"
_symmetry_group_IT_number 138
_space_group.IT_coordinate_system_code '2'
_symmetry_cell_setting 'tetragonal'
loop_
_space_group_symop_operation_xyz
x,y,z
1/2-y,x,1/2+z
1/2-x,1/2-y,z
y,1/2-x,1/2+z
1/2+x,-y,1/2-z
-x,1/2+y,1/2-z
1/2+y,1/2+x,-z
-y,-x,-z
-x,-y,-z
1/2+y,-x,1/2-z
1/2+x,1/2+y,-z
-y,1/2+x,1/2-z
1/2-x,y,1/2+z
x,1/2-y,1/2+z
1/2-y,1/2-x,z
y,x,z
loop_
_atom_site_type_symbol
_atom_site_label
_atom_site_fract_x
_atom_site_fract_y
_atom_site_fract_z
Si Si1 0.502202 0.710450 0.491448
Si Si2 0.041520 0.246428 0.425131
Si Si3 0.369902 0.908400 0.357206
Si Si4 0.911872 0.133325 0.766773
Si Si5 0.243285 0.037814 0.594908
O O1 0.399388 0.600613 0.500000
O O2 0.643609 0.643609 0.489288
O O3 0.496577 0.788015 0.531615
O O4 0.479216 0.762600 0.448346
O O5 0.157423 0.342578 0.415804
O O6 0.104067 0.104067 0.427825
O O7 0.943387 0.264728 0.389981
O O8 0.329845 0.907029 0.312571
O O9 0.438217 0.778168 0.371532
O O10 0.480955 0.019046 0.359437
O O11 0.770568 0.075505 0.755613
O O12 0.027310 0.027310 0.760651
O O13 0.347783 0.152218 0.597575
O O14 0.104288 0.104288 0.597739
#
# Coordination Sequence:
#
# PCOD9571023 Si02
#       5
#    16  16  16  16  16
#     4   9  17  30  45  70 109 147 190 237 278 335
#     4   9  17  31  52  76 106 147 190 236 290 344
#     4   9  19  36  58  84 112 142 192 251 298 365
#     4  10  23  45  69  98 133 167 209 265 329 399
#     4   9  17  31  52  76 106 147 190 236 290 344
#
# _framework density 21.671970000000002
#
# number of rings (size 3 to 8) (size 9 to 14) (size 15 to 20)
#    0.000    2.800    0.000    0.600    0.000    5.200 
#    7.200    8.000    0.000    0.000    0.000    0.000 
#    0.000    0.000    0.000    0.000    0.000    0.000 
#
# Total GULP energy -445944.949210 kJ/mol
# GULP energy per Si atom -5574.311865 kJ/mol
# Density = 2.162264 g / cm^3
# Si number density = 21.671970 Si / 1000 Ang^3
#
#
#
# Elastic Constant Matrix: (Units=GPa)
#
#
# Indices 1 2 3 4 5 6 
#
# 1 30.7190 14.5781 -10.1228 0.0000 0.0000 0.0000
# 2 14.5781 30.7198 -10.1226 0.0000 0.0000 0.0000
# 3 -10.1228 -10.1226 93.2718 0.0000 0.0000 0.0000
# 4 0.0000 0.0000 0.0000 75.1247 0.0000 0.0000
# 5 0.0000 0.0000 0.0000 0.0000 75.1282 0.0000
# 6 0.0000 0.0000 0.0000 0.0000 0.0000 39.1416
#
#
#
# Elastic Compliance Matrix: (Units=1/GPa)
#
#
# Indices 1 2 3 4 5 6 
#
# 1 0.042578 -0.019376 0.002518 0.000000 0.000000 0.000000
# 2 -0.019376 0.042577 0.002518 0.000000 0.000000 0.000000
# 3 0.002518 0.002518 0.011268 0.000000 0.000000 0.000000
# 4 0.000000 0.000000 0.000000 0.013311 0.000000 0.000000
# 5 0.000000 0.000000 0.000000 0.000000 0.013311 0.000000
# 6 0.000000 0.000000 0.000000 0.000000 0.000000 0.025548
#
#
# Mechanical properties :
#
#
# Convention : Reuss Voigt Hill
#
# Bulk Modulus (GPa) = 14.76157 15.93069 15.34613
# Shear Modulus (GPa) = 25.01845 48.57077 36.79461
#
# Velocity S-wave (km/s) = 3.40135 4.73925 4.12490
# Velocity P-wave (km/s) = 4.71718 6.10852 5.45737
#
# Compressibility (1/GPa) = 0.06774346
#
# Stress axis : x y z
#
# Youngs Moduli (GPa) = 23.48639 23.48706 88.74759
#
# Poissons Ratio (x) = 0.45508 -0.22349
# Poissons Ratio (y) = 0.45506 -0.22346
# Poissons Ratio (z) = -0.05914 -0.05914
#
# Static dielectric constant tensor:
#      x y z
#    x 1.873470 0.000000 0.000000 
#    y 0.000000 1.873480 0.000000 
#    z 0.000000 0.000000 1.778320 
# 
# From -- ./inp_files/7841.got.cif
#   From: 2010.05.17/outbox.cif.g08.bks.cpg/sg138_4_cif.got.tgz:7841.got - 2010.05.20 13:08:53.
