data_PCOD9571457
_publ_section_title
;
Structure prediction by ZEFSAII (Michael W. Deem and Ramdas Pophale) SiO2 
 PCOD9571457
Probable space group: I 4/M M M
;
_chemical_formula_sum "Si O2"
_cell_formula_units_Z 144
_cell_length_a 20.741876
_cell_length_b 20.741876
_cell_length_c 19.929686
_cell_angle_alpha 90.000000
_cell_angle_beta 90.000000
_cell_angle_gamma 90.000000
_cell_volume 8574.257530
_symmetry_space_group_name_H-M "I 4/M M M"
_symmetry_group_IT_number 139
_symmetry_cell_setting 'tetragonal'
loop_
_space_group_symop_operation_xyz
x,y,z
-y,x,z
-x,-y,z
y,-x,z
x,-y,-z
-x,y,-z
y,x,-z
-y,-x,-z
-x,-y,-z
y,-x,-z
x,y,-z
-y,x,-z
-x,y,z
x,-y,z
-y,-x,z
y,x,z
1/2+x,1/2+y,1/2+z
1/2-y,1/2+x,1/2+z
1/2-x,1/2-y,1/2+z
1/2+y,1/2-x,1/2+z
1/2+x,1/2-y,1/2-z
1/2-x,1/2+y,1/2-z
1/2+y,1/2+x,1/2-z
1/2-y,1/2-x,1/2-z
1/2-x,1/2-y,1/2-z
1/2+y,1/2-x,1/2-z
1/2+x,1/2+y,1/2-z
1/2-y,1/2+x,1/2-z
1/2-x,1/2+y,1/2+z
1/2+x,1/2-y,1/2+z
1/2-y,1/2-x,1/2+z
1/2+y,1/2+x,1/2+z
loop_
_atom_site_type_symbol
_atom_site_label
_atom_site_fract_x
_atom_site_fract_y
_atom_site_fract_z
Si Si1 0.425103 0.000000 0.918583
Si Si2 0.074052 0.818102 0.157773
Si Si3 0.425869 0.680177 0.815490
Si Si4 0.354291 0.244987 0.075530
Si Si5 0.685806 0.098101 0.078853
O O1 0.378979 0.060104 0.899207
O O2 0.500000 0.000000 0.894595
O O3 0.429312 0.000000 0.000000
O O4 0.127518 0.872482 0.139493
O O5 0.082885 0.803250 0.237044
O O6 0.081368 0.751232 0.117790
O O7 0.000000 0.841691 0.148870
O O8 0.500000 0.664899 0.826537
O O9 0.381423 0.618577 0.829316
O O10 0.402993 0.735348 0.866125
O O11 0.295010 0.295010 0.078913
O O12 0.327804 0.173604 0.085133
O O13 0.382301 0.249558 0.000000
O O14 0.695591 0.082845 0.000000
#
# Coordination Sequence:
#
# PCOD9571457 Si02
#       5
#    16  32  32  32  32
#     4   9  18  32  50  74 101 129 168 214 259 316
#     4  10  20  34  53  77 106 142 182 223 268 316
#     4   9  19  34  51  75 104 136 174 215 262 314
#     4   9  18  32  51  76 102 128 164 212 262 313
#     4  10  19  33  53  76 103 136 175 218 265 314
#
# _framework density 16.794457000000001
#
# number of rings (size 3 to 8) (size 9 to 14) (size 15 to 20)
#    0.000    2.556    1.111    0.667    0.000    4.000 
#    0.000    7.778    0.000    0.000    0.000    4.667 
#    0.000    0.000    0.000    0.000    0.000    0.000 
#
# Total GULP energy -400973.303720 kJ/mol
# GULP energy per Si atom -5569.073663 kJ/mol
# Density = 1.675623 g / cm^3
# Si number density = 16.794457 Si / 1000 Ang^3
#
#
#
# Elastic Constant Matrix: (Units=GPa)
#
#
# Indices 1 2 3 4 5 6 
#
# 1 111.7595 44.2554 52.4929 0.0000 0.0000 0.0000
# 2 44.2554 111.7595 52.4929 0.0000 0.0000 0.0000
# 3 52.4929 52.4929 50.3990 0.0000 0.0000 0.0000
# 4 0.0000 0.0000 0.0000 23.8528 0.0000 0.0000
# 5 0.0000 0.0000 0.0000 0.0000 23.8528 0.0000
# 6 0.0000 0.0000 0.0000 0.0000 0.0000 12.8999
#
#
#
# Elastic Compliance Matrix: (Units=1/GPa)
#
#
# Indices 1 2 3 4 5 6 
#
# 1 0.018121 0.003307 -0.022319 0.000000 0.000000 0.000000
# 2 0.003307 0.018121 -0.022319 0.000000 0.000000 0.000000
# 3 -0.022319 -0.022319 0.066334 0.000000 0.000000 0.000000
# 4 0.000000 0.000000 0.000000 0.041924 0.000000 0.000000
# 5 0.000000 0.000000 0.000000 0.000000 0.041924 0.000000
# 6 0.000000 0.000000 0.000000 0.000000 0.000000 0.077520
#
#
# Mechanical properties :
#
#
# Convention : Reuss Voigt Hill
#
# Bulk Modulus (GPa) = 50.21176 63.60005 56.90590
# Shear Modulus (GPa) = 14.15460 20.43288 17.29374
#
# Velocity S-wave (km/s) = 2.90628 3.49183 3.21242
# Velocity P-wave (km/s) = 6.42064 7.36268 6.90774
#
# Compressibility (1/GPa) = 0.01991565
#
# Stress axis : x y z
#
# Youngs Moduli (GPa) = 55.18418 55.18418 15.07533
#
# Poissons Ratio (x) = -0.18251 0.33646
# Poissons Ratio (y) = -0.18251 0.33646
# Poissons Ratio (z) = 1.23164 1.23164
#
# Static dielectric constant tensor:
#      x y z
#    x 1.557520 0.000000 0.000000 
#    y 0.000000 1.557520 0.000000 
#    z 0.000000 0.000000 1.574550 
# 
# From -- ./inp_files/8193.got.cif
#   From: 2010.05.17/outbox.cif.g08.bks.cpg/sg139_5_cif.got.tgz:8193.got - 2010.05.20 13:14:44.
