data_PCOD9571709
_publ_section_title
;
Structure prediction by ZEFSAII (Michael W. Deem and Ramdas Pophale) SiO2 
 PCOD9571709
Probable space group: I 4/M M M
;
_chemical_formula_sum "Si O2"
_cell_formula_units_Z 80
_cell_length_a 22.497237
_cell_length_b 22.497237
_cell_length_c 7.973573
_cell_angle_alpha 90.000000
_cell_angle_beta 90.000000
_cell_angle_gamma 90.000000
_cell_volume 4035.629998
_symmetry_space_group_name_H-M "I 4/M M M"
_symmetry_group_IT_number 139
_symmetry_cell_setting 'tetragonal'
loop_
_space_group_symop_operation_xyz
x,y,z
-y,x,z
-x,-y,z
y,-x,z
x,-y,-z
-x,y,-z
y,x,-z
-y,-x,-z
-x,-y,-z
y,-x,-z
x,y,-z
-y,x,-z
-x,y,z
x,-y,z
-y,-x,z
y,x,z
1/2+x,1/2+y,1/2+z
1/2-y,1/2+x,1/2+z
1/2-x,1/2-y,1/2+z
1/2+y,1/2-x,1/2+z
1/2+x,1/2-y,1/2-z
1/2-x,1/2+y,1/2-z
1/2+y,1/2+x,1/2-z
1/2-y,1/2-x,1/2-z
1/2-x,1/2-y,1/2-z
1/2+y,1/2-x,1/2-z
1/2+x,1/2+y,1/2-z
1/2-y,1/2+x,1/2-z
1/2-x,1/2+y,1/2+z
1/2+x,1/2-y,1/2+z
1/2-y,1/2-x,1/2+z
1/2+y,1/2+x,1/2+z
loop_
_atom_site_type_symbol
_atom_site_label
_atom_site_fract_x
_atom_site_fract_y
_atom_site_fract_z
Si Si1 0.341004 0.068954 0.200941
Si Si2 0.775488 0.868595 0.689665
Si Si3 0.160139 0.930723 0.000000
O O1 0.405127 0.094874 0.250000
O O2 0.292719 0.113271 0.283309
O O3 0.332436 0.000000 0.252430
O O4 0.333622 0.071539 0.000000
O O5 0.791276 0.886912 0.500000
O O6 0.800983 0.800983 0.706787
O O7 0.808710 0.904461 0.835103
O O8 0.093276 0.906725 0.000000
O O9 0.165894 0.000000 0.000000
#
# Coordination Sequence:
#
# PCOD9571709 Si02
#       3
#    32  32  16
#     4  11  24  41  62  89 122 162 207 255 307 364
#     4  10  21  38  62  91 121 157 200 250 309 364
#     4  10  20  35  56  84 119 157 201 249 298 362
#
# _framework density 19.823422000000001
#
# number of rings (size 3 to 8) (size 9 to 14) (size 15 to 20)
#    0.000    1.600    2.000    2.400    0.000    7.000 
#    0.000    2.000    0.000    0.000    0.000    5.600 
#    0.000    0.000    0.000    0.000    0.000    0.000 
#
# Total GULP energy -223045.138638 kJ/mol
# GULP energy per Si atom -5576.128466 kJ/mol
# Density = 1.977830 g / cm^3
# Si number density = 19.823422 Si / 1000 Ang^3
#
#
#
# Elastic Constant Matrix: (Units=GPa)
#
#
# Indices 1 2 3 4 5 6 
#
# 1 75.5002 82.6985 37.4476 0.0000 0.0000 0.0000
# 2 82.6985 75.5173 37.4480 0.0000 0.0000 0.0000
# 3 37.4476 37.4480 132.4354 0.0000 0.0000 0.0000
# 4 0.0000 0.0000 0.0000 14.8517 0.0000 0.0000
# 5 0.0000 0.0000 0.0000 0.0000 14.8507 0.0000
# 6 0.0000 0.0000 0.0000 0.0000 0.0000 21.7594
#
#
#
# Elastic Compliance Matrix: (Units=1/GPa)
#
#
# Indices 1 2 3 4 5 6 
#
# 1 -0.065904 0.073193 -0.002061 0.000000 0.000000 0.000000
# 2 0.073193 -0.065886 -0.002066 0.000000 0.000000 0.000000
# 3 -0.002061 -0.002066 0.008718 0.000000 0.000000 0.000000
# 4 0.000000 0.000000 0.000000 0.067332 0.000000 0.000000
# 5 0.000000 0.000000 0.000000 0.000000 0.067337 0.000000
# 6 0.000000 0.000000 0.000000 0.000000 0.000000 0.045957
#
#
# Mechanical properties :
#
#
# Convention : Reuss Voigt Hill
#
# Bulk Modulus (GPa) = 66.40483 66.51568 66.46025
# Shear Modulus (GPa) = -66.17493 18.68293 -23.74600
#
# Velocity S-wave (km/s) = -5.78400 3.07329 -3.46479
# Velocity P-wave (km/s) = 3.32195 6.79856 4.19435
#
# Compressibility (1/GPa) = 0.01505915
#
# Stress axis : x y z
#
# Youngs Moduli (GPa) = -15.17368 -15.17762 114.70746
#
# Poissons Ratio (x) = 1.11089 0.23645
# Poissons Ratio (y) = 1.11060 0.23696
# Poissons Ratio (z) = -0.03128 -0.03135
#
# Static dielectric constant tensor:
#      x y z
#    x 1.710920 0.000000 0.000000 
#    y 0.000000 1.710920 0.000000 
#    z 0.000000 0.000000 1.665000 
# 
# From -- ./inp_files/981.got.cif
#   From: 2010.05.17/outbox.cif.g08.bks.cpg/sg139_1_cif.got.tgz:981.got - 2010.05.20 13:14:44.
