data_PCOD9571176
_publ_section_title
;
Structure prediction by ZEFSAII (Michael W. Deem and Ramdas Pophale) SiO2 
 PCOD9571176
Probable space group: I 4/M M M
;
_chemical_formula_sum "Si O2"
_cell_formula_units_Z 144
_cell_length_a 23.142917
_cell_length_b 23.142917
_cell_length_c 18.315851
_cell_angle_alpha 90.000000
_cell_angle_beta 90.000000
_cell_angle_gamma 90.000000
_cell_volume 9809.871023
_symmetry_space_group_name_H-M "I 4/M M M"
_symmetry_group_IT_number 139
_symmetry_cell_setting 'tetragonal'
loop_
_space_group_symop_operation_xyz
x,y,z
-y,x,z
-x,-y,z
y,-x,z
x,-y,-z
-x,y,-z
y,x,-z
-y,-x,-z
-x,-y,-z
y,-x,-z
x,y,-z
-y,x,-z
-x,y,z
x,-y,z
-y,-x,z
y,x,z
1/2+x,1/2+y,1/2+z
1/2-y,1/2+x,1/2+z
1/2-x,1/2-y,1/2+z
1/2+y,1/2-x,1/2+z
1/2+x,1/2-y,1/2-z
1/2-x,1/2+y,1/2-z
1/2+y,1/2+x,1/2-z
1/2-y,1/2-x,1/2-z
1/2-x,1/2-y,1/2-z
1/2+y,1/2-x,1/2-z
1/2+x,1/2+y,1/2-z
1/2-y,1/2+x,1/2-z
1/2-x,1/2+y,1/2+z
1/2+x,1/2-y,1/2+z
1/2-y,1/2-x,1/2+z
1/2+y,1/2+x,1/2+z
loop_
_atom_site_type_symbol
_atom_site_label
_atom_site_fract_x
_atom_site_fract_y
_atom_site_fract_z
Si Si1 0.341473 0.437322 0.000000
Si Si2 0.779055 0.682652 0.912097
Si Si3 0.336213 0.565976 0.287645
Si Si4 0.935049 0.760191 0.358050
Si Si5 0.775767 0.874652 0.082299
O O1 0.302098 0.434054 0.928352
O O2 0.370992 0.500000 0.000000
O O3 0.386091 0.386091 0.000000
O O4 0.723739 0.723739 0.892824
O O5 0.778198 0.621830 0.870557
O O6 0.836965 0.719416 0.898027
O O7 0.775772 0.673620 0.000000
O O8 0.356922 0.500000 0.291993
O O9 0.388717 0.611284 0.286421
O O10 0.298413 0.572123 0.214388
O O11 0.295441 0.580675 0.356622
O O12 0.000000 0.733556 0.355952
O O13 0.826762 0.826762 0.079432
O O14 0.769314 0.898279 0.000000
#
# Coordination Sequence:
#
# PCOD9571176 Si02
#       5
#    16  32  32  32  32
#     4  10  18  27  38  52  76 110 147 183 212 240
#     4   9  15  25  44  64  84 111 141 174 217 269
#     4  10  20  32  45  62  86 115 149 186 219 253
#     4  10  19  28  40  61  87 115 147 181 212 247
#     4   8  16  30  46  65  84 104 135 178 226 270
#
# _framework density 14.679091
#
# number of rings (size 3 to 8) (size 9 to 14) (size 15 to 20)
#    0.000    2.667    1.111    3.333    0.000    1.667 
#    0.000    3.333    0.000    4.000    0.000    3.111 
#    0.000    0.889    0.000    9.778    0.000    7.333 
#
# Total GULP energy -400864.828197 kJ/mol
# GULP energy per Si atom -5567.567058 kJ/mol
# Density = 1.464568 g / cm^3
# Si number density = 14.679091 Si / 1000 Ang^3
#
#
#
# Elastic Constant Matrix: (Units=GPa)
#
#
# Indices 1 2 3 4 5 6 
#
# 1 37.4139 11.7205 29.8100 0.0000 0.0000 0.0000
# 2 11.7205 37.4139 29.8100 0.0000 0.0000 0.0000
# 3 29.8100 29.8100 86.1771 0.0000 0.0000 0.0000
# 4 0.0000 0.0000 0.0000 25.5586 0.0000 0.0000
# 5 0.0000 0.0000 0.0000 0.0000 25.5586 0.0000
# 6 0.0000 0.0000 0.0000 0.0000 0.0000 17.0009
#
#
#
# Elastic Compliance Matrix: (Units=1/GPa)
#
#
# Indices 1 2 3 4 5 6 
#
# 1 0.036997 -0.001923 -0.012133 0.000000 0.000000 0.000000
# 2 -0.001923 0.036997 -0.012133 0.000000 0.000000 0.000000
# 3 -0.012133 -0.012133 0.019998 0.000000 0.000000 0.000000
# 4 0.000000 0.000000 0.000000 0.039126 0.000000 0.000000
# 5 0.000000 0.000000 0.000000 0.000000 0.039126 0.000000
# 6 0.000000 0.000000 0.000000 0.000000 0.000000 0.058820
#
#
# Mechanical properties :
#
#
# Convention : Reuss Voigt Hill
#
# Bulk Modulus (GPa) = 24.02958 33.74289 28.88624
# Shear Modulus (GPa) = 16.81726 19.60124 18.20925
#
# Velocity S-wave (km/s) = 3.38843 3.65816 3.52588
# Velocity P-wave (km/s) = 5.63153 6.39373 6.02470
#
# Compressibility (1/GPa) = 0.04161537
#
# Stress axis : x y z
#
# Youngs Moduli (GPa) = 27.02895 27.02895 50.00544
#
# Poissons Ratio (x) = 0.05198 0.60670
# Poissons Ratio (y) = 0.05198 0.60670
# Poissons Ratio (z) = 0.32794 0.32794
#
# Static dielectric constant tensor:
#      x y z
#    x 1.483920 0.000000 0.000000 
#    y 0.000000 1.483920 0.000000 
#    z 0.000000 0.000000 1.496250 
# 
# From -- ./inp_files/8592.got.cif
#   From: 2010.05.17/outbox.cif.g08.bks.cpg/sg139_5_cif.got.tgz:8592.got - 2010.05.20 13:14:44.
