data_PCOD9571695
_publ_section_title
;
Structure prediction by ZEFSAII (Michael W. Deem and Ramdas Pophale) SiO2 
 PCOD9571695
Probable space group: I 4/M M M
;
_chemical_formula_sum "Si O2"
_cell_formula_units_Z 160
_cell_length_a 20.156810
_cell_length_b 20.156810
_cell_length_c 21.382355
_cell_angle_alpha 90.000000
_cell_angle_beta 90.000000
_cell_angle_gamma 90.000000
_cell_volume 8687.586462
_symmetry_space_group_name_H-M "I 4/M M M"
_symmetry_group_IT_number 139
_symmetry_cell_setting 'tetragonal'
loop_
_space_group_symop_operation_xyz
x,y,z
-y,x,z
-x,-y,z
y,-x,z
x,-y,-z
-x,y,-z
y,x,-z
-y,-x,-z
-x,-y,-z
y,-x,-z
x,y,-z
-y,x,-z
-x,y,z
x,-y,z
-y,-x,z
y,x,z
1/2+x,1/2+y,1/2+z
1/2-y,1/2+x,1/2+z
1/2-x,1/2-y,1/2+z
1/2+y,1/2-x,1/2+z
1/2+x,1/2-y,1/2-z
1/2-x,1/2+y,1/2-z
1/2+y,1/2+x,1/2-z
1/2-y,1/2-x,1/2-z
1/2-x,1/2-y,1/2-z
1/2+y,1/2-x,1/2-z
1/2+x,1/2+y,1/2-z
1/2-y,1/2+x,1/2-z
1/2-x,1/2+y,1/2+z
1/2+x,1/2-y,1/2+z
1/2-y,1/2-x,1/2+z
1/2+y,1/2+x,1/2+z
loop_
_atom_site_type_symbol
_atom_site_label
_atom_site_fract_x
_atom_site_fract_y
_atom_site_fract_z
Si Si1 0.423449 0.311896 0.380774
Si Si2 0.364990 0.251109 0.500000
Si Si3 0.255638 0.856466 0.500000
Si Si4 0.921281 0.810762 0.260407
Si Si5 0.420036 0.926185 0.176098
Si Si6 0.920294 0.712462 0.371384
O O1 0.500000 0.332073 0.385310
O O2 0.375218 0.375218 0.387001
O O3 0.406299 0.262580 0.436997
O O4 0.412483 0.284426 0.310602
O O5 0.308775 0.308775 0.500000
O O6 0.324571 0.183730 0.500000
O O7 0.195779 0.804222 0.500000
O O8 0.255828 0.897602 0.436194
O O9 0.876416 0.876416 0.266370
O O10 0.900255 0.757604 0.312390
O O11 0.000000 0.824715 0.268396
O O12 0.500000 0.929795 0.166664
O O13 0.411916 0.911916 0.250000
O O14 0.395010 0.862905 0.137944
O O15 0.392767 0.000000 0.162201
O O16 0.000000 0.709475 0.370365
#
# Coordination Sequence:
#
# PCOD9571695 Si02
#       6
#    32  16  16  32  32  32
#     4   9  17  31  51  75 106 140 173 211 251 295
#     4   9  19  34  47  64  95 133 170 206 246 291
#     4  11  23  38  54  70  95 135 177 216 262 313
#     4   9  18  32  52  79 108 139 175 214 257 304
#     4   8  15  30  52  77 105 134 162 199 253 314
#     4  10  20  35  55  78 103 131 168 215 263 312
#
# _framework density 18.417082000000001
#
# number of rings (size 3 to 8) (size 9 to 14) (size 15 to 20)
#    0.000    2.800    0.000    1.800    0.000    2.000 
#    0.000    6.500    0.000   10.200    0.000    0.000 
#    0.000    7.200    0.000    0.000    0.000    0.000 
#
# Total GULP energy -445922.939693 kJ/mol
# GULP energy per Si atom -5574.036746 kJ/mol
# Density = 1.837516 g / cm^3
# Si number density = 18.417082 Si / 1000 Ang^3
#
#
#
# Elastic Constant Matrix: (Units=GPa)
#
#
# Indices 1 2 3 4 5 6 
#
# 1 38.8793 26.9865 40.6161 0.0000 0.0000 0.0000
# 2 26.9865 38.8793 40.6160 0.0000 0.0000 0.0000
# 3 40.6161 40.6160 119.7840 0.0000 0.0000 0.0000
# 4 0.0000 0.0000 0.0000 26.3137 0.0000 0.0000
# 5 0.0000 0.0000 0.0000 0.0000 26.3125 0.0000
# 6 0.0000 0.0000 0.0000 0.0000 0.0000 17.9719
#
#
#
# Elastic Compliance Matrix: (Units=1/GPa)
#
#
# Indices 1 2 3 4 5 6 
#
# 1 0.055090 -0.028995 -0.008848 0.000000 0.000000 0.000000
# 2 -0.028995 0.055090 -0.008848 0.000000 0.000000 0.000000
# 3 -0.008848 -0.008848 0.014349 0.000000 0.000000 0.000000
# 4 0.000000 0.000000 0.000000 0.038003 0.000000 0.000000
# 5 0.000000 0.000000 0.000000 0.000000 0.038005 0.000000
# 6 0.000000 0.000000 0.000000 0.000000 0.000000 0.055643
#
#
# Mechanical properties :
#
#
# Convention : Reuss Voigt Hill
#
# Bulk Modulus (GPa) = 32.10715 45.99776 39.05246
# Shear Modulus (GPa) = 13.89108 20.07454 16.98281
#
# Velocity S-wave (km/s) = 2.74934 3.30509 3.03994
# Velocity P-wave (km/s) = 5.24878 6.29243 5.79415
#
# Compressibility (1/GPa) = 0.03114571
#
# Stress axis : x y z
#
# Youngs Moduli (GPa) = 18.15214 18.15223 69.69244
#
# Poissons Ratio (x) = 0.52632 0.61665
# Poissons Ratio (y) = 0.52632 0.61664
# Poissons Ratio (z) = 0.16061 0.16061
#
# Static dielectric constant tensor:
#      x y z
#    x 1.626890 0.000000 0.000000 
#    y 0.000000 1.626890 0.000000 
#    z 0.000000 0.000000 1.633890 
# 
# From -- ./inp_files/8435.got.cif
#   From: 2010.05.17/outbox.cif.g08.bks.cpg/sg139_5_cif.got.tgz:8435.got - 2010.05.20 13:14:44.
