data_PCOD9571131
_publ_section_title
;
Structure prediction by ZEFSAII (Michael W. Deem and Ramdas Pophale) SiO2 
 PCOD9571131
Probable space group: P 42/N C M
;
_chemical_formula_sum "Si O2"
_cell_formula_units_Z 112
_cell_length_a 13.528448
_cell_length_b 13.528448
_cell_length_c 37.441924
_cell_angle_alpha 90.000000
_cell_angle_beta 90.000000
_cell_angle_gamma 90.000000
_cell_volume 6852.579942
_symmetry_space_group_name_H-M "P 42/N C M"
_symmetry_group_IT_number 138
_space_group.IT_coordinate_system_code '2'
_symmetry_cell_setting 'tetragonal'
loop_
_space_group_symop_operation_xyz
x,y,z
1/2-y,x,1/2+z
1/2-x,1/2-y,z
y,1/2-x,1/2+z
1/2+x,-y,1/2-z
-x,1/2+y,1/2-z
1/2+y,1/2+x,-z
-y,-x,-z
-x,-y,-z
1/2+y,-x,1/2-z
1/2+x,1/2+y,-z
-y,1/2+x,1/2-z
1/2-x,y,1/2+z
x,1/2-y,1/2+z
1/2-y,1/2-x,z
y,x,z
loop_
_atom_site_type_symbol
_atom_site_label
_atom_site_fract_x
_atom_site_fract_y
_atom_site_fract_z
Si Si1 0.416225 0.749730 0.608701
Si Si2 0.334020 0.499853 0.820710
Si Si3 0.250000 0.084103 0.750000
Si Si4 0.749731 0.083775 0.891299
Si Si5 0.665979 0.999854 0.320710
Si Si6 0.833688 0.996411 0.539660
Si Si7 0.333688 0.496410 0.539660
O O1 0.479002 0.769852 0.644191
O O2 0.341968 0.841968 0.603945
O O3 0.346588 0.653412 0.613374
O O4 0.480935 0.735048 0.573197
O O5 0.405516 0.405516 0.826373
O O6 0.271142 0.479243 0.785277
O O7 0.406282 0.593717 0.815318
O O8 0.344068 0.155933 0.755627
O O9 0.155933 0.155933 0.744374
O O10 0.271143 0.020756 0.714723
O O11 0.769853 0.020998 0.855809
O O12 0.735048 0.019065 0.926803
O O13 0.594483 0.905518 0.326373
O O14 0.895839 0.895839 0.544097
O O15 0.787258 0.996498 0.500000
O O16 0.915685 0.084315 0.539439
O O17 0.395839 0.395839 0.544097
#
# Coordination Sequence:
#
# PCOD9571131 Si02
#       7
#    16  16  16  16  16  16  16
#     4   9  17  28  43  65  89 111 140 177 212 248
#     4   9  18  32  47  63  87 117 143 170 211 259
#     4   9  18  32  48  65  84 108 142 179 210 246
#     4   9  17  28  43  65  89 111 140 177 212 248
#     4   9  18  32  47  63  87 117 143 170 211 259
#     4   8  14  25  41  62  88 115 142 175 215 254
#     4   8  14  25  41  62  88 115 142 175 215 254
#
# _framework density 16.34421
#
# number of rings (size 3 to 8) (size 9 to 14) (size 15 to 20)
#    0.000    3.286    0.000    0.857    0.000    2.857 
#    0.000    2.857    0.000    0.857    0.000    6.000 
#    0.000    0.000    0.000    0.000    0.000    0.000 
#
# Total GULP energy -623587.065250 kJ/mol
# GULP energy per Si atom -5567.741654 kJ/mol
# Density = 1.630701 g / cm^3
# Si number density = 16.344210 Si / 1000 Ang^3
#
#
#
# Elastic Constant Matrix: (Units=GPa)
#
#
# Indices 1 2 3 4 5 6 
#
# 1 43.1563 17.0501 71.6683 0.0000 0.0000 0.0000
# 2 17.0501 43.1563 71.6683 0.0000 0.0000 0.0000
# 3 71.6683 71.6683 220.1437 0.0000 0.0000 0.0000
# 4 0.0000 0.0000 0.0000 -126.5639 0.0000 0.0000
# 5 0.0000 0.0000 0.0000 0.0000 -126.5639 0.0000
# 6 0.0000 0.0000 0.0000 0.0000 0.0000 -0.1742
#
#
#
# Elastic Compliance Matrix: (Units=1/GPa)
#
#
# Indices 1 2 3 4 5 6 
#
# 1 0.056072 0.017767 -0.024039 0.000000 0.000000 0.000000
# 2 0.017767 0.056072 -0.024039 0.000000 0.000000 0.000000
# 3 -0.024039 -0.024039 0.020194 0.000000 0.000000 0.000000
# 4 0.000000 0.000000 0.000000 -0.007901 0.000000 0.000000
# 5 0.000000 0.000000 0.000000 0.000000 -0.007901 0.000000
# 6 0.000000 0.000000 0.000000 0.000000 0.000000 -5.742018
#
#
# Mechanical properties :
#
#
# Convention : Reuss Voigt Hill
#
# Bulk Modulus (GPa) = 13.94331 69.69222 41.81777
# Shear Modulus (GPa) = -0.90237 -40.92240 -20.91239
#
# Velocity S-wave (km/s) = -0.74384 -5.00921 -3.58089
# Velocity P-wave (km/s) = 2.79496 3.04575 2.92305
#
# Compressibility (1/GPa) = 0.07171896
#
# Stress axis : x y z
#
# Youngs Moduli (GPa) = 17.83406 17.83406 49.51906
#
# Poissons Ratio (x) = -0.31686 1.19038
# Poissons Ratio (y) = -0.31686 1.19038
# Poissons Ratio (z) = 0.42871 0.42871
#
# Static dielectric constant tensor:
#      x y z
#    x 1.542610 0.000000 0.000000 
#    y 0.000000 1.542610 0.000000 
#    z 0.000000 0.000000 1.540100 
# 
# From -- ./inp_files/8227.got.cif
#   From: 2010.05.17/outbox.cif.g08.bks.cpg/sg138_5_cif.got.tgz:8227.got - 2010.05.20 13:08:53.
