data_PCOD9571956
_publ_section_title
;
Structure prediction by ZEFSAII (Michael W. Deem and Ramdas Pophale) SiO2 
 PCOD9571956
Probable space group: I 4/M M M
;
_chemical_formula_sum "Si O2"
_cell_formula_units_Z 192
_cell_length_a 22.026847
_cell_length_b 22.026847
_cell_length_c 31.150667
_cell_angle_alpha 90.000000
_cell_angle_beta 90.000000
_cell_angle_gamma 90.000000
_cell_volume 15113.742566
_symmetry_space_group_name_H-M "I 4/M M M"
_symmetry_group_IT_number 139
_symmetry_cell_setting 'tetragonal'
loop_
_space_group_symop_operation_xyz
x,y,z
-y,x,z
-x,-y,z
y,-x,z
x,-y,-z
-x,y,-z
y,x,-z
-y,-x,-z
-x,-y,-z
y,-x,-z
x,y,-z
-y,x,-z
-x,y,z
x,-y,z
-y,-x,z
y,x,z
1/2+x,1/2+y,1/2+z
1/2-y,1/2+x,1/2+z
1/2-x,1/2-y,1/2+z
1/2+y,1/2-x,1/2+z
1/2+x,1/2-y,1/2-z
1/2-x,1/2+y,1/2-z
1/2+y,1/2+x,1/2-z
1/2-y,1/2-x,1/2-z
1/2-x,1/2-y,1/2-z
1/2+y,1/2-x,1/2-z
1/2+x,1/2+y,1/2-z
1/2-y,1/2+x,1/2-z
1/2-x,1/2+y,1/2+z
1/2+x,1/2-y,1/2+z
1/2-y,1/2-x,1/2+z
1/2+y,1/2+x,1/2+z
loop_
_atom_site_type_symbol
_atom_site_label
_atom_site_fract_x
_atom_site_fract_y
_atom_site_fract_z
Si Si1 0.071834 0.430218 0.107719
Si Si2 0.713089 0.071472 0.748974
Si Si3 0.756205 0.856353 0.878416
Si Si4 0.141255 0.356693 0.320808
Si Si5 0.315305 0.072137 0.949926
Si Si6 0.571510 0.671658 0.693721
O O1 0.085850 0.500000 0.097268
O O2 0.110345 0.406218 0.147936
O O3 0.082479 0.382918 0.069044
O O4 0.000000 0.426398 0.118215
O O5 0.695657 0.109806 0.707075
O O6 0.668586 0.094983 0.786801
O O7 0.780737 0.081176 0.767301
O O8 0.704128 0.000000 0.741719
O O9 0.800438 0.800438 0.888007
O O10 0.698258 0.836345 0.849781
O O11 0.730215 0.889920 0.920148
O O12 0.793692 0.903446 0.848569
O O13 0.302862 0.000000 0.945123
O O14 0.311555 0.087569 0.000000
O O15 0.500000 0.659705 0.689933
O O16 0.611993 0.611993 0.699562
#
# Coordination Sequence:
#
# PCOD9571956 Si02
#       6
#    32  32  32  32  32  32
#     4   9  16  25  37  53  74  99 125 151 177 205
#     4   9  16  25  37  53  74  99 125 151 177 205
#     4   9  17  28  41  56  73  93 117 146 180 216
#     4   9  16  25  37  53  74  99 125 151 177 205
#     4   9  17  28  41  56  73  93 117 146 180 216
#     4   9  17  28  41  56  73  93 117 146 180 216
#
# _framework density 12.703670000000001
#
# number of rings (size 3 to 8) (size 9 to 14) (size 15 to 20)
#    0.000    3.000    0.000    1.500    0.000    5.500 
#    0.000    5.000    0.000    4.000    0.000    0.000 
#    0.000    0.000    0.000   15.500    0.000    0.000 
#
# Total GULP energy -534436.498161 kJ/mol
# GULP energy per Si atom -5567.046856 kJ/mol
# Density = 1.267476 g / cm^3
# Si number density = 12.703670 Si / 1000 Ang^3
#
#
#
# Elastic Constant Matrix: (Units=GPa)
#
#
# Indices 1 2 3 4 5 6 
#
# 1 89.6819 64.4638 53.9522 0.0000 0.0000 0.0000
# 2 64.4638 89.6819 53.9522 0.0000 0.0000 0.0000
# 3 53.9522 53.9522 100.1935 0.0000 0.0000 0.0000
# 4 0.0000 0.0000 0.0000 12.6090 0.0000 0.0000
# 5 0.0000 0.0000 0.0000 0.0000 12.6090 0.0000
# 6 0.0000 0.0000 0.0000 0.0000 0.0000 23.1207
#
#
#
# Elastic Compliance Matrix: (Units=1/GPa)
#
#
# Indices 1 2 3 4 5 6 
#
# 1 0.025033 -0.014621 -0.005607 0.000000 0.000000 0.000000
# 2 -0.014621 0.025033 -0.005607 0.000000 0.000000 0.000000
# 3 -0.005607 -0.005607 0.016019 0.000000 0.000000 0.000000
# 4 0.000000 0.000000 0.000000 0.079308 0.000000 0.000000
# 5 0.000000 0.000000 0.000000 0.000000 0.079308 0.000000
# 6 0.000000 0.000000 0.000000 0.000000 0.000000 0.043251
#
#
# Mechanical properties :
#
#
# Convention : Reuss Voigt Hill
#
# Bulk Modulus (GPa) = 69.36597 69.36597 69.36597
# Shear Modulus (GPa) = 15.41178 16.81371 16.11274
#
# Velocity S-wave (km/s) = 3.48685 3.64198 3.56526
# Velocity P-wave (km/s) = 8.42214 8.50923 8.46580
#
# Compressibility (1/GPa) = 0.01441629
#
# Stress axis : x y z
#
# Youngs Moduli (GPa) = 39.94705 39.94705 62.42620
#
# Poissons Ratio (x) = 0.58406 0.35001
# Poissons Ratio (y) = 0.58406 0.35001
# Poissons Ratio (z) = 0.22397 0.22397
#
# Static dielectric constant tensor:
#      x y z
#    x 1.401030 0.000000 0.000000 
#    y 0.000000 1.401030 0.000000 
#    z 0.000000 0.000000 1.401030 
# 
# From -- ./inp_files/13279.got.cif
#   From: 2010.05.17/outbox.cif.g08.bks.cpg/sg139_7_cif.got.tgz:13279.got - 2010.05.20 13:14:44.
