data_PCOD9571688
_publ_section_title
;
Structure prediction by ZEFSAII (Michael W. Deem and Ramdas Pophale) SiO2 
 PCOD9571688
Probable space group: I 4/M M M
;
_chemical_formula_sum "Si O2"
_cell_formula_units_Z 240
_cell_length_a 27.154941
_cell_length_b 27.154941
_cell_length_c 17.635856
_cell_angle_alpha 90.000000
_cell_angle_beta 90.000000
_cell_angle_gamma 90.000000
_cell_volume 13004.518330
_symmetry_space_group_name_H-M "I 4/M M M"
_symmetry_group_IT_number 139
_symmetry_cell_setting 'tetragonal'
loop_
_space_group_symop_operation_xyz
x,y,z
-y,x,z
-x,-y,z
y,-x,z
x,-y,-z
-x,y,-z
y,x,-z
-y,-x,-z
-x,-y,-z
y,-x,-z
x,y,-z
-y,x,-z
-x,y,z
x,-y,z
-y,-x,z
y,x,z
1/2+x,1/2+y,1/2+z
1/2-y,1/2+x,1/2+z
1/2-x,1/2-y,1/2+z
1/2+y,1/2-x,1/2+z
1/2+x,1/2-y,1/2-z
1/2-x,1/2+y,1/2-z
1/2+y,1/2+x,1/2-z
1/2-y,1/2-x,1/2-z
1/2-x,1/2-y,1/2-z
1/2+y,1/2-x,1/2-z
1/2+x,1/2+y,1/2-z
1/2-y,1/2+x,1/2-z
1/2-x,1/2+y,1/2+z
1/2+x,1/2-y,1/2+z
1/2-y,1/2-x,1/2+z
1/2+y,1/2+x,1/2+z
loop_
_atom_site_type_symbol
_atom_site_label
_atom_site_fract_x
_atom_site_fract_y
_atom_site_fract_z
Si Si1 0.058087 0.202396 0.083022
Si Si2 0.324511 0.247852 0.293848
Si Si3 0.303596 0.892605 0.912395
Si Si4 0.801452 0.117968 0.339803
Si Si5 0.136989 0.058568 0.224517
Si Si6 0.441159 0.786749 0.089396
Si Si7 0.888594 0.406329 0.839052
Si Si8 0.500000 0.941093 0.911185
O O1 0.066897 0.260517 0.094516
O O2 0.076459 0.170467 0.153392
O O3 0.000000 0.193566 0.080041
O O4 0.079522 0.189607 0.000000
O O5 0.293472 0.293472 0.326050
O O6 0.287834 0.212167 0.250000
O O7 0.349791 0.217247 0.359432
O O8 0.360452 0.269386 0.229910
O O9 0.357170 0.905894 0.882276
O O10 0.307202 0.878167 0.000000
O O11 0.836591 0.163410 0.368071
O O12 0.837389 0.078326 0.300703
O O13 0.762883 0.090031 0.393814
O O14 0.084483 0.084483 0.217363
O O15 0.134471 0.000000 0.224270
O O16 0.500000 0.780888 0.106592
O O17 0.418803 0.831897 0.138429
O O18 0.437141 0.799059 0.000000
O O19 0.896368 0.396368 0.750000
O O20 0.919619 0.452406 0.869198
O O21 0.500000 0.000000 0.908478
O O22 0.500000 0.925608 0.000000
#
# Coordination Sequence:
#
# PCOD9571688 Si02
#       8
#    32  32  32  32  32  32  32  16
#     4   9  19  34  52  78 113 149 190 243 301 361
#     4  10  20  35  53  78 117 155 188 234 293 355
#     4  11  21  35  58  84 115 152 197 246 299 362
#     4  10  20  36  58  87 121 157 199 248 306 371
#     4  10  20  35  56  82 117 158 204 256 307 366
#     4  11  23  41  65  90 123 165 209 257 315 377
#     4  12  26  42  65  91 124 158 208 261 310 374
#     4  11  26  48  70  90 124 164 204 266 327 375
#
# _framework density 18.455124000000001
#
# number of rings (size 3 to 8) (size 9 to 14) (size 15 to 20)
#    0.000    1.533    2.000    3.600    0.933    1.467 
#    0.000    2.667    0.000    4.000    0.000    1.867 
#    0.000    0.000    0.000   12.400    0.000    0.000 
#
# Total GULP energy -669533.210426 kJ/mol
# GULP energy per Si atom -5579.443420 kJ/mol
# Density = 1.841312 g / cm^3
# Si number density = 18.455124 Si / 1000 Ang^3
#
#
#
# Elastic Constant Matrix: (Units=GPa)
#
#
# Indices 1 2 3 4 5 6 
#
# 1 84.3609 31.3751 35.2458 0.0000 0.0000 0.0000
# 2 31.3751 84.3616 35.2473 0.0000 0.0000 0.0000
# 3 35.2458 35.2473 83.7547 0.0000 0.0000 0.0000
# 4 0.0000 0.0000 0.0000 30.5219 0.0000 0.0000
# 5 0.0000 0.0000 0.0000 0.0000 30.5179 0.0000
# 6 0.0000 0.0000 0.0000 0.0000 0.0000 20.0210
#
#
#
# Elastic Compliance Matrix: (Units=1/GPa)
#
#
# Indices 1 2 3 4 5 6 
#
# 1 0.015246 -0.003627 -0.004889 0.000000 0.000000 0.000000
# 2 -0.003627 0.015246 -0.004890 0.000000 0.000000 0.000000
# 3 -0.004889 -0.004890 0.016055 0.000000 0.000000 0.000000
# 4 0.000000 0.000000 0.000000 0.032763 0.000000 0.000000
# 5 0.000000 0.000000 0.000000 0.000000 0.032768 0.000000
# 6 0.000000 0.000000 0.000000 0.000000 0.000000 0.049948
#
#
# Mechanical properties :
#
#
# Convention : Reuss Voigt Hill
#
# Bulk Modulus (GPa) = 50.67374 50.69039 50.68206
# Shear Modulus (GPa) = 25.58663 26.25276 25.91969
#
# Velocity S-wave (km/s) = 3.72751 3.77572 3.75169
# Velocity P-wave (km/s) = 6.78551 6.82162 6.80359
#
# Compressibility (1/GPa) = 0.01973409
#
# Stress axis : x y z
#
# Youngs Moduli (GPa) = 65.59301 65.59239 62.28667
#
# Poissons Ratio (x) = 0.23792 0.30453
# Poissons Ratio (y) = 0.23792 0.30455
# Poissons Ratio (z) = 0.32069 0.32072
#
# Static dielectric constant tensor:
#      x y z
#    x 1.643050 0.000000 0.000000 
#    y 0.000000 1.643050 0.000000 
#    z 0.000000 0.000000 1.635490 
# 
# From -- ./inp_files/9058.got.cif
#   From: 2010.05.17/outbox.cif.g08.bks.cpg/sg139_5_cif.got.tgz:9058.got - 2010.05.20 13:14:44.
