data_PCOD9571508
_publ_section_title
;
Structure prediction by ZEFSAII (Michael W. Deem and Ramdas Pophale) SiO2 
 PCOD9571508
Probable space group: I 4/M M M
;
_chemical_formula_sum "Si O2"
_cell_formula_units_Z 160
_cell_length_a 30.737796
_cell_length_b 30.737796
_cell_length_c 9.882870
_cell_angle_alpha 90.000000
_cell_angle_beta 90.000000
_cell_angle_gamma 90.000000
_cell_volume 9337.455188
_symmetry_space_group_name_H-M "I 4/M M M"
_symmetry_group_IT_number 139
_symmetry_cell_setting 'tetragonal'
loop_
_space_group_symop_operation_xyz
x,y,z
-y,x,z
-x,-y,z
y,-x,z
x,-y,-z
-x,y,-z
y,x,-z
-y,-x,-z
-x,-y,-z
y,-x,-z
x,y,-z
-y,x,-z
-x,y,z
x,-y,z
-y,-x,z
y,x,z
1/2+x,1/2+y,1/2+z
1/2-y,1/2+x,1/2+z
1/2-x,1/2-y,1/2+z
1/2+y,1/2-x,1/2+z
1/2+x,1/2-y,1/2-z
1/2-x,1/2+y,1/2-z
1/2+y,1/2+x,1/2-z
1/2-y,1/2-x,1/2-z
1/2-x,1/2-y,1/2-z
1/2+y,1/2-x,1/2-z
1/2+x,1/2+y,1/2-z
1/2-y,1/2+x,1/2-z
1/2-x,1/2+y,1/2+z
1/2+x,1/2-y,1/2+z
1/2-y,1/2-x,1/2+z
1/2+y,1/2+x,1/2+z
loop_
_atom_site_type_symbol
_atom_site_label
_atom_site_fract_x
_atom_site_fract_y
_atom_site_fract_z
Si Si1 0.877283 0.551424 0.500000
Si Si2 0.597632 0.735971 0.339934
Si Si3 0.653029 0.346972 0.656571
Si Si4 0.831803 0.596344 0.749633
Si Si5 0.500000 0.300549 0.655848
Si Si6 0.000000 0.882386 0.334547
Si Si7 0.375826 0.948610 0.500000
Si Si8 0.079213 0.079213 0.839151
O O1 0.884125 0.500000 0.500000
O O2 0.848968 0.567872 0.625097
O O3 0.922330 0.578532 0.500000
O O4 0.606963 0.742746 0.500000
O O5 0.628941 0.696550 0.289476
O O6 0.604383 0.780781 0.261667
O O7 0.546136 0.724107 0.334317
O O8 0.663190 0.336811 0.500000
O O9 0.616078 0.383923 0.656249
O O10 0.858711 0.641290 0.750000
O O11 0.847788 0.568254 0.875036
O O12 0.500000 0.320381 0.500000
O O13 0.500000 0.332951 0.782735
O O14 0.040270 0.902996 0.252911
O O15 0.000000 0.887372 0.500000
O O16 0.382433 0.000000 0.500000
O O17 0.069031 0.069031 0.000000
#
# Coordination Sequence:
#
# PCOD9571508 Si02
#       8
#    16  32  16  32  16  16  16  16
#     4  10  20  35  60  83 107 153 201 238 284 334
#     4  10  19  34  59  87 111 141 194 242 281 339
#     4   9  18  33  59  89 108 134 184 248 291 326
#     4  10  21  37  56  82 116 153 191 237 289 340
#     4  10  20  34  59  89 108 146 195 243 290 350
#     4  12  24  39  57  86 126 156 185 235 307 360
#     4  10  22  37  52  81 123 153 187 238 292 348
#     4  11  21  40  62  82 114 156 203 243 280 343
#
# _framework density 17.135289
#
# number of rings (size 3 to 8) (size 9 to 14) (size 15 to 20)
#    0.000    1.800    3.000    1.800    2.800    0.400 
#    1.800    1.500    0.000    3.600    0.000    0.000 
#    0.000    0.000    0.000    0.000    0.000    0.000 
#
# Total GULP energy -445390.215461 kJ/mol
# GULP energy per Si atom -5567.377693 kJ/mol
# Density = 1.709629 g / cm^3
# Si number density = 17.135289 Si / 1000 Ang^3
#
#
#
# Elastic Constant Matrix: (Units=GPa)
#
#
# Indices 1 2 3 4 5 6 
#
# 1 152.3300 45.9810 40.9808 0.0000 0.0000 0.0000
# 2 45.9810 152.3286 40.9828 0.0000 0.0000 0.0000
# 3 40.9808 40.9828 123.6869 0.0000 0.0000 0.0000
# 4 0.0000 0.0000 0.0000 25.9621 0.0000 0.0000
# 5 0.0000 0.0000 0.0000 0.0000 25.9581 0.0000
# 6 0.0000 0.0000 0.0000 0.0000 0.0000 13.6885
#
#
#
# Elastic Compliance Matrix: (Units=1/GPa)
#
#
# Indices 1 2 3 4 5 6 
#
# 1 0.007623 -0.001780 -0.001936 0.000000 0.000000 0.000000
# 2 -0.001780 0.007623 -0.001936 0.000000 0.000000 0.000000
# 3 -0.001936 -0.001936 0.009368 0.000000 0.000000 0.000000
# 4 0.000000 0.000000 0.000000 0.038518 0.000000 0.000000
# 5 0.000000 0.000000 0.000000 0.000000 0.038524 0.000000
# 6 0.000000 0.000000 0.000000 0.000000 0.000000 0.073054
#
#
# Mechanical properties :
#
#
# Convention : Reuss Voigt Hill
#
# Bulk Modulus (GPa) = 75.13345 76.02607 75.57976
# Shear Modulus (GPa) = 26.25372 33.14847 29.70110
#
# Velocity S-wave (km/s) = 3.91851 4.40308 4.16784
# Velocity P-wave (km/s) = 8.02592 8.38534 8.20760
#
# Compressibility (1/GPa) = 0.01330965
#
# Stress axis : x y z
#
# Youngs Moduli (GPa) = 131.18503 131.18236 106.74870
#
# Poissons Ratio (x) = 0.23353 0.20664
# Poissons Ratio (y) = 0.23353 0.20667
# Poissons Ratio (z) = 0.25395 0.25397
#
# Static dielectric constant tensor:
#      x y z
#    x 1.599970 0.000000 0.000000 
#    y 0.000000 1.599950 0.000000 
#    z 0.000000 0.000000 1.561280 
# 
# From -- ./inp_files/2361.got.cif
#   From: 2010.05.17/outbox.cif.g08.bks.cpg/sg139_2_cif.got.tgz:2361.got - 2010.05.20 13:14:44.
