data_PCOD9571672
_publ_section_title
;
Structure prediction by ZEFSAII (Michael W. Deem and Ramdas Pophale) SiO2 
 PCOD9571672
Probable space group: I 4/M M M
;
_chemical_formula_sum "Si O2"
_cell_formula_units_Z 160
_cell_length_a 22.375062
_cell_length_b 22.375062
_cell_length_c 18.775405
_cell_angle_alpha 90.000000
_cell_angle_beta 90.000000
_cell_angle_gamma 90.000000
_cell_volume 9399.782586
_symmetry_space_group_name_H-M "I 4/M M M"
_symmetry_group_IT_number 139
_symmetry_cell_setting 'tetragonal'
loop_
_space_group_symop_operation_xyz
x,y,z
-y,x,z
-x,-y,z
y,-x,z
x,-y,-z
-x,y,-z
y,x,-z
-y,-x,-z
-x,-y,-z
y,-x,-z
x,y,-z
-y,x,-z
-x,y,z
x,-y,z
-y,-x,z
y,x,z
1/2+x,1/2+y,1/2+z
1/2-y,1/2+x,1/2+z
1/2-x,1/2-y,1/2+z
1/2+y,1/2-x,1/2+z
1/2+x,1/2-y,1/2-z
1/2-x,1/2+y,1/2-z
1/2+y,1/2+x,1/2-z
1/2-y,1/2-x,1/2-z
1/2-x,1/2-y,1/2-z
1/2+y,1/2-x,1/2-z
1/2+x,1/2+y,1/2-z
1/2-y,1/2+x,1/2-z
1/2-x,1/2+y,1/2+z
1/2+x,1/2-y,1/2+z
1/2-y,1/2-x,1/2+z
1/2+y,1/2+x,1/2+z
loop_
_atom_site_type_symbol
_atom_site_label
_atom_site_fract_x
_atom_site_fract_y
_atom_site_fract_z
Si Si1 0.356158 0.880539 0.331238
Si Si2 0.211351 0.000000 0.418805
Si Si3 0.215763 0.569299 0.583970
Si Si4 0.069794 0.832296 0.829038
Si Si5 0.500000 0.856228 0.917647
Si Si6 0.287100 0.614194 0.823929
O O1 0.378823 0.878823 0.250000
O O2 0.386281 0.826126 0.372832
O O3 0.372982 0.940958 0.373502
O O4 0.283891 0.875111 0.330805
O O5 0.283814 0.000000 0.420416
O O6 0.194596 0.939853 0.376602
O O7 0.189608 0.000000 0.500000
O O8 0.209073 0.578230 0.500000
O O9 0.200192 0.500000 0.600988
O O10 0.283750 0.577843 0.608958
O O11 0.109921 0.890079 0.840769
O O12 0.091595 0.801261 0.755801
O O13 0.000000 0.846634 0.822631
O O14 0.500000 0.877555 0.000000
O O15 0.327083 0.672918 0.837413
#
# Coordination Sequence:
#
# PCOD9571672 Si02
#       6
#    32  16  32  32  16  32
#     4  11  21  34  59  85 111 147 189 233 279 335
#     4   9  18  34  54  76 106 147 185 222 274 330
#     4  10  22  39  59  82 113 151 187 228 286 345
#     4  10  20  36  59  84 114 150 190 233 280 334
#     4   9  20  36  55  78 109 145 184 229 276 329
#     4  10  20  34  54  83 113 146 186 231 280 332
#
# _framework density 17.02167
#
# number of rings (size 3 to 8) (size 9 to 14) (size 15 to 20)
#    0.000    2.000    3.000    0.600    1.400    3.000 
#    0.000    0.500    0.000    2.100    0.000    3.500 
#    0.000    0.000    0.000    0.000    0.000    0.000 
#
# Total GULP energy -446295.970218 kJ/mol
# GULP energy per Si atom -5578.699628 kJ/mol
# Density = 1.698293 g / cm^3
# Si number density = 17.021670 Si / 1000 Ang^3
#
#
#
# Elastic Constant Matrix: (Units=GPa)
#
#
# Indices 1 2 3 4 5 6 
#
# 1 102.6123 71.8588 50.8473 0.0000 0.0000 0.0000
# 2 71.8588 102.6123 50.8473 0.0000 0.0000 0.0000
# 3 50.8473 50.8473 96.4928 0.0000 0.0000 0.0000
# 4 0.0000 0.0000 0.0000 15.4126 0.0000 0.0000
# 5 0.0000 0.0000 0.0000 0.0000 15.4126 0.0000
# 6 0.0000 0.0000 0.0000 0.0000 0.0000 -15.7965
#
#
#
# Elastic Compliance Matrix: (Units=1/GPa)
#
#
# Indices 1 2 3 4 5 6 
#
# 1 0.020395 -0.012122 -0.004359 0.000000 0.000000 0.000000
# 2 -0.012122 0.020395 -0.004359 0.000000 0.000000 0.000000
# 3 -0.004359 -0.004359 0.014958 0.000000 0.000000 0.000000
# 4 0.000000 0.000000 0.000000 0.064882 0.000000 0.000000
# 5 0.000000 0.000000 0.000000 0.000000 0.064882 0.000000
# 6 0.000000 0.000000 0.000000 0.000000 0.000000 -0.063305
#
#
# Mechanical properties :
#
#
# Convention : Reuss Voigt Hill
#
# Bulk Modulus (GPa) = 71.09456 72.09157 71.59306
# Shear Modulus (GPa) = 29.66031 11.55000 20.60515
#
# Velocity S-wave (km/s) = 4.17886 2.60772 3.48303
# Velocity P-wave (km/s) = 8.07103 7.17716 7.63719
#
# Compressibility (1/GPa) = 0.01406577
#
# Stress axis : x y z
#
# Youngs Moduli (GPa) = 49.03272 49.03272 66.85530
#
# Poissons Ratio (x) = 0.59438 0.29144
# Poissons Ratio (y) = 0.59438 0.29144
# Poissons Ratio (z) = 0.21374 0.21374
#
# Static dielectric constant tensor:
#      x y z
#    x 1.558870 0.000000 0.000000 
#    y 0.000000 1.558870 0.000000 
#    z 0.000000 0.000000 1.569690 
# 
# From -- ./inp_files/8421.got.cif
#   From: 2010.05.17/outbox.cif.g08.bks.cpg/sg139_5_cif.got.tgz:8421.got - 2010.05.20 13:14:44.
