data_PCOD9571339
_publ_section_title
;
Structure prediction by ZEFSAII (Michael W. Deem and Ramdas Pophale) SiO2 
 PCOD9571339
Probable space group: I 4/M M M
;
_chemical_formula_sum "Si O2"
_cell_formula_units_Z 224
_cell_length_a 22.566557
_cell_length_b 22.566557
_cell_length_c 27.072233
_cell_angle_alpha 90.000000
_cell_angle_beta 90.000000
_cell_angle_gamma 90.000000
_cell_volume 13786.520979
_symmetry_space_group_name_H-M "I 4/M M M"
_symmetry_group_IT_number 139
_symmetry_cell_setting 'tetragonal'
loop_
_space_group_symop_operation_xyz
x,y,z
-y,x,z
-x,-y,z
y,-x,z
x,-y,-z
-x,y,-z
y,x,-z
-y,-x,-z
-x,-y,-z
y,-x,-z
x,y,-z
-y,x,-z
-x,y,z
x,-y,z
-y,-x,z
y,x,z
1/2+x,1/2+y,1/2+z
1/2-y,1/2+x,1/2+z
1/2-x,1/2-y,1/2+z
1/2+y,1/2-x,1/2+z
1/2+x,1/2-y,1/2-z
1/2-x,1/2+y,1/2-z
1/2+y,1/2+x,1/2-z
1/2-y,1/2-x,1/2-z
1/2-x,1/2-y,1/2-z
1/2+y,1/2-x,1/2-z
1/2+x,1/2+y,1/2-z
1/2-y,1/2+x,1/2-z
1/2-x,1/2+y,1/2+z
1/2+x,1/2-y,1/2+z
1/2-y,1/2-x,1/2+z
1/2+y,1/2+x,1/2+z
loop_
_atom_site_type_symbol
_atom_site_label
_atom_site_fract_x
_atom_site_fract_y
_atom_site_fract_z
Si Si1 0.839524 0.740631 0.556620
Si Si2 0.066571 0.428000 0.056686
Si Si3 0.430681 0.167047 0.763932
Si Si4 0.166480 0.931626 0.941099
Si Si5 0.246978 0.653375 0.602176
Si Si6 0.930802 0.680647 0.381084
Si Si7 0.660423 0.244523 0.283200
O O1 0.859410 0.743755 0.500000
O O2 0.796004 0.796004 0.566752
O O3 0.800421 0.681573 0.565456
O O4 0.892783 0.732763 0.594613
O O5 0.064813 0.500000 0.056878
O O6 0.118391 0.411101 0.093999
O O7 0.000000 0.407453 0.069679
O O8 0.079546 0.410097 0.000000
O O9 0.500000 0.157822 0.752050
O O10 0.389382 0.110619 0.750000
O O11 0.424767 0.176367 0.822586
O O12 0.403311 0.225588 0.737875
O O13 0.110411 0.889590 0.928792
O O14 0.225228 0.908958 0.913044
O O15 0.153973 0.000000 0.930446
O O16 0.176848 0.925116 0.000000
O O17 0.302289 0.697712 0.597624
O O18 0.226871 0.659185 0.658989
O O19 0.000000 0.688538 0.393048
O O20 0.689432 0.310569 0.280521
O O21 0.704205 0.204205 0.250000
#
# Coordination Sequence:
#
# PCOD9571339 Si02
#       7
#    32  32  32  32  32  32  32
#     4  10  19  30  47  70  93 118 149 185 228 280
#     4   8  14  26  44  63  82 108 144 180 211 251
#     4  10  21  34  47  66  92 123 159 196 234 279
#     4   9  17  29  45  66  94 127 161 195 229 267
#     4   9  17  30  47  66  90 119 148 184 234 281
#     4  10  20  33  48  66  92 125 155 186 230 278
#     4   9  17  31  51  70  88 114 150 195 242 280
#
# _framework density 16.247754
#
# number of rings (size 3 to 8) (size 9 to 14) (size 15 to 20)
#    0.000    2.714    0.000    3.000    0.000    5.714 
#    0.000    2.857    0.000    2.571    0.000    0.000 
#    0.000    0.571    0.000    4.714    0.000    2.286 
#
# Total GULP energy -623483.548587 kJ/mol
# GULP energy per Si atom -5566.817398 kJ/mol
# Density = 1.621077 g / cm^3
# Si number density = 16.247754 Si / 1000 Ang^3
#
#
#
# Elastic Constant Matrix: (Units=GPa)
#
#
# Indices 1 2 3 4 5 6 
#
# 1 58.9560 32.3186 20.6811 0.0000 0.0000 0.0000
# 2 32.3186 58.9561 20.6806 0.0000 0.0000 0.0000
# 3 20.6811 20.6806 41.2140 0.0000 0.0000 0.0000
# 4 0.0000 0.0000 0.0000 22.1564 0.0000 0.0000
# 5 0.0000 0.0000 0.0000 0.0000 22.1563 0.0000
# 6 0.0000 0.0000 0.0000 0.0000 0.0000 20.1999
#
#
#
# Elastic Compliance Matrix: (Units=1/GPa)
#
#
# Indices 1 2 3 4 5 6 
#
# 1 0.025861 -0.011680 -0.007116 0.000000 0.000000 0.000000
# 2 -0.011680 0.025861 -0.007115 0.000000 0.000000 0.000000
# 3 -0.007116 -0.007115 0.031405 0.000000 0.000000 0.000000
# 4 0.000000 0.000000 0.000000 0.045134 0.000000 0.000000
# 5 0.000000 0.000000 0.000000 0.000000 0.045134 0.000000
# 6 0.000000 0.000000 0.000000 0.000000 0.000000 0.049505
#
#
# Mechanical properties :
#
#
# Convention : Reuss Voigt Hill
#
# Bulk Modulus (GPa) = 31.94573 34.05408 32.99991
# Shear Modulus (GPa) = 17.53421 18.59890 18.06656
#
# Velocity S-wave (km/s) = 3.28865 3.38702 3.33820
# Velocity P-wave (km/s) = 5.84163 6.02500 5.93402
#
# Compressibility (1/GPa) = 0.03130309
#
# Stress axis : x y z
#
# Youngs Moduli (GPa) = 38.66833 38.66879 31.84231
#
# Poissons Ratio (x) = 0.45167 0.22659
# Poissons Ratio (y) = 0.45166 0.22657
# Poissons Ratio (z) = 0.27516 0.27514
#
# Static dielectric constant tensor:
#      x y z
#    x 1.569200 0.000000 0.000000 
#    y 0.000000 1.569200 0.000000 
#    z 0.000000 0.000000 1.551370 
# 
# From -- ./inp_files/12210.got.cif
#   From: 2010.05.17/outbox.cif.g08.bks.cpg/sg139_7_cif.got.tgz:12210.got - 2010.05.20 13:14:44.
