data_PCOD9571473
_publ_section_title
;
Structure prediction by ZEFSAII (Michael W. Deem and Ramdas Pophale) SiO2 
 PCOD9571473
Probable space group: I 4/M M M
;
_chemical_formula_sum "Si O2"
_cell_formula_units_Z 240
_cell_length_a 20.470012
_cell_length_b 20.470012
_cell_length_c 28.014758
_cell_angle_alpha 90.000000
_cell_angle_beta 90.000000
_cell_angle_gamma 90.000000
_cell_volume 11738.782874
_symmetry_space_group_name_H-M "I 4/M M M"
_symmetry_group_IT_number 139
_symmetry_cell_setting 'tetragonal'
loop_
_space_group_symop_operation_xyz
x,y,z
-y,x,z
-x,-y,z
y,-x,z
x,-y,-z
-x,y,-z
y,x,-z
-y,-x,-z
-x,-y,-z
y,-x,-z
x,y,-z
-y,x,-z
-x,y,z
x,-y,z
-y,-x,z
y,x,z
1/2+x,1/2+y,1/2+z
1/2-y,1/2+x,1/2+z
1/2-x,1/2-y,1/2+z
1/2+y,1/2-x,1/2+z
1/2+x,1/2-y,1/2-z
1/2-x,1/2+y,1/2-z
1/2+y,1/2+x,1/2-z
1/2-y,1/2-x,1/2-z
1/2-x,1/2-y,1/2-z
1/2+y,1/2-x,1/2-z
1/2+x,1/2+y,1/2-z
1/2-y,1/2+x,1/2-z
1/2-x,1/2+y,1/2+z
1/2+x,1/2-y,1/2+z
1/2-y,1/2-x,1/2+z
1/2+y,1/2+x,1/2+z
loop_
_atom_site_type_symbol
_atom_site_label
_atom_site_fract_x
_atom_site_fract_y
_atom_site_fract_z
Si Si1 0.877203 0.425850 0.701248
Si Si2 0.800171 0.422363 0.552558
Si Si3 0.183799 0.922375 0.876931
Si Si4 0.677892 0.575555 0.801225
Si Si5 0.075900 0.625068 0.604075
Si Si6 0.730094 0.627622 0.898470
Si Si7 0.359946 0.743083 0.714443
Si Si8 0.179849 0.922793 0.500000
O O1 0.850893 0.500000 0.698400
O O2 0.916525 0.416525 0.750000
O O3 0.919622 0.411303 0.654737
O O4 0.817649 0.374450 0.702465
O O5 0.788473 0.393614 0.500000
O O6 0.791291 0.500000 0.550200
O O7 0.746328 0.400445 0.591142
O O8 0.874628 0.410427 0.568204
O O9 0.120776 0.879225 0.890138
O O10 0.202559 0.904709 0.822609
O O11 0.173727 0.000000 0.882202
O O12 0.681606 0.500000 0.789970
O O13 0.607980 0.607980 0.790810
O O14 0.693403 0.587844 0.856726
O O15 0.728201 0.614878 0.767744
O O16 0.110730 0.695067 0.609818
O O17 0.000000 0.631168 0.589500
O O18 0.701321 0.701321 0.894386
O O19 0.713243 0.603375 0.951697
O O20 0.287567 0.712434 0.709100
O O21 0.107409 0.892592 0.500000
O O22 0.180901 0.000000 0.500000
#
# Coordination Sequence:
#
# PCOD9571473 Si02
#       8
#    32  32  32  32  32  32  32  16
#     4  12  25  41  63  91 128 168 207 253 310 375
#     4  10  23  43  64  88 120 161 209 259 315 378
#     4  10  20  38  64  95 131 171 215 263 317 378
#     4  10  19  33  54  81 115 154 196 242 293 351
#     4  12  25  40  64  93 121 159 206 258 312 373
#     4  10  23  41  60  85 118 155 197 249 308 370
#     4  10  21  38  63  90 120 164 210 254 307 369
#     4  10  20  37  60  84 117 157 195 245 302 360
#
# _framework density 20.445049000000001
#
# number of rings (size 3 to 8) (size 9 to 14) (size 15 to 20)
#    0.000    1.467    1.333    4.000    0.933    3.933 
#    0.000    0.667    0.000    4.800    0.000    1.867 
#    0.000    0.000    0.000    0.000    0.000    0.000 
#
# Total GULP energy -670050.601847 kJ/mol
# GULP energy per Si atom -5583.755015 kJ/mol
# Density = 2.039852 g / cm^3
# Si number density = 20.445049 Si / 1000 Ang^3
#
#
#
# Elastic Constant Matrix: (Units=GPa)
#
#
# Indices 1 2 3 4 5 6 
#
# 1 92.1368 17.3239 25.1074 0.0000 0.0000 0.0000
# 2 17.3239 92.1417 25.1103 0.0000 0.0000 0.0000
# 3 25.1074 25.1103 99.3207 0.0000 0.0000 0.0000
# 4 0.0000 0.0000 0.0000 12.6833 0.0000 0.0000
# 5 0.0000 0.0000 0.0000 0.0000 12.6834 0.0000
# 6 0.0000 0.0000 0.0000 0.0000 0.0000 18.4413
#
#
#
# Elastic Compliance Matrix: (Units=1/GPa)
#
#
# Indices 1 2 3 4 5 6 
#
# 1 0.011850 -0.001516 -0.002612 0.000000 0.000000 0.000000
# 2 -0.001516 0.011850 -0.002613 0.000000 0.000000 0.000000
# 3 -0.002612 -0.002613 0.011389 0.000000 0.000000 0.000000
# 4 0.000000 0.000000 0.000000 0.078844 0.000000 0.000000
# 5 0.000000 0.000000 0.000000 0.000000 0.078843 0.000000
# 6 0.000000 0.000000 0.000000 0.000000 0.000000 0.054226
#
#
# Mechanical properties :
#
#
# Convention : Reuss Voigt Hill
#
# Bulk Modulus (GPa) = 46.28057 46.52026 46.40041
# Shear Modulus (GPa) = 18.67849 23.16543 20.92196
#
# Velocity S-wave (km/s) = 3.02585 3.36974 3.20242
# Velocity P-wave (km/s) = 5.90706 6.15982 6.03477
#
# Compressibility (1/GPa) = 0.02160734
#
# Stress axis : x y z
#
# Youngs Moduli (GPa) = 84.38557 84.38896 87.80168
#
# Poissons Ratio (x) = 0.12794 0.22937
# Poissons Ratio (y) = 0.12794 0.22939
# Poissons Ratio (z) = 0.22045 0.22048
#
# Static dielectric constant tensor:
#      x y z
#    x 1.728030 0.000000 0.000000 
#    y 0.000000 1.728030 0.000000 
#    z 0.000000 0.000000 1.746770 
# 
# From -- ./inp_files/13389.got.cif
#   From: 2010.05.17/outbox.cif.g08.bks.cpg/sg139_7_cif.got.tgz:13389.got - 2010.05.20 13:14:44.
