data_PCOD9571654
_publ_section_title
;
Structure prediction by ZEFSAII (Michael W. Deem and Ramdas Pophale) SiO2 
 PCOD9571654
Probable space group: I 4/M M M
;
_chemical_formula_sum "Si O2"
_cell_formula_units_Z 160
_cell_length_a 29.454263
_cell_length_b 29.454263
_cell_length_c 9.862614
_cell_angle_alpha 90.000000
_cell_angle_beta 90.000000
_cell_angle_gamma 90.000000
_cell_volume 8556.346369
_symmetry_space_group_name_H-M "I 4/M M M"
_symmetry_group_IT_number 139
_symmetry_cell_setting 'tetragonal'
loop_
_space_group_symop_operation_xyz
x,y,z
-y,x,z
-x,-y,z
y,-x,z
x,-y,-z
-x,y,-z
y,x,-z
-y,-x,-z
-x,-y,-z
y,-x,-z
x,y,-z
-y,x,-z
-x,y,z
x,-y,z
-y,-x,z
y,x,z
1/2+x,1/2+y,1/2+z
1/2-y,1/2+x,1/2+z
1/2-x,1/2-y,1/2+z
1/2+y,1/2-x,1/2+z
1/2+x,1/2-y,1/2-z
1/2-x,1/2+y,1/2-z
1/2+y,1/2+x,1/2-z
1/2-y,1/2-x,1/2-z
1/2-x,1/2-y,1/2-z
1/2+y,1/2-x,1/2-z
1/2+x,1/2+y,1/2-z
1/2-y,1/2+x,1/2-z
1/2-x,1/2+y,1/2+z
1/2+x,1/2-y,1/2+z
1/2-y,1/2-x,1/2+z
1/2+y,1/2+x,1/2+z
loop_
_atom_site_type_symbol
_atom_site_label
_atom_site_fract_x
_atom_site_fract_y
_atom_site_fract_z
Si Si1 0.241902 0.318229 0.158195
Si Si2 0.425243 0.500000 0.338260
Si Si3 0.162436 0.000000 0.345278
Si Si4 0.553369 0.103694 0.151835
Si Si5 0.446662 0.180615 0.348005
Si Si6 0.261215 0.575640 0.842923
O O1 0.283811 0.283811 0.183025
O O2 0.200328 0.299672 0.250000
O O3 0.259719 0.369819 0.177922
O O4 0.228752 0.314348 0.000000
O O5 0.456146 0.456146 0.305718
O O6 0.417701 0.500000 0.500000
O O7 0.378633 0.500000 0.258356
O O8 0.193297 0.045509 0.330039
O O9 0.145344 0.000000 0.500000
O O10 0.500000 0.111670 0.136971
O O11 0.561275 0.061275 0.250000
O O12 0.573354 0.144672 0.241395
O O13 0.572374 0.098712 0.000000
O O14 0.427221 0.180787 0.500000
O O15 0.500000 0.169389 0.361317
O O16 0.443021 0.227926 0.271419
O O17 0.245406 0.567620 0.000000
#
# Coordination Sequence:
#
# PCOD9571654 Si02
#       6
#    32  16  16  32  32  32
#     4   9  19  36  56  78 107 144 185 230 279 334
#     4   9  20  40  62  84 118 164 206 245 293 349
#     4  10  21  35  57  90 122 154 195 245 300 359
#     4  10  21  36  54  75 101 134 172 219 271 328
#     4  10  20  34  53  76 103 137 175 217 264 322
#     4  10  20  35  56  82 113 148 184 229 287 344
#
# _framework density 18.699570999999999
#
# number of rings (size 3 to 8) (size 9 to 14) (size 15 to 20)
#    0.000    2.300    1.000    1.500    0.000    5.800 
#    0.000    5.500    0.000    2.400    0.000    0.000 
#    0.000    0.000    0.000    0.000    0.000    0.000 
#
# Total GULP energy -445425.179530 kJ/mol
# GULP energy per Si atom -5567.814744 kJ/mol
# Density = 1.865701 g / cm^3
# Si number density = 18.699571 Si / 1000 Ang^3
#
#
#
# Elastic Constant Matrix: (Units=GPa)
#
#
# Indices 1 2 3 4 5 6 
#
# 1 71.4797 34.7182 56.5784 0.0000 0.0000 0.0000
# 2 34.7182 71.4781 56.5780 0.0000 0.0000 0.0000
# 3 56.5784 56.5780 151.0008 0.0000 0.0000 0.0000
# 4 0.0000 0.0000 0.0000 17.9390 0.0000 0.0000
# 5 0.0000 0.0000 0.0000 0.0000 17.9393 0.0000
# 6 0.0000 0.0000 0.0000 0.0000 0.0000 7.2007
#
#
#
# Elastic Compliance Matrix: (Units=1/GPa)
#
#
# Indices 1 2 3 4 5 6 
#
# 1 0.021438 -0.005764 -0.005873 0.000000 0.000000 0.000000
# 2 -0.005764 0.021439 -0.005873 0.000000 0.000000 0.000000
# 3 -0.005873 -0.005873 0.011024 0.000000 0.000000 0.000000
# 4 0.000000 0.000000 0.000000 0.055745 0.000000 0.000000
# 5 0.000000 0.000000 0.000000 0.000000 0.055744 0.000000
# 6 0.000000 0.000000 0.000000 0.000000 0.000000 0.138876
#
#
# Mechanical properties :
#
#
# Convention : Reuss Voigt Hill
#
# Bulk Modulus (GPa) = 52.96543 65.52310 59.24427
# Shear Modulus (GPa) = 14.46849 18.35472 16.41160
#
# Velocity S-wave (km/s) = 2.78462 3.13638 2.96572
# Velocity P-wave (km/s) = 6.22292 6.94491 6.59381
#
# Compressibility (1/GPa) = 0.01888024
#
# Stress axis : x y z
#
# Youngs Moduli (GPa) = 46.64537 46.64420 90.71487
#
# Poissons Ratio (x) = 0.26887 0.53276
# Poissons Ratio (y) = 0.26888 0.53277
# Poissons Ratio (z) = 0.27394 0.27394
#
# Static dielectric constant tensor:
#      x y z
#    x 1.690160 0.000000 0.000000 
#    y 0.000000 1.690170 0.000000 
#    z 0.000000 0.000000 1.664130 
# 
# From -- ./inp_files/2250.got.cif
#   From: 2010.05.17/outbox.cif.g08.bks.cpg/sg139_2_cif.got.tgz:2250.got - 2010.05.20 13:14:44.
