data_PCOD9571521
_publ_section_title
;
Structure prediction by ZEFSAII (Michael W. Deem and Ramdas Pophale) SiO2 
 PCOD9571521
Probable space group: I 4/M M M
;
_chemical_formula_sum "Si O2"
_cell_formula_units_Z 160
_cell_length_a 29.731525
_cell_length_b 29.731525
_cell_length_c 10.237402
_cell_angle_alpha 90.000000
_cell_angle_beta 90.000000
_cell_angle_gamma 90.000000
_cell_volume 9049.490510
_symmetry_space_group_name_H-M "I 4/M M M"
_symmetry_group_IT_number 139
_symmetry_cell_setting 'tetragonal'
loop_
_space_group_symop_operation_xyz
x,y,z
-y,x,z
-x,-y,z
y,-x,z
x,-y,-z
-x,y,-z
y,x,-z
-y,-x,-z
-x,-y,-z
y,-x,-z
x,y,-z
-y,x,-z
-x,y,z
x,-y,z
-y,-x,z
y,x,z
1/2+x,1/2+y,1/2+z
1/2-y,1/2+x,1/2+z
1/2-x,1/2-y,1/2+z
1/2+y,1/2-x,1/2+z
1/2+x,1/2-y,1/2-z
1/2-x,1/2+y,1/2-z
1/2+y,1/2+x,1/2-z
1/2-y,1/2-x,1/2-z
1/2-x,1/2-y,1/2-z
1/2+y,1/2-x,1/2-z
1/2+x,1/2+y,1/2-z
1/2-y,1/2+x,1/2-z
1/2-x,1/2+y,1/2+z
1/2+x,1/2-y,1/2+z
1/2-y,1/2-x,1/2+z
1/2+y,1/2+x,1/2+z
loop_
_atom_site_type_symbol
_atom_site_label
_atom_site_fract_x
_atom_site_fract_y
_atom_site_fract_z
Si Si1 0.762802 0.834974 0.000000
Si Si2 0.948677 0.653216 0.000000
Si Si3 0.448185 0.448185 0.158789
Si Si4 0.052053 0.304508 0.716383
Si Si5 0.874467 0.874467 0.657494
Si Si6 0.357176 0.897916 0.500000
Si Si7 0.122460 0.229339 0.278526
Si Si8 0.722285 0.824930 0.500000
O O1 0.759367 0.863435 0.868588
O O2 0.810881 0.810881 0.000000
O O3 0.724951 0.796501 0.000000
O O4 0.943721 0.682342 0.868344
O O5 0.908430 0.617516 0.000000
O O6 0.000000 0.634924 0.000000
O O7 0.500000 0.437962 0.198211
O O8 0.411371 0.411371 0.201841
O O9 0.447730 0.447730 0.000000
O O10 0.074059 0.343249 0.627730
O O11 0.078962 0.258907 0.687467
O O12 0.000000 0.299759 0.683882
O O13 0.874404 0.874404 0.500000
O O14 0.823596 0.884729 0.702972
O O15 0.323183 0.855245 0.500000
O O16 0.161362 0.247874 0.375037
#
# Coordination Sequence:
#
# PCOD9571521 Si02
#       8
#    16  16  16  32  16  16  32  16
#     4  12  24  34  52  75 105 148 190 222 258 312
#     4  10  20  35  57  82 108 144 183 223 274 321
#     4   8  16  33  57  84 108 135 176 221 273 339
#     4  10  21  36  57  81 108 143 184 226 267 323
#     4  11  21  35  53  77 114 148 174 223 284 326
#     4  10  19  36  56  81 111 136 181 228 271 320
#     4  11  22  37  52  78 112 144 186 226 269 321
#     4  10  22  35  54  75 105 149 186 226 269 315
#
# _framework density 17.680554000000001
#
# number of rings (size 3 to 8) (size 9 to 14) (size 15 to 20)
#    0.000    1.700    2.000    3.600    1.400    4.800 
#    0.000    0.000    0.000    1.200    0.000    6.300 
#    0.000    3.200    0.000    0.000    0.000    0.000 
#
# Total GULP energy -446587.692944 kJ/mol
# GULP energy per Si atom -5582.346162 kJ/mol
# Density = 1.764031 g / cm^3
# Si number density = 17.680554 Si / 1000 Ang^3
#
#
#
# Elastic Constant Matrix: (Units=GPa)
#
#
# Indices 1 2 3 4 5 6 
#
# 1 39.2476 163.6486 19.9688 0.0000 0.0000 0.0000
# 2 163.6486 39.2476 19.9688 0.0000 0.0000 0.0000
# 3 19.9688 19.9688 80.0790 0.0000 0.0000 0.0000
# 4 0.0000 0.0000 0.0000 14.9169 0.0000 0.0000
# 5 0.0000 0.0000 0.0000 0.0000 14.9169 0.0000
# 6 0.0000 0.0000 0.0000 0.0000 0.0000 28.7976
#
#
#
# Elastic Compliance Matrix: (Units=1/GPa)
#
#
# Indices 1 2 3 4 5 6 
#
# 1 -0.001428 0.006611 -0.001292 0.000000 0.000000 0.000000
# 2 0.006611 -0.001428 -0.001292 0.000000 0.000000 0.000000
# 3 -0.001292 -0.001292 0.013132 0.000000 0.000000 0.000000
# 4 0.000000 0.000000 0.000000 0.067038 0.000000 0.000000
# 5 0.000000 0.000000 0.000000 0.000000 0.067038 0.000000
# 6 0.000000 0.000000 0.000000 0.000000 0.000000 0.034725
#
#
# Mechanical properties :
#
#
# Convention : Reuss Voigt Hill
#
# Bulk Modulus (GPa) = 54.55989 62.86072 58.71030
# Shear Modulus (GPa) = 28.22686 8.72545 18.47616
#
# Velocity S-wave (km/s) = 3.99995 2.22391 3.23615
# Velocity P-wave (km/s) = 7.22900 6.49809 6.87327
#
# Compressibility (1/GPa) = 0.01832848
#
# Stress axis : x y z
#
# Youngs Moduli (GPa) = -700.40635 -700.40635 76.14835
#
# Poissons Ratio (x) = 4.63023 0.09842
# Poissons Ratio (y) = 4.63023 0.09842
# Poissons Ratio (z) = -0.90525 -0.90525
#
# Static dielectric constant tensor:
#      x y z
#    x 1.590020 0.000000 0.000000 
#    y 0.000000 1.590020 0.000000 
#    z 0.000000 0.000000 1.639320 
# 
# From -- ./inp_files/2355.got.cif
#   From: 2010.05.17/outbox.cif.g08.bks.cpg/sg139_2_cif.got.tgz:2355.got - 2010.05.20 13:14:44.
