data_PCOD9571357
_publ_section_title
;
Structure prediction by ZEFSAII (Michael W. Deem and Ramdas Pophale) SiO2 
 PCOD9571357
Probable space group: I 4/M M M
;
_chemical_formula_sum "Si O2"
_cell_formula_units_Z 144
_cell_length_a 19.784544
_cell_length_b 19.784544
_cell_length_c 22.602546
_cell_angle_alpha 90.000000
_cell_angle_beta 90.000000
_cell_angle_gamma 90.000000
_cell_volume 8847.273473
_symmetry_space_group_name_H-M "I 4/M M M"
_symmetry_group_IT_number 139
_symmetry_cell_setting 'tetragonal'
loop_
_space_group_symop_operation_xyz
x,y,z
-y,x,z
-x,-y,z
y,-x,z
x,-y,-z
-x,y,-z
y,x,-z
-y,-x,-z
-x,-y,-z
y,-x,-z
x,y,-z
-y,x,-z
-x,y,z
x,-y,z
-y,-x,z
y,x,z
1/2+x,1/2+y,1/2+z
1/2-y,1/2+x,1/2+z
1/2-x,1/2-y,1/2+z
1/2+y,1/2-x,1/2+z
1/2+x,1/2-y,1/2-z
1/2-x,1/2+y,1/2-z
1/2+y,1/2+x,1/2-z
1/2-y,1/2-x,1/2-z
1/2-x,1/2-y,1/2-z
1/2+y,1/2-x,1/2-z
1/2+x,1/2+y,1/2-z
1/2-y,1/2+x,1/2-z
1/2-x,1/2+y,1/2+z
1/2+x,1/2-y,1/2+z
1/2-y,1/2-x,1/2+z
1/2+y,1/2+x,1/2+z
loop_
_atom_site_type_symbol
_atom_site_label
_atom_site_fract_x
_atom_site_fract_y
_atom_site_fract_z
Si Si1 0.657934 0.229669 0.836208
Si Si2 0.808824 0.077512 0.755110
Si Si3 0.241052 0.873077 0.877141
Si Si4 0.077836 0.806056 0.000000
Si Si5 0.422026 0.685790 0.929985
O O1 0.722364 0.277637 0.822287
O O2 0.607888 0.245476 0.781931
O O3 0.688201 0.157286 0.853415
O O4 0.620151 0.260205 0.893062
O O5 0.872793 0.127207 0.743289
O O6 0.790746 0.083319 0.824283
O O7 0.822110 0.000000 0.738934
O O8 0.191414 0.808587 0.884479
O O9 0.237637 0.908460 0.940695
O O10 0.130348 0.869653 0.000000
O O11 0.000000 0.829163 0.000000
O O12 0.500000 0.685473 0.912722
O O13 0.385948 0.614053 0.918718
O O14 0.417281 0.699180 0.000000
#
# Coordination Sequence:
#
# PCOD9571357 Si02
#       5
#    32  32  32  16  32
#     4   9  17  29  46  65  89 122 159 198 242 277
#     4  10  19  31  47  69  99 131 161 193 230 281
#     4   9  18  31  48  68  93 126 162 201 243 278
#     4  10  20  33  50  74 103 133 162 192 228 278
#     4   9  17  27  40  61  91 124 157 192 229 278
#
# _framework density 16.276201
#
# number of rings (size 3 to 8) (size 9 to 14) (size 15 to 20)
#    0.000    2.667    0.000    2.000    1.556    3.222 
#    0.000    1.111    0.000    8.000    0.000    0.000 
#    0.000   40.000    0.000    0.000    0.000    0.000 
#
# Total GULP energy -400824.154935 kJ/mol
# GULP energy per Si atom -5567.002152 kJ/mol
# Density = 1.623916 g / cm^3
# Si number density = 16.276201 Si / 1000 Ang^3
#
#
#
# Elastic Constant Matrix: (Units=GPa)
#
#
# Indices 1 2 3 4 5 6 
#
# 1 41.9882 42.2499 28.9757 0.0000 0.0000 0.0000
# 2 42.2499 41.9869 28.9752 0.0000 0.0000 0.0000
# 3 28.9757 28.9752 88.8043 0.0000 0.0000 0.0000
# 4 0.0000 0.0000 0.0000 11.2387 0.0000 0.0000
# 5 0.0000 0.0000 0.0000 0.0000 11.2388 0.0000
# 6 0.0000 0.0000 0.0000 0.0000 0.0000 10.3666
#
#
#
# Elastic Compliance Matrix: (Units=1/GPa)
#
#
# Indices 1 2 3 4 5 6 
#
# 1 -1.898068 1.913406 -0.004995 -0.000001 0.000000 0.000000
# 2 1.913406 -1.898129 -0.004994 0.000001 0.000000 0.000000
# 3 -0.004995 -0.004994 0.014520 0.000000 0.000000 0.000000
# 4 -0.000001 0.000001 0.000000 0.088979 0.000000 0.000000
# 5 0.000000 0.000000 0.000000 0.000000 0.088978 0.000000
# 6 0.000000 0.000000 0.000000 0.000000 0.000000 0.096464
#
#
# Mechanical properties :
#
#
# Convention : Reuss Voigt Hill
#
# Bulk Modulus (GPa) = 39.75145 41.46457 40.60801
# Shear Modulus (GPa) = -0.68440 11.40737 5.36149
#
# Velocity S-wave (km/s) = -0.64915 2.65025 1.81693
# Velocity P-wave (km/s) = 4.89022 5.90728 5.42265
#
# Compressibility (1/GPa) = 0.02515631
#
# Stress axis : x y z
#
# Youngs Moduli (GPa) = -0.52685 -0.52683 68.87066
#
# Poissons Ratio (x) = 1.00805 0.34400
# Poissons Ratio (y) = 1.00808 0.34395
# Poissons Ratio (z) = -0.00263 -0.00263
#
# Static dielectric constant tensor:
#      x y z
#    x 1.543320 0.000000 0.000000 
#    y 0.000000 1.543320 0.000000 
#    z 0.000000 0.000000 1.587160 
# 
# From -- ./inp_files/10231.got.cif
#   From: 2010.05.17/outbox.cif.g08.bks.cpg/sg139_6_cif.got.tgz:10231.got - 2010.05.20 13:14:44.
