data_PCOD9571188
_publ_section_title
;
Structure prediction by ZEFSAII (Michael W. Deem and Ramdas Pophale) SiO2 
 PCOD9571188
Probable space group: I 4/M M M
;
_chemical_formula_sum "Si O2"
_cell_formula_units_Z 160
_cell_length_a 33.789581
_cell_length_b 33.789581
_cell_length_c 7.517384
_cell_angle_alpha 90.000000
_cell_angle_beta 90.000000
_cell_angle_gamma 90.000000
_cell_volume 8582.866316
_symmetry_space_group_name_H-M "I 4/M M M"
_symmetry_group_IT_number 139
_symmetry_cell_setting 'tetragonal'
loop_
_space_group_symop_operation_xyz
x,y,z
-y,x,z
-x,-y,z
y,-x,z
x,-y,-z
-x,y,-z
y,x,-z
-y,-x,-z
-x,-y,-z
y,-x,-z
x,y,-z
-y,x,-z
-x,y,z
x,-y,z
-y,-x,z
y,x,z
1/2+x,1/2+y,1/2+z
1/2-y,1/2+x,1/2+z
1/2-x,1/2-y,1/2+z
1/2+y,1/2-x,1/2+z
1/2+x,1/2-y,1/2-z
1/2-x,1/2+y,1/2-z
1/2+y,1/2+x,1/2-z
1/2-y,1/2-x,1/2-z
1/2-x,1/2-y,1/2-z
1/2+y,1/2-x,1/2-z
1/2+x,1/2+y,1/2-z
1/2-y,1/2+x,1/2-z
1/2-x,1/2+y,1/2+z
1/2+x,1/2-y,1/2+z
1/2-y,1/2-x,1/2+z
1/2+y,1/2+x,1/2+z
loop_
_atom_site_type_symbol
_atom_site_label
_atom_site_fract_x
_atom_site_fract_y
_atom_site_fract_z
Si Si1 0.044903 0.390280 0.213582
Si Si2 0.282840 0.282840 0.712872
Si Si3 0.453885 0.387974 0.000000
Si Si4 0.759897 0.870602 0.782437
Si Si5 0.672929 0.108047 0.786893
Si Si6 0.658417 0.407838 0.291272
O O1 0.070261 0.429740 0.250000
O O2 0.071206 0.353271 0.281274
O O3 0.000000 0.391498 0.281246
O O4 0.042986 0.386511 0.000000
O O5 0.286728 0.286728 0.500000
O O6 0.250000 0.250000 0.750000
O O7 0.325852 0.268968 0.778784
O O8 0.440291 0.362518 0.170573
O O9 0.500000 0.395970 0.000000
O O10 0.427656 0.427656 0.000000
O O11 0.717449 0.886313 0.720116
O O12 0.797070 0.897835 0.734036
O O13 0.759011 0.869698 0.000000
O O14 0.647213 0.147213 0.750000
O O15 0.675386 0.103619 0.000000
O O16 0.658024 0.418217 0.500000
O O17 0.632256 0.367745 0.271656
#
# Coordination Sequence:
#
# PCOD9571188 Si02
#       6
#    32  16  16  32  32  32
#     4   9  18  32  49  68  89 114 148 193 245 305
#     4  10  18  28  40  66 104 136 174 225 261 292
#     4  10  22  39  60  88 116 140 180 224 269 335
#     4   9  16  29  48  68  99 139 178 216 257 302
#     4   9  17  30  46  66  95 130 168 208 255 310
#     4   9  17  34  57  80 109 149 186 222 269 314
#
# _framework density 18.641791000000001
#
# number of rings (size 3 to 8) (size 9 to 14) (size 15 to 20)
#    0.000    2.800    1.000    0.600    0.000    1.100 
#    3.600    2.000    0.000    3.600    0.000    2.800 
#    0.000    0.000    0.000    0.000    0.000    0.000 
#
# Total GULP energy -446304.799980 kJ/mol
# GULP energy per Si atom -5578.810000 kJ/mol
# Density = 1.859936 g / cm^3
# Si number density = 18.641791 Si / 1000 Ang^3
#
#
#
# Elastic Constant Matrix: (Units=GPa)
#
#
# Indices 1 2 3 4 5 6 
#
# 1 152.1742 107.1064 29.1011 0.0000 0.0000 0.0000
# 2 107.1064 152.1817 29.1043 0.0000 0.0000 0.0000
# 3 29.1011 29.1043 56.4001 0.0000 0.0000 0.0000
# 4 0.0000 0.0000 0.0000 9.6111 0.0000 0.0000
# 5 0.0000 0.0000 0.0000 0.0000 9.6109 0.0000
# 6 0.0000 0.0000 0.0000 0.0000 0.0000 9.7975
#
#
#
# Elastic Compliance Matrix: (Units=1/GPa)
#
#
# Indices 1 2 3 4 5 6 
#
# 1 0.013275 -0.008912 -0.002250 0.000000 0.000000 0.000000
# 2 -0.008912 0.013274 -0.002251 0.000000 0.000000 0.000000
# 3 -0.002250 -0.002251 0.020053 0.000000 0.000000 0.000000
# 4 0.000000 0.000000 0.000000 0.104047 0.000000 0.000000
# 5 0.000000 0.000000 0.000000 0.000000 0.104049 0.000000
# 6 0.000000 0.000000 0.000000 0.000000 0.000000 0.102067
#
#
# Mechanical properties :
#
#
# Convention : Reuss Voigt Hill
#
# Bulk Modulus (GPa) = 50.57124 76.81997 63.69560
# Shear Modulus (GPa) = 12.81446 18.83350 15.82398
#
# Velocity S-wave (km/s) = 2.62468 3.18194 2.91665
# Velocity P-wave (km/s) = 6.03093 7.40254 6.75166
#
# Compressibility (1/GPa) = 0.01977409
#
# Stress axis : x y z
#
# Youngs Moduli (GPa) = 75.33121 75.33354 49.86701
#
# Poissons Ratio (x) = 0.67141 0.11222
# Poissons Ratio (y) = 0.67139 0.11227
# Poissons Ratio (z) = 0.16952 0.16960
#
# Static dielectric constant tensor:
#      x y z
#    x 1.623740 0.000000 0.000000 
#    y 0.000000 1.623740 0.000000 
#    z 0.000000 0.000000 1.716190 
# 
# From -- ./inp_files/2191.got.cif
#   From: 2010.05.17/outbox.cif.g08.bks.cpg/sg139_2_cif.got.tgz:2191.got - 2010.05.20 13:14:44.
