data_PCOD9571619
_publ_section_title
;
Structure prediction by ZEFSAII (Michael W. Deem and Ramdas Pophale) SiO2 
 PCOD9571619
Probable space group: I 4/M M M
;
_chemical_formula_sum "Si O2"
_cell_formula_units_Z 160
_cell_length_a 24.047957
_cell_length_b 24.047957
_cell_length_c 14.718896
_cell_angle_alpha 90.000000
_cell_angle_beta 90.000000
_cell_angle_gamma 90.000000
_cell_volume 8511.999904
_symmetry_space_group_name_H-M "I 4/M M M"
_symmetry_group_IT_number 139
_symmetry_cell_setting 'tetragonal'
loop_
_space_group_symop_operation_xyz
x,y,z
-y,x,z
-x,-y,z
y,-x,z
x,-y,-z
-x,y,-z
y,x,-z
-y,-x,-z
-x,-y,-z
y,-x,-z
x,y,-z
-y,x,-z
-x,y,z
x,-y,z
-y,-x,z
y,x,z
1/2+x,1/2+y,1/2+z
1/2-y,1/2+x,1/2+z
1/2-x,1/2-y,1/2+z
1/2+y,1/2-x,1/2+z
1/2+x,1/2-y,1/2-z
1/2-x,1/2+y,1/2-z
1/2+y,1/2+x,1/2-z
1/2-y,1/2-x,1/2-z
1/2-x,1/2-y,1/2-z
1/2+y,1/2-x,1/2-z
1/2+x,1/2+y,1/2-z
1/2-y,1/2+x,1/2-z
1/2-x,1/2+y,1/2+z
1/2+x,1/2-y,1/2+z
1/2-y,1/2-x,1/2+z
1/2+y,1/2+x,1/2+z
loop_
_atom_site_type_symbol
_atom_site_label
_atom_site_fract_x
_atom_site_fract_y
_atom_site_fract_z
Si Si1 0.639730 0.732785 0.891997
Si Si2 0.261553 0.435976 0.607991
Si Si3 0.936791 0.436747 0.359699
Si Si4 0.355617 0.163702 0.394748
Si Si5 0.935024 0.843082 0.731012
O O1 0.694211 0.694211 0.881211
O O2 0.652105 0.794705 0.855915
O O3 0.590680 0.702112 0.838276
O O4 0.626692 0.735302 0.000000
O O5 0.271492 0.428967 0.500000
O O6 0.242034 0.500000 0.621238
O O7 0.214470 0.392945 0.640514
O O8 0.315996 0.428590 0.668993
O O9 0.923455 0.500000 0.388776
O O10 0.936396 0.436396 0.250000
O O11 0.891538 0.392842 0.390643
O O12 0.000000 0.424070 0.388624
O O13 0.345476 0.177986 0.500000
O O14 0.898274 0.898274 0.723012
O O15 0.000000 0.852382 0.713880
#
# Coordination Sequence:
#
# PCOD9571619 Si02
#       5
#    32  32  32  32  32
#     4   9  20  38  56  79 112 142 173 219 271 322
#     4   9  19  35  54  80 114 148 184 227 270 313
#     4   9  19  33  47  68 102 143 183 224 267 306
#     4  10  20  33  53  79 104 140 187 225 263 317
#     4  10  22  39  60  84 108 140 177 218 275 333
#
# _framework density 18.796994000000002
#
# number of rings (size 3 to 8) (size 9 to 14) (size 15 to 20)
#    0.000    2.600    0.000    1.200    2.800    4.200 
#    0.000    7.000    0.000    0.000    0.000    5.600 
#    0.000    0.000    0.000    0.000    0.000    0.000 
#
# Total GULP energy -446305.577727 kJ/mol
# GULP energy per Si atom -5578.819722 kJ/mol
# Density = 1.875421 g / cm^3
# Si number density = 18.796994 Si / 1000 Ang^3
#
#
#
# Elastic Constant Matrix: (Units=GPa)
#
#
# Indices 1 2 3 4 5 6 
#
# 1 119.4826 70.1037 27.5797 0.0000 0.0000 0.0000
# 2 70.1037 119.4826 27.5797 0.0000 0.0000 0.0000
# 3 27.5797 27.5797 61.7365 0.0000 0.0000 0.0000
# 4 0.0000 0.0000 0.0000 23.9325 0.0000 0.0000
# 5 0.0000 0.0000 0.0000 0.0000 23.9325 0.0000
# 6 0.0000 0.0000 0.0000 0.0000 0.0000 9.7572
#
#
#
# Elastic Compliance Matrix: (Units=1/GPa)
#
#
# Indices 1 2 3 4 5 6 
#
# 1 0.013157 -0.007094 -0.002708 0.000000 0.000000 0.000000
# 2 -0.007094 0.013157 -0.002708 0.000000 0.000000 0.000000
# 3 -0.002708 -0.002708 0.018618 0.000000 0.000000 0.000000
# 4 0.000000 0.000000 0.000000 0.041784 0.000000 0.000000
# 5 0.000000 0.000000 0.000000 0.000000 0.041784 0.000000
# 6 0.000000 0.000000 0.000000 0.000000 0.000000 0.102488
#
#
# Mechanical properties :
#
#
# Convention : Reuss Voigt Hill
#
# Bulk Modulus (GPa) = 50.22733 61.24753 55.73743
# Shear Modulus (GPa) = 19.03691 23.22035 21.12863
#
# Velocity S-wave (km/s) = 3.18585 3.51853 3.35631
# Velocity P-wave (km/s) = 6.34916 7.01150 6.68853
#
# Compressibility (1/GPa) = 0.01990948
#
# Stress axis : x y z
#
# Youngs Moduli (GPa) = 76.00456 76.00456 53.71236
#
# Poissons Ratio (x) = 0.53921 0.14547
# Poissons Ratio (y) = 0.53921 0.14547
# Poissons Ratio (z) = 0.20585 0.20585
#
# Static dielectric constant tensor:
#      x y z
#    x 1.631140 0.000000 0.000000 
#    y 0.000000 1.631140 0.000000 
#    z 0.000000 0.000000 1.687800 
# 
# From -- ./inp_files/5882.got.cif
#   From: 2010.05.17/outbox.cif.g08.bks.cpg/sg139_3_cif.got.tgz:5882.got - 2010.05.20 13:14:44.
