data_PCOD9571754
_publ_section_title
;
Structure prediction by ZEFSAII (Michael W. Deem and Ramdas Pophale) SiO2 
 PCOD9571754
Probable space group: I 4/M M M
;
_chemical_formula_sum "Si O2"
_cell_formula_units_Z 160
_cell_length_a 31.847779
_cell_length_b 31.847779
_cell_length_c 8.169231
_cell_angle_alpha 90.000000
_cell_angle_beta 90.000000
_cell_angle_gamma 90.000000
_cell_volume 8285.896010
_symmetry_space_group_name_H-M "I 4/M M M"
_symmetry_group_IT_number 139
_symmetry_cell_setting 'tetragonal'
loop_
_space_group_symop_operation_xyz
x,y,z
-y,x,z
-x,-y,z
y,-x,z
x,-y,-z
-x,y,-z
y,x,-z
-y,-x,-z
-x,-y,-z
y,-x,-z
x,y,-z
-y,x,-z
-x,y,z
x,-y,z
-y,-x,z
y,x,z
1/2+x,1/2+y,1/2+z
1/2-y,1/2+x,1/2+z
1/2-x,1/2-y,1/2+z
1/2+y,1/2-x,1/2+z
1/2+x,1/2-y,1/2-z
1/2-x,1/2+y,1/2-z
1/2+y,1/2+x,1/2-z
1/2-y,1/2-x,1/2-z
1/2-x,1/2-y,1/2-z
1/2+y,1/2-x,1/2-z
1/2+x,1/2+y,1/2-z
1/2-y,1/2+x,1/2-z
1/2-x,1/2+y,1/2+z
1/2+x,1/2-y,1/2+z
1/2-y,1/2-x,1/2+z
1/2+y,1/2+x,1/2+z
loop_
_atom_site_type_symbol
_atom_site_label
_atom_site_fract_x
_atom_site_fract_y
_atom_site_fract_z
Si Si1 0.000000 0.113192 0.187822
Si Si2 0.152235 0.152235 0.812802
Si Si3 0.773334 0.906096 0.194099
Si Si4 0.500000 0.286205 0.687894
Si Si5 0.548413 0.885105 0.303352
Si Si6 0.384742 0.817575 0.807077
Si Si7 0.910912 0.089089 0.685222
O O1 0.958976 0.098347 0.280363
O O2 0.000000 0.163524 0.182590
O O3 0.000000 0.097873 0.000000
O O4 0.127659 0.192604 0.739131
O O5 0.116625 0.116625 0.808090
O O6 0.163714 0.163714 0.000000
O O7 0.726772 0.888848 0.218325
O O8 0.774645 0.954212 0.261664
O O9 0.783344 0.910331 0.000000
O O10 0.500000 0.269156 0.500000
O O11 0.550187 0.882121 0.500000
O O12 0.500000 0.885055 0.251503
O O13 0.573033 0.926968 0.250000
O O14 0.574672 0.846273 0.231811
O O15 0.345070 0.845070 0.750000
O O16 0.382158 0.810470 0.000000
O O17 0.899356 0.100645 0.500000
#
# Coordination Sequence:
#
# PCOD9571754 Si02
#       7
#    16  16  32  16  32  32  16
#     4  11  21  40  62  81 109 159 208 237 285 360
#     4  10  20  38  64  88 116 158 198 232 284 360
#     4  10  20  37  61  92 120 152 196 241 287 342
#     4   9  18  33  60  90 117 149 194 241 282 338
#     4  10  21  37  58  84 116 156 197 240 288 340
#     4  11  23  40  61  86 117 156 195 242 296 349
#     4  12  24  37  55  85 121 152 188 250 308 344
#
# _framework density 19.309922
#
# number of rings (size 3 to 8) (size 9 to 14) (size 15 to 20)
#    0.000    1.600    2.000    4.800    1.400    2.800 
#    0.000    2.500    0.000    0.000    0.000    0.000 
#    0.000    0.000    0.000    0.000    0.000    0.000 
#
# Total GULP energy -446434.698625 kJ/mol
# GULP energy per Si atom -5580.433733 kJ/mol
# Density = 1.926597 g / cm^3
# Si number density = 19.309922 Si / 1000 Ang^3
#
#
#
# Elastic Constant Matrix: (Units=GPa)
#
#
# Indices 1 2 3 4 5 6 
#
# 1 126.3868 59.6321 -10.0394 0.0000 0.0000 0.0000
# 2 59.6321 126.3828 -10.0381 0.0000 0.0000 0.0000
# 3 -10.0394 -10.0381 35.9610 0.0000 0.0000 0.0000
# 4 0.0000 0.0000 0.0000 9.1186 0.0000 0.0000
# 5 0.0000 0.0000 0.0000 0.0000 9.1177 0.0000
# 6 0.0000 0.0000 0.0000 0.0000 0.0000 15.0475
#
#
#
# Elastic Compliance Matrix: (Units=1/GPa)
#
#
# Indices 1 2 3 4 5 6 
#
# 1 0.010262 -0.004719 0.001548 0.000000 0.000000 0.000000
# 2 -0.004719 0.010262 0.001547 0.000000 0.000000 0.000000
# 3 0.001548 0.001547 0.028672 0.000000 0.000000 0.000000
# 4 0.000000 0.000000 0.000000 0.109666 0.000000 0.000000
# 5 0.000000 0.000000 0.000000 0.000000 0.109676 0.000000
# 6 0.000000 0.000000 0.000000 0.000000 0.000000 0.066456
#
#
# Mechanical properties :
#
#
# Convention : Reuss Voigt Hill
#
# Bulk Modulus (GPa) = 21.76432 40.87110 31.31771
# Shear Modulus (GPa) = 14.14193 23.26848 18.70521
#
# Velocity S-wave (km/s) = 2.70916 3.47508 3.11574
# Velocity P-wave (km/s) = 4.59147 6.10847 5.40347
#
# Compressibility (1/GPa) = 0.04594676
#
# Stress axis : x y z
#
# Youngs Moduli (GPa) = 97.45041 97.44784 34.87753
#
# Poissons Ratio (x) = 0.45985 -0.05397
# Poissons Ratio (y) = 0.45986 -0.05396
# Poissons Ratio (z) = -0.15081 -0.15076
#
# Static dielectric constant tensor:
#      x y z
#    x 1.657200 0.000000 0.000000 
#    y 0.000000 1.657200 0.000000 
#    z 0.000000 0.000000 1.696900 
# 
# From -- ./inp_files/2308.got.cif
#   From: 2010.05.17/outbox.cif.g08.bks.cpg/sg139_2_cif.got.tgz:2308.got - 2010.05.20 13:14:44.
