data_PCOD9571830
_publ_section_title
;
Structure prediction by ZEFSAII (Michael W. Deem and Ramdas Pophale) SiO2 
 PCOD9571830
Probable space group: I 4/M M M
;
_chemical_formula_sum "Si O2"
_cell_formula_units_Z 160
_cell_length_a 23.441321
_cell_length_b 23.441321
_cell_length_c 15.760932
_cell_angle_alpha 90.000000
_cell_angle_beta 90.000000
_cell_angle_gamma 90.000000
_cell_volume 8660.561686
_symmetry_space_group_name_H-M "I 4/M M M"
_symmetry_group_IT_number 139
_symmetry_cell_setting 'tetragonal'
loop_
_space_group_symop_operation_xyz
x,y,z
-y,x,z
-x,-y,z
y,-x,z
x,-y,-z
-x,y,-z
y,x,-z
-y,-x,-z
-x,-y,-z
y,-x,-z
x,y,-z
-y,x,-z
-x,y,z
x,-y,z
-y,-x,z
y,x,z
1/2+x,1/2+y,1/2+z
1/2-y,1/2+x,1/2+z
1/2-x,1/2-y,1/2+z
1/2+y,1/2-x,1/2+z
1/2+x,1/2-y,1/2-z
1/2-x,1/2+y,1/2-z
1/2+y,1/2+x,1/2-z
1/2-y,1/2-x,1/2-z
1/2-x,1/2-y,1/2-z
1/2+y,1/2-x,1/2-z
1/2+x,1/2+y,1/2-z
1/2-y,1/2+x,1/2-z
1/2-x,1/2+y,1/2+z
1/2+x,1/2-y,1/2+z
1/2-y,1/2-x,1/2+z
1/2+y,1/2+x,1/2+z
loop_
_atom_site_type_symbol
_atom_site_label
_atom_site_fract_x
_atom_site_fract_y
_atom_site_fract_z
Si Si1 0.933593 0.161857 0.757484
Si Si2 0.435947 0.067506 0.898363
Si Si3 0.158624 0.652001 0.847252
Si Si4 0.628461 0.724545 0.405920
Si Si5 0.242315 0.066032 0.597647
O O1 0.892842 0.107159 0.763271
O O2 0.913769 0.205813 0.830903
O O3 0.925977 0.192850 0.666798
O O4 0.000000 0.147670 0.767809
O O5 0.500000 0.084447 0.871402
O O6 0.386932 0.102460 0.853513
O O7 0.430273 0.000000 0.884773
O O8 0.431942 0.077750 0.000000
O O9 0.168865 0.668865 0.750000
O O10 0.148139 0.710425 0.896676
O O11 0.208800 0.612064 0.882848
O O12 0.603446 0.715724 0.500000
O O13 0.683302 0.683302 0.398442
O O14 0.223535 0.072444 0.500000
O O15 0.263183 0.000000 0.607129
#
# Coordination Sequence:
#
# PCOD9571830 Si02
#       5
#    32  32  32  32  32
#     4  10  22  41  64  91 120 149 187 235 290 354
#     4   9  19  35  52  73 107 151 197 244 288 327
#     4  12  22  34  56  84 116 154 197 242 287 340
#     4  10  22  40  60  84 117 154 191 236 288 338
#     4  10  21  38  59  84 119 161 200 240 287 339
#
# _framework density 18.474553
#
# number of rings (size 3 to 8) (size 9 to 14) (size 15 to 20)
#    0.000    1.800    2.000    3.000    0.000    6.200 
#    0.000    1.000    0.000    0.000    0.000    5.600 
#    0.000    0.000    0.000    0.000    0.000    0.000 
#
# Total GULP energy -446699.076049 kJ/mol
# GULP energy per Si atom -5583.738451 kJ/mol
# Density = 1.843250 g / cm^3
# Si number density = 18.474553 Si / 1000 Ang^3
#
#
#
# Elastic Constant Matrix: (Units=GPa)
#
#
# Indices 1 2 3 4 5 6 
#
# 1 86.6025 39.6105 39.8092 0.0000 0.0000 0.0000
# 2 39.6105 86.6025 39.8092 0.0000 0.0000 0.0000
# 3 39.8092 39.8092 117.0248 0.0000 0.0000 0.0000
# 4 0.0000 0.0000 0.0000 24.6309 0.0000 0.0000
# 5 0.0000 0.0000 0.0000 0.0000 24.6309 0.0000
# 6 0.0000 0.0000 0.0000 0.0000 0.0000 24.6542
#
#
#
# Elastic Compliance Matrix: (Units=1/GPa)
#
#
# Indices 1 2 3 4 5 6 
#
# 1 0.015684 -0.005596 -0.003432 0.000000 0.000000 0.000000
# 2 -0.005596 0.015684 -0.003432 0.000000 0.000000 0.000000
# 3 -0.003432 -0.003432 0.010880 0.000000 0.000000 0.000000
# 4 0.000000 0.000000 0.000000 0.040599 0.000000 0.000000
# 5 0.000000 0.000000 0.000000 0.000000 0.040599 0.000000
# 6 0.000000 0.000000 0.000000 0.000000 0.000000 0.040561
#
#
# Mechanical properties :
#
#
# Convention : Reuss Voigt Hill
#
# Bulk Modulus (GPa) = 57.70657 58.74308 58.22483
# Shear Modulus (GPa) = 25.68008 26.18324 25.93166
#
# Velocity S-wave (km/s) = 3.73235 3.76874 3.75059
# Velocity P-wave (km/s) = 7.06239 7.12766 7.09510
#
# Compressibility (1/GPa) = 0.01732905
#
# Stress axis : x y z
#
# Youngs Moduli (GPa) = 63.75900 63.75900 91.91208
#
# Poissons Ratio (x) = 0.35681 0.31541
# Poissons Ratio (y) = 0.35681 0.31541
# Poissons Ratio (z) = 0.21880 0.21880
#
# Static dielectric constant tensor:
#      x y z
#    x 1.615100 0.000000 0.000000 
#    y 0.000000 1.615100 0.000000 
#    z 0.000000 0.000000 1.667100 
# 
# From -- ./inp_files/5886.got.cif
#   From: 2010.05.17/outbox.cif.g08.bks.cpg/sg139_3_cif.got.tgz:5886.got - 2010.05.20 13:14:44.
