data_PCOD9571853
_publ_section_title
;
Structure prediction by ZEFSAII (Michael W. Deem and Ramdas Pophale) SiO2 
 PCOD9571853
Probable space group: I 4/M M M
;
_chemical_formula_sum "Si O2"
_cell_formula_units_Z 160
_cell_length_a 30.284874
_cell_length_b 30.284874
_cell_length_c 8.848252
_cell_angle_alpha 90.000000
_cell_angle_beta 90.000000
_cell_angle_gamma 90.000000
_cell_volume 8115.383080
_symmetry_space_group_name_H-M "I 4/M M M"
_symmetry_group_IT_number 139
_symmetry_cell_setting 'tetragonal'
loop_
_space_group_symop_operation_xyz
x,y,z
-y,x,z
-x,-y,z
y,-x,z
x,-y,-z
-x,y,-z
y,x,-z
-y,-x,-z
-x,-y,-z
y,-x,-z
x,y,-z
-y,x,-z
-x,y,z
x,-y,z
-y,-x,z
y,x,z
1/2+x,1/2+y,1/2+z
1/2-y,1/2+x,1/2+z
1/2-x,1/2-y,1/2+z
1/2+y,1/2-x,1/2+z
1/2+x,1/2-y,1/2-z
1/2-x,1/2+y,1/2-z
1/2+y,1/2+x,1/2-z
1/2-y,1/2-x,1/2-z
1/2-x,1/2-y,1/2-z
1/2+y,1/2-x,1/2-z
1/2+x,1/2+y,1/2-z
1/2-y,1/2+x,1/2-z
1/2-x,1/2+y,1/2+z
1/2+x,1/2-y,1/2+z
1/2-y,1/2-x,1/2+z
1/2+y,1/2+x,1/2+z
loop_
_atom_site_type_symbol
_atom_site_label
_atom_site_fract_x
_atom_site_fract_y
_atom_site_fract_z
Si Si1 0.548983 0.783113 0.000000
Si Si2 0.874892 0.051729 0.500000
Si Si3 0.171658 0.051891 0.168636
Si Si4 0.356330 0.820719 0.500000
Si Si5 0.549704 0.049704 0.250000
Si Si6 0.924747 0.381961 0.500000
Si Si7 0.249779 0.387184 0.743833
Si Si8 0.819768 0.250123 0.500000
O O1 0.575399 0.767311 0.855994
O O2 0.500000 0.765274 0.000000
O O3 0.551718 0.835364 0.000000
O O4 0.917029 0.082972 0.500000
O O5 0.850652 0.059616 0.664283
O O6 0.885861 0.000000 0.500000
O O7 0.209994 0.088604 0.162734
O O8 0.186324 0.000000 0.174833
O O9 0.148516 0.055461 0.000000
O O10 0.373891 0.871321 0.500000
O O11 0.372338 0.791407 0.641542
O O12 0.303196 0.821145 0.500000
O O13 0.500000 0.053077 0.314287
O O14 0.589067 0.057888 0.363487
O O15 0.264290 0.346546 0.850407
O O16 0.771850 0.228151 0.500000
#
# Coordination Sequence:
#
# PCOD9571853 Si02
#       8
#    16  16  32  16  16  16  32  16
#     4  11  22  37  60  92 123 161 209 261 329 396
#     4  10  22  41  68 100 139 182 219 265 319 377
#     4  10  21  40  65  98 136 173 218 272 330 387
#     4  12  24  41  62  89 124 162 206 271 324 390
#     4  11  24  42  62  86 121 164 210 264 325 394
#     4  12  23  39  62  88 120 158 208 262 320 389
#     4  11  22  40  64  88 123 166 204 268 322 391
#     4  11  26  44  64  87 119 166 213 263 326 390
#
# _framework density 19.715644000000001
#
# number of rings (size 3 to 8) (size 9 to 14) (size 15 to 20)
#    0.000    1.100    3.000    4.800    0.000    5.300 
#    0.000    3.000    0.000    0.000    0.000    2.800 
#    0.000    0.000    0.000    0.000    0.000    0.000 
#
# Total GULP energy -445808.717550 kJ/mol
# GULP energy per Si atom -5572.608969 kJ/mol
# Density = 1.967077 g / cm^3
# Si number density = 19.715644 Si / 1000 Ang^3
#
#
#
# Elastic Constant Matrix: (Units=GPa)
#
#
# Indices 1 2 3 4 5 6 
#
# 1 74.0949 59.5131 33.0103 0.0000 0.0000 0.0000
# 2 59.5131 74.0922 33.0086 0.0000 0.0000 0.0000
# 3 33.0103 33.0086 135.0731 0.0000 0.0000 0.0000
# 4 0.0000 0.0000 0.0000 -10.8121 0.0000 0.0000
# 5 0.0000 0.0000 0.0000 0.0000 -10.8260 0.0000
# 6 0.0000 0.0000 0.0000 0.0000 0.0000 35.2637
#
#
#
# Elastic Compliance Matrix: (Units=1/GPa)
#
#
# Indices 1 2 3 4 5 6 
#
# 1 0.038548 -0.030036 -0.002081 0.000000 0.000000 0.000000
# 2 -0.030036 0.038549 -0.002080 0.000000 0.000000 0.000000
# 3 -0.002081 -0.002080 0.008420 0.000000 0.000000 0.000000
# 4 0.000000 0.000000 0.000000 -0.092489 0.000000 0.000000
# 5 0.000000 0.000000 0.000000 0.000000 -0.092370 0.000000
# 6 0.000000 0.000000 0.000000 0.000000 0.000000 0.028358
#
#
# Mechanical properties :
#
#
# Convention : Reuss Voigt Hill
#
# Bulk Modulus (GPa) = 58.39727 59.36936 58.88332
# Shear Modulus (GPa) = 1603.48794 13.24032 808.36413
#
# Velocity S-wave (km/s) = 28.54948 2.59427 20.27071
# Velocity P-wave (km/s) = 33.41329 6.25714 24.03747
#
# Compressibility (1/GPa) = 0.01712409
#
# Stress axis : x y z
#
# Youngs Moduli (GPa) = 25.94154 25.94079 118.76219
#
# Poissons Ratio (x) = 0.77916 0.24710
# Poissons Ratio (y) = 0.77918 0.24703
# Poissons Ratio (z) = 0.05397 0.05396
#
# Static dielectric constant tensor:
#      x y z
#    x 1.670900 0.000000 0.000000 
#    y 0.000000 1.670900 0.000000 
#    z 0.000000 0.000000 1.611170 
# 
# From -- ./inp_files/2367.got.cif
#   From: 2010.05.17/outbox.cif.g08.bks.cpg/sg139_2_cif.got.tgz:2367.got - 2010.05.20 13:14:44.
