data_PCOD9571466
_publ_section_title
;
Structure prediction by ZEFSAII (Michael W. Deem and Ramdas Pophale) SiO2 
 PCOD9571466
Probable space group: I 4/M M M
;
_chemical_formula_sum "Si O2"
_cell_formula_units_Z 152
_cell_length_a 22.512891
_cell_length_b 22.512891
_cell_length_c 16.946718
_cell_angle_alpha 90.000000
_cell_angle_beta 90.000000
_cell_angle_gamma 90.000000
_cell_volume 8589.109510
_symmetry_space_group_name_H-M "I 4/M M M"
_symmetry_group_IT_number 139
_symmetry_cell_setting 'tetragonal'
loop_
_space_group_symop_operation_xyz
x,y,z
-y,x,z
-x,-y,z
y,-x,z
x,-y,-z
-x,y,-z
y,x,-z
-y,-x,-z
-x,-y,-z
y,-x,-z
x,y,-z
-y,x,-z
-x,y,z
x,-y,z
-y,-x,z
y,x,z
1/2+x,1/2+y,1/2+z
1/2-y,1/2+x,1/2+z
1/2-x,1/2-y,1/2+z
1/2+y,1/2-x,1/2+z
1/2+x,1/2-y,1/2-z
1/2-x,1/2+y,1/2-z
1/2+y,1/2+x,1/2-z
1/2-y,1/2-x,1/2-z
1/2-x,1/2-y,1/2-z
1/2+y,1/2-x,1/2-z
1/2+x,1/2+y,1/2-z
1/2-y,1/2+x,1/2-z
1/2-x,1/2+y,1/2+z
1/2+x,1/2-y,1/2+z
1/2-y,1/2-x,1/2+z
1/2+y,1/2+x,1/2+z
loop_
_atom_site_type_symbol
_atom_site_label
_atom_site_fract_x
_atom_site_fract_y
_atom_site_fract_z
Si Si1 0.272482 0.727519 0.594106
Si Si2 0.928642 0.071359 0.176070
Si Si3 0.070492 0.929509 0.000000
Si Si4 0.861468 0.268690 0.347645
Si Si5 0.430377 0.110212 0.831800
Si Si6 0.094086 0.568014 0.000000
Si Si7 0.163349 0.836652 0.230126
Si Si8 0.431545 0.760772 0.000000
O O1 0.278179 0.721822 0.500000
O O2 0.283765 0.795513 0.621349
O O3 0.315029 0.684972 0.644263
O O4 0.910085 0.089916 0.086447
O O5 0.887054 0.112947 0.228747
O O6 0.000000 0.080935 0.185537
O O7 0.000000 0.919655 0.000000
O O8 0.895063 0.328379 0.323122
O O9 0.857861 0.221640 0.277594
O O10 0.897266 0.241715 0.421680
O O11 0.500000 0.123270 0.845463
O O12 0.424138 0.075863 0.750000
O O13 0.407631 0.078692 0.912908
O O14 0.166565 0.570194 0.000000
O O15 0.072886 0.500000 0.000000
O O16 0.500000 0.742949 0.000000
#
# Coordination Sequence:
#
# PCOD9571466 Si02
#       8
#    16  16   8  32  32  16  16  16
#     4  11  21  35  53  80 112 147 180 227 285 348
#     4   9  19  36  56  78 105 141 181 223 273 326
#     4   7  12  28  52  68  84 120 168 206 240 296
#     4  10  19  36  52  77 113 144 182 224 276 331
#     4  10  19  33  54  78 105 141 184 227 272 322
#     4   7  14  28  46  70  95 128 175 217 255 308
#     4  11  23  32  54  84 112 141 182 224 288 336
#     4   9  16  29  54  79 103 145 190 224 257 311
#
# _framework density 17.696828
#
# number of rings (size 3 to 8) (size 9 to 14) (size 15 to 20)
#    0.000    2.474    1.053    5.053    0.737    1.895 
#    0.000    0.526    0.000    1.895    0.000    0.000 
#    0.000    2.526    0.000    0.000    0.000    0.000 
#
# Total GULP energy -423234.195722 kJ/mol
# GULP energy per Si atom -5568.870996 kJ/mol
# Density = 1.765655 g / cm^3
# Si number density = 17.696828 Si / 1000 Ang^3
#
#
#
# Elastic Constant Matrix: (Units=GPa)
#
#
# Indices 1 2 3 4 5 6 
#
# 1 67.0082 37.9535 36.8040 0.0000 0.0000 0.0000
# 2 37.9535 67.0086 36.8044 0.0000 0.0000 0.0000
# 3 36.8040 36.8044 136.2746 0.0000 0.0000 0.0000
# 4 0.0000 0.0000 0.0000 16.3242 0.0000 0.0000
# 5 0.0000 0.0000 0.0000 0.0000 16.3241 0.0000
# 6 0.0000 0.0000 0.0000 0.0000 0.0000 16.2831
#
#
#
# Elastic Compliance Matrix: (Units=1/GPa)
#
#
# Indices 1 2 3 4 5 6 
#
# 1 0.023086 -0.011332 -0.003174 0.000000 0.000000 0.000000
# 2 -0.011332 0.023085 -0.003174 0.000000 0.000000 0.000000
# 3 -0.003174 -0.003174 0.009053 0.000000 0.000000 0.000000
# 4 0.000000 0.000000 0.000000 0.061259 0.000000 0.000000
# 5 0.000000 0.000000 0.000000 0.000000 0.061259 0.000000
# 6 0.000000 0.000000 0.000000 0.000000 0.000000 0.061413
#
#
# Mechanical properties :
#
#
# Convention : Reuss Voigt Hill
#
# Bulk Modulus (GPa) = 50.34665 54.82392 52.58528
# Shear Modulus (GPa) = 17.78494 20.36826 19.07660
#
# Velocity S-wave (km/s) = 3.17358 3.39625 3.28680
# Velocity P-wave (km/s) = 6.47612 6.81367 6.64704
#
# Compressibility (1/GPa) = 0.01986230
#
# Stress axis : x y z
#
# Youngs Moduli (GPa) = 43.31720 43.31737 110.46429
#
# Poissons Ratio (x) = 0.49088 0.35064
# Poissons Ratio (y) = 0.49088 0.35065
# Poissons Ratio (z) = 0.13750 0.13750
#
# Static dielectric constant tensor:
#      x y z
#    x 1.586570 0.000000 0.000000 
#    y 0.000000 1.586570 0.000000 
#    z 0.000000 0.000000 1.681780 
# 
# From -- ./inp_files/6050.got.cif
#   From: 2010.05.17/outbox.cif.g08.bks.cpg/sg139_4_cif.got.tgz:6050.got - 2010.05.20 13:14:44.
