data_PCOD9571808
_publ_section_title
;
Structure prediction by ZEFSAII (Michael W. Deem and Ramdas Pophale) SiO2 
 PCOD9571808
Probable space group: I 4/M M M
;
_chemical_formula_sum "Si O2"
_cell_formula_units_Z 176
_cell_length_a 28.534626
_cell_length_b 28.534626
_cell_length_c 11.167072
_cell_angle_alpha 90.000000
_cell_angle_beta 90.000000
_cell_angle_gamma 90.000000
_cell_volume 9092.507870
_symmetry_space_group_name_H-M "I 4/M M M"
_symmetry_group_IT_number 139
_symmetry_cell_setting 'tetragonal'
loop_
_space_group_symop_operation_xyz
x,y,z
-y,x,z
-x,-y,z
y,-x,z
x,-y,-z
-x,y,-z
y,x,-z
-y,-x,-z
-x,-y,-z
y,-x,-z
x,y,-z
-y,x,-z
-x,y,z
x,-y,z
-y,-x,z
y,x,z
1/2+x,1/2+y,1/2+z
1/2-y,1/2+x,1/2+z
1/2-x,1/2-y,1/2+z
1/2+y,1/2-x,1/2+z
1/2+x,1/2-y,1/2-z
1/2-x,1/2+y,1/2-z
1/2+y,1/2+x,1/2-z
1/2-y,1/2-x,1/2-z
1/2-x,1/2-y,1/2-z
1/2+y,1/2-x,1/2-z
1/2+x,1/2+y,1/2-z
1/2-y,1/2+x,1/2-z
1/2-x,1/2+y,1/2+z
1/2+x,1/2-y,1/2+z
1/2-y,1/2-x,1/2+z
1/2+y,1/2+x,1/2+z
loop_
_atom_site_type_symbol
_atom_site_label
_atom_site_fract_x
_atom_site_fract_y
_atom_site_fract_z
Si Si1 0.311830 0.944422 0.127942
Si Si2 0.799006 0.056195 0.133748
Si Si3 0.444324 0.055677 0.250000
Si Si4 0.642925 0.911574 0.373084
Si Si5 0.884133 0.195089 0.365666
Si Si6 0.291118 0.826429 0.631627
O O1 0.256689 0.933638 0.131545
O O2 0.334302 0.930850 0.252778
O O3 0.316332 0.000000 0.122615
O O4 0.330429 0.925987 0.000000
O O5 0.815830 0.082473 0.253159
O O6 0.805046 0.000000 0.144589
O O7 0.817140 0.069926 0.000000
O O8 0.500000 0.063200 0.266712
O O9 0.411596 0.074903 0.357359
O O10 0.659615 0.931760 0.500000
O O11 0.661883 0.858290 0.373057
O O12 0.905929 0.192495 0.500000
O O13 0.841493 0.158508 0.362928
O O14 0.861294 0.246919 0.355492
O O15 0.286780 0.803187 0.500000
O O16 0.295003 0.795003 0.750000
#
# Coordination Sequence:
#
# PCOD9571808 Si02
#       6
#    32  32  16  32  32  32
#     4   9  18  32  52  79 107 134 167 214 273 329
#     4   9  18  33  54  83 118 152 189 231 271 319
#     4  11  26  44  56  72 103 138 174 228 299 366
#     4  11  22  38  60  81  99 127 174 228 281 340
#     4  10  21  37  56  83 120 155 188 233 289 343
#     4  10  21  37  57  81 107 139 183 236 285 341
#
# _framework density 19.356596
#
# number of rings (size 3 to 8) (size 9 to 14) (size 15 to 20)
#    0.000    2.091    2.727    1.636    0.000    5.091 
#    0.000    2.727    0.000    0.000    0.000    0.000 
#    0.000    0.364    0.000    4.000    0.000    2.909 
#
# Total GULP energy -490180.062055 kJ/mol
# GULP energy per Si atom -5570.227978 kJ/mol
# Density = 1.931254 g / cm^3
# Si number density = 19.356596 Si / 1000 Ang^3
#
#
#
# Elastic Constant Matrix: (Units=GPa)
#
#
# Indices 1 2 3 4 5 6 
#
# 1 107.9411 -45.5218 38.9564 0.0000 0.0000 0.0000
# 2 -45.5218 107.9335 38.9558 0.0000 0.0000 0.0000
# 3 38.9564 38.9558 216.9193 0.0000 0.0000 0.0000
# 4 0.0000 0.0000 0.0000 26.1467 0.0000 0.0000
# 5 0.0000 0.0000 0.0000 0.0000 26.1464 0.0000
# 6 0.0000 0.0000 0.0000 0.0000 0.0000 21.7425
#
#
#
# Elastic Compliance Matrix: (Units=1/GPa)
#
#
# Indices 1 2 3 4 5 6 
#
# 1 0.013583 0.007067 -0.003709 0.000000 0.000000 0.000000
# 2 0.007067 0.013584 -0.003709 0.000000 0.000000 0.000000
# 3 -0.003709 -0.003709 0.005942 0.000000 0.000000 0.000000
# 4 0.000000 0.000000 0.000000 0.038246 0.000000 0.000000
# 5 0.000000 0.000000 0.000000 0.000000 0.038246 0.000000
# 6 0.000000 0.000000 0.000000 0.000000 0.000000 0.045993
#
#
# Mechanical properties :
#
#
# Convention : Reuss Voigt Hill
#
# Bulk Modulus (GPa) = 30.85503 55.28606 43.07054
# Shear Modulus (GPa) = 29.92262 41.50069 35.71166
#
# Velocity S-wave (km/s) = 3.93601 4.63537 4.29993
# Velocity P-wave (km/s) = 6.05237 7.56787 6.85215
#
# Compressibility (1/GPa) = 0.03240963
#
# Stress axis : x y z
#
# Youngs Moduli (GPa) = 73.61991 73.61448 168.29108
#
# Poissons Ratio (x) = -0.52026 0.62413
# Poissons Ratio (y) = -0.52030 0.62415
# Poissons Ratio (z) = 0.27303 0.27302
#
# Static dielectric constant tensor:
#      x y z
#    x 1.590290 0.000000 0.000000 
#    y 0.000000 1.590350 0.000000 
#    z 0.000000 0.000000 1.742280 
# 
# From -- ./inp_files/4017.got.cif
#   From: 2010.05.17/outbox.cif.g08.bks.cpg/sg139_3_cif.got.tgz:4017.got - 2010.05.20 13:14:44.
