data_PCOD9571756
_publ_section_title
;
Structure prediction by ZEFSAII (Michael W. Deem and Ramdas Pophale) SiO2 
 PCOD9571756
Probable space group: I 4/M M M
;
_chemical_formula_sum "Si O2"
_cell_formula_units_Z 160
_cell_length_a 26.949250
_cell_length_b 26.949250
_cell_length_c 10.219791
_cell_angle_alpha 90.000000
_cell_angle_beta 90.000000
_cell_angle_gamma 90.000000
_cell_volume 7422.246623
_symmetry_space_group_name_H-M "I 4/M M M"
_symmetry_group_IT_number 139
_symmetry_cell_setting 'tetragonal'
loop_
_space_group_symop_operation_xyz
x,y,z
-y,x,z
-x,-y,z
y,-x,z
x,-y,-z
-x,y,-z
y,x,-z
-y,-x,-z
-x,-y,-z
y,-x,-z
x,y,-z
-y,x,-z
-x,y,z
x,-y,z
-y,-x,z
y,x,z
1/2+x,1/2+y,1/2+z
1/2-y,1/2+x,1/2+z
1/2-x,1/2-y,1/2+z
1/2+y,1/2-x,1/2+z
1/2+x,1/2-y,1/2-z
1/2-x,1/2+y,1/2-z
1/2+y,1/2+x,1/2-z
1/2-y,1/2-x,1/2-z
1/2-x,1/2-y,1/2-z
1/2+y,1/2-x,1/2-z
1/2+x,1/2+y,1/2-z
1/2-y,1/2+x,1/2-z
1/2-x,1/2+y,1/2+z
1/2+x,1/2-y,1/2+z
1/2-y,1/2-x,1/2+z
1/2+y,1/2+x,1/2+z
loop_
_atom_site_type_symbol
_atom_site_label
_atom_site_fract_x
_atom_site_fract_y
_atom_site_fract_z
Si Si1 0.000000 0.730232 0.842119
Si Si2 0.351192 0.500000 0.350340
Si Si3 0.902373 0.742499 0.278556
Si Si4 0.441249 0.941249 0.250000
Si Si5 0.369416 0.774120 0.500000
Si Si6 0.125938 0.561210 0.500000
Si Si7 0.075976 0.848859 0.641789
Si Si8 0.235767 0.320793 0.000000
O O1 0.000000 0.790645 0.842201
O O2 0.048421 0.711234 0.762879
O O3 0.000000 0.722041 0.000000
O O4 0.365807 0.500000 0.500000
O O5 0.368422 0.453591 0.265131
O O6 0.924040 0.790251 0.350427
O O7 0.856987 0.728272 0.373063
O O8 0.882543 0.754475 0.133027
O O9 0.500000 0.934635 0.219798
O O10 0.427768 0.906815 0.372201
O O11 0.402512 0.825472 0.500000
O O12 0.311607 0.785457 0.500000
O O13 0.130505 0.500000 0.500000
O O14 0.056246 0.864570 0.500000
O O15 0.131796 0.868205 0.649125
O O16 0.286425 0.286425 0.000000
#
# Coordination Sequence:
#
# PCOD9571756 Si02
#       8
#    16  16  32  16  16  16  32  16
#     4   9  18  38  66  96 127 157 209 271 343 402
#     4   9  19  33  55  92 126 157 195 252 317 378
#     4  11  23  42  69  94 128 171 217 280 336 399
#     4   9  18  38  68 100 133 174 222 270 333 416
#     4  12  28  43  65  93 129 181 225 279 344 398
#     4  10  23  40  66  98 137 176 218 284 347 412
#     4  10  20  37  62  90 123 161 207 260 315 381
#     4  12  28  49  66  93 136 184 239 288 329 396
#
# _framework density 21.556816000000001
#
# number of rings (size 3 to 8) (size 9 to 14) (size 15 to 20)
#    0.000    1.700    2.000    1.800    5.600    4.400 
#    0.000    0.000    2.200    0.300    0.000    2.100 
#    0.000    0.000    0.000    0.000    0.000    0.000 
#
# Total GULP energy -445345.723747 kJ/mol
# GULP energy per Si atom -5566.821547 kJ/mol
# Density = 2.150775 g / cm^3
# Si number density = 21.556816 Si / 1000 Ang^3
#
#
#
# Elastic Constant Matrix: (Units=GPa)
#
#
# Indices 1 2 3 4 5 6 
#
# 1 53.0819 22.2193 35.6387 0.0000 0.0000 0.0000
# 2 22.2193 53.0819 35.6387 0.0000 0.0000 0.0000
# 3 35.6387 35.6387 193.3671 0.0000 0.0000 0.0000
# 4 0.0000 0.0000 0.0000 20.0428 0.0000 0.0000
# 5 0.0000 0.0000 0.0000 0.0000 20.0428 0.0000
# 6 0.0000 0.0000 0.0000 0.0000 0.0000 19.7959
#
#
#
# Elastic Compliance Matrix: (Units=1/GPa)
#
#
# Indices 1 2 3 4 5 6 
#
# 1 0.024244 -0.008158 -0.002965 0.000000 0.000000 0.000000
# 2 -0.008158 0.024244 -0.002965 0.000000 0.000000 0.000000
# 3 -0.002965 -0.002965 0.006264 0.000000 0.000000 0.000000
# 4 0.000000 0.000000 0.000000 0.049893 0.000000 0.000000
# 5 0.000000 0.000000 0.000000 0.000000 0.049893 0.000000
# 6 0.000000 0.000000 0.000000 0.000000 0.000000 0.050515
#
#
# Mechanical properties :
#
#
# Convention : Reuss Voigt Hill
#
# Bulk Modulus (GPa) = 37.62528 54.05825 45.84176
# Shear Modulus (GPa) = 20.65365 25.71195 23.18280
#
# Velocity S-wave (km/s) = 3.09868 3.45737 3.28293
# Velocity P-wave (km/s) = 5.50403 6.40854 5.97343
#
# Compressibility (1/GPa) = 0.02657788
#
# Stress axis : x y z
#
# Youngs Moduli (GPa) = 41.24727 41.24727 159.63294
#
# Poissons Ratio (x) = 0.33648 0.47328
# Poissons Ratio (y) = 0.33648 0.47328
# Poissons Ratio (z) = 0.12229 0.12229
#
# Static dielectric constant tensor:
#      x y z
#    x 1.823860 0.000000 0.000000 
#    y 0.000000 1.823860 0.000000 
#    z 0.000000 0.000000 1.837090 
# 
# From -- ./inp_files/2373.got.cif
#   From: 2010.05.17/outbox.cif.g08.bks.cpg/sg139_2_cif.got.tgz:2373.got - 2010.05.20 13:14:44.
