data_PCOD9571483
_publ_section_title
;
Structure prediction by ZEFSAII (Michael W. Deem and Ramdas Pophale) SiO2 
 PCOD9571483
Probable space group: I 4/M M M
;
_chemical_formula_sum "Si O2"
_cell_formula_units_Z 112
_cell_length_a 26.302554
_cell_length_b 26.302554
_cell_length_c 7.460765
_cell_angle_alpha 90.000000
_cell_angle_beta 90.000000
_cell_angle_gamma 90.000000
_cell_volume 5161.538874
_symmetry_space_group_name_H-M "I 4/M M M"
_symmetry_group_IT_number 139
_symmetry_cell_setting 'tetragonal'
loop_
_space_group_symop_operation_xyz
x,y,z
-y,x,z
-x,-y,z
y,-x,z
x,-y,-z
-x,y,-z
y,x,-z
-y,-x,-z
-x,-y,-z
y,-x,-z
x,y,-z
-y,x,-z
-x,y,z
x,-y,z
-y,-x,z
y,x,z
1/2+x,1/2+y,1/2+z
1/2-y,1/2+x,1/2+z
1/2-x,1/2-y,1/2+z
1/2+y,1/2-x,1/2+z
1/2+x,1/2-y,1/2-z
1/2-x,1/2+y,1/2-z
1/2+y,1/2+x,1/2-z
1/2-y,1/2-x,1/2-z
1/2-x,1/2-y,1/2-z
1/2+y,1/2-x,1/2-z
1/2+x,1/2+y,1/2-z
1/2-y,1/2+x,1/2-z
1/2-x,1/2+y,1/2+z
1/2+x,1/2-y,1/2+z
1/2-y,1/2-x,1/2+z
1/2+y,1/2+x,1/2+z
loop_
_atom_site_type_symbol
_atom_site_label
_atom_site_fract_x
_atom_site_fract_y
_atom_site_fract_z
Si Si1 0.199317 0.000000 0.708141
Si Si2 0.139735 0.557974 0.214077
Si Si3 0.418420 0.500000 0.716507
Si Si4 0.207727 0.207727 0.285800
Si Si5 0.101472 0.745984 0.280246
O O1 0.138868 0.000000 0.720193
O O2 0.222435 0.947874 0.781068
O O3 0.214759 0.000000 0.500000
O O4 0.140991 0.500000 0.283204
O O5 0.087932 0.587932 0.250000
O O6 0.187978 0.591152 0.277768
O O7 0.145256 0.554580 0.000000
O O8 0.450754 0.450754 0.774037
O O9 0.417842 0.500000 0.500000
O O10 0.202181 0.202181 0.500000
O O11 0.250000 0.250000 0.250000
O O12 0.228255 0.153591 0.217307
O O13 0.103434 0.746424 0.500000
#
# Coordination Sequence:
#
# PCOD9571483 Si02
#       5
#    16  32  16  16  32
#     4  10  19  33  57  84 105 133 182 228 264 315
#     4  10  20  36  56  77 105 142 178 217 269 323
#     4   9  20  38  54  72 108 151 179 211 268 320
#     4  10  20  34  54  80 109 140 173 213 264 317
#     4   9  18  34  55  79 109 141 172 215 271 321
#
# _framework density 21.698955000000002
#
# number of rings (size 3 to 8) (size 9 to 14) (size 15 to 20)
#    0.000    2.429    1.429    1.286    2.000    1.429 
#    0.000    5.000    0.000    0.000    0.000    0.000 
#    0.000    0.000    0.000    0.000    0.000    0.000 
#
# Total GULP energy -312776.271547 kJ/mol
# GULP energy per Si atom -5585.290563 kJ/mol
# Density = 2.164957 g / cm^3
# Si number density = 21.698955 Si / 1000 Ang^3
#
#
#
# Elastic Constant Matrix: (Units=GPa)
#
#
# Indices 1 2 3 4 5 6 
#
# 1 177.1681 106.0511 1.3117 0.0000 0.0000 0.0000
# 2 106.0511 177.1681 1.3117 0.0000 0.0000 0.0000
# 3 1.3117 1.3117 62.1490 0.0000 0.0000 0.0000
# 4 0.0000 0.0000 0.0000 21.1785 0.0000 0.0000
# 5 0.0000 0.0000 0.0000 0.0000 21.1785 0.0000
# 6 0.0000 0.0000 0.0000 0.0000 0.0000 31.7534
#
#
#
# Elastic Compliance Matrix: (Units=1/GPa)
#
#
# Indices 1 2 3 4 5 6 
#
# 1 0.008796 -0.005265 -0.000075 0.000000 0.000000 0.000000
# 2 -0.005265 0.008796 -0.000075 0.000000 0.000000 0.000000
# 3 -0.000075 -0.000075 0.016094 0.000000 0.000000 0.000000
# 4 0.000000 0.000000 0.000000 0.047218 0.000000 0.000000
# 5 0.000000 0.000000 0.000000 0.000000 0.047218 0.000000
# 6 0.000000 0.000000 0.000000 0.000000 0.000000 0.031493
#
#
# Mechanical properties :
#
#
# Convention : Reuss Voigt Hill
#
# Bulk Modulus (GPa) = 43.74759 70.42604 57.08682
# Shear Modulus (GPa) = 28.08010 35.34277 31.71144
#
# Velocity S-wave (km/s) = 3.60123 4.04019 3.82701
# Velocity P-wave (km/s) = 6.12346 7.36822 6.77449
#
# Compressibility (1/GPa) = 0.02285840
#
# Stress axis : x y z
#
# Youngs Moduli (GPa) = 113.68243 113.68243 62.13687
#
# Poissons Ratio (x) = 0.59853 0.00463
# Poissons Ratio (y) = 0.59853 0.00463
# Poissons Ratio (z) = 0.00847 0.00847
#
# Static dielectric constant tensor:
#      x y z
#    x 1.755350 0.000000 0.000000 
#    y 0.000000 1.755350 0.000000 
#    z 0.000000 0.000000 1.860560 
# 
# From -- ./inp_files/3292.got.cif
#   From: 2010.05.17/outbox.cif.g08.bks.cpg/sg139_2_cif.got.tgz:3292.got - 2010.05.20 13:14:44.
