data_PCOD9571282
_publ_section_title
;
Structure prediction by ZEFSAII (Michael W. Deem and Ramdas Pophale) SiO2 
 PCOD9571282
Probable space group: I 4/M M M
;
_chemical_formula_sum "Si O2"
_cell_formula_units_Z 192
_cell_length_a 22.714592
_cell_length_b 22.714592
_cell_length_c 22.601915
_cell_angle_alpha 90.000000
_cell_angle_beta 90.000000
_cell_angle_gamma 90.000000
_cell_volume 11661.518837
_symmetry_space_group_name_H-M "I 4/M M M"
_symmetry_group_IT_number 139
_symmetry_cell_setting 'tetragonal'
loop_
_space_group_symop_operation_xyz
x,y,z
-y,x,z
-x,-y,z
y,-x,z
x,-y,-z
-x,y,-z
y,x,-z
-y,-x,-z
-x,-y,-z
y,-x,-z
x,y,-z
-y,x,-z
-x,y,z
x,-y,z
-y,-x,z
y,x,z
1/2+x,1/2+y,1/2+z
1/2-y,1/2+x,1/2+z
1/2-x,1/2-y,1/2+z
1/2+y,1/2-x,1/2+z
1/2+x,1/2-y,1/2-z
1/2-x,1/2+y,1/2-z
1/2+y,1/2+x,1/2-z
1/2-y,1/2-x,1/2-z
1/2-x,1/2-y,1/2-z
1/2+y,1/2-x,1/2-z
1/2+x,1/2+y,1/2-z
1/2-y,1/2+x,1/2-z
1/2-x,1/2+y,1/2+z
1/2+x,1/2-y,1/2+z
1/2-y,1/2-x,1/2+z
1/2+y,1/2+x,1/2+z
loop_
_atom_site_type_symbol
_atom_site_label
_atom_site_fract_x
_atom_site_fract_y
_atom_site_fract_z
Si Si1 0.236610 0.763391 0.929582
Si Si2 0.150891 0.248990 0.257965
Si Si3 0.500000 0.226479 0.567903
Si Si4 0.430656 0.747232 0.873293
Si Si5 0.616691 0.225616 0.629035
Si Si6 0.000000 0.417005 0.931804
Si Si7 0.598555 0.872484 0.927695
Si Si8 0.165600 0.834401 0.570913
O O1 0.251670 0.825350 0.902304
O O2 0.285152 0.714849 0.912196
O O3 0.235129 0.764872 0.000000
O O4 0.188446 0.188446 0.263308
O O5 0.199684 0.300317 0.250000
O O6 0.107022 0.256804 0.313038
O O7 0.116224 0.255272 0.196724
O O8 0.500000 0.241824 0.500000
O O9 0.558277 0.248509 0.598552
O O10 0.500000 0.154655 0.571777
O O11 0.500000 0.734810 0.863453
O O12 0.426920 0.808361 0.911231
O O13 0.395411 0.693384 0.904986
O O14 0.621606 0.156669 0.612766
O O15 0.065949 0.434484 0.911540
O O16 0.000000 0.433704 0.000000
O O17 0.610107 0.873750 0.000000
O O18 0.162535 0.837466 0.500000
#
# Coordination Sequence:
#
# PCOD9571282 Si02
#       8
#    16  32  16  32  32  16  32  16
#     4  11  18  29  55  87 112 140 179 227 289 345
#     4  11  21  38  58  79 109 145 185 230 280 336
#     4   9  18  30  46  77 120 152 179 218 269 331
#     4  12  25  39  58  86 117 152 195 244 299 357
#     4  11  19  31  52  81 112 151 186 223 272 330
#     4   7  14  28  49  74 107 152 185 219 269 325
#     4  10  18  33  54  81 115 149 190 237 287 340
#     4  11  22  39  61  84 115 146 181 246 318 361
#
# _framework density 16.464407000000001
#
# number of rings (size 3 to 8) (size 9 to 14) (size 15 to 20)
#    0.000    1.500    5.000    3.000    1.167    1.333 
#    0.000    0.417    0.000    1.750    0.000    0.583 
#    0.000    0.333    0.000    1.667    0.000    0.000 
#
# Total GULP energy -534446.959314 kJ/mol
# GULP energy per Si atom -5567.155826 kJ/mol
# Density = 1.642693 g / cm^3
# Si number density = 16.464407 Si / 1000 Ang^3
#
#
#
# Elastic Constant Matrix: (Units=GPa)
#
#
# Indices 1 2 3 4 5 6 
#
# 1 107.4213 44.0665 41.2286 0.0000 0.0000 0.0000
# 2 44.0665 107.4216 41.2295 0.0000 0.0000 0.0000
# 3 41.2286 41.2295 105.2753 0.0000 0.0000 0.0000
# 4 0.0000 0.0000 0.0000 16.6847 0.0000 0.0000
# 5 0.0000 0.0000 0.0000 0.0000 16.6834 0.0000
# 6 0.0000 0.0000 0.0000 0.0000 0.0000 0.3437
#
#
#
# Elastic Compliance Matrix: (Units=1/GPa)
#
#
# Indices 1 2 3 4 5 6 
#
# 1 0.012087 -0.003697 -0.003286 0.000000 0.000000 0.000000
# 2 -0.003697 0.012087 -0.003286 0.000000 0.000000 0.000000
# 3 -0.003286 -0.003286 0.012072 0.000000 0.000000 0.000000
# 4 0.000000 0.000000 0.000000 0.059935 0.000000 0.000000
# 5 0.000000 0.000000 0.000000 0.000000 0.059940 0.000000
# 6 0.000000 0.000000 0.000000 0.000000 0.000000 2.909826
#
#
# Mechanical properties :
#
#
# Convention : Reuss Voigt Hill
#
# Bulk Modulus (GPa) = 63.65726 63.68526 63.67126
# Shear Modulus (GPa) = 1.61722 19.64858 10.63290
#
# Velocity S-wave (km/s) = 0.99216 3.45831 2.54404
# Velocity P-wave (km/s) = 6.32930 7.39669 6.88371
#
# Compressibility (1/GPa) = 0.01570913
#
# Stress axis : x y z
#
# Youngs Moduli (GPa) = 82.73469 82.73432 82.83343
#
# Poissons Ratio (x) = 0.30589 0.27215
# Poissons Ratio (y) = 0.30589 0.27217
# Poissons Ratio (z) = 0.27183 0.27184
#
# Static dielectric constant tensor:
#      x y z
#    x 1.705410 0.000000 0.000000 
#    y 0.000000 1.705400 0.000000 
#    z 0.000000 0.000000 1.566860 
# 
# From -- ./inp_files/12061.got.cif
#   From: 2010.05.17/outbox.cif.g08.bks.cpg/sg139_7_cif.got.tgz:12061.got - 2010.05.20 13:14:44.
