data_PCOD9571293
_publ_section_title
;
Structure prediction by ZEFSAII (Michael W. Deem and Ramdas Pophale) SiO2 
 PCOD9571293
Probable space group: I 4/M M M
;
_chemical_formula_sum "Si O2"
_cell_formula_units_Z 112
_cell_length_a 14.395881
_cell_length_b 14.395881
_cell_length_c 36.460930
_cell_angle_alpha 90.000000
_cell_angle_beta 90.000000
_cell_angle_gamma 90.000000
_cell_volume 7556.213805
_symmetry_space_group_name_H-M "I 4/M M M"
_symmetry_group_IT_number 139
_symmetry_cell_setting 'tetragonal'
loop_
_space_group_symop_operation_xyz
x,y,z
-y,x,z
-x,-y,z
y,-x,z
x,-y,-z
-x,y,-z
y,x,-z
-y,-x,-z
-x,-y,-z
y,-x,-z
x,y,-z
-y,x,-z
-x,y,z
x,-y,z
-y,-x,z
y,x,z
1/2+x,1/2+y,1/2+z
1/2-y,1/2+x,1/2+z
1/2-x,1/2-y,1/2+z
1/2+y,1/2-x,1/2+z
1/2+x,1/2-y,1/2-z
1/2-x,1/2+y,1/2-z
1/2+y,1/2+x,1/2-z
1/2-y,1/2-x,1/2-z
1/2-x,1/2-y,1/2-z
1/2+y,1/2-x,1/2-z
1/2+x,1/2+y,1/2-z
1/2-y,1/2+x,1/2-z
1/2-x,1/2+y,1/2+z
1/2+x,1/2-y,1/2+z
1/2-y,1/2-x,1/2+z
1/2+y,1/2+x,1/2+z
loop_
_atom_site_type_symbol
_atom_site_label
_atom_site_fract_x
_atom_site_fract_y
_atom_site_fract_z
Si Si1 0.606520 0.112860 0.209094
Si Si2 0.608483 0.108475 0.070502
Si Si3 0.389249 0.236256 0.641248
Si Si4 0.736141 0.109554 0.500000
O O1 0.500000 0.144757 0.203188
O O2 0.639189 0.139189 0.250000
O O3 0.674778 0.139655 0.176473
O O4 0.603195 0.000000 0.209296
O O5 0.500000 0.120656 0.081141
O O6 0.674617 0.127042 0.104908
O O7 0.619536 0.000000 0.059947
O O8 0.628080 0.173959 0.036018
O O9 0.500000 0.253993 0.643684
O O10 0.329121 0.329121 0.639784
O O11 0.825656 0.174345 0.500000
O O12 0.759365 0.000000 0.500000
#
# Coordination Sequence:
#
# PCOD9571293 Si02
#       4
#    32  32  32  16
#     4   8  14  26  44  64  84 105 133 174 219 253
#     4   9  17  30  48  67  84 104 136 179 220 248
#     4  10  19  29  42  61  86 115 143 170 203 246
#     4  10  19  30  45  65  90 116 139 165 200 247
#
# _framework density 14.822238
#
# number of rings (size 3 to 8) (size 9 to 14) (size 15 to 20)
#    0.000    2.857    0.000    3.000    0.000    6.143 
#    0.000    0.000    0.000    0.000    0.000    0.000 
#    0.000   15.429    0.000    1.143    0.000    0.000 
#
# Total GULP energy -311931.182990 kJ/mol
# GULP energy per Si atom -5570.199696 kJ/mol
# Density = 1.478850 g / cm^3
# Si number density = 14.822238 Si / 1000 Ang^3
#
#
#
# Elastic Constant Matrix: (Units=GPa)
#
#
# Indices 1 2 3 4 5 6 
#
# 1 69.7354 57.6953 66.9835 0.0000 0.0000 0.0000
# 2 57.6953 69.7389 66.9833 0.0000 0.0000 0.0000
# 3 66.9835 66.9833 121.4910 0.0000 0.0000 0.0000
# 4 0.0000 0.0000 0.0000 3.6259 0.0000 0.0000
# 5 0.0000 0.0000 0.0000 0.0000 3.6305 0.0000
# 6 0.0000 0.0000 0.0000 0.0000 0.0000 27.0419
#
#
#
# Elastic Compliance Matrix: (Units=1/GPa)
#
#
# Indices 1 2 3 4 5 6 
#
# 1 0.050858 -0.032188 -0.010294 0.000000 0.000000 0.000000
# 2 -0.032188 0.050852 -0.010290 0.000000 0.000000 0.000000
# 3 -0.010294 -0.010290 0.019580 0.000000 0.000000 0.000000
# 4 0.000000 0.000000 0.000000 0.275790 0.000000 0.000000
# 5 0.000000 0.000000 0.000000 0.000000 0.275442 0.000000
# 6 0.000000 0.000000 0.000000 0.000000 0.000000 0.036980
#
#
# Mechanical properties :
#
#
# Convention : Reuss Voigt Hill
#
# Bulk Modulus (GPa) = 63.50794 71.58773 67.54784
# Shear Modulus (GPa) = 6.09536 11.47990 8.78763
#
# Velocity S-wave (km/s) = 2.03008 2.78601 2.43753
# Velocity P-wave (km/s) = 6.95948 7.66495 7.32072
#
# Compressibility (1/GPa) = 0.01574606
#
# Stress axis : x y z
#
# Youngs Moduli (GPa) = 19.66251 19.66473 51.07293
#
# Poissons Ratio (x) = 0.63298 0.52572
# Poissons Ratio (y) = 0.63290 0.52555
# Poissons Ratio (z) = 0.20240 0.20236
#
# Static dielectric constant tensor:
#      x y z
#    x 1.470180 0.000000 0.000000 
#    y 0.000000 1.470180 0.000000 
#    z 0.000000 0.000000 1.496010 
# 
# From -- ./inp_files/13719.got.cif
#   From: 2010.05.17/outbox.cif.g08.bks.cpg/sg139_7_cif.got.tgz:13719.got - 2010.05.20 13:14:44.
