data_PCOD9571427
_publ_section_title
;
Structure prediction by ZEFSAII (Michael W. Deem and Ramdas Pophale) SiO2 
 PCOD9571427
Probable space group: I 4/M M M
;
_chemical_formula_sum "Si O2"
_cell_formula_units_Z 224
_cell_length_a 23.839934
_cell_length_b 23.839934
_cell_length_c 22.949364
_cell_angle_alpha 90.000000
_cell_angle_beta 90.000000
_cell_angle_gamma 90.000000
_cell_volume 13043.097833
_symmetry_space_group_name_H-M "I 4/M M M"
_symmetry_group_IT_number 139
_symmetry_cell_setting 'tetragonal'
loop_
_space_group_symop_operation_xyz
x,y,z
-y,x,z
-x,-y,z
y,-x,z
x,-y,-z
-x,y,-z
y,x,-z
-y,-x,-z
-x,-y,-z
y,-x,-z
x,y,-z
-y,x,-z
-x,y,z
x,-y,z
-y,-x,z
y,x,z
1/2+x,1/2+y,1/2+z
1/2-y,1/2+x,1/2+z
1/2-x,1/2-y,1/2+z
1/2+y,1/2-x,1/2+z
1/2+x,1/2-y,1/2-z
1/2-x,1/2+y,1/2-z
1/2+y,1/2+x,1/2-z
1/2-y,1/2-x,1/2-z
1/2-x,1/2-y,1/2-z
1/2+y,1/2-x,1/2-z
1/2+x,1/2+y,1/2-z
1/2-y,1/2+x,1/2-z
1/2-x,1/2+y,1/2+z
1/2+x,1/2-y,1/2+z
1/2-y,1/2-x,1/2+z
1/2+y,1/2+x,1/2+z
loop_
_atom_site_type_symbol
_atom_site_label
_atom_site_fract_x
_atom_site_fract_y
_atom_site_fract_z
Si Si1 0.844116 0.434224 0.761848
Si Si2 0.219951 0.130621 0.566320
Si Si3 0.564911 0.127562 0.430879
Si Si4 0.154722 0.065609 0.667791
Si Si5 0.932192 0.272094 0.152647
Si Si6 0.434302 0.826062 0.897089
Si Si7 0.933598 0.157710 0.197613
O O1 0.853754 0.500000 0.752882
O O2 0.900342 0.400342 0.750000
O O3 0.800809 0.414215 0.712985
O O4 0.822214 0.427391 0.827314
O O5 0.204490 0.113575 0.500000
O O6 0.194192 0.194192 0.572283
O O7 0.189933 0.096094 0.617779
O O8 0.284605 0.111504 0.574078
O O9 0.565734 0.134943 0.500000
O O10 0.500000 0.114811 0.413490
O O11 0.582646 0.185148 0.398627
O O12 0.609976 0.080432 0.413903
O O13 0.093278 0.093278 0.666449
O O14 0.175663 0.074309 0.734302
O O15 0.154378 0.000000 0.656595
O O16 0.913690 0.207870 0.155617
O O17 0.000000 0.269247 0.153027
O O18 0.500000 0.812893 0.911452
O O19 0.897522 0.102479 0.188111
O O20 0.000000 0.147870 0.190331
#
# Coordination Sequence:
#
# PCOD9571427 Si02
#       7
#    32  32  32  32  32  32  32
#     4  10  19  32  52  76 103 136 173 216 263 313
#     4  10  21  36  52  70  98 138 181 225 268 309
#     4  10  21  36  53  74 103 138 174 216 264 314
#     4   9  17  29  46  70  99 131 168 211 262 318
#     4   9  17  32  51  70  97 133 170 204 246 303
#     4  11  22  35  56  82 107 138 178 222 270 322
#     4   9  17  30  51  77 104 133 166 211 266 324
#
# _framework density 17.173835
#
# number of rings (size 3 to 8) (size 9 to 14) (size 15 to 20)
#    0.000    2.286    1.429    1.714    0.000    5.000 
#    0.000    4.286    0.000    2.143    0.000    2.000 
#    0.000    0.000    0.000    5.571    0.000    0.143 
#
# Total GULP energy -623481.423114 kJ/mol
# GULP energy per Si atom -5566.798421 kJ/mol
# Density = 1.713475 g / cm^3
# Si number density = 17.173835 Si / 1000 Ang^3
#
#
#
# Elastic Constant Matrix: (Units=GPa)
#
#
# Indices 1 2 3 4 5 6 
#
# 1 64.0858 31.8710 13.7891 0.0000 0.0000 0.0000
# 2 31.8710 64.0858 13.7891 0.0000 0.0000 0.0000
# 3 13.7891 13.7891 40.5071 0.0000 0.0000 0.0000
# 4 0.0000 0.0000 0.0000 17.0864 0.0000 0.0000
# 5 0.0000 0.0000 0.0000 0.0000 17.0864 0.0000
# 6 0.0000 0.0000 0.0000 0.0000 0.0000 23.8301
#
#
#
# Elastic Compliance Matrix: (Units=1/GPa)
#
#
# Indices 1 2 3 4 5 6 
#
# 1 0.021297 -0.009745 -0.003932 0.000000 0.000000 0.000000
# 2 -0.009745 0.021297 -0.003932 0.000000 0.000000 0.000000
# 3 -0.003932 -0.003932 0.027364 0.000000 0.000000 0.000000
# 4 0.000000 0.000000 0.000000 0.058526 0.000000 0.000000
# 5 0.000000 0.000000 0.000000 0.000000 0.058526 0.000000
# 6 0.000000 0.000000 0.000000 0.000000 0.000000 0.041964
#
#
# Mechanical properties :
#
#
# Convention : Reuss Voigt Hill
#
# Bulk Modulus (GPa) = 28.78678 31.95299 30.36988
# Shear Modulus (GPa) = 18.13092 18.88253 18.50673
#
# Velocity S-wave (km/s) = 3.25272 3.31946 3.28626
# Velocity P-wave (km/s) = 5.55926 5.77389 5.66759
#
# Compressibility (1/GPa) = 0.03473817
#
# Stress axis : x y z
#
# Youngs Moduli (GPa) = 46.95592 46.95592 36.54404
#
# Poissons Ratio (x) = 0.45759 0.14370
# Poissons Ratio (y) = 0.45759 0.14370
# Poissons Ratio (z) = 0.18464 0.18464
#
# Static dielectric constant tensor:
#      x y z
#    x 1.596720 0.000000 0.000000 
#    y 0.000000 1.596720 0.000000 
#    z 0.000000 0.000000 1.594370 
# 
# From -- ./inp_files/12213.got.cif
#   From: 2010.05.17/outbox.cif.g08.bks.cpg/sg139_7_cif.got.tgz:12213.got - 2010.05.20 13:14:44.
