data_PCOD9571910
_publ_section_title
;
Structure prediction by ZEFSAII (Michael W. Deem and Ramdas Pophale) SiO2 
 PCOD9571910
Probable space group: I 4/M M M
;
_chemical_formula_sum "Si O2"
_cell_formula_units_Z 104
_cell_length_a 20.167674
_cell_length_b 20.167674
_cell_length_c 13.730624
_cell_angle_alpha 90.000000
_cell_angle_beta 90.000000
_cell_angle_gamma 90.000000
_cell_volume 5584.726377
_symmetry_space_group_name_H-M "I 4/M M M"
_symmetry_group_IT_number 139
_symmetry_cell_setting 'tetragonal'
loop_
_space_group_symop_operation_xyz
x,y,z
-y,x,z
-x,-y,z
y,-x,z
x,-y,-z
-x,y,-z
y,x,-z
-y,-x,-z
-x,-y,-z
y,-x,-z
x,y,-z
-y,x,-z
-x,y,z
x,-y,z
-y,-x,z
y,x,z
1/2+x,1/2+y,1/2+z
1/2-y,1/2+x,1/2+z
1/2-x,1/2-y,1/2+z
1/2+y,1/2-x,1/2+z
1/2+x,1/2-y,1/2-z
1/2-x,1/2+y,1/2-z
1/2+y,1/2+x,1/2-z
1/2-y,1/2-x,1/2-z
1/2-x,1/2-y,1/2-z
1/2+y,1/2-x,1/2-z
1/2+x,1/2+y,1/2-z
1/2-y,1/2+x,1/2-z
1/2-x,1/2+y,1/2+z
1/2+x,1/2-y,1/2+z
1/2-y,1/2-x,1/2+z
1/2+y,1/2+x,1/2+z
loop_
_atom_site_type_symbol
_atom_site_label
_atom_site_fract_x
_atom_site_fract_y
_atom_site_fract_z
Si Si1 0.420006 0.579995 0.500000
Si Si2 0.659650 0.197274 0.384730
Si Si3 0.153548 0.846453 0.180928
Si Si4 0.683982 0.316019 0.113777
Si Si5 0.571555 0.077464 0.882548
O O1 0.408687 0.500000 0.500000
O O2 0.387476 0.612525 0.598765
O O3 0.650288 0.207078 0.500000
O O4 0.643440 0.268051 0.338854
O O5 0.736462 0.176733 0.372354
O O6 0.614178 0.137350 0.350738
O O7 0.146093 0.853908 0.298578
O O8 0.667920 0.332081 0.000000
O O9 0.500000 0.105188 0.850807
O O10 0.573371 0.000000 0.858213
O O11 0.571847 0.081635 0.000000
#
# Coordination Sequence:
#
# PCOD9571910 Si02
#       5
#     8  32  16  16  32
#     4  11  26  46  66  92 122 146 180 248 328 381
#     4   9  15  27  49  83 118 154 196 244 289 343
#     4  11  19  37  60  86 116 150 194 241 300 363
#     4   9  19  33  56  84 113 149 191 241 291 339
#     4   8  14  24  40  68 110 157 197 232 276 332
#
# _framework density 18.622221
#
# number of rings (size 3 to 8) (size 9 to 14) (size 15 to 20)
#    0.000    2.846    1.538    3.692    0.000    1.231 
#    0.000    1.538    0.000    8.308    0.000    9.692 
#    0.000    0.000    0.000    0.000    0.000    0.000 
#
# Total GULP energy -289641.587603 kJ/mol
# GULP energy per Si atom -5570.030531 kJ/mol
# Density = 1.857984 g / cm^3
# Si number density = 18.622221 Si / 1000 Ang^3
#
#
#
# Elastic Constant Matrix: (Units=GPa)
#
#
# Indices 1 2 3 4 5 6 
#
# 1 91.2318 67.1837 31.3418 0.0000 0.0000 0.0000
# 2 67.1837 91.2310 31.3415 0.0000 0.0000 0.0000
# 3 31.3418 31.3415 166.7723 0.0000 0.0000 0.0000
# 4 0.0000 0.0000 0.0000 -10.0875 0.0000 0.0000
# 5 0.0000 0.0000 0.0000 0.0000 -10.0881 0.0000
# 6 0.0000 0.0000 0.0000 0.0000 0.0000 33.2954
#
#
#
# Elastic Compliance Matrix: (Units=1/GPa)
#
#
# Indices 1 2 3 4 5 6 
#
# 1 0.024202 -0.017382 -0.001282 0.000000 0.000000 0.000000
# 2 -0.017382 0.024202 -0.001282 0.000000 0.000000 0.000000
# 3 -0.001282 -0.001282 0.006478 0.000000 0.000000 0.000000
# 4 0.000000 0.000000 0.000000 -0.099132 0.000000 0.000000
# 5 0.000000 0.000000 0.000000 0.000000 -0.099126 0.000000
# 6 0.000000 0.000000 0.000000 0.000000 0.000000 0.030034
#
#
# Mechanical properties :
#
#
# Convention : Reuss Voigt Hill
#
# Bulk Modulus (GPa) = 66.70791 67.66325 67.18558
# Shear Modulus (GPa) = -73.04049 17.24850 -27.89600
#
# Velocity S-wave (km/s) = -6.26956 3.04671 -3.87459
# Velocity P-wave (km/s) = 4.06330 6.98499 4.01745
#
# Compressibility (1/GPa) = 0.01499073
#
# Stress axis : x y z
#
# Youngs Moduli (GPa) = 41.31934 41.31899 154.37073
#
# Poissons Ratio (x) = 0.71821 0.19785
# Poissons Ratio (y) = 0.71822 0.19784
# Poissons Ratio (z) = 0.05296 0.05295
#
# Static dielectric constant tensor:
#      x y z
#    x 1.628590 0.000000 0.000000 
#    y 0.000000 1.628590 0.000000 
#    z 0.000000 0.000000 1.749290 
# 
# From -- ./inp_files/5231.got.cif
#   From: 2010.05.17/outbox.cif.g08.bks.cpg/sg139_3_cif.got.tgz:5231.got - 2010.05.20 13:14:44.
