data_PCOD9571940
_publ_section_title
;
Structure prediction by ZEFSAII (Michael W. Deem and Ramdas Pophale) SiO2 
 PCOD9571940
Probable space group: I 4/M M M
;
_chemical_formula_sum "Si O2"
_cell_formula_units_Z 136
_cell_length_a 17.969951
_cell_length_b 17.969951
_cell_length_c 23.401363
_cell_angle_alpha 90.000000
_cell_angle_beta 90.000000
_cell_angle_gamma 90.000000
_cell_volume 7556.747990
_symmetry_space_group_name_H-M "I 4/M M M"
_symmetry_group_IT_number 139
_symmetry_cell_setting 'tetragonal'
loop_
_space_group_symop_operation_xyz
x,y,z
-y,x,z
-x,-y,z
y,-x,z
x,-y,-z
-x,y,-z
y,x,-z
-y,-x,-z
-x,-y,-z
y,-x,-z
x,y,-z
-y,x,-z
-x,y,z
x,-y,z
-y,-x,z
y,x,z
1/2+x,1/2+y,1/2+z
1/2-y,1/2+x,1/2+z
1/2-x,1/2-y,1/2+z
1/2+y,1/2-x,1/2+z
1/2+x,1/2-y,1/2-z
1/2-x,1/2+y,1/2-z
1/2+y,1/2+x,1/2-z
1/2-y,1/2-x,1/2-z
1/2-x,1/2-y,1/2-z
1/2+y,1/2-x,1/2-z
1/2+x,1/2+y,1/2-z
1/2-y,1/2+x,1/2-z
1/2-x,1/2+y,1/2+z
1/2+x,1/2-y,1/2+z
1/2-y,1/2-x,1/2+z
1/2+y,1/2+x,1/2+z
loop_
_atom_site_type_symbol
_atom_site_label
_atom_site_fract_x
_atom_site_fract_y
_atom_site_fract_z
Si Si1 0.612737 0.000000 0.723483
Si Si2 0.500000 0.277131 0.727179
Si Si3 0.088275 0.500000 0.088378
Si Si4 0.349227 0.838992 0.564071
Si Si5 0.500000 0.375952 0.500000
Si Si6 0.662305 0.337696 0.256704
Si Si7 0.256188 0.743813 0.152449
Si Si8 0.000000 0.251018 0.908120
O O1 0.571947 0.928054 0.750000
O O2 0.698657 0.000000 0.739525
O O3 0.595351 0.000000 0.656868
O O4 0.424778 0.320360 0.741618
O O5 0.500000 0.260720 0.659525
O O6 0.129372 0.574327 0.067995
O O7 0.000000 0.500000 0.073150
O O8 0.322086 0.821974 0.500000
O O9 0.292280 0.810442 0.612140
O O10 0.426589 0.796023 0.574547
O O11 0.571887 0.428114 0.500000
O O12 0.500000 0.324588 0.444120
O O13 0.698646 0.301355 0.200326
O O14 0.701537 0.298464 0.311669
#
# Coordination Sequence:
#
# PCOD9571940 Si02
#       8
#    16  16  16  32   8  16  16  16
#     4  11  22  37  61  93 128 173 210 251 320 386
#     4  12  25  42  64  92 126 165 208 270 316 387
#     4  12  23  38  60  94 130 165 211 260 317 385
#     4  12  24  41  62  91 129 172 214 262 321 381
#     4  11  28  44  60  85 124 178 236 269 304 372
#     4  11  26  43  66  92 126 162 210 265 328 378
#     4  11  25  42  64  94 121 164 215 265 314 385
#     4  12  23  38  61  89 125 171 214 266 319 372
#
# _framework density 17.997159
#
# number of rings (size 3 to 8) (size 9 to 14) (size 15 to 20)
#    0.000    0.412    5.882    3.529    6.588    0.706 
#    0.000    0.000    0.000    0.000    0.000    0.000 
#    0.000    0.000    0.000    9.176    0.000    0.000 
#
# Total GULP energy -380445.137085 kJ/mol
# GULP energy per Si atom -5594.781428 kJ/mol
# Density = 1.795620 g / cm^3
# Si number density = 17.997159 Si / 1000 Ang^3
#
#
#
# Elastic Constant Matrix: (Units=GPa)
#
#
# Indices 1 2 3 4 5 6 
#
# 1 134.7756 77.2161 41.8140 0.0000 0.0000 0.0000
# 2 77.2161 134.7777 41.8147 0.0000 0.0000 0.0000
# 3 41.8140 41.8147 122.1370 0.0000 0.0000 0.0000
# 4 0.0000 0.0000 0.0000 20.9275 0.0000 0.0000
# 5 0.0000 0.0000 0.0000 0.0000 20.9230 0.0000
# 6 0.0000 0.0000 0.0000 0.0000 0.0000 24.7221
#
#
#
# Elastic Compliance Matrix: (Units=1/GPa)
#
#
# Indices 1 2 3 4 5 6 
#
# 1 0.011413 -0.005960 -0.001867 0.000000 0.000000 0.000000
# 2 -0.005960 0.011413 -0.001867 0.000000 0.000000 0.000000
# 3 -0.001867 -0.001867 0.009466 0.000000 0.000000 0.000000
# 4 0.000000 0.000000 0.000000 0.047784 0.000000 0.000000
# 5 0.000000 0.000000 0.000000 0.000000 0.047794 0.000000
# 6 0.000000 0.000000 0.000000 0.000000 0.000000 0.040450
#
#
# Mechanical properties :
#
#
# Convention : Reuss Voigt Hill
#
# Bulk Modulus (GPa) = 77.48981 79.26443 78.37712
# Shear Modulus (GPa) = 26.04030 28.70421 27.37226
#
# Velocity S-wave (km/s) = 3.80796 3.99799 3.90413
# Velocity P-wave (km/s) = 7.90469 8.09013 7.99795
#
# Compressibility (1/GPa) = 0.01290492
#
# Stress axis : x y z
#
# Youngs Moduli (GPa) = 87.61601 87.61721 105.64175
#
# Poissons Ratio (x) = 0.52217 0.19724
# Poissons Ratio (y) = 0.52216 0.19725
# Poissons Ratio (z) = 0.16359 0.16359
#
# Static dielectric constant tensor:
#      x y z
#    x 1.731890 0.000000 0.000000 
#    y 0.000000 1.712820 0.000000 
#    z 0.000000 0.000000 1.786910 
# 
# From -- ./inp_files/11606.got.cif
#   From: 2010.05.17/outbox.cif.g08.bks.cpg/sg139_6_cif.got.tgz:11606.got - 2010.05.20 13:14:44.
