data_PCOD9571047
_publ_section_title
;
Structure prediction by ZEFSAII (Michael W. Deem and Ramdas Pophale) SiO2 
 PCOD9571047
Probable space group: P 42/N C M
;
_chemical_formula_sum "Si O2"
_cell_formula_units_Z 80
_cell_length_a 30.725627
_cell_length_b 30.725627
_cell_length_c 4.968889
_cell_angle_alpha 90.000000
_cell_angle_beta 90.000000
_cell_angle_gamma 90.000000
_cell_volume 4690.949993
_symmetry_space_group_name_H-M "P 42/N C M"
_symmetry_group_IT_number 138
_space_group.IT_coordinate_system_code '2'
_symmetry_cell_setting 'tetragonal'
loop_
_space_group_symop_operation_xyz
x,y,z
1/2-y,x,1/2+z
1/2-x,1/2-y,z
y,1/2-x,1/2+z
1/2+x,-y,1/2-z
-x,1/2+y,1/2-z
1/2+y,1/2+x,-z
-y,-x,-z
-x,-y,-z
1/2+y,-x,1/2-z
1/2+x,1/2+y,-z
-y,1/2+x,1/2-z
1/2-x,y,1/2+z
x,1/2-y,1/2+z
1/2-y,1/2-x,z
y,x,z
loop_
_atom_site_type_symbol
_atom_site_label
_atom_site_fract_x
_atom_site_fract_y
_atom_site_fract_z
Si Si1 0.274465 0.902917 0.549935
Si Si2 0.638500 0.098363 0.737036
Si Si3 0.502232 0.069449 0.882109
Si Si4 0.222658 0.008591 0.038656
Si Si5 0.498877 0.628907 0.145198
O O1 0.265507 0.890411 0.855554
O O2 0.317428 0.886018 0.406569
O O3 0.278036 0.955524 0.548185
O O4 0.603667 0.103667 0.500000
O O5 0.642745 0.046993 0.785973
O O6 0.623725 0.123725 0.000000
O O7 0.508326 0.100047 0.622748
O O8 0.469737 0.030264 0.807910
O O9 0.546005 0.046005 0.000000
O O10 0.481729 0.098113 0.124005
O O11 0.259892 0.022282 0.828382
O O12 0.174151 0.021088 0.944772
#
# Coordination Sequence:
#
# PCOD9571047 Si02
#       5
#    16  16  16  16  16
#     4   9  17  29  42  57  81 106 122 147 195 253
#     4  11  20  29  44  65  85 102 129 165 202 255
#     4  11  22  34  46  62  87 121 163 201 227 253
#     4   9  17  29  45  65  85 107 135 168 217 278
#     4  11  20  32  48  64  87 117 144 180 230 266
#
# _framework density 17.054114999999999
#
# number of rings (size 3 to 8) (size 9 to 14) (size 15 to 20)
#    0.000    1.800    0.000    6.600    0.000    8.000 
#    0.000    0.000    0.000    0.000    0.000    0.000 
#    0.000   28.000    0.000    0.000    0.000    0.000 
#
# Total GULP energy -446021.342329 kJ/mol
# GULP energy per Si atom -5575.266779 kJ/mol
# Density = 1.701530 g / cm^3
# Si number density = 17.054115 Si / 1000 Ang^3
#
#
#
# Elastic Constant Matrix: (Units=GPa)
#
#
# Indices 1 2 3 4 5 6 
#
# 1 37.6037 6.0554 1.1069 0.0000 0.0000 0.0000
# 2 6.0554 37.6037 1.1069 0.0000 0.0000 0.0000
# 3 1.1069 1.1069 77.6406 0.0000 0.0000 0.0000
# 4 0.0000 0.0000 0.0000 18.1727 0.0000 0.0000
# 5 0.0000 0.0000 0.0000 0.0000 18.1727 0.0000
# 6 0.0000 0.0000 0.0000 0.0000 0.0000 8.7682
#
#
#
# Elastic Compliance Matrix: (Units=1/GPa)
#
#
# Indices 1 2 3 4 5 6 
#
# 1 0.027309 -0.004388 -0.000327 0.000000 0.000000 0.000000
# 2 -0.004388 0.027309 -0.000327 0.000000 0.000000 0.000000
# 3 -0.000327 -0.000327 0.012889 0.000000 0.000000 0.000000
# 4 0.000000 0.000000 0.000000 0.055028 0.000000 0.000000
# 5 0.000000 0.000000 0.000000 0.000000 0.055028 0.000000
# 6 0.000000 0.000000 0.000000 0.000000 0.000000 0.114049
#
#
# Mechanical properties :
#
#
# Convention : Reuss Voigt Hill
#
# Bulk Modulus (GPa) = 17.41412 18.82071 18.11742
# Shear Modulus (GPa) = 15.58426 18.66129 17.12277
#
# Velocity S-wave (km/s) = 3.02621 3.31152 3.17207
# Velocity P-wave (km/s) = 4.73750 5.06768 4.90537
#
# Compressibility (1/GPa) = 0.05742465
#
# Stress axis : x y z
#
# Youngs Moduli (GPa) = 36.61745 36.61745 77.58444
#
# Poissons Ratio (x) = 0.16068 0.02535
# Poissons Ratio (y) = 0.16068 0.02535
# Poissons Ratio (z) = 0.01197 0.01197
#
# Static dielectric constant tensor:
#      x y z
#    x 1.609200 0.000000 0.000000 
#    y 0.000000 1.609200 0.000000 
#    z 0.000000 0.000000 1.603440 
# 
# From -- ./inp_files/501.got.cif
#   From: 2010.05.17/outbox.cif.g08.bks.cpg/sg138_1_cif.got.tgz:501.got - 2010.05.20 13:08:53.
