data_PCOD9571210
_publ_section_title
;
Structure prediction by ZEFSAII (Michael W. Deem and Ramdas Pophale) SiO2 
 PCOD9571210
Probable space group: I 4/M M M
;
_chemical_formula_sum "Si O2"
_cell_formula_units_Z 240
_cell_length_a 26.812716
_cell_length_b 26.812716
_cell_length_c 19.603020
_cell_angle_alpha 90.000000
_cell_angle_beta 90.000000
_cell_angle_gamma 90.000000
_cell_volume 14093.037234
_symmetry_space_group_name_H-M "I 4/M M M"
_symmetry_group_IT_number 139
_symmetry_cell_setting 'tetragonal'
loop_
_space_group_symop_operation_xyz
x,y,z
-y,x,z
-x,-y,z
y,-x,z
x,-y,-z
-x,y,-z
y,x,-z
-y,-x,-z
-x,-y,-z
y,-x,-z
x,y,-z
-y,x,-z
-x,y,z
x,-y,z
-y,-x,z
y,x,z
1/2+x,1/2+y,1/2+z
1/2-y,1/2+x,1/2+z
1/2-x,1/2-y,1/2+z
1/2+y,1/2-x,1/2+z
1/2+x,1/2-y,1/2-z
1/2-x,1/2+y,1/2-z
1/2+y,1/2+x,1/2-z
1/2-y,1/2-x,1/2-z
1/2-x,1/2-y,1/2-z
1/2+y,1/2-x,1/2-z
1/2+x,1/2+y,1/2-z
1/2-y,1/2+x,1/2-z
1/2-x,1/2+y,1/2+z
1/2+x,1/2-y,1/2+z
1/2-y,1/2-x,1/2+z
1/2+y,1/2+x,1/2+z
loop_
_atom_site_type_symbol
_atom_site_label
_atom_site_fract_x
_atom_site_fract_y
_atom_site_fract_z
Si Si1 0.849555 0.634145 0.830083
Si Si2 0.191789 0.113505 0.623398
Si Si3 0.059264 0.730500 0.288371
Si Si4 0.725435 0.806270 0.420376
Si Si5 0.059762 0.246289 0.135305
Si Si6 0.350782 0.058896 0.922204
Si Si7 0.860098 0.941568 0.917777
Si Si8 0.941217 0.862095 0.500000
O O1 0.854764 0.645237 0.750000
O O2 0.814505 0.585312 0.828826
O O3 0.819173 0.677445 0.870478
O O4 0.901945 0.626401 0.868749
O O5 0.149486 0.149486 0.654191
O O6 0.219219 0.078714 0.676921
O O7 0.232745 0.150628 0.590125
O O8 0.166687 0.080610 0.565150
O O9 0.076004 0.733925 0.209369
O O10 0.000000 0.726022 0.290553
O O11 0.710196 0.805640 0.500000
O O12 0.754391 0.754391 0.404831
O O13 0.068377 0.291163 0.082918
O O14 0.078071 0.191850 0.113988
O O15 0.000000 0.240489 0.139160
O O16 0.358617 0.000000 0.905200
O O17 0.367453 0.067271 0.000000
O O18 0.906347 0.906347 0.898732
O O19 0.867997 0.000000 0.899212
O O20 0.854773 0.940181 0.000000
O O21 0.916597 0.916597 0.500000
O O22 0.000000 0.862890 0.500000
#
# Coordination Sequence:
#
# PCOD9571210 Si02
#       8
#    32  32  32  32  32  32  32  16
#     4  11  21  33  53  81 109 139 175 222 272 322
#     4   9  17  30  49  72  97 131 171 209 256 310
#     4  10  20  34  53  78 108 137 171 216 266 316
#     4   9  17  32  51  70 100 140 177 212 259 321
#     4   9  17  31  50  72  97 131 171 215 263 309
#     4  10  20  36  58  79 103 140 182 218 259 321
#     4   9  17  29  46  70 101 138 181 228 275 321
#     4  10  18  29  46  68  96 130 173 219 261 311
#
# _framework density 17.029686000000002
#
# number of rings (size 3 to 8) (size 9 to 14) (size 15 to 20)
#    0.000    2.400    2.000    1.200    0.000    2.600 
#    0.000    1.333    0.000    2.800    0.000    1.867 
#    0.000    3.200    0.000    0.000    0.000    0.000 
#
# Total GULP energy -668414.349811 kJ/mol
# GULP energy per Si atom -5570.119582 kJ/mol
# Density = 1.699093 g / cm^3
# Si number density = 17.029686 Si / 1000 Ang^3
#
#
#
# Elastic Constant Matrix: (Units=GPa)
#
#
# Indices 1 2 3 4 5 6 
#
# 1 82.6185 37.2046 36.1897 0.0000 0.0000 0.0000
# 2 37.2046 82.6188 36.1898 0.0000 0.0000 0.0000
# 3 36.1897 36.1898 86.3363 0.0000 0.0000 0.0000
# 4 0.0000 0.0000 0.0000 21.9429 0.0000 0.0000
# 5 0.0000 0.0000 0.0000 0.0000 21.9424 0.0000
# 6 0.0000 0.0000 0.0000 0.0000 0.0000 19.2821
#
#
#
# Elastic Compliance Matrix: (Units=1/GPa)
#
#
# Indices 1 2 3 4 5 6 
#
# 1 0.016597 -0.005422 -0.004684 0.000000 0.000000 0.000000
# 2 -0.005422 0.016597 -0.004684 0.000000 0.000000 0.000000
# 3 -0.004684 -0.004684 0.015510 0.000000 0.000000 0.000000
# 4 0.000000 0.000000 0.000000 0.045573 0.000000 0.000000
# 5 0.000000 0.000000 0.000000 0.000000 0.045574 0.000000
# 6 0.000000 0.000000 0.000000 0.000000 0.000000 0.051862
#
#
# Mechanical properties :
#
#
# Convention : Reuss Voigt Hill
#
# Bulk Modulus (GPa) = 52.29366 52.30465 52.29916
# Shear Modulus (GPa) = 21.96174 22.09946 22.03060
#
# Velocity S-wave (km/s) = 3.59502 3.60627 3.60065
# Velocity P-wave (km/s) = 6.92865 6.93691 6.93278
#
# Compressibility (1/GPa) = 0.01912278
#
# Stress axis : x y z
#
# Youngs Moduli (GPa) = 60.25030 60.25045 64.47585
#
# Poissons Ratio (x) = 0.32669 0.30203
# Poissons Ratio (y) = 0.32669 0.30203
# Poissons Ratio (z) = 0.28223 0.28223
#
# Static dielectric constant tensor:
#      x y z
#    x 1.579220 0.000000 0.000000 
#    y 0.000000 1.579220 0.000000 
#    z 0.000000 0.000000 1.586750 
# 
# From -- ./inp_files/9068.got.cif
#   From: 2010.05.17/outbox.cif.g08.bks.cpg/sg139_5_cif.got.tgz:9068.got - 2010.05.20 13:14:44.
