data_PCOD9571206
_publ_section_title
;
Structure prediction by ZEFSAII (Michael W. Deem and Ramdas Pophale) SiO2 
 PCOD9571206
Probable space group: I 4/M M M
;
_chemical_formula_sum "Si O2"
_cell_formula_units_Z 144
_cell_length_a 18.600542
_cell_length_b 18.600542
_cell_length_c 28.449718
_cell_angle_alpha 90.000000
_cell_angle_beta 90.000000
_cell_angle_gamma 90.000000
_cell_volume 9843.038062
_symmetry_space_group_name_H-M "I 4/M M M"
_symmetry_group_IT_number 139
_symmetry_cell_setting 'tetragonal'
loop_
_space_group_symop_operation_xyz
x,y,z
-y,x,z
-x,-y,z
y,-x,z
x,-y,-z
-x,y,-z
y,x,-z
-y,-x,-z
-x,-y,-z
y,-x,-z
x,y,-z
-y,x,-z
-x,y,z
x,-y,z
-y,-x,z
y,x,z
1/2+x,1/2+y,1/2+z
1/2-y,1/2+x,1/2+z
1/2-x,1/2-y,1/2+z
1/2+y,1/2-x,1/2+z
1/2+x,1/2-y,1/2-z
1/2-x,1/2+y,1/2-z
1/2+y,1/2+x,1/2-z
1/2-y,1/2-x,1/2-z
1/2-x,1/2-y,1/2-z
1/2+y,1/2-x,1/2-z
1/2+x,1/2+y,1/2-z
1/2-y,1/2+x,1/2-z
1/2-x,1/2+y,1/2+z
1/2+x,1/2-y,1/2+z
1/2-y,1/2-x,1/2+z
1/2+y,1/2+x,1/2+z
loop_
_atom_site_type_symbol
_atom_site_label
_atom_site_fract_x
_atom_site_fract_y
_atom_site_fract_z
Si Si1 0.416337 0.700846 0.735874
Si Si2 0.362266 0.913874 0.883694
Si Si3 0.701810 0.416787 0.622773
Si Si4 0.913010 0.500000 0.053427
Si Si5 0.083395 0.654321 0.290303
O O1 0.500000 0.686018 0.745891
O O2 0.365285 0.634716 0.747701
O O3 0.411391 0.713029 0.679549
O O4 0.394659 0.771157 0.765357
O O5 0.280060 0.902573 0.899846
O O6 0.426684 0.893797 0.919080
O O7 0.374291 0.869294 0.836223
O O8 0.368719 0.000000 0.873557
O O9 0.681227 0.500000 0.613225
O O10 0.640244 0.359757 0.609868
O O11 0.000000 0.500000 0.051766
O O12 0.886002 0.500000 0.000000
O O13 0.095344 0.595344 0.250000
O O14 0.000000 0.659178 0.302929
#
# Coordination Sequence:
#
# PCOD9571206 Si02
#       5
#    32  32  32  16  32
#     4   9  18  29  40  57  83 117 156 189 221 261
#     4  10  18  29  44  64  90 117 149 185 224 267
#     4   9  17  29  43  62  89 122 159 195 227 267
#     4   9  18  32  50  68  88 116 151 185 221 269
#     4  11  19  26  38  59  88 120 148 175 216 266
#
# _framework density 14.629630000000001
#
# number of rings (size 3 to 8) (size 9 to 14) (size 15 to 20)
#    0.000    2.333    3.333    0.667    0.000    2.889 
#    0.000    2.222    0.000    0.667    0.000    0.000 
#    0.000    0.000    0.000    8.667    0.000    1.333 
#
# Total GULP energy -400897.857957 kJ/mol
# GULP energy per Si atom -5568.025805 kJ/mol
# Density = 1.459633 g / cm^3
# Si number density = 14.629630 Si / 1000 Ang^3
#
#
#
# Elastic Constant Matrix: (Units=GPa)
#
#
# Indices 1 2 3 4 5 6 
#
# 1 76.2581 64.0204 20.9812 0.0000 0.0000 0.0000
# 2 64.0204 76.2581 20.9812 0.0000 0.0000 0.0000
# 3 20.9812 20.9812 36.2139 0.0000 0.0000 0.0000
# 4 0.0000 0.0000 0.0000 7.6959 0.0000 0.0000
# 5 0.0000 0.0000 0.0000 0.0000 7.6959 0.0000
# 6 0.0000 0.0000 0.0000 0.0000 0.0000 25.0349
#
#
#
# Elastic Compliance Matrix: (Units=1/GPa)
#
#
# Indices 1 2 3 4 5 6 
#
# 1 0.045169 -0.036546 -0.004996 0.000000 0.000000 0.000000
# 2 -0.036546 0.045169 -0.004996 0.000000 0.000000 0.000000
# 3 -0.004996 -0.004996 0.033403 0.000000 0.000000 0.000000
# 4 0.000000 0.000000 0.000000 0.129940 0.000000 0.000000
# 5 0.000000 0.000000 0.000000 0.000000 0.129940 0.000000
# 6 0.000000 0.000000 0.000000 0.000000 0.000000 0.039944
#
#
# Mechanical properties :
#
#
# Convention : Reuss Voigt Hill
#
# Bulk Modulus (GPa) = 32.61035 44.52177 38.56606
# Shear Modulus (GPa) = 9.49016 13.60182 11.54599
#
# Velocity S-wave (km/s) = 2.54971 3.05248 2.81235
# Velocity P-wave (km/s) = 5.56840 6.55150 6.07985
#
# Compressibility (1/GPa) = 0.03066511
#
# Stress axis : x y z
#
# Youngs Moduli (GPa) = 22.13905 22.13905 29.93760
#
# Poissons Ratio (x) = 0.80909 0.14957
# Poissons Ratio (y) = 0.80909 0.14957
# Poissons Ratio (z) = 0.11061 0.11061
#
# Static dielectric constant tensor:
#      x y z
#    x 1.493850 0.000000 0.000000 
#    y 0.000000 1.493850 0.000000 
#    z 0.000000 0.000000 1.469300 
# 
# From -- ./inp_files/12784.got.cif
#   From: 2010.05.17/outbox.cif.g08.bks.cpg/sg139_7_cif.got.tgz:12784.got - 2010.05.20 13:14:44.
