data_PCOD9571749
_publ_section_title
;
Structure prediction by ZEFSAII (Michael W. Deem and Ramdas Pophale) SiO2 
 PCOD9571749
Probable space group: I 4/M M M
;
_chemical_formula_sum "Si O2"
_cell_formula_units_Z 144
_cell_length_a 21.478440
_cell_length_b 21.478440
_cell_length_c 15.466382
_cell_angle_alpha 90.000000
_cell_angle_beta 90.000000
_cell_angle_gamma 90.000000
_cell_volume 7135.003695
_symmetry_space_group_name_H-M "I 4/M M M"
_symmetry_group_IT_number 139
_symmetry_cell_setting 'tetragonal'
loop_
_space_group_symop_operation_xyz
x,y,z
-y,x,z
-x,-y,z
y,-x,z
x,-y,-z
-x,y,-z
y,x,-z
-y,-x,-z
-x,-y,-z
y,-x,-z
x,y,-z
-y,x,-z
-x,y,z
x,-y,z
-y,-x,z
y,x,z
1/2+x,1/2+y,1/2+z
1/2-y,1/2+x,1/2+z
1/2-x,1/2-y,1/2+z
1/2+y,1/2-x,1/2+z
1/2+x,1/2-y,1/2-z
1/2-x,1/2+y,1/2-z
1/2+y,1/2+x,1/2-z
1/2-y,1/2-x,1/2-z
1/2-x,1/2-y,1/2-z
1/2+y,1/2-x,1/2-z
1/2+x,1/2+y,1/2-z
1/2-y,1/2+x,1/2-z
1/2-x,1/2+y,1/2+z
1/2+x,1/2-y,1/2+z
1/2-y,1/2-x,1/2+z
1/2+y,1/2+x,1/2+z
loop_
_atom_site_type_symbol
_atom_site_label
_atom_site_fract_x
_atom_site_fract_y
_atom_site_fract_z
Si Si1 0.000000 0.687809 0.598744
Si Si2 0.115263 0.884738 0.711019
Si Si3 0.282606 0.282606 0.168293
Si Si4 0.163160 0.000000 0.600591
Si Si5 0.359312 0.834615 0.150065
Si Si6 0.262812 0.931015 0.899361
Si Si7 0.134790 0.134790 0.894693
O O1 0.933388 0.668844 0.638534
O O2 0.000000 0.665008 0.500000
O O3 0.000000 0.762426 0.598511
O O4 0.168027 0.831974 0.703647
O O5 0.057934 0.859513 0.656287
O O6 0.101000 0.899001 0.812699
O O7 0.250000 0.250000 0.250000
O O8 0.228140 0.322218 0.120134
O O9 0.141460 0.000000 0.500000
O O10 0.343124 0.843124 0.250000
O O11 0.327460 0.895255 0.109638
O O12 0.206037 0.885063 0.875713
O O13 0.260303 0.000000 0.856811
O O14 0.252540 0.940138 0.000000
O O15 0.122956 0.122956 0.000000
#
# Coordination Sequence:
#
# PCOD9571749 Si02
#       7
#    16  16  16  16  32  32  16
#     4  11  24  42  62  97 134 169 216 281 339 393
#     4  12  23  43  69  92 136 179 221 279 334 383
#     4  10  20  37  60 100 128 163 215 277 337 391
#     4  11  26  45  67  97 132 182 235 275 333 399
#     4  11  22  37  65  94 128 166 220 272 328 400
#     4  10  22  40  63  91 129 169 208 264 331 399
#     4  10  22  39  66 104 132 163 217 272 334 407
#
# _framework density 20.182189999999999
#
# number of rings (size 3 to 8) (size 9 to 14) (size 15 to 20)
#    0.000    1.333    2.222    4.333    3.111    0.222 
#    0.000    2.778    0.000    2.333    0.000    3.111 
#    0.000    0.000    0.000    0.000    0.000    0.000 
#
# Total GULP energy -401104.017287 kJ/mol
# GULP energy per Si atom -5570.889129 kJ/mol
# Density = 2.013625 g / cm^3
# Si number density = 20.182190 Si / 1000 Ang^3
#
#
#
# Elastic Constant Matrix: (Units=GPa)
#
#
# Indices 1 2 3 4 5 6 
#
# 1 140.5518 84.4377 30.3326 0.0000 0.0000 0.0000
# 2 84.4377 140.5518 30.3326 0.0000 0.0000 0.0000
# 3 30.3326 30.3326 90.5406 0.0000 0.0000 0.0000
# 4 0.0000 0.0000 0.0000 54.8778 0.0000 0.0000
# 5 0.0000 0.0000 0.0000 0.0000 54.8778 0.0000
# 6 0.0000 0.0000 0.0000 0.0000 0.0000 12.2944
#
#
#
# Elastic Compliance Matrix: (Units=1/GPa)
#
#
# Indices 1 2 3 4 5 6 
#
# 1 0.011353 -0.006467 -0.001637 0.000000 0.000000 0.000000
# 2 -0.006467 0.011353 -0.001637 0.000000 0.000000 0.000000
# 3 -0.001637 -0.001637 0.012142 0.000000 0.000000 0.000000
# 4 0.000000 0.000000 0.000000 0.018222 0.000000 0.000000
# 5 0.000000 0.000000 0.000000 0.000000 0.018222 0.000000
# 6 0.000000 0.000000 0.000000 0.000000 0.000000 0.081338
#
#
# Mechanical properties :
#
#
# Convention : Reuss Voigt Hill
#
# Bulk Modulus (GPa) = 65.07880 73.53890 69.30885
# Shear Modulus (GPa) = 28.21112 39.51275 33.86194
#
# Velocity S-wave (km/s) = 3.74280 4.42951 4.10056
# Velocity P-wave (km/s) = 7.14099 7.91690 7.53894
#
# Compressibility (1/GPa) = 0.01536599
#
# Stress axis : x y z
#
# Youngs Moduli (GPa) = 88.07918 88.07918 82.36185
#
# Poissons Ratio (x) = 0.56964 0.13482
# Poissons Ratio (y) = 0.56964 0.13482
# Poissons Ratio (z) = 0.14418 0.14418
#
# Static dielectric constant tensor:
#      x y z
#    x 1.672560 0.000000 0.000000 
#    y 0.000000 1.672560 0.000000 
#    z 0.000000 0.000000 1.582290 
# 
# From -- ./inp_files/8321.got.cif
#   From: 2010.05.17/outbox.cif.g08.bks.cpg/sg139_5_cif.got.tgz:8321.got - 2010.05.20 13:14:44.
