data_PCOD9571128
_publ_section_title
;
Structure prediction by ZEFSAII (Michael W. Deem and Ramdas Pophale) SiO2 
 PCOD9571128
Probable space group: P 42/N C M
;
_chemical_formula_sum "Si O2"
_cell_formula_units_Z 64
_cell_length_a 14.090449
_cell_length_b 14.090449
_cell_length_c 12.812396
_cell_angle_alpha 90.000000
_cell_angle_beta 90.000000
_cell_angle_gamma 90.000000
_cell_volume 2543.782750
_symmetry_space_group_name_H-M "P 42/N C M"
_symmetry_group_IT_number 138
_space_group.IT_coordinate_system_code '2'
_symmetry_cell_setting 'tetragonal'
loop_
_space_group_symop_operation_xyz
x,y,z
1/2-y,x,1/2+z
1/2-x,1/2-y,z
y,1/2-x,1/2+z
1/2+x,-y,1/2-z
-x,1/2+y,1/2-z
1/2+y,1/2+x,-z
-y,-x,-z
-x,-y,-z
1/2+y,-x,1/2-z
1/2+x,1/2+y,-z
-y,1/2+x,1/2-z
1/2-x,y,1/2+z
x,1/2-y,1/2+z
1/2-y,1/2-x,z
y,x,z
loop_
_atom_site_type_symbol
_atom_site_label
_atom_site_fract_x
_atom_site_fract_y
_atom_site_fract_z
Si Si1 0.040049 0.616029 0.401069
Si Si2 0.403318 0.258002 0.845620
Si Si3 0.959422 0.690696 0.888781
Si Si4 0.447953 0.610862 0.663066
O O1 0.108512 0.608512 0.500000
O O2 0.079532 0.631907 0.284010
O O3 0.981797 0.518204 0.394475
O O4 0.968031 0.701648 0.422769
O O5 0.324595 0.175406 0.827255
O O6 0.344449 0.344449 0.896476
O O7 0.436798 0.298722 0.734378
O O8 0.496831 0.201379 0.883888
O O9 0.874911 0.625090 0.934084
O O10 0.060499 0.638178 0.895326
O O11 0.527045 0.527045 0.665420
#
# Coordination Sequence:
#
# PCOD9571128 Si02
#       4
#    16  16  16  16
#     4   9  17  29  46  70 102 140 181 225 274 323
#     4   8  13  22  38  62  90 120 159 206 252 302
#     4   9  15  24  43  70  99 135 179 220 261 315
#     4   8  14  24  40  67  99 130 169 217 266 314
#
# _framework density 25.159382000000001
#
# number of rings (size 3 to 8) (size 9 to 14) (size 15 to 20)
#    0.000    3.500    0.000    2.250    0.000    1.500 
#    0.000    0.000    0.000   15.000    0.000   28.000 
#    0.000   27.000    0.000    9.000    0.000   13.500 
#
# Total GULP energy -357220.774872 kJ/mol
# GULP energy per Si atom -5581.574607 kJ/mol
# Density = 2.510212 g / cm^3
# Si number density = 25.159382 Si / 1000 Ang^3
#
#
#
# Elastic Constant Matrix: (Units=GPa)
#
#
# Indices 1 2 3 4 5 6 
#
# 1 54.1304 47.6106 20.0713 0.0000 0.0000 0.0000
# 2 47.6106 54.1304 20.0713 0.0000 0.0000 0.0000
# 3 20.0713 20.0713 72.2539 0.0000 0.0000 0.0000
# 4 0.0000 0.0000 0.0000 30.9446 0.0000 0.0000
# 5 0.0000 0.0000 0.0000 0.0000 30.9446 0.0000
# 6 0.0000 0.0000 0.0000 0.0000 0.0000 16.6919
#
#
#
# Elastic Compliance Matrix: (Units=1/GPa)
#
#
# Indices 1 2 3 4 5 6 
#
# 1 0.082209 -0.071170 -0.003066 0.000000 0.000000 0.000000
# 2 -0.071170 0.082209 -0.003066 0.000000 0.000000 0.000000
# 3 -0.003066 -0.003066 0.015544 0.000000 0.000000 0.000000
# 4 0.000000 0.000000 0.000000 0.032316 0.000000 0.000000
# 5 0.000000 0.000000 0.000000 0.000000 0.032316 0.000000
# 6 0.000000 0.000000 0.000000 0.000000 0.000000 0.059909
#
#
# Mechanical properties :
#
#
# Convention : Reuss Voigt Hill
#
# Bulk Modulus (GPa) = 39.43919 39.55790 39.49855
# Shear Modulus (GPa) = 10.69377 21.90033 16.29705
#
# Velocity S-wave (km/s) = 2.06389 2.95356 2.54786
# Velocity P-wave (km/s) = 4.62486 5.23340 4.93851
#
# Compressibility (1/GPa) = 0.02535549
#
# Stress axis : x y z
#
# Youngs Moduli (GPa) = 12.16408 12.16408 64.33460
#
# Poissons Ratio (x) = 0.86572 0.19728
# Poissons Ratio (y) = 0.86572 0.19728
# Poissons Ratio (z) = 0.03730 0.03730
#
# Static dielectric constant tensor:
#      x y z
#    x 1.975590 0.000000 0.000000 
#    y 0.000000 1.975590 0.000000 
#    z 0.000000 0.000000 2.115660 
# 
# From -- ./inp_files/3874.got.cif
#   From: 2010.05.17/outbox.cif.g08.bks.cpg/sg138_2_cif.got.tgz:3874.got - 2010.05.20 13:08:53.
