data_PCOD9571637
_publ_section_title
;
Structure prediction by ZEFSAII (Michael W. Deem and Ramdas Pophale) SiO2 
 PCOD9571637
Probable space group: I 4/M M M
;
_chemical_formula_sum "Si O2"
_cell_formula_units_Z 240
_cell_length_a 21.591150
_cell_length_b 21.591150
_cell_length_c 27.101017
_cell_angle_alpha 90.000000
_cell_angle_beta 90.000000
_cell_angle_gamma 90.000000
_cell_volume 12633.891353
_symmetry_space_group_name_H-M "I 4/M M M"
_symmetry_group_IT_number 139
_symmetry_cell_setting 'tetragonal'
loop_
_space_group_symop_operation_xyz
x,y,z
-y,x,z
-x,-y,z
y,-x,z
x,-y,-z
-x,y,-z
y,x,-z
-y,-x,-z
-x,-y,-z
y,-x,-z
x,y,-z
-y,x,-z
-x,y,z
x,-y,z
-y,-x,z
y,x,z
1/2+x,1/2+y,1/2+z
1/2-y,1/2+x,1/2+z
1/2-x,1/2-y,1/2+z
1/2+y,1/2-x,1/2+z
1/2+x,1/2-y,1/2-z
1/2-x,1/2+y,1/2-z
1/2+y,1/2+x,1/2-z
1/2-y,1/2-x,1/2-z
1/2-x,1/2-y,1/2-z
1/2+y,1/2-x,1/2-z
1/2+x,1/2+y,1/2-z
1/2-y,1/2+x,1/2-z
1/2-x,1/2+y,1/2+z
1/2+x,1/2-y,1/2+z
1/2-y,1/2-x,1/2+z
1/2+y,1/2+x,1/2+z
loop_
_atom_site_type_symbol
_atom_site_label
_atom_site_fract_x
_atom_site_fract_y
_atom_site_fract_z
Si Si1 0.071006 0.785676 0.714071
Si Si2 0.074427 0.826041 0.176394
Si Si3 0.424161 0.070944 0.500000
Si Si4 0.324906 0.574815 0.104706
Si Si5 0.770178 0.666447 0.645037
Si Si6 0.269310 0.162975 0.443937
Si Si7 0.647360 0.109641 0.701213
Si Si8 0.925856 0.569792 0.606606
O O1 0.093818 0.808382 0.767178
O O2 0.093859 0.811156 0.661700
O O3 0.076267 0.711905 0.710475
O O4 0.000000 0.805307 0.714601
O O5 0.110025 0.889976 0.164365
O O6 0.104329 0.771050 0.143655
O O7 0.000000 0.829207 0.172472
O O8 0.500000 0.069201 0.500000
O O9 0.407446 0.098137 0.446742
O O10 0.401081 0.000000 0.500000
O O11 0.330743 0.500000 0.100554
O O12 0.386520 0.613480 0.089461
O O13 0.265454 0.600913 0.074870
O O14 0.722032 0.722032 0.653295
O O15 0.809323 0.683327 0.596235
O O16 0.818580 0.661833 0.689593
O O17 0.292074 0.156113 0.500000
O O18 0.214237 0.214237 0.444817
O O19 0.606049 0.106049 0.750000
O O20 0.612733 0.086863 0.652764
O O21 0.902107 0.500000 0.615763
O O22 0.000000 0.565845 0.601197
#
# Coordination Sequence:
#
# PCOD9571637 Si02
#       8
#    32  32  16  32  32  32  32  32
#     4  10  20  34  50  74 111 150 193 240 286 338
#     4  10  21  37  59  86 116 150 186 229 282 344
#     4   7  12  30  56  74  95 136 188 238 281 330
#     4  10  20  34  54  80 113 154 200 252 304 352
#     4  10  21  37  57  81 107 143 188 233 283 339
#     4   9  18  35  59  83 109 144 187 237 295 353
#     4  12  22  33  51  80 110 148 187 241 286 347
#     4   9  19  35  54  76 106 147 193 237 287 345
#
# _framework density 18.996521999999999
#
# number of rings (size 3 to 8) (size 9 to 14) (size 15 to 20)
#    0.000    2.200    2.667    1.600    0.000    2.933 
#    1.200    0.667    0.000    2.800    0.000    1.867 
#    0.000    0.000    0.000    5.333    0.000    0.000 
#
# Total GULP energy -668733.808174 kJ/mol
# GULP energy per Si atom -5572.781735 kJ/mol
# Density = 1.895329 g / cm^3
# Si number density = 18.996522 Si / 1000 Ang^3
#
#
#
# Elastic Constant Matrix: (Units=GPa)
#
#
# Indices 1 2 3 4 5 6 
#
# 1 61.7852 27.2685 38.3545 0.0000 0.0000 0.0000
# 2 27.2685 61.7852 38.3545 0.0000 0.0000 0.0000
# 3 38.3545 38.3545 113.3084 0.0000 0.0000 0.0000
# 4 0.0000 0.0000 0.0000 23.1967 0.0000 0.0000
# 5 0.0000 0.0000 0.0000 0.0000 23.1967 0.0000
# 6 0.0000 0.0000 0.0000 0.0000 0.0000 19.1956
#
#
#
# Elastic Compliance Matrix: (Units=1/GPa)
#
#
# Indices 1 2 3 4 5 6 
#
# 1 0.022411 -0.006560 -0.005365 0.000000 0.000000 0.000000
# 2 -0.006560 0.022411 -0.005365 0.000000 0.000000 0.000000
# 3 -0.005365 -0.005365 0.012458 0.000000 0.000000 0.000000
# 4 0.000000 0.000000 0.000000 0.043110 0.000000 0.000000
# 5 0.000000 0.000000 0.000000 0.000000 0.043110 0.000000
# 6 0.000000 0.000000 0.000000 0.000000 0.000000 0.052095
#
#
# Mechanical properties :
#
#
# Convention : Reuss Voigt Hill
#
# Bulk Modulus (GPa) = 44.05721 49.42595 46.74158
# Shear Modulus (GPa) = 21.03110 21.97789 21.50449
#
# Velocity S-wave (km/s) = 3.33093 3.40508 3.36820
# Velocity P-wave (km/s) = 6.16733 6.44471 6.30755
#
# Compressibility (1/GPa) = 0.02269776
#
# Stress axis : x y z
#
# Youngs Moduli (GPa) = 44.62057 44.62056 80.27074
#
# Poissons Ratio (x) = 0.29272 0.43069
# Poissons Ratio (y) = 0.29272 0.43069
# Poissons Ratio (z) = 0.23941 0.23941
#
# Static dielectric constant tensor:
#      x y z
#    x 1.681210 0.000000 0.000000 
#    y 0.000000 1.681210 0.000000 
#    z 0.000000 0.000000 1.691380 
# 
# From -- ./inp_files/13398.got.cif
#   From: 2010.05.17/outbox.cif.g08.bks.cpg/sg139_7_cif.got.tgz:13398.got - 2010.05.20 13:14:44.
