data_PCOD9571462
_publ_section_title
;
Structure prediction by ZEFSAII (Michael W. Deem and Ramdas Pophale) SiO2 
 PCOD9571462
Probable space group: I 4/M M M
;
_chemical_formula_sum "Si O2"
_cell_formula_units_Z 136
_cell_length_a 17.779568
_cell_length_b 17.779568
_cell_length_c 26.291932
_cell_angle_alpha 90.000000
_cell_angle_beta 90.000000
_cell_angle_gamma 90.000000
_cell_volume 8311.222506
_symmetry_space_group_name_H-M "I 4/M M M"
_symmetry_group_IT_number 139
_symmetry_cell_setting 'tetragonal'
loop_
_space_group_symop_operation_xyz
x,y,z
-y,x,z
-x,-y,z
y,-x,z
x,-y,-z
-x,y,-z
y,x,-z
-y,-x,-z
-x,-y,-z
y,-x,-z
x,y,-z
-y,x,-z
-x,y,z
x,-y,z
-y,-x,z
y,x,z
1/2+x,1/2+y,1/2+z
1/2-y,1/2+x,1/2+z
1/2-x,1/2-y,1/2+z
1/2+y,1/2-x,1/2+z
1/2+x,1/2-y,1/2-z
1/2-x,1/2+y,1/2-z
1/2+y,1/2+x,1/2-z
1/2-y,1/2-x,1/2-z
1/2-x,1/2-y,1/2-z
1/2+y,1/2-x,1/2-z
1/2+x,1/2+y,1/2-z
1/2-y,1/2+x,1/2-z
1/2-x,1/2+y,1/2+z
1/2+x,1/2-y,1/2+z
1/2-y,1/2-x,1/2+z
1/2+y,1/2+x,1/2+z
loop_
_atom_site_type_symbol
_atom_site_label
_atom_site_fract_x
_atom_site_fract_y
_atom_site_fract_z
Si Si1 0.588172 0.215690 0.631609
Si Si2 0.826145 0.173855 0.590132
Si Si3 0.910518 0.910518 0.500000
Si Si4 0.212181 0.087021 0.756884
Si Si5 0.703440 0.296561 0.440933
Si Si6 0.088359 0.703217 0.655469
O O1 0.500000 0.206590 0.620766
O O2 0.596235 0.256874 0.686147
O O3 0.631446 0.264203 0.589131
O O4 0.632229 0.137224 0.637982
O O5 0.872511 0.127490 0.548968
O O6 0.767747 0.232254 0.564297
O O7 0.880710 0.224796 0.624606
O O8 0.000000 0.897367 0.500000
O O9 0.144578 0.144578 0.748391
O O10 0.276407 0.101109 0.714744
O O11 0.188336 0.000000 0.750380
O O12 0.688574 0.311427 0.500000
O O13 0.000000 0.692437 0.647027
#
# Coordination Sequence:
#
# PCOD9571462 Si02
#       6
#    32  16   8  32  16  32
#     4  10  21  35  55  81 108 140 179 222 269 326
#     4  10  19  35  54  76 102 136 185 217 255 310
#     4  11  22  34  50  72 104 140 172 215 264 308
#     4  10  19  33  53  80 111 143 178 216 261 320
#     4  10  20  36  59  79  98 137 184 230 274 313
#     4  10  20  33  54  81 111 144 175 215 264 317
#
# _framework density 16.363416999999998
#
# number of rings (size 3 to 8) (size 9 to 14) (size 15 to 20)
#    0.000    1.941    2.941    1.412    0.000    2.118 
#    0.000    0.000    0.000    4.588    0.000    4.118 
#    0.000    0.000    0.000    0.000    0.000    0.000 
#
# Total GULP energy -379400.927036 kJ/mol
# GULP energy per Si atom -5579.425398 kJ/mol
# Density = 1.632617 g / cm^3
# Si number density = 16.363417 Si / 1000 Ang^3
#
#
#
# Elastic Constant Matrix: (Units=GPa)
#
#
# Indices 1 2 3 4 5 6 
#
# 1 116.1872 89.4170 57.5991 0.0000 0.0000 0.0000
# 2 89.4170 116.1872 57.5989 0.0000 0.0000 0.0000
# 3 57.5991 57.5989 126.0311 0.0000 0.0000 0.0000
# 4 0.0000 0.0000 0.0000 19.7904 0.0000 0.0000
# 5 0.0000 0.0000 0.0000 0.0000 19.7903 0.0000
# 6 0.0000 0.0000 0.0000 0.0000 0.0000 16.9602
#
#
#
# Elastic Compliance Matrix: (Units=1/GPa)
#
#
# Indices 1 2 3 4 5 6 
#
# 1 0.021946 -0.015409 -0.002988 0.000000 0.000000 0.000000
# 2 -0.015409 0.021946 -0.002988 0.000000 0.000000 0.000000
# 3 -0.002988 -0.002988 0.010666 0.000000 0.000000 0.000000
# 4 0.000000 0.000000 0.000000 0.050530 0.000000 0.000000
# 5 0.000000 0.000000 0.000000 0.000000 0.050530 0.000000
# 6 0.000000 0.000000 0.000000 0.000000 0.000000 0.058961
#
#
# Mechanical properties :
#
#
# Convention : Reuss Voigt Hill
#
# Bulk Modulus (GPa) = 84.82070 85.29284 85.05677
# Shear Modulus (GPa) = 19.13671 21.56089 20.34880
#
# Velocity S-wave (km/s) = 3.42348 3.63385 3.53023
# Velocity P-wave (km/s) = 8.22040 8.35726 8.28911
#
# Compressibility (1/GPa) = 0.01178957
#
# Stress axis : x y z
#
# Youngs Moduli (GPa) = 45.56550 45.56561 93.75892
#
# Poissons Ratio (x) = 0.70210 0.28015
# Poissons Ratio (y) = 0.70210 0.28014
# Poissons Ratio (z) = 0.13615 0.13614
#
# Static dielectric constant tensor:
#      x y z
#    x 1.527130 0.000000 0.000000 
#    y 0.000000 1.527130 0.000000 
#    z 0.000000 0.000000 1.544850 
# 
# From -- ./inp_files/11525.got.cif
#   From: 2010.05.17/outbox.cif.g08.bks.cpg/sg139_6_cif.got.tgz:11525.got - 2010.05.20 13:14:44.
