data_PCOD9571847
_publ_section_title
;
Structure prediction by ZEFSAII (Michael W. Deem and Ramdas Pophale) SiO2 
 PCOD9571847
Probable space group: I 4/M M M
;
_chemical_formula_sum "Si O2"
_cell_formula_units_Z 160
_cell_length_a 22.225165
_cell_length_b 22.225165
_cell_length_c 17.919465
_cell_angle_alpha 90.000000
_cell_angle_beta 90.000000
_cell_angle_gamma 90.000000
_cell_volume 8851.462363
_symmetry_space_group_name_H-M "I 4/M M M"
_symmetry_group_IT_number 139
_symmetry_cell_setting 'tetragonal'
loop_
_space_group_symop_operation_xyz
x,y,z
-y,x,z
-x,-y,z
y,-x,z
x,-y,-z
-x,y,-z
y,x,-z
-y,-x,-z
-x,-y,-z
y,-x,-z
x,y,-z
-y,x,-z
-x,y,z
x,-y,z
-y,-x,z
y,x,z
1/2+x,1/2+y,1/2+z
1/2-y,1/2+x,1/2+z
1/2-x,1/2-y,1/2+z
1/2+y,1/2-x,1/2+z
1/2+x,1/2-y,1/2-z
1/2-x,1/2+y,1/2-z
1/2+y,1/2+x,1/2-z
1/2-y,1/2-x,1/2-z
1/2-x,1/2-y,1/2-z
1/2+y,1/2-x,1/2-z
1/2+x,1/2+y,1/2-z
1/2-y,1/2+x,1/2-z
1/2-x,1/2+y,1/2+z
1/2+x,1/2-y,1/2+z
1/2-y,1/2-x,1/2+z
1/2+y,1/2+x,1/2+z
loop_
_atom_site_type_symbol
_atom_site_label
_atom_site_fract_x
_atom_site_fract_y
_atom_site_fract_z
Si Si1 0.129981 0.227757 0.645616
Si Si2 0.928567 0.169095 0.500000
Si Si3 0.071595 0.831775 0.791412
Si Si4 0.735726 0.072444 0.085162
Si Si5 0.000000 0.571857 0.589774
Si Si6 0.870573 0.619267 0.838678
O O1 0.195794 0.195794 0.644617
O O2 0.095078 0.203998 0.572884
O O3 0.096291 0.202907 0.718836
O O4 0.128606 0.299479 0.648088
O O5 0.895424 0.104577 0.500000
O O6 0.000000 0.164395 0.500000
O O7 0.104486 0.895515 0.794073
O O8 0.088811 0.792433 0.863639
O O9 0.000000 0.836864 0.787519
O O10 0.675794 0.096488 0.124006
O O11 0.732638 0.000000 0.084010
O O12 0.740415 0.094009 0.000000
O O13 0.941276 0.603728 0.624128
O O14 0.000000 0.500000 0.606500
O O15 0.000000 0.578364 0.500000
O O16 0.881969 0.618032 0.750000
#
# Coordination Sequence:
#
# PCOD9571847 Si02
#       6
#    32  16  32  32  16  32
#     4  10  23  40  58  90 127 160 204 257 307 365
#     4  10  22  39  62  88 124 162 202 256 305 369
#     4  10  21  39  63  90 123 159 199 251 305 365
#     4  10  22  41  62  86 120 161 203 247 301 363
#     4  11  28  46  62  92 130 164 210 266 313 374
#     4  12  25  38  66  91 120 166 207 256 312 368
#
# _framework density 18.076108999999999
#
# number of rings (size 3 to 8) (size 9 to 14) (size 15 to 20)
#    0.000    1.500    2.000    1.800    8.400    3.500 
#    0.000    0.000    0.000    3.600    0.000    2.800 
#    0.000    0.000    0.000    0.000    0.000    0.000 
#
# Total GULP energy -446968.876716 kJ/mol
# GULP energy per Si atom -5587.110959 kJ/mol
# Density = 1.803497 g / cm^3
# Si number density = 18.076109 Si / 1000 Ang^3
#
#
#
# Elastic Constant Matrix: (Units=GPa)
#
#
# Indices 1 2 3 4 5 6 
#
# 1 89.6232 45.7942 39.5073 0.0000 0.0000 0.0000
# 2 45.7942 89.6241 39.5075 0.0000 0.0000 0.0000
# 3 39.5073 39.5075 150.7990 0.0000 0.0000 0.0000
# 4 0.0000 0.0000 0.0000 -0.7536 0.0000 0.0000
# 5 0.0000 0.0000 0.0000 0.0000 -0.6976 0.0000
# 6 0.0000 0.0000 0.0000 0.0000 0.0000 25.4793
#
#
#
# Elastic Compliance Matrix: (Units=1/GPa)
#
#
# Indices 1 2 3 4 5 6 
#
# 1 0.015766 -0.007049 -0.002284 0.000000 0.000000 0.000000
# 2 -0.007049 0.015766 -0.002284 0.000000 0.000000 0.000000
# 3 -0.002284 -0.002284 0.007828 0.000000 0.000000 0.000000
# 4 0.000000 0.000000 0.000000 -1.326912 0.000000 0.000000
# 5 0.000000 0.000000 0.000000 0.000000 -1.433444 0.000000
# 6 0.000000 0.000000 0.000000 0.000000 0.000000 0.039248
#
#
# Mechanical properties :
#
#
# Convention : Reuss Voigt Hill
#
# Bulk Modulus (GPa) = 62.00740 64.40716 63.20728
# Shear Modulus (GPa) = -1.88456 18.48809 8.30177
#
# Velocity S-wave (km/s) = -1.02217 3.20158 2.14538
# Velocity P-wave (km/s) = 5.74325 7.02675 6.41717
#
# Compressibility (1/GPa) = 0.01612711
#
# Stress axis : x y z
#
# Youngs Moduli (GPa) = 63.42566 63.42633 127.74690
#
# Poissons Ratio (x) = 0.44711 0.29175
# Poissons Ratio (y) = 0.44711 0.29174
# Poissons Ratio (z) = 0.14485 0.14485
#
# Static dielectric constant tensor:
#      x y z
#    x 1.595340 0.000000 0.000000 
#    y 0.000000 1.595340 0.000000 
#    z 0.000000 0.000000 1.609340 
# 
# From -- ./inp_files/8423.got.cif
#   From: 2010.05.17/outbox.cif.g08.bks.cpg/sg139_5_cif.got.tgz:8423.got - 2010.05.20 13:14:44.
