data_PCOD9571692
_publ_section_title
;
Structure prediction by ZEFSAII (Michael W. Deem and Ramdas Pophale) SiO2 
 PCOD9571692
Probable space group: I 4/M M M
;
_chemical_formula_sum "Si O2"
_cell_formula_units_Z 176
_cell_length_a 23.561063
_cell_length_b 23.561063
_cell_length_c 17.850064
_cell_angle_alpha 90.000000
_cell_angle_beta 90.000000
_cell_angle_gamma 90.000000
_cell_volume 9908.993389
_symmetry_space_group_name_H-M "I 4/M M M"
_symmetry_group_IT_number 139
_symmetry_cell_setting 'tetragonal'
loop_
_space_group_symop_operation_xyz
x,y,z
-y,x,z
-x,-y,z
y,-x,z
x,-y,-z
-x,y,-z
y,x,-z
-y,-x,-z
-x,-y,-z
y,-x,-z
x,y,-z
-y,x,-z
-x,y,z
x,-y,z
-y,-x,z
y,x,z
1/2+x,1/2+y,1/2+z
1/2-y,1/2+x,1/2+z
1/2-x,1/2-y,1/2+z
1/2+y,1/2-x,1/2+z
1/2+x,1/2-y,1/2-z
1/2-x,1/2+y,1/2-z
1/2+y,1/2+x,1/2-z
1/2-y,1/2-x,1/2-z
1/2-x,1/2-y,1/2-z
1/2+y,1/2-x,1/2-z
1/2+x,1/2+y,1/2-z
1/2-y,1/2+x,1/2-z
1/2-x,1/2+y,1/2+z
1/2+x,1/2-y,1/2+z
1/2-y,1/2-x,1/2+z
1/2+y,1/2+x,1/2+z
loop_
_atom_site_type_symbol
_atom_site_label
_atom_site_fract_x
_atom_site_fract_y
_atom_site_fract_z
Si Si1 0.737705 0.434602 0.645742
Si Si2 0.063815 0.158697 0.000000
Si Si3 0.139596 0.338819 0.910975
Si Si4 0.566975 0.066906 0.662516
Si Si5 0.135628 0.230671 0.412488
Si Si6 0.337806 0.566726 0.793505
O O1 0.759478 0.500000 0.649344
O O2 0.697873 0.430223 0.572960
O O3 0.788353 0.390367 0.634724
O O4 0.699186 0.424458 0.718361
O O5 0.110132 0.110132 0.000000
O O6 0.000000 0.134735 0.000000
O O7 0.104552 0.395064 0.891137
O O8 0.205125 0.349179 0.890762
O O9 0.136383 0.326270 0.000000
O O10 0.500000 0.077619 0.650865
O O11 0.579772 0.079772 0.750000
O O12 0.576831 0.000000 0.651339
O O13 0.118966 0.230864 0.500000
O O14 0.191240 0.191240 0.404922
O O15 0.087905 0.201696 0.361633
O O16 0.351492 0.500000 0.799323
O O17 0.393384 0.606617 0.791708
#
# Coordination Sequence:
#
# PCOD9571692 Si02
#       6
#    32  16  32  32  32  32
#     4  10  21  36  54  83 117 150 191 241 288 330
#     4  10  20  35  54  78 113 151 191 241 292 342
#     4  11  22  36  57  85 111 151 199 235 278 337
#     4   9  20  37  55  78 111 149 188 235 286 332
#     4   9  21  40  58  82 116 148 182 229 285 338
#     4  10  22  40  62  87 115 148 187 234 289 348
#
# _framework density 17.761642999999999
#
# number of rings (size 3 to 8) (size 9 to 14) (size 15 to 20)
#    0.000    2.182    0.909    1.636    2.545    4.273 
#    0.000    4.545    0.000    3.273    0.000    2.545 
#    0.000    0.000    0.000    0.000    0.000    0.000 
#
# Total GULP energy -491229.527766 kJ/mol
# GULP energy per Si atom -5582.153725 kJ/mol
# Density = 1.772122 g / cm^3
# Si number density = 17.761643 Si / 1000 Ang^3
#
#
#
# Elastic Constant Matrix: (Units=GPa)
#
#
# Indices 1 2 3 4 5 6 
#
# 1 99.5456 72.6284 55.7805 0.0000 0.0000 0.0000
# 2 72.6284 99.5456 55.7805 0.0000 0.0000 0.0000
# 3 55.7805 55.7805 72.2866 0.0000 0.0000 0.0000
# 4 0.0000 0.0000 0.0000 25.0915 0.0000 0.0000
# 5 0.0000 0.0000 0.0000 0.0000 25.0915 0.0000
# 6 0.0000 0.0000 0.0000 0.0000 0.0000 19.2414
#
#
#
# Elastic Compliance Matrix: (Units=1/GPa)
#
#
# Indices 1 2 3 4 5 6 
#
# 1 0.024384 -0.012767 -0.008964 0.000000 0.000000 0.000000
# 2 -0.012767 0.024384 -0.008964 0.000000 0.000000 0.000000
# 3 -0.008964 -0.008964 0.027668 0.000000 0.000000 0.000000
# 4 0.000000 0.000000 0.000000 0.039854 0.000000 0.000000
# 5 0.000000 0.000000 0.000000 0.000000 0.039854 0.000000
# 6 0.000000 0.000000 0.000000 0.000000 0.000000 0.051971
#
#
# Mechanical properties :
#
#
# Convention : Reuss Voigt Hill
#
# Bulk Modulus (GPa) = 66.46656 71.08407 68.77531
# Shear Modulus (GPa) = 18.21367 19.69743 18.95555
#
# Velocity S-wave (km/s) = 3.20574 3.33376 3.27037
# Velocity P-wave (km/s) = 7.15577 7.41125 7.28463
#
# Compressibility (1/GPa) = 0.01504516
#
# Stress axis : x y z
#
# Youngs Moduli (GPa) = 41.01119 41.01119 36.14324
#
# Poissons Ratio (x) = 0.52361 0.32398
# Poissons Ratio (y) = 0.52361 0.32398
# Poissons Ratio (z) = 0.36761 0.36761
#
# Static dielectric constant tensor:
#      x y z
#    x 1.584320 0.000000 0.000000 
#    y 0.000000 1.584320 0.000000 
#    z 0.000000 0.000000 1.603430 
# 
# From -- ./inp_files/6127.got.cif
#   From: 2010.05.17/outbox.cif.g08.bks.cpg/sg139_4_cif.got.tgz:6127.got - 2010.05.20 13:14:44.
