data_PCOD9571896
_publ_section_title
;
Structure prediction by ZEFSAII (Michael W. Deem and Ramdas Pophale) SiO2 
 PCOD9571896
Probable space group: I 4/M M M
;
_chemical_formula_sum "Si O2"
_cell_formula_units_Z 128
_cell_length_a 25.502823
_cell_length_b 25.502823
_cell_length_c 10.363185
_cell_angle_alpha 90.000000
_cell_angle_beta 90.000000
_cell_angle_gamma 90.000000
_cell_volume 6740.153148
_symmetry_space_group_name_H-M "I 4/M M M"
_symmetry_group_IT_number 139
_symmetry_cell_setting 'tetragonal'
loop_
_space_group_symop_operation_xyz
x,y,z
-y,x,z
-x,-y,z
y,-x,z
x,-y,-z
-x,y,-z
y,x,-z
-y,-x,-z
-x,-y,-z
y,-x,-z
x,y,-z
-y,x,-z
-x,y,z
x,-y,z
-y,-x,z
y,x,z
1/2+x,1/2+y,1/2+z
1/2-y,1/2+x,1/2+z
1/2-x,1/2-y,1/2+z
1/2+y,1/2-x,1/2+z
1/2+x,1/2-y,1/2-z
1/2-x,1/2+y,1/2-z
1/2+y,1/2+x,1/2-z
1/2-y,1/2-x,1/2-z
1/2-x,1/2-y,1/2-z
1/2+y,1/2-x,1/2-z
1/2+x,1/2+y,1/2-z
1/2-y,1/2+x,1/2-z
1/2-x,1/2+y,1/2+z
1/2+x,1/2-y,1/2+z
1/2-y,1/2-x,1/2+z
1/2+y,1/2+x,1/2+z
loop_
_atom_site_type_symbol
_atom_site_label
_atom_site_fract_x
_atom_site_fract_y
_atom_site_fract_z
Si Si1 0.147391 0.717741 0.000000
Si Si2 0.368323 0.062273 0.000000
Si Si3 0.161706 0.753532 0.500000
Si Si4 0.000000 0.082562 0.156745
Si Si5 0.061842 0.561842 0.250000
Si Si6 0.292451 0.378882 0.272027
Si Si7 0.700389 0.500000 0.344286
O O1 0.093400 0.685510 0.000000
O O2 0.149634 0.754785 0.875082
O O3 0.192410 0.674084 0.000000
O O4 0.402506 0.074635 0.872907
O O5 0.358521 0.000000 0.000000
O O6 0.217942 0.782059 0.500000
O O7 0.132705 0.772902 0.628114
O O8 0.050431 0.050431 0.198434
O O9 0.000000 0.140514 0.201951
O O10 0.000000 0.083126 0.000000
O O11 0.068896 0.500000 0.218932
O O12 0.350388 0.350388 0.287120
O O13 0.283989 0.441169 0.299603
O O14 0.704491 0.500000 0.500000
#
# Coordination Sequence:
#
# PCOD9571896 Si02
#       7
#    16  16  16  16  16  32  16
#     4  12  24  39  65  90 123 164 211 258 310 362
#     4  10  23  36  58  89 125 158 201 259 315 375
#     4  10  24  45  66  90 120 161 211 259 300 366
#     4   8  14  25  45  77 116 154 192 235 285 344
#     4   9  18  38  62  86 117 162 210 256 313 380
#     4  11  24  42  66  94 125 165 210 256 315 374
#     4  11  21  35  60  89 126 160 201 253 308 364
#
# _framework density 18.990666999999998
#
# number of rings (size 3 to 8) (size 9 to 14) (size 15 to 20)
#    0.000    1.750    1.250    3.375    5.250    5.000 
#    0.000    0.000    2.750    0.000    0.000    0.000 
#    0.000    8.000    0.000    0.000    0.000    0.000 
#
# Total GULP energy -356734.755427 kJ/mol
# GULP energy per Si atom -5573.980554 kJ/mol
# Density = 1.894744 g / cm^3
# Si number density = 18.990667 Si / 1000 Ang^3
#
#
#
# Elastic Constant Matrix: (Units=GPa)
#
#
# Indices 1 2 3 4 5 6 
#
# 1 74.0149 33.5005 38.4674 0.0000 0.0000 0.0000
# 2 33.5005 74.0161 38.4679 0.0000 0.0000 0.0000
# 3 38.4674 38.4679 119.6425 0.0000 0.0000 0.0000
# 4 0.0000 0.0000 0.0000 101.4247 0.0000 0.0000
# 5 0.0000 0.0000 0.0000 0.0000 100.6557 0.0000
# 6 0.0000 0.0000 0.0000 0.0000 0.0000 38.7659
#
#
#
# Elastic Compliance Matrix: (Units=1/GPa)
#
#
# Indices 1 2 3 4 5 6 
#
# 1 0.018381 -0.006301 -0.003884 0.000000 0.000000 0.000000
# 2 -0.006301 0.018381 -0.003884 0.000000 0.000000 0.000000
# 3 -0.003884 -0.003884 0.010856 0.000000 0.000000 0.000000
# 4 0.000000 0.000000 0.000000 0.009860 0.000000 0.000000
# 5 0.000000 0.000000 0.000000 0.000000 0.009935 0.000000
# 6 0.000000 0.000000 0.000000 0.000000 0.000000 0.025796
#
#
# Mechanical properties :
#
#
# Convention : Reuss Voigt Hill
#
# Bulk Modulus (GPa) = 51.33439 54.28279 52.80859
# Shear Modulus (GPa) = 39.11132 58.65178 48.88155
#
# Velocity S-wave (km/s) = 4.54310 5.56341 5.07894
# Velocity P-wave (km/s) = 7.38984 8.36150 7.89064
#
# Compressibility (1/GPa) = 0.01948012
#
# Stress axis : x y z
#
# Youngs Moduli (GPa) = 54.40287 54.40364 92.11615
#
# Poissons Ratio (x) = 0.34280 0.35778
# Poissons Ratio (y) = 0.34279 0.35779
# Poissons Ratio (z) = 0.21130 0.21131
#
# Static dielectric constant tensor:
#      x y z
#    x 1.684580 0.000000 0.000000 
#    y 0.000000 1.684570 0.000000 
#    z 0.000000 0.000000 1.621920 
# 
# From -- ./inp_files/3540.got.cif
#   From: 2010.05.17/outbox.cif.g08.bks.cpg/sg139_2_cif.got.tgz:3540.got - 2010.05.20 13:14:44.
