data_PCOD9571649
_publ_section_title
;
Structure prediction by ZEFSAII (Michael W. Deem and Ramdas Pophale) SiO2 
 PCOD9571649
Probable space group: I 4/M M M
;
_chemical_formula_sum "Si O2"
_cell_formula_units_Z 112
_cell_length_a 18.407280
_cell_length_b 18.407280
_cell_length_c 16.183209
_cell_angle_alpha 90.000000
_cell_angle_beta 90.000000
_cell_angle_gamma 90.000000
_cell_volume 5483.323643
_symmetry_space_group_name_H-M "I 4/M M M"
_symmetry_group_IT_number 139
_symmetry_cell_setting 'tetragonal'
loop_
_space_group_symop_operation_xyz
x,y,z
-y,x,z
-x,-y,z
y,-x,z
x,-y,-z
-x,y,-z
y,x,-z
-y,-x,-z
-x,-y,-z
y,-x,-z
x,y,-z
-y,x,-z
-x,y,z
x,-y,z
-y,-x,z
y,x,z
1/2+x,1/2+y,1/2+z
1/2-y,1/2+x,1/2+z
1/2-x,1/2-y,1/2+z
1/2+y,1/2-x,1/2+z
1/2+x,1/2-y,1/2-z
1/2-x,1/2+y,1/2-z
1/2+y,1/2+x,1/2-z
1/2-y,1/2-x,1/2-z
1/2-x,1/2-y,1/2-z
1/2+y,1/2-x,1/2-z
1/2+x,1/2+y,1/2-z
1/2-y,1/2+x,1/2-z
1/2-x,1/2+y,1/2+z
1/2+x,1/2-y,1/2+z
1/2-y,1/2-x,1/2+z
1/2+y,1/2+x,1/2+z
loop_
_atom_site_type_symbol
_atom_site_label
_atom_site_fract_x
_atom_site_fract_y
_atom_site_fract_z
Si Si1 0.418233 0.918233 0.250000
Si Si2 0.735074 0.085354 0.176656
Si Si3 0.588080 0.777020 0.500000
Si Si4 0.318616 0.916109 0.500000
Si Si5 0.413601 0.296268 0.146893
O O1 0.500000 0.911634 0.214285
O O2 0.352212 0.910307 0.186801
O O3 0.768462 0.111928 0.262632
O O4 0.753612 0.000000 0.175533
O O5 0.756383 0.114682 0.086917
O O6 0.500000 0.775953 0.500000
O O7 0.616771 0.859194 0.500000
O O8 0.267063 0.903901 0.579726
O O9 0.342237 0.000000 0.500000
O O10 0.500000 0.312159 0.149455
O O11 0.365955 0.365955 0.124282
#
# Coordination Sequence:
#
# PCOD9571649 Si02
#       5
#    16  32  16  16  32
#     4   9  16  28  47  70 100 142 187 222 254 303
#     4   9  18  32  50  74 105 140 178 222 265 301
#     4  10  20  34  52  76 110 153 194 217 239 296
#     4  10  21  36  55  83 116 143 172 218 270 314
#     4  10  21  39  60  80 105 136 172 222 283 336
#
# _framework density 20.425568999999999
#
# number of rings (size 3 to 8) (size 9 to 14) (size 15 to 20)
#    0.000    2.429    0.000    2.143    0.000    4.000 
#    0.000   11.429    0.000    2.571    0.000    0.000 
#    0.000    5.714    0.000    0.000    0.000    0.000 
#
# Total GULP energy -312202.083287 kJ/mol
# GULP energy per Si atom -5575.037202 kJ/mol
# Density = 2.037908 g / cm^3
# Si number density = 20.425569 Si / 1000 Ang^3
#
#
#
# Elastic Constant Matrix: (Units=GPa)
#
#
# Indices 1 2 3 4 5 6 
#
# 1 38.8634 27.2556 3.7870 0.0000 0.0000 0.0000
# 2 27.2556 38.8634 3.7870 0.0000 0.0000 0.0000
# 3 3.7870 3.7870 125.6529 0.0000 0.0000 0.0000
# 4 0.0000 0.0000 0.0000 2.5226 0.0000 0.0000
# 5 0.0000 0.0000 0.0000 0.0000 2.5226 0.0000
# 6 0.0000 0.0000 0.0000 0.0000 0.0000 34.4030
#
#
#
# Elastic Compliance Matrix: (Units=1/GPa)
#
#
# Indices 1 2 3 4 5 6 
#
# 1 0.050663 -0.035486 -0.000457 0.000000 0.000000 0.000000
# 2 -0.035486 0.050663 -0.000457 0.000000 0.000000 0.000000
# 3 -0.000457 -0.000457 0.007986 0.000000 0.000000 0.000000
# 4 0.000000 0.000000 0.000000 0.396410 0.000000 0.000000
# 5 0.000000 0.000000 0.000000 0.000000 0.396410 0.000000
# 6 0.000000 0.000000 0.000000 0.000000 0.000000 0.029067
#
#
# Mechanical properties :
#
#
# Convention : Reuss Voigt Hill
#
# Bulk Modulus (GPa) = 27.39002 30.33768 28.86385
# Shear Modulus (GPa) = 4.92044 19.12632 12.02338
#
# Velocity S-wave (km/s) = 1.55377 3.06337 2.42883
# Velocity P-wave (km/s) = 4.08138 5.23425 4.69335
#
# Compressibility (1/GPa) = 0.03650965
#
# Stress axis : x y z
#
# Youngs Moduli (GPa) = 19.73831 19.73831 125.21911
#
# Poissons Ratio (x) = 0.70044 0.05728
# Poissons Ratio (y) = 0.70044 0.05728
# Poissons Ratio (z) = 0.00903 0.00903
#
# Static dielectric constant tensor:
#      x y z
#    x 1.695510 0.000000 0.000000 
#    y 0.000000 1.695510 0.000000 
#    z 0.000000 0.000000 1.811910 
# 
# From -- ./inp_files/7628.got.cif
#   From: 2010.05.17/outbox.cif.g08.bks.cpg/sg139_4_cif.got.tgz:7628.got - 2010.05.20 13:14:44.
