data_PCOD9571343
_publ_section_title
;
Structure prediction by ZEFSAII (Michael W. Deem and Ramdas Pophale) SiO2 
 PCOD9571343
Probable space group: I 4/M M M
;
_chemical_formula_sum "Si O2"
_cell_formula_units_Z 192
_cell_length_a 21.739891
_cell_length_b 21.739891
_cell_length_c 24.255805
_cell_angle_alpha 90.000000
_cell_angle_beta 90.000000
_cell_angle_gamma 90.000000
_cell_volume 11463.847947
_symmetry_space_group_name_H-M "I 4/M M M"
_symmetry_group_IT_number 139
_symmetry_cell_setting 'tetragonal'
loop_
_space_group_symop_operation_xyz
x,y,z
-y,x,z
-x,-y,z
y,-x,z
x,-y,-z
-x,y,-z
y,x,-z
-y,-x,-z
-x,-y,-z
y,-x,-z
x,y,-z
-y,x,-z
-x,y,z
x,-y,z
-y,-x,z
y,x,z
1/2+x,1/2+y,1/2+z
1/2-y,1/2+x,1/2+z
1/2-x,1/2-y,1/2+z
1/2+y,1/2-x,1/2+z
1/2+x,1/2-y,1/2-z
1/2-x,1/2+y,1/2-z
1/2+y,1/2+x,1/2-z
1/2-y,1/2-x,1/2-z
1/2-x,1/2-y,1/2-z
1/2+y,1/2-x,1/2-z
1/2+x,1/2+y,1/2-z
1/2-y,1/2+x,1/2-z
1/2-x,1/2+y,1/2+z
1/2+x,1/2-y,1/2+z
1/2-y,1/2-x,1/2+z
1/2+y,1/2+x,1/2+z
loop_
_atom_site_type_symbol
_atom_site_label
_atom_site_fract_x
_atom_site_fract_y
_atom_site_fract_z
Si Si1 0.426802 0.325011 0.163110
Si Si2 0.712571 0.116084 0.736205
Si Si3 0.326321 0.226488 0.561609
Si Si4 0.097560 0.265228 0.435509
Si Si5 0.067906 0.623009 0.359394
Si Si6 0.567346 0.803666 0.643004
O O1 0.500000 0.330660 0.175897
O O2 0.388484 0.388484 0.163004
O O3 0.392893 0.277480 0.205420
O O4 0.421317 0.291023 0.103580
O O5 0.684018 0.184018 0.750000
O O6 0.663593 0.085261 0.694353
O O7 0.712321 0.080211 0.793602
O O8 0.351849 0.217339 0.500000
O O9 0.288942 0.288942 0.564074
O O10 0.278435 0.170528 0.570342
O O11 0.378832 0.224077 0.606407
O O12 0.082944 0.257041 0.500000
O O13 0.069799 0.327817 0.409538
O O14 0.122854 0.575020 0.364678
O O15 0.000000 0.596838 0.354305
O O16 0.500000 0.783253 0.626283
#
# Coordination Sequence:
#
# PCOD9571343 Si02
#       6
#    32  32  32  32  32  32
#     4  11  23  36  51  72  99 130 162 198 239 286
#     4   9  18  33  52  73  96 121 155 201 248 284
#     4   9  18  32  49  70  95 121 152 192 239 290
#     4   9  17  31  52  73  92 119 160 208 250 280
#     4   9  17  29  45  67  99 135 163 189 226 276
#     4  10  19  30  47  70  96 126 157 192 231 272
#
# _framework density 16.748301999999999
#
# number of rings (size 3 to 8) (size 9 to 14) (size 15 to 20)
#    0.000    2.500    0.000    4.500    0.000    4.167 
#    0.000    0.000    0.000    3.000    0.000    5.833 
#    0.000    0.333    0.000    1.833    0.000    0.000 
#
# Total GULP energy -534989.351411 kJ/mol
# GULP energy per Si atom -5572.805744 kJ/mol
# Density = 1.671018 g / cm^3
# Si number density = 16.748302 Si / 1000 Ang^3
#
#
#
# Elastic Constant Matrix: (Units=GPa)
#
#
# Indices 1 2 3 4 5 6 
#
# 1 61.7820 33.2644 40.0061 0.0000 0.0000 0.0000
# 2 33.2644 61.7820 40.0061 0.0000 0.0000 0.0000
# 3 40.0061 40.0061 79.0722 0.0000 0.0000 0.0000
# 4 0.0000 0.0000 0.0000 2.2743 0.0000 0.0000
# 5 0.0000 0.0000 0.0000 0.0000 2.2743 0.0000
# 6 0.0000 0.0000 0.0000 0.0000 0.0000 -0.3312
#
#
#
# Elastic Compliance Matrix: (Units=1/GPa)
#
#
# Indices 1 2 3 4 5 6 
#
# 1 0.026696 -0.008370 -0.009272 0.000000 0.000000 0.000000
# 2 -0.008370 0.026696 -0.009272 0.000000 0.000000 0.000000
# 3 -0.009272 -0.009272 0.022029 0.000000 0.000000 0.000000
# 4 0.000000 0.000000 0.000000 0.439689 0.000000 0.000002
# 5 0.000000 0.000000 0.000000 0.000000 0.439689 0.000001
# 6 0.000000 0.000000 0.000000 0.000002 0.000001 -3.018969
#
#
# Mechanical properties :
#
#
# Convention : Reuss Voigt Hill
#
# Bulk Modulus (GPa) = 46.31017 47.68771 46.99894
# Shear Modulus (GPa) = -2.49608 6.80079 2.15236
#
# Velocity S-wave (km/s) = -1.22212 2.01728 1.13486
# Velocity P-wave (km/s) = 5.07141 5.82759 5.46260
#
# Compressibility (1/GPa) = 0.02159353
#
# Stress axis : x y z
#
# Youngs Moduli (GPa) = 37.45810 37.45811 45.39423
#
# Poissons Ratio (x) = 0.31351 0.42091
# Poissons Ratio (y) = 0.31351 0.42091
# Poissons Ratio (z) = 0.34732 0.34732
#
# Static dielectric constant tensor:
#      x y z
#    x 1.567660 0.000000 0.000000 
#    y 0.000000 1.567660 0.000000 
#    z 0.000000 0.000000 1.573010 
# 
# From -- ./inp_files/11922.got.cif
#   From: 2010.05.17/outbox.cif.g08.bks.cpg/sg139_6_cif.got.tgz:11922.got - 2010.05.20 13:14:44.
