data_PCOD9571728
_publ_section_title
;
Structure prediction by ZEFSAII (Michael W. Deem and Ramdas Pophale) SiO2 
 PCOD9571728
Probable space group: I 4/M M M
;
_chemical_formula_sum "Si O2"
_cell_formula_units_Z 128
_cell_length_a 22.449423
_cell_length_b 22.449423
_cell_length_c 13.398183
_cell_angle_alpha 90.000000
_cell_angle_beta 90.000000
_cell_angle_gamma 90.000000
_cell_volume 6752.370621
_symmetry_space_group_name_H-M "I 4/M M M"
_symmetry_group_IT_number 139
_symmetry_cell_setting 'tetragonal'
loop_
_space_group_symop_operation_xyz
x,y,z
-y,x,z
-x,-y,z
y,-x,z
x,-y,-z
-x,y,-z
y,x,-z
-y,-x,-z
-x,-y,-z
y,-x,-z
x,y,-z
-y,x,-z
-x,y,z
x,-y,z
-y,-x,z
y,x,z
1/2+x,1/2+y,1/2+z
1/2-y,1/2+x,1/2+z
1/2-x,1/2-y,1/2+z
1/2+y,1/2-x,1/2+z
1/2+x,1/2-y,1/2-z
1/2-x,1/2+y,1/2-z
1/2+y,1/2+x,1/2-z
1/2-y,1/2-x,1/2-z
1/2-x,1/2-y,1/2-z
1/2+y,1/2-x,1/2-z
1/2+x,1/2+y,1/2-z
1/2-y,1/2+x,1/2-z
1/2-x,1/2+y,1/2+z
1/2+x,1/2-y,1/2+z
1/2-y,1/2-x,1/2+z
1/2+y,1/2+x,1/2+z
loop_
_atom_site_type_symbol
_atom_site_label
_atom_site_fract_x
_atom_site_fract_y
_atom_site_fract_z
Si Si1 0.829171 0.170830 0.887796
Si Si2 0.727484 0.727484 0.885302
Si Si3 0.000000 0.737394 0.613398
Si Si4 0.135636 0.570341 0.382466
Si Si5 0.094523 0.500000 0.888674
Si Si6 0.113358 0.743652 0.747661
O O1 0.777911 0.222090 0.890206
O O2 0.880923 0.202491 0.826087
O O3 0.845099 0.154902 0.000000
O O4 0.671487 0.752898 0.823334
O O5 0.711879 0.711879 0.000000
O O6 0.941818 0.753497 0.674933
O O7 0.000000 0.759720 0.500000
O O8 0.000000 0.665545 0.609381
O O9 0.140872 0.589418 0.500000
O O10 0.149286 0.500000 0.376599
O O11 0.183370 0.603358 0.312313
O O12 0.066089 0.577644 0.352367
O O13 0.068925 0.500000 0.000000
#
# Coordination Sequence:
#
# PCOD9571728 Si02
#       6
#    16  16  16  32  16  32
#     4  10  23  39  60  85 111 146 197 257 306 363
#     4  10  23  39  60  81 111 150 195 253 303 361
#     4  11  24  37  55  82 116 153 198 249 296 349
#     4  10  20  36  56  81 115 156 204 255 299 347
#     4   9  21  34  51  75 110 158 207 254 295 337
#     4  11  21  38  58  85 111 151 199 244 307 360
#
# _framework density 18.956303999999999
#
# number of rings (size 3 to 8) (size 9 to 14) (size 15 to 20)
#    0.000    1.750    1.250    3.375    7.000    1.500 
#    0.000    0.000    2.750    0.000    0.000    2.625 
#    0.000    8.000    0.000   29.000    0.000    1.000 
#
# Total GULP energy -357499.501490 kJ/mol
# GULP energy per Si atom -5585.929711 kJ/mol
# Density = 1.891316 g / cm^3
# Si number density = 18.956304 Si / 1000 Ang^3
#
#
#
# Elastic Constant Matrix: (Units=GPa)
#
#
# Indices 1 2 3 4 5 6 
#
# 1 84.1070 57.7573 66.4320 0.0000 0.0000 0.0000
# 2 57.7573 84.1069 66.4319 0.0000 0.0000 0.0000
# 3 66.4320 66.4319 199.3560 0.0000 0.0000 0.0000
# 4 0.0000 0.0000 0.0000 -29.6311 0.0000 0.0000
# 5 0.0000 0.0000 0.0000 0.0000 -29.6261 0.0000
# 6 0.0000 0.0000 0.0000 0.0000 0.0000 26.6797
#
#
#
# Elastic Compliance Matrix: (Units=1/GPa)
#
#
# Indices 1 2 3 4 5 6 
#
# 1 0.024099 -0.013852 -0.003415 0.000000 0.000000 0.000000
# 2 -0.013852 0.024099 -0.003415 0.000000 0.000000 0.000000
# 3 -0.003415 -0.003415 0.007292 0.000000 0.000000 0.000000
# 4 0.000000 0.000000 0.000000 -0.033748 0.000000 0.000000
# 5 0.000000 0.000000 0.000000 0.000000 -0.033754 0.000000
# 6 0.000000 0.000000 0.000000 0.000000 0.000000 0.037482
#
#
# Mechanical properties :
#
#
# Convention : Reuss Voigt Hill
#
# Bulk Modulus (GPa) = 70.78477 83.20138 76.99308
# Shear Modulus (GPa) = 69.88974 5.28108 37.58541
#
# Velocity S-wave (km/s) = 6.07856 1.67092 4.45763
# Velocity P-wave (km/s) = 9.31060 6.90717 8.19745
#
# Compressibility (1/GPa) = 0.01412733
#
# Stress axis : x y z
#
# Youngs Moduli (GPa) = 41.49537 41.49531 137.13872
#
# Poissons Ratio (x) = 0.57480 0.46828
# Poissons Ratio (y) = 0.57480 0.46828
# Poissons Ratio (z) = 0.14169 0.14169
#
# Static dielectric constant tensor:
#      x y z
#    x 1.656240 0.000000 0.000000 
#    y 0.000000 1.656240 0.000000 
#    z 0.000000 0.000000 1.750130 
# 
# From -- ./inp_files/5523.got.cif
#   From: 2010.05.17/outbox.cif.g08.bks.cpg/sg139_3_cif.got.tgz:5523.got - 2010.05.20 13:14:44.
