data_PCOD9571298
_publ_section_title
;
Structure prediction by ZEFSAII (Michael W. Deem and Ramdas Pophale) SiO2 
 PCOD9571298
Probable space group: I 4/M M M
;
_chemical_formula_sum "Si O2"
_cell_formula_units_Z 176
_cell_length_a 18.584643
_cell_length_b 18.584643
_cell_length_c 25.111998
_cell_angle_alpha 90.000000
_cell_angle_beta 90.000000
_cell_angle_gamma 90.000000
_cell_volume 8673.406758
_symmetry_space_group_name_H-M "I 4/M M M"
_symmetry_group_IT_number 139
_symmetry_cell_setting 'tetragonal'
loop_
_space_group_symop_operation_xyz
x,y,z
-y,x,z
-x,-y,z
y,-x,z
x,-y,-z
-x,y,-z
y,x,-z
-y,-x,-z
-x,-y,-z
y,-x,-z
x,y,-z
-y,x,-z
-x,y,z
x,-y,z
-y,-x,z
y,x,z
1/2+x,1/2+y,1/2+z
1/2-y,1/2+x,1/2+z
1/2-x,1/2-y,1/2+z
1/2+y,1/2-x,1/2+z
1/2+x,1/2-y,1/2-z
1/2-x,1/2+y,1/2-z
1/2+y,1/2+x,1/2-z
1/2-y,1/2-x,1/2-z
1/2-x,1/2-y,1/2-z
1/2+y,1/2-x,1/2-z
1/2+x,1/2+y,1/2-z
1/2-y,1/2+x,1/2-z
1/2-x,1/2+y,1/2+z
1/2+x,1/2-y,1/2+z
1/2-y,1/2-x,1/2+z
1/2+y,1/2+x,1/2+z
loop_
_atom_site_type_symbol
_atom_site_label
_atom_site_fract_x
_atom_site_fract_y
_atom_site_fract_z
Si Si1 0.916408 0.800787 0.176284
Si Si2 0.665507 0.220425 0.410058
Si Si3 0.644485 0.083583 0.697139
Si Si4 0.698972 0.582700 0.804878
Si Si5 0.308457 0.583583 0.500000
Si Si6 0.918446 0.583058 0.914056
O O1 0.875476 0.875476 0.162811
O O2 0.869668 0.739115 0.147548
O O3 0.914157 0.794541 0.240330
O O4 0.000000 0.798579 0.159915
O O5 0.746124 0.253877 0.411940
O O6 0.618864 0.270566 0.449238
O O7 0.642685 0.140745 0.428933
O O8 0.625373 0.125373 0.750000
O O9 0.722598 0.104950 0.674251
O O10 0.586298 0.084932 0.650427
O O11 0.652995 0.000000 0.713167
O O12 0.683552 0.500000 0.819421
O O13 0.636822 0.636822 0.821465
O O14 0.299290 0.500000 0.500000
O O15 0.390504 0.609497 0.500000
O O16 0.904932 0.500000 0.930067
O O17 0.000000 0.602842 0.930754
#
# Coordination Sequence:
#
# PCOD9571298 Si02
#       6
#    32  32  32  32  16  32
#     4   9  16  26  41  60  85 119 156 195 236 276
#     4  10  20  34  51  70  93 123 157 192 235 284
#     4  10  19  29  43  64  89 118 151 187 228 273
#     4   9  18  30  43  62  87 116 153 193 231 274
#     4  10  20  33  51  73  97 127 160 196 236 280
#     4  10  20  33  50  72  98 127 159 196 236 280
#
# _framework density 20.291910000000001
#
# number of rings (size 3 to 8) (size 9 to 14) (size 15 to 20)
#    0.000    2.364    0.000    3.273    0.000    3.909 
#    0.000    2.273    0.000    4.909    0.000    0.000 
#    0.000    0.364    0.000    0.000    0.000    5.091 
#
# Total GULP energy -490885.924088 kJ/mol
# GULP energy per Si atom -5578.249137 kJ/mol
# Density = 2.024572 g / cm^3
# Si number density = 20.291910 Si / 1000 Ang^3
#
#
#
# Elastic Constant Matrix: (Units=GPa)
#
#
# Indices 1 2 3 4 5 6 
#
# 1 119.4704 58.7770 -2.9541 0.0000 0.0000 0.0000
# 2 58.7770 119.4719 -2.9538 0.0000 0.0000 0.0000
# 3 -2.9541 -2.9538 25.9536 0.0000 0.0000 0.0000
# 4 0.0000 0.0000 0.0000 8.9965 0.0000 0.0000
# 5 0.0000 0.0000 0.0000 0.0000 8.9965 0.0000
# 6 0.0000 0.0000 0.0000 0.0000 0.0000 30.7593
#
#
#
# Elastic Compliance Matrix: (Units=1/GPa)
#
#
# Indices 1 2 3 4 5 6 
#
# 1 0.011054 -0.005422 0.000641 0.000000 0.000000 0.000000
# 2 -0.005422 0.011054 0.000641 0.000000 0.000000 0.000000
# 3 0.000641 0.000641 0.038676 0.000000 0.000000 0.000000
# 4 0.000000 0.000000 0.000000 0.111154 0.000000 0.000000
# 5 0.000000 0.000000 0.000000 0.000000 0.111154 0.000000
# 6 0.000000 0.000000 0.000000 0.000000 0.000000 0.032510
#
#
# Mechanical properties :
#
#
# Convention : Reuss Voigt Hill
#
# Bulk Modulus (GPa) = 19.04659 41.18157 30.11408
# Shear Modulus (GPa) = 14.64623 23.88558 19.26591
#
# Velocity S-wave (km/s) = 2.68951 3.43461 3.08464
# Velocity P-wave (km/s) = 4.36478 6.00561 5.24970
#
# Compressibility (1/GPa) = 0.05250282
#
# Stress axis : x y z
#
# Youngs Moduli (GPa) = 90.46661 90.46787 25.85567
#
# Poissons Ratio (x) = 0.49055 -0.01658
# Poissons Ratio (y) = 0.49054 -0.01657
# Poissons Ratio (z) = -0.05800 -0.05797
#
# Static dielectric constant tensor:
#      x y z
#    x 1.750700 0.000000 0.000000 
#    y 0.000000 1.750700 0.000000 
#    z 0.000000 0.000000 1.811170 
# 
# From -- ./inp_files/13153.got.cif
#   From: 2010.05.17/outbox.cif.g08.bks.cpg/sg139_7_cif.got.tgz:13153.got - 2010.05.20 13:14:44.
