data_PCOD9571706
_publ_section_title
;
Structure prediction by ZEFSAII (Michael W. Deem and Ramdas Pophale) SiO2 
 PCOD9571706
Probable space group: I 4/M M M
;
_chemical_formula_sum "Si O2"
_cell_formula_units_Z 160
_cell_length_a 23.477978
_cell_length_b 23.477978
_cell_length_c 16.629489
_cell_angle_alpha 90.000000
_cell_angle_beta 90.000000
_cell_angle_gamma 90.000000
_cell_volume 9166.431279
_symmetry_space_group_name_H-M "I 4/M M M"
_symmetry_group_IT_number 139
_symmetry_cell_setting 'tetragonal'
loop_
_space_group_symop_operation_xyz
x,y,z
-y,x,z
-x,-y,z
y,-x,z
x,-y,-z
-x,y,-z
y,x,-z
-y,-x,-z
-x,-y,-z
y,-x,-z
x,y,-z
-y,x,-z
-x,y,z
x,-y,z
-y,-x,z
y,x,z
1/2+x,1/2+y,1/2+z
1/2-y,1/2+x,1/2+z
1/2-x,1/2-y,1/2+z
1/2+y,1/2-x,1/2+z
1/2+x,1/2-y,1/2-z
1/2-x,1/2+y,1/2-z
1/2+y,1/2+x,1/2-z
1/2-y,1/2-x,1/2-z
1/2-x,1/2-y,1/2-z
1/2+y,1/2-x,1/2-z
1/2+x,1/2+y,1/2-z
1/2-y,1/2+x,1/2-z
1/2-x,1/2+y,1/2+z
1/2+x,1/2-y,1/2+z
1/2-y,1/2-x,1/2+z
1/2+y,1/2+x,1/2+z
loop_
_atom_site_type_symbol
_atom_site_label
_atom_site_fract_x
_atom_site_fract_y
_atom_site_fract_z
Si Si1 0.822915 0.500000 0.403068
Si Si2 0.127966 0.708652 0.095548
Si Si3 0.708581 0.708581 0.694433
Si Si4 0.157561 0.842440 0.336217
Si Si5 0.594975 0.000000 0.249284
Si Si6 0.566867 0.433134 0.903112
Si Si7 0.221373 0.377880 0.907059
Si Si8 0.825789 0.500000 0.907143
O O1 0.838819 0.500000 0.500000
O O2 0.791598 0.439514 0.387541
O O3 0.871593 0.500000 0.335329
O O4 0.167344 0.752921 0.141419
O O5 0.160851 0.649832 0.117693
O O6 0.132795 0.716891 0.000000
O O7 0.750000 0.750000 0.750000
O O8 0.666755 0.666755 0.742655
O O9 0.111218 0.888783 0.363936
O O10 0.142314 0.778637 0.365102
O O11 0.555134 0.944867 0.250000
O O12 0.631741 0.000000 0.331497
O O13 0.578401 0.500000 0.883279
O O14 0.572273 0.427728 0.000000
O O15 0.213195 0.444708 0.900101
O O16 0.229277 0.362332 0.000000
O O17 0.850376 0.500000 0.000000
#
# Coordination Sequence:
#
# PCOD9571706 Si02
#       8
#    16  32  16  16  16  16  32  16
#     4  10  23  41  65  88 116 160 212 262 309 366
#     4  10  21  40  61  83 114 157 204 252 306 370
#     4  12  23  37  58  88 120 155 187 244 316 380
#     4  12  23  34  55  89 123 152 196 240 301 359
#     4  11  24  38  58  84 114 155 201 255 309 362
#     4   9  20  40  63  84 117 165 205 239 284 354
#     4  10  20  35  56  82 117 155 191 241 298 357
#     4  10  23  39  57  84 117 157 197 243 302 359
#
# _framework density 17.454993000000002
#
# number of rings (size 3 to 8) (size 9 to 14) (size 15 to 20)
#    0.000    1.600    2.000    2.700    4.200    4.800 
#    1.800    1.000    0.000    0.000    0.000    0.000 
#    0.000    0.000    0.000    5.800    0.000    0.000 
#
# Total GULP energy -445584.240223 kJ/mol
# GULP energy per Si atom -5569.803003 kJ/mol
# Density = 1.741527 g / cm^3
# Si number density = 17.454993 Si / 1000 Ang^3
#
#
#
# Elastic Constant Matrix: (Units=GPa)
#
#
# Indices 1 2 3 4 5 6 
#
# 1 108.9205 64.5464 45.5661 0.0000 0.0000 0.0000
# 2 64.5464 108.9212 45.5660 0.0000 0.0000 0.0000
# 3 45.5661 45.5660 46.7974 0.0000 0.0000 0.0000
# 4 0.0000 0.0000 0.0000 27.5844 0.0000 0.0000
# 5 0.0000 0.0000 0.0000 0.0000 27.5852 0.0000
# 6 0.0000 0.0000 0.0000 0.0000 0.0000 105.8990
#
#
#
# Elastic Compliance Matrix: (Units=1/GPa)
#
#
# Indices 1 2 3 4 5 6 
#
# 1 0.017169 -0.005367 -0.011491 0.000000 0.000000 0.000000
# 2 -0.005367 0.017169 -0.011491 0.000000 0.000000 0.000000
# 3 -0.011491 -0.011491 0.043747 0.000000 0.000000 0.000000
# 4 0.000000 0.000000 0.000000 0.036252 0.000000 0.000000
# 5 0.000000 0.000000 0.000000 0.000000 0.036251 0.000000
# 6 0.000000 0.000000 0.000000 0.000000 0.000000 0.009443
#
#
# Mechanical properties :
#
#
# Convention : Reuss Voigt Hill
#
# Bulk Modulus (GPa) = 46.76161 63.99958 55.38059
# Shear Modulus (GPa) = 22.33562 39.47775 30.90668
#
# Velocity S-wave (km/s) = 3.58105 4.76088 4.21247
# Velocity P-wave (km/s) = 6.62922 8.18330 7.44691
#
# Compressibility (1/GPa) = 0.02138506
#
# Stress axis : x y z
#
# Youngs Moduli (GPa) = 58.24530 58.24611 22.85894
#
# Poissons Ratio (x) = 0.31260 0.26268
# Poissons Ratio (y) = 0.31259 0.26267
# Poissons Ratio (z) = 0.66932 0.66931
#
# Static dielectric constant tensor:
#      x y z
#    x 1.878850 0.000000 0.000000 
#    y 0.000000 1.882110 0.000000 
#    z 0.000000 0.000000 1.625050 
# 
# From -- ./inp_files/6071.got.cif
#   From: 2010.05.17/outbox.cif.g08.bks.cpg/sg139_4_cif.got.tgz:6071.got - 2010.05.20 13:14:44.
