data_PCOD9571779
_publ_section_title
;
Structure prediction by ZEFSAII (Michael W. Deem and Ramdas Pophale) SiO2 
 PCOD9571779
Probable space group: I 4/M M M
;
_chemical_formula_sum "Si O2"
_cell_formula_units_Z 120
_cell_length_a 18.037195
_cell_length_b 18.037195
_cell_length_c 20.165044
_cell_angle_alpha 90.000000
_cell_angle_beta 90.000000
_cell_angle_gamma 90.000000
_cell_volume 6560.503551
_symmetry_space_group_name_H-M "I 4/M M M"
_symmetry_group_IT_number 139
_symmetry_cell_setting 'tetragonal'
loop_
_space_group_symop_operation_xyz
x,y,z
-y,x,z
-x,-y,z
y,-x,z
x,-y,-z
-x,y,-z
y,x,-z
-y,-x,-z
-x,-y,-z
y,-x,-z
x,y,-z
-y,x,-z
-x,y,z
x,-y,z
-y,-x,z
y,x,z
1/2+x,1/2+y,1/2+z
1/2-y,1/2+x,1/2+z
1/2-x,1/2-y,1/2+z
1/2+y,1/2-x,1/2+z
1/2+x,1/2-y,1/2-z
1/2-x,1/2+y,1/2-z
1/2+y,1/2+x,1/2-z
1/2-y,1/2-x,1/2-z
1/2-x,1/2-y,1/2-z
1/2+y,1/2-x,1/2-z
1/2+x,1/2+y,1/2-z
1/2-y,1/2+x,1/2-z
1/2-x,1/2+y,1/2+z
1/2+x,1/2-y,1/2+z
1/2-y,1/2-x,1/2+z
1/2+y,1/2+x,1/2+z
loop_
_atom_site_type_symbol
_atom_site_label
_atom_site_fract_x
_atom_site_fract_y
_atom_site_fract_z
Si Si1 0.289879 0.414415 0.500000
Si Si2 0.913845 0.208971 0.758124
Si Si3 0.815959 0.184042 0.500000
Si Si4 0.179293 0.586161 0.376265
Si Si5 0.228380 0.586293 0.890391
O O1 0.315385 0.500000 0.500000
O O2 0.356535 0.356535 0.500000
O O3 0.238222 0.402981 0.564198
O O4 0.858115 0.141886 0.771718
O O5 0.898553 0.276447 0.808339
O O6 0.905417 0.235796 0.682631
O O7 0.000000 0.187196 0.768599
O O8 0.770884 0.137413 0.442286
O O9 0.156142 0.500000 0.376992
O O10 0.113488 0.643737 0.385689
O O11 0.233536 0.500000 0.909044
#
# Coordination Sequence:
#
# PCOD9571779 Si02
#       5
#    16  32   8  32  32
#     4  10  21  35  54  84 118 154 196 240 292 351
#     4  10  21  38  60  90 125 163 208 253 306 367
#     4  12  24  40  62  89 118 154 209 264 302 362
#     4  10  22  38  60  91 124 158 200 249 302 368
#     4  11  24  40  62  90 120 160 207 255 312 368
#
# _framework density 18.291277999999998
#
# number of rings (size 3 to 8) (size 9 to 14) (size 15 to 20)
#    0.000    1.600    1.333    2.800    5.600    2.000 
#    0.000    0.000    0.000   16.800    0.000    0.000 
#    0.000    0.000    0.000    0.000    0.000    0.000 
#
# Total GULP energy -334159.269224 kJ/mol
# GULP energy per Si atom -5569.321154 kJ/mol
# Density = 1.824965 g / cm^3
# Si number density = 18.291278 Si / 1000 Ang^3
#
#
#
# Elastic Constant Matrix: (Units=GPa)
#
#
# Indices 1 2 3 4 5 6 
#
# 1 70.0932 72.0236 19.0122 0.0000 0.0000 0.0000
# 2 72.0236 70.0922 19.0118 0.0000 0.0000 0.0000
# 3 19.0122 19.0118 106.9449 0.0000 0.0000 0.0000
# 4 0.0000 0.0000 0.0000 9.4059 0.0000 0.0000
# 5 0.0000 0.0000 0.0000 0.0000 9.4061 0.0000
# 6 0.0000 0.0000 0.0000 0.0000 0.0000 19.3542
#
#
#
# Elastic Compliance Matrix: (Units=1/GPa)
#
#
# Indices 1 2 3 4 5 6 
#
# 1 -0.255257 0.262647 -0.001313 0.000000 0.000000 0.000000
# 2 0.262647 -0.255260 -0.001314 0.000000 0.000000 0.000000
# 3 -0.001313 -0.001314 0.009818 0.000000 0.000000 0.000000
# 4 0.000000 0.000000 0.000000 0.106317 0.000000 0.000000
# 5 0.000000 0.000000 0.000000 0.000000 0.106314 0.000000
# 6 0.000000 0.000000 0.000000 0.000000 0.000000 0.051668
#
#
# Mechanical properties :
#
#
# Convention : Reuss Voigt Hill
#
# Bulk Modulus (GPa) = 51.70667 51.91394 51.81031
# Shear Modulus (GPa) = -6.66672 16.77208 5.05268
#
# Velocity S-wave (km/s) = -1.91120 3.03139 1.66383
# Velocity P-wave (km/s) = 4.84351 6.37933 5.66372
#
# Compressibility (1/GPa) = 0.01933986
#
# Stress axis : x y z
#
# Youngs Moduli (GPa) = -3.91762 -3.91757 101.85817
#
# Poissons Ratio (x) = 1.02894 0.13369
# Poissons Ratio (y) = 1.02895 0.13386
# Poissons Ratio (z) = -0.00514 -0.00515
#
# Static dielectric constant tensor:
#      x y z
#    x 1.606750 0.000000 0.000000 
#    y 0.000000 1.606750 0.000000 
#    z 0.000000 0.000000 1.629290 
# 
# From -- ./inp_files/9816.got.cif
#   From: 2010.05.17/outbox.cif.g08.bks.cpg/sg139_5_cif.got.tgz:9816.got - 2010.05.20 13:14:44.
