data_PCOD9571041
_publ_section_title
;
Structure prediction by ZEFSAII (Michael W. Deem and Ramdas Pophale) SiO2 
 PCOD9571041
Probable space group: P 42/N C M
;
_chemical_formula_sum "Si O2"
_cell_formula_units_Z 16
_cell_length_a 8.166142
_cell_length_b 8.166142
_cell_length_c 9.460149
_cell_angle_alpha 90.000000
_cell_angle_beta 90.000000
_cell_angle_gamma 90.000000
_cell_volume 630.858315
_symmetry_space_group_name_H-M "P 42/N C M"
_symmetry_group_IT_number 138
_space_group.IT_coordinate_system_code '2'
_symmetry_cell_setting 'tetragonal'
loop_
_space_group_symop_operation_xyz
x,y,z
1/2-y,x,1/2+z
1/2-x,1/2-y,z
y,1/2-x,1/2+z
1/2+x,-y,1/2-z
-x,1/2+y,1/2-z
1/2+y,1/2+x,-z
-y,-x,-z
-x,-y,-z
1/2+y,-x,1/2-z
1/2+x,1/2+y,-z
-y,1/2+x,1/2-z
1/2-x,y,1/2+z
x,1/2-y,1/2+z
1/2-y,1/2-x,z
y,x,z
loop_
_atom_site_type_symbol
_atom_site_label
_atom_site_fract_x
_atom_site_fract_y
_atom_site_fract_z
Si Si1 0.750000 0.250000 0.250000
Si Si2 0.933897 0.933897 0.165713
Si Si3 0.750000 0.750000 0.916830
O O1 0.630089 0.379272 0.171981
O O2 0.858043 0.858043 0.310330
O O3 0.855356 0.855356 0.026989
#
# Coordination Sequence:
#
# PCOD9571041 Si02
#       3
#     4   8   4
#     4  12  28  50  76 110 148 194 244 302 364 434
#     4  11  26  45  76 110 148 190 244 302 364 430
#     4  10  24  50  76 110 148 194 244 302 364 434
#
# _framework density 25.362272999999998
#
# number of rings (size 3 to 8) (size 9 to 14) (size 15 to 20)
#    0.000    1.000    0.000    6.000    0.000   20.000 
#    0.000    0.000    0.000    0.000    0.000    0.000 
#    0.000    0.000    0.000    0.000    0.000    0.000 
#
# Total GULP energy -89376.025873 kJ/mol
# GULP energy per Si atom -5586.001617 kJ/mol
# Density = 2.530455 g / cm^3
# Si number density = 25.362273 Si / 1000 Ang^3
#
#
#
# Elastic Constant Matrix: (Units=GPa)
#
#
# Indices 1 2 3 4 5 6 
#
# 1 199.2961 113.8751 89.2426 0.0000 0.0000 0.0000
# 2 113.8751 199.2961 89.2426 0.0000 0.0000 0.0000
# 3 89.2426 89.2426 207.0566 0.0000 0.0000 0.0000
# 4 0.0000 0.0000 0.0000 -18.1697 0.0000 0.0000
# 5 0.0000 0.0000 0.0000 0.0000 -18.1697 0.0000
# 6 0.0000 0.0000 0.0000 0.0000 0.0000 67.3730
#
#
#
# Elastic Compliance Matrix: (Units=1/GPa)
#
#
# Indices 1 2 3 4 5 6 
#
# 1 0.007970 -0.003737 -0.001824 0.000000 0.000000 0.000000
# 2 -0.003737 0.007970 -0.001824 0.000000 0.000000 0.000000
# 3 -0.001824 -0.001824 0.006402 0.000000 0.000000 0.000000
# 4 0.000000 0.000000 0.000000 -0.055037 0.000000 0.000000
# 5 0.000000 0.000000 0.000000 0.000000 -0.055037 0.000000
# 6 0.000000 0.000000 0.000000 0.000000 0.000000 0.014843
#
#
# Mechanical properties :
#
#
# Convention : Reuss Voigt Hill
#
# Bulk Modulus (GPa) = 132.09245 132.26328 132.17786
# Shear Modulus (GPa) = -89.93859 27.09260 -31.42299
#
# Velocity S-wave (km/s) = -5.96142 3.27192 -3.52371
# Velocity P-wave (km/s) = 2.19331 8.15701 5.97274
#
# Compressibility (1/GPa) = 0.00757046
#
# Stress axis : x y z
#
# Youngs Moduli (GPa) = 125.47324 125.47324 156.19469
#
# Poissons Ratio (x) = 0.46888 0.28496
# Poissons Ratio (y) = 0.46888 0.28496
# Poissons Ratio (z) = 0.22892 0.22892
#
# Static dielectric constant tensor:
#      x y z
#    x 2.303880 0.000000 0.000000 
#    y 0.000000 2.303880 0.000000 
#    z 0.000000 0.000000 1.905750 
# 
# From -- ./inp_files/2007.got.cif
#   From: 2010.05.17/outbox.cif.g08.bks.cpg/sg138_2_cif.got.tgz:2007.got - 2010.05.20 13:08:53.
