data_PCOD9571530
_publ_section_title
;
Structure prediction by ZEFSAII (Michael W. Deem and Ramdas Pophale) SiO2 
 PCOD9571530
Probable space group: I 4/M M M
;
_chemical_formula_sum "Si O2"
_cell_formula_units_Z 192
_cell_length_a 28.157657
_cell_length_b 28.157657
_cell_length_c 14.386701
_cell_angle_alpha 90.000000
_cell_angle_beta 90.000000
_cell_angle_gamma 90.000000
_cell_volume 11406.548367
_symmetry_space_group_name_H-M "I 4/M M M"
_symmetry_group_IT_number 139
_symmetry_cell_setting 'tetragonal'
loop_
_space_group_symop_operation_xyz
x,y,z
-y,x,z
-x,-y,z
y,-x,z
x,-y,-z
-x,y,-z
y,x,-z
-y,-x,-z
-x,-y,-z
y,-x,-z
x,y,-z
-y,x,-z
-x,y,z
x,-y,z
-y,-x,z
y,x,z
1/2+x,1/2+y,1/2+z
1/2-y,1/2+x,1/2+z
1/2-x,1/2-y,1/2+z
1/2+y,1/2-x,1/2+z
1/2+x,1/2-y,1/2-z
1/2-x,1/2+y,1/2-z
1/2+y,1/2+x,1/2-z
1/2-y,1/2-x,1/2-z
1/2-x,1/2-y,1/2-z
1/2+y,1/2-x,1/2-z
1/2+x,1/2+y,1/2-z
1/2-y,1/2+x,1/2-z
1/2-x,1/2+y,1/2+z
1/2+x,1/2-y,1/2+z
1/2-y,1/2-x,1/2+z
1/2+y,1/2+x,1/2+z
loop_
_atom_site_type_symbol
_atom_site_label
_atom_site_fract_x
_atom_site_fract_y
_atom_site_fract_z
Si Si1 0.915782 0.349468 0.110553
Si Si2 0.810756 0.685374 0.888775
Si Si3 0.067404 0.448492 0.891156
Si Si4 0.818826 0.554702 0.902027
Si Si5 0.054809 0.738742 0.780231
Si Si6 0.767620 0.844900 0.241766
O O1 0.859281 0.344877 0.132684
O O2 0.942148 0.396381 0.151176
O O3 0.939826 0.300396 0.139185
O O4 0.918161 0.354551 0.000000
O O5 0.823054 0.736096 0.842386
O O6 0.765336 0.665550 0.832920
O O7 0.804817 0.688630 0.000000
O O8 0.053408 0.500000 0.851135
O O9 0.124654 0.446780 0.893413
O O10 0.052289 0.449102 0.000000
O O11 0.804062 0.500000 0.910288
O O12 0.792907 0.568751 0.809514
O O13 0.806506 0.579395 0.000000
O O14 0.099227 0.774438 0.781038
O O15 0.000000 0.755400 0.775819
O O16 0.815782 0.815782 0.251299
#
# Coordination Sequence:
#
# PCOD9571530 Si02
#       6
#    32  32  32  32  32  32
#     4   9  17  28  43  63  86 115 150 182 212 253
#     4   9  17  30  47  67  94 124 149 177 216 258
#     4   8  13  22  37  57  81 108 139 178 220 253
#     4   8  14  25  41  60  80 104 138 177 212 247
#     4  10  20  32  45  61  84 114 144 176 217 261
#     4  10  20  31  45  68  93 116 147 182 214 260
#
# _framework density 16.832436000000001
#
# number of rings (size 3 to 8) (size 9 to 14) (size 15 to 20)
#    0.000    3.000    0.000    3.000    0.000    5.667 
#    0.000    0.000    0.000    0.500    0.000    2.333 
#    0.000   10.333    0.000   17.667    0.000    0.000 
#
# Total GULP energy -534405.469372 kJ/mol
# GULP energy per Si atom -5566.723639 kJ/mol
# Density = 1.679412 g / cm^3
# Si number density = 16.832436 Si / 1000 Ang^3
#
#
#
# Elastic Constant Matrix: (Units=GPa)
#
#
# Indices 1 2 3 4 5 6 
#
# 1 83.7499 53.6637 15.2595 0.0000 0.0000 0.0000
# 2 53.6637 83.7499 15.2595 0.0000 0.0000 0.0000
# 3 15.2595 15.2595 60.3446 0.0000 0.0000 0.0000
# 4 0.0000 0.0000 0.0000 12.2822 0.0000 0.0000
# 5 0.0000 0.0000 0.0000 0.0000 12.2822 0.0000
# 6 0.0000 0.0000 0.0000 0.0000 0.0000 -7.5493
#
#
#
# Elastic Compliance Matrix: (Units=1/GPa)
#
#
# Indices 1 2 3 4 5 6 
#
# 1 0.020474 -0.012764 -0.001950 0.000000 0.000000 0.000000
# 2 -0.012764 0.020474 -0.001950 0.000000 0.000000 0.000000
# 3 -0.001950 -0.001950 0.017558 0.000000 0.000000 0.000000
# 4 0.000000 0.000000 0.000000 0.081419 0.000000 0.000000
# 5 0.000000 0.000000 0.000000 0.000000 0.081419 0.000000
# 6 0.000000 0.000000 0.000000 0.000000 0.000000 -0.132463
#
#
# Mechanical properties :
#
#
# Convention : Reuss Voigt Hill
#
# Bulk Modulus (GPa) = 39.71517 44.02330 41.86923
# Shear Modulus (GPa) = 38.28512 12.98049 25.63281
#
# Velocity S-wave (km/s) = 4.77433 2.77999 3.90657
# Velocity P-wave (km/s) = 7.35105 6.04277 6.72878
#
# Compressibility (1/GPa) = 0.02517930
#
# Stress axis : x y z
#
# Youngs Moduli (GPa) = 48.84229 48.84229 56.95558
#
# Poissons Ratio (x) = 0.62341 0.11105
# Poissons Ratio (y) = 0.62341 0.11105
# Poissons Ratio (z) = 0.09523 0.09523
#
# Static dielectric constant tensor:
#      x y z
#    x 1.617380 0.000000 0.000000 
#    y 0.000000 1.617380 0.000000 
#    z 0.000000 0.000000 1.738220 
# 
# From -- ./inp_files/6681.got.cif
#   From: 2010.05.17/outbox.cif.g08.bks.cpg/sg139_4_cif.got.tgz:6681.got - 2010.05.20 13:14:44.
