data_PCOD9571198
_publ_section_title
;
Structure prediction by ZEFSAII (Michael W. Deem and Ramdas Pophale) SiO2 
 PCOD9571198
Probable space group: I 4/M M M
;
_chemical_formula_sum "Si O2"
_cell_formula_units_Z 128
_cell_length_a 20.838196
_cell_length_b 20.838196
_cell_length_c 13.712356
_cell_angle_alpha 90.000000
_cell_angle_beta 90.000000
_cell_angle_gamma 90.000000
_cell_volume 5954.322003
_symmetry_space_group_name_H-M "I 4/M M M"
_symmetry_group_IT_number 139
_symmetry_cell_setting 'tetragonal'
loop_
_space_group_symop_operation_xyz
x,y,z
-y,x,z
-x,-y,z
y,-x,z
x,-y,-z
-x,y,-z
y,x,-z
-y,-x,-z
-x,-y,-z
y,-x,-z
x,y,-z
-y,x,-z
-x,y,z
x,-y,z
-y,-x,z
y,x,z
1/2+x,1/2+y,1/2+z
1/2-y,1/2+x,1/2+z
1/2-x,1/2-y,1/2+z
1/2+y,1/2-x,1/2+z
1/2+x,1/2-y,1/2-z
1/2-x,1/2+y,1/2-z
1/2+y,1/2+x,1/2-z
1/2-y,1/2-x,1/2-z
1/2-x,1/2-y,1/2-z
1/2+y,1/2-x,1/2-z
1/2+x,1/2+y,1/2-z
1/2-y,1/2+x,1/2-z
1/2-x,1/2+y,1/2+z
1/2+x,1/2-y,1/2+z
1/2-y,1/2-x,1/2+z
1/2+y,1/2+x,1/2+z
loop_
_atom_site_type_symbol
_atom_site_label
_atom_site_fract_x
_atom_site_fract_y
_atom_site_fract_z
Si Si1 0.000000 0.745013 0.620051
Si Si2 0.654152 0.345849 0.392563
Si Si3 0.259222 0.259222 0.864080
Si Si4 0.125861 0.324240 0.610230
Si Si5 0.895041 0.000000 0.618692
Si Si6 0.074175 0.731817 0.880328
O O1 0.060979 0.703372 0.653815
O O2 0.000000 0.820141 0.648928
O O3 0.000000 0.745736 0.500000
O O4 0.631781 0.368220 0.500000
O O5 0.708702 0.291299 0.405465
O O6 0.599073 0.301939 0.344970
O O7 0.250000 0.250000 0.750000
O O8 0.238234 0.329053 0.893522
O O9 0.110551 0.346224 0.500000
O O10 0.173437 0.379075 0.651771
O O11 0.937211 0.937211 0.648788
O O12 0.894869 0.000000 0.500000
O O13 0.000000 0.721512 0.858611
O O14 0.080264 0.734521 0.000000
#
# Coordination Sequence:
#
# PCOD9571198 Si02
#       6
#    16  16  16  32  16  32
#     4   9  17  26  42  66  91 119 152 190 230 272
#     4   8  14  26  44  67  88 107 142 185 225 265
#     4  10  18  28  46  64  90 117 152 193 230 268
#     4   9  17  29  45  67  92 118 151 191 233 275
#     4   8  14  23  34  55  88 120 149 178 214 265
#     4   8  13  23  41  63  87 114 142 177 224 273
#
# _framework density 21.496991000000001
#
# number of rings (size 3 to 8) (size 9 to 14) (size 15 to 20)
#    0.000    3.375    0.000    3.000    1.750    0.000 
#    0.000    0.625   11.000    4.125    0.000    2.625 
#    0.000    0.000    0.000    0.000    0.000    0.000 
#
# Total GULP energy -356505.996964 kJ/mol
# GULP energy per Si atom -5570.406203 kJ/mol
# Density = 2.144806 g / cm^3
# Si number density = 21.496991 Si / 1000 Ang^3
#
#
#
# Elastic Constant Matrix: (Units=GPa)
#
#
# Indices 1 2 3 4 5 6 
#
# 1 170.4158 87.3687 12.7829 0.0000 0.0000 0.0000
# 2 87.3687 170.4157 12.7829 0.0000 0.0000 0.0000
# 3 12.7829 12.7829 70.9314 0.0000 0.0000 0.0000
# 4 0.0000 0.0000 0.0000 15.8258 0.0000 0.0000
# 5 0.0000 0.0000 0.0000 0.0000 15.8258 0.0000
# 6 0.0000 0.0000 0.0000 0.0000 0.0000 23.1250
#
#
#
# Elastic Compliance Matrix: (Units=1/GPa)
#
#
# Indices 1 2 3 4 5 6 
#
# 1 0.007996 -0.004046 -0.000712 0.000000 0.000000 0.000000
# 2 -0.004046 0.007996 -0.000712 0.000000 0.000000 0.000000
# 3 -0.000712 -0.000712 0.014355 0.000000 0.000000 0.000000
# 4 0.000000 0.000000 0.000000 0.063188 0.000000 0.000000
# 5 0.000000 0.000000 0.000000 0.000000 0.063188 0.000000
# 6 0.000000 0.000000 0.000000 0.000000 0.000000 0.043243
#
#
# Mechanical properties :
#
#
# Convention : Reuss Voigt Hill
#
# Bulk Modulus (GPa) = 51.52770 70.84799 61.18785
# Shear Modulus (GPa) = 23.00196 30.87722 26.93959
#
# Velocity S-wave (km/s) = 3.27465 3.79403 3.54387
# Velocity P-wave (km/s) = 6.19028 7.22645 6.72834
#
# Compressibility (1/GPa) = 0.01940704
#
# Stress axis : x y z
#
# Youngs Moduli (GPa) = 125.06911 125.06901 69.66364
#
# Poissons Ratio (x) = 0.50600 0.04959
# Poissons Ratio (y) = 0.50600 0.04959
# Poissons Ratio (z) = 0.08903 0.08903
#
# Static dielectric constant tensor:
#      x y z
#    x 1.774300 0.000000 0.000000 
#    y 0.000000 1.774300 0.000000 
#    z 0.000000 0.000000 1.877970 
# 
# From -- ./inp_files/8089.got.cif
#   From: 2010.05.17/outbox.cif.g08.bks.cpg/sg139_5_cif.got.tgz:8089.got - 2010.05.20 13:14:44.
