data_PCOD9571797
_publ_section_title
;
Structure prediction by ZEFSAII (Michael W. Deem and Ramdas Pophale) SiO2 
 PCOD9571797
Probable space group: I 4/M M M
;
_chemical_formula_sum "Si O2"
_cell_formula_units_Z 176
_cell_length_a 27.474447
_cell_length_b 27.474447
_cell_length_c 12.580216
_cell_angle_alpha 90.000000
_cell_angle_beta 90.000000
_cell_angle_gamma 90.000000
_cell_volume 9496.116140
_symmetry_space_group_name_H-M "I 4/M M M"
_symmetry_group_IT_number 139
_symmetry_cell_setting 'tetragonal'
loop_
_space_group_symop_operation_xyz
x,y,z
-y,x,z
-x,-y,z
y,-x,z
x,-y,-z
-x,y,-z
y,x,-z
-y,-x,-z
-x,-y,-z
y,-x,-z
x,y,-z
-y,x,-z
-x,y,z
x,-y,z
-y,-x,z
y,x,z
1/2+x,1/2+y,1/2+z
1/2-y,1/2+x,1/2+z
1/2-x,1/2-y,1/2+z
1/2+y,1/2-x,1/2+z
1/2+x,1/2-y,1/2-z
1/2-x,1/2+y,1/2-z
1/2+y,1/2+x,1/2-z
1/2-y,1/2-x,1/2-z
1/2-x,1/2-y,1/2-z
1/2+y,1/2-x,1/2-z
1/2+x,1/2+y,1/2-z
1/2-y,1/2+x,1/2-z
1/2-x,1/2+y,1/2+z
1/2+x,1/2-y,1/2+z
1/2-y,1/2-x,1/2+z
1/2+y,1/2+x,1/2+z
loop_
_atom_site_type_symbol
_atom_site_label
_atom_site_fract_x
_atom_site_fract_y
_atom_site_fract_z
Si Si1 0.723935 0.800324 0.000000
Si Si2 0.093794 0.671090 0.271433
Si Si3 0.500000 0.798998 0.628742
Si Si4 0.106365 0.696105 0.500000
Si Si5 0.239134 0.163316 0.224957
Si Si6 0.293722 0.446535 0.000000
Si Si7 0.082524 0.840586 0.281252
Si Si8 0.500000 0.681432 0.623685
O O1 0.747215 0.825374 0.103467
O O2 0.744767 0.744767 0.000000
O O3 0.665589 0.808350 0.000000
O O4 0.119939 0.619939 0.250000
O O5 0.048980 0.682781 0.191413
O O6 0.081404 0.673963 0.395539
O O7 0.136770 0.712307 0.266103
O O8 0.500000 0.810446 0.500000
O O9 0.500000 0.740219 0.637593
O O10 0.094967 0.753272 0.500000
O O11 0.213234 0.213234 0.267742
O O12 0.198640 0.123057 0.246849
O O13 0.323767 0.440834 0.891977
O O14 0.270278 0.500000 0.000000
O O15 0.108515 0.891486 0.297185
O O16 0.045536 0.840109 0.185062
O O17 0.500000 0.670983 0.500000
#
# Coordination Sequence:
#
# PCOD9571797 Si02
#       8
#    16  32  16  16  32  16  32  16
#     4  10  22  36  52  83 136 188 214 248 296 365
#     4  12  25  41  64  92 129 172 215 260 318 373
#     4  11  26  45  69  92 129 167 212 259 313 384
#     4  12  24  34  59  89 129 166 214 259 300 367
#     4  10  21  36  56  88 131 175 217 250 295 366
#     4  12  23  40  61  83 122 162 211 264 320 368
#     4  11  23  39  61  89 122 163 210 259 312 373
#     4  11  22  39  65  94 121 163 206 257 315 366
#
# _framework density 18.533892999999999
#
# number of rings (size 3 to 8) (size 9 to 14) (size 15 to 20)
#    0.000    0.909    6.364    0.273    5.091    2.182 
#    0.000    0.000    0.000    0.545    0.000    1.909 
#    0.000    0.000    0.000    0.000    0.000    0.000 
#
# Total GULP energy -490680.435730 kJ/mol
# GULP energy per Si atom -5575.914042 kJ/mol
# Density = 1.849171 g / cm^3
# Si number density = 18.533893 Si / 1000 Ang^3
#
#
#
# Elastic Constant Matrix: (Units=GPa)
#
#
# Indices 1 2 3 4 5 6 
#
# 1 54.5720 23.1235 27.4697 0.0000 0.0000 0.0000
# 2 23.1235 54.5720 27.4697 0.0000 0.0000 0.0000
# 3 27.4697 27.4697 148.6559 0.0000 0.0000 0.0000
# 4 0.0000 0.0000 0.0000 -8.2332 0.0000 0.0000
# 5 0.0000 0.0000 0.0000 0.0000 -8.2332 0.0000
# 6 0.0000 0.0000 0.0000 0.0000 0.0000 10.6074
#
#
#
# Elastic Compliance Matrix: (Units=1/GPa)
#
#
# Indices 1 2 3 4 5 6 
#
# 1 0.023302 -0.008496 -0.002736 0.000000 0.000000 0.000000
# 2 -0.008496 0.023302 -0.002736 0.000000 0.000000 0.000000
# 3 -0.002736 -0.002736 0.007738 0.000000 0.000000 0.000000
# 4 0.000000 0.000000 0.000000 -0.121459 0.000000 0.000000
# 5 0.000000 0.000000 0.000000 0.000000 -0.121459 0.000000
# 6 0.000000 0.000000 0.000000 0.000000 0.000000 0.094274
#
#
# Mechanical properties :
#
#
# Convention : Reuss Voigt Hill
#
# Bulk Modulus (GPa) = 37.87113 45.99171 41.93142
# Shear Modulus (GPa) = -86.85816 10.81066 -38.02375
#
# Velocity S-wave (km/s) = -6.85319 2.41776 -4.53435
# Velocity P-wave (km/s) = 6.49183 5.71515 2.17726
#
# Compressibility (1/GPa) = 0.02640534
#
# Stress axis : x y z
#
# Youngs Moduli (GPa) = 42.91539 42.91539 129.23173
#
# Poissons Ratio (x) = 0.36462 0.35356
# Poissons Ratio (y) = 0.36462 0.35356
# Poissons Ratio (z) = 0.11741 0.11741
#
# Static dielectric constant tensor:
#      x y z
#    x 1.673250 0.000000 0.000000 
#    y 0.000000 1.673250 0.000000 
#    z 0.000000 0.000000 1.673610 
# 
# From -- ./inp_files/4096.got.cif
#   From: 2010.05.17/outbox.cif.g08.bks.cpg/sg139_3_cif.got.tgz:4096.got - 2010.05.20 13:14:44.
