data_PCOD9571560
_publ_section_title
;
Structure prediction by ZEFSAII (Michael W. Deem and Ramdas Pophale) SiO2 
 PCOD9571560
Probable space group: I 4/M M M
;
_chemical_formula_sum "Si O2"
_cell_formula_units_Z 160
_cell_length_a 30.608173
_cell_length_b 30.608173
_cell_length_c 8.222974
_cell_angle_alpha 90.000000
_cell_angle_beta 90.000000
_cell_angle_gamma 90.000000
_cell_volume 7703.777514
_symmetry_space_group_name_H-M "I 4/M M M"
_symmetry_group_IT_number 139
_symmetry_cell_setting 'tetragonal'
loop_
_space_group_symop_operation_xyz
x,y,z
-y,x,z
-x,-y,z
y,-x,z
x,-y,-z
-x,y,-z
y,x,-z
-y,-x,-z
-x,-y,-z
y,-x,-z
x,y,-z
-y,x,-z
-x,y,z
x,-y,z
-y,-x,z
y,x,z
1/2+x,1/2+y,1/2+z
1/2-y,1/2+x,1/2+z
1/2-x,1/2-y,1/2+z
1/2+y,1/2-x,1/2+z
1/2+x,1/2-y,1/2-z
1/2-x,1/2+y,1/2-z
1/2+y,1/2+x,1/2-z
1/2-y,1/2-x,1/2-z
1/2-x,1/2-y,1/2-z
1/2+y,1/2-x,1/2-z
1/2+x,1/2+y,1/2-z
1/2-y,1/2+x,1/2-z
1/2-x,1/2+y,1/2+z
1/2+x,1/2-y,1/2+z
1/2-y,1/2-x,1/2+z
1/2+y,1/2+x,1/2+z
loop_
_atom_site_type_symbol
_atom_site_label
_atom_site_fract_x
_atom_site_fract_y
_atom_site_fract_z
Si Si1 0.449744 0.382434 0.804158
Si Si2 0.268832 0.500000 0.317497
Si Si3 0.500000 0.182385 0.175912
Si Si4 0.586085 0.846298 0.690238
Si Si5 0.797387 0.905407 0.193837
Si Si6 0.724323 0.844167 0.693560
O O1 0.500000 0.375668 0.748123
O O2 0.430349 0.430349 0.768434
O O3 0.415469 0.347751 0.731609
O O4 0.449761 0.376932 0.000000
O O5 0.287779 0.500000 0.500000
O O6 0.217115 0.500000 0.319596
O O7 0.278943 0.547439 0.241895
O O8 0.543729 0.156384 0.199986
O O9 0.500000 0.204787 0.000000
O O10 0.575989 0.847721 0.500000
O O11 0.612625 0.887376 0.750000
O O12 0.618403 0.805454 0.723679
O O13 0.773122 0.862584 0.265954
O O14 0.790253 0.903171 0.000000
O O15 0.718883 0.845452 0.500000
O O16 0.702406 0.797595 0.750000
#
# Coordination Sequence:
#
# PCOD9571560 Si02
#       6
#    32  16  16  32  32  32
#     4  10  22  40  63  92 126 164 208 257 310 369
#     4  10  20  32  50  78 112 148 190 243 298 354
#     4  12  22  32  50  75 103 139 179 226 288 351
#     4  11  21  34  49  70 101 137 179 229 284 346
#     4  11  21  36  58  85 120 159 201 251 306 363
#     4  11  21  34  53  81 117 157 198 242 294 356
#
# _framework density 20.769033
#
# number of rings (size 3 to 8) (size 9 to 14) (size 15 to 20)
#    0.000    1.200    3.000    6.300    0.000    1.400 
#    0.000    1.000    0.000    0.900    0.000    3.500 
#    0.000    0.000    0.000    0.000    0.000    0.000 
#
# Total GULP energy -445796.917181 kJ/mol
# GULP energy per Si atom -5572.461465 kJ/mol
# Density = 2.072176 g / cm^3
# Si number density = 20.769033 Si / 1000 Ang^3
#
#
#
# Elastic Constant Matrix: (Units=GPa)
#
#
# Indices 1 2 3 4 5 6 
#
# 1 70.8452 63.4221 13.0109 0.0000 0.0000 0.0000
# 2 63.4221 70.8472 13.0102 0.0000 0.0000 0.0000
# 3 13.0109 13.0102 95.3921 0.0000 0.0000 0.0000
# 4 0.0000 0.0000 0.0000 21.3748 0.0000 0.0000
# 5 0.0000 0.0000 0.0000 0.0000 21.3755 0.0000
# 6 0.0000 0.0000 0.0000 0.0000 0.0000 60.4698
#
#
#
# Elastic Compliance Matrix: (Units=1/GPa)
#
#
# Indices 1 2 3 4 5 6 
#
# 1 0.071174 -0.063523 -0.001044 0.000000 0.000000 0.000000
# 2 -0.063523 0.071172 -0.001043 0.000000 0.000000 0.000000
# 3 -0.001044 -0.001043 0.010768 0.000000 0.000000 0.000000
# 4 0.000000 0.000000 0.000000 0.046784 0.000000 0.000000
# 5 0.000000 0.000000 0.000000 0.000000 0.046783 0.000000
# 6 0.000000 0.000000 0.000000 0.000000 0.000000 0.016537
#
#
# Mechanical properties :
#
#
# Convention : Reuss Voigt Hill
#
# Bulk Modulus (GPa) = 45.67441 46.21898 45.94670
# Shear Modulus (GPa) = 12.44602 30.48678 21.46640
#
# Velocity S-wave (km/s) = 2.45063 3.83547 3.21842
# Velocity P-wave (km/s) = 5.48150 6.47430 5.99847
#
# Compressibility (1/GPa) = 0.02189410
#
# Stress axis : x y z
#
# Youngs Moduli (GPa) = 14.05006 14.05051 92.87071
#
# Poissons Ratio (x) = 0.89253 0.09696
# Poissons Ratio (y) = 0.89250 0.09684
# Poissons Ratio (z) = 0.01467 0.01465
#
# Static dielectric constant tensor:
#      x y z
#    x 1.801080 0.000000 0.000000 
#    y 0.000000 1.801070 0.000000 
#    z 0.000000 0.000000 1.728100 
# 
# From -- ./inp_files/2283.got.cif
#   From: 2010.05.17/outbox.cif.g08.bks.cpg/sg139_2_cif.got.tgz:2283.got - 2010.05.20 13:14:44.
