data_PCOD9571265
_publ_section_title
;
Structure prediction by ZEFSAII (Michael W. Deem and Ramdas Pophale) SiO2 
 PCOD9571265
Probable space group: I 4/M M M
;
_chemical_formula_sum "Si O2"
_cell_formula_units_Z 160
_cell_length_a 30.090419
_cell_length_b 30.090419
_cell_length_c 9.411964
_cell_angle_alpha 90.000000
_cell_angle_beta 90.000000
_cell_angle_gamma 90.000000
_cell_volume 8521.905771
_symmetry_space_group_name_H-M "I 4/M M M"
_symmetry_group_IT_number 139
_symmetry_cell_setting 'tetragonal'
loop_
_space_group_symop_operation_xyz
x,y,z
-y,x,z
-x,-y,z
y,-x,z
x,-y,-z
-x,y,-z
y,x,-z
-y,-x,-z
-x,-y,-z
y,-x,-z
x,y,-z
-y,x,-z
-x,y,z
x,-y,z
-y,-x,z
y,x,z
1/2+x,1/2+y,1/2+z
1/2-y,1/2+x,1/2+z
1/2-x,1/2-y,1/2+z
1/2+y,1/2-x,1/2+z
1/2+x,1/2-y,1/2-z
1/2-x,1/2+y,1/2-z
1/2+y,1/2+x,1/2-z
1/2-y,1/2-x,1/2-z
1/2-x,1/2-y,1/2-z
1/2+y,1/2-x,1/2-z
1/2+x,1/2+y,1/2-z
1/2-y,1/2+x,1/2-z
1/2-x,1/2+y,1/2+z
1/2+x,1/2-y,1/2+z
1/2-y,1/2-x,1/2+z
1/2+y,1/2+x,1/2+z
loop_
_atom_site_type_symbol
_atom_site_label
_atom_site_fract_x
_atom_site_fract_y
_atom_site_fract_z
Si Si1 0.449195 0.380235 0.830150
Si Si2 0.254680 0.500000 0.344076
Si Si3 0.500000 0.176280 0.165005
Si Si4 0.586470 0.851623 0.665183
Si Si5 0.803411 0.904242 0.163048
Si Si6 0.725291 0.838444 0.834528
O O1 0.500000 0.374944 0.778536
O O2 0.428806 0.428806 0.801039
O O3 0.415864 0.344902 0.760751
O O4 0.449431 0.373851 0.000000
O O5 0.229921 0.500000 0.500000
O O6 0.228479 0.500000 0.196675
O O7 0.279049 0.547476 0.343643
O O8 0.542814 0.160183 0.249185
O O9 0.500000 0.165153 0.000000
O O10 0.578225 0.861303 0.500000
O O11 0.608480 0.891521 0.750000
O O12 0.621800 0.811131 0.670933
O O13 0.770633 0.864069 0.211743
O O14 0.816145 0.893957 0.000000
O O15 0.702925 0.797076 0.750000
O O16 0.730792 0.825671 0.000000
#
# Coordination Sequence:
#
# PCOD9571265 Si02
#       6
#    32  16  16  32  32  32
#     4  10  22  39  59  86 118 152 191 236 287 344
#     4  10  18  32  50  74 108 144 178 227 284 334
#     4  12  22  30  46  73 101 135 175 216 270 335
#     4  10  19  33  48  67  97 132 171 220 274 331
#     4  10  19  34  56  81 112 150 189 232 286 340
#     4   9  18  31  49  75 109 146 182 222 274 330
#
# _framework density 18.775144000000001
#
# number of rings (size 3 to 8) (size 9 to 14) (size 15 to 20)
#    0.000    2.000    3.000    1.500    0.000    3.000 
#    0.000    1.000    0.000    0.900    0.000    3.500 
#    0.000    0.000    0.000    0.000    0.000    0.000 
#
# Total GULP energy -445542.252818 kJ/mol
# GULP energy per Si atom -5569.278160 kJ/mol
# Density = 1.873241 g / cm^3
# Si number density = 18.775144 Si / 1000 Ang^3
#
#
#
# Elastic Constant Matrix: (Units=GPa)
#
#
# Indices 1 2 3 4 5 6 
#
# 1 60.4234 59.2544 36.1342 0.0000 0.0000 0.0000
# 2 59.2544 60.4211 36.1353 0.0000 0.0000 0.0000
# 3 36.1342 36.1353 90.7883 0.0000 0.0000 0.0000
# 4 0.0000 0.0000 0.0000 16.8457 0.0000 0.0000
# 5 0.0000 0.0000 0.0000 0.0000 16.8468 0.0000
# 6 0.0000 0.0000 0.0000 0.0000 0.0000 42.2843
#
#
#
# Elastic Compliance Matrix: (Units=1/GPa)
#
#
# Indices 1 2 3 4 5 6 
#
# 1 0.433597 -0.422612 -0.004367 0.000000 0.000000 0.000000
# 2 -0.422612 0.433626 -0.004389 0.000000 0.000000 0.000000
# 3 -0.004367 -0.004389 0.014500 0.000000 0.000000 0.000000
# 4 0.000000 0.000000 0.000000 0.059362 0.000000 0.000000
# 5 0.000000 0.000000 0.000000 0.000000 0.059359 0.000000
# 6 0.000000 0.000000 0.000000 0.000000 0.000000 0.023649
#
#
# Mechanical properties :
#
#
# Convention : Reuss Voigt Hill
#
# Bulk Modulus (GPa) = 52.66785 52.74231 52.70508
# Shear Modulus (GPa) = 2.64109 20.53595 11.58852
#
# Velocity S-wave (km/s) = 1.18733 3.31083 2.48710
# Velocity P-wave (km/s) = 5.47654 6.53972 6.03160
#
# Compressibility (1/GPa) = 0.01898692
#
# Stress axis : x y z
#
# Youngs Moduli (GPa) = 2.30629 2.30613 68.96743
#
# Poissons Ratio (x) = 0.97460 0.30117
# Poissons Ratio (y) = 0.97467 0.30270
# Poissons Ratio (z) = 0.01007 0.01012
#
# Static dielectric constant tensor:
#      x y z
#    x 1.738860 0.000000 0.000000 
#    y 0.000000 1.739050 0.000000 
#    z 0.000000 0.000000 1.646750 
# 
# From -- ./inp_files/2282.got.cif
#   From: 2010.05.17/outbox.cif.g08.bks.cpg/sg139_2_cif.got.tgz:2282.got - 2010.05.20 13:14:44.
