data_PCOD9571497
_publ_section_title
;
Structure prediction by ZEFSAII (Michael W. Deem and Ramdas Pophale) SiO2 
 PCOD9571497
Probable space group: I 4/M M M
;
_chemical_formula_sum "Si O2"
_cell_formula_units_Z 144
_cell_length_a 22.299237
_cell_length_b 22.299237
_cell_length_c 17.313942
_cell_angle_alpha 90.000000
_cell_angle_beta 90.000000
_cell_angle_gamma 90.000000
_cell_volume 8609.461037
_symmetry_space_group_name_H-M "I 4/M M M"
_symmetry_group_IT_number 139
_symmetry_cell_setting 'tetragonal'
loop_
_space_group_symop_operation_xyz
x,y,z
-y,x,z
-x,-y,z
y,-x,z
x,-y,-z
-x,y,-z
y,x,-z
-y,-x,-z
-x,-y,-z
y,-x,-z
x,y,-z
-y,x,-z
-x,y,z
x,-y,z
-y,-x,z
y,x,z
1/2+x,1/2+y,1/2+z
1/2-y,1/2+x,1/2+z
1/2-x,1/2-y,1/2+z
1/2+y,1/2-x,1/2+z
1/2+x,1/2-y,1/2-z
1/2-x,1/2+y,1/2-z
1/2+y,1/2+x,1/2-z
1/2-y,1/2-x,1/2-z
1/2-x,1/2-y,1/2-z
1/2+y,1/2-x,1/2-z
1/2+x,1/2+y,1/2-z
1/2-y,1/2+x,1/2-z
1/2-x,1/2+y,1/2+z
1/2+x,1/2-y,1/2+z
1/2-y,1/2-x,1/2+z
1/2+y,1/2+x,1/2+z
loop_
_atom_site_type_symbol
_atom_site_label
_atom_site_fract_x
_atom_site_fract_y
_atom_site_fract_z
Si Si1 0.745496 0.569245 0.656492
Si Si2 0.430464 0.889758 0.335693
Si Si3 0.672425 0.571402 0.500000
Si Si4 0.843507 0.251828 0.290914
Si Si5 0.068220 0.315026 0.590016
O O1 0.732247 0.500000 0.675804
O O2 0.817967 0.574241 0.652220
O O3 0.713034 0.583095 0.575832
O O4 0.726155 0.613694 0.724080
O O5 0.500000 0.906566 0.343650
O O6 0.407850 0.907850 0.250000
O O7 0.385488 0.921530 0.394328
O O8 0.657170 0.500000 0.500000
O O9 0.614756 0.614756 0.500000
O O10 0.798919 0.201082 0.321416
O O11 0.802279 0.302279 0.250000
O O12 0.884482 0.281063 0.356335
O O13 0.076286 0.301594 0.500000
O O14 0.000000 0.299920 0.613108
#
# Coordination Sequence:
#
# PCOD9571497 Si02
#       5
#    32  32  16  32  32
#     4  10  19  34  55  78 109 142 177 220 266 318
#     4  11  21  34  55  77 105 145 184 223 267 313
#     4  10  22  37  56  84 111 143 183 223 274 328
#     4  11  21  35  55  79 105 138 181 222 269 322
#     4  11  23  38  54  75 108 145 183 227 272 314
#
# _framework density 16.725784999999998
#
# number of rings (size 3 to 8) (size 9 to 14) (size 15 to 20)
#    0.000    1.333    4.444    2.000    1.556    2.556 
#    0.000    1.111    0.000    0.000    0.000    0.000 
#    0.000    4.000    0.000    9.778    0.000    0.000 
#
# Total GULP energy -402003.786892 kJ/mol
# GULP energy per Si atom -5583.385929 kJ/mol
# Density = 1.668772 g / cm^3
# Si number density = 16.725785 Si / 1000 Ang^3
#
#
#
# Elastic Constant Matrix: (Units=GPa)
#
#
# Indices 1 2 3 4 5 6 
#
# 1 89.0619 78.6253 57.2727 0.0000 0.0000 0.0000
# 2 78.6253 89.0619 57.2727 0.0000 0.0000 0.0000
# 3 57.2727 57.2727 79.6028 0.0000 0.0000 0.0000
# 4 0.0000 0.0000 0.0000 16.2875 0.0000 0.0000
# 5 0.0000 0.0000 0.0000 0.0000 16.2875 0.0000
# 6 0.0000 0.0000 0.0000 0.0000 0.0000 29.8935
#
#
#
# Elastic Compliance Matrix: (Units=1/GPa)
#
#
# Indices 1 2 3 4 5 6 
#
# 1 0.053772 -0.042045 -0.008437 0.000000 0.000000 0.000000
# 2 -0.042045 0.053772 -0.008437 0.000000 0.000000 0.000000
# 3 -0.008437 -0.008437 0.024703 0.000000 0.000000 0.000000
# 4 0.000000 0.000000 0.000000 0.061397 0.000000 0.000000
# 5 0.000000 0.000000 0.000000 0.000000 0.061397 0.000000
# 6 0.000000 0.000000 0.000000 0.000000 0.000000 0.033452
#
#
# Mechanical properties :
#
#
# Convention : Reuss Voigt Hill
#
# Bulk Modulus (GPa) = 69.40601 71.56312 70.48456
# Shear Modulus (GPa) = 12.16143 16.79739 14.47941
#
# Velocity S-wave (km/s) = 2.69942 3.17248 2.94546
# Velocity P-wave (km/s) = 7.16256 7.50323 7.33487
#
# Compressibility (1/GPa) = 0.01440797
#
# Stress axis : x y z
#
# Youngs Moduli (GPa) = 18.59700 18.59700 40.48034
#
# Poissons Ratio (x) = 0.78191 0.34154
# Poissons Ratio (y) = 0.78191 0.34154
# Poissons Ratio (z) = 0.15691 0.15691
#
# Static dielectric constant tensor:
#      x y z
#    x 1.565520 0.000000 0.000000 
#    y 0.000000 1.565520 0.000000 
#    z 0.000000 0.000000 1.552290 
# 
# From -- ./inp_files/8233.got.cif
#   From: 2010.05.17/outbox.cif.g08.bks.cpg/sg139_5_cif.got.tgz:8233.got - 2010.05.20 13:14:44.
