data_PCOD9571676
_publ_section_title
;
Structure prediction by ZEFSAII (Michael W. Deem and Ramdas Pophale) SiO2 
 PCOD9571676
Probable space group: I 4/M M M
;
_chemical_formula_sum "Si O2"
_cell_formula_units_Z 240
_cell_length_a 20.471309
_cell_length_b 20.471309
_cell_length_c 32.362119
_cell_angle_alpha 90.000000
_cell_angle_beta 90.000000
_cell_angle_gamma 90.000000
_cell_volume 13562.138586
_symmetry_space_group_name_H-M "I 4/M M M"
_symmetry_group_IT_number 139
_symmetry_cell_setting 'tetragonal'
loop_
_space_group_symop_operation_xyz
x,y,z
-y,x,z
-x,-y,z
y,-x,z
x,-y,-z
-x,y,-z
y,x,-z
-y,-x,-z
-x,-y,-z
y,-x,-z
x,y,-z
-y,x,-z
-x,y,z
x,-y,z
-y,-x,z
y,x,z
1/2+x,1/2+y,1/2+z
1/2-y,1/2+x,1/2+z
1/2-x,1/2-y,1/2+z
1/2+y,1/2-x,1/2+z
1/2+x,1/2-y,1/2-z
1/2-x,1/2+y,1/2-z
1/2+y,1/2+x,1/2-z
1/2-y,1/2-x,1/2-z
1/2-x,1/2-y,1/2-z
1/2+y,1/2-x,1/2-z
1/2+x,1/2+y,1/2-z
1/2-y,1/2+x,1/2-z
1/2-x,1/2+y,1/2+z
1/2+x,1/2-y,1/2+z
1/2-y,1/2-x,1/2+z
1/2+y,1/2+x,1/2+z
loop_
_atom_site_type_symbol
_atom_site_label
_atom_site_fract_x
_atom_site_fract_y
_atom_site_fract_z
Si Si1 0.690607 0.423075 0.500000
Si Si2 0.372852 0.736564 0.584817
Si Si3 0.309367 0.125197 0.399071
Si Si4 0.576751 0.159905 0.809966
Si Si5 0.572464 0.078063 0.546471
Si Si6 0.302100 0.923912 0.217666
Si Si7 0.183412 0.074747 0.165633
Si Si8 0.314708 0.577175 0.951031
O O1 0.671599 0.500000 0.500000
O O2 0.626986 0.373015 0.500000
O O3 0.734437 0.407248 0.459643
O O4 0.323214 0.676787 0.583547
O O5 0.329485 0.799263 0.596376
O O6 0.422258 0.719888 0.621526
O O7 0.305742 0.099580 0.352113
O O8 0.371791 0.092633 0.421094
O O9 0.244511 0.106045 0.424083
O O10 0.500000 0.139728 0.813614
O O11 0.630773 0.104321 0.800954
O O12 0.582136 0.200112 0.767221
O O13 0.588840 0.101607 0.500000
O O14 0.500000 0.103247 0.557738
O O15 0.568056 0.000000 0.544101
O O16 0.237099 0.895929 0.197042
O O17 0.301855 0.000000 0.207349
O O18 0.119902 0.119902 0.164650
O O19 0.167075 0.000000 0.176052
O O20 0.323494 0.500000 0.942254
O O21 0.379622 0.620379 0.943832
O O22 0.298498 0.583021 0.000000
#
# Coordination Sequence:
#
# PCOD9571676 Si02
#       8
#    16  32  32  32  32  32  32  32
#     4  10  22  39  58  82 113 149 194 242 288 340
#     4  10  22  37  54  80 112 148 186 230 279 331
#     4  12  21  34  55  82 114 149 192 231 277 340
#     4  10  20  34  55  82 112 147 190 233 277 336
#     4   9  19  33  46  67 104 146 186 228 271 318
#     4   9  19  37  56  78 112 148 184 234 288 339
#     4  10  20  38  61  85 114 147 188 237 290 344
#     4  10  22  39  60  85 113 148 191 241 295 346
#
# _framework density 17.696325000000002
#
# number of rings (size 3 to 8) (size 9 to 14) (size 15 to 20)
#    0.000    2.000    1.333    2.800    1.867    3.267 
#    0.000    4.667    0.000    2.400    0.000    0.000 
#    0.000    3.200    0.000    0.000    0.000    0.000 
#
# Total GULP energy -668556.090724 kJ/mol
# GULP energy per Si atom -5571.300756 kJ/mol
# Density = 1.765605 g / cm^3
# Si number density = 17.696325 Si / 1000 Ang^3
#
#
#
# Elastic Constant Matrix: (Units=GPa)
#
#
# Indices 1 2 3 4 5 6 
#
# 1 86.3213 34.3592 43.3427 0.0000 0.0000 0.0000
# 2 34.3592 86.3217 43.3428 0.0000 0.0000 0.0000
# 3 43.3427 43.3428 92.2873 0.0000 0.0000 0.0000
# 4 0.0000 0.0000 0.0000 7.1837 0.0000 0.0000
# 5 0.0000 0.0000 0.0000 0.0000 7.1843 0.0000
# 6 0.0000 0.0000 0.0000 0.0000 0.0000 21.1917
#
#
#
# Elastic Compliance Matrix: (Units=1/GPa)
#
#
# Indices 1 2 3 4 5 6 
#
# 1 0.015875 -0.003370 -0.005873 0.000000 0.000000 0.000000
# 2 -0.003370 0.015875 -0.005873 0.000000 0.000000 0.000000
# 3 -0.005873 -0.005873 0.016352 0.000000 0.000000 0.000000
# 4 0.000000 0.000000 0.000000 0.139204 0.000000 0.000000
# 5 0.000000 0.000000 0.000000 0.000000 0.139192 0.000000
# 6 0.000000 0.000000 0.000000 0.000000 0.000000 0.047188
#
#
# Mechanical properties :
#
#
# Convention : Reuss Voigt Hill
#
# Bulk Modulus (GPa) = 55.95895 56.33552 56.14724
# Shear Modulus (GPa) = 12.19886 16.70431 14.45159
#
# Velocity S-wave (km/s) = 2.62839 3.07570 2.86080
# Velocity P-wave (km/s) = 6.39544 6.67210 6.53523
#
# Compressibility (1/GPa) = 0.01787024
#
# Stress axis : x y z
#
# Youngs Moduli (GPa) = 62.99276 62.99305 61.15395
#
# Poissons Ratio (x) = 0.21228 0.35915
# Poissons Ratio (y) = 0.21228 0.35915
# Poissons Ratio (z) = 0.36995 0.36995
#
# Static dielectric constant tensor:
#      x y z
#    x 1.619290 0.000000 0.000000 
#    y 0.000000 1.619290 0.000000 
#    z 0.000000 0.000000 1.642450 
# 
# From -- ./inp_files/14669.got.cif
#   From: 2010.05.17/outbox.cif.g08.bks.cpg/sg139_8_cif.got.tgz:14669.got - 2010.05.20 13:14:44.
