data_PCOD9571982
_publ_section_title
;
Structure prediction by ZEFSAII (Michael W. Deem and Ramdas Pophale) SiO2 
 PCOD9571982
Probable space group: I 4/M M M
;
_chemical_formula_sum "Si O2"
_cell_formula_units_Z 80
_cell_length_a 18.000000
_cell_length_b 18.000000
_cell_length_c 27.000000
_cell_angle_alpha 90.000000
_cell_angle_beta 90.000000
_cell_angle_gamma 90.000000
_cell_volume 8748.000000
_symmetry_space_group_name_H-M "I 4/M M M"
_symmetry_group_IT_number 139
_symmetry_cell_setting 'tetragonal'
loop_
_space_group_symop_operation_xyz
x,y,z
-y,x,z
-x,-y,z
y,-x,z
x,-y,-z
-x,y,-z
y,x,-z
-y,-x,-z
-x,-y,-z
y,-x,-z
x,y,-z
-y,x,-z
-x,y,z
x,-y,z
-y,-x,z
y,x,z
1/2+x,1/2+y,1/2+z
1/2-y,1/2+x,1/2+z
1/2-x,1/2-y,1/2+z
1/2+y,1/2-x,1/2+z
1/2+x,1/2-y,1/2-z
1/2-x,1/2+y,1/2-z
1/2+y,1/2+x,1/2-z
1/2-y,1/2-x,1/2-z
1/2-x,1/2-y,1/2-z
1/2+y,1/2-x,1/2-z
1/2+x,1/2+y,1/2-z
1/2-y,1/2+x,1/2-z
1/2-x,1/2+y,1/2+z
1/2+x,1/2-y,1/2+z
1/2-y,1/2-x,1/2+z
1/2+y,1/2+x,1/2+z
loop_
_atom_site_type_symbol
_atom_site_label
_atom_site_fract_x
_atom_site_fract_y
_atom_site_fract_z
Si Si1 0.661808 0.829116 0.132659
Si Si2 0.296130 0.585190 0.683108
Si Si3 0.916075 0.916075 0.560196
Si Si4 0.588446 0.083521 0.946936
Si Si5 0.793997 0.206004 0.441416
Si Si6 0.794480 0.085196 0.301525
O O1 0.731241 0.869349 0.156954
O O2 0.606854 0.885595 0.106821
O O3 0.684687 0.781620 0.084906
O O4 0.624801 0.773569 0.171422
O O5 0.296736 0.500000 0.667334
O O6 0.373413 0.626588 0.673131
O O7 0.283548 0.587867 0.742324
O O8 0.917395 0.917395 0.500000
O O9 0.855473 0.855473 0.573353
O O10 0.000000 0.897743 0.576338
O O11 0.500000 0.082482 0.949513
O O12 0.618095 0.000000 0.948054
O O13 0.612644 0.119556 0.000000
O O14 0.790250 0.209751 0.500000
O O15 0.868864 0.131137 0.312522
O O16 0.800070 0.000000 0.316965
#
# Coordination Sequence:
#
# PCOD9571982 Si02
#       6
#    32  32  16  32  16  32
#     4  12  20  36  54  82 112 146 180 223 282 336
#     4  10  21  38  61  86 111 141 179 227 282 345
#     4   8  16  33  52  69  99 145 192 235 276 316
#     4   9  19  35  54  77 106 143 187 231 273 319
#     4  11  23  34  50  79 110 146 192 234 270 321
#     4  10  21  37  57  83 114 149 188 228 276 329
#
# _framework density 9.1449470000000002
#
# number of rings (size 3 to 8) (size 9 to 14) (size 15 to 20)
#    0.000    1.900    2.000    3.300    0.000    3.600 
#    0.000    4.000    0.000    0.000    0.000    8.400 
#    0.000    0.800    0.000    0.000    0.000    0.000 
#
# Total GULP energy -445583.250366 kJ/mol
# GULP energy per Si atom -5569.790630 kJ/mol
# Density = 0.912413 g / cm^3
# Si number density = 9.144947 Si / 1000 Ang^3
#
#
#
# Elastic Constant Matrix: (Units=GPa)
#
#
# Indices 1 2 3 4 5 6 
#
# 1 112.0914 69.1764 52.2244 0.0000 0.0000 0.0000
# 2 69.1764 112.0914 52.2243 0.0000 0.0000 0.0000
# 3 52.2244 52.2243 56.5966 0.0000 0.0000 0.0000
# 4 0.0000 0.0000 0.0000 13.1227 0.0000 0.0000
# 5 0.0000 0.0000 0.0000 0.0000 13.1242 0.0000
# 6 0.0000 0.0000 0.0000 0.0000 0.0000 20.9635
#
#
#
# Elastic Compliance Matrix: (Units=1/GPa)
#
#
# Indices 1 2 3 4 5 6 
#
# 1 0.017541 -0.005761 -0.010870 0.000000 0.000000 0.000000
# 2 -0.005761 0.017541 -0.010870 0.000000 0.000000 0.000000
# 3 -0.010870 -0.010870 0.037730 0.000000 0.000000 0.000000
# 4 0.000000 0.000000 0.000000 0.076204 0.000000 0.000000
# 5 0.000000 0.000000 0.000000 0.000000 0.076195 0.000000
# 6 0.000000 0.000000 0.000000 0.000000 0.000000 0.047702
#
#
# Mechanical properties :
#
#
# Convention : Reuss Voigt Hill
#
# Bulk Modulus (GPa) = 56.14976 69.78107 62.96542
# Shear Modulus (GPa) = 14.97674 16.58572 15.78123
#
# Velocity S-wave (km/s) = 2.86467 3.01462 2.94060
# Velocity P-wave (km/s) = 6.45819 7.09598 6.78458
#
# Compressibility (1/GPa) = 0.01780951
#
# Stress axis : x y z
#
# Youngs Moduli (GPa) = 57.00912 57.00920 26.50431
#
# Poissons Ratio (x) = 0.32842 0.28811
# Poissons Ratio (y) = 0.32842 0.28811
# Poissons Ratio (z) = 0.61970 0.61970
#
# Static dielectric constant tensor:
#      x y z
#    x 1.768830 0.000000 0.000000 
#    y 0.000000 1.768830 0.000000 
#    z 0.000000 0.000000 1.643050 
# 
# From -- ./inp_files/12959.got.cif
#   From: 2010.05.17/outbox.ucp.g08.bks.cvg/sg139_7_cif.got.tgz:12959.got - 2010.06.11 11:42:03.
