data_PCOD9571673
_publ_section_title
;
Structure prediction by ZEFSAII (Michael W. Deem and Ramdas Pophale) SiO2 
 PCOD9571673
Probable space group: I 4/M M M
;
_chemical_formula_sum "Si O2"
_cell_formula_units_Z 176
_cell_length_a 17.824708
_cell_length_b 17.824708
_cell_length_c 27.943995
_cell_angle_alpha 90.000000
_cell_angle_beta 90.000000
_cell_angle_gamma 90.000000
_cell_volume 8878.372107
_symmetry_space_group_name_H-M "I 4/M M M"
_symmetry_group_IT_number 139
_symmetry_cell_setting 'tetragonal'
loop_
_space_group_symop_operation_xyz
x,y,z
-y,x,z
-x,-y,z
y,-x,z
x,-y,-z
-x,y,-z
y,x,-z
-y,-x,-z
-x,-y,-z
y,-x,-z
x,y,-z
-y,x,-z
-x,y,z
x,-y,z
-y,-x,z
y,x,z
1/2+x,1/2+y,1/2+z
1/2-y,1/2+x,1/2+z
1/2-x,1/2-y,1/2+z
1/2+y,1/2-x,1/2+z
1/2+x,1/2-y,1/2-z
1/2-x,1/2+y,1/2-z
1/2+y,1/2+x,1/2-z
1/2-y,1/2-x,1/2-z
1/2-x,1/2-y,1/2-z
1/2+y,1/2-x,1/2-z
1/2+x,1/2+y,1/2-z
1/2-y,1/2+x,1/2-z
1/2-x,1/2+y,1/2+z
1/2+x,1/2-y,1/2+z
1/2-y,1/2-x,1/2+z
1/2+y,1/2+x,1/2+z
loop_
_atom_site_type_symbol
_atom_site_label
_atom_site_fract_x
_atom_site_fract_y
_atom_site_fract_z
Si Si1 0.408479 0.281465 0.868541
Si Si2 0.910366 0.303316 0.269862
Si Si3 0.411468 0.000000 0.945401
Si Si4 0.859171 0.340812 0.445486
Si Si5 0.299299 0.586909 0.313696
Si Si6 0.589343 0.292415 0.425056
O O1 0.500000 0.294328 0.869487
O O2 0.357425 0.357425 0.868242
O O3 0.389284 0.232218 0.821027
O O4 0.383661 0.228950 0.913226
O O5 0.882710 0.382710 0.250000
O O6 0.878148 0.250836 0.227446
O O7 0.000000 0.303830 0.270630
O O8 0.388228 0.079553 0.923714
O O9 0.500000 0.000000 0.948197
O O10 0.379807 0.000000 0.000000
O O11 0.888494 0.332579 0.500000
O O12 0.770854 0.358653 0.448165
O O13 0.298277 0.500000 0.305238
O O14 0.382040 0.617961 0.309197
O O15 0.275818 0.598815 0.368310
O O16 0.500000 0.288159 0.436554
O O17 0.626407 0.373593 0.434534
#
# Coordination Sequence:
#
# PCOD9571673 Si02
#       6
#    32  32  16  32  32  32
#     4  11  25  43  64  93 125 162 209 257 311 373
#     4  10  21  38  59  85 120 158 198 244 294 355
#     4   9  18  34  58  84 111 143 179 231 302 370
#     4  11  22  39  62  88 118 153 199 256 315 373
#     4   9  18  32  52  78 108 145 186 232 282 337
#     4  10  20  34  54  84 120 159 203 246 295 357
#
# _framework density 19.823454999999999
#
# number of rings (size 3 to 8) (size 9 to 14) (size 15 to 20)
#    0.000    1.909    0.909    2.727    0.000    6.182 
#    1.636    1.818    0.000    3.273    0.000    2.545 
#    0.000    0.000    0.000    0.000    0.000    0.000 
#
# Total GULP energy -489959.193797 kJ/mol
# GULP energy per Si atom -5567.718111 kJ/mol
# Density = 1.977834 g / cm^3
# Si number density = 19.823455 Si / 1000 Ang^3
#
#
#
# Elastic Constant Matrix: (Units=GPa)
#
#
# Indices 1 2 3 4 5 6 
#
# 1 89.0597 36.8897 40.6020 0.0000 0.0000 0.0000
# 2 36.8897 89.0597 40.6020 0.0000 0.0000 0.0000
# 3 40.6020 40.6020 85.6851 0.0000 0.0000 0.0000
# 4 0.0000 0.0000 0.0000 8.2441 0.0000 0.0000
# 5 0.0000 0.0000 0.0000 0.0000 8.2441 0.0000
# 6 0.0000 0.0000 0.0000 0.0000 0.0000 34.4482
#
#
#
# Elastic Compliance Matrix: (Units=1/GPa)
#
#
# Indices 1 2 3 4 5 6 
#
# 1 0.015300 -0.003868 -0.005417 0.000000 0.000000 0.000000
# 2 -0.003868 0.015300 -0.005417 0.000000 0.000000 0.000000
# 3 -0.005417 -0.005417 0.016805 0.000000 0.000000 0.000000
# 4 0.000000 0.000000 0.000000 0.121298 0.000000 0.000000
# 5 0.000000 0.000000 0.000000 0.000000 0.121298 0.000000
# 6 0.000000 0.000000 0.000000 0.000000 0.000000 0.029029
#
#
# Mechanical properties :
#
#
# Convention : Reuss Voigt Hill
#
# Bulk Modulus (GPa) = 55.55447 55.55466 55.55456
# Shear Modulus (GPa) = 14.10694 19.90135 17.00415
#
# Velocity S-wave (km/s) = 2.67053 3.17192 2.93196
# Velocity P-wave (km/s) = 6.13143 6.44208 6.28867
#
# Compressibility (1/GPa) = 0.01800035
#
# Stress axis : x y z
#
# Youngs Moduli (GPa) = 65.35847 65.35847 59.50761
#
# Poissons Ratio (x) = 0.25280 0.32237
# Poissons Ratio (y) = 0.25280 0.32237
# Poissons Ratio (z) = 0.35406 0.35406
#
# Static dielectric constant tensor:
#      x y z
#    x 1.739020 0.000000 0.000000 
#    y 0.000000 1.739020 0.000000 
#    z 0.000000 0.000000 1.821830 
# 
# From -- ./inp_files/13126.got.cif
#   From: 2010.05.17/outbox.cif.g08.bks.cpg/sg139_7_cif.got.tgz:13126.got - 2010.05.20 13:14:44.
