data_PCOD9571100
_publ_section_title
;
Structure prediction by ZEFSAII (Michael W. Deem and Ramdas Pophale) SiO2 
 PCOD9571100
Probable space group: P 42/N C M
;
_chemical_formula_sum "Si O2"
_cell_formula_units_Z 48
_cell_length_a 11.857519
_cell_length_b 11.857519
_cell_length_c 17.347587
_cell_angle_alpha 90.000000
_cell_angle_beta 90.000000
_cell_angle_gamma 90.000000
_cell_volume 2439.083861
_symmetry_space_group_name_H-M "P 42/N C M"
_symmetry_group_IT_number 138
_space_group.IT_coordinate_system_code '2'
_symmetry_cell_setting 'tetragonal'
loop_
_space_group_symop_operation_xyz
x,y,z
1/2-y,x,1/2+z
1/2-x,1/2-y,z
y,1/2-x,1/2+z
1/2+x,-y,1/2-z
-x,1/2+y,1/2-z
1/2+y,1/2+x,-z
-y,-x,-z
-x,-y,-z
1/2+y,-x,1/2-z
1/2+x,1/2+y,-z
-y,1/2+x,1/2-z
1/2-x,y,1/2+z
x,1/2-y,1/2+z
1/2-y,1/2-x,z
y,x,z
loop_
_atom_site_type_symbol
_atom_site_label
_atom_site_fract_x
_atom_site_fract_y
_atom_site_fract_z
Si Si1 0.154771 0.345230 0.209851
Si Si2 0.154970 0.154970 0.532718
Si Si3 0.577904 0.226750 0.283345
Si Si4 0.423315 0.756071 0.532750
O O1 0.250000 0.250000 0.208997
O O2 0.125200 0.374801 0.121284
O O3 0.200767 0.454211 0.253394
O O4 0.250000 0.250000 0.533773
O O5 0.045574 0.211007 0.493100
O O6 0.627190 0.338827 0.243741
O O7 0.582248 0.238879 0.375091
O O8 0.375856 0.875856 0.500000
O O9 0.336141 0.663860 0.500000
#
# Coordination Sequence:
#
# PCOD9571100 Si02
#       4
#     8   8  16  16
#     4  11  26  43  66  97 135 172 222 271 329 388
#     4  11  25  43  65  94 135 173 215 270 331 389
#     4  11  24  43  69  96 134 173 223 270 333 393
#     4  11  23  42  70  95 130 172 225 268 328 392
#
# _framework density 19.679521999999999
#
# number of rings (size 3 to 8) (size 9 to 14) (size 15 to 20)
#    0.000    1.000    0.000    8.500    7.000    0.667 
#    0.000    0.000    0.000    0.000    0.000    0.000 
#    0.000    0.000    0.000    0.000    0.000    0.000 
#
# Total GULP energy -268395.686136 kJ/mol
# GULP energy per Si atom -5591.576795 kJ/mol
# Density = 1.963473 g / cm^3
# Si number density = 19.679522 Si / 1000 Ang^3
#
#
#
# Elastic Constant Matrix: (Units=GPa)
#
#
# Indices 1 2 3 4 5 6 
#
# 1 161.8949 32.3317 75.7483 0.0000 0.0000 0.0000
# 2 32.3317 161.8984 75.7442 0.0000 0.0000 0.0000
# 3 75.7483 75.7442 244.1226 0.0000 0.0000 0.0000
# 4 0.0000 0.0000 0.0000 28.9452 0.0000 0.0000
# 5 0.0000 0.0000 0.0000 0.0000 28.9443 0.0000
# 6 0.0000 0.0000 0.0000 0.0000 0.0000 18.4362
#
#
#
# Elastic Compliance Matrix: (Units=1/GPa)
#
#
# Indices 1 2 3 4 5 6 
#
# 1 0.007255 -0.000463 -0.002108 0.000000 0.000000 0.000000
# 2 -0.000463 0.007255 -0.002107 0.000000 0.000000 0.000000
# 3 -0.002108 -0.002107 0.005404 0.000000 0.000000 0.000000
# 4 0.000000 0.000000 0.000000 0.034548 0.000000 0.000000
# 5 0.000000 0.000000 0.000000 0.000000 0.034549 0.000000
# 6 0.000000 0.000000 0.000000 0.000000 0.000000 0.054241
#
#
# Mechanical properties :
#
#
# Convention : Reuss Voigt Hill
#
# Bulk Modulus (GPa) = 94.70786 103.95160 99.32973
# Shear Modulus (GPa) = 32.02489 40.87124 36.44807
#
# Velocity S-wave (km/s) = 4.03838 4.56218 4.30825
# Velocity P-wave (km/s) = 8.36506 8.98266 8.67936
#
# Compressibility (1/GPa) = 0.01055879
#
# Stress axis : x y z
#
# Youngs Moduli (GPa) = 137.82784 137.83391 185.04272
#
# Poissons Ratio (x) = 0.06380 0.39001
# Poissons Ratio (y) = 0.06380 0.38996
# Poissons Ratio (z) = 0.29049 0.29048
#
# Static dielectric constant tensor:
#      x y z
#    x 1.673630 0.000000 0.000000 
#    y 0.000000 1.673620 0.000000 
#    z 0.000000 0.000000 1.670370 
# 
# From -- ./inp_files/4753.got.cif
#   From: 2010.05.17/outbox.cif.g08.bks.cpg/sg138_3_cif.got.tgz:4753.got - 2010.05.20 13:08:53.
