data_PCOD9571872
_publ_section_title
;
Structure prediction by ZEFSAII (Michael W. Deem and Ramdas Pophale) SiO2 
 PCOD9571872
Probable space group: I 4/M M M
;
_chemical_formula_sum "Si O2"
_cell_formula_units_Z 240
_cell_length_a 31.961445
_cell_length_b 31.961445
_cell_length_c 14.285296
_cell_angle_alpha 90.000000
_cell_angle_beta 90.000000
_cell_angle_gamma 90.000000
_cell_volume 14592.915085
_symmetry_space_group_name_H-M "I 4/M M M"
_symmetry_group_IT_number 139
_symmetry_cell_setting 'tetragonal'
loop_
_space_group_symop_operation_xyz
x,y,z
-y,x,z
-x,-y,z
y,-x,z
x,-y,-z
-x,y,-z
y,x,-z
-y,-x,-z
-x,-y,-z
y,-x,-z
x,y,-z
-y,x,-z
-x,y,z
x,-y,z
-y,-x,z
y,x,z
1/2+x,1/2+y,1/2+z
1/2-y,1/2+x,1/2+z
1/2-x,1/2-y,1/2+z
1/2+y,1/2-x,1/2+z
1/2+x,1/2-y,1/2-z
1/2-x,1/2+y,1/2-z
1/2+y,1/2+x,1/2-z
1/2-y,1/2-x,1/2-z
1/2-x,1/2-y,1/2-z
1/2+y,1/2-x,1/2-z
1/2+x,1/2+y,1/2-z
1/2-y,1/2+x,1/2-z
1/2-x,1/2+y,1/2+z
1/2+x,1/2-y,1/2+z
1/2-y,1/2-x,1/2+z
1/2+y,1/2+x,1/2+z
loop_
_atom_site_type_symbol
_atom_site_label
_atom_site_fract_x
_atom_site_fract_y
_atom_site_fract_z
Si Si1 0.550096 0.950098 0.000000
Si Si2 0.888088 0.954049 0.886654
Si Si3 0.048376 0.789794 0.888681
Si Si4 0.820849 0.653436 0.395143
Si Si5 0.745625 0.323125 0.107677
Si Si6 0.611481 0.089462 0.355077
Si Si7 0.110103 0.741792 0.751432
Si Si8 0.048179 0.696164 0.390608
O O1 0.573388 0.927947 0.086536
O O2 0.500000 0.941240 0.000000
O O3 0.555226 0.000000 0.000000
O O4 0.917281 0.917281 0.850305
O O5 0.839187 0.948896 0.867473
O O6 0.901781 0.000000 0.853864
O O7 0.891149 0.954200 0.000000
O O8 0.081779 0.767132 0.824087
O O9 0.000000 0.776579 0.871087
O O10 0.056144 0.783776 0.000000
O O11 0.804598 0.643784 0.500000
O O12 0.820095 0.703816 0.385328
O O13 0.867386 0.633778 0.388891
O O14 0.793305 0.633455 0.313360
O O15 0.720250 0.279751 0.120566
O O16 0.733579 0.355815 0.188953
O O17 0.736940 0.337028 0.000000
O O18 0.597789 0.097789 0.250000
O O19 0.647464 0.054888 0.367021
O O20 0.079213 0.720892 0.676285
O O21 0.058812 0.702247 0.500000
O O22 0.000000 0.708161 0.376302
#
# Coordination Sequence:
#
# PCOD9571872 Si02
#       8
#    16  32  32  32  32  32  32  32
#     4  11  26  44  60  82 113 144 176 222 281 344
#     4   8  14  26  45  68  97 135 175 213 253 295
#     4   9  19  35  50  70 108 150 180 215 267 319
#     4  11  21  37  57  79 108 138 173 218 272 323
#     4  10  22  39  57  78 108 142 174 218 278 332
#     4  12  21  39  61  82 104 138 176 218 269 330
#     4  12  21  34  55  82 104 134 179 226 260 313
#     4  11  22  36  57  81 102 131 172 219 269 318
#
# _framework density 16.446337
#
# number of rings (size 3 to 8) (size 9 to 14) (size 15 to 20)
#    0.000    1.533    4.000    2.800    0.000    2.800 
#    0.000    1.333    0.000    4.000    0.000    0.000 
#    0.000    0.000    0.000    0.000    0.000    0.400 
#
# Total GULP energy -669165.907735 kJ/mol
# GULP energy per Si atom -5576.382564 kJ/mol
# Density = 1.640890 g / cm^3
# Si number density = 16.446337 Si / 1000 Ang^3
#
#
#
# Elastic Constant Matrix: (Units=GPa)
#
#
# Indices 1 2 3 4 5 6 
#
# 1 78.4457 58.8460 46.3244 0.0000 0.0000 0.0000
# 2 58.8460 78.4457 46.3244 0.0000 0.0000 0.0000
# 3 46.3244 46.3244 108.4995 0.0000 0.0000 0.0000
# 4 0.0000 0.0000 0.0000 13.8343 0.0000 0.0000
# 5 0.0000 0.0000 0.0000 0.0000 13.8343 0.0000
# 6 0.0000 0.0000 0.0000 0.0000 0.0000 32.3541
#
#
#
# Elastic Compliance Matrix: (Units=1/GPa)
#
#
# Indices 1 2 3 4 5 6 
#
# 1 0.030626 -0.020395 -0.004368 0.000000 0.000000 0.000000
# 2 -0.020395 0.030626 -0.004368 0.000000 0.000000 0.000000
# 3 -0.004368 -0.004368 0.012947 0.000000 0.000000 0.000000
# 4 0.000000 0.000000 0.000000 0.072284 0.000000 0.000000
# 5 0.000000 0.000000 0.000000 0.000000 0.072284 0.000000
# 6 0.000000 0.000000 0.000000 0.000000 0.000000 0.030908
#
#
# Mechanical properties :
#
#
# Convention : Reuss Voigt Hill
#
# Bulk Modulus (GPa) = 62.74918 63.15337 62.95127
# Shear Modulus (GPa) = 15.96163 19.59763 17.77963
#
# Velocity S-wave (km/s) = 3.11871 3.45572 3.29153
# Velocity P-wave (km/s) = 7.15578 7.37602 7.26673
#
# Compressibility (1/GPa) = 0.01593646
#
# Stress axis : x y z
#
# Youngs Moduli (GPa) = 32.65154 32.65154 77.23842
#
# Poissons Ratio (x) = 0.66592 0.33742
# Poissons Ratio (y) = 0.66592 0.33742
# Poissons Ratio (z) = 0.14264 0.14264
#
# Static dielectric constant tensor:
#      x y z
#    x 1.555140 0.000000 0.000000 
#    y 0.000000 1.555140 0.000000 
#    z 0.000000 0.000000 1.566690 
# 
# From -- ./inp_files/6821.got.cif
#   From: 2010.05.17/outbox.cif.g08.bks.cpg/sg139_4_cif.got.tgz:6821.got - 2010.05.20 13:14:44.
