data_PCOD9571074
_publ_section_title
;
Structure prediction by ZEFSAII (Michael W. Deem and Ramdas Pophale) SiO2 
 PCOD9571074
Probable space group: P 42/N C M
;
_chemical_formula_sum "Si O2"
_cell_formula_units_Z 112
_cell_length_a 17.025266
_cell_length_b 17.025266
_cell_length_c 20.667640
_cell_angle_alpha 90.000000
_cell_angle_beta 90.000000
_cell_angle_gamma 90.000000
_cell_volume 5990.715566
_symmetry_space_group_name_H-M "P 42/N C M"
_symmetry_group_IT_number 138
_space_group.IT_coordinate_system_code '2'
_symmetry_cell_setting 'tetragonal'
loop_
_space_group_symop_operation_xyz
x,y,z
1/2-y,x,1/2+z
1/2-x,1/2-y,z
y,1/2-x,1/2+z
1/2+x,-y,1/2-z
-x,1/2+y,1/2-z
1/2+y,1/2+x,-z
-y,-x,-z
-x,-y,-z
1/2+y,-x,1/2-z
1/2+x,1/2+y,-z
-y,1/2+x,1/2-z
1/2-x,y,1/2+z
x,1/2-y,1/2+z
1/2-y,1/2-x,z
y,x,z
loop_
_atom_site_type_symbol
_atom_site_label
_atom_site_fract_x
_atom_site_fract_y
_atom_site_fract_z
Si Si1 0.587483 0.713942 0.023501
Si Si2 0.711398 0.918694 0.281467
Si Si3 0.943169 0.684878 0.143998
Si Si4 0.088126 0.959810 0.934797
Si Si5 0.447715 0.578585 0.797892
Si Si6 0.182605 0.447466 0.097482
Si Si7 0.435587 0.571576 0.345567
O O1 0.668994 0.668994 0.011060
O O2 0.590909 0.777920 0.079750
O O3 0.527307 0.650977 0.053083
O O4 0.555124 0.752018 0.957972
O O5 0.663019 0.836982 0.286649
O O6 0.738877 0.935462 0.207687
O O7 0.778595 0.922579 0.334598
O O8 0.648920 0.988678 0.295711
O O9 0.888251 0.611750 0.163373
O O10 0.027844 0.644606 0.133602
O O11 0.098335 0.919176 0.865465
O O12 0.090949 0.909052 0.000000
O O13 0.001651 0.001651 0.933021
O O14 0.498271 0.498271 0.798148
O O15 0.403477 0.577370 0.729237
O O16 0.116254 0.383746 0.079152
O O17 0.140526 0.530881 0.109946
O O18 0.505603 0.505603 0.346353
#
# Coordination Sequence:
#
# PCOD9571074 Si02
#       7
#    16  16  16  16  16  16  16
#     4  11  23  34  48  75 109 140 173 213 258 320
#     4   9  18  32  51  75 104 135 168 210 263 321
#     4   9  19  36  53  72 103 139 175 214 261 313
#     4   9  17  29  48  73 101 131 163 208 266 315
#     4   8  14  29  51  71  95 124 165 222 266 302
#     4  11  22  33  49  73 105 142 182 215 250 305
#     4   8  17  33  52  72  93 130 182 228 256 288
#
# _framework density 18.695595999999998
#
# number of rings (size 3 to 8) (size 9 to 14) (size 15 to 20)
#    0.000    2.714    0.000    3.429    2.000    5.429 
#    0.000    3.571    0.000    0.000    0.000    7.000 
#    0.000    0.000    0.000    0.000    0.000    0.000 
#
# Total GULP energy -623725.614029 kJ/mol
# GULP energy per Si atom -5568.978697 kJ/mol
# Density = 1.865304 g / cm^3
# Si number density = 18.695596 Si / 1000 Ang^3
#
#
#
# Elastic Constant Matrix: (Units=GPa)
#
#
# Indices 1 2 3 4 5 6 
#
# 1 -190.1594 206.1801 13.1985 0.0000 0.0000 0.0000
# 2 206.1801 -190.1352 13.1991 0.0000 0.0000 0.0000
# 3 13.1985 13.1991 96.0554 0.0000 0.0000 0.0000
# 4 0.0000 0.0000 0.0000 26.1503 0.0000 0.0000
# 5 0.0000 0.0000 0.0000 0.0000 26.1503 0.0000
# 6 0.0000 0.0000 0.0000 0.0000 0.0000 7.3001
#
#
#
# Elastic Compliance Matrix: (Units=1/GPa)
#
#
# Indices 1 2 3 4 5 6 
#
# 1 0.039040 0.041566 -0.011076 0.000000 0.000000 0.000000
# 2 0.041566 0.039045 -0.011077 0.000000 0.000000 0.000000
# 3 -0.011076 -0.011077 0.013455 0.000000 0.000000 0.000000
# 4 0.000000 0.000000 0.000000 0.038240 0.000000 0.000000
# 5 0.000000 0.000000 0.000000 0.000000 0.038240 0.000000
# 6 0.000000 0.000000 0.000000 0.000000 0.000000 0.136984
#
#
# Mechanical properties :
#
#
# Convention : Reuss Voigt Hill
#
# Bulk Modulus (GPa) = 7.67064 20.10180 13.88622
# Shear Modulus (GPa) = 16.14809 -22.53430 -3.19310
#
# Velocity S-wave (km/s) = 2.94213 -3.47555 -1.30830
# Velocity P-wave (km/s) = 3.95643 2.30877 2.27188
#
# Compressibility (1/GPa) = 0.13036725
#
# Stress axis : x y z
#
# Youngs Moduli (GPa) = 25.61445 25.61124 74.32395
#
# Poissons Ratio (x) = -1.06456 0.82321
# Poissons Ratio (y) = -1.06469 0.82326
# Poissons Ratio (z) = 0.28371 0.28369
#
# Static dielectric constant tensor:
#      x y z
#    x 1.688770 0.000000 0.000000 
#    y 0.000000 1.688770 0.000000 
#    z 0.000000 0.000000 1.690120 
# 
# From -- ./inp_files/6446.got.cif
#   From: 2010.05.17/outbox.cif.g08.bks.cpg/sg138_4_cif.got.tgz:6446.got - 2010.05.20 13:08:53.
