data_PCOD9571252
_publ_section_title
;
Structure prediction by ZEFSAII (Michael W. Deem and Ramdas Pophale) SiO2 
 PCOD9571252
Probable space group: I 4/M M M
;
_chemical_formula_sum "Si O2"
_cell_formula_units_Z 160
_cell_length_a 29.245665
_cell_length_b 29.245665
_cell_length_c 10.673729
_cell_angle_alpha 90.000000
_cell_angle_beta 90.000000
_cell_angle_gamma 90.000000
_cell_volume 9129.335637
_symmetry_space_group_name_H-M "I 4/M M M"
_symmetry_group_IT_number 139
_symmetry_cell_setting 'tetragonal'
loop_
_space_group_symop_operation_xyz
x,y,z
-y,x,z
-x,-y,z
y,-x,z
x,-y,-z
-x,y,-z
y,x,-z
-y,-x,-z
-x,-y,-z
y,-x,-z
x,y,-z
-y,x,-z
-x,y,z
x,-y,z
-y,-x,z
y,x,z
1/2+x,1/2+y,1/2+z
1/2-y,1/2+x,1/2+z
1/2-x,1/2-y,1/2+z
1/2+y,1/2-x,1/2+z
1/2+x,1/2-y,1/2-z
1/2-x,1/2+y,1/2-z
1/2+y,1/2+x,1/2-z
1/2-y,1/2-x,1/2-z
1/2-x,1/2-y,1/2-z
1/2+y,1/2-x,1/2-z
1/2+x,1/2+y,1/2-z
1/2-y,1/2+x,1/2-z
1/2-x,1/2+y,1/2+z
1/2+x,1/2-y,1/2+z
1/2-y,1/2-x,1/2+z
1/2+y,1/2+x,1/2+z
loop_
_atom_site_type_symbol
_atom_site_label
_atom_site_fract_x
_atom_site_fract_y
_atom_site_fract_z
Si Si1 0.309717 0.232954 0.637395
Si Si2 0.867866 0.555258 0.000000
Si Si3 0.055152 0.374275 0.000000
Si Si4 0.554791 0.817105 0.746676
Si Si5 0.126526 0.052748 0.847557
Si Si6 0.907054 0.775039 0.852178
O O1 0.315454 0.211028 0.500000
O O2 0.265157 0.265157 0.632746
O O3 0.302389 0.197612 0.750000
O O4 0.352960 0.266047 0.657179
O O5 0.917306 0.578649 0.000000
O O6 0.840622 0.569962 0.124706
O O7 0.871568 0.500000 0.000000
O O8 0.068685 0.345863 0.123876
O O9 0.000000 0.380190 0.000000
O O10 0.500000 0.817227 0.748133
O O11 0.570723 0.765419 0.727109
O O12 0.084409 0.084409 0.805346
O O13 0.174864 0.076079 0.813542
O O14 0.124177 0.000000 0.806025
O O15 0.125337 0.052356 0.000000
O O16 0.919642 0.769349 0.000000
#
# Coordination Sequence:
#
# PCOD9571252 Si02
#       6
#    32  16  16  32  32  32
#     4   9  18  32  48  68  98 134 172 214 257 300
#     4  10  22  37  52  74 105 133 164 216 278 322
#     4  10  20  35  56  76  97 131 176 216 258 324
#     4  10  20  35  52  73 100 132 167 212 262 307
#     4   9  17  28  46  74 107 141 178 221 268 320
#     4  10  18  31  50  74  97 135 180 219 252 309
#
# _framework density 17.525918999999998
#
# number of rings (size 3 to 8) (size 9 to 14) (size 15 to 20)
#    0.000    2.400    1.000    1.800    0.000    5.200 
#    1.800    1.000    0.000    3.600    0.000    0.000 
#    0.000    0.000    0.000    0.000    0.000    9.800 
#
# Total GULP energy -445954.370975 kJ/mol
# GULP energy per Si atom -5574.429637 kJ/mol
# Density = 1.748603 g / cm^3
# Si number density = 17.525919 Si / 1000 Ang^3
#
#
#
# Elastic Constant Matrix: (Units=GPa)
#
#
# Indices 1 2 3 4 5 6 
#
# 1 76.1148 57.7111 45.1703 0.0000 0.0000 0.0000
# 2 57.7111 76.1152 45.1702 0.0000 0.0000 0.0000
# 3 45.1703 45.1702 99.2845 0.0000 0.0000 0.0000
# 4 0.0000 0.0000 0.0000 8.7999 0.0000 0.0000
# 5 0.0000 0.0000 0.0000 0.0000 8.8000 0.0000
# 6 0.0000 0.0000 0.0000 0.0000 0.0000 27.9409
#
#
#
# Elastic Compliance Matrix: (Units=1/GPa)
#
#
# Indices 1 2 3 4 5 6 
#
# 1 0.032561 -0.021776 -0.004907 0.000000 0.000000 0.000000
# 2 -0.021776 0.032560 -0.004906 0.000000 0.000000 0.000000
# 3 -0.004907 -0.004906 0.014537 0.000000 0.000000 0.000000
# 4 0.000000 0.000000 0.000000 0.113638 0.000000 0.000000
# 5 0.000000 0.000000 0.000000 0.000000 0.113636 0.000000
# 6 0.000000 0.000000 0.000000 0.000000 0.000000 0.035790
#
#
# Mechanical properties :
#
#
# Convention : Reuss Voigt Hill
#
# Bulk Modulus (GPa) = 60.68096 60.84643 60.76370
# Shear Modulus (GPa) = 12.15385 16.00569 14.07977
#
# Velocity S-wave (km/s) = 2.63626 3.02529 2.83745
# Velocity P-wave (km/s) = 6.63062 6.85540 6.74395
#
# Compressibility (1/GPa) = 0.01647963
#
# Stress axis : x y z
#
# Youngs Moduli (GPa) = 30.71190 30.71217 68.79193
#
# Poissons Ratio (x) = 0.66879 0.33754
# Poissons Ratio (y) = 0.66878 0.33752
# Poissons Ratio (z) = 0.15069 0.15069
#
# Static dielectric constant tensor:
#      x y z
#    x 1.596680 0.000000 0.000000 
#    y 0.000000 1.596680 0.000000 
#    z 0.000000 0.000000 1.610600 
# 
# From -- ./inp_files/3923.got.cif
#   From: 2010.05.17/outbox.cif.g08.bks.cpg/sg139_2_cif.got.tgz:3923.got - 2010.05.20 13:14:44.
