data_PCOD9571079
_publ_section_title
;
Structure prediction by ZEFSAII (Michael W. Deem and Ramdas Pophale) SiO2 
 PCOD9571079
Probable space group: P 42/N C M
;
_chemical_formula_sum "Si O2"
_cell_formula_units_Z 96
_cell_length_a 23.642799
_cell_length_b 23.642799
_cell_length_c 10.012846
_cell_angle_alpha 90.000000
_cell_angle_beta 90.000000
_cell_angle_gamma 90.000000
_cell_volume 5597.000128
_symmetry_space_group_name_H-M "P 42/N C M"
_symmetry_group_IT_number 138
_space_group.IT_coordinate_system_code '2'
_symmetry_cell_setting 'tetragonal'
loop_
_space_group_symop_operation_xyz
x,y,z
1/2-y,x,1/2+z
1/2-x,1/2-y,z
y,1/2-x,1/2+z
1/2+x,-y,1/2-z
-x,1/2+y,1/2-z
1/2+y,1/2+x,-z
-y,-x,-z
-x,-y,-z
1/2+y,-x,1/2-z
1/2+x,1/2+y,-z
-y,1/2+x,1/2-z
1/2-x,y,1/2+z
x,1/2-y,1/2+z
1/2-y,1/2-x,z
y,x,z
loop_
_atom_site_type_symbol
_atom_site_label
_atom_site_fract_x
_atom_site_fract_y
_atom_site_fract_z
Si Si1 0.245905 0.499969 0.278851
Si Si2 0.956631 0.131807 0.664783
Si Si3 0.425195 0.074806 0.760614
Si Si4 0.575909 0.924091 0.789525
Si Si5 0.866056 0.040516 0.655699
Si Si6 0.579448 0.755212 0.469936
Si Si7 0.859059 0.640942 0.026434
Si Si8 0.118177 0.381824 0.495985
O O1 0.190669 0.536316 0.243046
O O2 0.305815 0.532112 0.272778
O O3 0.244539 0.471804 0.424191
O O4 0.244938 0.448201 0.173993
O O5 0.899694 0.097140 0.692777
O O6 0.959817 0.142134 0.504948
O O7 0.010126 0.092012 0.701251
O O8 0.486861 0.094466 0.807808
O O9 0.381717 0.118284 0.832167
O O10 0.417824 0.082177 0.602840
O O11 0.600972 0.899029 0.653115
O O12 0.606058 0.893943 0.914816
O O13 0.623184 0.705660 0.506617
O O14 0.606381 0.816447 0.478390
#
# Coordination Sequence:
#
# PCOD9571079 Si02
#       8
#    16  16   8   8  16  16   8   8
#     4  12  20  40  60  84 118 156 190 248 296 356
#     4  11  22  37  63  91 115 153 200 241 292 362
#     4  12  19  37  56  88 116 147 195 254 301 343
#     4  12  19  37  56  88 116 147 195 254 301 343
#     4  11  22  37  63  91 115 153 200 241 292 362
#     4  12  22  37  58  80 118 161 208 236 290 346
#     4  12  20  37  61  80 108 166 214 238 271 351
#     4  12  24  33  55  84 122 160 192 248 301 341
#
# _framework density 17.152045999999999
#
# number of rings (size 3 to 8) (size 9 to 14) (size 15 to 20)
#    0.000    0.333   10.000    0.500    0.000    1.667 
#    0.000    4.167    0.000    4.500    0.000    2.333 
#    0.000    0.000    0.000    0.000    0.000    0.000 
#
# Total GULP energy -536379.280090 kJ/mol
# GULP energy per Si atom -5587.284168 kJ/mol
# Density = 1.711301 g / cm^3
# Si number density = 17.152046 Si / 1000 Ang^3
#
#
#
# Elastic Constant Matrix: (Units=GPa)
#
#
# Indices 1 2 3 4 5 6 
#
# 1 78.7273 71.9748 3.2563 0.0000 0.0000 0.0000
# 2 71.9748 78.7273 3.2563 0.0000 0.0000 0.0000
# 3 3.2563 3.2563 28.2217 0.0000 0.0000 0.0000
# 4 0.0000 0.0000 0.0000 17.1579 0.0000 0.0000
# 5 0.0000 0.0000 0.0000 0.0000 17.1579 0.0000
# 6 0.0000 0.0000 0.0000 0.0000 0.0000 37.7496
#
#
#
# Elastic Compliance Matrix: (Units=1/GPa)
#
#
# Indices 1 2 3 4 5 6 
#
# 1 0.077381 -0.070712 -0.000769 0.000000 0.000000 0.000000
# 2 -0.070712 0.077381 -0.000769 0.000000 0.000000 0.000000
# 3 -0.000769 -0.000769 0.035611 0.000000 0.000000 0.000000
# 4 0.000000 0.000000 0.000000 0.058282 0.000000 0.000000
# 5 0.000000 0.000000 0.000000 0.000000 0.058282 0.000000
# 6 0.000000 0.000000 0.000000 0.000000 0.000000 0.026490
#
#
# Mechanical properties :
#
#
# Convention : Reuss Voigt Hill
#
# Bulk Modulus (GPa) = 21.80020 38.07236 29.93628
# Shear Modulus (GPa) = 10.13744 21.55900 15.84822
#
# Velocity S-wave (km/s) = 2.43376 3.54917 3.04301
# Velocity P-wave (km/s) = 4.54259 6.24825 5.46241
#
# Compressibility (1/GPa) = 0.04587113
#
# Stress axis : x y z
#
# Youngs Moduli (GPa) = 12.92304 12.92304 28.08095
#
# Poissons Ratio (x) = 0.91382 0.02161
# Poissons Ratio (y) = 0.91382 0.02161
# Poissons Ratio (z) = 0.00994 0.00994
#
# Static dielectric constant tensor:
#      x y z
#    x 1.576370 0.000000 0.000000 
#    y 0.000000 1.576370 0.000000 
#    z 0.000000 0.000000 1.579340 
# 
# From -- ./inp_files/1791.got.cif
#   From: 2010.05.17/outbox.cif.g08.bks.cpg/sg138_1_cif.got.tgz:1791.got - 2010.05.20 13:08:53.
