data_PCOD9571140
_publ_section_title
;
Structure prediction by ZEFSAII (Michael W. Deem and Ramdas Pophale) SiO2 
 PCOD9571140
Probable space group: P 42/N C M
;
_chemical_formula_sum "Si O2"
_cell_formula_units_Z 64
_cell_length_a 12.000000
_cell_length_b 12.000000
_cell_length_c 21.000000
_cell_angle_alpha 90.000000
_cell_angle_beta 90.000000
_cell_angle_gamma 90.000000
_cell_volume 3024.000000
_symmetry_space_group_name_H-M "P 42/N C M"
_symmetry_group_IT_number 138
_space_group.IT_coordinate_system_code '2'
_symmetry_cell_setting 'tetragonal'
loop_
_space_group_symop_operation_xyz
x,y,z
1/2-y,x,1/2+z
1/2-x,1/2-y,z
y,1/2-x,1/2+z
1/2+x,-y,1/2-z
-x,1/2+y,1/2-z
1/2+y,1/2+x,-z
-y,-x,-z
-x,-y,-z
1/2+y,-x,1/2-z
1/2+x,1/2+y,-z
-y,1/2+x,1/2-z
1/2-x,y,1/2+z
x,1/2-y,1/2+z
1/2-y,1/2-x,z
y,x,z
loop_
_atom_site_type_symbol
_atom_site_label
_atom_site_fract_x
_atom_site_fract_y
_atom_site_fract_z
Si Si1 0.789953 0.527031 0.127907
Si Si2 0.752504 0.937192 0.270655
Si Si3 0.437090 0.253543 0.014717
Si Si4 0.712116 0.381432 0.377388
O O1 0.858514 0.641487 0.128107
O O2 0.730198 0.526056 0.196700
O O3 0.871742 0.421469 0.126636
O O4 0.729076 0.527386 0.059385
O O5 0.640612 0.859389 0.274266
O O6 0.855098 0.855098 0.289105
O O7 0.747068 0.044133 0.317114
O O8 0.359242 0.140759 0.018516
O O9 0.355215 0.355215 0.033725
O O10 0.544675 0.243604 0.060393
O O11 0.750000 0.250000 0.378289
#
# Coordination Sequence:
#
# PCOD9571140 Si02
#       4
#    16  16  16  16
#     4  10  22  40  67 100 133 172 222 282 340 396
#     4  10  22  43  70  98 129 175 233 282 328 393
#     4  10  21  43  73 100 129 174 231 281 328 393
#     4  12  26  40  61  97 140 181 221 272 338 406
#
# _framework density 21.164021000000002
#
# number of rings (size 3 to 8) (size 9 to 14) (size 15 to 20)
#    0.000    1.500    0.000    4.500    3.500    9.000 
#    0.000    5.000    0.000    0.000    0.000    0.000 
#    0.000    0.000    0.000    0.000    0.000    0.000 
#
# Total GULP energy -357681.686096 kJ/mol
# GULP energy per Si atom -5588.776345 kJ/mol
# Density = 2.111585 g / cm^3
# Si number density = 21.164021 Si / 1000 Ang^3
#
#
#
# Elastic Constant Matrix: (Units=GPa)
#
#
# Indices 1 2 3 4 5 6 
#
# 1 110.8085 24.0309 54.4376 0.0000 0.0000 0.0000
# 2 24.0309 110.8085 54.4376 0.0000 0.0000 0.0000
# 3 54.4376 54.4376 169.6402 0.0000 0.0000 0.0000
# 4 0.0000 0.0000 0.0000 29.4562 0.0000 0.0000
# 5 0.0000 0.0000 0.0000 0.0000 29.4562 0.0000
# 6 0.0000 0.0000 0.0000 0.0000 0.0000 32.1919
#
#
#
# Elastic Compliance Matrix: (Units=1/GPa)
#
#
# Indices 1 2 3 4 5 6 
#
# 1 0.010767 -0.000757 -0.003212 0.000000 0.000000 0.000000
# 2 -0.000757 0.010767 -0.003212 0.000000 0.000000 0.000000
# 3 -0.003212 -0.003212 0.007956 0.000000 0.000000 0.000000
# 4 0.000000 0.000000 0.000000 0.033949 0.000000 0.000000
# 5 0.000000 0.000000 0.000000 0.000000 0.033949 0.000000
# 6 0.000000 0.000000 0.000000 0.000000 0.000000 0.031064
#
#
# Mechanical properties :
#
#
# Convention : Reuss Voigt Hill
#
# Bulk Modulus (GPa) = 66.10492 73.00773 69.55633
# Shear Modulus (GPa) = 33.81663 35.44425 34.63044
#
# Velocity S-wave (km/s) = 4.00163 4.09680 4.04949
# Velocity P-wave (km/s) = 7.25625 7.54648 7.40279
#
# Compressibility (1/GPa) = 0.01512747
#
# Stress axis : x y z
#
# Youngs Moduli (GPa) = 92.87815 92.87815 125.68485
#
# Poissons Ratio (x) = 0.07030 0.40372
# Poissons Ratio (y) = 0.07030 0.40372
# Poissons Ratio (z) = 0.29834 0.29834
#
# Static dielectric constant tensor:
#      x y z
#    x 1.767300 0.000000 0.000000 
#    y 0.000000 1.767300 0.000000 
#    z 0.000000 0.000000 1.797110 
# 
# From -- ./inp_files/5821.got.cif
#   From: 2010.05.17/outbox.ucp.g08.bks.cvg/sg138_3_cif.got.tgz:5821.got - 2010.06.11 11:41:40.
