data_PCOD9571078
_publ_section_title
;
Structure prediction by ZEFSAII (Michael W. Deem and Ramdas Pophale) SiO2 
 PCOD9571078
Probable space group: P 42/N C M
;
_chemical_formula_sum "Si O2"
_cell_formula_units_Z 96
_cell_length_a 25.402464
_cell_length_b 25.402464
_cell_length_c 8.792506
_cell_angle_alpha 90.000000
_cell_angle_beta 90.000000
_cell_angle_gamma 90.000000
_cell_volume 5673.673793
_symmetry_space_group_name_H-M "P 42/N C M"
_symmetry_group_IT_number 138
_space_group.IT_coordinate_system_code '2'
_symmetry_cell_setting 'tetragonal'
loop_
_space_group_symop_operation_xyz
x,y,z
1/2-y,x,1/2+z
1/2-x,1/2-y,z
y,1/2-x,1/2+z
1/2+x,-y,1/2-z
-x,1/2+y,1/2-z
1/2+y,1/2+x,-z
-y,-x,-z
-x,-y,-z
1/2+y,-x,1/2-z
1/2+x,1/2+y,-z
-y,1/2+x,1/2-z
1/2-x,y,1/2+z
x,1/2-y,1/2+z
1/2-y,1/2-x,z
y,x,z
loop_
_atom_site_type_symbol
_atom_site_label
_atom_site_fract_x
_atom_site_fract_y
_atom_site_fract_z
Si Si1 0.022929 0.692335 0.655490
Si Si2 0.191275 0.635745 0.876742
Si Si3 0.140174 0.807321 0.126930
Si Si4 0.197615 0.977090 0.208984
Si Si5 0.495577 0.916184 0.803243
Si Si6 0.999101 0.588961 0.166735
O O1 0.083899 0.688012 0.706084
O O2 0.001984 0.746220 0.730050
O O3 0.025342 0.698521 0.473362
O O4 0.998294 0.637722 0.710980
O O5 0.249483 0.642143 0.944675
O O6 0.183630 0.680887 0.751749
O O7 0.189778 0.579846 0.791411
O O8 0.146184 0.646184 0.000000
O O9 0.148716 0.851285 0.000000
O O10 0.145654 0.008169 0.259181
O O11 0.543206 0.956795 0.773468
O O12 0.441719 0.948881 0.772155
O O13 0.495236 0.905074 0.984408
O O14 0.950589 0.549412 0.193615
#
# Coordination Sequence:
#
# PCOD9571078 Si02
#       6
#    16  16  16  16  16  16
#     4  11  23  36  53  74 102 135 173 214 261 315
#     4  11  24  33  50  65  88 125 165 218 266 310
#     4  11  22  37  46  66  88 121 170 215 264 308
#     4  11  23  36  53  75 100 137 171 214 261 315
#     4   9  19  35  57  81 107 137 171 216 266 317
#     4   9  19  35  56  82 107 137 172 213 267 319
#
# _framework density 16.920255000000001
#
# number of rings (size 3 to 8) (size 9 to 14) (size 15 to 20)
#    0.000    1.667    1.667    4.000   11.667    2.667 
#    0.000    1.667    0.000    0.000    0.000    0.000 
#    0.000    0.667    0.000    7.000    0.000    3.000 
#
# Total GULP energy -535579.023965 kJ/mol
# GULP energy per Si atom -5578.948166 kJ/mol
# Density = 1.688174 g / cm^3
# Si number density = 16.920255 Si / 1000 Ang^3
#
#
#
# Elastic Constant Matrix: (Units=GPa)
#
#
# Indices 1 2 3 4 5 6 
#
# 1 75.8820 21.0670 28.3057 0.0000 0.0000 0.0000
# 2 21.0670 75.8811 28.3052 0.0000 0.0000 0.0000
# 3 28.3057 28.3052 62.9894 0.0000 0.0000 0.0000
# 4 0.0000 0.0000 0.0000 25.5876 0.0000 0.0000
# 5 0.0000 0.0000 0.0000 0.0000 25.5879 0.0000
# 6 0.0000 0.0000 0.0000 0.0000 0.0000 17.8333
#
#
#
# Elastic Compliance Matrix: (Units=1/GPa)
#
#
# Indices 1 2 3 4 5 6 
#
# 1 0.016114 -0.002130 -0.006284 0.000000 0.000000 0.000000
# 2 -0.002130 0.016114 -0.006284 0.000000 0.000000 0.000000
# 3 -0.006284 -0.006284 0.021523 0.000000 0.000000 0.000000
# 4 0.000000 0.000000 0.000000 0.039081 0.000000 0.000000
# 5 0.000000 0.000000 0.000000 0.000000 0.039081 0.000000
# 6 0.000000 0.000000 0.000000 0.000000 0.000000 0.056075
#
#
# Mechanical properties :
#
#
# Convention : Reuss Voigt Hill
#
# Bulk Modulus (GPa) = 41.05838 41.12313 41.09076
# Shear Modulus (GPa) = 22.17273 22.94006 22.55639
#
# Velocity S-wave (km/s) = 3.62391 3.68608 3.65513
# Velocity P-wave (km/s) = 6.46752 6.51714 6.49237
#
# Compressibility (1/GPa) = 0.02435556
#
# Stress axis : x y z
#
# Youngs Moduli (GPa) = 62.05897 62.05862 46.46103
#
# Poissons Ratio (x) = 0.13216 0.29197
# Poissons Ratio (y) = 0.13216 0.29196
# Poissons Ratio (z) = 0.38999 0.38998
#
# Static dielectric constant tensor:
#      x y z
#    x 1.582730 0.000000 0.000000 
#    y 0.000000 1.582730 0.000000 
#    z 0.000000 0.000000 1.612660 
# 
# From -- ./inp_files/1730.got.cif
#   From: 2010.05.17/outbox.cif.g08.bks.cpg/sg138_1_cif.got.tgz:1730.got - 2010.05.20 13:08:53.
