data_PCOD9571668
_publ_section_title
;
Structure prediction by ZEFSAII (Michael W. Deem and Ramdas Pophale) SiO2 
 PCOD9571668
Probable space group: I 4/M M M
;
_chemical_formula_sum "Si O2"
_cell_formula_units_Z 192
_cell_length_a 18.084796
_cell_length_b 18.084796
_cell_length_c 34.164836
_cell_angle_alpha 90.000000
_cell_angle_beta 90.000000
_cell_angle_gamma 90.000000
_cell_volume 11173.946013
_symmetry_space_group_name_H-M "I 4/M M M"
_symmetry_group_IT_number 139
_symmetry_cell_setting 'tetragonal'
loop_
_space_group_symop_operation_xyz
x,y,z
-y,x,z
-x,-y,z
y,-x,z
x,-y,-z
-x,y,-z
y,x,-z
-y,-x,-z
-x,-y,-z
y,-x,-z
x,y,-z
-y,x,-z
-x,y,z
x,-y,z
-y,-x,z
y,x,z
1/2+x,1/2+y,1/2+z
1/2-y,1/2+x,1/2+z
1/2-x,1/2-y,1/2+z
1/2+y,1/2-x,1/2+z
1/2+x,1/2-y,1/2-z
1/2-x,1/2+y,1/2-z
1/2+y,1/2+x,1/2-z
1/2-y,1/2-x,1/2-z
1/2-x,1/2-y,1/2-z
1/2+y,1/2-x,1/2-z
1/2+x,1/2+y,1/2-z
1/2-y,1/2+x,1/2-z
1/2-x,1/2+y,1/2+z
1/2+x,1/2-y,1/2+z
1/2-y,1/2-x,1/2+z
1/2+y,1/2+x,1/2+z
loop_
_atom_site_type_symbol
_atom_site_label
_atom_site_fract_x
_atom_site_fract_y
_atom_site_fract_z
Si Si1 0.586638 0.171284 0.218687
Si Si2 0.912380 0.500000 0.546243
Si Si3 0.142807 0.323731 0.067862
Si Si4 0.788064 0.090974 0.000000
Si Si5 0.793014 0.086500 0.547253
Si Si6 0.289877 0.171933 0.156747
Si Si7 0.913095 0.797895 0.778197
O O1 0.500000 0.172253 0.211498
O O2 0.607623 0.107623 0.250000
O O3 0.632157 0.167066 0.178840
O O4 0.610195 0.244668 0.242524
O O5 0.892622 0.500000 0.500000
O O6 0.879075 0.426326 0.564731
O O7 0.000000 0.500000 0.549363
O O8 0.218353 0.368251 0.057969
O O9 0.150492 0.293937 0.111681
O O10 0.122200 0.258750 0.037190
O O11 0.867776 0.132225 0.000000
O O12 0.791021 0.000000 0.000000
O O13 0.795281 0.084069 0.500000
O O14 0.863893 0.136108 0.560264
O O15 0.792749 0.000000 0.560716
O O16 0.252561 0.252561 0.160018
O O17 0.238166 0.118024 0.182192
O O18 0.876763 0.876763 0.772994
O O19 0.000000 0.799647 0.779315
#
# Coordination Sequence:
#
# PCOD9571668 Si02
#       7
#    32  16  32  16  32  32  32
#     4   9  18  34  54  76 108 142 177 217 264 322
#     4  11  22  38  58  82 114 148 182 232 294 348
#     4  12  21  38  58  84 111 147 191 237 284 338
#     4  12  24  41  62  84 111 149 191 239 297 348
#     4  10  20  34  54  79 109 145 184 228 276 329
#     4  10  21  34  54  79 107 142 183 225 265 321
#     4   9  18  33  54  78 105 138 173 218 269 322
#
# _framework density 17.182829000000002
#
# number of rings (size 3 to 8) (size 9 to 14) (size 15 to 20)
#    0.000    1.750    2.500    2.500    1.167    5.250 
#    0.000    0.833    0.000    0.000    0.000    2.333 
#    0.000    4.000    0.000    0.000    0.000    0.000 
#
# Total GULP energy -535282.797015 kJ/mol
# GULP energy per Si atom -5575.862469 kJ/mol
# Density = 1.714372 g / cm^3
# Si number density = 17.182829 Si / 1000 Ang^3
#
#
#
# Elastic Constant Matrix: (Units=GPa)
#
#
# Indices 1 2 3 4 5 6 
#
# 1 68.5258 68.6951 27.1440 0.0000 0.0000 0.0000
# 2 68.6951 68.5274 27.1444 0.0000 0.0000 0.0000
# 3 27.1440 27.1444 95.9933 0.0000 0.0000 0.0000
# 4 0.0000 0.0000 0.0000 4.3624 0.0000 0.0000
# 5 0.0000 0.0000 0.0000 0.0000 4.3627 0.0000
# 6 0.0000 0.0000 0.0000 0.0000 0.0000 21.7637
#
#
#
# Elastic Compliance Matrix: (Units=1/GPa)
#
#
# Indices 1 2 3 4 5 6 
#
# 1 -2.962975 2.971145 -0.002323 0.000000 0.000000 0.000000
# 2 2.971145 -2.962905 -0.002318 0.000000 0.000000 0.000000
# 3 -0.002323 -0.002318 0.011730 0.000000 0.000000 0.000000
# 4 0.000000 0.000000 0.000000 0.229231 0.000000 0.000000
# 5 0.000000 0.000000 0.000000 0.000000 0.229215 0.000000
# 6 0.000000 0.000000 0.000000 0.000000 0.000000 0.045948
#
#
# Mechanical properties :
#
#
# Convention : Reuss Voigt Hill
#
# Bulk Modulus (GPa) = 53.02395 53.22374 53.12384
# Shear Modulus (GPa) = -0.44105 13.43529 6.49712
#
# Velocity S-wave (km/s) = -0.50719 2.79928 1.94663
# Velocity P-wave (km/s) = 5.53016 6.44129 6.00304
#
# Compressibility (1/GPa) = 0.01885940
#
# Stress axis : x y z
#
# Youngs Moduli (GPa) = -0.33750 -0.33751 85.25439
#
# Poissons Ratio (x) = 1.00278 0.19801
# Poissons Ratio (y) = 1.00276 0.19761
# Poissons Ratio (z) = -0.00078 -0.00078
#
# Static dielectric constant tensor:
#      x y z
#    x 1.595190 0.000000 0.000000 
#    y 0.000000 1.595190 0.000000 
#    z 0.000000 0.000000 1.556290 
# 
# From -- ./inp_files/14365.got.cif
#   From: 2010.05.17/outbox.cif.g08.bks.cpg/sg139_8_cif.got.tgz:14365.got - 2010.05.20 13:14:44.
