data_PCOD9571506
_publ_section_title
;
Structure prediction by ZEFSAII (Michael W. Deem and Ramdas Pophale) SiO2 
 PCOD9571506
Probable space group: I 4/M M M
;
_chemical_formula_sum "Si O2"
_cell_formula_units_Z 160
_cell_length_a 30.391307
_cell_length_b 30.391307
_cell_length_c 10.289570
_cell_angle_alpha 90.000000
_cell_angle_beta 90.000000
_cell_angle_gamma 90.000000
_cell_volume 9503.771397
_symmetry_space_group_name_H-M "I 4/M M M"
_symmetry_group_IT_number 139
_symmetry_cell_setting 'tetragonal'
loop_
_space_group_symop_operation_xyz
x,y,z
-y,x,z
-x,-y,z
y,-x,z
x,-y,-z
-x,y,-z
y,x,-z
-y,-x,-z
-x,-y,-z
y,-x,-z
x,y,-z
-y,x,-z
-x,y,z
x,-y,z
-y,-x,z
y,x,z
1/2+x,1/2+y,1/2+z
1/2-y,1/2+x,1/2+z
1/2-x,1/2-y,1/2+z
1/2+y,1/2-x,1/2+z
1/2+x,1/2-y,1/2-z
1/2-x,1/2+y,1/2-z
1/2+y,1/2+x,1/2-z
1/2-y,1/2-x,1/2-z
1/2-x,1/2-y,1/2-z
1/2+y,1/2-x,1/2-z
1/2+x,1/2+y,1/2-z
1/2-y,1/2+x,1/2-z
1/2-x,1/2+y,1/2+z
1/2+x,1/2-y,1/2+z
1/2-y,1/2-x,1/2+z
1/2+y,1/2+x,1/2+z
loop_
_atom_site_type_symbol
_atom_site_label
_atom_site_fract_x
_atom_site_fract_y
_atom_site_fract_z
Si Si1 0.644950 0.782566 0.000000
Si Si2 0.888268 0.185864 0.000000
Si Si3 0.052491 0.801859 0.246431
Si Si4 0.944284 0.500000 0.154568
Si Si5 0.711699 0.858694 0.000000
Si Si6 0.389733 0.315983 0.000000
Si Si7 0.414949 0.202348 0.248683
Si Si8 0.658314 0.000000 0.351766
O O1 0.640046 0.729102 0.000000
O O2 0.617684 0.797037 0.873615
O O3 0.691364 0.809186 0.000000
O O4 0.920133 0.180463 0.876182
O O5 0.849928 0.150073 0.000000
O O6 0.865427 0.234879 0.000000
O O7 0.078098 0.816397 0.375942
O O8 0.061119 0.749585 0.239456
O O9 0.000000 0.810846 0.245959
O O10 0.960620 0.460620 0.250000
O O11 0.893176 0.500000 0.141815
O O12 0.958151 0.500000 0.000000
O O13 0.694845 0.885202 0.125529
O O14 0.356727 0.356727 0.000000
O O15 0.455604 0.171059 0.221622
O O16 0.677675 0.000000 0.500000
#
# Coordination Sequence:
#
# PCOD9571506 Si02
#       8
#    16  16  32  16  16  16  32  16
#     4  10  20  35  55  73 111 155 182 217 264 326
#     4  10  21  36  54  80 116 150 183 229 267 315
#     4  10  19  34  58  79 110 146 181 221 280 317
#     4  10  22  41  58  72  96 130 172 222 284 351
#     4  10  22  35  51  81 111 147 186 225 268 314
#     4  10  21  34  54  86 114 146 189 229 261 313
#     4  10  20  35  54  78 106 135 179 229 271 329
#     4  11  21  37  58  77 101 135 173 225 290 339
#
# _framework density 16.835422000000001
#
# number of rings (size 3 to 8) (size 9 to 14) (size 15 to 20)
#    0.000    1.900    2.000    2.400    0.000    2.400 
#    3.600    0.000    0.000    7.200    0.000    0.000 
#    0.000   28.000    0.000    0.000    0.000    0.000 
#
# Total GULP energy -445370.802324 kJ/mol
# GULP energy per Si atom -5567.135029 kJ/mol
# Density = 1.679710 g / cm^3
# Si number density = 16.835422 Si / 1000 Ang^3
#
#
#
# Elastic Constant Matrix: (Units=GPa)
#
#
# Indices 1 2 3 4 5 6 
#
# 1 97.8507 64.8070 48.5186 0.0000 0.0000 0.0000
# 2 64.8070 97.8456 48.5169 0.0000 0.0000 0.0000
# 3 48.5186 48.5169 157.4774 0.0000 0.0000 0.0000
# 4 0.0000 0.0000 0.0000 0.5470 0.0000 0.0000
# 5 0.0000 0.0000 0.0000 0.0000 0.5292 0.0000
# 6 0.0000 0.0000 0.0000 0.0000 0.0000 -252.2686
#
#
#
# Elastic Compliance Matrix: (Units=1/GPa)
#
#
# Indices 1 2 3 4 5 6 
#
# 1 0.018898 -0.011366 -0.002321 0.000000 0.000000 0.000000
# 2 -0.011366 0.018899 -0.002321 0.000000 0.000000 0.000000
# 3 -0.002321 -0.002321 0.007780 0.000000 0.000000 0.000000
# 4 0.000000 0.000000 0.000000 1.828151 0.000000 0.000000
# 5 0.000000 0.000000 0.000000 0.000000 1.889493 0.000000
# 6 0.000000 0.000000 0.000000 0.000000 0.000000 -0.003964
#
#
# Mechanical properties :
#
#
# Convention : Reuss Voigt Hill
#
# Bulk Modulus (GPa) = 73.73436 75.20651 74.47044
# Shear Modulus (GPa) = 1.31725 -37.48306 -18.08291
#
# Velocity S-wave (km/s) = 0.88551 -4.72364 -3.28090
# Velocity P-wave (km/s) = 6.70356 3.87534 5.47522
#
# Compressibility (1/GPa) = 0.01356220
#
# Stress axis : x y z
#
# Youngs Moduli (GPa) = 52.91443 52.91185 128.53316
#
# Poissons Ratio (x) = 0.60142 0.29829
# Poissons Ratio (y) = 0.60145 0.29828
# Poissons Ratio (z) = 0.12280 0.12279
#
# Static dielectric constant tensor:
#      x y z
#    x 1.555220 0.000000 0.000000 
#    y 0.000000 1.555220 0.000000 
#    z 0.000000 0.000000 1.596660 
# 
# From -- ./inp_files/2371.got.cif
#   From: 2010.05.17/outbox.cif.g08.bks.cpg/sg139_2_cif.got.tgz:2371.got - 2010.05.20 13:14:44.
