data_PCOD9571088
_publ_section_title
;
Structure prediction by ZEFSAII (Michael W. Deem and Ramdas Pophale) SiO2 
 PCOD9571088
Probable space group: P 42/N C M
;
_chemical_formula_sum "Si O2"
_cell_formula_units_Z 84
_cell_length_a 11.880495
_cell_length_b 11.880495
_cell_length_c 28.178494
_cell_angle_alpha 90.000000
_cell_angle_beta 90.000000
_cell_angle_gamma 90.000000
_cell_volume 3977.286263
_symmetry_space_group_name_H-M "P 42/N C M"
_symmetry_group_IT_number 138
_space_group.IT_coordinate_system_code '2'
_symmetry_cell_setting 'tetragonal'
loop_
_space_group_symop_operation_xyz
x,y,z
1/2-y,x,1/2+z
1/2-x,1/2-y,z
y,1/2-x,1/2+z
1/2+x,-y,1/2-z
-x,1/2+y,1/2-z
1/2+y,1/2+x,-z
-y,-x,-z
-x,-y,-z
1/2+y,-x,1/2-z
1/2+x,1/2+y,-z
-y,1/2+x,1/2-z
1/2-x,y,1/2+z
x,1/2-y,1/2+z
1/2-y,1/2-x,z
y,x,z
loop_
_atom_site_type_symbol
_atom_site_label
_atom_site_fract_x
_atom_site_fract_y
_atom_site_fract_z
Si Si1 0.750000 0.750000 0.933441
Si Si2 0.976356 0.159037 0.387245
Si Si3 0.477859 0.205619 0.711117
Si Si4 0.661083 0.476309 0.195754
Si Si5 0.672731 0.136712 0.552507
Si Si6 0.493275 0.262180 0.606279
O O1 0.611138 0.753070 0.928782
O O2 0.962437 0.246603 0.430334
O O3 0.876088 0.067605 0.393366
O O4 0.963795 0.233670 0.339686
O O5 0.092178 0.092178 0.386581
O O6 0.489581 0.295328 0.752279
O O7 0.446082 0.251117 0.659433
O O8 0.386141 0.113860 0.726330
O O9 0.594571 0.139986 0.702497
O O10 0.571611 0.571611 0.179116
O O11 0.750000 0.250000 0.552046
O O12 0.624319 0.124319 0.500000
O O13 0.577796 0.162300 0.591359
#
# Coordination Sequence:
#
# PCOD9571088 Si02
#       6
#     4  16  16  16  16  16
#     4  12  24  40  66  98 136 170 228 280 332 386
#     4  11  22  40  66  99 131 176 226 275 335 408
#     4  11  23  38  59  86 125 175 220 269 330 388
#     4  11  25  40  61  91 131 174 226 277 331 396
#     4   9  20  42  69  97 131 174 223 279 347 408
#     4  11  22  40  66  94 131 176 220 279 333 393
#
# _framework density 21.119928000000002
#
# number of rings (size 3 to 8) (size 9 to 14) (size 15 to 20)
#    0.000    1.333    3.810    1.714    1.333    4.952 
#    1.714    2.381    0.000    0.000    0.000    0.000 
#    0.000    0.000    0.000    0.000    0.000    0.000 
#
# Total GULP energy -468201.055145 kJ/mol
# GULP energy per Si atom -5573.822085 kJ/mol
# Density = 2.107186 g / cm^3
# Si number density = 21.119928 Si / 1000 Ang^3
#
#
#
# Elastic Constant Matrix: (Units=GPa)
#
#
# Indices 1 2 3 4 5 6 
#
# 1 67.5996 47.4804 2.6536 0.0000 0.0000 0.0000
# 2 47.4804 67.5996 2.6536 0.0000 0.0000 0.0000
# 3 2.6536 2.6536 65.2863 0.0000 0.0000 0.0000
# 4 0.0000 0.0000 0.0000 -2.6733 0.0000 0.0000
# 5 0.0000 0.0000 0.0000 0.0000 -2.6733 0.0000
# 6 0.0000 0.0000 0.0000 0.0000 0.0000 28.0213
#
#
#
# Elastic Compliance Matrix: (Units=1/GPa)
#
#
# Indices 1 2 3 4 5 6 
#
# 1 0.029205 -0.020499 -0.000354 0.000000 0.000000 0.000000
# 2 -0.020499 0.029205 -0.000354 0.000000 0.000000 0.000000
# 3 -0.000354 -0.000354 0.015346 0.000000 0.000000 0.000000
# 4 0.000000 0.000000 0.000000 -0.374070 0.000000 0.000000
# 5 0.000000 0.000000 0.000000 0.000000 -0.374070 0.000000
# 6 0.000000 0.000000 0.000000 0.000000 0.000000 0.035687
#
#
# Mechanical properties :
#
#
# Convention : Reuss Voigt Hill
#
# Bulk Modulus (GPa) = 31.90572 34.00674 32.95623
# Shear Modulus (GPa) = -8.53481 14.38146 2.92332
#
# Velocity S-wave (km/s) = -2.01243 2.61232 1.17778
# Velocity P-wave (km/s) = 3.12088 5.02351 4.18184
#
# Compressibility (1/GPa) = 0.03134234
#
# Stress axis : x y z
#
# Youngs Moduli (GPa) = 34.24086 34.24086 65.16391
#
# Poissons Ratio (x) = 0.70190 0.02306
# Poissons Ratio (y) = 0.70190 0.02306
# Poissons Ratio (z) = 0.01212 0.01212
#
# Static dielectric constant tensor:
#      x y z
#    x 1.779340 0.000000 0.000000 
#    y 0.000000 1.779340 0.000000 
#    z 0.000000 0.000000 1.770070 
# 
# From -- ./inp_files/8040.got.cif
#   From: 2010.05.17/outbox.cif.g08.bks.cpg/sg138_5_cif.got.tgz:8040.got - 2010.05.20 13:08:53.
