data_PCOD9571184
_publ_section_title
;
Structure prediction by ZEFSAII (Michael W. Deem and Ramdas Pophale) SiO2 
 PCOD9571184
Probable space group: I 4/M M M
;
_chemical_formula_sum "Si O2"
_cell_formula_units_Z 112
_cell_length_a 19.695664
_cell_length_b 19.695664
_cell_length_c 16.822965
_cell_angle_alpha 90.000000
_cell_angle_beta 90.000000
_cell_angle_gamma 90.000000
_cell_volume 6525.950795
_symmetry_space_group_name_H-M "I 4/M M M"
_symmetry_group_IT_number 139
_symmetry_cell_setting 'tetragonal'
loop_
_space_group_symop_operation_xyz
x,y,z
-y,x,z
-x,-y,z
y,-x,z
x,-y,-z
-x,y,-z
y,x,-z
-y,-x,-z
-x,-y,-z
y,-x,-z
x,y,-z
-y,x,-z
-x,y,z
x,-y,z
-y,-x,z
y,x,z
1/2+x,1/2+y,1/2+z
1/2-y,1/2+x,1/2+z
1/2-x,1/2-y,1/2+z
1/2+y,1/2-x,1/2+z
1/2+x,1/2-y,1/2-z
1/2-x,1/2+y,1/2-z
1/2+y,1/2+x,1/2-z
1/2-y,1/2-x,1/2-z
1/2-x,1/2-y,1/2-z
1/2+y,1/2-x,1/2-z
1/2+x,1/2+y,1/2-z
1/2-y,1/2+x,1/2-z
1/2-x,1/2+y,1/2+z
1/2+x,1/2-y,1/2+z
1/2-y,1/2-x,1/2+z
1/2+y,1/2+x,1/2+z
loop_
_atom_site_type_symbol
_atom_site_label
_atom_site_fract_x
_atom_site_fract_y
_atom_site_fract_z
Si Si1 0.220539 0.424060 0.843450
Si Si2 0.288362 0.823418 0.094294
Si Si3 0.308977 0.421000 0.316340
Si Si4 0.313678 0.573656 0.000000
O O1 0.188972 0.500000 0.839282
O O2 0.174012 0.358138 0.856250
O O3 0.268025 0.415645 0.766695
O O4 0.267406 0.422719 0.921960
O O5 0.246067 0.753934 0.112461
O O6 0.238792 0.884252 0.119141
O O7 0.301708 0.824383 0.000000
O O8 0.320524 0.500000 0.333322
O O9 0.377852 0.377852 0.310864
O O10 0.348417 0.500000 0.000000
O O11 0.366144 0.633857 0.000000
#
# Coordination Sequence:
#
# PCOD9571184 Si02
#       4
#    32  32  32  16
#     4  10  19  31  50  76 104 134 168 207 251 302
#     4  10  19  32  53  76 100 133 173 218 263 305
#     4  10  21  35  52  76 104 136 174 214 258 308
#     4  10  18  27  42  66  97 133 168 200 238 288
#
# _framework density 17.16225
#
# number of rings (size 3 to 8) (size 9 to 14) (size 15 to 20)
#    0.000    2.000    1.429    3.429    0.000    3.286 
#    0.000    0.000    0.000    6.000    0.000   10.000 
#    0.000    0.000    0.000    0.000    0.000    0.000 
#
# Total GULP energy -312302.422282 kJ/mol
# GULP energy per Si atom -5576.828969 kJ/mol
# Density = 1.712319 g / cm^3
# Si number density = 17.162250 Si / 1000 Ang^3
#
#
#
# Elastic Constant Matrix: (Units=GPa)
#
#
# Indices 1 2 3 4 5 6 
#
# 1 103.3446 42.1992 22.5908 0.0000 0.0000 0.0000
# 2 42.1992 103.3445 22.5907 0.0000 0.0000 0.0000
# 3 22.5908 22.5907 34.9365 0.0000 0.0000 0.0000
# 4 0.0000 0.0000 0.0000 3.6674 0.0000 0.0000
# 5 0.0000 0.0000 0.0000 0.0000 3.6594 0.0000
# 6 0.0000 0.0000 0.0000 0.0000 0.0000 18.3622
#
#
#
# Elastic Compliance Matrix: (Units=1/GPa)
#
#
# Indices 1 2 3 4 5 6 
#
# 1 0.012475 -0.003879 -0.005559 0.000000 0.000000 0.000000
# 2 -0.003879 0.012475 -0.005559 0.000000 0.000000 0.000000
# 3 -0.005559 -0.005559 0.035812 0.000000 0.000000 0.000000
# 4 0.000000 0.000000 0.000000 0.272671 0.000000 0.000000
# 5 0.000000 0.000000 0.000000 0.000000 0.273266 0.000000
# 6 0.000000 0.000000 0.000000 0.000000 0.000000 0.054460
#
#
# Mechanical properties :
#
#
# Convention : Reuss Voigt Hill
#
# Bulk Modulus (GPa) = 32.49888 46.26521 39.38204
# Shear Modulus (GPa) = 7.12851 15.42082 11.27467
#
# Velocity S-wave (km/s) = 2.04025 3.00080 2.56588
# Velocity P-wave (km/s) = 4.95253 6.24680 5.63693
#
# Compressibility (1/GPa) = 0.03077029
#
# Stress axis : x y z
#
# Youngs Moduli (GPa) = 80.15771 80.15771 27.92364
#
# Poissons Ratio (x) = 0.31094 0.15522
# Poissons Ratio (y) = 0.31094 0.15522
# Poissons Ratio (z) = 0.44557 0.44556
#
# Static dielectric constant tensor:
#      x y z
#    x 1.592160 0.000000 0.000000 
#    y 0.000000 1.592160 0.000000 
#    z 0.000000 0.000000 1.576530 
# 
# From -- ./inp_files/7554.got.cif
#   From: 2010.05.17/outbox.cif.g08.bks.cpg/sg139_4_cif.got.tgz:7554.got - 2010.05.20 13:14:44.
