data_PCOD9571606
_publ_section_title
;
Structure prediction by ZEFSAII (Michael W. Deem and Ramdas Pophale) SiO2 
 PCOD9571606
Probable space group: I 4/M M M
;
_chemical_formula_sum "Si O2"
_cell_formula_units_Z 136
_cell_length_a 17.785606
_cell_length_b 17.785606
_cell_length_c 26.655257
_cell_angle_alpha 90.000000
_cell_angle_beta 90.000000
_cell_angle_gamma 90.000000
_cell_volume 8431.798293
_symmetry_space_group_name_H-M "I 4/M M M"
_symmetry_group_IT_number 139
_symmetry_cell_setting 'tetragonal'
loop_
_space_group_symop_operation_xyz
x,y,z
-y,x,z
-x,-y,z
y,-x,z
x,-y,-z
-x,y,-z
y,x,-z
-y,-x,-z
-x,-y,-z
y,-x,-z
x,y,-z
-y,x,-z
-x,y,z
x,-y,z
-y,-x,z
y,x,z
1/2+x,1/2+y,1/2+z
1/2-y,1/2+x,1/2+z
1/2-x,1/2-y,1/2+z
1/2+y,1/2-x,1/2+z
1/2+x,1/2-y,1/2-z
1/2-x,1/2+y,1/2-z
1/2+y,1/2+x,1/2-z
1/2-y,1/2-x,1/2-z
1/2-x,1/2-y,1/2-z
1/2+y,1/2-x,1/2-z
1/2+x,1/2+y,1/2-z
1/2-y,1/2+x,1/2-z
1/2-x,1/2+y,1/2+z
1/2+x,1/2-y,1/2+z
1/2-y,1/2-x,1/2+z
1/2+y,1/2+x,1/2+z
loop_
_atom_site_type_symbol
_atom_site_label
_atom_site_fract_x
_atom_site_fract_y
_atom_site_fract_z
Si Si1 0.587528 0.412473 0.698676
Si Si2 0.811357 0.811357 0.732258
Si Si3 0.323122 0.090795 0.704626
Si Si4 0.327608 0.088761 0.000000
Si Si5 0.589878 0.914434 0.105394
Si Si6 0.913394 0.086607 0.920997
Si Si7 0.677383 0.322618 0.500000
O O1 0.603033 0.500000 0.711849
O O2 0.644459 0.355542 0.724349
O O3 0.593765 0.406236 0.638643
O O4 0.750000 0.750000 0.750000
O O5 0.760410 0.874004 0.705141
O O6 0.371165 0.128836 0.750000
O O7 0.361219 0.111283 0.651485
O O8 0.323030 0.000000 0.710238
O O9 0.374055 0.099650 0.948780
O O10 0.262347 0.150193 0.000000
O O11 0.301931 0.000000 0.000000
O O12 0.500000 0.910194 0.099895
O O13 0.609800 0.000000 0.119929
O O14 0.859853 0.140148 0.951181
O O15 0.000000 0.102383 0.934334
#
# Coordination Sequence:
#
# PCOD9571606 Si02
#       7
#    16  16  32  16  32  16   8
#     4   9  18  34  55  72  88 123 174 214 238 274
#     4  10  21  33  46  69 103 133 154 187 242 302
#     4  10  20  33  51  75 101 130 163 202 249 297
#     4  10  21  34  49  70  94 126 164 198 237 284
#     4   9  18  34  54  72  92 121 160 204 244 286
#     4   9  18  32  48  65  88 123 165 203 237 270
#     4  12  22  29  42  68 100 128 154 193 240 286
#
# _framework density 16.129418000000001
#
# number of rings (size 3 to 8) (size 9 to 14) (size 15 to 20)
#    0.000    2.353    0.000    3.529    0.000    7.765 
#    0.000    4.706    0.000    0.000    0.000    0.000 
#    0.000    0.000    0.000    0.000    0.000   36.706 
#
# Total GULP energy -378963.067775 kJ/mol
# GULP energy per Si atom -5572.986291 kJ/mol
# Density = 1.609271 g / cm^3
# Si number density = 16.129418 Si / 1000 Ang^3
#
#
#
# Elastic Constant Matrix: (Units=GPa)
#
#
# Indices 1 2 3 4 5 6 
#
# 1 59.5442 37.8666 42.2816 0.0000 0.0000 0.0000
# 2 37.8666 59.5442 42.2816 0.0000 0.0000 0.0000
# 3 42.2816 42.2816 91.4754 0.0000 0.0000 0.0000
# 4 0.0000 0.0000 0.0000 7.4929 0.0000 0.0000
# 5 0.0000 0.0000 0.0000 0.0000 7.4931 0.0000
# 6 0.0000 0.0000 0.0000 0.0000 0.0000 30.3608
#
#
#
# Elastic Compliance Matrix: (Units=1/GPa)
#
#
# Indices 1 2 3 4 5 6 
#
# 1 0.031638 -0.014492 -0.007925 0.000000 0.000000 0.000000
# 2 -0.014492 0.031638 -0.007925 0.000000 0.000000 0.000000
# 3 -0.007925 -0.007925 0.018258 0.000000 0.000000 0.000000
# 4 0.000000 0.000000 0.000000 0.133459 0.000000 0.000000
# 5 0.000000 0.000000 0.000000 0.000000 0.133456 0.000000
# 6 0.000000 0.000000 0.000000 0.000000 0.000000 0.032937
#
#
# Mechanical properties :
#
#
# Convention : Reuss Voigt Hill
#
# Bulk Modulus (GPa) = 47.96344 50.60259 49.28302
# Shear Modulus (GPa) = 11.13533 14.94496 13.04015
#
# Velocity S-wave (km/s) = 2.63035 3.04726 2.84644
# Velocity P-wave (km/s) = 6.24709 6.61982 6.43615
#
# Compressibility (1/GPa) = 0.02084921
#
# Stress axis : x y z
#
# Youngs Moduli (GPa) = 31.60752 31.60758 54.77031
#
# Poissons Ratio (x) = 0.45807 0.43406
# Poissons Ratio (y) = 0.45807 0.43405
# Poissons Ratio (z) = 0.25049 0.25049
#
# Static dielectric constant tensor:
#      x y z
#    x 1.551620 0.000000 0.000000 
#    y 0.000000 1.551620 0.000000 
#    z 0.000000 0.000000 1.521620 
# 
# From -- ./inp_files/11574.got.cif
#   From: 2010.05.17/outbox.cif.g08.bks.cpg/sg139_6_cif.got.tgz:11574.got - 2010.05.20 13:14:44.
