data_PCOD9571496
_publ_section_title
;
Structure prediction by ZEFSAII (Michael W. Deem and Ramdas Pophale) SiO2 
 PCOD9571496
Probable space group: I 4/M M M
;
_chemical_formula_sum "Si O2"
_cell_formula_units_Z 112
_cell_length_a 18.952722
_cell_length_b 18.952722
_cell_length_c 17.511687
_cell_angle_alpha 90.000000
_cell_angle_beta 90.000000
_cell_angle_gamma 90.000000
_cell_volume 6290.297283
_symmetry_space_group_name_H-M "I 4/M M M"
_symmetry_group_IT_number 139
_symmetry_cell_setting 'tetragonal'
loop_
_space_group_symop_operation_xyz
x,y,z
-y,x,z
-x,-y,z
y,-x,z
x,-y,-z
-x,y,-z
y,x,-z
-y,-x,-z
-x,-y,-z
y,-x,-z
x,y,-z
-y,x,-z
-x,y,z
x,-y,z
-y,-x,z
y,x,z
1/2+x,1/2+y,1/2+z
1/2-y,1/2+x,1/2+z
1/2-x,1/2-y,1/2+z
1/2+y,1/2-x,1/2+z
1/2+x,1/2-y,1/2-z
1/2-x,1/2+y,1/2-z
1/2+y,1/2+x,1/2-z
1/2-y,1/2-x,1/2-z
1/2-x,1/2-y,1/2-z
1/2+y,1/2-x,1/2-z
1/2+x,1/2+y,1/2-z
1/2-y,1/2+x,1/2-z
1/2-x,1/2+y,1/2+z
1/2+x,1/2-y,1/2+z
1/2-y,1/2-x,1/2+z
1/2+y,1/2+x,1/2+z
loop_
_atom_site_type_symbol
_atom_site_label
_atom_site_fract_x
_atom_site_fract_y
_atom_site_fract_z
Si Si1 0.724318 0.840389 0.138427
Si Si2 0.304010 0.416487 0.500000
Si Si3 0.418627 0.304376 0.763704
Si Si4 0.580280 0.219593 0.911078
O O1 0.764292 0.764292 0.139963
O O2 0.763272 0.885918 0.073467
O O3 0.742107 0.879222 0.217468
O O4 0.643288 0.831054 0.115893
O O5 0.305708 0.500000 0.500000
O O6 0.380895 0.380895 0.500000
O O7 0.500000 0.309365 0.740356
O O8 0.374534 0.374534 0.746930
O O9 0.415733 0.285164 0.853059
O O10 0.500000 0.191052 0.903464
O O11 0.591364 0.237534 0.000000
#
# Coordination Sequence:
#
# PCOD9571496 Si02
#       4
#    32  16  32  32
#     4  10  19  34  55  78 106 142 184 227 270 317
#     4  10  20  33  53  79 107 141 178 220 270 320
#     4  10  21  35  54  81 111 145 183 224 272 324
#     4  10  20  34  54  81 111 140 176 227 277 321
#
# _framework density 17.805199999999999
#
# number of rings (size 3 to 8) (size 9 to 14) (size 15 to 20)
#    0.000    2.000    1.429    2.571    0.000    4.429 
#    0.000    0.000    0.000    9.429    0.000   12.000 
#    0.000    0.000    0.000    0.000    0.000    0.000 
#
# Total GULP energy -312368.442334 kJ/mol
# GULP energy per Si atom -5578.007899 kJ/mol
# Density = 1.776467 g / cm^3
# Si number density = 17.805200 Si / 1000 Ang^3
#
#
#
# Elastic Constant Matrix: (Units=GPa)
#
#
# Indices 1 2 3 4 5 6 
#
# 1 108.4217 44.2999 28.1247 0.0000 0.0000 0.0000
# 2 44.2999 108.4217 28.1247 0.0000 0.0000 0.0000
# 3 28.1247 28.1247 103.6589 0.0000 0.0000 0.0000
# 4 0.0000 0.0000 0.0000 21.1607 0.0000 0.0000
# 5 0.0000 0.0000 0.0000 0.0000 21.1607 0.0000
# 6 0.0000 0.0000 0.0000 0.0000 0.0000 11.9465
#
#
#
# Elastic Compliance Matrix: (Units=1/GPa)
#
#
# Indices 1 2 3 4 5 6 
#
# 1 0.011435 -0.004160 -0.001974 0.000000 0.000000 0.000000
# 2 -0.004160 0.011435 -0.001974 0.000000 0.000000 0.000000
# 3 -0.001974 -0.001974 0.010718 0.000000 0.000000 0.000000
# 4 0.000000 0.000000 0.000000 0.047257 0.000000 0.000000
# 5 0.000000 0.000000 0.000000 0.000000 0.047257 0.000000
# 6 0.000000 0.000000 0.000000 0.000000 0.000000 0.083707
#
#
# Mechanical properties :
#
#
# Convention : Reuss Voigt Hill
#
# Bulk Modulus (GPa) = 57.56207 57.95563 57.75885
# Shear Modulus (GPa) = 21.38433 25.51713 23.45073
#
# Velocity S-wave (km/s) = 3.46933 3.78977 3.63309
# Velocity P-wave (km/s) = 6.96041 7.19516 7.07876
#
# Compressibility (1/GPa) = 0.01737255
#
# Stress axis : x y z
#
# Youngs Moduli (GPa) = 87.45020 87.45020 93.30018
#
# Poissons Ratio (x) = 0.36381 0.18416
# Poissons Ratio (y) = 0.36381 0.18416
# Poissons Ratio (z) = 0.17261 0.17261
#
# Static dielectric constant tensor:
#      x y z
#    x 1.592760 0.000000 0.000000 
#    y 0.000000 1.592760 0.000000 
#    z 0.000000 0.000000 1.659780 
# 
# From -- ./inp_files/7555.got.cif
#   From: 2010.05.17/outbox.cif.g08.bks.cpg/sg139_4_cif.got.tgz:7555.got - 2010.05.20 13:14:44.
