data_PCOD9571809
_publ_section_title
;
Structure prediction by ZEFSAII (Michael W. Deem and Ramdas Pophale) SiO2 
 PCOD9571809
Probable space group: I 4/M M M
;
_chemical_formula_sum "Si O2"
_cell_formula_units_Z 176
_cell_length_a 23.710655
_cell_length_b 23.710655
_cell_length_c 17.815111
_cell_angle_alpha 90.000000
_cell_angle_beta 90.000000
_cell_angle_gamma 90.000000
_cell_volume 10015.569188
_symmetry_space_group_name_H-M "I 4/M M M"
_symmetry_group_IT_number 139
_symmetry_cell_setting 'tetragonal'
loop_
_space_group_symop_operation_xyz
x,y,z
-y,x,z
-x,-y,z
y,-x,z
x,-y,-z
-x,y,-z
y,x,-z
-y,-x,-z
-x,-y,-z
y,-x,-z
x,y,-z
-y,x,-z
-x,y,z
x,-y,z
-y,-x,z
y,x,z
1/2+x,1/2+y,1/2+z
1/2-y,1/2+x,1/2+z
1/2-x,1/2-y,1/2+z
1/2+y,1/2-x,1/2+z
1/2+x,1/2-y,1/2-z
1/2-x,1/2+y,1/2-z
1/2+y,1/2+x,1/2-z
1/2-y,1/2-x,1/2-z
1/2-x,1/2-y,1/2-z
1/2+y,1/2-x,1/2-z
1/2+x,1/2+y,1/2-z
1/2-y,1/2+x,1/2-z
1/2-x,1/2+y,1/2+z
1/2+x,1/2-y,1/2+z
1/2-y,1/2-x,1/2+z
1/2+y,1/2+x,1/2+z
loop_
_atom_site_type_symbol
_atom_site_label
_atom_site_fract_x
_atom_site_fract_y
_atom_site_fract_z
Si Si1 0.732035 0.435186 0.649232
Si Si2 0.936478 0.157722 0.000000
Si Si3 0.146924 0.337602 0.839312
Si Si4 0.564152 0.063810 0.658631
Si Si5 0.138272 0.233907 0.413281
Si Si6 0.338755 0.566330 0.801594
O O1 0.754330 0.500000 0.654439
O O2 0.696042 0.430367 0.573660
O O3 0.781439 0.389466 0.648494
O O4 0.691582 0.426564 0.720914
O O5 0.890944 0.109057 0.000000
O O6 0.000000 0.134224 0.000000
O O7 0.156820 0.343181 0.750000
O O8 0.108722 0.390082 0.865932
O O9 0.206623 0.341495 0.880236
O O10 0.500000 0.076633 0.635025
O O11 0.564289 0.064289 0.750000
O O12 0.578096 0.000000 0.635204
O O13 0.121163 0.239745 0.500000
O O14 0.190266 0.190266 0.409480
O O15 0.089358 0.205738 0.363025
O O16 0.351072 0.500000 0.812088
O O17 0.394100 0.605901 0.805301
#
# Coordination Sequence:
#
# PCOD9571809 Si02
#       6
#    32  16  32  32  32  32
#     4  10  21  37  56  84 120 154 189 234 286 338
#     4  10  22  39  60  86 117 153 191 237 292 348
#     4  11  20  33  56  86 109 147 192 229 275 336
#     4   8  15  28  48  76 108 139 175 223 270 313
#     4  10  23  40  55  78 112 146 184 231 282 331
#     4  10  21  39  62  85 112 145 183 233 290 347
#
# _framework density 17.572641000000001
#
# number of rings (size 3 to 8) (size 9 to 14) (size 15 to 20)
#    0.000    2.182    1.818    1.636    1.273    3.909 
#    0.000    0.000    0.000    3.273    0.000    3.818 
#    0.000    0.000    0.000    0.000    0.000    0.000 
#
# Total GULP energy -491016.153043 kJ/mol
# GULP energy per Si atom -5579.729012 kJ/mol
# Density = 1.753264 g / cm^3
# Si number density = 17.572641 Si / 1000 Ang^3
#
#
#
# Elastic Constant Matrix: (Units=GPa)
#
#
# Indices 1 2 3 4 5 6 
#
# 1 107.8284 80.4841 51.4036 0.0000 0.0000 0.0000
# 2 80.4841 107.8193 51.3998 0.0000 0.0000 0.0000
# 3 51.4036 51.3998 110.1977 0.0000 0.0000 0.0000
# 4 0.0000 0.0000 0.0000 16.2922 0.0000 0.0000
# 5 0.0000 0.0000 0.0000 0.0000 16.2936 0.0000
# 6 0.0000 0.0000 0.0000 0.0000 0.0000 26.0868
#
#
#
# Elastic Compliance Matrix: (Units=1/GPa)
#
#
# Indices 1 2 3 4 5 6 
#
# 1 0.021850 -0.014726 -0.003324 0.000000 0.000000 0.000000
# 2 -0.014726 0.021852 -0.003323 0.000000 0.000000 0.000000
# 3 -0.003324 -0.003323 0.012175 0.000000 0.000000 0.000000
# 4 0.000000 0.000000 0.000000 0.061379 0.000000 0.000000
# 5 0.000000 0.000000 0.000000 0.000000 0.061374 0.000000
# 6 0.000000 0.000000 0.000000 0.000000 0.000000 0.038333
#
#
# Mechanical properties :
#
#
# Convention : Reuss Voigt Hill
#
# Bulk Modulus (GPa) = 76.15509 76.93561 76.54535
# Shear Modulus (GPa) = 18.93327 21.23839 20.08583
#
# Velocity S-wave (km/s) = 3.28598 3.48027 3.38452
# Velocity P-wave (km/s) = 7.60449 7.74766 7.67641
#
# Compressibility (1/GPa) = 0.01313110
#
# Stress axis : x y z
#
# Youngs Moduli (GPa) = 45.76645 45.76341 82.13588
#
# Poissons Ratio (x) = 0.67391 0.27299
# Poissons Ratio (y) = 0.67396 0.27294
# Poissons Ratio (z) = 0.15211 0.15207
#
# Static dielectric constant tensor:
#      x y z
#    x 1.583890 0.000000 0.000000 
#    y 0.000000 1.583890 0.000000 
#    z 0.000000 0.000000 1.584100 
# 
# From -- ./inp_files/6130.got.cif
#   From: 2010.05.17/outbox.cif.g08.bks.cpg/sg139_4_cif.got.tgz:6130.got - 2010.05.20 13:14:44.
