data_PCOD9571137
_publ_section_title
;
Structure prediction by ZEFSAII (Michael W. Deem and Ramdas Pophale) SiO2 
 PCOD9571137
Probable space group: P 42/N C M
;
_chemical_formula_sum "Si O2"
_cell_formula_units_Z 64
_cell_length_a 12.000000
_cell_length_b 12.000000
_cell_length_c 24.000000
_cell_angle_alpha 90.000000
_cell_angle_beta 90.000000
_cell_angle_gamma 90.000000
_cell_volume 3456.000000
_symmetry_space_group_name_H-M "P 42/N C M"
_symmetry_group_IT_number 138
_space_group.IT_coordinate_system_code '2'
_symmetry_cell_setting 'tetragonal'
loop_
_space_group_symop_operation_xyz
x,y,z
1/2-y,x,1/2+z
1/2-x,1/2-y,z
y,1/2-x,1/2+z
1/2+x,-y,1/2-z
-x,1/2+y,1/2-z
1/2+y,1/2+x,-z
-y,-x,-z
-x,-y,-z
1/2+y,-x,1/2-z
1/2+x,1/2+y,-z
-y,1/2+x,1/2-z
1/2-x,y,1/2+z
x,1/2-y,1/2+z
1/2-y,1/2-x,z
y,x,z
loop_
_atom_site_type_symbol
_atom_site_label
_atom_site_fract_x
_atom_site_fract_y
_atom_site_fract_z
Si Si1 0.689925 0.436315 0.323757
Si Si2 0.060187 0.611070 0.696480
Si Si3 0.842167 0.842167 0.392812
Si Si4 0.481612 0.304942 0.374130
Si Si5 0.591584 0.591584 0.516816
O O1 0.653833 0.456343 0.259654
O O2 0.810899 0.381584 0.319566
O O3 0.695591 0.546812 0.360736
O O4 0.594235 0.364780 0.353653
O O5 0.990339 0.685585 0.653495
O O6 0.014214 0.485787 0.694388
O O7 0.750000 0.750000 0.386727
O O8 0.863363 0.863363 0.458538
O O9 0.378277 0.378277 0.351170
O O10 0.464655 0.318034 0.440869
O O11 0.500000 0.500000 0.500000
#
# Coordination Sequence:
#
# PCOD9571137 Si02
#       5
#    16  16   8  16   8
#     4  12  22  40  63  97 133 175 217 267 331 402
#     4  12  25  39  61  98 139 168 215 274 336 393
#     4  12  24  42  70 100 134 176 225 281 333 386
#     4  10  22  41  69  91 123 171 224 261 331 399
#     4  10  20  44  72  90 126 172 230 263 322 403
#
# _framework density 18.518519000000001
#
# number of rings (size 3 to 8) (size 9 to 14) (size 15 to 20)
#    0.750    0.000    7.500    1.500    0.000    2.500 
#    0.000    1.250    0.000    3.000    0.000    0.000 
#    0.000    0.000    0.000    0.000    0.000    0.000 
#
# Total GULP energy -356832.434305 kJ/mol
# GULP energy per Si atom -5575.506786 kJ/mol
# Density = 1.847637 g / cm^3
# Si number density = 18.518519 Si / 1000 Ang^3
#
#
#
# Elastic Constant Matrix: (Units=GPa)
#
#
# Indices 1 2 3 4 5 6 
#
# 1 43.7395 36.2794 34.0286 0.0000 0.0000 0.0000
# 2 36.2794 43.7395 34.0286 0.0000 0.0000 0.0000
# 3 34.0286 34.0286 152.1575 0.0000 0.0000 0.0000
# 4 0.0000 0.0000 0.0000 22.4852 0.0000 0.0000
# 5 0.0000 0.0000 0.0000 0.0000 22.4852 0.0000
# 6 0.0000 0.0000 0.0000 0.0000 0.0000 13.6060
#
#
#
# Elastic Compliance Matrix: (Units=1/GPa)
#
#
# Indices 1 2 3 4 5 6 
#
# 1 0.074740 -0.059308 -0.003451 0.000000 0.000000 0.000000
# 2 -0.059308 0.074740 -0.003451 0.000000 0.000000 0.000000
# 3 -0.003451 -0.003451 0.008116 0.000000 0.000000 0.000000
# 4 0.000000 0.000000 0.000000 0.044474 0.000000 0.000000
# 5 0.000000 0.000000 0.000000 0.000000 0.044474 0.000000
# 6 0.000000 0.000000 0.000000 0.000000 0.000000 0.073497
#
#
# Mechanical properties :
#
#
# Convention : Reuss Voigt Hill
#
# Bulk Modulus (GPa) = 39.72125 49.81221 44.76673
# Shear Modulus (GPa) = 10.84945 20.73524 15.79235
#
# Velocity S-wave (km/s) = 2.42310 3.34983 2.92342
# Velocity P-wave (km/s) = 5.41522 6.47447 5.96839
#
# Compressibility (1/GPa) = 0.02517544
#
# Stress axis : x y z
#
# Youngs Moduli (GPa) = 13.37971 13.37971 123.21565
#
# Poissons Ratio (x) = 0.79352 0.42526
# Poissons Ratio (y) = 0.79352 0.42526
# Poissons Ratio (z) = 0.04618 0.04618
#
# Static dielectric constant tensor:
#      x y z
#    x 1.693830 0.000000 0.000000 
#    y 0.000000 1.693830 0.000000 
#    z 0.000000 0.000000 1.613950 
# 
# From -- ./inp_files/6804.got.cif
#   From: 2010.05.17/outbox.ucp.g08.bks.cvg/sg138_4_cif.got.tgz:6804.got - 2010.06.11 11:41:40.
