data_PCOD9571684
_publ_section_title
;
Structure prediction by ZEFSAII (Michael W. Deem and Ramdas Pophale) SiO2 
 PCOD9571684
Probable space group: I 4/M M M
;
_chemical_formula_sum "Si O2"
_cell_formula_units_Z 160
_cell_length_a 32.124185
_cell_length_b 32.124185
_cell_length_c 9.055475
_cell_angle_alpha 90.000000
_cell_angle_beta 90.000000
_cell_angle_gamma 90.000000
_cell_volume 9344.917519
_symmetry_space_group_name_H-M "I 4/M M M"
_symmetry_group_IT_number 139
_symmetry_cell_setting 'tetragonal'
loop_
_space_group_symop_operation_xyz
x,y,z
-y,x,z
-x,-y,z
y,-x,z
x,-y,-z
-x,y,-z
y,x,-z
-y,-x,-z
-x,-y,-z
y,-x,-z
x,y,-z
-y,x,-z
-x,y,z
x,-y,z
-y,-x,z
y,x,z
1/2+x,1/2+y,1/2+z
1/2-y,1/2+x,1/2+z
1/2-x,1/2-y,1/2+z
1/2+y,1/2-x,1/2+z
1/2+x,1/2-y,1/2-z
1/2-x,1/2+y,1/2-z
1/2+y,1/2+x,1/2-z
1/2-y,1/2-x,1/2-z
1/2-x,1/2-y,1/2-z
1/2+y,1/2-x,1/2-z
1/2+x,1/2+y,1/2-z
1/2-y,1/2+x,1/2-z
1/2-x,1/2+y,1/2+z
1/2+x,1/2-y,1/2+z
1/2-y,1/2-x,1/2+z
1/2+y,1/2+x,1/2+z
loop_
_atom_site_type_symbol
_atom_site_label
_atom_site_fract_x
_atom_site_fract_y
_atom_site_fract_z
Si Si1 0.736925 0.823430 0.828758
Si Si2 0.548962 0.548962 0.177261
Si Si3 0.386723 0.613278 0.677544
Si Si4 0.605648 0.835362 0.668956
Si Si5 0.952877 0.726008 0.676077
Si Si6 0.114276 0.797551 0.323146
O O1 0.716385 0.783616 0.750000
O O2 0.700413 0.858462 0.827233
O O3 0.775167 0.844594 0.742529
O O4 0.747039 0.815445 0.000000
O O5 0.500000 0.557063 0.210617
O O6 0.579912 0.579912 0.261626
O O7 0.554264 0.554264 0.000000
O O8 0.386401 0.613600 0.500000
O O9 0.395401 0.659250 0.742912
O O10 0.596572 0.844874 0.500000
O O11 0.625164 0.874837 0.750000
O O12 0.566784 0.814276 0.748210
O O13 0.952001 0.719877 0.500000
O O14 0.923292 0.765378 0.706076
O O15 0.000000 0.733672 0.723739
O O16 0.118566 0.803288 0.500000
#
# Coordination Sequence:
#
# PCOD9571684 Si02
#       6
#    32  16  16  32  32  32
#     4   9  16  28  47  71  98 131 172 216 259 301
#     4   9  20  42  70  93 109 129 162 203 247 301
#     4  12  25  39  56  81 112 141 168 205 255 307
#     4   9  16  26  43  67  96 131 169 208 249 295
#     4   9  18  32  50  73 101 132 167 209 255 302
#     4  10  20  35  53  73 100 137 178 216 256 305
#
# _framework density 17.121604999999999
#
# number of rings (size 3 to 8) (size 9 to 14) (size 15 to 20)
#    0.000    2.500    0.000    3.000    0.000    7.200 
#    0.000    3.000    0.000    0.000    0.000    0.000 
#    0.000    0.400    0.000    4.200    0.000    2.200 
#
# Total GULP energy -446360.867533 kJ/mol
# GULP energy per Si atom -5579.510844 kJ/mol
# Density = 1.708264 g / cm^3
# Si number density = 17.121605 Si / 1000 Ang^3
#
#
#
# Elastic Constant Matrix: (Units=GPa)
#
#
# Indices 1 2 3 4 5 6 
#
# 1 14.4944 176.9171 72.2638 0.0000 0.0000 0.0000
# 2 176.9171 14.4874 72.2667 0.0000 0.0000 0.0000
# 3 72.2638 72.2667 107.7686 0.0000 0.0000 0.0000
# 4 0.0000 0.0000 0.0000 24.0111 0.0000 0.0000
# 5 0.0000 0.0000 0.0000 0.0000 24.0105 0.0000
# 6 0.0000 0.0000 0.0000 0.0000 0.0000 30.4683
#
#
#
# Elastic Compliance Matrix: (Units=1/GPa)
#
#
# Indices 1 2 3 4 5 6 
#
# 1 0.002214 0.008370 -0.007097 0.000000 0.000000 0.000000
# 2 0.008370 0.002213 -0.007096 0.000000 0.000000 0.000000
# 3 -0.007097 -0.007096 0.018796 0.000000 0.000000 0.000000
# 4 0.000000 0.000000 0.000000 0.041647 0.000000 0.000000
# 5 0.000000 0.000000 0.000000 0.000000 0.041648 0.000000
# 6 0.000000 0.000000 0.000000 0.000000 0.000000 0.032821
#
#
# Mechanical properties :
#
#
# Convention : Reuss Voigt Hill
#
# Bulk Modulus (GPa) = 86.38342 86.62730 86.50536
# Shear Modulus (GPa) = 32.29042 3.38482 17.83762
#
# Velocity S-wave (km/s) = 4.34746 1.40756 3.23122
# Velocity P-wave (km/s) = 8.70419 7.30389 8.03460
#
# Compressibility (1/GPa) = 0.01157630
#
# Stress axis : x y z
#
# Youngs Moduli (GPa) = 451.77295 451.91648 53.20173
#
# Poissons Ratio (x) = -3.78245 0.37756
# Poissons Ratio (y) = -3.78124 0.37753
# Poissons Ratio (z) = 3.20615 3.20688
#
# Static dielectric constant tensor:
#      x y z
#    x 1.576210 0.000000 0.000000 
#    y 0.000000 1.576210 0.000000 
#    z 0.000000 0.000000 1.572470 
# 
# From -- ./inp_files/2278.got.cif
#   From: 2010.05.17/outbox.cif.g08.bks.cpg/sg139_2_cif.got.tgz:2278.got - 2010.05.20 13:14:44.
