data_PCOD9571197
_publ_section_title
;
Structure prediction by ZEFSAII (Michael W. Deem and Ramdas Pophale) SiO2 
 PCOD9571197
Probable space group: I 4/M M M
;
_chemical_formula_sum "Si O2"
_cell_formula_units_Z 144
_cell_length_a 17.322915
_cell_length_b 17.322915
_cell_length_c 32.648975
_cell_angle_alpha 90.000000
_cell_angle_beta 90.000000
_cell_angle_gamma 90.000000
_cell_volume 9797.414905
_symmetry_space_group_name_H-M "I 4/M M M"
_symmetry_group_IT_number 139
_symmetry_cell_setting 'tetragonal'
loop_
_space_group_symop_operation_xyz
x,y,z
-y,x,z
-x,-y,z
y,-x,z
x,-y,-z
-x,y,-z
y,x,-z
-y,-x,-z
-x,-y,-z
y,-x,-z
x,y,-z
-y,x,-z
-x,y,z
x,-y,z
-y,-x,z
y,x,z
1/2+x,1/2+y,1/2+z
1/2-y,1/2+x,1/2+z
1/2-x,1/2-y,1/2+z
1/2+y,1/2-x,1/2+z
1/2+x,1/2-y,1/2-z
1/2-x,1/2+y,1/2-z
1/2+y,1/2+x,1/2-z
1/2-y,1/2-x,1/2-z
1/2-x,1/2-y,1/2-z
1/2+y,1/2-x,1/2-z
1/2+x,1/2+y,1/2-z
1/2-y,1/2+x,1/2-z
1/2-x,1/2+y,1/2+z
1/2+x,1/2-y,1/2+z
1/2-y,1/2-x,1/2+z
1/2+y,1/2+x,1/2+z
loop_
_atom_site_type_symbol
_atom_site_label
_atom_site_fract_x
_atom_site_fract_y
_atom_site_fract_z
Si Si1 0.284707 0.413058 0.453714
Si Si2 0.687797 0.184519 0.317358
Si Si3 0.909343 0.640202 0.105286
Si Si4 0.406377 0.000000 0.546769
Si Si5 0.720257 0.407657 0.749052
O O1 0.251641 0.404860 0.500000
O O2 0.316058 0.500000 0.450905
O O3 0.351153 0.351153 0.448586
O O4 0.219641 0.404292 0.419812
O O5 0.752225 0.247776 0.330316
O O6 0.643899 0.146003 0.355040
O O7 0.625948 0.231043 0.289407
O O8 0.731854 0.123031 0.288480
O O9 0.884699 0.574123 0.073507
O O10 0.000000 0.627427 0.116139
O O11 0.500000 0.000000 0.544313
O O12 0.377587 0.000000 0.500000
O O13 0.712800 0.500000 0.748075
O O14 0.639026 0.360975 0.749117
#
# Coordination Sequence:
#
# PCOD9571197 Si02
#       5
#    32  32  32  16  32
#     4   9  17  28  42  61  85 114 147 183 223 265
#     4   9  18  31  47  67  91 121 151 182 228 274
#     4  10  18  28  45  64  85 116 151 188 223 274
#     4   9  18  30  42  62  90 118 149 191 235 273
#     4   9  18  32  49  68  93 122 151 189 230 273
#
# _framework density 14.697754
#
# number of rings (size 3 to 8) (size 9 to 14) (size 15 to 20)
#    0.000    2.778    0.000    3.333    1.556    3.111 
#    0.000    1.111    0.000    1.333    0.000    3.111 
#    0.000    0.000    0.000    0.000    0.000    9.778 
#
# Total GULP energy -401024.989672 kJ/mol
# GULP energy per Si atom -5569.791523 kJ/mol
# Density = 1.466430 g / cm^3
# Si number density = 14.697754 Si / 1000 Ang^3
#
#
#
# Elastic Constant Matrix: (Units=GPa)
#
#
# Indices 1 2 3 4 5 6 
#
# 1 82.8887 36.1557 42.7555 0.0000 0.0000 0.0000
# 2 36.1557 82.8887 42.7555 0.0000 0.0000 0.0000
# 3 42.7555 42.7555 99.9782 0.0000 0.0000 0.0000
# 4 0.0000 0.0000 0.0000 20.5996 0.0000 0.0000
# 5 0.0000 0.0000 0.0000 0.0000 20.5996 0.0000
# 6 0.0000 0.0000 0.0000 0.0000 0.0000 6.4314
#
#
#
# Elastic Compliance Matrix: (Units=1/GPa)
#
#
# Indices 1 2 3 4 5 6 
#
# 1 0.016761 -0.004637 -0.005185 0.000000 0.000000 0.000000
# 2 -0.004637 0.016761 -0.005185 0.000000 0.000000 0.000000
# 3 -0.005185 -0.005185 0.014437 0.000000 0.000000 0.000000
# 4 0.000000 0.000000 0.000000 0.048545 0.000000 0.000000
# 5 0.000000 0.000000 0.000000 0.000000 0.048545 0.000000
# 6 0.000000 0.000000 0.000000 0.000000 0.000000 0.155486
#
#
# Mechanical properties :
#
#
# Convention : Reuss Voigt Hill
#
# Bulk Modulus (GPa) = 55.72273 56.56547 56.14410
# Shear Modulus (GPa) = 14.85746 19.13205 16.99475
#
# Velocity S-wave (km/s) = 3.18286 3.61182 3.40410
# Velocity P-wave (km/s) = 7.17650 7.48084 7.33025
#
# Compressibility (1/GPa) = 0.01794600
#
# Stress axis : x y z
#
# Youngs Moduli (GPa) = 59.66062 59.66062 69.26645
#
# Poissons Ratio (x) = 0.27663 0.35916
# Poissons Ratio (y) = 0.27663 0.35916
# Poissons Ratio (z) = 0.30935 0.30935
#
# Static dielectric constant tensor:
#      x y z
#    x 1.472240 0.000000 0.000000 
#    y 0.000000 1.472240 0.000000 
#    z 0.000000 0.000000 1.491310 
# 
# From -- ./inp_files/12801.got.cif
#   From: 2010.05.17/outbox.cif.g08.bks.cpg/sg139_7_cif.got.tgz:12801.got - 2010.05.20 13:14:44.
