data_PCOD9571161
_publ_section_title
;
Structure prediction by ZEFSAII (Michael W. Deem and Ramdas Pophale) SiO2 
 PCOD9571161
Probable space group: I 4/M M M
;
_chemical_formula_sum "Si O2"
_cell_formula_units_Z 192
_cell_length_a 27.550493
_cell_length_b 27.550493
_cell_length_c 16.107371
_cell_angle_alpha 90.000000
_cell_angle_beta 90.000000
_cell_angle_gamma 90.000000
_cell_volume 12225.972407
_symmetry_space_group_name_H-M "I 4/M M M"
_symmetry_group_IT_number 139
_symmetry_cell_setting 'tetragonal'
loop_
_space_group_symop_operation_xyz
x,y,z
-y,x,z
-x,-y,z
y,-x,z
x,-y,-z
-x,y,-z
y,x,-z
-y,-x,-z
-x,-y,-z
y,-x,-z
x,y,-z
-y,x,-z
-x,y,z
x,-y,z
-y,-x,z
y,x,z
1/2+x,1/2+y,1/2+z
1/2-y,1/2+x,1/2+z
1/2-x,1/2-y,1/2+z
1/2+y,1/2-x,1/2+z
1/2+x,1/2-y,1/2-z
1/2-x,1/2+y,1/2-z
1/2+y,1/2+x,1/2-z
1/2-y,1/2-x,1/2-z
1/2-x,1/2-y,1/2-z
1/2+y,1/2-x,1/2-z
1/2+x,1/2+y,1/2-z
1/2-y,1/2+x,1/2-z
1/2-x,1/2+y,1/2+z
1/2+x,1/2-y,1/2+z
1/2-y,1/2-x,1/2+z
1/2+y,1/2+x,1/2+z
loop_
_atom_site_type_symbol
_atom_site_label
_atom_site_fract_x
_atom_site_fract_y
_atom_site_fract_z
Si Si1 0.814272 0.404940 0.909837
Si Si2 0.444116 0.861097 0.253407
Si Si3 0.055344 0.132857 0.600220
Si Si4 0.322763 0.244614 0.303533
Si Si5 0.182387 0.391639 0.592654
Si Si6 0.788596 0.133951 0.357325
O O1 0.827781 0.435721 0.828404
O O2 0.855282 0.363496 0.910992
O O3 0.762043 0.379143 0.900416
O O4 0.815478 0.430388 0.000000
O O5 0.500000 0.876775 0.256713
O O6 0.406569 0.906569 0.250000
O O7 0.429816 0.830397 0.335308
O O8 0.055968 0.137653 0.500000
O O9 0.082779 0.082779 0.620560
O O10 0.088207 0.176075 0.634970
O O11 0.000000 0.134247 0.628321
O O12 0.277105 0.277105 0.331536
O O13 0.300317 0.199684 0.250000
O O14 0.357178 0.225578 0.375329
O O15 0.353339 0.275090 0.237049
O O16 0.190457 0.411260 0.500000
O O17 0.819479 0.180522 0.390012
#
# Coordination Sequence:
#
# PCOD9571161 Si02
#       6
#    32  32  32  32  32  32
#     4  10  19  31  50  74 100 129 158 192 241 295
#     4  10  21  38  55  73  96 121 158 207 258 307
#     4   9  18  31  45  64  91 123 161 200 237 281
#     4  10  17  29  47  69 100 134 168 201 233 278
#     4  10  19  33  51  71  97 129 166 201 239 288
#     4  10  18  29  47  69 101 135 162 196 237 277
#
# _framework density 15.704272
#
# number of rings (size 3 to 8) (size 9 to 14) (size 15 to 20)
#    0.000    2.167    3.333    1.000    0.000    3.000 
#    0.000    2.500    0.000    0.000    0.000    4.667 
#    0.000    0.000    0.000    0.000    0.000    0.167 
#
# Total GULP energy -534769.578415 kJ/mol
# GULP energy per Si atom -5570.516442 kJ/mol
# Density = 1.566853 g / cm^3
# Si number density = 15.704272 Si / 1000 Ang^3
#
#
#
# Elastic Constant Matrix: (Units=GPa)
#
#
# Indices 1 2 3 4 5 6 
#
# 1 66.0118 20.0008 34.5449 0.0000 0.0000 0.0000
# 2 20.0008 66.0121 34.5448 0.0000 0.0000 0.0000
# 3 34.5449 34.5448 110.2442 0.0000 0.0000 0.0000
# 4 0.0000 0.0000 0.0000 9.7424 0.0000 0.0000
# 5 0.0000 0.0000 0.0000 0.0000 9.7425 0.0000
# 6 0.0000 0.0000 0.0000 0.0000 0.0000 8.9849
#
#
#
# Elastic Compliance Matrix: (Units=1/GPa)
#
#
# Indices 1 2 3 4 5 6 
#
# 1 0.018635 -0.003099 -0.004868 0.000000 0.000000 0.000000
# 2 -0.003099 0.018635 -0.004868 0.000000 0.000000 0.000000
# 3 -0.004868 -0.004868 0.012122 0.000000 0.000000 0.000000
# 4 0.000000 0.000000 0.000000 0.102644 0.000000 0.000000
# 5 0.000000 0.000000 0.000000 0.000000 0.102644 0.000000
# 6 0.000000 0.000000 0.000000 0.000000 0.000000 0.111298
#
#
# Mechanical properties :
#
#
# Convention : Reuss Voigt Hill
#
# Bulk Modulus (GPa) = 42.15563 46.71654 44.43609
# Shear Modulus (GPa) = 12.51390 15.90579 14.20985
#
# Velocity S-wave (km/s) = 2.82591 3.18596 3.01132
# Velocity P-wave (km/s) = 6.12775 6.58377 6.35985
#
# Compressibility (1/GPa) = 0.02372162
#
# Stress axis : x y z
#
# Youngs Moduli (GPa) = 53.66142 53.66178 82.49609
#
# Poissons Ratio (x) = 0.16627 0.40163
# Poissons Ratio (y) = 0.16627 0.40162
# Poissons Ratio (z) = 0.26125 0.26125
#
# Static dielectric constant tensor:
#      x y z
#    x 1.523350 0.000000 0.000000 
#    y 0.000000 1.523350 0.000000 
#    z 0.000000 0.000000 1.543100 
# 
# From -- ./inp_files/6640.got.cif
#   From: 2010.05.17/outbox.cif.g08.bks.cpg/sg139_4_cif.got.tgz:6640.got - 2010.05.20 13:14:44.
