data_PCOD9571431
_publ_section_title
;
Structure prediction by ZEFSAII (Michael W. Deem and Ramdas Pophale) SiO2 
 PCOD9571431
Probable space group: I 4/M M M
;
_chemical_formula_sum "Si O2"
_cell_formula_units_Z 240
_cell_length_a 28.122729
_cell_length_b 28.122729
_cell_length_c 14.074332
_cell_angle_alpha 90.000000
_cell_angle_beta 90.000000
_cell_angle_gamma 90.000000
_cell_volume 11131.218688
_symmetry_space_group_name_H-M "I 4/M M M"
_symmetry_group_IT_number 139
_symmetry_cell_setting 'tetragonal'
loop_
_space_group_symop_operation_xyz
x,y,z
-y,x,z
-x,-y,z
y,-x,z
x,-y,-z
-x,y,-z
y,x,-z
-y,-x,-z
-x,-y,-z
y,-x,-z
x,y,-z
-y,x,-z
-x,y,z
x,-y,z
-y,-x,z
y,x,z
1/2+x,1/2+y,1/2+z
1/2-y,1/2+x,1/2+z
1/2-x,1/2-y,1/2+z
1/2+y,1/2-x,1/2+z
1/2+x,1/2-y,1/2-z
1/2-x,1/2+y,1/2-z
1/2+y,1/2+x,1/2-z
1/2-y,1/2-x,1/2-z
1/2-x,1/2-y,1/2-z
1/2+y,1/2-x,1/2-z
1/2+x,1/2+y,1/2-z
1/2-y,1/2+x,1/2-z
1/2-x,1/2+y,1/2+z
1/2+x,1/2-y,1/2+z
1/2-y,1/2-x,1/2+z
1/2+y,1/2+x,1/2+z
loop_
_atom_site_type_symbol
_atom_site_label
_atom_site_fract_x
_atom_site_fract_y
_atom_site_fract_z
Si Si1 0.555832 0.638188 0.500000
Si Si2 0.596162 0.328460 0.301708
Si Si3 0.656761 0.055660 0.606512
Si Si4 0.698186 0.225159 0.857576
Si Si5 0.699618 0.382450 0.107335
Si Si6 0.865944 0.746211 0.102271
Si Si7 0.448823 0.917123 0.614111
Si Si8 0.445609 0.811089 0.303384
O O1 0.500000 0.624202 0.500000
O O2 0.593996 0.593996 0.500000
O O3 0.565365 0.666388 0.601037
O O4 0.620473 0.379528 0.289895
O O5 0.581689 0.310495 0.195801
O O6 0.637299 0.289505 0.325110
O O7 0.662919 0.076084 0.500000
O O8 0.600944 0.057851 0.635177
O O9 0.684925 0.075544 0.696867
O O10 0.669149 0.000000 0.601201
O O11 0.740000 0.260001 0.893054
O O12 0.712130 0.212130 0.750000
O O13 0.649884 0.253318 0.876242
O O14 0.705180 0.173170 0.899741
O O15 0.656272 0.343729 0.109260
O O16 0.701798 0.402719 0.000000
O O17 0.915117 0.722032 0.129963
O O18 0.865371 0.769269 0.000000
O O19 0.450391 0.915647 0.500000
O O20 0.500000 0.937494 0.646346
O O21 0.445366 0.863930 0.653663
O O22 0.500000 0.794893 0.298734
#
# Coordination Sequence:
#
# PCOD9571431 Si02
#       8
#    16  32  32  32  32  32  32  32
#     4  10  22  41  68 102 136 168 206 256 313 377
#     4  10  20  37  60  88 122 159 198 243 297 355
#     4   9  18  34  55  74  93 123 163 213 278 345
#     4  10  19  32  52  78 115 156 197 247 302 354
#     4   9  17  32  54  81 119 166 207 246 293 349
#     4  12  23  34  52  78 106 146 197 248 296 347
#     4   9  17  31  51  73  97 122 152 203 272 342
#     4  10  22  38  51  67  97 135 175 221 275 336
#
# _framework density 21.560983
#
# number of rings (size 3 to 8) (size 9 to 14) (size 15 to 20)
#    0.000    2.133    2.000    1.600    0.000    4.067 
#    0.000    2.000    0.000    2.800    0.000    0.000 
#    0.000    0.000    0.000    5.200    0.000    0.000 
#
# Total GULP energy -668465.632046 kJ/mol
# GULP energy per Si atom -5570.546934 kJ/mol
# Density = 2.151191 g / cm^3
# Si number density = 21.560983 Si / 1000 Ang^3
#
#
#
# Elastic Constant Matrix: (Units=GPa)
#
#
# Indices 1 2 3 4 5 6 
#
# 1 36.9128 12.6987 16.2948 0.0000 0.0000 0.0000
# 2 12.6987 36.9128 16.2948 0.0000 0.0000 0.0000
# 3 16.2948 16.2948 106.6816 0.0000 0.0000 0.0000
# 4 0.0000 0.0000 0.0000 8.7924 0.0000 0.0000
# 5 0.0000 0.0000 0.0000 0.0000 8.7924 0.0000
# 6 0.0000 0.0000 0.0000 0.0000 0.0000 15.2462
#
#
#
# Elastic Compliance Matrix: (Units=1/GPa)
#
#
# Indices 1 2 3 4 5 6 
#
# 1 0.031851 -0.009447 -0.003422 0.000000 0.000000 0.000000
# 2 -0.009447 0.031851 -0.003422 0.000000 0.000000 0.000000
# 3 -0.003422 -0.003422 0.010419 0.000000 0.000000 0.000000
# 4 0.000000 0.000000 0.000000 0.113735 0.000000 0.000000
# 5 0.000000 0.000000 0.000000 0.000000 0.113735 0.000000
# 6 0.000000 0.000000 0.000000 0.000000 0.000000 0.065590
#
#
# Mechanical properties :
#
#
# Convention : Reuss Voigt Hill
#
# Bulk Modulus (GPa) = 24.07333 30.12045 27.09689
# Shear Modulus (GPa) = 12.08865 15.58077 13.83471
#
# Velocity S-wave (km/s) = 2.37042 2.69111 2.53584
# Velocity P-wave (km/s) = 4.32219 4.86377 4.60096
#
# Compressibility (1/GPa) = 0.04153974
#
# Stress axis : x y z
#
# Youngs Moduli (GPa) = 31.39575 31.39575 95.97756
#
# Poissons Ratio (x) = 0.29659 0.32845
# Poissons Ratio (y) = 0.29659 0.32845
# Poissons Ratio (z) = 0.10744 0.10744
#
# Static dielectric constant tensor:
#      x y z
#    x 1.790680 0.000000 0.000000 
#    y 0.000000 1.790680 0.000000 
#    z 0.000000 0.000000 1.941200 
# 
# From -- ./inp_files/6811.got.cif
#   From: 2010.05.17/outbox.cif.g08.bks.cpg/sg139_4_cif.got.tgz:6811.got - 2010.05.20 13:14:44.
