data_PCOD9571598
_publ_section_title
;
Structure prediction by ZEFSAII (Michael W. Deem and Ramdas Pophale) SiO2 
 PCOD9571598
Probable space group: I 4/M M M
;
_chemical_formula_sum "Si O2"
_cell_formula_units_Z 176
_cell_length_a 19.490565
_cell_length_b 19.490565
_cell_length_c 27.439770
_cell_angle_alpha 90.000000
_cell_angle_beta 90.000000
_cell_angle_gamma 90.000000
_cell_volume 10423.878110
_symmetry_space_group_name_H-M "I 4/M M M"
_symmetry_group_IT_number 139
_symmetry_cell_setting 'tetragonal'
loop_
_space_group_symop_operation_xyz
x,y,z
-y,x,z
-x,-y,z
y,-x,z
x,-y,-z
-x,y,-z
y,x,-z
-y,-x,-z
-x,-y,-z
y,-x,-z
x,y,-z
-y,x,-z
-x,y,z
x,-y,z
-y,-x,z
y,x,z
1/2+x,1/2+y,1/2+z
1/2-y,1/2+x,1/2+z
1/2-x,1/2-y,1/2+z
1/2+y,1/2-x,1/2+z
1/2+x,1/2-y,1/2-z
1/2-x,1/2+y,1/2-z
1/2+y,1/2+x,1/2-z
1/2-y,1/2-x,1/2-z
1/2-x,1/2-y,1/2-z
1/2+y,1/2-x,1/2-z
1/2+x,1/2+y,1/2-z
1/2-y,1/2+x,1/2-z
1/2-x,1/2+y,1/2+z
1/2+x,1/2-y,1/2+z
1/2-y,1/2-x,1/2+z
1/2+y,1/2+x,1/2+z
loop_
_atom_site_type_symbol
_atom_site_label
_atom_site_fract_x
_atom_site_fract_y
_atom_site_fract_z
Si Si1 0.580266 0.815830 0.271026
Si Si2 0.580523 0.308221 0.443041
Si Si3 0.281599 0.834199 0.132931
Si Si4 0.732052 0.077815 0.602414
Si Si5 0.077994 0.807121 0.500000
Si Si6 0.812288 0.923536 0.300704
O O1 0.500000 0.825739 0.282883
O O2 0.616281 0.883720 0.250000
O O3 0.623382 0.789005 0.317201
O O4 0.584927 0.757830 0.229286
O O5 0.588460 0.288081 0.500000
O O6 0.500000 0.312074 0.432020
O O7 0.618840 0.381161 0.437347
O O8 0.619582 0.256238 0.407495
O O9 0.234521 0.765480 0.139439
O O10 0.358075 0.815658 0.115240
O O11 0.761669 0.086307 0.548418
O O12 0.792576 0.081220 0.642472
O O13 0.702513 0.000000 0.606893
O O14 0.132730 0.867271 0.500000
O O15 0.000000 0.833954 0.500000
O O16 0.866000 0.866000 0.286934
O O17 0.838992 0.000000 0.290731
#
# Coordination Sequence:
#
# PCOD9571598 Si02
#       6
#    32  32  32  32  16  32
#     4  11  23  37  55  79 106 138 178 222 271 325
#     4   9  19  35  55  83 115 146 182 224 272 326
#     4  11  21  34  58  83 109 143 182 226 273 322
#     4  10  21  35  52  78 109 141 179 223 269 317
#     4  10  20  33  50  74 105 139 176 218 262 312
#     4  10  20  35  54  78 108 139 176 219 263 318
#
# _framework density 16.884309999999999
#
# number of rings (size 3 to 8) (size 9 to 14) (size 15 to 20)
#    0.000    1.818    1.818    2.727    1.273    1.364 
#    0.000    0.909    0.000    4.909    0.000    3.818 
#    0.000    0.000    0.000    0.000    0.000    0.000 
#
# Total GULP energy -490891.773579 kJ/mol
# GULP energy per Si atom -5578.315609 kJ/mol
# Density = 1.684588 g / cm^3
# Si number density = 16.884310 Si / 1000 Ang^3
#
#
#
# Elastic Constant Matrix: (Units=GPa)
#
#
# Indices 1 2 3 4 5 6 
#
# 1 102.9267 63.3736 44.0905 0.0000 0.0000 0.0000
# 2 63.3736 102.9240 44.0913 0.0000 0.0000 0.0000
# 3 44.0905 44.0913 88.6965 0.0000 0.0000 0.0000
# 4 0.0000 0.0000 0.0000 23.6625 0.0000 0.0000
# 5 0.0000 0.0000 0.0000 0.0000 23.6621 0.0000
# 6 0.0000 0.0000 0.0000 0.0000 0.0000 20.6751
#
#
#
# Elastic Compliance Matrix: (Units=1/GPa)
#
#
# Indices 1 2 3 4 5 6 
#
# 1 0.016724 -0.008559 -0.004059 0.000000 0.000000 0.000000
# 2 -0.008559 0.016725 -0.004059 0.000000 0.000000 0.000000
# 3 -0.004059 -0.004059 0.015310 0.000000 0.000000 0.000000
# 4 0.000000 0.000000 0.000000 0.042261 0.000000 0.000000
# 5 0.000000 0.000000 0.000000 0.000000 0.042262 0.000000
# 6 0.000000 0.000000 0.000000 0.000000 0.000000 0.048367
#
#
# Mechanical properties :
#
#
# Convention : Reuss Voigt Hill
#
# Bulk Modulus (GPa) = 64.91502 66.40646 65.66074
# Shear Modulus (GPa) = 22.71304 23.13275 22.92289
#
# Velocity S-wave (km/s) = 3.67170 3.70547 3.68862
# Velocity P-wave (km/s) = 7.51702 7.59756 7.55740
#
# Compressibility (1/GPa) = 0.01540475
#
# Stress axis : x y z
#
# Youngs Moduli (GPa) = 59.79388 59.79132 65.31683
#
# Poissons Ratio (x) = 0.51174 0.26511
# Poissons Ratio (y) = 0.51176 0.26515
# Poissons Ratio (z) = 0.24269 0.24272
#
# Static dielectric constant tensor:
#      x y z
#    x 1.558430 0.000000 0.000000 
#    y 0.000000 1.558430 0.000000 
#    z 0.000000 0.000000 1.568980 
# 
# From -- ./inp_files/14260.got.cif
#   From: 2010.05.17/outbox.cif.g08.bks.cpg/sg139_8_cif.got.tgz:14260.got - 2010.05.20 13:14:44.
