data_PCOD9571366
_publ_section_title
;
Structure prediction by ZEFSAII (Michael W. Deem and Ramdas Pophale) SiO2 
 PCOD9571366
Probable space group: I 4/M M M
;
_chemical_formula_sum "Si O2"
_cell_formula_units_Z 240
_cell_length_a 21.617270
_cell_length_b 21.617270
_cell_length_c 29.803241
_cell_angle_alpha 90.000000
_cell_angle_beta 90.000000
_cell_angle_gamma 90.000000
_cell_volume 13927.244135
_symmetry_space_group_name_H-M "I 4/M M M"
_symmetry_group_IT_number 139
_symmetry_cell_setting 'tetragonal'
loop_
_space_group_symop_operation_xyz
x,y,z
-y,x,z
-x,-y,z
y,-x,z
x,-y,-z
-x,y,-z
y,x,-z
-y,-x,-z
-x,-y,-z
y,-x,-z
x,y,-z
-y,x,-z
-x,y,z
x,-y,z
-y,-x,z
y,x,z
1/2+x,1/2+y,1/2+z
1/2-y,1/2+x,1/2+z
1/2-x,1/2-y,1/2+z
1/2+y,1/2-x,1/2+z
1/2+x,1/2-y,1/2-z
1/2-x,1/2+y,1/2-z
1/2+y,1/2+x,1/2-z
1/2-y,1/2-x,1/2-z
1/2-x,1/2-y,1/2-z
1/2+y,1/2-x,1/2-z
1/2+x,1/2+y,1/2-z
1/2-y,1/2+x,1/2-z
1/2-x,1/2+y,1/2+z
1/2+x,1/2-y,1/2+z
1/2-y,1/2-x,1/2+z
1/2+y,1/2+x,1/2+z
loop_
_atom_site_type_symbol
_atom_site_label
_atom_site_fract_x
_atom_site_fract_y
_atom_site_fract_z
Si Si1 0.427783 0.926385 0.500000
Si Si2 0.129114 0.640277 0.915232
Si Si3 0.156889 0.741216 0.355068
Si Si4 0.301335 0.928080 0.718075
Si Si5 0.570167 0.927563 0.668170
Si Si6 0.070901 0.165972 0.140705
Si Si7 0.072439 0.233768 0.051125
Si Si8 0.248522 0.654557 0.297424
O O1 0.500000 0.903996 0.500000
O O2 0.391389 0.902336 0.456528
O O3 0.429720 0.000000 0.500000
O O4 0.200377 0.639993 0.898846
O O5 0.088138 0.616992 0.872961
O O6 0.111745 0.708923 0.930867
O O7 0.195421 0.804580 0.362535
O O8 0.096760 0.741297 0.323104
O O9 0.202587 0.696661 0.326266
O O10 0.373049 0.922009 0.702694
O O11 0.284953 0.886337 0.760537
O O12 0.289699 0.000000 0.727213
O O13 0.500000 0.914517 0.684608
O O14 0.570792 0.000000 0.653358
O O15 0.099611 0.099611 0.150732
O O16 0.078164 0.180569 0.087975
O O17 0.110622 0.215445 0.168230
O O18 0.000000 0.171592 0.152960
O O19 0.000000 0.252622 0.051271
O O20 0.089037 0.217663 0.000000
O O21 0.299070 0.700931 0.275825
#
# Coordination Sequence:
#
# PCOD9571366 Si02
#       8
#    16  32  32  32  32  32  32  32
#     4  11  22  34  51  78 114 152 187 220 258 303
#     4  11  19  31  51  75  97 133 178 220 257 299
#     4  10  21  37  54  74 102 137 174 217 265 309
#     4  10  20  33  51  76 101 134 175 212 257 311
#     4   9  18  32  48  68 101 140 176 215 255 296
#     4  10  21  36  54  76  99 126 160 206 261 314
#     4  10  19  31  48  71  98 126 163 209 250 293
#     4  10  19  35  55  75 101 132 170 213 258 310
#
# _framework density 17.232410999999999
#
# number of rings (size 3 to 8) (size 9 to 14) (size 15 to 20)
#    0.000    1.933    2.000    2.800    0.000    3.067 
#    0.000    4.333    0.000    0.000    0.000    5.600 
#    0.000    2.400    0.000    0.000    0.000    0.667 
#
# Total GULP energy -669760.730232 kJ/mol
# GULP energy per Si atom -5581.339419 kJ/mol
# Density = 1.719319 g / cm^3
# Si number density = 17.232411 Si / 1000 Ang^3
#
#
#
# Elastic Constant Matrix: (Units=GPa)
#
#
# Indices 1 2 3 4 5 6 
#
# 1 54.7850 33.4653 22.7341 0.0000 0.0000 0.0000
# 2 33.4653 54.7850 22.7341 0.0000 0.0000 0.0000
# 3 22.7341 22.7341 75.5831 0.0000 0.0000 0.0000
# 4 0.0000 0.0000 0.0000 20.8756 0.0000 0.0000
# 5 0.0000 0.0000 0.0000 0.0000 20.8756 0.0000
# 6 0.0000 0.0000 0.0000 0.0000 0.0000 28.2523
#
#
#
# Elastic Compliance Matrix: (Units=1/GPa)
#
#
# Indices 1 2 3 4 5 6 
#
# 1 0.030157 -0.016748 -0.004033 0.000000 0.000000 0.000000
# 2 -0.016748 0.030157 -0.004033 0.000000 0.000000 0.000000
# 3 -0.004033 -0.004033 0.015657 0.000000 0.000000 0.000000
# 4 0.000000 0.000000 0.000000 0.047903 0.000000 0.000000
# 5 0.000000 0.000000 0.000000 0.000000 0.047903 0.000000
# 6 0.000000 0.000000 0.000000 0.000000 0.000000 0.035395
#
#
# Mechanical properties :
#
#
# Convention : Reuss Voigt Hill
#
# Bulk Modulus (GPa) = 37.96164 38.11331 38.03747
# Shear Modulus (GPa) = 18.82659 21.08201 19.95430
#
# Velocity S-wave (km/s) = 3.30890 3.50150 3.40656
# Velocity P-wave (km/s) = 6.05603 6.20585 6.13140
#
# Compressibility (1/GPa) = 0.02634238
#
# Stress axis : x y z
#
# Youngs Moduli (GPa) = 33.15957 33.15957 63.87013
#
# Poissons Ratio (x) = 0.55535 0.25761
# Poissons Ratio (y) = 0.55535 0.25761
# Poissons Ratio (z) = 0.13374 0.13374
#
# Static dielectric constant tensor:
#      x y z
#    x 1.598440 0.000000 0.000000 
#    y 0.000000 1.598440 0.000000 
#    z 0.000000 0.000000 1.605130 
# 
# From -- ./inp_files/14670.got.cif
#   From: 2010.05.17/outbox.cif.g08.bks.cpg/sg139_8_cif.got.tgz:14670.got - 2010.05.20 13:14:44.
