data_PCOD9571936
_publ_section_title
;
Structure prediction by ZEFSAII (Michael W. Deem and Ramdas Pophale) SiO2 
 PCOD9571936
Probable space group: I 4/M M M
;
_chemical_formula_sum "Si O2"
_cell_formula_units_Z 176
_cell_length_a 18.902674
_cell_length_b 18.902674
_cell_length_c 28.091517
_cell_angle_alpha 90.000000
_cell_angle_beta 90.000000
_cell_angle_gamma 90.000000
_cell_volume 10037.410400
_symmetry_space_group_name_H-M "I 4/M M M"
_symmetry_group_IT_number 139
_symmetry_cell_setting 'tetragonal'
loop_
_space_group_symop_operation_xyz
x,y,z
-y,x,z
-x,-y,z
y,-x,z
x,-y,-z
-x,y,-z
y,x,-z
-y,-x,-z
-x,-y,-z
y,-x,-z
x,y,-z
-y,x,-z
-x,y,z
x,-y,z
-y,-x,z
y,x,z
1/2+x,1/2+y,1/2+z
1/2-y,1/2+x,1/2+z
1/2-x,1/2-y,1/2+z
1/2+y,1/2-x,1/2+z
1/2+x,1/2-y,1/2-z
1/2-x,1/2+y,1/2-z
1/2+y,1/2+x,1/2-z
1/2-y,1/2-x,1/2-z
1/2-x,1/2-y,1/2-z
1/2+y,1/2-x,1/2-z
1/2+x,1/2+y,1/2-z
1/2-y,1/2+x,1/2-z
1/2-x,1/2+y,1/2+z
1/2+x,1/2-y,1/2+z
1/2-y,1/2-x,1/2+z
1/2+y,1/2+x,1/2+z
loop_
_atom_site_type_symbol
_atom_site_label
_atom_site_fract_x
_atom_site_fract_y
_atom_site_fract_z
Si Si1 0.419269 0.692379 0.874562
Si Si2 0.806250 0.689975 0.372516
Si Si3 0.580233 0.842418 0.710014
Si Si4 0.342780 0.082848 0.942787
Si Si5 0.085397 0.500000 0.946036
Si Si6 0.077215 0.190192 0.740464
O O1 0.500000 0.699030 0.891027
O O2 0.381347 0.618654 0.887939
O O3 0.366875 0.755191 0.889028
O O4 0.419335 0.695646 0.816779
O O5 0.739038 0.739038 0.358925
O O6 0.835597 0.640605 0.329990
O O7 0.791434 0.635486 0.415274
O O8 0.500000 0.853873 0.691617
O O9 0.600286 0.899715 0.750000
O O10 0.581914 0.767137 0.736914
O O11 0.423096 0.101846 0.925279
O O12 0.329985 0.000000 0.932491
O O13 0.341136 0.090645 0.000000
O O14 0.000000 0.500000 0.949309
O O15 0.113770 0.500000 0.000000
O O16 0.140070 0.140070 0.756832
O O17 0.000000 0.159753 0.752490
#
# Coordination Sequence:
#
# PCOD9571936 Si02
#       6
#    32  32  32  32  16  32
#     4   9  18  31  47  69  95 127 168 208 250 298
#     4  11  22  33  52  78 106 140 174 212 266 324
#     4  11  22  36  52  70  99 136 176 216 258 314
#     4   9  18  34  54  76 105 139 177 219 262 312
#     4   7  12  26  48  72  96 128 167 205 251 301
#     4   9  17  30  48  68  93 127 164 205 247 289
#
# _framework density 17.534403000000001
#
# number of rings (size 3 to 8) (size 9 to 14) (size 15 to 20)
#    0.000    2.455    1.818    2.182    1.273    1.636 
#    0.000    1.818    0.000    0.000    0.000    0.000 
#    0.000    3.273    0.000   12.000    0.000    0.182 
#
# Total GULP energy -490043.606822 kJ/mol
# GULP energy per Si atom -5568.677350 kJ/mol
# Density = 1.749449 g / cm^3
# Si number density = 17.534403 Si / 1000 Ang^3
#
#
#
# Elastic Constant Matrix: (Units=GPa)
#
#
# Indices 1 2 3 4 5 6 
#
# 1 78.8363 33.2206 15.0558 0.0000 0.0000 0.0000
# 2 33.2206 78.8346 15.0554 0.0000 0.0000 0.0000
# 3 15.0558 15.0554 32.7403 0.0000 0.0000 0.0000
# 4 0.0000 0.0000 0.0000 15.7886 0.0000 0.0000
# 5 0.0000 0.0000 0.0000 0.0000 15.7891 0.0000
# 6 0.0000 0.0000 0.0000 0.0000 0.0000 18.7071
#
#
#
# Elastic Compliance Matrix: (Units=1/GPa)
#
#
# Indices 1 2 3 4 5 6 
#
# 1 0.016052 -0.005870 -0.004682 0.000000 0.000000 0.000000
# 2 -0.005870 0.016053 -0.004682 0.000000 0.000000 0.000000
# 3 -0.004682 -0.004682 0.034850 0.000000 0.000000 0.000000
# 4 0.000000 0.000000 0.000000 0.063337 0.000000 0.000000
# 5 0.000000 0.000000 0.000000 0.000000 0.063335 0.000000
# 6 0.000000 0.000000 0.000000 0.000000 0.000000 0.053456
#
#
# Mechanical properties :
#
#
# Convention : Reuss Voigt Hill
#
# Bulk Modulus (GPa) = 27.40851 35.23055 31.31953
# Shear Modulus (GPa) = 17.25845 18.52893 17.89369
#
# Velocity S-wave (km/s) = 3.14070 3.25425 3.19798
# Velocity P-wave (km/s) = 5.36817 5.85287 5.61575
#
# Compressibility (1/GPa) = 0.03648502
#
# Stress axis : x y z
#
# Youngs Moduli (GPa) = 62.29610 62.29500 28.69464
#
# Poissons Ratio (x) = 0.36568 0.13436
# Poissons Ratio (y) = 0.36569 0.13436
# Poissons Ratio (z) = 0.29170 0.29168
#
# Static dielectric constant tensor:
#      x y z
#    x 1.616560 0.000000 0.000000 
#    y 0.000000 1.616560 0.000000 
#    z 0.000000 0.000000 1.606720 
# 
# From -- ./inp_files/14269.got.cif
#   From: 2010.05.17/outbox.cif.g08.bks.cpg/sg139_8_cif.got.tgz:14269.got - 2010.05.20 13:14:44.
