data_PCOD9571729
_publ_section_title
;
Structure prediction by ZEFSAII (Michael W. Deem and Ramdas Pophale) SiO2 
 PCOD9571729
Probable space group: I 4/M M M
;
_chemical_formula_sum "Si O2"
_cell_formula_units_Z 176
_cell_length_a 18.487543
_cell_length_b 18.487543
_cell_length_c 26.412824
_cell_angle_alpha 90.000000
_cell_angle_beta 90.000000
_cell_angle_gamma 90.000000
_cell_volume 9027.619204
_symmetry_space_group_name_H-M "I 4/M M M"
_symmetry_group_IT_number 139
_symmetry_cell_setting 'tetragonal'
loop_
_space_group_symop_operation_xyz
x,y,z
-y,x,z
-x,-y,z
y,-x,z
x,-y,-z
-x,y,-z
y,x,-z
-y,-x,-z
-x,-y,-z
y,-x,-z
x,y,-z
-y,x,-z
-x,y,z
x,-y,z
-y,-x,z
y,x,z
1/2+x,1/2+y,1/2+z
1/2-y,1/2+x,1/2+z
1/2-x,1/2-y,1/2+z
1/2+y,1/2-x,1/2+z
1/2+x,1/2-y,1/2-z
1/2-x,1/2+y,1/2-z
1/2+y,1/2+x,1/2-z
1/2-y,1/2-x,1/2-z
1/2-x,1/2-y,1/2-z
1/2+y,1/2-x,1/2-z
1/2+x,1/2+y,1/2-z
1/2-y,1/2+x,1/2-z
1/2-x,1/2+y,1/2+z
1/2+x,1/2-y,1/2+z
1/2-y,1/2-x,1/2+z
1/2+y,1/2+x,1/2+z
loop_
_atom_site_type_symbol
_atom_site_label
_atom_site_fract_x
_atom_site_fract_y
_atom_site_fract_z
Si Si1 0.146244 0.345856 0.398901
Si Si2 0.580658 0.303004 0.763014
Si Si3 0.418083 0.000000 0.560484
Si Si4 0.583541 0.696805 0.885185
Si Si5 0.580999 0.848572 0.706257
Si Si6 0.704011 0.415275 0.438740
O O1 0.073945 0.381688 0.421365
O O2 0.133664 0.260736 0.406565
O O3 0.145042 0.363580 0.339285
O O4 0.220496 0.379528 0.420304
O O5 0.500000 0.329774 0.751077
O O6 0.641074 0.358927 0.746589
O O7 0.584347 0.295122 0.823891
O O8 0.590713 0.227327 0.734992
O O9 0.500000 0.000000 0.579668
O O10 0.418025 0.000000 0.500000
O O11 0.500000 0.703365 0.901447
O O12 0.620219 0.620219 0.897214
O O13 0.500000 0.852357 0.685203
O O14 0.592897 0.907104 0.750000
O O15 0.704948 0.415837 0.500000
O O16 0.698548 0.500000 0.422137
O O17 0.636553 0.363448 0.422999
#
# Coordination Sequence:
#
# PCOD9571729 Si02
#       6
#    32  32  16  32  32  32
#     4  12  22  39  60  90 123 160 202 249 311 366
#     4   9  19  35  53  78 113 152 199 247 293 345
#     4  11  24  40  62  90 123 161 203 253 308 370
#     4  10  20  36  57  84 117 156 202 252 302 362
#     4  11  23  36  53  79 116 157 197 240 288 353
#     4  10  22  41  65  93 125 161 204 254 306 362
#
# _framework density 19.495728
#
# number of rings (size 3 to 8) (size 9 to 14) (size 15 to 20)
#    0.000    1.545    2.727    2.727    1.273    4.000 
#    0.000    2.727    0.000    0.000    0.000    2.545 
#    0.000    0.727    0.000    0.000    0.000    0.000 
#
# Total GULP energy -491191.033804 kJ/mol
# GULP energy per Si atom -5581.716293 kJ/mol
# Density = 1.945135 g / cm^3
# Si number density = 19.495728 Si / 1000 Ang^3
#
#
#
# Elastic Constant Matrix: (Units=GPa)
#
#
# Indices 1 2 3 4 5 6 
#
# 1 116.2933 84.6553 12.9856 0.0000 0.0000 0.0000
# 2 84.6553 116.2918 12.9861 0.0000 0.0000 0.0000
# 3 12.9856 12.9861 15.6508 0.0000 0.0000 0.0000
# 4 0.0000 0.0000 0.0000 18.5396 0.0000 0.0000
# 5 0.0000 0.0000 0.0000 0.0000 18.5398 0.0000
# 6 0.0000 0.0000 0.0000 0.0000 0.0000 37.1060
#
#
#
# Elastic Compliance Matrix: (Units=1/GPa)
#
#
# Indices 1 2 3 4 5 6 
#
# 1 0.018591 -0.013017 -0.004624 0.000000 0.000000 0.000000
# 2 -0.013017 0.018591 -0.004626 0.000000 0.000000 0.000000
# 3 -0.004624 -0.004626 0.071569 0.000000 0.000000 0.000000
# 4 0.000000 0.000000 0.000000 0.053939 0.000000 0.000000
# 5 0.000000 0.000000 0.000000 0.000000 0.053938 0.000000
# 6 0.000000 0.000000 0.000000 0.000000 0.000000 0.026950
#
#
# Mechanical properties :
#
#
# Convention : Reuss Voigt Hill
#
# Bulk Modulus (GPa) = 15.57206 52.16556 33.86881
# Shear Modulus (GPa) = 16.15413 24.01100 20.08256
#
# Velocity S-wave (km/s) = 2.88166 3.51323 3.21300
# Velocity P-wave (km/s) = 4.36769 6.57819 5.58342
#
# Compressibility (1/GPa) = 0.06421758
#
# Stress axis : x y z
#
# Youngs Moduli (GPa) = 53.78943 53.78819 13.97246
#
# Poissons Ratio (x) = 0.70016 0.06461
# Poissons Ratio (y) = 0.70018 0.06463
# Poissons Ratio (z) = 0.24874 0.24881
#
# Static dielectric constant tensor:
#      x y z
#    x 1.687890 0.000000 0.000000 
#    y 0.000000 1.687890 0.000000 
#    z 0.000000 0.000000 1.632950 
# 
# From -- ./inp_files/13116.got.cif
#   From: 2010.05.17/outbox.cif.g08.bks.cpg/sg139_7_cif.got.tgz:13116.got - 2010.05.20 13:14:44.
