data_PCOD9571324
_publ_section_title
;
Structure prediction by ZEFSAII (Michael W. Deem and Ramdas Pophale) SiO2 
 PCOD9571324
Probable space group: I 4/M M M
;
_chemical_formula_sum "Si O2"
_cell_formula_units_Z 192
_cell_length_a 20.747948
_cell_length_b 20.747948
_cell_length_c 23.703474
_cell_angle_alpha 90.000000
_cell_angle_beta 90.000000
_cell_angle_gamma 90.000000
_cell_volume 10203.808583
_symmetry_space_group_name_H-M "I 4/M M M"
_symmetry_group_IT_number 139
_symmetry_cell_setting 'tetragonal'
loop_
_space_group_symop_operation_xyz
x,y,z
-y,x,z
-x,-y,z
y,-x,z
x,-y,-z
-x,y,-z
y,x,-z
-y,-x,-z
-x,-y,-z
y,-x,-z
x,y,-z
-y,x,-z
-x,y,z
x,-y,z
-y,-x,z
y,x,z
1/2+x,1/2+y,1/2+z
1/2-y,1/2+x,1/2+z
1/2-x,1/2-y,1/2+z
1/2+y,1/2-x,1/2+z
1/2+x,1/2-y,1/2-z
1/2-x,1/2+y,1/2-z
1/2+y,1/2+x,1/2-z
1/2-y,1/2-x,1/2-z
1/2-x,1/2-y,1/2-z
1/2+y,1/2-x,1/2-z
1/2+x,1/2+y,1/2-z
1/2-y,1/2+x,1/2-z
1/2-x,1/2+y,1/2+z
1/2+x,1/2-y,1/2+z
1/2-y,1/2-x,1/2+z
1/2+y,1/2+x,1/2+z
loop_
_atom_site_type_symbol
_atom_site_label
_atom_site_fract_x
_atom_site_fract_y
_atom_site_fract_z
Si Si1 0.073916 0.671370 0.908729
Si Si2 0.818005 0.074319 0.117706
Si Si3 0.656666 0.929688 0.775152
Si Si4 0.287825 0.389012 0.254041
Si Si5 0.680118 0.573692 0.130347
Si Si6 0.574452 0.811224 0.935280
O O1 0.087794 0.748469 0.911718
O O2 0.073304 0.656432 0.841981
O O3 0.129310 0.624420 0.931555
O O4 0.000000 0.660669 0.929500
O O5 0.873208 0.126793 0.104068
O O6 0.805221 0.078848 0.185647
O O7 0.835780 0.000000 0.104818
O O8 0.588900 0.911100 0.750000
O O9 0.711764 0.885320 0.750157
O O10 0.677552 0.000000 0.757111
O O11 0.319482 0.319482 0.255401
O O12 0.314447 0.423548 0.198461
O O13 0.665463 0.500000 0.113094
O O14 0.625579 0.625579 0.113684
O O15 0.750430 0.590710 0.104576
O O16 0.500000 0.831374 0.922171
O O17 0.575174 0.788189 0.000000
#
# Coordination Sequence:
#
# PCOD9571324 Si02
#       6
#    32  32  32  32  32  32
#     4   9  19  34  51  74 103 132 163 204 252 299
#     4   9  17  30  49  75 108 142 174 206 240 284
#     4  10  19  30  45  67  99 135 166 197 234 283
#     4   9  17  30  49  72 100 135 171 206 244 284
#     4  10  20  34  53  76 103 135 170 209 252 297
#     4  10  22  39  57  76  97 124 163 212 263 312
#
# _framework density 18.816503999999998
#
# number of rings (size 3 to 8) (size 9 to 14) (size 15 to 20)
#    0.000    2.500    0.000    3.500    0.000    4.500 
#    0.000    5.833    0.000    3.000    0.000    2.333 
#    0.000    0.000    0.000    3.667    0.000    0.000 
#
# Total GULP energy -534592.929333 kJ/mol
# GULP energy per Si atom -5568.676347 kJ/mol
# Density = 1.877368 g / cm^3
# Si number density = 18.816504 Si / 1000 Ang^3
#
#
#
# Elastic Constant Matrix: (Units=GPa)
#
#
# Indices 1 2 3 4 5 6 
#
# 1 46.4327 119.4040 21.3851 0.0000 0.0000 0.0000
# 2 119.4040 46.3729 21.3974 0.0000 0.0000 0.0000
# 3 21.3851 21.3974 24.4956 0.0000 0.0000 0.0000
# 4 0.0000 0.0000 0.0000 4.0780 0.0000 0.0000
# 5 0.0000 0.0000 0.0000 0.0000 4.0798 0.0000
# 6 0.0000 0.0000 0.0000 0.0000 0.0000 33.4241
#
#
#
# Elastic Compliance Matrix: (Units=1/GPa)
#
#
# Indices 1 2 3 4 5 6 
#
# 1 -0.002952 0.010742 -0.006806 0.000000 0.000000 0.000000
# 2 0.010742 -0.002961 -0.006791 0.000000 0.000000 0.000000
# 3 -0.006806 -0.006791 0.052698 0.000000 0.000000 0.000000
# 4 0.000000 0.000000 0.000000 0.245216 0.000000 0.000000
# 5 0.000000 0.000000 0.000000 0.000000 0.245108 0.000000
# 6 0.000000 0.000000 0.000000 0.000000 0.000000 0.029919
#
#
# Mechanical properties :
#
#
# Convention : Reuss Voigt Hill
#
# Bulk Modulus (GPa) = 24.34647 49.07493 36.71070
# Shear Modulus (GPa) = 8.52616 5.32403 6.92510
#
# Velocity S-wave (km/s) = 2.13097 1.68392 1.92050
# Velocity P-wave (km/s) = 4.36139 5.46975 4.94671
#
# Compressibility (1/GPa) = 0.04107371
#
# Stress axis : x y z
#
# Youngs Moduli (GPa) = -338.73191 -337.74073 18.97611
#
# Poissons Ratio (x) = 3.62797 0.12915
# Poissons Ratio (y) = 3.63862 0.12888
# Poissons Ratio (z) = -2.30539 -2.29376
#
# Static dielectric constant tensor:
#      x y z
#    x 1.656270 0.000000 0.000000 
#    y 0.000000 1.656270 0.000000 
#    z 0.000000 0.000000 1.651910 
# 
# From -- ./inp_files/11931.got.cif
#   From: 2010.05.17/outbox.cif.g08.bks.cpg/sg139_6_cif.got.tgz:11931.got - 2010.05.20 13:14:44.
