data_PCOD9571634
_publ_section_title
;
Structure prediction by ZEFSAII (Michael W. Deem and Ramdas Pophale) SiO2 
 PCOD9571634
Probable space group: I 4/M M M
;
_chemical_formula_sum "Si O2"
_cell_formula_units_Z 160
_cell_length_a 22.289663
_cell_length_b 22.289663
_cell_length_c 16.862067
_cell_angle_alpha 90.000000
_cell_angle_beta 90.000000
_cell_angle_gamma 90.000000
_cell_volume 8377.565178
_symmetry_space_group_name_H-M "I 4/M M M"
_symmetry_group_IT_number 139
_symmetry_cell_setting 'tetragonal'
loop_
_space_group_symop_operation_xyz
x,y,z
-y,x,z
-x,-y,z
y,-x,z
x,-y,-z
-x,y,-z
y,x,-z
-y,-x,-z
-x,-y,-z
y,-x,-z
x,y,-z
-y,x,-z
-x,y,z
x,-y,z
-y,-x,z
y,x,z
1/2+x,1/2+y,1/2+z
1/2-y,1/2+x,1/2+z
1/2-x,1/2-y,1/2+z
1/2+y,1/2-x,1/2+z
1/2+x,1/2-y,1/2-z
1/2-x,1/2+y,1/2-z
1/2+y,1/2+x,1/2-z
1/2-y,1/2-x,1/2-z
1/2-x,1/2-y,1/2-z
1/2+y,1/2-x,1/2-z
1/2+x,1/2+y,1/2-z
1/2-y,1/2+x,1/2-z
1/2-x,1/2+y,1/2+z
1/2+x,1/2-y,1/2+z
1/2-y,1/2-x,1/2+z
1/2+y,1/2+x,1/2+z
loop_
_atom_site_type_symbol
_atom_site_label
_atom_site_fract_x
_atom_site_fract_y
_atom_site_fract_z
Si Si1 0.336741 0.569963 0.000000
Si Si2 0.931509 0.931509 0.903765
Si Si3 0.133996 0.276626 0.795492
Si Si4 0.667998 0.667998 0.595287
Si Si5 0.637326 0.263144 0.867454
Si Si6 0.623309 0.872356 0.408245
Si Si7 0.000000 0.568757 0.404132
O O1 0.302041 0.596584 0.075223
O O2 0.335218 0.500000 0.000000
O O3 0.402850 0.597151 0.000000
O O4 0.882021 0.882021 0.882771
O O5 0.000000 0.917221 0.878302
O O6 0.932269 0.932269 0.000000
O O7 0.189457 0.310544 0.750000
O O8 0.151265 0.230487 0.863749
O O9 0.108946 0.241075 0.720351
O O10 0.097390 0.327587 0.841683
O O11 0.672286 0.672286 0.500000
O O12 0.701452 0.298549 0.864546
O O13 0.638245 0.195260 0.901607
O O14 0.605157 0.861563 0.500000
O O15 0.604575 0.939479 0.384665
O O16 0.000000 0.500000 0.374084
O O17 0.000000 0.565176 0.500000
#
# Coordination Sequence:
#
# PCOD9571634 Si02
#       7
#    16  16  32  16  32  32  16
#     4  10  22  39  64  94 120 160 202 250 302 370
#     4   8  16  34  59  82 108 147 193 238 278 332
#     4  10  21  36  54  83 127 159 191 246 311 365
#     4  11  20  33  58  91 123 155 199 244 297 364
#     4  10  20  36  58  86 120 156 195 249 306 364
#     4  10  20  33  60  90 115 159 207 250 306 368
#     4   9  20  40  62  84 116 159 209 263 303 357
#
# _framework density 19.098628000000001
#
# number of rings (size 3 to 8) (size 9 to 14) (size 15 to 20)
#    0.000    2.200    2.000    1.200    5.600    0.100 
#    0.000    3.000   15.400    4.800    0.000    0.000 
#    0.000    0.000    0.000    0.000    0.000    0.000 
#
# Total GULP energy -445489.476044 kJ/mol
# GULP energy per Si atom -5568.618451 kJ/mol
# Density = 1.905516 g / cm^3
# Si number density = 19.098628 Si / 1000 Ang^3
#
#
#
# Elastic Constant Matrix: (Units=GPa)
#
#
# Indices 1 2 3 4 5 6 
#
# 1 86.7458 46.8233 40.0362 0.0000 0.0000 0.0000
# 2 46.8233 86.7479 40.0357 0.0000 0.0000 0.0000
# 3 40.0362 40.0357 130.6841 0.0000 0.0000 0.0000
# 4 0.0000 0.0000 0.0000 0.5405 0.0000 0.0000
# 5 0.0000 0.0000 0.0000 0.0000 0.5401 0.0000
# 6 0.0000 0.0000 0.0000 0.0000 0.0000 18.0913
#
#
#
# Elastic Compliance Matrix: (Units=1/GPa)
#
#
# Indices 1 2 3 4 5 6 
#
# 1 0.017110 -0.007938 -0.002810 0.000000 0.000000 0.000000
# 2 -0.007938 0.017109 -0.002809 0.000000 0.000000 0.000000
# 3 -0.002810 -0.002809 0.009374 0.000000 0.000000 0.000000
# 4 0.000000 0.000000 0.000000 1.850026 0.000000 0.000000
# 5 0.000000 0.000000 0.000000 0.000000 1.851592 0.000000
# 6 0.000000 0.000000 0.000000 0.000000 0.000000 0.055275
#
#
# Mechanical properties :
#
#
# Convention : Reuss Voigt Hill
#
# Bulk Modulus (GPa) = 60.69026 61.99648 61.34337
# Shear Modulus (GPa) = 1.30443 15.65322 8.47882
#
# Velocity S-wave (km/s) = 0.82733 2.86597 2.10930
# Velocity P-wave (km/s) = 5.72354 6.59419 6.17423
#
# Compressibility (1/GPa) = 0.01647711
#
# Stress axis : x y z
#
# Youngs Moduli (GPa) = 58.44633 58.44826 106.68362
#
# Poissons Ratio (x) = 0.46399 0.29975
# Poissons Ratio (y) = 0.46397 0.29972
# Poissons Ratio (z) = 0.16422 0.16421
#
# Static dielectric constant tensor:
#      x y z
#    x 1.679690 0.000000 0.000000 
#    y 0.000000 1.679690 0.000000 
#    z 0.000000 0.000000 1.719320 
# 
# From -- ./inp_files/8511.got.cif
#   From: 2010.05.17/outbox.cif.g08.bks.cpg/sg139_5_cif.got.tgz:8511.got - 2010.05.20 13:14:44.
