data_PCOD9571562
_publ_section_title
;
Structure prediction by ZEFSAII (Michael W. Deem and Ramdas Pophale) SiO2 
 PCOD9571562
Probable space group: I 4/M M M
;
_chemical_formula_sum "Si O2"
_cell_formula_units_Z 176
_cell_length_a 18.377475
_cell_length_b 18.377475
_cell_length_c 28.352592
_cell_angle_alpha 90.000000
_cell_angle_beta 90.000000
_cell_angle_gamma 90.000000
_cell_volume 9575.565902
_symmetry_space_group_name_H-M "I 4/M M M"
_symmetry_group_IT_number 139
_symmetry_cell_setting 'tetragonal'
loop_
_space_group_symop_operation_xyz
x,y,z
-y,x,z
-x,-y,z
y,-x,z
x,-y,-z
-x,y,-z
y,x,-z
-y,-x,-z
-x,-y,-z
y,-x,-z
x,y,-z
-y,x,-z
-x,y,z
x,-y,z
-y,-x,z
y,x,z
1/2+x,1/2+y,1/2+z
1/2-y,1/2+x,1/2+z
1/2-x,1/2-y,1/2+z
1/2+y,1/2-x,1/2+z
1/2+x,1/2-y,1/2-z
1/2-x,1/2+y,1/2-z
1/2+y,1/2+x,1/2-z
1/2-y,1/2-x,1/2-z
1/2-x,1/2-y,1/2-z
1/2+y,1/2-x,1/2-z
1/2+x,1/2+y,1/2-z
1/2-y,1/2+x,1/2-z
1/2-x,1/2+y,1/2+z
1/2+x,1/2-y,1/2+z
1/2-y,1/2-x,1/2+z
1/2+y,1/2+x,1/2+z
loop_
_atom_site_type_symbol
_atom_site_label
_atom_site_fract_x
_atom_site_fract_y
_atom_site_fract_z
Si Si1 0.414905 0.796953 0.141188
Si Si2 0.699840 0.585355 0.597572
Si Si3 0.918722 0.500000 0.556968
Si Si4 0.272619 0.846894 0.186786
Si Si5 0.339774 0.849705 0.055149
Si Si6 0.800178 0.916826 0.727738
O O1 0.500000 0.820556 0.138595
O O2 0.355593 0.846288 0.169183
O O3 0.378209 0.792086 0.089656
O O4 0.413911 0.725285 0.173561
O O5 0.703549 0.500000 0.586495
O O6 0.620445 0.620445 0.592381
O O7 0.728064 0.601728 0.650589
O O8 0.755949 0.633205 0.566319
O O9 0.922025 0.500000 0.500000
O O10 0.878232 0.426079 0.569240
O O11 0.000000 0.500000 0.576149
O O12 0.232555 0.767446 0.182679
O O13 0.258007 0.876002 0.238961
O O14 0.350723 0.835031 0.000000
O O15 0.874734 0.874734 0.734596
O O16 0.803971 0.000000 0.742296
#
# Coordination Sequence:
#
# PCOD9571562 Si02
#       6
#    32  32  16  32  32  32
#     4  10  20  32  51  80 109 139 176 216 260 314
#     4  10  20  34  53  78 106 139 179 222 270 320
#     4   9  16  28  50  74  95 125 163 205 260 310
#     4   9  18  34  56  78 105 144 183 217 259 313
#     4  10  20  35  53  74 104 138 176 222 267 315
#     4  10  20  35  57  82 108 139 175 217 265 316
#
# _framework density 18.380115
#
# number of rings (size 3 to 8) (size 9 to 14) (size 15 to 20)
#    0.000    2.273    0.909    2.182    0.000    4.000 
#    0.000    0.000    2.000    3.273    0.000    1.273 
#    0.000    0.000    0.000    4.000    0.000    0.000 
#
# Total GULP energy -490322.799184 kJ/mol
# GULP energy per Si atom -5571.849991 kJ/mol
# Density = 1.833828 g / cm^3
# Si number density = 18.380115 Si / 1000 Ang^3
#
#
#
# Elastic Constant Matrix: (Units=GPa)
#
#
# Indices 1 2 3 4 5 6 
#
# 1 80.9954 47.9553 26.2832 0.0000 0.0000 0.0000
# 2 47.9553 80.9954 26.2832 0.0000 0.0000 0.0000
# 3 26.2832 26.2832 107.3052 0.0000 0.0000 0.0000
# 4 0.0000 0.0000 0.0000 15.8972 0.0000 0.0000
# 5 0.0000 0.0000 0.0000 0.0000 15.8972 0.0000
# 6 0.0000 0.0000 0.0000 0.0000 0.0000 19.9579
#
#
#
# Elastic Compliance Matrix: (Units=1/GPa)
#
#
# Indices 1 2 3 4 5 6 
#
# 1 0.019441 -0.010826 -0.002110 0.000000 0.000000 0.000000
# 2 -0.010826 0.019441 -0.002110 0.000000 0.000000 0.000000
# 3 -0.002110 -0.002110 0.010353 0.000000 0.000000 0.000000
# 4 0.000000 0.000000 0.000000 0.062904 0.000000 0.000000
# 5 0.000000 0.000000 0.000000 0.000000 0.062904 0.000000
# 6 0.000000 0.000000 0.000000 0.000000 0.000000 0.050105
#
#
# Mechanical properties :
#
#
# Convention : Reuss Voigt Hill
#
# Bulk Modulus (GPa) = 52.23990 52.25994 52.24992
# Shear Modulus (GPa) = 19.11164 21.60208 20.35686
#
# Velocity S-wave (km/s) = 3.22809 3.43198 3.33159
# Velocity P-wave (km/s) = 6.50982 6.64825 6.57940
#
# Compressibility (1/GPa) = 0.01914246
#
# Stress axis : x y z
#
# Youngs Moduli (GPa) = 51.43847 51.43847 96.59088
#
# Poissons Ratio (x) = 0.55685 0.20382
# Poissons Ratio (y) = 0.55685 0.20382
# Poissons Ratio (z) = 0.10854 0.10854
#
# Static dielectric constant tensor:
#      x y z
#    x 1.643400 0.000000 0.000000 
#    y 0.000000 1.643400 0.000000 
#    z 0.000000 0.000000 1.671610 
# 
# From -- ./inp_files/14243.got.cif
#   From: 2010.05.17/outbox.cif.g08.bks.cpg/sg139_8_cif.got.tgz:14243.got - 2010.05.20 13:14:44.
