data_PCOD9571715
_publ_section_title
;
Structure prediction by ZEFSAII (Michael W. Deem and Ramdas Pophale) SiO2 
 PCOD9571715
Probable space group: I 4/M M M
;
_chemical_formula_sum "Si O2"
_cell_formula_units_Z 96
_cell_length_a 22.706658
_cell_length_b 22.706658
_cell_length_c 9.961240
_cell_angle_alpha 90.000000
_cell_angle_beta 90.000000
_cell_angle_gamma 90.000000
_cell_volume 5135.938817
_symmetry_space_group_name_H-M "I 4/M M M"
_symmetry_group_IT_number 139
_symmetry_cell_setting 'tetragonal'
loop_
_space_group_symop_operation_xyz
x,y,z
-y,x,z
-x,-y,z
y,-x,z
x,-y,-z
-x,y,-z
y,x,-z
-y,-x,-z
-x,-y,-z
y,-x,-z
x,y,-z
-y,x,-z
-x,y,z
x,-y,z
-y,-x,z
y,x,z
1/2+x,1/2+y,1/2+z
1/2-y,1/2+x,1/2+z
1/2-x,1/2-y,1/2+z
1/2+y,1/2-x,1/2+z
1/2+x,1/2-y,1/2-z
1/2-x,1/2+y,1/2-z
1/2+y,1/2+x,1/2-z
1/2-y,1/2-x,1/2-z
1/2-x,1/2-y,1/2-z
1/2+y,1/2-x,1/2-z
1/2+x,1/2+y,1/2-z
1/2-y,1/2+x,1/2-z
1/2-x,1/2+y,1/2+z
1/2+x,1/2-y,1/2+z
1/2-y,1/2-x,1/2+z
1/2+y,1/2+x,1/2+z
loop_
_atom_site_type_symbol
_atom_site_label
_atom_site_fract_x
_atom_site_fract_y
_atom_site_fract_z
Si Si1 0.068542 0.753408 0.290516
Si Si2 0.284811 0.715190 0.500000
Si Si3 0.929834 0.070167 0.000000
Si Si4 0.814844 0.354638 0.000000
Si Si5 0.141443 0.141443 0.779057
Si Si6 0.435056 0.197145 0.500000
O O1 0.109558 0.709101 0.372826
O O2 0.098982 0.816570 0.305193
O O3 0.070760 0.736855 0.132811
O O4 0.000000 0.751869 0.331100
O O5 0.295290 0.785707 0.500000
O O6 0.316163 0.683837 0.371483
O O7 0.898681 0.101320 0.125519
O O8 0.000000 0.080661 0.000000
O O9 0.884826 0.351067 0.000000
O O10 0.500000 0.170891 0.500000
#
# Coordination Sequence:
#
# PCOD9571715 Si02
#       6
#    32   8   8  16  16  16
#     4  11  23  38  59  86 122 162 198 244 297 355
#     4  11  22  33  60  91 120 153 188 245 306 357
#     4  10  20  35  58  86 120 164 210 249 282 334
#     4  12  22  38  58  88 122 154 200 248 303 358
#     4  11  20  36  56  87 123 158 198 240 293 360
#     4  10  21  37  58  85 117 157 198 239 298 360
#
# _framework density 18.691811000000001
#
# number of rings (size 3 to 8) (size 9 to 14) (size 15 to 20)
#    0.000    1.083    3.333    4.500    0.000    2.667 
#    0.000    0.000    0.000    2.000    0.000    9.333 
#    0.000    9.333    0.000    0.000    0.000    0.000 
#
# Total GULP energy -268182.237951 kJ/mol
# GULP energy per Si atom -5587.129957 kJ/mol
# Density = 1.864927 g / cm^3
# Si number density = 18.691811 Si / 1000 Ang^3
#
#
#
# Elastic Constant Matrix: (Units=GPa)
#
#
# Indices 1 2 3 4 5 6 
#
# 1 140.5178 96.4176 27.0494 0.0000 0.0000 0.0000
# 2 96.4176 140.5183 27.0497 0.0000 0.0000 0.0000
# 3 27.0494 27.0497 59.2237 0.0000 0.0000 0.0000
# 4 0.0000 0.0000 0.0000 -29.1924 0.0000 0.0000
# 5 0.0000 0.0000 0.0000 0.0000 -29.2049 0.0000
# 6 0.0000 0.0000 0.0000 0.0000 0.0000 34.9726
#
#
#
# Elastic Compliance Matrix: (Units=1/GPa)
#
#
# Indices 1 2 3 4 5 6 
#
# 1 0.013694 -0.008982 -0.002152 0.000000 0.000000 0.000000
# 2 -0.008982 0.013694 -0.002152 0.000000 0.000000 0.000000
# 3 -0.002152 -0.002152 0.018851 0.000000 0.000000 0.000000
# 4 0.000000 0.000000 0.000000 -0.034255 0.000000 0.000000
# 5 0.000000 0.000000 0.000000 0.000000 -0.034241 0.000000
# 6 0.000000 0.000000 0.000000 0.000000 0.000000 0.028594
#
#
# Mechanical properties :
#
#
# Convention : Reuss Voigt Hill
#
# Bulk Modulus (GPa) = 50.84798 71.25480 61.05139
# Shear Modulus (GPa) = 126.69930 7.96459 67.33194
#
# Velocity S-wave (km/s) = 8.24199 2.06646 6.00836
# Velocity P-wave (km/s) = 10.85525 6.62550 8.99260
#
# Compressibility (1/GPa) = 0.01966646
#
# Stress axis : x y z
#
# Youngs Moduli (GPa) = 73.02606 73.02618 53.04757
#
# Poissons Ratio (x) = 0.65591 0.11416
# Poissons Ratio (y) = 0.65590 0.11417
# Poissons Ratio (z) = 0.15716 0.15716
#
# Static dielectric constant tensor:
#      x y z
#    x 1.640670 0.000000 0.000000 
#    y 0.000000 1.640670 0.000000 
#    z 0.000000 0.000000 1.740350 
# 
# From -- ./inp_files/3101.got.cif
#   From: 2010.05.17/outbox.cif.g08.bks.cpg/sg139_2_cif.got.tgz:3101.got - 2010.05.20 13:14:44.
