data_PCOD9571403
_publ_section_title
;
Structure prediction by ZEFSAII (Michael W. Deem and Ramdas Pophale) SiO2 
 PCOD9571403
Probable space group: I 4/M M M
;
_chemical_formula_sum "Si O2"
_cell_formula_units_Z 144
_cell_length_a 22.583175
_cell_length_b 22.583175
_cell_length_c 17.772637
_cell_angle_alpha 90.000000
_cell_angle_beta 90.000000
_cell_angle_gamma 90.000000
_cell_volume 9064.041192
_symmetry_space_group_name_H-M "I 4/M M M"
_symmetry_group_IT_number 139
_symmetry_cell_setting 'tetragonal'
loop_
_space_group_symop_operation_xyz
x,y,z
-y,x,z
-x,-y,z
y,-x,z
x,-y,-z
-x,y,-z
y,x,-z
-y,-x,-z
-x,-y,-z
y,-x,-z
x,y,-z
-y,x,-z
-x,y,z
x,-y,z
-y,-x,z
y,x,z
1/2+x,1/2+y,1/2+z
1/2-y,1/2+x,1/2+z
1/2-x,1/2-y,1/2+z
1/2+y,1/2-x,1/2+z
1/2+x,1/2-y,1/2-z
1/2-x,1/2+y,1/2-z
1/2+y,1/2+x,1/2-z
1/2-y,1/2-x,1/2-z
1/2-x,1/2-y,1/2-z
1/2+y,1/2-x,1/2-z
1/2+x,1/2+y,1/2-z
1/2-y,1/2+x,1/2-z
1/2-x,1/2+y,1/2+z
1/2+x,1/2-y,1/2+z
1/2-y,1/2-x,1/2+z
1/2+y,1/2+x,1/2+z
loop_
_atom_site_type_symbol
_atom_site_label
_atom_site_fract_x
_atom_site_fract_y
_atom_site_fract_z
Si Si1 0.291958 0.931013 0.230147
Si Si2 0.896360 0.204328 0.000000
Si Si3 0.201298 0.301355 0.000000
Si Si4 0.666864 0.566776 0.337449
Si Si5 0.068273 0.570808 0.000000
Si Si6 0.125688 0.349157 0.627383
O O1 0.222013 0.920963 0.217782
O O2 0.316151 0.916076 0.313001
O O3 0.326835 0.887329 0.174428
O O4 0.303502 0.000000 0.212193
O O5 0.861378 0.265942 0.000000
O O6 0.930359 0.193929 0.922250
O O7 0.845401 0.154600 0.000000
O O8 0.198156 0.341281 0.074246
O O9 0.254288 0.254288 0.000000
O O10 0.644777 0.500000 0.324595
O O11 0.615663 0.615663 0.331254
O O12 0.104899 0.592714 0.927557
O O13 0.066880 0.500000 0.000000
O O14 0.000000 0.592528 0.000000
#
# Coordination Sequence:
#
# PCOD9571403 Si02
#       6
#    32  16  16  32  16  32
#     4  10  20  33  49  71  99 128 161 202 247 294
#     4   9  16  30  47  68  96 125 159 197 238 283
#     4  10  19  32  49  72  98 125 160 200 243 288
#     4  10  20  33  50  72  99 132 167 204 247 294
#     4  10  20  34  51  70  94 127 166 205 244 287
#     4  10  20  33  50  72  96 127 164 202 246 293
#
# _framework density 15.886953
#
# number of rings (size 3 to 8) (size 9 to 14) (size 15 to 20)
#    0.000    2.111    2.222    1.667    0.000    1.111 
#    0.000    2.222    0.000    7.333    0.000    0.000 
#    0.000    0.000    0.000    0.000    0.000   45.111 
#
# Total GULP energy -401371.166043 kJ/mol
# GULP energy per Si atom -5574.599528 kJ/mol
# Density = 1.585079 g / cm^3
# Si number density = 15.886953 Si / 1000 Ang^3
#
#
#
# Elastic Constant Matrix: (Units=GPa)
#
#
# Indices 1 2 3 4 5 6 
#
# 1 66.3013 33.5452 32.8439 0.0000 0.0000 0.0000
# 2 33.5452 66.3012 32.8435 0.0000 0.0000 0.0000
# 3 32.8439 32.8435 92.7450 0.0000 0.0000 0.0000
# 4 0.0000 0.0000 0.0000 10.4215 0.0000 0.0000
# 5 0.0000 0.0000 0.0000 0.0000 10.4206 0.0000
# 6 0.0000 0.0000 0.0000 0.0000 0.0000 28.3306
#
#
#
# Elastic Compliance Matrix: (Units=1/GPa)
#
#
# Indices 1 2 3 4 5 6 
#
# 1 0.021793 -0.008736 -0.004624 0.000000 0.000000 0.000000
# 2 -0.008736 0.021793 -0.004624 0.000000 0.000000 0.000000
# 3 -0.004624 -0.004624 0.014057 0.000000 0.000000 0.000000
# 4 0.000000 0.000000 0.000000 0.095955 0.000000 0.000000
# 5 0.000000 0.000000 0.000000 0.000000 0.095964 0.000000
# 6 0.000000 0.000000 0.000000 0.000000 0.000000 0.035297
#
#
# Mechanical properties :
#
#
# Convention : Reuss Voigt Hill
#
# Bulk Modulus (GPa) = 46.13383 47.09029 46.61206
# Shear Modulus (GPa) = 15.24144 18.24220 16.74182
#
# Velocity S-wave (km/s) = 3.10073 3.39226 3.24976
# Velocity P-wave (km/s) = 6.47466 6.71181 6.59430
#
# Compressibility (1/GPa) = 0.02167607
#
# Stress axis : x y z
#
# Youngs Moduli (GPa) = 45.88605 45.88615 71.13760
#
# Poissons Ratio (x) = 0.40084 0.32895
# Poissons Ratio (y) = 0.40084 0.32894
# Poissons Ratio (z) = 0.21218 0.21218
#
# Static dielectric constant tensor:
#      x y z
#    x 1.519640 0.000000 0.000000 
#    y 0.000000 1.519640 0.000000 
#    z 0.000000 0.000000 1.535170 
# 
# From -- ./inp_files/8268.got.cif
#   From: 2010.05.17/outbox.cif.g08.bks.cpg/sg139_5_cif.got.tgz:8268.got - 2010.05.20 13:14:44.
