data_PCOD9571874
_publ_section_title
;
Structure prediction by ZEFSAII (Michael W. Deem and Ramdas Pophale) SiO2 
 PCOD9571874
Probable space group: I 4/M M M
;
_chemical_formula_sum "Si O2"
_cell_formula_units_Z 144
_cell_length_a 23.191878
_cell_length_b 23.191878
_cell_length_c 14.076546
_cell_angle_alpha 90.000000
_cell_angle_beta 90.000000
_cell_angle_gamma 90.000000
_cell_volume 7571.256149
_symmetry_space_group_name_H-M "I 4/M M M"
_symmetry_group_IT_number 139
_symmetry_cell_setting 'tetragonal'
loop_
_space_group_symop_operation_xyz
x,y,z
-y,x,z
-x,-y,z
y,-x,z
x,-y,-z
-x,y,-z
y,x,-z
-y,-x,-z
-x,-y,-z
y,-x,-z
x,y,-z
-y,x,-z
-x,y,z
x,-y,z
-y,-x,z
y,x,z
1/2+x,1/2+y,1/2+z
1/2-y,1/2+x,1/2+z
1/2-x,1/2-y,1/2+z
1/2+y,1/2-x,1/2+z
1/2+x,1/2-y,1/2-z
1/2-x,1/2+y,1/2-z
1/2+y,1/2+x,1/2-z
1/2-y,1/2-x,1/2-z
1/2-x,1/2-y,1/2-z
1/2+y,1/2-x,1/2-z
1/2+x,1/2+y,1/2-z
1/2-y,1/2+x,1/2-z
1/2-x,1/2+y,1/2+z
1/2+x,1/2-y,1/2+z
1/2-y,1/2-x,1/2+z
1/2+y,1/2+x,1/2+z
loop_
_atom_site_type_symbol
_atom_site_label
_atom_site_fract_x
_atom_site_fract_y
_atom_site_fract_z
Si Si1 0.433036 0.000000 0.384106
Si Si2 0.568600 0.266599 0.891022
Si Si3 0.716345 0.065527 0.114487
Si Si4 0.067468 0.161219 0.790188
Si Si5 0.358261 0.890114 0.615888
O O1 0.397917 0.056375 0.353544
O O2 0.500000 0.000000 0.356072
O O3 0.432820 0.000000 0.500000
O O4 0.500000 0.253075 0.888819
O O5 0.577976 0.318266 0.818232
O O6 0.600600 0.208383 0.858897
O O7 0.583952 0.279981 0.000000
O O8 0.780623 0.077984 0.149780
O O9 0.668774 0.111344 0.146887
O O10 0.701484 0.000000 0.146167
O O11 0.715753 0.065447 0.000000
O O12 0.109849 0.109849 0.816357
O O13 0.000000 0.145934 0.800718
O O14 0.358630 0.890851 0.500000
#
# Coordination Sequence:
#
# PCOD9571874 Si02
#       5
#    16  32  32  32  32
#     4   9  14  20  38  72 108 140 184 232 256 277
#     4   9  17  32  53  77 107 143 178 212 254 306
#     4   9  18  33  52  76 109 146 179 213 255 304
#     4  10  22  39  59  81 100 127 166 213 273 333
#     4   9  15  26  46  74 106 145 186 217 250 289
#
# _framework density 19.019300999999999
#
# number of rings (size 3 to 8) (size 9 to 14) (size 15 to 20)
#    0.000    2.778    1.111    0.667    0.000    4.667 
#    0.000    2.222    0.000    4.000    0.000    6.222 
#    0.000    0.000    0.000    0.000    0.000    0.000 
#
# Total GULP energy -401957.324609 kJ/mol
# GULP energy per Si atom -5582.740620 kJ/mol
# Density = 1.897601 g / cm^3
# Si number density = 19.019301 Si / 1000 Ang^3
#
#
#
# Elastic Constant Matrix: (Units=GPa)
#
#
# Indices 1 2 3 4 5 6 
#
# 1 84.3487 69.9032 -5.5493 0.0000 0.0000 0.0000
# 2 69.9032 84.3487 -5.5493 0.0000 0.0000 0.0000
# 3 -5.5493 -5.5493 31.5633 0.0000 0.0000 0.0000
# 4 0.0000 0.0000 0.0000 15.5729 0.0000 0.0000
# 5 0.0000 0.0000 0.0000 0.0000 15.5729 0.0000
# 6 0.0000 0.0000 0.0000 0.0000 0.0000 39.2460
#
#
#
# Elastic Compliance Matrix: (Units=1/GPa)
#
#
# Indices 1 2 3 4 5 6 
#
# 1 0.037896 -0.031330 0.001154 0.000000 0.000000 0.000000
# 2 -0.031330 0.037896 0.001154 0.000000 0.000000 0.000000
# 3 0.001154 0.001154 0.032088 0.000000 0.000000 0.000000
# 4 0.000000 0.000000 0.000000 0.064214 0.000000 0.000000
# 5 0.000000 0.000000 0.000000 0.000000 0.064214 0.000000
# 6 0.000000 0.000000 0.000000 0.000000 0.000000 0.025480
#
#
# Mechanical properties :
#
#
# Convention : Reuss Voigt Hill
#
# Bulk Modulus (GPa) = 20.06508 35.31886 27.69197
# Shear Modulus (GPa) = 14.86135 23.50877 19.18506
#
# Velocity S-wave (km/s) = 2.79835 3.51956 3.17947
# Velocity P-wave (km/s) = 4.58408 5.92678 5.29814
#
# Compressibility (1/GPa) = 0.04983782
#
# Stress axis : x y z
#
# Youngs Moduli (GPa) = 26.38810 26.38810 31.16402
#
# Poissons Ratio (x) = 0.82674 -0.03598
# Poissons Ratio (y) = 0.82674 -0.03598
# Poissons Ratio (z) = -0.03046 -0.03046
#
# Static dielectric constant tensor:
#      x y z
#    x 1.628180 0.000000 0.000000 
#    y 0.000000 1.628180 0.000000 
#    z 0.000000 0.000000 1.745100 
# 
# From -- ./inp_files/8196.got.cif
#   From: 2010.05.17/outbox.cif.g08.bks.cpg/sg139_5_cif.got.tgz:8196.got - 2010.05.20 13:14:44.
