data_PCOD9571535
_publ_section_title
;
Structure prediction by ZEFSAII (Michael W. Deem and Ramdas Pophale) SiO2 
 PCOD9571535
Probable space group: I 4/M M M
;
_chemical_formula_sum "Si O2"
_cell_formula_units_Z 160
_cell_length_a 17.701208
_cell_length_b 17.701208
_cell_length_c 25.704022
_cell_angle_alpha 90.000000
_cell_angle_beta 90.000000
_cell_angle_gamma 90.000000
_cell_volume 8053.912276
_symmetry_space_group_name_H-M "I 4/M M M"
_symmetry_group_IT_number 139
_symmetry_cell_setting 'tetragonal'
loop_
_space_group_symop_operation_xyz
x,y,z
-y,x,z
-x,-y,z
y,-x,z
x,-y,-z
-x,y,-z
y,x,-z
-y,-x,-z
-x,-y,-z
y,-x,-z
x,y,-z
-y,x,-z
-x,y,z
x,-y,z
-y,-x,z
y,x,z
1/2+x,1/2+y,1/2+z
1/2-y,1/2+x,1/2+z
1/2-x,1/2-y,1/2+z
1/2+y,1/2-x,1/2+z
1/2+x,1/2-y,1/2-z
1/2-x,1/2+y,1/2-z
1/2+y,1/2+x,1/2-z
1/2-y,1/2-x,1/2-z
1/2-x,1/2-y,1/2-z
1/2+y,1/2-x,1/2-z
1/2+x,1/2+y,1/2-z
1/2-y,1/2+x,1/2-z
1/2-x,1/2+y,1/2+z
1/2+x,1/2-y,1/2+z
1/2-y,1/2-x,1/2+z
1/2+y,1/2+x,1/2+z
loop_
_atom_site_type_symbol
_atom_site_label
_atom_site_fract_x
_atom_site_fract_y
_atom_site_fract_z
Si Si1 0.415056 0.584945 0.572687
Si Si2 0.169342 0.408915 0.390444
Si Si3 0.804292 0.195709 0.087851
Si Si4 0.587046 0.587046 0.301616
Si Si5 0.810802 0.810802 0.731098
Si Si6 0.184250 0.184250 0.440454
Si Si7 0.730404 0.911361 0.645522
Si Si8 0.589949 0.086833 0.500000
O O1 0.397220 0.500000 0.557762
O O2 0.356074 0.643927 0.553157
O O3 0.411262 0.588739 0.635681
O O4 0.173677 0.500000 0.381872
O O5 0.248879 0.364600 0.383658
O O6 0.112514 0.357903 0.356704
O O7 0.136160 0.394637 0.448676
O O8 0.748407 0.251593 0.059061
O O9 0.500000 0.603664 0.286218
O O10 0.644715 0.644715 0.275806
O O11 0.750000 0.750000 0.750000
O O12 0.768126 0.870253 0.694280
O O13 0.164161 0.164161 0.500000
O O14 0.119234 0.223853 0.405483
O O15 0.737525 0.000000 0.648397
O O16 0.500000 0.077088 0.500000
O O17 0.622217 0.000000 0.500000
#
# Coordination Sequence:
#
# PCOD9571535 Si02
#       8
#    16  32  16  16  16  16  32  16
#     4   9  18  33  55  84 112 144 192 249 305 356
#     4  10  21  35  55  82 117 158 199 249 299 347
#     4  10  20  31  51  79 115 152 193 246 293 356
#     4   9  19  36  64  92 111 142 192 247 298 356
#     4  11  24  41  61  88 125 160 193 244 308 371
#     4   9  21  37  57  89 123 158 200 243 301 369
#     4  10  22  39  61  89 120 158 204 251 303 367
#     4   9  18  33  52  78 109 146 194 239 281 335
#
# _framework density 19.866121
#
# number of rings (size 3 to 8) (size 9 to 14) (size 15 to 20)
#    0.000    2.300    0.000    3.000   11.200    1.600 
#    0.000    1.000    0.000    2.700    0.000    3.500 
#    0.000    0.000    0.000    0.000    0.000    0.000 
#
# Total GULP energy -446049.909274 kJ/mol
# GULP energy per Si atom -5575.623866 kJ/mol
# Density = 1.982090 g / cm^3
# Si number density = 19.866121 Si / 1000 Ang^3
#
#
#
# Elastic Constant Matrix: (Units=GPa)
#
#
# Indices 1 2 3 4 5 6 
#
# 1 174.8721 64.9936 52.3085 0.0000 0.0000 0.0000
# 2 64.9936 174.8721 52.3085 0.0000 0.0000 0.0000
# 3 52.3085 52.3085 96.0272 0.0000 0.0000 0.0000
# 4 0.0000 0.0000 0.0000 60.6112 0.0000 0.0000
# 5 0.0000 0.0000 0.0000 0.0000 60.6112 0.0000
# 6 0.0000 0.0000 0.0000 0.0000 0.0000 32.5317
#
#
#
# Elastic Compliance Matrix: (Units=1/GPa)
#
#
# Indices 1 2 3 4 5 6 
#
# 1 0.007285 -0.001816 -0.002979 0.000000 0.000000 0.000000
# 2 -0.001816 0.007285 -0.002979 0.000000 0.000000 0.000000
# 3 -0.002979 -0.002979 0.013659 0.000000 0.000000 0.000000
# 4 0.000000 0.000000 0.000000 0.016499 0.000000 0.000000
# 5 0.000000 0.000000 0.000000 0.000000 0.016499 0.000000
# 6 0.000000 0.000000 0.000000 0.000000 0.000000 0.030739
#
#
# Mechanical properties :
#
#
# Convention : Reuss Voigt Hill
#
# Bulk Modulus (GPa) = 78.86113 87.22141 83.04127
# Shear Modulus (GPa) = 44.74732 49.16152 46.95442
#
# Velocity S-wave (km/s) = 4.75114 4.97997 4.86690
# Velocity P-wave (km/s) = 8.35944 8.77877 8.57167
#
# Compressibility (1/GPa) = 0.01268052
#
# Stress axis : x y z
#
# Youngs Moduli (GPa) = 137.27697 137.27697 73.21292
#
# Poissons Ratio (x) = 0.24935 0.21807
# Poissons Ratio (y) = 0.24935 0.21807
# Poissons Ratio (z) = 0.40890 0.40890
#
# Static dielectric constant tensor:
#      x y z
#    x 1.712050 0.000000 0.000000 
#    y 0.000000 1.712050 0.000000 
#    z 0.000000 0.000000 1.752110 
# 
# From -- ./inp_files/13069.got.cif
#   From: 2010.05.17/outbox.cif.g08.bks.cpg/sg139_7_cif.got.tgz:13069.got - 2010.05.20 13:14:44.
