data_PCOD9571168
_publ_section_title
;
Structure prediction by ZEFSAII (Michael W. Deem and Ramdas Pophale) SiO2 
 PCOD9571168
Probable space group: I 4/M M M
;
_chemical_formula_sum "Si O2"
_cell_formula_units_Z 144
_cell_length_a 21.921285
_cell_length_b 21.921285
_cell_length_c 20.006111
_cell_angle_alpha 90.000000
_cell_angle_beta 90.000000
_cell_angle_gamma 90.000000
_cell_volume 9613.791318
_symmetry_space_group_name_H-M "I 4/M M M"
_symmetry_group_IT_number 139
_symmetry_cell_setting 'tetragonal'
loop_
_space_group_symop_operation_xyz
x,y,z
-y,x,z
-x,-y,z
y,-x,z
x,-y,-z
-x,y,-z
y,x,-z
-y,-x,-z
-x,-y,-z
y,-x,-z
x,y,-z
-y,x,-z
-x,y,z
x,-y,z
-y,-x,z
y,x,z
1/2+x,1/2+y,1/2+z
1/2-y,1/2+x,1/2+z
1/2-x,1/2-y,1/2+z
1/2+y,1/2-x,1/2+z
1/2+x,1/2-y,1/2-z
1/2-x,1/2+y,1/2-z
1/2+y,1/2+x,1/2-z
1/2-y,1/2-x,1/2-z
1/2-x,1/2-y,1/2-z
1/2+y,1/2-x,1/2-z
1/2+x,1/2+y,1/2-z
1/2-y,1/2+x,1/2-z
1/2-x,1/2+y,1/2+z
1/2+x,1/2-y,1/2+z
1/2-y,1/2-x,1/2+z
1/2+y,1/2+x,1/2+z
loop_
_atom_site_type_symbol
_atom_site_label
_atom_site_fract_x
_atom_site_fract_y
_atom_site_fract_z
Si Si1 0.569788 0.150009 0.197489
Si Si2 0.428575 0.249111 0.628151
Si Si3 0.746639 0.650478 0.760654
Si Si4 0.170203 0.927684 0.000000
Si Si5 0.890945 0.570798 0.578864
O O1 0.500000 0.155699 0.220858
O O2 0.608344 0.108344 0.250000
O O3 0.602557 0.215939 0.193838
O O4 0.572599 0.115592 0.126983
O O5 0.500000 0.259564 0.645065
O O6 0.385288 0.261119 0.690848
O O7 0.411646 0.291462 0.565870
O O8 0.423688 0.179374 0.602910
O O9 0.683993 0.683993 0.782035
O O10 0.795281 0.704720 0.750000
O O11 0.107362 0.892639 0.000000
O O12 0.162339 0.000000 0.000000
O O13 0.895526 0.584078 0.500000
O O14 0.909290 0.500000 0.588724
#
# Coordination Sequence:
#
# PCOD9571168 Si02
#       5
#    32  32  32  16  32
#     4  11  21  33  50  71  96 126 161 199 242 286
#     4  10  17  30  48  67  93 123 160 201 237 280
#     4  10  19  30  46  67  92 120 156 201 242 276
#     4  10  20  31  48  70  93 127 165 201 244 288
#     4  10  19  32  48  68  98 130 158 196 236 275
#
# _framework density 14.978482
#
# number of rings (size 3 to 8) (size 9 to 14) (size 15 to 20)
#    0.000    1.778    5.556    2.000    0.000    2.111 
#    0.000    1.111    0.000    0.000    0.000    0.000 
#    0.000    4.000    0.000    0.000    0.000    0.000 
#
# Total GULP energy -401297.875752 kJ/mol
# GULP energy per Si atom -5573.581608 kJ/mol
# Density = 1.494439 g / cm^3
# Si number density = 14.978482 Si / 1000 Ang^3
#
#
#
# Elastic Constant Matrix: (Units=GPa)
#
#
# Indices 1 2 3 4 5 6 
#
# 1 39.8641 57.0653 29.9341 0.0000 0.0000 0.0000
# 2 57.0653 39.8344 29.9257 0.0000 0.0000 0.0000
# 3 29.9341 29.9257 66.4721 0.0000 0.0000 0.0000
# 4 0.0000 0.0000 0.0000 50.4881 0.0000 0.0000
# 5 0.0000 0.0000 0.0000 0.0000 50.4259 0.0000
# 6 0.0000 0.0000 0.0000 0.0000 0.0000 18.8668
#
#
#
# Elastic Compliance Matrix: (Units=1/GPa)
#
#
# Indices 1 2 3 4 5 6 
#
# 1 -0.021887 0.036189 -0.006436 0.000000 0.000000 0.000000
# 2 0.036189 -0.021905 -0.006435 0.000000 0.000000 0.000000
# 3 -0.006436 -0.006435 0.020840 0.000000 0.000000 0.000000
# 4 0.000000 0.000000 0.000000 0.019807 0.000000 0.000000
# 5 0.000000 0.000000 0.000000 0.000000 0.019831 0.000000
# 6 0.000000 0.000000 0.000000 0.000000 0.000000 0.053003
#
#
# Mechanical properties :
#
#
# Convention : Reuss Voigt Hill
#
# Bulk Modulus (GPa) = 42.22399 42.22452 42.22426
# Shear Modulus (GPa) = 161.56428 25.90585 93.73506
#
# Velocity S-wave (km/s) = 10.39704 4.16328 7.91932
# Velocity P-wave (km/s) = 13.12944 7.16672 10.57696
#
# Compressibility (1/GPa) = 0.02368322
#
# Stress axis : x y z
#
# Youngs Moduli (GPa) = -45.68969 -45.65148 47.98572
#
# Poissons Ratio (x) = 1.65210 0.30885
# Poissons Ratio (y) = 1.65348 0.30881
# Poissons Ratio (z) = -0.29407 -0.29379
#
# Static dielectric constant tensor:
#      x y z
#    x 1.504160 0.000000 0.000000 
#    y 0.000000 1.504160 0.000000 
#    z 0.000000 0.000000 1.496880 
# 
# From -- ./inp_files/10221.got.cif
#   From: 2010.05.17/outbox.cif.g08.bks.cpg/sg139_6_cif.got.tgz:10221.got - 2010.05.20 13:14:44.
