data_PCOD9571442
_publ_section_title
;
Structure prediction by ZEFSAII (Michael W. Deem and Ramdas Pophale) SiO2 
 PCOD9571442
Probable space group: I 4/M M M
;
_chemical_formula_sum "Si O2"
_cell_formula_units_Z 240
_cell_length_a 28.731678
_cell_length_b 28.731678
_cell_length_c 13.329731
_cell_angle_alpha 90.000000
_cell_angle_beta 90.000000
_cell_angle_gamma 90.000000
_cell_volume 11003.817183
_symmetry_space_group_name_H-M "I 4/M M M"
_symmetry_group_IT_number 139
_symmetry_cell_setting 'tetragonal'
loop_
_space_group_symop_operation_xyz
x,y,z
-y,x,z
-x,-y,z
y,-x,z
x,-y,-z
-x,y,-z
y,x,-z
-y,-x,-z
-x,-y,-z
y,-x,-z
x,y,-z
-y,x,-z
-x,y,z
x,-y,z
-y,-x,z
y,x,z
1/2+x,1/2+y,1/2+z
1/2-y,1/2+x,1/2+z
1/2-x,1/2-y,1/2+z
1/2+y,1/2-x,1/2+z
1/2+x,1/2-y,1/2-z
1/2-x,1/2+y,1/2-z
1/2+y,1/2+x,1/2-z
1/2-y,1/2-x,1/2-z
1/2-x,1/2-y,1/2-z
1/2+y,1/2-x,1/2-z
1/2+x,1/2+y,1/2-z
1/2-y,1/2+x,1/2-z
1/2-x,1/2+y,1/2+z
1/2+x,1/2-y,1/2+z
1/2-y,1/2-x,1/2+z
1/2+y,1/2+x,1/2+z
loop_
_atom_site_type_symbol
_atom_site_label
_atom_site_fract_x
_atom_site_fract_y
_atom_site_fract_z
Si Si1 0.550970 0.630312 0.500000
Si Si2 0.590901 0.335702 0.303284
Si Si3 0.653563 0.074551 0.617923
Si Si4 0.669421 0.204257 0.881407
Si Si5 0.699970 0.379891 0.115190
Si Si6 0.859083 0.749815 0.118533
Si Si7 0.449740 0.915596 0.619553
Si Si8 0.449881 0.807345 0.321118
O O1 0.500000 0.608545 0.500000
O O2 0.592294 0.592294 0.500000
O O3 0.557080 0.660151 0.602024
O O4 0.613683 0.386318 0.288363
O O5 0.580052 0.315001 0.193574
O O6 0.631043 0.300119 0.338257
O O7 0.660329 0.062639 0.500000
O O8 0.664496 0.129743 0.627976
O O9 0.600369 0.064132 0.650402
O O10 0.687058 0.052443 0.700352
O O11 0.645463 0.252437 0.850184
O O12 0.717740 0.183188 0.842358
O O13 0.677343 0.211684 0.000000
O O14 0.659349 0.340652 0.116096
O O15 0.706255 0.395520 0.000000
O O16 0.906455 0.721270 0.139505
O O17 0.852707 0.754829 0.000000
O O18 0.450269 0.923198 0.500000
O O19 0.500000 0.932545 0.658946
O O20 0.447434 0.860066 0.637367
O O21 0.500000 0.787362 0.350633
#
# Coordination Sequence:
#
# PCOD9571442 Si02
#       8
#    16  32  32  32  32  32  32  32
#     4  10  22  43  68  96 128 162 204 250 303 367
#     4  10  21  37  58  84 119 161 196 238 295 348
#     4  10  19  33  50  66  92 129 167 212 275 338
#     4   9  18  31  49  72 102 144 193 242 283 331
#     4   9  18  33  53  81 117 159 207 246 276 322
#     4  11  21  34  52  77 109 147 190 237 294 349
#     4   9  17  30  48  70  92 115 152 205 264 326
#     4  11  22  32  47  71  96 126 166 216 272 336
#
# _framework density 21.810614000000001
#
# number of rings (size 3 to 8) (size 9 to 14) (size 15 to 20)
#    0.000    2.133    2.000    1.600    0.000    3.800 
#    0.000    2.667    0.000    0.800    0.000    3.733 
#    0.000    0.000    0.000    6.667    0.000    0.000 
#
# Total GULP energy -669443.561146 kJ/mol
# GULP energy per Si atom -5578.696343 kJ/mol
# Density = 2.176097 g / cm^3
# Si number density = 21.810614 Si / 1000 Ang^3
#
#
#
# Elastic Constant Matrix: (Units=GPa)
#
#
# Indices 1 2 3 4 5 6 
#
# 1 43.8110 -3.8651 6.8102 0.0000 0.0000 0.0000
# 2 -3.8651 43.8110 6.8102 0.0000 0.0000 0.0000
# 3 6.8102 6.8102 98.2479 0.0000 0.0000 0.0000
# 4 0.0000 0.0000 0.0000 8.3496 0.0000 0.0000
# 5 0.0000 0.0000 0.0000 0.0000 8.3496 0.0000
# 6 0.0000 0.0000 0.0000 0.0000 0.0000 1.9894
#
#
#
# Elastic Compliance Matrix: (Units=1/GPa)
#
#
# Indices 1 2 3 4 5 6 
#
# 1 0.023307 0.002332 -0.001777 0.000000 0.000000 0.000000
# 2 0.002332 0.023307 -0.001777 0.000000 0.000000 0.000000
# 3 -0.001777 -0.001777 0.010425 0.000000 0.000000 0.000000
# 4 0.000000 0.000000 0.000000 0.119767 0.000000 0.000000
# 5 0.000000 0.000000 0.000000 0.000000 0.119767 0.000000
# 6 0.000000 0.000000 0.000000 0.000000 0.000000 0.502662
#
#
# Mechanical properties :
#
#
# Convention : Reuss Voigt Hill
#
# Bulk Modulus (GPa) = 18.31660 22.82008 20.56834
# Shear Modulus (GPa) = 6.09847 15.47868 10.78858
#
# Velocity S-wave (km/s) = 1.67397 2.66688 2.22648
# Velocity P-wave (km/s) = 3.48604 4.46862 4.00756
#
# Compressibility (1/GPa) = 0.05459528
#
# Stress axis : x y z
#
# Youngs Moduli (GPa) = 42.90493 42.90493 95.92579
#
# Poissons Ratio (x) = -0.10007 0.17049
# Poissons Ratio (y) = -0.10007 0.17049
# Poissons Ratio (z) = 0.07625 0.07625
#
# Static dielectric constant tensor:
#      x y z
#    x 1.799660 0.000000 0.000000 
#    y 0.000000 1.799660 0.000000 
#    z 0.000000 0.000000 1.890750 
# 
# From -- ./inp_files/6813.got.cif
#   From: 2010.05.17/outbox.cif.g08.bks.cpg/sg139_4_cif.got.tgz:6813.got - 2010.05.20 13:14:44.
