data_PCOD9571130
_publ_section_title
;
Structure prediction by ZEFSAII (Michael W. Deem and Ramdas Pophale) SiO2 
 PCOD9571130
Probable space group: P 42/N C M
;
_chemical_formula_sum "Si O2"
_cell_formula_units_Z 96
_cell_length_a 19.990358
_cell_length_b 19.990358
_cell_length_c 10.303556
_cell_angle_alpha 90.000000
_cell_angle_beta 90.000000
_cell_angle_gamma 90.000000
_cell_volume 4117.449482
_symmetry_space_group_name_H-M "P 42/N C M"
_symmetry_group_IT_number 138
_space_group.IT_coordinate_system_code '2'
_symmetry_cell_setting 'tetragonal'
loop_
_space_group_symop_operation_xyz
x,y,z
1/2-y,x,1/2+z
1/2-x,1/2-y,z
y,1/2-x,1/2+z
1/2+x,-y,1/2-z
-x,1/2+y,1/2-z
1/2+y,1/2+x,-z
-y,-x,-z
-x,-y,-z
1/2+y,-x,1/2-z
1/2+x,1/2+y,-z
-y,1/2+x,1/2-z
1/2-x,y,1/2+z
x,1/2-y,1/2+z
1/2-y,1/2-x,z
y,x,z
loop_
_atom_site_type_symbol
_atom_site_label
_atom_site_fract_x
_atom_site_fract_y
_atom_site_fract_z
Si Si1 0.189881 0.083945 0.152017
Si Si2 0.820431 0.427669 0.658591
Si Si3 0.051385 0.739511 0.401566
Si Si4 0.304217 0.088388 0.357018
Si Si5 0.627412 0.523927 0.485477
Si Si6 0.957042 0.060996 0.273324
O O1 0.120743 0.120743 0.178300
O O2 0.185923 0.003657 0.145361
O O3 0.210657 0.105761 0.006445
O O4 0.243545 0.102679 0.260624
O O5 0.788234 0.406900 0.522079
O O6 0.819080 0.509300 0.651758
O O7 0.897280 0.409384 0.685924
O O8 0.773018 0.410491 0.781097
O O9 0.001533 0.798365 0.455539
O O10 0.369128 0.130873 0.318950
O O11 0.600322 0.600322 0.480229
O O12 0.584589 0.484331 0.377719
O O13 0.608713 0.496332 0.627133
O O14 0.010127 0.010127 0.207471
#
# Coordination Sequence:
#
# PCOD9571130 Si02
#       6
#    16  16  16  16  16  16
#     4   9  18  29  38  50  70 100 137 170 201 236
#     4   9  16  27  42  61  82 106 134 165 207 255
#     4   9  17  28  42  60  83 110 138 171 210 251
#     4   9  17  28  39  51  70  97 131 171 207 235
#     4   8  14  25  42  64  85 106 140 187 228 254
#     4   8  13  23  43  67  84 102 139 189 227 253
#
# _framework density 23.315404000000001
#
# number of rings (size 3 to 8) (size 9 to 14) (size 15 to 20)
#    0.000    3.333    0.000    1.500    0.000    5.667 
#    0.000    8.333    0.000    1.000    0.000    2.333 
#    0.000    0.667    0.000    8.333    0.000    0.000 
#
# Total GULP energy -536016.484403 kJ/mol
# GULP energy per Si atom -5583.505046 kJ/mol
# Density = 2.326234 g / cm^3
# Si number density = 23.315404 Si / 1000 Ang^3
#
#
#
# Elastic Constant Matrix: (Units=GPa)
#
#
# Indices 1 2 3 4 5 6 
#
# 1 30.0863 32.4243 41.4815 0.0000 0.0000 0.0000
# 2 32.4243 30.0863 41.4815 0.0000 0.0000 0.0000
# 3 41.4815 41.4815 147.1055 0.0000 0.0000 0.0000
# 4 0.0000 0.0000 0.0000 20.6669 0.0000 0.0000
# 5 0.0000 0.0000 0.0000 0.0000 20.6669 0.0000
# 6 0.0000 0.0000 0.0000 0.0000 0.0000 25.6080
#
#
#
# Elastic Compliance Matrix: (Units=1/GPa)
#
#
# Indices 1 2 3 4 5 6 
#
# 1 -0.201074 0.226639 -0.007209 0.000000 0.000000 0.000000
# 2 0.226639 -0.201074 -0.007209 0.000000 0.000000 0.000000
# 3 -0.007209 -0.007209 0.010863 0.000000 0.000000 0.000000
# 4 0.000000 0.000000 0.000000 0.048387 0.000000 0.000000
# 5 0.000000 0.000000 0.000000 0.000000 0.048387 0.000000
# 6 0.000000 0.000000 0.000000 0.000000 0.000000 0.039050
#
#
# Mechanical properties :
#
#
# Convention : Reuss Voigt Hill
#
# Bulk Modulus (GPa) = 30.15916 48.67252 39.41584
# Shear Modulus (GPa) = -7.47549 19.51442 6.01946
#
# Velocity S-wave (km/s) = -1.79254 2.89619 1.60853
# Velocity P-wave (km/s) = 2.94603 5.66612 4.51575
#
# Compressibility (1/GPa) = 0.03315743
#
# Stress axis : x y z
#
# Youngs Moduli (GPa) = -4.97328 -4.97328 92.05210
#
# Poissons Ratio (x) = 1.12714 0.66359
# Poissons Ratio (y) = 1.12714 0.66359
# Poissons Ratio (z) = -0.03585 -0.03585
#
# Static dielectric constant tensor:
#      x y z
#    x 1.918070 0.000000 0.000000 
#    y 0.000000 1.918070 0.000000 
#    z 0.000000 0.000000 1.951320 
# 
# From -- ./inp_files/3227.got.cif
#   From: 2010.05.17/outbox.cif.g08.bks.cpg/sg138_2_cif.got.tgz:3227.got - 2010.05.20 13:08:53.
