data_PCOD9571834
_publ_section_title
;
Structure prediction by ZEFSAII (Michael W. Deem and Ramdas Pophale) SiO2 
 PCOD9571834
Probable space group: I 4/M M M
;
_chemical_formula_sum "Si O2"
_cell_formula_units_Z 160
_cell_length_a 21.473411
_cell_length_b 21.473411
_cell_length_c 18.617243
_cell_angle_alpha 90.000000
_cell_angle_beta 90.000000
_cell_angle_gamma 90.000000
_cell_volume 8584.548142
_symmetry_space_group_name_H-M "I 4/M M M"
_symmetry_group_IT_number 139
_symmetry_cell_setting 'tetragonal'
loop_
_space_group_symop_operation_xyz
x,y,z
-y,x,z
-x,-y,z
y,-x,z
x,-y,-z
-x,y,-z
y,x,-z
-y,-x,-z
-x,-y,-z
y,-x,-z
x,y,-z
-y,x,-z
-x,y,z
x,-y,z
-y,-x,z
y,x,z
1/2+x,1/2+y,1/2+z
1/2-y,1/2+x,1/2+z
1/2-x,1/2-y,1/2+z
1/2+y,1/2-x,1/2+z
1/2+x,1/2-y,1/2-z
1/2-x,1/2+y,1/2-z
1/2+y,1/2+x,1/2-z
1/2-y,1/2-x,1/2-z
1/2-x,1/2-y,1/2-z
1/2+y,1/2-x,1/2-z
1/2+x,1/2+y,1/2-z
1/2-y,1/2+x,1/2-z
1/2-x,1/2+y,1/2+z
1/2+x,1/2-y,1/2+z
1/2-y,1/2-x,1/2+z
1/2+y,1/2+x,1/2+z
loop_
_atom_site_type_symbol
_atom_site_label
_atom_site_fract_x
_atom_site_fract_y
_atom_site_fract_z
Si Si1 0.567552 0.893069 0.415538
Si Si2 0.168167 0.831834 0.914501
Si Si3 0.569556 0.430445 0.587344
Si Si4 0.430036 0.205219 0.084651
Si Si5 0.148758 0.746487 0.715507
Si Si6 0.258245 0.928898 0.849034
O O1 0.568639 0.874803 0.500000
O O2 0.500000 0.923694 0.402933
O O3 0.630514 0.930227 0.402980
O O4 0.570009 0.830715 0.368789
O O5 0.118173 0.881828 0.886233
O O6 0.230256 0.867077 0.888592
O O7 0.171109 0.828892 0.000000
O O8 0.584468 0.500000 0.609658
O O9 0.570920 0.429081 0.500000
O O10 0.500000 0.228935 0.099745
O O11 0.377041 0.231990 0.136534
O O12 0.416915 0.215544 0.000000
O O13 0.192777 0.807224 0.717249
O O14 0.191062 0.691062 0.750000
O O15 0.088527 0.752825 0.766520
O O16 0.235306 0.000000 0.867584
#
# Coordination Sequence:
#
# PCOD9571834 Si02
#       6
#    32  16  16  32  32  32
#     4   9  18  33  53  80 115 152 186 222 269 324
#     4  11  21  32  48  77 110 145 191 229 268 327
#     4   8  14  25  40  59  89 129 170 216 263 303
#     4  10  21  38  61  87 114 147 190 240 287 331
#     4  11  22  39  59  82 113 148 185 231 287 346
#     4  11  21  35  54  77 110 151 189 232 279 330
#
# _framework density 18.638138999999999
#
# number of rings (size 3 to 8) (size 9 to 14) (size 15 to 20)
#    0.000    1.900    3.000    2.100    0.000    2.800 
#    0.000    2.000    0.000    0.000    0.000    0.000 
#    0.000    0.000    0.000    4.800    0.000    0.000 
#
# Total GULP energy -445408.122753 kJ/mol
# GULP energy per Si atom -5567.601534 kJ/mol
# Density = 1.859572 g / cm^3
# Si number density = 18.638139 Si / 1000 Ang^3
#
#
#
# Elastic Constant Matrix: (Units=GPa)
#
#
# Indices 1 2 3 4 5 6 
#
# 1 62.9828 18.3538 27.3856 0.0000 0.0000 0.0000
# 2 18.3538 62.9828 27.3866 0.0000 0.0000 0.0000
# 3 27.3856 27.3866 62.4571 0.0000 0.0000 0.0000
# 4 0.0000 0.0000 0.0000 22.0168 0.0000 0.0000
# 5 0.0000 0.0000 0.0000 0.0000 22.0169 0.0000
# 6 0.0000 0.0000 0.0000 0.0000 0.0000 15.4411
#
#
#
# Elastic Compliance Matrix: (Units=1/GPa)
#
#
# Indices 1 2 3 4 5 6 
#
# 1 0.019926 -0.002481 -0.007649 0.000000 0.000000 0.000000
# 2 -0.002481 0.019927 -0.007650 0.000000 0.000000 0.000000
# 3 -0.007649 -0.007650 0.022719 0.000000 0.000000 0.000000
# 4 0.000000 0.000000 0.000000 0.045420 0.000000 0.000000
# 5 0.000000 0.000000 0.000000 0.000000 0.045420 0.000000
# 6 0.000000 0.000000 0.000000 0.000000 0.000000 0.064762
#
#
# Mechanical properties :
#
#
# Convention : Reuss Voigt Hill
#
# Bulk Modulus (GPa) = 37.01980 37.18609 37.10295
# Shear Modulus (GPa) = 19.03037 19.58140 19.30589
#
# Velocity S-wave (km/s) = 3.19885 3.24483 3.22192
# Velocity P-wave (km/s) = 5.79215 5.83382 5.81302
#
# Compressibility (1/GPa) = 0.02701257
#
# Stress axis : x y z
#
# Youngs Moduli (GPa) = 50.18510 50.18422 44.01528
#
# Poissons Ratio (x) = 0.12448 0.33669
# Poissons Ratio (y) = 0.12449 0.33671
# Poissons Ratio (z) = 0.38389 0.38390
#
# Static dielectric constant tensor:
#      x y z
#    x 1.678770 0.000000 0.000000 
#    y 0.000000 1.678770 0.000000 
#    z 0.000000 0.000000 1.666940 
# 
# From -- ./inp_files/8468.got.cif
#   From: 2010.05.17/outbox.cif.g08.bks.cpg/sg139_5_cif.got.tgz:8468.got - 2010.05.20 13:14:44.
