data_PCOD9571788
_publ_section_title
;
Structure prediction by ZEFSAII (Michael W. Deem and Ramdas Pophale) SiO2 
 PCOD9571788
Probable space group: I 4/M M M
;
_chemical_formula_sum "Si O2"
_cell_formula_units_Z 240
_cell_length_a 29.975329
_cell_length_b 29.975329
_cell_length_c 14.487302
_cell_angle_alpha 90.000000
_cell_angle_beta 90.000000
_cell_angle_gamma 90.000000
_cell_volume 13017.135644
_symmetry_space_group_name_H-M "I 4/M M M"
_symmetry_group_IT_number 139
_symmetry_cell_setting 'tetragonal'
loop_
_space_group_symop_operation_xyz
x,y,z
-y,x,z
-x,-y,z
y,-x,z
x,-y,-z
-x,y,-z
y,x,-z
-y,-x,-z
-x,-y,-z
y,-x,-z
x,y,-z
-y,x,-z
-x,y,z
x,-y,z
-y,-x,z
y,x,z
1/2+x,1/2+y,1/2+z
1/2-y,1/2+x,1/2+z
1/2-x,1/2-y,1/2+z
1/2+y,1/2-x,1/2+z
1/2+x,1/2-y,1/2-z
1/2-x,1/2+y,1/2-z
1/2+y,1/2+x,1/2-z
1/2-y,1/2-x,1/2-z
1/2-x,1/2-y,1/2-z
1/2+y,1/2-x,1/2-z
1/2+x,1/2+y,1/2-z
1/2-y,1/2+x,1/2-z
1/2-x,1/2+y,1/2+z
1/2+x,1/2-y,1/2+z
1/2-y,1/2-x,1/2+z
1/2+y,1/2+x,1/2+z
loop_
_atom_site_type_symbol
_atom_site_label
_atom_site_fract_x
_atom_site_fract_y
_atom_site_fract_z
Si Si1 0.447622 0.869737 0.391301
Si Si2 0.607604 0.209010 0.699926
Si Si3 0.625919 0.231117 0.896409
Si Si4 0.907242 0.167653 0.603693
Si Si5 0.786606 0.053159 0.893161
Si Si6 0.948607 0.448607 0.250000
Si Si7 0.448395 0.373777 0.718099
Si Si8 0.797384 0.725479 0.108088
O O1 0.440053 0.875808 0.500000
O O2 0.500000 0.856325 0.379440
O O3 0.414937 0.832303 0.351470
O O4 0.440585 0.914680 0.333392
O O5 0.607731 0.203173 0.810252
O O6 0.579490 0.252291 0.670385
O O7 0.657967 0.217772 0.665935
O O8 0.607145 0.281068 0.886597
O O9 0.679594 0.230595 0.888677
O O10 0.614995 0.214673 0.000000
O O11 0.925714 0.161474 0.500000
O O12 0.863173 0.136828 0.610682
O O13 0.939439 0.151034 0.684347
O O14 0.836845 0.061964 0.859653
O O15 0.779062 0.000000 0.884469
O O16 0.779926 0.065644 0.000000
O O17 0.942986 0.500000 0.219953
O O18 0.500000 0.386726 0.710904
O O19 0.415343 0.415343 0.711747
O O20 0.766861 0.766861 0.138846
O O21 0.809310 0.732655 0.000000
#
# Coordination Sequence:
#
# PCOD9571788 Si02
#       8
#    32  32  32  32  32  16  32  32
#     4  10  22  40  63  90 121 158 197 238 291 354
#     4  12  22  36  59  87 117 154 199 240 286 341
#     4  10  21  36  54  79 114 155 193 234 282 335
#     4   9  17  33  57  81 107 144 189 231 277 341
#     4  10  21  38  59  82 111 146 185 234 287 339
#     4   9  20  40  66  96 125 154 196 248 295 340
#     4  10  21  37  57  83 112 144 186 237 295 357
#     4  10  22  37  53  80 117 155 196 241 287 334
#
# _framework density 18.437235000000001
#
# number of rings (size 3 to 8) (size 9 to 14) (size 15 to 20)
#    0.000    1.933    1.333    2.400    1.867    5.733 
#    0.000    1.333    0.000    2.400    0.000    3.733 
#    0.000    0.000    0.000    0.000    0.000    0.000 
#
# Total GULP energy -669981.960859 kJ/mol
# GULP energy per Si atom -5583.183007 kJ/mol
# Density = 1.839527 g / cm^3
# Si number density = 18.437235 Si / 1000 Ang^3
#
#
#
# Elastic Constant Matrix: (Units=GPa)
#
#
# Indices 1 2 3 4 5 6 
#
# 1 78.8151 62.2785 49.2497 0.0000 0.0000 0.0000
# 2 62.2785 78.8151 49.2497 0.0000 0.0000 0.0000
# 3 49.2497 49.2497 131.0196 0.0000 0.0000 0.0000
# 4 0.0000 0.0000 0.0000 25.0891 0.0000 0.0000
# 5 0.0000 0.0000 0.0000 0.0000 25.0891 0.0000
# 6 0.0000 0.0000 0.0000 0.0000 0.0000 1.9210
#
#
#
# Elastic Compliance Matrix: (Units=1/GPa)
#
#
# Indices 1 2 3 4 5 6 
#
# 1 0.035041 -0.025431 -0.003612 0.000000 0.000000 0.000000
# 2 -0.025431 0.035041 -0.003612 0.000000 0.000000 0.000000
# 3 -0.003612 -0.003612 0.010348 0.000000 0.000000 0.000000
# 4 0.000000 0.000000 0.000000 0.039858 0.000000 0.000000
# 5 0.000000 0.000000 0.000000 0.000000 0.039858 0.000000
# 6 0.000000 0.000000 0.000000 0.000000 0.000000 0.520572
#
#
# Mechanical properties :
#
#
# Convention : Reuss Voigt Hill
#
# Bulk Modulus (GPa) = 66.14610 67.80062 66.97336
# Shear Modulus (GPa) = 6.65719 18.94462 12.80090
#
# Velocity S-wave (km/s) = 1.90225 3.20897 2.63781
# Velocity P-wave (km/s) = 6.38584 7.11221 6.75879
#
# Compressibility (1/GPa) = 0.01511805
#
# Stress axis : x y z
#
# Youngs Moduli (GPa) = 28.53838 28.53838 96.63765
#
# Poissons Ratio (x) = 0.72577 0.34906
# Poissons Ratio (y) = 0.72577 0.34906
# Poissons Ratio (z) = 0.10308 0.10308
#
# Static dielectric constant tensor:
#      x y z
#    x 1.612070 0.000000 0.000000 
#    y 0.000000 1.612070 0.000000 
#    z 0.000000 0.000000 1.651430 
# 
# From -- ./inp_files/6784.got.cif
#   From: 2010.05.17/outbox.cif.g08.bks.cpg/sg139_4_cif.got.tgz:6784.got - 2010.05.20 13:14:44.
