data_PCOD9571997
_publ_section_title
;
Structure prediction by ZEFSAII (Michael W. Deem and Ramdas Pophale) SiO2 
 PCOD9571997
Probable space group: I 4/M C M
;
_chemical_formula_sum "Si O2"
_cell_formula_units_Z 136
_cell_length_a 16.078666
_cell_length_b 16.078666
_cell_length_c 24.062514
_cell_angle_alpha 90.000000
_cell_angle_beta 90.000000
_cell_angle_gamma 90.000000
_cell_volume 6220.725346
_symmetry_space_group_name_H-M "I 4/M C M"
_symmetry_group_IT_number 140
_symmetry_cell_setting 'tetragonal'
loop_
_space_group_symop_operation_xyz
x,y,z
-y,x,z
-x,-y,z
y,-x,z
x,-y,1/2-z
-x,y,1/2-z
y,x,1/2-z
-y,-x,1/2-z
-x,-y,-z
y,-x,-z
x,y,-z
-y,x,-z
-x,y,1/2+z
x,-y,1/2+z
-y,-x,1/2+z
y,x,1/2+z
1/2+x,1/2+y,1/2+z
1/2-y,1/2+x,1/2+z
1/2-x,1/2-y,1/2+z
1/2+y,1/2-x,1/2+z
1/2+x,1/2-y,-z
1/2-x,1/2+y,-z
1/2+y,1/2+x,-z
1/2-y,1/2-x,-z
1/2-x,1/2-y,1/2-z
1/2+y,1/2-x,1/2-z
1/2+x,1/2+y,1/2-z
1/2-y,1/2+x,1/2-z
1/2-x,1/2+y,z
1/2+x,1/2-y,z
1/2-y,1/2-x,z
1/2+y,1/2+x,z
loop_
_atom_site_type_symbol
_atom_site_label
_atom_site_fract_x
_atom_site_fract_y
_atom_site_fract_z
Si Si1 0.147127 0.221350 0.892190
Si Si2 0.904602 0.595399 0.500000
Si Si3 0.431485 0.068516 0.872363
Si Si4 0.795340 0.438907 0.500000
Si Si5 0.395461 0.406616 0.311820
Si Si6 0.677571 0.958177 0.695910
O O1 0.236728 0.263273 0.902270
O O2 0.149754 0.130331 0.866047
O O3 0.103006 0.268240 0.840744
O O4 0.092134 0.243965 0.946079
O O5 0.929463 0.570537 0.561909
O O6 0.817705 0.537417 0.500000
O O7 0.466980 0.150459 0.844457
O O8 0.500000 0.000000 0.858288
O O9 0.882650 0.382650 0.500000
O O10 0.494115 0.388094 0.314729
O O11 0.372446 0.372446 0.250000
O O12 0.597266 0.902735 0.714415
O O13 0.715316 0.000000 0.750000
#
# Coordination Sequence:
#
# PCOD9571997 Si02
#       6
#    32   8  16  16  32  32
#     4  10  21  35  57  88 120 156 198 252 317 376
#     4  12  17  28  48  72 116 172 228 256 284 368
#     4  10  17  24  40  64 104 158 208 245 279 349
#     4  10  19  32  52  83 124 173 214 247 303 377
#     4   9  20  41  67  89 113 151 200 252 305 368
#     4  10  18  26  40  70 111 154 193 238 299 362
#
# _framework density 21.862401999999999
#
# number of rings (size 3 to 8) (size 9 to 14) (size 15 to 20)
#    0.000    2.118    3.529    1.765    3.294    0.471 
#    0.000    1.176    5.176    1.412    0.000    0.000 
#    0.000    0.000    0.000    0.000    0.000    0.000 
#
# Total GULP energy -378636.636442 kJ/mol
# GULP energy per Si atom -5568.185830 kJ/mol
# Density = 2.181264 g / cm^3
# Si number density = 21.862402 Si / 1000 Ang^3
#
#
#
# Elastic Constant Matrix: (Units=GPa)
#
#
# Indices 1 2 3 4 5 6 
#
# 1 45.0767 15.2738 25.5250 0.0000 0.0000 0.0000
# 2 15.2738 45.0767 25.5252 0.0000 0.0000 0.0000
# 3 25.5250 25.5252 127.1142 0.0000 0.0000 0.0000
# 4 0.0000 0.0000 0.0000 13.2818 0.0000 0.0000
# 5 0.0000 0.0000 0.0000 0.0000 13.2813 0.0000
# 6 0.0000 0.0000 0.0000 0.0000 0.0000 4.5607
#
#
#
# Elastic Compliance Matrix: (Units=1/GPa)
#
#
# Indices 1 2 3 4 5 6 
#
# 1 0.026757 -0.006797 -0.004008 0.000000 0.000000 0.000000
# 2 -0.006797 0.026757 -0.004008 0.000000 0.000000 0.000000
# 3 -0.004008 -0.004008 0.009477 0.000000 0.000000 0.000000
# 4 0.000000 0.000000 0.000000 0.075291 0.000000 0.000000
# 5 0.000000 0.000000 0.000000 0.000000 0.075294 0.000000
# 6 0.000000 0.000000 0.000000 0.000000 0.000000 0.219263
#
#
# Mechanical properties :
#
#
# Convention : Reuss Voigt Hill
#
# Bulk Modulus (GPa) = 29.97173 38.87954 34.42563
# Shear Modulus (GPa) = 10.55773 16.28766 13.42270
#
# Velocity S-wave (km/s) = 2.19992 2.73244 2.48051
# Velocity P-wave (km/s) = 4.49354 5.27042 4.89741
#
# Compressibility (1/GPa) = 0.03336478
#
# Stress axis : x y z
#
# Youngs Moduli (GPa) = 37.37334 37.37323 105.52261
#
# Poissons Ratio (x) = 0.25402 0.42294
# Poissons Ratio (y) = 0.25402 0.42295
# Poissons Ratio (z) = 0.14980 0.14980
#
# Static dielectric constant tensor:
#      x y z
#    x 1.890080 0.000000 0.000000 
#    y 0.000000 1.890080 0.000000 
#    z 0.000000 0.000000 1.760570 
# 
# From -- ./inp_files/8152.got.cif
#   From: 2010.05.17/outbox.cif.g08.bks.cpg/sg140_5_cif.got.tgz:8152.got - 2010.06.21 00:45:31.
