data_PCOD9571150
_publ_section_title
;
Structure prediction by ZEFSAII (Michael W. Deem and Ramdas Pophale) SiO2 
 PCOD9571150
Probable space group: I 4/M M M
;
_chemical_formula_sum "Si O2"
_cell_formula_units_Z 160
_cell_length_a 30.933327
_cell_length_b 30.933327
_cell_length_c 8.457016
_cell_angle_alpha 90.000000
_cell_angle_beta 90.000000
_cell_angle_gamma 90.000000
_cell_volume 8092.270983
_symmetry_space_group_name_H-M "I 4/M M M"
_symmetry_group_IT_number 139
_symmetry_cell_setting 'tetragonal'
loop_
_space_group_symop_operation_xyz
x,y,z
-y,x,z
-x,-y,z
y,-x,z
x,-y,-z
-x,y,-z
y,x,-z
-y,-x,-z
-x,-y,-z
y,-x,-z
x,y,-z
-y,x,-z
-x,y,z
x,-y,z
-y,-x,z
y,x,z
1/2+x,1/2+y,1/2+z
1/2-y,1/2+x,1/2+z
1/2-x,1/2-y,1/2+z
1/2+y,1/2-x,1/2+z
1/2+x,1/2-y,1/2-z
1/2-x,1/2+y,1/2-z
1/2+y,1/2+x,1/2-z
1/2-y,1/2-x,1/2-z
1/2-x,1/2-y,1/2-z
1/2+y,1/2-x,1/2-z
1/2+x,1/2+y,1/2-z
1/2-y,1/2+x,1/2-z
1/2-x,1/2+y,1/2+z
1/2+x,1/2-y,1/2+z
1/2-y,1/2-x,1/2+z
1/2+y,1/2+x,1/2+z
loop_
_atom_site_type_symbol
_atom_site_label
_atom_site_fract_x
_atom_site_fract_y
_atom_site_fract_z
Si Si1 0.451102 0.787671 0.313765
Si Si2 0.405756 0.332341 0.500000
Si Si3 0.759263 0.169110 0.000000
Si Si4 0.092287 0.163130 0.332972
Si Si5 0.450986 0.883110 0.185510
Si Si6 0.635853 0.247700 0.825097
O O1 0.444372 0.778418 0.500000
O O2 0.500000 0.773938 0.270700
O O3 0.448638 0.838944 0.283761
O O4 0.412924 0.768134 0.209585
O O5 0.374492 0.374492 0.500000
O O6 0.371876 0.292560 0.500000
O O7 0.431018 0.331704 0.664964
O O8 0.735754 0.163440 0.169233
O O9 0.787585 0.212416 0.000000
O O10 0.068440 0.167780 0.500000
O O11 0.117914 0.117914 0.333028
O O12 0.129207 0.200459 0.331311
O O13 0.500000 0.899926 0.199668
O O14 0.417020 0.917020 0.250000
O O15 0.443183 0.873517 0.000000
O O16 0.650789 0.233317 0.000000
#
# Coordination Sequence:
#
# PCOD9571150 Si02
#       6
#    32  16  16  32  32  32
#     4  10  20  34  50  69  97 132 167 204 249 299
#     4   7  10  16  26  39  61  93 123 157 202 249
#     4   9  16  26  39  61  93 123 157 202 249 294
#     4   8  13  20  31  50  76 105 138 179 227 273
#     4  10  21  37  57  80 104 131 160 195 243 297
#     4  10  17  26  42  63  89 125 162 202 247 300
#
# _framework density 19.771954000000001
#
# number of rings (size 3 to 8) (size 9 to 14) (size 15 to 20)
#    0.000    2.800    1.000    3.000    0.000    3.800 
#    0.000    1.000    0.000    0.000    0.000    0.000 
#    0.000    3.200    2.000    0.000    0.000    0.000 
#
# Total GULP energy -445381.875956 kJ/mol
# GULP energy per Si atom -5567.273449 kJ/mol
# Density = 1.972695 g / cm^3
# Si number density = 19.771954 Si / 1000 Ang^3
#
#
#
# Elastic Constant Matrix: (Units=GPa)
#
#
# Indices 1 2 3 4 5 6 
#
# 1 17.6506 33.1059 9.1410 0.0000 0.0000 0.0000
# 2 33.1059 17.6458 9.1399 0.0000 0.0000 0.0000
# 3 9.1410 9.1399 199.4000 0.0000 0.0000 0.0000
# 4 0.0000 0.0000 0.0000 15.8076 0.0000 0.0000
# 5 0.0000 0.0000 0.0000 0.0000 15.8078 0.0000
# 6 0.0000 0.0000 0.0000 0.0000 0.0000 25.7707
#
#
#
# Elastic Compliance Matrix: (Units=1/GPa)
#
#
# Indices 1 2 3 4 5 6 
#
# 1 -0.022326 0.042363 -0.000918 0.000000 0.000000 0.000000
# 2 0.042363 -0.022332 -0.000918 0.000000 0.000000 0.000000
# 3 -0.000918 -0.000918 0.005099 0.000000 0.000000 0.000000
# 4 0.000000 0.000000 0.000000 0.063261 0.000000 0.000000
# 5 0.000000 0.000000 0.000000 0.000000 0.063260 0.000000
# 6 0.000000 0.000000 0.000000 0.000000 0.000000 0.038804
#
#
# Mechanical properties :
#
#
# Convention : Reuss Voigt Hill
#
# Bulk Modulus (GPa) = 24.10039 37.49668 30.79854
# Shear Modulus (GPa) = 85.40696 23.69785 54.55241
#
# Velocity S-wave (km/s) = 6.57950 3.46578 5.25839
# Velocity P-wave (km/s) = 8.36274 5.91787 7.24419
#
# Compressibility (1/GPa) = 0.04149310
#
# Stress axis : x y z
#
# Youngs Moduli (GPa) = -44.79010 -44.77791 196.10778
#
# Poissons Ratio (x) = 1.89693 0.18008
# Poissons Ratio (y) = 1.89744 0.18010
# Poissons Ratio (z) = -0.04113 -0.04112
#
# Static dielectric constant tensor:
#      x y z
#    x 1.672680 0.000000 0.000000 
#    y 0.000000 1.672680 0.000000 
#    z 0.000000 0.000000 1.824850 
# 
# From -- ./inp_files/2199.got.cif
#   From: 2010.05.17/outbox.cif.g08.bks.cpg/sg139_2_cif.got.tgz:2199.got - 2010.05.20 13:14:44.
