data_PCOD9571194
_publ_section_title
;
Structure prediction by ZEFSAII (Michael W. Deem and Ramdas Pophale) SiO2 
 PCOD9571194
Probable space group: I 4/M M M
;
_chemical_formula_sum "Si O2"
_cell_formula_units_Z 208
_cell_length_a 28.287351
_cell_length_b 28.287351
_cell_length_c 16.952879
_cell_angle_alpha 90.000000
_cell_angle_beta 90.000000
_cell_angle_gamma 90.000000
_cell_volume 13565.256842
_symmetry_space_group_name_H-M "I 4/M M M"
_symmetry_group_IT_number 139
_symmetry_cell_setting 'tetragonal'
loop_
_space_group_symop_operation_xyz
x,y,z
-y,x,z
-x,-y,z
y,-x,z
x,-y,-z
-x,y,-z
y,x,-z
-y,-x,-z
-x,-y,-z
y,-x,-z
x,y,-z
-y,x,-z
-x,y,z
x,-y,z
-y,-x,z
y,x,z
1/2+x,1/2+y,1/2+z
1/2-y,1/2+x,1/2+z
1/2-x,1/2-y,1/2+z
1/2+y,1/2-x,1/2+z
1/2+x,1/2-y,1/2-z
1/2-x,1/2+y,1/2-z
1/2+y,1/2+x,1/2-z
1/2-y,1/2-x,1/2-z
1/2-x,1/2-y,1/2-z
1/2+y,1/2-x,1/2-z
1/2+x,1/2+y,1/2-z
1/2-y,1/2+x,1/2-z
1/2-x,1/2+y,1/2+z
1/2+x,1/2-y,1/2+z
1/2-y,1/2-x,1/2+z
1/2+y,1/2+x,1/2+z
loop_
_atom_site_type_symbol
_atom_site_label
_atom_site_fract_x
_atom_site_fract_y
_atom_site_fract_z
Si Si1 0.555896 0.632345 0.000000
Si Si2 0.313401 0.390558 0.137448
Si Si3 0.812613 0.552101 0.749174
Si Si4 0.315780 0.850823 0.829950
Si Si5 0.296152 0.102578 0.591285
Si Si6 0.053621 0.798611 0.205841
Si Si7 0.213775 0.865175 0.093425
O O1 0.575415 0.661181 0.925196
O O2 0.500000 0.629210 0.000000
O O3 0.581870 0.581870 0.000000
O O4 0.340851 0.340851 0.135893
O O5 0.258485 0.386293 0.113561
O O6 0.318305 0.415336 0.222117
O O7 0.833206 0.500000 0.734914
O O8 0.831477 0.596575 0.698840
O O9 0.813263 0.565500 0.841959
O O10 0.757385 0.550229 0.725029
O O11 0.319915 0.819915 0.750000
O O12 0.351065 0.827713 0.892620
O O13 0.262925 0.853368 0.862830
O O14 0.298752 0.087663 0.500000
O O15 0.084648 0.803638 0.127486
O O16 0.000000 0.817023 0.202163
O O17 0.175056 0.824945 0.109987
O O18 0.221670 0.867435 0.000000
#
# Coordination Sequence:
#
# PCOD9571194 Si02
#       7
#    16  32  32  32  32  32  32
#     4  10  20  33  48  68  96 130 171 213 249 289
#     4  10  19  31  46  68  97 129 163 196 237 294
#     4   8  16  30  45  63  86 119 160 193 227 276
#     4   9  18  31  47  65  93 127 159 193 232 277
#     4  10  18  28  43  69  98 126 155 191 236 281
#     4   9  17  30  47  64  84 115 155 200 244 282
#     4  10  20  32  45  65  91 122 159 196 237 288
#
# _framework density 15.333289000000001
#
# number of rings (size 3 to 8) (size 9 to 14) (size 15 to 20)
#    0.000    2.615    0.769    2.308    0.000    2.231 
#    0.000    0.000    0.000    1.385    0.000    0.000 
#    0.000   27.692    0.000   19.231    0.000    0.000 
#
# Total GULP energy -579113.877875 kJ/mol
# GULP energy per Si atom -5568.402672 kJ/mol
# Density = 1.529839 g / cm^3
# Si number density = 15.333289 Si / 1000 Ang^3
#
#
#
# Elastic Constant Matrix: (Units=GPa)
#
#
# Indices 1 2 3 4 5 6 
#
# 1 72.7756 35.2724 33.9505 0.0000 0.0000 0.0000
# 2 35.2724 72.7756 33.9505 0.0000 0.0000 0.0000
# 3 33.9505 33.9505 77.6936 0.0000 0.0000 0.0000
# 4 0.0000 0.0000 0.0000 6.4076 0.0000 0.0000
# 5 0.0000 0.0000 0.0000 0.0000 6.4076 0.0000
# 6 0.0000 0.0000 0.0000 0.0000 0.0000 1.6888
#
#
#
# Elastic Compliance Matrix: (Units=1/GPa)
#
#
# Indices 1 2 3 4 5 6 
#
# 1 0.019712 -0.006953 -0.005575 0.000000 0.000000 0.000000
# 2 -0.006953 0.019712 -0.005575 0.000000 0.000000 0.000000
# 3 -0.005575 -0.005575 0.017744 0.000000 0.000000 0.000000
# 4 0.000000 0.000000 0.000000 0.156065 0.000000 0.000000
# 5 0.000000 0.000000 0.000000 0.000000 0.156065 0.000000
# 6 0.000000 0.000000 0.000000 0.000000 0.000000 0.592154
#
#
# Mechanical properties :
#
#
# Convention : Reuss Voigt Hill
#
# Bulk Modulus (GPa) = 47.70989 47.73240 47.72115
# Shear Modulus (GPa) = 4.97688 10.90554 7.94121
#
# Velocity S-wave (km/s) = 1.80357 2.66979 2.27823
# Velocity P-wave (km/s) = 5.95986 6.37975 6.17337
#
# Compressibility (1/GPa) = 0.02096001
#
# Stress axis : x y z
#
# Youngs Moduli (GPa) = 50.73141 50.73141 56.35794
#
# Poissons Ratio (x) = 0.35272 0.31422
# Poissons Ratio (y) = 0.35272 0.31422
# Poissons Ratio (z) = 0.28285 0.28285
#
# Static dielectric constant tensor:
#      x y z
#    x 1.507840 0.000000 0.000000 
#    y 0.000000 1.507840 0.000000 
#    z 0.000000 0.000000 1.535850 
# 
# From -- ./inp_files/8954.got.cif
#   From: 2010.05.17/outbox.cif.g08.bks.cpg/sg139_5_cif.got.tgz:8954.got - 2010.05.20 13:14:44.
