data_PCOD9571890
_publ_section_title
;
Structure prediction by ZEFSAII (Michael W. Deem and Ramdas Pophale) SiO2 
 PCOD9571890
Probable space group: I 4/M M M
;
_chemical_formula_sum "Si O2"
_cell_formula_units_Z 80
_cell_length_a 17.856472
_cell_length_b 17.856472
_cell_length_c 12.555754
_cell_angle_alpha 90.000000
_cell_angle_beta 90.000000
_cell_angle_gamma 90.000000
_cell_volume 4003.447267
_symmetry_space_group_name_H-M "I 4/M M M"
_symmetry_group_IT_number 139
_symmetry_cell_setting 'tetragonal'
loop_
_space_group_symop_operation_xyz
x,y,z
-y,x,z
-x,-y,z
y,-x,z
x,-y,-z
-x,y,-z
y,x,-z
-y,-x,-z
-x,-y,-z
y,-x,-z
x,y,-z
-y,x,-z
-x,y,z
x,-y,z
-y,-x,z
y,x,z
1/2+x,1/2+y,1/2+z
1/2-y,1/2+x,1/2+z
1/2-x,1/2-y,1/2+z
1/2+y,1/2-x,1/2+z
1/2+x,1/2-y,1/2-z
1/2-x,1/2+y,1/2-z
1/2+y,1/2+x,1/2-z
1/2-y,1/2-x,1/2-z
1/2-x,1/2-y,1/2-z
1/2+y,1/2-x,1/2-z
1/2+x,1/2+y,1/2-z
1/2-y,1/2+x,1/2-z
1/2-x,1/2+y,1/2+z
1/2+x,1/2-y,1/2+z
1/2-y,1/2-x,1/2+z
1/2+y,1/2+x,1/2+z
loop_
_atom_site_type_symbol
_atom_site_label
_atom_site_fract_x
_atom_site_fract_y
_atom_site_fract_z
Si Si1 0.203786 0.203786 0.625468
Si Si2 0.699013 0.000000 0.131463
Si Si3 0.000000 0.876752 0.128446
Si Si4 0.347427 0.847427 0.750000
Si Si5 0.085155 0.914846 0.370492
O O1 0.205189 0.205189 0.500000
O O2 0.173232 0.283285 0.664450
O O3 0.144262 0.144262 0.667187
O O4 0.788734 0.000000 0.155619
O O5 0.664155 0.073368 0.189857
O O6 0.689284 0.000000 0.000000
O O7 0.073553 0.926448 0.156556
O O8 0.000000 0.875959 0.000000
O O9 0.086797 0.913204 0.500000
O O10 0.000000 0.896340 0.341796
#
# Coordination Sequence:
#
# PCOD9571890 Si02
#       5
#    16  16  16  16  16
#     4  10  22  41  64  97 139 177 224 280 333 408
#     4  11  25  47  71  99 138 179 234 304 349 408
#     4   8  16  33  63 100 135 175 216 267 343 413
#     4  11  26  43  68  98 130 181 241 278 352 416
#     4   8  15  30  56  90 128 168 201 247 323 394
#
# _framework density 19.982778
#
# number of rings (size 3 to 8) (size 9 to 14) (size 15 to 20)
#    0.000    2.400    0.000    2.400    8.400    0.400 
#    0.000    4.000    0.000    0.000    0.000    0.000 
#    0.000    0.000    0.000    0.000    0.000    0.000 
#
# Total GULP energy -223191.365168 kJ/mol
# GULP energy per Si atom -5579.784129 kJ/mol
# Density = 1.993730 g / cm^3
# Si number density = 19.982778 Si / 1000 Ang^3
#
#
#
# Elastic Constant Matrix: (Units=GPa)
#
#
# Indices 1 2 3 4 5 6 
#
# 1 156.0342 128.7769 71.2373 0.0000 0.0000 0.0000
# 2 128.7769 156.0340 71.2367 0.0000 0.0000 0.0000
# 3 71.2373 71.2367 129.0691 0.0000 0.0000 0.0000
# 4 0.0000 0.0000 0.0000 66.5506 0.0000 0.0000
# 5 0.0000 0.0000 0.0000 0.0000 66.5505 0.0000
# 6 0.0000 0.0000 0.0000 0.0000 0.0000 30.0641
#
#
#
# Elastic Compliance Matrix: (Units=1/GPa)
#
#
# Indices 1 2 3 4 5 6 
#
# 1 0.020769 -0.015919 -0.002677 0.000000 0.000000 0.000000
# 2 -0.015919 0.020769 -0.002677 0.000000 0.000000 0.000000
# 3 -0.002677 -0.002677 0.010703 0.000000 0.000000 0.000000
# 4 0.000000 0.000000 0.000000 0.015026 0.000000 0.000000
# 5 0.000000 0.000000 0.000000 0.000000 0.015026 0.000000
# 6 0.000000 0.000000 0.000000 0.000000 0.000000 0.033262
#
#
# Mechanical properties :
#
#
# Convention : Reuss Voigt Hill
#
# Bulk Modulus (GPa) = 103.14244 109.29322 106.21783
# Shear Modulus (GPa) = 30.99191 43.95879 37.47535
#
# Velocity S-wave (km/s) = 3.94246 4.69533 4.33527
# Velocity P-wave (km/s) = 8.51186 9.17645 8.85039
#
# Compressibility (1/GPa) = 0.00969533
#
# Stress axis : x y z
#
# Youngs Moduli (GPa) = 48.14871 48.14892 93.43347
#
# Poissons Ratio (x) = 0.76647 0.25013
# Poissons Ratio (y) = 0.76647 0.25011
# Poissons Ratio (z) = 0.12890 0.12889
#
# Static dielectric constant tensor:
#      x y z
#    x 1.692730 0.000000 0.000000 
#    y 0.000000 1.692730 0.000000 
#    z 0.000000 0.000000 1.836960 
# 
# From -- ./inp_files/4795.got.cif
#   From: 2010.05.17/outbox.cif.g08.bks.cpg/sg139_3_cif.got.tgz:4795.got - 2010.05.20 13:14:44.
