data_PCOD9571392
_publ_section_title
;
Structure prediction by ZEFSAII (Michael W. Deem and Ramdas Pophale) SiO2 
 PCOD9571392
Probable space group: I 4/M M M
;
_chemical_formula_sum "Si O2"
_cell_formula_units_Z 160
_cell_length_a 18.663819
_cell_length_b 18.663819
_cell_length_c 23.070098
_cell_angle_alpha 90.000000
_cell_angle_beta 90.000000
_cell_angle_gamma 90.000000
_cell_volume 8036.195019
_symmetry_space_group_name_H-M "I 4/M M M"
_symmetry_group_IT_number 139
_symmetry_cell_setting 'tetragonal'
loop_
_space_group_symop_operation_xyz
x,y,z
-y,x,z
-x,-y,z
y,-x,z
x,-y,-z
-x,y,-z
y,x,-z
-y,-x,-z
-x,-y,-z
y,-x,-z
x,y,-z
-y,x,-z
-x,y,z
x,-y,z
-y,-x,z
y,x,z
1/2+x,1/2+y,1/2+z
1/2-y,1/2+x,1/2+z
1/2-x,1/2-y,1/2+z
1/2+y,1/2-x,1/2+z
1/2+x,1/2-y,1/2-z
1/2-x,1/2+y,1/2-z
1/2+y,1/2+x,1/2-z
1/2-y,1/2-x,1/2-z
1/2-x,1/2-y,1/2-z
1/2+y,1/2-x,1/2-z
1/2+x,1/2+y,1/2-z
1/2-y,1/2+x,1/2-z
1/2-x,1/2+y,1/2+z
1/2+x,1/2-y,1/2+z
1/2-y,1/2-x,1/2+z
1/2+y,1/2+x,1/2+z
loop_
_atom_site_type_symbol
_atom_site_label
_atom_site_fract_x
_atom_site_fract_y
_atom_site_fract_z
Si Si1 0.419879 0.691525 0.568978
Si Si2 0.194600 0.079159 0.267423
Si Si3 0.417504 0.302380 0.091908
Si Si4 0.153395 0.420577 0.297695
Si Si5 0.308517 0.191434 0.890829
O O1 0.426165 0.682224 0.500000
O O2 0.500000 0.701116 0.593143
O O3 0.377935 0.622066 0.592830
O O4 0.367118 0.758435 0.578291
O O5 0.141878 0.141878 0.248601
O O6 0.202440 0.083286 0.337334
O O7 0.270222 0.084860 0.235184
O O8 0.164728 0.000000 0.254752
O O9 0.500000 0.300599 0.073245
O O10 0.375029 0.375029 0.076199
O O11 0.367705 0.235593 0.073423
O O12 0.147436 0.500000 0.323469
O O13 0.093010 0.406991 0.250000
O O14 0.152521 0.355643 0.342475
O O15 0.253092 0.253092 0.868441
#
# Coordination Sequence:
#
# PCOD9571392 Si02
#       5
#    32  32  32  32  32
#     4   9  18  33  53  78 106 134 167 207 250 296
#     4   9  17  28  42  61  86 116 149 189 232 277
#     4   9  17  29  46  69  95 124 159 197 241 291
#     4  11  21  31  44  63  90 124 164 204 241 285
#     4  10  19  31  51  73  96 129 166 204 247 295
#
# _framework density 19.909921000000001
#
# number of rings (size 3 to 8) (size 9 to 14) (size 15 to 20)
#    0.000    2.400    2.000    1.200    0.000    1.600 
#    0.000    3.000    0.000    2.400    0.000    4.200 
#    0.000    0.000    0.000    7.800    0.000    0.200 
#
# Total GULP energy -446064.399744 kJ/mol
# GULP energy per Si atom -5575.804997 kJ/mol
# Density = 1.986461 g / cm^3
# Si number density = 19.909921 Si / 1000 Ang^3
#
#
#
# Elastic Constant Matrix: (Units=GPa)
#
#
# Indices 1 2 3 4 5 6 
#
# 1 140.8780 74.4436 5.0501 0.0000 0.0000 0.0000
# 2 74.4436 140.8768 5.0501 0.0000 0.0000 0.0000
# 3 5.0501 5.0501 23.4363 0.0000 0.0000 0.0000
# 4 0.0000 0.0000 0.0000 10.3056 0.0000 0.0000
# 5 0.0000 0.0000 0.0000 0.0000 10.3057 0.0000
# 6 0.0000 0.0000 0.0000 0.0000 0.0000 17.7710
#
#
#
# Elastic Compliance Matrix: (Units=1/GPa)
#
#
# Indices 1 2 3 4 5 6 
#
# 1 0.009872 -0.005180 -0.001011 0.000000 0.000000 0.000000
# 2 -0.005180 0.009872 -0.001011 0.000000 0.000000 0.000000
# 3 -0.001011 -0.001011 0.043105 0.000000 0.000000 0.000000
# 4 0.000000 0.000000 0.000000 0.097034 0.000000 0.000000
# 5 0.000000 0.000000 0.000000 0.000000 0.097033 0.000000
# 6 0.000000 0.000000 0.000000 0.000000 0.000000 0.056271
#
#
# Mechanical properties :
#
#
# Convention : Reuss Voigt Hill
#
# Bulk Modulus (GPa) = 20.64241 52.69764 36.67003
# Shear Modulus (GPa) = 14.54584 22.38629 18.46607
#
# Velocity S-wave (km/s) = 2.70586 3.35681 3.04876
# Velocity P-wave (km/s) = 4.48917 6.44591 5.55439
#
# Compressibility (1/GPa) = 0.04844396
#
# Stress axis : x y z
#
# Youngs Moduli (GPa) = 101.29588 101.29504 23.19941
#
# Poissons Ratio (x) = 0.52475 0.02345
# Poissons Ratio (y) = 0.52476 0.02345
# Poissons Ratio (z) = 0.10241 0.10241
#
# Static dielectric constant tensor:
#      x y z
#    x 1.703100 0.000000 0.000000 
#    y 0.000000 1.703100 0.000000 
#    z 0.000000 0.000000 1.742780 
# 
# From -- ./inp_files/12923.got.cif
#   From: 2010.05.17/outbox.cif.g08.bks.cpg/sg139_7_cif.got.tgz:12923.got - 2010.05.20 13:14:44.
