data_PCOD9571913
_publ_section_title
;
Structure prediction by ZEFSAII (Michael W. Deem and Ramdas Pophale) SiO2 
 PCOD9571913
Probable space group: I 4/M M M
;
_chemical_formula_sum "Si O2"
_cell_formula_units_Z 128
_cell_length_a 22.629829
_cell_length_b 22.629829
_cell_length_c 14.183637
_cell_angle_alpha 90.000000
_cell_angle_beta 90.000000
_cell_angle_gamma 90.000000
_cell_volume 7263.570438
_symmetry_space_group_name_H-M "I 4/M M M"
_symmetry_group_IT_number 139
_symmetry_cell_setting 'tetragonal'
loop_
_space_group_symop_operation_xyz
x,y,z
-y,x,z
-x,-y,z
y,-x,z
x,-y,-z
-x,y,-z
y,x,-z
-y,-x,-z
-x,-y,-z
y,-x,-z
x,y,-z
-y,x,-z
-x,y,z
x,-y,z
-y,-x,z
y,x,z
1/2+x,1/2+y,1/2+z
1/2-y,1/2+x,1/2+z
1/2-x,1/2-y,1/2+z
1/2+y,1/2-x,1/2+z
1/2+x,1/2-y,1/2-z
1/2-x,1/2+y,1/2-z
1/2+y,1/2+x,1/2-z
1/2-y,1/2-x,1/2-z
1/2-x,1/2-y,1/2-z
1/2+y,1/2-x,1/2-z
1/2+x,1/2+y,1/2-z
1/2-y,1/2+x,1/2-z
1/2-x,1/2+y,1/2+z
1/2+x,1/2-y,1/2+z
1/2-y,1/2-x,1/2+z
1/2+y,1/2+x,1/2+z
loop_
_atom_site_type_symbol
_atom_site_label
_atom_site_fract_x
_atom_site_fract_y
_atom_site_fract_z
Si Si1 0.744205 0.744205 0.862779
Si Si2 0.767677 0.933029 0.721420
Si Si3 0.800198 0.624367 0.393282
Si Si4 0.853825 0.146176 0.391615
Si Si5 0.066076 0.644923 0.386753
O O1 0.750000 0.750000 0.750000
O O2 0.719401 0.807060 0.896276
O O3 0.696432 0.696432 0.891985
O O4 0.743483 0.902574 0.815993
O O5 0.823180 0.904890 0.668967
O O6 0.711804 0.930447 0.650483
O O7 0.780706 0.000000 0.744665
O O8 0.794734 0.600471 0.500000
O O9 0.869401 0.617229 0.361988
O O10 0.868930 0.131071 0.500000
O O11 0.065613 0.644410 0.500000
O O12 0.000000 0.621874 0.356002
#
# Coordination Sequence:
#
# PCOD9571913 Si02
#       5
#    16  32  32  16  32
#     4  12  18  31  53  80 113 142 171 217 283 339
#     4  11  22  35  52  77 109 144 182 225 274 327
#     4  11  20  32  51  75 108 147 184 226 274 327
#     4  12  22  35  56  82 111 141 175 221 274 334
#     4   9  17  29  47  73 105 142 182 222 267 318
#
# _framework density 17.622187
#
# number of rings (size 3 to 8) (size 9 to 14) (size 15 to 20)
#    0.000    1.250    5.000    2.625    0.000    2.000 
#    0.000    0.000    0.000    1.125    0.000    7.875 
#    0.000    0.000    0.000    7.625    0.000    0.000 
#
# Total GULP energy -356565.547089 kJ/mol
# GULP energy per Si atom -5571.336673 kJ/mol
# Density = 1.758208 g / cm^3
# Si number density = 17.622187 Si / 1000 Ang^3
#
#
#
# Elastic Constant Matrix: (Units=GPa)
#
#
# Indices 1 2 3 4 5 6 
#
# 1 54.5589 13.4566 8.5749 0.0000 0.0000 0.0000
# 2 13.4566 54.5593 8.5750 0.0000 0.0000 0.0000
# 3 8.5749 8.5750 73.5467 0.0000 0.0000 0.0000
# 4 0.0000 0.0000 0.0000 -9.0537 0.0000 0.0000
# 5 0.0000 0.0000 0.0000 0.0000 -9.0538 0.0000
# 6 0.0000 0.0000 0.0000 0.0000 0.0000 10.6667
#
#
#
# Elastic Compliance Matrix: (Units=1/GPa)
#
#
# Indices 1 2 3 4 5 6 
#
# 1 0.019739 -0.004591 -0.001766 0.000000 0.000000 0.000000
# 2 -0.004591 0.019739 -0.001766 0.000000 0.000000 0.000000
# 3 -0.001766 -0.001766 0.014009 0.000000 0.000000 0.000000
# 4 0.000000 0.000000 0.000000 -0.110452 0.000000 0.000000
# 5 0.000000 0.000000 0.000000 0.000000 -0.110451 0.000000
# 6 0.000000 0.000000 0.000000 0.000000 0.000000 0.093750
#
#
# Mechanical properties :
#
#
# Convention : Reuss Voigt Hill
#
# Bulk Modulus (GPa) = 26.85299 27.09754 26.97527
# Shear Modulus (GPa) = -111.09199 8.64906 -51.22147
#
# Velocity S-wave (km/s) = -7.94845 2.21782 -5.39718
# Velocity P-wave (km/s) = 8.30457 4.68707 4.84754
#
# Compressibility (1/GPa) = 0.03723980
#
# Stress axis : x y z
#
# Youngs Moduli (GPa) = 50.66194 50.66225 71.38459
#
# Poissons Ratio (x) = 0.23258 0.12607
# Poissons Ratio (y) = 0.23258 0.12607
# Poissons Ratio (z) = 0.08947 0.08948
#
# Static dielectric constant tensor:
#      x y z
#    x 1.610940 0.000000 0.000000 
#    y 0.000000 1.610940 0.000000 
#    z 0.000000 0.000000 1.668250 
# 
# From -- ./inp_files/5427.got.cif
#   From: 2010.05.17/outbox.cif.g08.bks.cpg/sg139_3_cif.got.tgz:5427.got - 2010.05.20 13:14:44.
