data_PCOD9571557
_publ_section_title
;
Structure prediction by ZEFSAII (Michael W. Deem and Ramdas Pophale) SiO2 
 PCOD9571557
Probable space group: I 4/M M M
;
_chemical_formula_sum "Si O2"
_cell_formula_units_Z 160
_cell_length_a 18.343211
_cell_length_b 18.343211
_cell_length_c 26.893862
_cell_angle_alpha 90.000000
_cell_angle_beta 90.000000
_cell_angle_gamma 90.000000
_cell_volume 9049.068912
_symmetry_space_group_name_H-M "I 4/M M M"
_symmetry_group_IT_number 139
_symmetry_cell_setting 'tetragonal'
loop_
_space_group_symop_operation_xyz
x,y,z
-y,x,z
-x,-y,z
y,-x,z
x,-y,-z
-x,y,-z
y,x,-z
-y,-x,-z
-x,-y,-z
y,-x,-z
x,y,-z
-y,x,-z
-x,y,z
x,-y,z
-y,-x,z
y,x,z
1/2+x,1/2+y,1/2+z
1/2-y,1/2+x,1/2+z
1/2-x,1/2-y,1/2+z
1/2+y,1/2-x,1/2+z
1/2+x,1/2-y,1/2-z
1/2-x,1/2+y,1/2-z
1/2+y,1/2+x,1/2-z
1/2-y,1/2-x,1/2-z
1/2-x,1/2-y,1/2-z
1/2+y,1/2-x,1/2-z
1/2+x,1/2+y,1/2-z
1/2-y,1/2+x,1/2-z
1/2-x,1/2+y,1/2+z
1/2+x,1/2-y,1/2+z
1/2-y,1/2-x,1/2+z
1/2+y,1/2+x,1/2+z
loop_
_atom_site_type_symbol
_atom_site_label
_atom_site_fract_x
_atom_site_fract_y
_atom_site_fract_z
Si Si1 0.084470 0.203581 0.412180
Si Si2 0.080673 0.349845 0.157239
Si Si3 0.132258 0.412813 0.944934
Si Si4 0.639638 0.757230 0.192889
Si Si5 0.301714 0.581040 0.702355
O O1 0.140154 0.140154 0.427153
O O2 0.100341 0.280874 0.438539
O O3 0.098140 0.220585 0.353611
O O4 0.000000 0.184740 0.420676
O O5 0.092087 0.375679 0.100978
O O6 0.155821 0.369724 0.185939
O O7 0.080297 0.263000 0.162755
O O8 0.000000 0.375298 0.175335
O O9 0.121954 0.500000 0.940617
O O10 0.108739 0.389908 0.000000
O O11 0.722241 0.722241 0.190880
O O12 0.606724 0.732823 0.245170
O O13 0.330683 0.500000 0.709076
O O14 0.363562 0.636439 0.687931
#
# Coordination Sequence:
#
# PCOD9571557 Si02
#       5
#    32  32  32  32  32
#     4   9  17  29  47  72 100 130 165 203 243 289
#     4  10  20  32  49  75 102 127 161 203 244 291
#     4   9  19  36  54  70  93 127 164 203 248 295
#     4   9  17  32  52  71  98 137 172 200 235 281
#     4  10  20  34  53  76 102 132 165 201 241 285
#
# _framework density 17.681377000000001
#
# number of rings (size 3 to 8) (size 9 to 14) (size 15 to 20)
#    0.000    2.600    0.000    1.800    0.000    4.800 
#    0.000    2.000    0.000    4.800    0.000    2.800 
#    0.000    0.000    0.000    4.400    0.000    0.000 
#
# Total GULP energy -445844.287508 kJ/mol
# GULP energy per Si atom -5573.053594 kJ/mol
# Density = 1.764113 g / cm^3
# Si number density = 17.681377 Si / 1000 Ang^3
#
#
#
# Elastic Constant Matrix: (Units=GPa)
#
#
# Indices 1 2 3 4 5 6 
#
# 1 64.3157 17.2810 5.6026 0.0000 0.0000 0.0000
# 2 17.2810 64.3157 5.6026 0.0000 0.0000 0.0000
# 3 5.6026 5.6026 56.2774 0.0000 0.0000 0.0000
# 4 0.0000 0.0000 0.0000 11.3055 0.0000 0.0000
# 5 0.0000 0.0000 0.0000 0.0000 11.3055 0.0000
# 6 0.0000 0.0000 0.0000 0.0000 0.0000 11.2214
#
#
#
# Elastic Compliance Matrix: (Units=1/GPa)
#
#
# Indices 1 2 3 4 5 6 
#
# 1 0.016843 -0.004418 -0.001237 0.000000 0.000000 0.000000
# 2 -0.004418 0.016843 -0.001237 0.000000 0.000000 0.000000
# 3 -0.001237 -0.001237 0.018015 0.000000 0.000000 0.000000
# 4 0.000000 0.000000 0.000000 0.088453 0.000000 0.000000
# 5 0.000000 0.000000 0.000000 0.000000 0.088453 0.000000
# 6 0.000000 0.000000 0.000000 0.000000 0.000000 0.089116
#
#
# Mechanical properties :
#
#
# Convention : Reuss Voigt Hill
#
# Bulk Modulus (GPa) = 26.37269 26.87570 26.62420
# Shear Modulus (GPa) = 14.52874 17.19464 15.86169
#
# Velocity S-wave (km/s) = 2.86964 3.12183 2.99839
# Velocity P-wave (km/s) = 5.09192 5.31295 5.20361
#
# Compressibility (1/GPa) = 0.03791802
#
# Stress axis : x y z
#
# Youngs Moduli (GPa) = 59.37160 59.37160 55.50798
#
# Poissons Ratio (x) = 0.26229 0.06866
# Poissons Ratio (y) = 0.26229 0.06866
# Poissons Ratio (z) = 0.07344 0.07344
#
# Static dielectric constant tensor:
#      x y z
#    x 1.618730 0.000000 0.000000 
#    y 0.000000 1.618730 0.000000 
#    z 0.000000 0.000000 1.598640 
# 
# From -- ./inp_files/12900.got.cif
#   From: 2010.05.17/outbox.cif.g08.bks.cpg/sg139_7_cif.got.tgz:12900.got - 2010.05.20 13:14:44.
