data_PCOD9571448
_publ_section_title
;
Structure prediction by ZEFSAII (Michael W. Deem and Ramdas Pophale) SiO2 
 PCOD9571448
Probable space group: I 4/M M M
;
_chemical_formula_sum "Si O2"
_cell_formula_units_Z 128
_cell_length_a 19.968634
_cell_length_b 19.968634
_cell_length_c 20.965675
_cell_angle_alpha 90.000000
_cell_angle_beta 90.000000
_cell_angle_gamma 90.000000
_cell_volume 8359.986252
_symmetry_space_group_name_H-M "I 4/M M M"
_symmetry_group_IT_number 139
_symmetry_cell_setting 'tetragonal'
loop_
_space_group_symop_operation_xyz
x,y,z
-y,x,z
-x,-y,z
y,-x,z
x,-y,-z
-x,y,-z
y,x,-z
-y,-x,-z
-x,-y,-z
y,-x,-z
x,y,-z
-y,x,-z
-x,y,z
x,-y,z
-y,-x,z
y,x,z
1/2+x,1/2+y,1/2+z
1/2-y,1/2+x,1/2+z
1/2-x,1/2-y,1/2+z
1/2+y,1/2-x,1/2+z
1/2+x,1/2-y,1/2-z
1/2-x,1/2+y,1/2-z
1/2+y,1/2+x,1/2-z
1/2-y,1/2-x,1/2-z
1/2-x,1/2-y,1/2-z
1/2+y,1/2-x,1/2-z
1/2+x,1/2+y,1/2-z
1/2-y,1/2+x,1/2-z
1/2-x,1/2+y,1/2+z
1/2+x,1/2-y,1/2+z
1/2-y,1/2-x,1/2+z
1/2+y,1/2+x,1/2+z
loop_
_atom_site_type_symbol
_atom_site_label
_atom_site_fract_x
_atom_site_fract_y
_atom_site_fract_z
Si Si1 0.580353 0.173511 0.928852
Si Si2 0.579831 0.310741 0.137793
Si Si3 0.131921 0.422814 0.682349
Si Si4 0.642337 0.745625 0.268575
O O1 0.500000 0.167373 0.928042
O O2 0.595259 0.250643 0.911294
O O3 0.607332 0.125540 0.873650
O O4 0.604629 0.157039 0.000000
O O5 0.500000 0.322353 0.138730
O O6 0.623271 0.376729 0.124146
O O7 0.605185 0.281729 0.205832
O O8 0.117481 0.500000 0.669042
O O9 0.097569 0.402432 0.750000
O O10 0.211267 0.409425 0.690805
O O11 0.683740 0.683740 0.298007
O O12 0.699145 0.800856 0.250000
#
# Coordination Sequence:
#
# PCOD9571448 Si02
#       4
#    32  32  32  32
#     4  10  21  35  48  66  97 134 167 201 248 300
#     4  10  19  33  52  74 101 132 167 208 251 296
#     4  11  20  31  50  74  98 125 165 210 251 294
#     4   9  16  28  49  73  96 123 159 203 247 290
#
# _framework density 15.311031
#
# number of rings (size 3 to 8) (size 9 to 14) (size 15 to 20)
#    0.000    2.000    5.000    1.500    0.000    3.000 
#    0.000    1.250    0.000    0.000    0.000    3.500 
#    0.000    0.000    0.000    0.000    0.000    0.000 
#
# Total GULP energy -356422.058321 kJ/mol
# GULP energy per Si atom -5569.094661 kJ/mol
# Density = 1.527618 g / cm^3
# Si number density = 15.311031 Si / 1000 Ang^3
#
#
#
# Elastic Constant Matrix: (Units=GPa)
#
#
# Indices 1 2 3 4 5 6 
#
# 1 85.1323 37.9867 41.4915 0.0000 0.0000 0.0000
# 2 37.9867 85.1426 41.4900 0.0000 0.0000 0.0000
# 3 41.4915 41.4900 92.7363 0.0000 0.0000 0.0000
# 4 0.0000 0.0000 0.0000 12.9673 0.0000 0.0000
# 5 0.0000 0.0000 0.0000 0.0000 12.9673 0.0000
# 6 0.0000 0.0000 0.0000 0.0000 0.0000 13.9758
#
#
#
# Elastic Compliance Matrix: (Units=1/GPa)
#
#
# Indices 1 2 3 4 5 6 
#
# 1 0.016420 -0.004790 -0.005203 0.000000 0.000000 0.000000
# 2 -0.004790 0.016417 -0.005202 0.000000 0.000000 0.000000
# 3 -0.005203 -0.005202 0.015439 0.000000 0.000000 0.000000
# 4 0.000000 0.000000 0.000000 0.077117 0.000000 0.000000
# 5 0.000000 0.000000 0.000000 0.000000 0.077117 0.000000
# 6 0.000000 0.000000 0.000000 0.000000 0.000000 0.071552
#
#
# Mechanical properties :
#
#
# Convention : Reuss Voigt Hill
#
# Bulk Modulus (GPa) = 55.91324 56.10530 56.00927
# Shear Modulus (GPa) = 16.10751 17.45159 16.77955
#
# Velocity S-wave (km/s) = 3.24700 3.37976 3.31405
# Velocity P-wave (km/s) = 7.11723 7.20789 7.16270
#
# Compressibility (1/GPa) = 0.01788485
#
# Stress axis : x y z
#
# Youngs Moduli (GPa) = 60.90192 60.91260 64.77289
#
# Poissons Ratio (x) = 0.29178 0.33704
# Poissons Ratio (y) = 0.29173 0.33693
# Poissons Ratio (z) = 0.31689 0.31685
#
# Static dielectric constant tensor:
#      x y z
#    x 1.526060 0.000000 0.000000 
#    y 0.000000 1.526060 0.000000 
#    z 0.000000 0.000000 1.505380 
# 
# From -- ./inp_files/7955.got.cif
#   From: 2010.05.17/outbox.cif.g08.bks.cpg/sg139_4_cif.got.tgz:7955.got - 2010.05.20 13:14:44.
