data_PCOD9571721
_publ_section_title
;
Structure prediction by ZEFSAII (Michael W. Deem and Ramdas Pophale) SiO2 
 PCOD9571721
Probable space group: I 4/M M M
;
_chemical_formula_sum "Si O2"
_cell_formula_units_Z 104
_cell_length_a 26.597001
_cell_length_b 26.597001
_cell_length_c 8.046819
_cell_angle_alpha 90.000000
_cell_angle_beta 90.000000
_cell_angle_gamma 90.000000
_cell_volume 5692.323480
_symmetry_space_group_name_H-M "I 4/M M M"
_symmetry_group_IT_number 139
_symmetry_cell_setting 'tetragonal'
loop_
_space_group_symop_operation_xyz
x,y,z
-y,x,z
-x,-y,z
y,-x,z
x,-y,-z
-x,y,-z
y,x,-z
-y,-x,-z
-x,-y,-z
y,-x,-z
x,y,-z
-y,x,-z
-x,y,z
x,-y,z
-y,-x,z
y,x,z
1/2+x,1/2+y,1/2+z
1/2-y,1/2+x,1/2+z
1/2-x,1/2-y,1/2+z
1/2+y,1/2-x,1/2+z
1/2+x,1/2-y,1/2-z
1/2-x,1/2+y,1/2-z
1/2+y,1/2+x,1/2-z
1/2-y,1/2-x,1/2-z
1/2-x,1/2-y,1/2-z
1/2+y,1/2-x,1/2-z
1/2+x,1/2+y,1/2-z
1/2-y,1/2+x,1/2-z
1/2-x,1/2+y,1/2+z
1/2+x,1/2-y,1/2+z
1/2-y,1/2-x,1/2+z
1/2+y,1/2+x,1/2+z
loop_
_atom_site_type_symbol
_atom_site_label
_atom_site_fract_x
_atom_site_fract_y
_atom_site_fract_z
Si Si1 0.643808 0.500000 0.000000
Si Si2 0.805341 0.891959 0.500000
Si Si3 0.361670 0.056810 0.302164
Si Si4 0.583865 0.500000 0.331174
Si Si5 0.440330 0.251904 0.306716
O O1 0.667671 0.445502 0.000000
O O2 0.612969 0.500000 0.166333
O O3 0.844511 0.844511 0.500000
O O4 0.773996 0.900182 0.327170
O O5 0.352115 0.060321 0.500000
O O6 0.402069 0.097932 0.250000
O O7 0.308368 0.063254 0.211357
O O8 0.379866 0.000000 0.266755
O O9 0.547857 0.547857 0.332990
O O10 0.615527 0.500000 0.500000
O O11 0.431649 0.266441 0.500000
O O12 0.500000 0.264234 0.265350
#
# Coordination Sequence:
#
# PCOD9571721 Si02
#       5
#     8  16  32  16  32
#     4  12  22  35  54  76 108 142 185 240 314 366
#     4  12  24  38  60  87 115 150 203 259 312 371
#     4  10  20  35  60  94 132 170 207 246 290 351
#     4   9  18  32  48  68 100 142 182 223 282 358
#     4  10  20  39  63  86 118 160 208 251 299 364
#
# _framework density 18.270220999999999
#
# number of rings (size 3 to 8) (size 9 to 14) (size 15 to 20)
#    0.000    1.692    3.077    2.769    0.000    4.615 
#    0.000    1.538    0.000    0.923    0.000    0.000 
#    0.000    0.000    0.000    0.000    0.000    0.000 
#
# Total GULP energy -289551.751221 kJ/mol
# GULP energy per Si atom -5568.302908 kJ/mol
# Density = 1.822864 g / cm^3
# Si number density = 18.270221 Si / 1000 Ang^3
#
#
#
# Elastic Constant Matrix: (Units=GPa)
#
#
# Indices 1 2 3 4 5 6 
#
# 1 72.9549 45.0790 37.3599 0.0000 0.0000 0.0000
# 2 45.0790 72.9519 37.3565 0.0000 0.0000 0.0000
# 3 37.3599 37.3565 122.2675 0.0000 0.0000 0.0000
# 4 0.0000 0.0000 0.0000 25.4306 0.0000 0.0000
# 5 0.0000 0.0000 0.0000 0.0000 25.4314 0.0000
# 6 0.0000 0.0000 0.0000 0.0000 0.0000 31.1468
#
#
#
# Elastic Compliance Matrix: (Units=1/GPa)
#
#
# Indices 1 2 3 4 5 6 
#
# 1 0.023189 -0.012686 -0.003210 0.000000 0.000000 0.000000
# 2 -0.012686 0.023190 -0.003209 0.000000 0.000000 0.000000
# 3 -0.003210 -0.003209 0.010140 0.000000 0.000000 0.000000
# 4 0.000000 0.000000 0.000000 0.039323 0.000000 0.000000
# 5 0.000000 0.000000 0.000000 0.000000 0.039321 0.000000
# 6 0.000000 0.000000 0.000000 0.000000 0.000000 0.032106
#
#
# Mechanical properties :
#
#
# Convention : Reuss Voigt Hill
#
# Bulk Modulus (GPa) = 54.61457 56.41834 55.51645
# Shear Modulus (GPa) = 23.63155 26.29369 24.96262
#
# Velocity S-wave (km/s) = 3.60035 3.79774 3.70036
# Velocity P-wave (km/s) = 6.87321 7.08360 6.97920
#
# Compressibility (1/GPa) = 0.01831013
#
# Stress axis : x y z
#
# Youngs Moduli (GPa) = 43.12325 43.12262 98.61916
#
# Poissons Ratio (x) = 0.54704 0.31655
# Poissons Ratio (y) = 0.54705 0.31646
# Poissons Ratio (z) = 0.13842 0.13838
#
# Static dielectric constant tensor:
#      x y z
#    x 1.665220 0.000000 0.000000 
#    y 0.000000 1.665220 0.000000 
#    z 0.000000 0.000000 1.801070 
# 
# From -- ./inp_files/1452.got.cif
#   From: 2010.05.17/outbox.cif.g08.bks.cpg/sg139_1_cif.got.tgz:1452.got - 2010.05.20 13:14:44.
