data_PCOD9571565
_publ_section_title
;
Structure prediction by ZEFSAII (Michael W. Deem and Ramdas Pophale) SiO2 
 PCOD9571565
Probable space group: I 4/M M M
;
_chemical_formula_sum "Si O2"
_cell_formula_units_Z 240
_cell_length_a 21.065886
_cell_length_b 21.065886
_cell_length_c 25.347192
_cell_angle_alpha 90.000000
_cell_angle_beta 90.000000
_cell_angle_gamma 90.000000
_cell_volume 11248.362757
_symmetry_space_group_name_H-M "I 4/M M M"
_symmetry_group_IT_number 139
_symmetry_cell_setting 'tetragonal'
loop_
_space_group_symop_operation_xyz
x,y,z
-y,x,z
-x,-y,z
y,-x,z
x,-y,-z
-x,y,-z
y,x,-z
-y,-x,-z
-x,-y,-z
y,-x,-z
x,y,-z
-y,x,-z
-x,y,z
x,-y,z
-y,-x,z
y,x,z
1/2+x,1/2+y,1/2+z
1/2-y,1/2+x,1/2+z
1/2-x,1/2-y,1/2+z
1/2+y,1/2-x,1/2+z
1/2+x,1/2-y,1/2-z
1/2-x,1/2+y,1/2-z
1/2+y,1/2+x,1/2-z
1/2-y,1/2-x,1/2-z
1/2-x,1/2-y,1/2-z
1/2+y,1/2-x,1/2-z
1/2+x,1/2+y,1/2-z
1/2-y,1/2+x,1/2-z
1/2-x,1/2+y,1/2+z
1/2+x,1/2-y,1/2+z
1/2-y,1/2-x,1/2+z
1/2+y,1/2+x,1/2+z
loop_
_atom_site_type_symbol
_atom_site_label
_atom_site_fract_x
_atom_site_fract_y
_atom_site_fract_z
Si Si1 0.573470 0.330421 0.500000
Si Si2 0.792165 0.894949 0.440853
Si Si3 0.360257 0.892946 0.441943
Si Si4 0.074847 0.176342 0.120580
Si Si5 0.073101 0.426971 0.835698
Si Si6 0.768797 0.332092 0.608149
Si Si7 0.072046 0.823460 0.677195
Si Si8 0.855215 0.697827 0.700478
O O1 0.500000 0.325874 0.500000
O O2 0.597429 0.402571 0.500000
O O3 0.590524 0.307806 0.441528
O O4 0.810315 0.918959 0.500000
O O5 0.823492 0.823492 0.439821
O O6 0.715846 0.904173 0.438382
O O7 0.817594 0.925789 0.387020
O O8 0.381575 0.911392 0.500000
O O9 0.402378 0.923524 0.396331
O O10 0.363238 0.817118 0.432893
O O11 0.110225 0.110225 0.132512
O O12 0.114944 0.233771 0.144608
O O13 0.000000 0.175387 0.129140
O O14 0.073529 0.500000 0.817994
O O15 0.129286 0.389202 0.806845
O O16 0.000000 0.403398 0.831188
O O17 0.716836 0.283165 0.586814
O O18 0.813743 0.293614 0.647988
O O19 0.121336 0.878665 0.692348
O O20 0.096512 0.756508 0.700905
O O21 0.000000 0.836167 0.693719
O O22 0.809464 0.690537 0.750000
#
# Coordination Sequence:
#
# PCOD9571565 Si02
#       8
#    16  32  32  32  32  32  32  32
#     4   8  14  25  40  62  92 134 185 231 280 332
#     4   9  17  32  57  90 126 165 210 256 303 360
#     4  10  20  32  52  82 117 160 201 242 290 353
#     4   9  18  31  47  70 103 145 191 239 291 346
#     4  10  22  40  59  83 119 157 198 250 303 361
#     4  10  20  34  54  81 114 146 182 237 299 359
#     4  11  23  41  66  97 133 170 211 260 314 377
#     4  11  24  42  67  92 117 153 201 257 316 376
#
# _framework density 21.336438000000001
#
# number of rings (size 3 to 8) (size 9 to 14) (size 15 to 20)
#    0.000    2.133    2.667    1.200    0.933    6.200 
#    0.000    4.000    0.000    0.000    0.000    1.867 
#    0.000    2.133    0.000    0.000    0.000    0.000 
#
# Total GULP energy -668202.871722 kJ/mol
# GULP energy per Si atom -5568.357264 kJ/mol
# Density = 2.128788 g / cm^3
# Si number density = 21.336438 Si / 1000 Ang^3
#
#
#
# Elastic Constant Matrix: (Units=GPa)
#
#
# Indices 1 2 3 4 5 6 
#
# 1 104.6725 36.4509 -6.7395 0.0000 0.0000 0.0000
# 2 36.4509 104.6718 -6.7394 0.0000 0.0000 0.0000
# 3 -6.7395 -6.7394 56.9582 0.0000 0.0000 0.0000
# 4 0.0000 0.0000 0.0000 0.4622 0.0000 0.0000
# 5 0.0000 0.0000 0.0000 0.0000 0.4622 0.0000
# 6 0.0000 0.0000 0.0000 0.0000 0.0000 22.9434
#
#
#
# Elastic Compliance Matrix: (Units=1/GPa)
#
#
# Indices 1 2 3 4 5 6 
#
# 1 0.010913 -0.003746 0.000848 0.000000 0.000000 0.000000
# 2 -0.003746 0.010913 0.000848 0.000000 0.000000 0.000000
# 3 0.000848 0.000848 0.017757 0.000000 0.000000 0.000000
# 4 0.000000 0.000000 0.000000 2.163418 -0.000004 0.000000
# 5 0.000000 0.000000 0.000000 -0.000004 2.163373 0.000000
# 6 0.000000 0.000000 0.000000 0.000000 0.000000 0.043585
#
#
# Mechanical properties :
#
#
# Convention : Reuss Voigt Hill
#
# Bulk Modulus (GPa) = 28.18209 34.69404 31.43806
# Shear Modulus (GPa) = 1.12972 20.99561 11.06267
#
# Velocity S-wave (km/s) = 0.72844 3.14032 2.27950
# Velocity P-wave (km/s) = 3.73425 5.42629 4.65775
#
# Compressibility (1/GPa) = 0.03548353
#
# Stress axis : x y z
#
# Youngs Moduli (GPa) = 91.63752 91.63688 56.31449
#
# Poissons Ratio (x) = 0.34323 -0.04776
# Poissons Ratio (y) = 0.34324 -0.04775
# Poissons Ratio (z) = -0.07771 -0.07771
#
# Static dielectric constant tensor:
#      x y z
#    x 1.810050 0.000000 0.000000 
#    y 0.000000 1.810050 0.000000 
#    z 0.000000 0.000000 1.908860 
# 
# From -- ./inp_files/13423.got.cif
#   From: 2010.05.17/outbox.cif.g08.bks.cpg/sg139_7_cif.got.tgz:13423.got - 2010.05.20 13:14:44.
