data_PCOD9571537
_publ_section_title
;
Structure prediction by ZEFSAII (Michael W. Deem and Ramdas Pophale) SiO2 
 PCOD9571537
Probable space group: I 4/M M M
;
_chemical_formula_sum "Si O2"
_cell_formula_units_Z 96
_cell_length_a 13.951168
_cell_length_b 13.951168
_cell_length_c 31.155496
_cell_angle_alpha 90.000000
_cell_angle_beta 90.000000
_cell_angle_gamma 90.000000
_cell_volume 6063.952723
_symmetry_space_group_name_H-M "I 4/M M M"
_symmetry_group_IT_number 139
_symmetry_cell_setting 'tetragonal'
loop_
_space_group_symop_operation_xyz
x,y,z
-y,x,z
-x,-y,z
y,-x,z
x,-y,-z
-x,y,-z
y,x,-z
-y,-x,-z
-x,-y,-z
y,-x,-z
x,y,-z
-y,x,-z
-x,y,z
x,-y,z
-y,-x,z
y,x,z
1/2+x,1/2+y,1/2+z
1/2-y,1/2+x,1/2+z
1/2-x,1/2-y,1/2+z
1/2+y,1/2-x,1/2+z
1/2+x,1/2-y,1/2-z
1/2-x,1/2+y,1/2-z
1/2+y,1/2+x,1/2-z
1/2-y,1/2-x,1/2-z
1/2-x,1/2-y,1/2-z
1/2+y,1/2-x,1/2-z
1/2+x,1/2+y,1/2-z
1/2-y,1/2+x,1/2-z
1/2-x,1/2+y,1/2+z
1/2+x,1/2-y,1/2+z
1/2-y,1/2-x,1/2+z
1/2+y,1/2+x,1/2+z
loop_
_atom_site_type_symbol
_atom_site_label
_atom_site_fract_x
_atom_site_fract_y
_atom_site_fract_z
Si Si1 0.114080 0.270706 0.381520
Si Si2 0.110041 0.383562 0.797407
Si Si3 0.387997 0.769903 0.449406
O O1 0.171729 0.171729 0.385075
O O2 0.142621 0.323028 0.337006
O O3 0.149958 0.338987 0.419946
O O4 0.000000 0.258527 0.382418
O O5 0.106912 0.500000 0.796104
O O6 0.145455 0.354546 0.750000
O O7 0.000000 0.350737 0.803975
O O8 0.379437 0.793375 0.500000
O O9 0.500000 0.758776 0.439291
O O10 0.327417 0.672584 0.442087
#
# Coordination Sequence:
#
# PCOD9571537 Si02
#       3
#    32  32  32
#     4  10  20  32  46  65  90 122 160 198 232 266
#     4   8  14  26  45  68  91 113 141 182 231 280
#     4   9  18  32  50  73  98 121 146 178 220 273
#
# _framework density 15.831258
#
# number of rings (size 3 to 8) (size 9 to 14) (size 15 to 20)
#    0.000    3.000    0.000    2.000    0.000    4.000 
#    0.000    3.333    0.000    0.000    0.000    4.667 
#    0.000    8.000    0.000    0.000    0.000    0.000 
#
# Total GULP energy -267307.094990 kJ/mol
# GULP energy per Si atom -5568.897812 kJ/mol
# Density = 1.579523 g / cm^3
# Si number density = 15.831258 Si / 1000 Ang^3
#
#
#
# Elastic Constant Matrix: (Units=GPa)
#
#
# Indices 1 2 3 4 5 6 
#
# 1 91.1508 48.1212 54.5699 0.0000 0.0000 0.0000
# 2 48.1212 91.1511 54.5698 0.0000 0.0000 0.0000
# 3 54.5699 54.5698 81.8665 0.0000 0.0000 0.0000
# 4 0.0000 0.0000 0.0000 20.5954 0.0000 0.0000
# 5 0.0000 0.0000 0.0000 0.0000 20.5952 0.0000
# 6 0.0000 0.0000 0.0000 0.0000 0.0000 6.9239
#
#
#
# Elastic Compliance Matrix: (Units=1/GPa)
#
#
# Indices 1 2 3 4 5 6 
#
# 1 0.019136 -0.004104 -0.010020 0.000000 0.000000 0.000000
# 2 -0.004104 0.019136 -0.010020 0.000000 0.000000 0.000000
# 3 -0.010020 -0.010020 0.025573 0.000000 0.000000 0.000000
# 4 0.000000 0.000000 0.000000 0.048554 0.000000 0.000000
# 5 0.000000 0.000000 0.000000 0.000000 0.048555 0.000000
# 6 0.000000 0.000000 0.000000 0.000000 0.000000 0.144428
#
#
# Mechanical properties :
#
#
# Convention : Reuss Voigt Hill
#
# Bulk Modulus (GPa) = 64.27783 64.29892 64.28838
# Shear Modulus (GPa) = 13.93313 16.75006 15.34160
#
# Velocity S-wave (km/s) = 2.96987 3.25628 3.11637
# Velocity P-wave (km/s) = 7.24225 7.40548 7.32432
#
# Compressibility (1/GPa) = 0.01555746
#
# Stress axis : x y z
#
# Youngs Moduli (GPa) = 52.25709 52.25738 39.10315
#
# Poissons Ratio (x) = 0.21445 0.39182
# Poissons Ratio (y) = 0.21445 0.39182
# Poissons Ratio (z) = 0.52363 0.52363
#
# Static dielectric constant tensor:
#      x y z
#    x 1.507300 0.000000 0.000000 
#    y 0.000000 1.507300 0.000000 
#    z 0.000000 0.000000 1.549090 
# 
# From -- ./inp_files/13640.got.cif
#   From: 2010.05.17/outbox.cif.g08.bks.cpg/sg139_7_cif.got.tgz:13640.got - 2010.05.20 13:14:44.
