data_PCOD9571504
_publ_section_title
;
Structure prediction by ZEFSAII (Michael W. Deem and Ramdas Pophale) SiO2 
 PCOD9571504
Probable space group: I 4/M M M
;
_chemical_formula_sum "Si O2"
_cell_formula_units_Z 144
_cell_length_a 22.206047
_cell_length_b 22.206047
_cell_length_c 17.363738
_cell_angle_alpha 90.000000
_cell_angle_beta 90.000000
_cell_angle_gamma 90.000000
_cell_volume 8562.207205
_symmetry_space_group_name_H-M "I 4/M M M"
_symmetry_group_IT_number 139
_symmetry_cell_setting 'tetragonal'
loop_
_space_group_symop_operation_xyz
x,y,z
-y,x,z
-x,-y,z
y,-x,z
x,-y,-z
-x,y,-z
y,x,-z
-y,-x,-z
-x,-y,-z
y,-x,-z
x,y,-z
-y,x,-z
-x,y,z
x,-y,z
-y,-x,z
y,x,z
1/2+x,1/2+y,1/2+z
1/2-y,1/2+x,1/2+z
1/2-x,1/2-y,1/2+z
1/2+y,1/2-x,1/2+z
1/2+x,1/2-y,1/2-z
1/2-x,1/2+y,1/2-z
1/2+y,1/2+x,1/2-z
1/2-y,1/2-x,1/2-z
1/2-x,1/2-y,1/2-z
1/2+y,1/2-x,1/2-z
1/2+x,1/2+y,1/2-z
1/2-y,1/2+x,1/2-z
1/2-x,1/2+y,1/2+z
1/2+x,1/2-y,1/2+z
1/2-y,1/2-x,1/2+z
1/2+y,1/2+x,1/2+z
loop_
_atom_site_type_symbol
_atom_site_label
_atom_site_fract_x
_atom_site_fract_y
_atom_site_fract_z
Si Si1 0.718538 0.617213 0.685030
Si Si2 0.500000 0.142090 0.587697
Si Si3 0.211632 0.000000 0.910680
Si Si4 0.873068 0.642623 0.159651
Si Si5 0.569191 0.669192 0.000000
Si Si6 0.755858 0.428846 0.145768
O O1 0.672604 0.672604 0.682070
O O2 0.694566 0.560319 0.635790
O O3 0.784952 0.633957 0.652359
O O4 0.730169 0.596499 0.773343
O O5 0.500000 0.121861 0.500000
O O6 0.500000 0.215219 0.589484
O O7 0.437744 0.123939 0.627190
O O8 0.191984 0.000000 0.000000
O O9 0.871520 0.628481 0.250000
O O10 0.816817 0.606794 0.125531
O O11 0.578406 0.709360 0.923796
O O12 0.500000 0.648812 0.000000
O O13 0.614386 0.614386 0.000000
O O14 0.768414 0.500000 0.156421
#
# Coordination Sequence:
#
# PCOD9571504 Si02
#       6
#    32  16  16  32  16  32
#     4  10  19  34  57  82 109 142 181 223 269 321
#     4   9  18  34  55  76 107 147 186 219 264 317
#     4   9  18  34  54  79 113 146 177 215 267 325
#     4   9  20  32  55  80 111 145 185 224 269 318
#     4  10  22  37  56  81 107 139 177 223 280 332
#     4  10  20  36  56  77 109 147 179 219 276 329
#
# _framework density 16.818092
#
# number of rings (size 3 to 8) (size 9 to 14) (size 15 to 20)
#    0.000    2.444    1.111    0.667    6.222    5.444 
#    0.000    0.556    0.000    1.000    0.000    0.778 
#    0.000    0.000    0.000    0.000    0.000    0.000 
#
# Total GULP energy -401438.026929 kJ/mol
# GULP energy per Si atom -5575.528152 kJ/mol
# Density = 1.677981 g / cm^3
# Si number density = 16.818092 Si / 1000 Ang^3
#
#
#
# Elastic Constant Matrix: (Units=GPa)
#
#
# Indices 1 2 3 4 5 6 
#
# 1 118.6451 95.3742 48.3482 0.0000 0.0000 0.0000
# 2 95.3742 118.6449 48.3473 0.0000 0.0000 0.0000
# 3 48.3482 48.3473 58.2897 0.0000 0.0000 0.0000
# 4 0.0000 0.0000 0.0000 12.7969 0.0000 0.0000
# 5 0.0000 0.0000 0.0000 0.0000 12.7969 0.0000
# 6 0.0000 0.0000 0.0000 0.0000 0.0000 1.1942
#
#
#
# Elastic Compliance Matrix: (Units=1/GPa)
#
#
# Indices 1 2 3 4 5 6 
#
# 1 0.025223 -0.017750 -0.006199 0.000000 0.000000 0.000000
# 2 -0.017750 0.025222 -0.006198 0.000000 0.000000 0.000000
# 3 -0.006199 -0.006198 0.027438 0.000000 0.000000 0.000000
# 4 0.000000 0.000000 0.000000 0.078144 0.000000 0.000000
# 5 0.000000 0.000000 0.000000 0.000000 0.078144 0.000000
# 6 0.000000 0.000000 0.000000 0.000000 0.000000 0.837405
#
#
# Mechanical properties :
#
#
# Convention : Reuss Voigt Hill
#
# Bulk Modulus (GPa) = 56.84894 75.52436 66.18665
# Shear Modulus (GPa) = 4.39471 12.25825 8.32648
#
# Velocity S-wave (km/s) = 1.61826 2.70269 2.22748
# Velocity P-wave (km/s) = 6.11288 7.39889 6.78641
#
# Compressibility (1/GPa) = 0.01759048
#
# Stress axis : x y z
#
# Youngs Moduli (GPa) = 39.64659 39.64725 36.44583
#
# Poissons Ratio (x) = 0.70373 0.22592
# Poissons Ratio (y) = 0.70372 0.22589
# Poissons Ratio (z) = 0.24576 0.24573
#
# Static dielectric constant tensor:
#      x y z
#    x 1.556030 0.000000 0.000000 
#    y 0.000000 1.556030 0.000000 
#    z 0.000000 0.000000 1.569290 
# 
# From -- ./inp_files/8248.got.cif
#   From: 2010.05.17/outbox.cif.g08.bks.cpg/sg139_5_cif.got.tgz:8248.got - 2010.05.20 13:14:44.
