data_PCOD9571201
_publ_section_title
;
Structure prediction by ZEFSAII (Michael W. Deem and Ramdas Pophale) SiO2 
 PCOD9571201
Probable space group: I 4/M M M
;
_chemical_formula_sum "Si O2"
_cell_formula_units_Z 152
_cell_length_a 26.756079
_cell_length_b 26.756079
_cell_length_c 13.695678
_cell_angle_alpha 90.000000
_cell_angle_beta 90.000000
_cell_angle_gamma 90.000000
_cell_volume 9804.568292
_symmetry_space_group_name_H-M "I 4/M M M"
_symmetry_group_IT_number 139
_symmetry_cell_setting 'tetragonal'
loop_
_space_group_symop_operation_xyz
x,y,z
-y,x,z
-x,-y,z
y,-x,z
x,-y,-z
-x,y,-z
y,x,-z
-y,-x,-z
-x,-y,-z
y,-x,-z
x,y,-z
-y,x,-z
-x,y,z
x,-y,z
-y,-x,z
y,x,z
1/2+x,1/2+y,1/2+z
1/2-y,1/2+x,1/2+z
1/2-x,1/2-y,1/2+z
1/2+y,1/2-x,1/2+z
1/2+x,1/2-y,1/2-z
1/2-x,1/2+y,1/2-z
1/2+y,1/2+x,1/2-z
1/2-y,1/2-x,1/2-z
1/2-x,1/2-y,1/2-z
1/2+y,1/2-x,1/2-z
1/2+x,1/2+y,1/2-z
1/2-y,1/2+x,1/2-z
1/2-x,1/2+y,1/2+z
1/2+x,1/2-y,1/2+z
1/2-y,1/2-x,1/2+z
1/2+y,1/2+x,1/2+z
loop_
_atom_site_type_symbol
_atom_site_label
_atom_site_fract_x
_atom_site_fract_y
_atom_site_fract_z
Si Si1 0.902255 0.330583 0.813123
Si Si2 0.607567 0.000000 0.500000
Si Si3 0.691521 0.390248 0.113834
Si Si4 0.684089 0.000000 0.680010
Si Si5 0.000000 0.203262 0.386467
Si Si6 0.748117 0.669558 0.721549
Si Si7 0.440298 0.109088 0.500000
O O1 0.864943 0.364943 0.750000
O O2 0.871761 0.279669 0.837738
O O3 0.950888 0.319444 0.747448
O O4 0.918824 0.362204 0.906242
O O5 0.641652 0.000000 0.402764
O O6 0.576122 0.948836 0.500000
O O7 0.639873 0.360128 0.115870
O O8 0.685679 0.446537 0.152843
O O9 0.729438 0.359234 0.181203
O O10 0.708635 0.391851 0.000000
O O11 0.737174 0.000000 0.626011
O O12 0.000000 0.188715 0.500000
O O13 0.699761 0.699761 0.680484
O O14 0.787766 0.712235 0.750000
O O15 0.500000 0.112129 0.500000
#
# Coordination Sequence:
#
# PCOD9571201 Si02
#       7
#    32   8  32  16  16  32  16
#     4  11  22  37  55  74 102 130 164 213 255 301
#     4  12  25  38  56  74  96 134 176 219 254 298
#     4   9  17  29  47  71  99 130 165 204 246 293
#     4  12  20  34  54  78  99 125 172 212 253 291
#     4  10  18  28  48  76  99 127 166 209 243 291
#     4   9  18  33  49  69  99 130 158 195 248 304
#     4  12  25  40  55  75  97 132 173 212 264 306
#
# _framework density 15.502977
#
# number of rings (size 3 to 8) (size 9 to 14) (size 15 to 20)
#    0.000    1.684    5.789    0.158    0.000    0.000 
#    7.579    0.526    0.000    0.316    0.000    2.211 
#    0.000    0.000    0.000    0.000    0.000    0.000 
#
# Total GULP energy -423247.726382 kJ/mol
# GULP energy per Si atom -5569.049031 kJ/mol
# Density = 1.546769 g / cm^3
# Si number density = 15.502977 Si / 1000 Ang^3
#
#
#
# Elastic Constant Matrix: (Units=GPa)
#
#
# Indices 1 2 3 4 5 6 
#
# 1 97.2261 62.8182 30.6206 0.0000 0.0000 0.0000
# 2 62.8182 97.2232 30.6168 0.0000 0.0000 0.0000
# 3 30.6206 30.6168 45.6292 0.0000 0.0000 0.0000
# 4 0.0000 0.0000 0.0000 16.4599 0.0000 0.0000
# 5 0.0000 0.0000 0.0000 0.0000 16.4600 0.0000
# 6 0.0000 0.0000 0.0000 0.0000 0.0000 26.2874
#
#
#
# Elastic Compliance Matrix: (Units=1/GPa)
#
#
# Indices 1 2 3 4 5 6 
#
# 1 0.018736 -0.010329 -0.005643 0.000000 0.000000 0.000000
# 2 -0.010329 0.018735 -0.005640 0.000000 0.000000 0.000000
# 3 -0.005643 -0.005640 0.029487 0.000000 0.000000 0.000000
# 4 0.000000 0.000000 0.000000 0.060754 0.000000 0.000000
# 5 0.000000 0.000000 0.000000 0.000000 0.060753 0.000000
# 6 0.000000 0.000000 0.000000 0.000000 0.000000 0.038041
#
#
# Mechanical properties :
#
#
# Convention : Reuss Voigt Hill
#
# Bulk Modulus (GPa) = 42.13121 54.24329 48.18725
# Shear Modulus (GPa) = 18.00889 19.57630 18.79260
#
# Velocity S-wave (km/s) = 3.41198 3.55737 3.48543
# Velocity P-wave (km/s) = 6.53891 7.20681 6.88097
#
# Compressibility (1/GPa) = 0.02373537
#
# Stress axis : x y z
#
# Youngs Moduli (GPa) = 53.37364 53.37515 33.91347
#
# Poissons Ratio (x) = 0.55130 0.19136
# Poissons Ratio (y) = 0.55128 0.19127
# Poissons Ratio (z) = 0.30117 0.30103
#
# Static dielectric constant tensor:
#      x y z
#    x 1.528710 0.000000 0.000000 
#    y 0.000000 1.528710 0.000000 
#    z 0.000000 0.000000 1.512070 
# 
# From -- ./inp_files/6335.got.cif
#   From: 2010.05.17/outbox.cif.g08.bks.cpg/sg139_4_cif.got.tgz:6335.got - 2010.05.20 13:14:44.
