data_PCOD9571428
_publ_section_title
;
Structure prediction by ZEFSAII (Michael W. Deem and Ramdas Pophale) SiO2 
 PCOD9571428
Probable space group: I 4/M M M
;
_chemical_formula_sum "Si O2"
_cell_formula_units_Z 192
_cell_length_a 20.157209
_cell_length_b 20.157209
_cell_length_c 25.892952
_cell_angle_alpha 90.000000
_cell_angle_beta 90.000000
_cell_angle_gamma 90.000000
_cell_volume 10520.644939
_symmetry_space_group_name_H-M "I 4/M M M"
_symmetry_group_IT_number 139
_symmetry_cell_setting 'tetragonal'
loop_
_space_group_symop_operation_xyz
x,y,z
-y,x,z
-x,-y,z
y,-x,z
x,-y,-z
-x,y,-z
y,x,-z
-y,-x,-z
-x,-y,-z
y,-x,-z
x,y,-z
-y,x,-z
-x,y,z
x,-y,z
-y,-x,z
y,x,z
1/2+x,1/2+y,1/2+z
1/2-y,1/2+x,1/2+z
1/2-x,1/2-y,1/2+z
1/2+y,1/2-x,1/2+z
1/2+x,1/2-y,1/2-z
1/2-x,1/2+y,1/2-z
1/2+y,1/2+x,1/2-z
1/2-y,1/2-x,1/2-z
1/2-x,1/2-y,1/2-z
1/2+y,1/2-x,1/2-z
1/2+x,1/2+y,1/2-z
1/2-y,1/2+x,1/2-z
1/2-x,1/2+y,1/2+z
1/2+x,1/2-y,1/2+z
1/2-y,1/2-x,1/2+z
1/2+y,1/2+x,1/2+z
loop_
_atom_site_type_symbol
_atom_site_label
_atom_site_fract_x
_atom_site_fract_y
_atom_site_fract_z
Si Si1 0.860366 0.253285 0.755742
Si Si2 0.709117 0.132492 0.060849
Si Si3 0.629624 0.736575 0.056112
Si Si4 0.424651 0.311229 0.841452
Si Si5 0.809747 0.920449 0.143986
Si Si6 0.570239 0.921106 0.061252
O O1 0.800711 0.199290 0.756828
O O2 0.824242 0.324242 0.750000
O O3 0.903981 0.235370 0.706082
O O4 0.901543 0.237443 0.807410
O O5 0.687655 0.209237 0.063945
O O6 0.770697 0.107963 0.094073
O O7 0.640994 0.100345 0.082061
O O8 0.718857 0.116349 0.000000
O O9 0.666452 0.666452 0.052849
O O10 0.583861 0.730371 0.105666
O O11 0.598299 0.750970 0.000000
O O12 0.500000 0.334472 0.836184
O O13 0.372571 0.372571 0.841562
O O14 0.878094 0.878094 0.149566
O O15 0.819460 0.000000 0.141074
O O16 0.500000 0.894229 0.082192
O O17 0.567926 0.000000 0.065128
O O18 0.571881 0.904842 0.000000
#
# Coordination Sequence:
#
# PCOD9571428 Si02
#       6
#    32  32  32  32  32  32
#     4   9  18  35  58  80 102 130 168 217 272 326
#     4  10  19  32  52  76 103 138 183 234 286 338
#     4   9  18  32  50  74 104 135 168 213 268 318
#     4  10  20  34  53  77 107 143 179 214 254 304
#     4  11  23  37  55  80 110 147 192 239 286 336
#     4   8  14  25  41  63  93 126 158 198 254 319
#
# _framework density 18.249831
#
# number of rings (size 3 to 8) (size 9 to 14) (size 15 to 20)
#    0.000    2.500    0.000    3.000    0.000    6.000 
#    0.000    1.667    0.000    3.000    0.000    3.500 
#    0.000    4.333    0.000    0.000    0.000    0.000 
#
# Total GULP energy -534427.106811 kJ/mol
# GULP energy per Si atom -5566.949029 kJ/mol
# Density = 1.820829 g / cm^3
# Si number density = 18.249831 Si / 1000 Ang^3
#
#
#
# Elastic Constant Matrix: (Units=GPa)
#
#
# Indices 1 2 3 4 5 6 
#
# 1 87.2055 31.8318 42.1389 0.0000 0.0000 0.0000
# 2 31.8318 87.2055 42.1389 0.0000 0.0000 0.0000
# 3 42.1389 42.1389 112.2488 0.0000 0.0000 0.0000
# 4 0.0000 0.0000 0.0000 13.9031 0.0000 0.0000
# 5 0.0000 0.0000 0.0000 0.0000 13.9031 0.0000
# 6 0.0000 0.0000 0.0000 0.0000 0.0000 20.9519
#
#
#
# Elastic Compliance Matrix: (Units=1/GPa)
#
#
# Indices 1 2 3 4 5 6 
#
# 1 0.014750 -0.003309 -0.004295 0.000000 0.000000 0.000000
# 2 -0.003309 0.014750 -0.004295 0.000000 0.000000 0.000000
# 3 -0.004295 -0.004295 0.012134 0.000000 0.000000 0.000000
# 4 0.000000 0.000000 0.000000 0.071926 0.000000 0.000000
# 5 0.000000 0.000000 0.000000 0.000000 0.071926 0.000000
# 6 0.000000 0.000000 0.000000 0.000000 0.000000 0.047728
#
#
# Mechanical properties :
#
#
# Convention : Reuss Voigt Hill
#
# Bulk Modulus (GPa) = 56.06620 57.65324 56.85972
# Shear Modulus (GPa) = 19.01434 21.12165 20.06799
#
# Velocity S-wave (km/s) = 3.23134 3.40569 3.31966
# Velocity P-wave (km/s) = 6.68657 6.86474 6.77624
#
# Compressibility (1/GPa) = 0.01783606
#
# Stress axis : x y z
#
# Youngs Moduli (GPa) = 67.79456 67.79456 82.41472
#
# Poissons Ratio (x) = 0.22431 0.35400
# Poissons Ratio (y) = 0.22431 0.35400
# Poissons Ratio (z) = 0.29120 0.29120
#
# Static dielectric constant tensor:
#      x y z
#    x 1.650450 0.000000 0.000000 
#    y 0.000000 1.650450 0.000000 
#    z 0.000000 0.000000 1.650930 
# 
# From -- ./inp_files/11958.got.cif
#   From: 2010.05.17/outbox.cif.g08.bks.cpg/sg139_6_cif.got.tgz:11958.got - 2010.05.20 13:14:44.
