data_PCOD9571244
_publ_section_title
;
Structure prediction by ZEFSAII (Michael W. Deem and Ramdas Pophale) SiO2 
 PCOD9571244
Probable space group: I 4/M M M
;
_chemical_formula_sum "Si O2"
_cell_formula_units_Z 128
_cell_length_a 28.861670
_cell_length_b 28.861670
_cell_length_c 10.376321
_cell_angle_alpha 90.000000
_cell_angle_beta 90.000000
_cell_angle_gamma 90.000000
_cell_volume 8643.433838
_symmetry_space_group_name_H-M "I 4/M M M"
_symmetry_group_IT_number 139
_symmetry_cell_setting 'tetragonal'
loop_
_space_group_symop_operation_xyz
x,y,z
-y,x,z
-x,-y,z
y,-x,z
x,-y,-z
-x,y,-z
y,x,-z
-y,-x,-z
-x,-y,-z
y,-x,-z
x,y,-z
-y,x,-z
-x,y,z
x,-y,z
-y,-x,z
y,x,z
1/2+x,1/2+y,1/2+z
1/2-y,1/2+x,1/2+z
1/2-x,1/2-y,1/2+z
1/2+y,1/2-x,1/2+z
1/2+x,1/2-y,1/2-z
1/2-x,1/2+y,1/2-z
1/2+y,1/2+x,1/2-z
1/2-y,1/2-x,1/2-z
1/2-x,1/2-y,1/2-z
1/2+y,1/2-x,1/2-z
1/2+x,1/2+y,1/2-z
1/2-y,1/2+x,1/2-z
1/2-x,1/2+y,1/2+z
1/2+x,1/2-y,1/2+z
1/2-y,1/2-x,1/2+z
1/2+y,1/2+x,1/2+z
loop_
_atom_site_type_symbol
_atom_site_label
_atom_site_fract_x
_atom_site_fract_y
_atom_site_fract_z
Si Si1 0.710531 0.556425 0.647631
Si Si2 0.444103 0.188008 0.264643
Si Si3 0.381131 0.054932 0.000000
Si Si4 0.555954 0.141440 0.000000
Si Si5 0.868613 0.945315 0.350754
O O1 0.701878 0.571223 0.500000
O O2 0.711767 0.500000 0.646239
O O3 0.761099 0.572758 0.694938
O O4 0.670766 0.569098 0.749210
O O5 0.500000 0.191820 0.256473
O O6 0.435069 0.150661 0.375771
O O7 0.428145 0.168771 0.127425
O O8 0.423989 0.089679 0.000000
O O9 0.392997 0.000000 0.000000
O O10 0.500000 0.139635 0.000000
O O11 0.852879 0.939812 0.500000
O O12 0.913940 0.913940 0.333437
O O13 0.878501 0.000000 0.332072
#
# Coordination Sequence:
#
# PCOD9571244 Si02
#       5
#    32  32  16  16  32
#     4   9  16  28  46  65  86 116 153 193 235 269
#     4   9  17  29  44  63  86 115 150 192 237 271
#     4  10  18  31  46  60  89 125 154 184 222 272
#     4  10  20  29  42  66  91 119 154 188 224 270
#     4   9  18  30  45  68  98 129 157 184 214 255
#
# _framework density 14.808928999999999
#
# number of rings (size 3 to 8) (size 9 to 14) (size 15 to 20)
#    0.000    2.750    1.250    0.750    1.750    1.000 
#    0.000    1.250    0.000    4.500    0.000    3.500 
#    0.000    6.000    0.000    0.000    0.000    0.000 
#
# Total GULP energy -356286.943067 kJ/mol
# GULP energy per Si atom -5566.983485 kJ/mol
# Density = 1.477522 g / cm^3
# Si number density = 14.808929 Si / 1000 Ang^3
#
#
#
# Elastic Constant Matrix: (Units=GPa)
#
#
# Indices 1 2 3 4 5 6 
#
# 1 52.5617 30.0339 47.1712 0.0000 0.0000 0.0000
# 2 30.0339 52.5617 47.1712 0.0000 0.0000 0.0000
# 3 47.1712 47.1712 142.1986 0.0000 0.0000 0.0000
# 4 0.0000 0.0000 0.0000 11.6131 0.0000 0.0000
# 5 0.0000 0.0000 0.0000 0.0000 11.6131 0.0000
# 6 0.0000 0.0000 0.0000 0.0000 0.0000 -0.0962
#
#
#
# Elastic Compliance Matrix: (Units=1/GPa)
#
#
# Indices 1 2 3 4 5 6 
#
# 1 0.031941 -0.012448 -0.006466 0.000000 0.000000 0.000000
# 2 -0.012448 0.031941 -0.006466 0.000000 0.000000 0.000000
# 3 -0.006466 -0.006466 0.011323 0.000000 0.000000 0.000000
# 4 0.000000 0.000000 0.000000 0.086110 0.000000 0.000000
# 5 0.000000 0.000000 0.000000 0.000000 0.086110 0.000000
# 6 0.000000 0.000000 0.000000 0.000000 0.000000-10.392609
#
#
# Mechanical properties :
#
#
# Convention : Reuss Voigt Hill
#
# Bulk Modulus (GPa) = 40.91088 55.11939 48.01514
# Shear Modulus (GPa) = -0.49572 12.82237 6.16333
#
# Velocity S-wave (km/s) = -0.57920 2.94573 2.04229
# Velocity P-wave (km/s) = 5.21905 6.99078 6.16885
#
# Compressibility (1/GPa) = 0.02444337
#
# Stress axis : x y z
#
# Youngs Moduli (GPa) = 31.30729 31.30729 88.31874
#
# Poissons Ratio (x) = 0.38972 0.57111
# Poissons Ratio (y) = 0.38972 0.57111
# Poissons Ratio (z) = 0.20245 0.20245
#
# Static dielectric constant tensor:
#      x y z
#    x 1.469930 0.000000 0.000000 
#    y 0.000000 1.469930 0.000000 
#    z 0.000000 0.000000 1.512090 
# 
# From -- ./inp_files/1786.got.cif
#   From: 2010.05.17/outbox.cif.g08.bks.cpg/sg139_1_cif.got.tgz:1786.got - 2010.05.20 13:14:44.
