data_PCOD9571544
_publ_section_title
;
Structure prediction by ZEFSAII (Michael W. Deem and Ramdas Pophale) SiO2 
 PCOD9571544
Probable space group: I 4/M M M
;
_chemical_formula_sum "Si O2"
_cell_formula_units_Z 208
_cell_length_a 20.715252
_cell_length_b 20.715252
_cell_length_c 29.907486
_cell_angle_alpha 90.000000
_cell_angle_beta 90.000000
_cell_angle_gamma 90.000000
_cell_volume 12833.950201
_symmetry_space_group_name_H-M "I 4/M M M"
_symmetry_group_IT_number 139
_symmetry_cell_setting 'tetragonal'
loop_
_space_group_symop_operation_xyz
x,y,z
-y,x,z
-x,-y,z
y,-x,z
x,-y,-z
-x,y,-z
y,x,-z
-y,-x,-z
-x,-y,-z
y,-x,-z
x,y,-z
-y,x,-z
-x,y,z
x,-y,z
-y,-x,z
y,x,z
1/2+x,1/2+y,1/2+z
1/2-y,1/2+x,1/2+z
1/2-x,1/2-y,1/2+z
1/2+y,1/2-x,1/2+z
1/2+x,1/2-y,1/2-z
1/2-x,1/2+y,1/2-z
1/2+y,1/2+x,1/2-z
1/2-y,1/2-x,1/2-z
1/2-x,1/2-y,1/2-z
1/2+y,1/2-x,1/2-z
1/2+x,1/2+y,1/2-z
1/2-y,1/2+x,1/2-z
1/2-x,1/2+y,1/2+z
1/2+x,1/2-y,1/2+z
1/2-y,1/2-x,1/2+z
1/2+y,1/2+x,1/2+z
loop_
_atom_site_type_symbol
_atom_site_label
_atom_site_fract_x
_atom_site_fract_y
_atom_site_fract_z
Si Si1 0.678210 0.426847 0.292098
Si Si2 0.426073 0.929957 0.413571
Si Si3 0.647252 0.244090 0.639545
Si Si4 0.423727 0.209322 0.450261
Si Si5 0.317497 0.573921 0.186361
Si Si6 0.399709 0.170188 0.166200
Si Si7 0.924619 0.575382 0.750000
O O1 0.660512 0.500000 0.299611
O O2 0.618831 0.381170 0.303211
O O3 0.735747 0.406273 0.324236
O O4 0.693055 0.418000 0.239788
O O5 0.500000 0.924520 0.395548
O O6 0.416833 0.868146 0.444758
O O7 0.374138 0.926833 0.373896
O O8 0.421099 0.000000 0.435904
O O9 0.703359 0.296642 0.639670
O O10 0.615741 0.238721 0.590718
O O11 0.673612 0.176174 0.656268
O O12 0.403012 0.229080 0.500000
O O13 0.500000 0.223949 0.445428
O O14 0.341859 0.500000 0.178837
O O15 0.370402 0.629599 0.173242
O O16 0.244735 0.577992 0.166961
O O17 0.413901 0.128903 0.211204
O O18 0.917847 0.500000 0.734554
#
# Coordination Sequence:
#
# PCOD9571544 Si02
#       7
#    32  32  32  32  32  32  16
#     4   9  18  31  46  65  87 114 149 187 229 271
#     4   9  17  29  45  65  90 119 150 183 217 256
#     4  10  20  32  47  66  89 117 148 185 228 275
#     4   9  18  31  47  67  88 112 143 179 221 269
#     4  10  20  33  49  68  91 120 156 198 240 282
#     4  11  20  31  46  65  92 124 159 193 226 268
#     4  11  22  32  45  68  98 132 167 198 228 265
#
# _framework density 16.207014000000001
#
# number of rings (size 3 to 8) (size 9 to 14) (size 15 to 20)
#    0.000    2.231    0.000    3.692    0.000    5.231 
#    0.000    6.154    0.000    0.000    0.000    0.000 
#    0.000    0.000    0.000   14.308    0.000    2.923 
#
# Total GULP energy -579255.383970 kJ/mol
# GULP energy per Si atom -5569.763307 kJ/mol
# Density = 1.617013 g / cm^3
# Si number density = 16.207014 Si / 1000 Ang^3
#
#
#
# Elastic Constant Matrix: (Units=GPa)
#
#
# Indices 1 2 3 4 5 6 
#
# 1 69.9467 30.6136 20.9240 0.0000 0.0000 0.0000
# 2 30.6136 69.9473 20.9245 0.0000 0.0000 0.0000
# 3 20.9240 20.9245 30.1461 0.0000 0.0000 0.0000
# 4 0.0000 0.0000 0.0000 7.4838 0.0000 0.0000
# 5 0.0000 0.0000 0.0000 0.0000 7.4838 0.0000
# 6 0.0000 0.0000 0.0000 0.0000 0.0000 11.9480
#
#
#
# Elastic Compliance Matrix: (Units=1/GPa)
#
#
# Indices 1 2 3 4 5 6 
#
# 1 0.019703 -0.005720 -0.009706 0.000000 0.000000 0.000000
# 2 -0.005720 0.019704 -0.009706 0.000000 0.000000 0.000000
# 3 -0.009706 -0.009706 0.046645 0.000000 0.000000 0.000000
# 4 0.000000 0.000000 0.000000 0.133622 0.000000 0.000000
# 5 0.000000 0.000000 0.000000 0.000000 0.133623 0.000000
# 6 0.000000 0.000000 0.000000 0.000000 0.000000 0.083696
#
#
# Mechanical properties :
#
#
# Convention : Reuss Voigt Hill
#
# Bulk Modulus (GPa) = 27.94168 34.99604 31.46886
# Shear Modulus (GPa) = 10.01629 11.88830 10.95230
#
# Velocity S-wave (km/s) = 2.48870 2.71131 2.60239
# Velocity P-wave (km/s) = 5.05333 5.60728 5.33750
#
# Compressibility (1/GPa) = 0.03578883
#
# Stress axis : x y z
#
# Youngs Moduli (GPa) = 50.75245 50.75229 21.43841
#
# Poissons Ratio (x) = 0.29031 0.20807
# Poissons Ratio (y) = 0.29031 0.20808
# Poissons Ratio (z) = 0.49258 0.49260
#
# Static dielectric constant tensor:
#      x y z
#    x 1.553460 0.000000 0.000000 
#    y 0.000000 1.553460 0.000000 
#    z 0.000000 0.000000 1.531220 
# 
# From -- ./inp_files/14497.got.cif
#   From: 2010.05.17/outbox.cif.g08.bks.cpg/sg139_8_cif.got.tgz:14497.got - 2010.05.20 13:14:44.
