data_PCOD9571065
_publ_section_title
;
Structure prediction by ZEFSAII (Michael W. Deem and Ramdas Pophale) SiO2 
 PCOD9571065
Probable space group: P 42/N C M
;
_chemical_formula_sum "Si O2"
_cell_formula_units_Z 64
_cell_length_a 22.210524
_cell_length_b 22.210524
_cell_length_c 7.373012
_cell_angle_alpha 90.000000
_cell_angle_beta 90.000000
_cell_angle_gamma 90.000000
_cell_volume 3637.161206
_symmetry_space_group_name_H-M "P 42/N C M"
_symmetry_group_IT_number 138
_space_group.IT_coordinate_system_code '2'
_symmetry_cell_setting 'tetragonal'
loop_
_space_group_symop_operation_xyz
x,y,z
1/2-y,x,1/2+z
1/2-x,1/2-y,z
y,1/2-x,1/2+z
1/2+x,-y,1/2-z
-x,1/2+y,1/2-z
1/2+y,1/2+x,-z
-y,-x,-z
-x,-y,-z
1/2+y,-x,1/2-z
1/2+x,1/2+y,-z
-y,1/2+x,1/2-z
1/2-x,y,1/2+z
x,1/2-y,1/2+z
1/2-y,1/2-x,z
y,x,z
loop_
_atom_site_type_symbol
_atom_site_label
_atom_site_fract_x
_atom_site_fract_y
_atom_site_fract_z
Si Si1 0.314912 0.819458 0.263087
Si Si2 0.953977 0.192486 0.817323
Si Si3 0.096169 0.998584 0.084469
Si Si4 0.172438 0.947391 0.396156
O O1 0.318958 0.750566 0.337460
O O2 0.312534 0.882817 0.372437
O O3 0.376815 0.825935 0.154031
O O4 0.993753 0.153080 0.951208
O O5 0.970557 0.262461 0.829019
O O6 0.956900 0.169749 0.610889
O O7 0.119463 0.977500 0.281002
O O8 0.049566 0.950435 0.000000
O O9 0.061776 0.061776 0.090489
#
# Coordination Sequence:
#
# PCOD9571065 Si02
#       4
#    16  16  16  16
#     4   9  19  33  48  74 108 149 195 241 279 313
#     4  11  21  37  57  81 111 147 189 237 281 325
#     4  11  24  40  56  80 115 154 193 229 274 335
#     4  11  21  37  57  81 111 147 189 237 281 325
#
# _framework density 17.596140999999999
#
# number of rings (size 3 to 8) (size 9 to 14) (size 15 to 20)
#    0.000    1.500    5.000    0.750    0.000    1.000 
#    4.500   10.000    0.000    0.000    0.000    0.000 
#    0.000    3.000    0.000    0.000    0.000    0.000 
#
# Total GULP energy -357197.943491 kJ/mol
# GULP energy per Si atom -5581.217867 kJ/mol
# Density = 1.755609 g / cm^3
# Si number density = 17.596141 Si / 1000 Ang^3
#
#
#
# Elastic Constant Matrix: (Units=GPa)
#
#
# Indices 1 2 3 4 5 6 
#
# 1 81.5680 58.5023 34.0411 0.0000 0.0000 0.0000
# 2 58.5023 81.5699 34.0418 0.0000 0.0000 0.0000
# 3 34.0411 34.0418 98.3829 0.0000 0.0000 0.0000
# 4 0.0000 0.0000 0.0000 13.5322 0.0000 0.0000
# 5 0.0000 0.0000 0.0000 0.0000 13.5323 0.0000
# 6 0.0000 0.0000 0.0000 0.0000 0.0000 44.5665
#
#
#
# Elastic Compliance Matrix: (Units=1/GPa)
#
#
# Indices 1 2 3 4 5 6 
#
# 1 0.025968 -0.017385 -0.002970 0.000000 0.000000 0.000000
# 2 -0.017385 0.025967 -0.002970 0.000000 0.000000 0.000000
# 3 -0.002970 -0.002970 0.012219 0.000000 0.000000 0.000000
# 4 0.000000 0.000000 0.000000 0.073898 0.000000 0.000000
# 5 0.000000 0.000000 0.000000 0.000000 0.073897 0.000000
# 6 0.000000 0.000000 0.000000 0.000000 0.000000 0.022438
#
#
# Mechanical properties :
#
#
# Convention : Reuss Voigt Hill
#
# Bulk Modulus (GPa) = 57.12316 57.18791 57.15553
# Shear Modulus (GPa) = 17.42938 23.32192 20.37565
#
# Velocity S-wave (km/s) = 3.15067 3.64455 3.40657
# Velocity P-wave (km/s) = 6.76532 7.09092 6.93003
#
# Compressibility (1/GPa) = 0.01750604
#
# Stress axis : x y z
#
# Youngs Moduli (GPa) = 38.50906 38.50986 81.83677
#
# Poissons Ratio (x) = 0.66949 0.24302
# Poissons Ratio (y) = 0.66948 0.24303
# Poissons Ratio (z) = 0.11436 0.11436
#
# Static dielectric constant tensor:
#      x y z
#    x 1.603100 0.000000 0.000000 
#    y 0.000000 1.603100 0.000000 
#    z 0.000000 0.000000 1.748180 
# 
# From -- ./inp_files/2926.got.cif
#   From: 2010.05.17/outbox.cif.g08.bks.cpg/sg138_2_cif.got.tgz:2926.got - 2010.05.20 13:08:53.
