data_PCOD9571952
_publ_section_title
;
Structure prediction by ZEFSAII (Michael W. Deem and Ramdas Pophale) SiO2 
 PCOD9571952
Probable space group: I 4/M M M
;
_chemical_formula_sum "Si O2"
_cell_formula_units_Z 144
_cell_length_a 24.686659
_cell_length_b 24.686659
_cell_length_c 10.061970
_cell_angle_alpha 90.000000
_cell_angle_beta 90.000000
_cell_angle_gamma 90.000000
_cell_volume 6132.077773
_symmetry_space_group_name_H-M "I 4/M M M"
_symmetry_group_IT_number 139
_symmetry_cell_setting 'tetragonal'
loop_
_space_group_symop_operation_xyz
x,y,z
-y,x,z
-x,-y,z
y,-x,z
x,-y,-z
-x,y,-z
y,x,-z
-y,-x,-z
-x,-y,-z
y,-x,-z
x,y,-z
-y,x,-z
-x,y,z
x,-y,z
-y,-x,z
y,x,z
1/2+x,1/2+y,1/2+z
1/2-y,1/2+x,1/2+z
1/2-x,1/2-y,1/2+z
1/2+y,1/2-x,1/2+z
1/2+x,1/2-y,1/2-z
1/2-x,1/2+y,1/2-z
1/2+y,1/2+x,1/2-z
1/2-y,1/2-x,1/2-z
1/2-x,1/2-y,1/2-z
1/2+y,1/2-x,1/2-z
1/2+x,1/2+y,1/2-z
1/2-y,1/2+x,1/2-z
1/2-x,1/2+y,1/2+z
1/2+x,1/2-y,1/2+z
1/2-y,1/2-x,1/2+z
1/2+y,1/2+x,1/2+z
loop_
_atom_site_type_symbol
_atom_site_label
_atom_site_fract_x
_atom_site_fract_y
_atom_site_fract_z
Si Si1 0.799752 0.282533 0.500000
Si Si2 0.619652 0.938900 0.000000
Si Si3 0.269127 0.898985 0.000000
Si Si4 0.614120 0.252018 0.797714
Si Si5 0.934750 0.631198 0.668637
Si Si6 0.875341 0.875341 0.361624
Si Si7 0.061542 0.938459 0.157452
O O1 0.738648 0.261353 0.500000
O O2 0.806808 0.345787 0.500000
O O3 0.828303 0.262599 0.365491
O O4 0.685805 0.944363 0.000000
O O5 0.615837 0.920429 0.835194
O O6 0.594009 0.000000 0.000000
O O7 0.239409 0.893489 0.139960
O O8 0.580790 0.196510 0.830441
O O9 0.608399 0.311838 0.858270
O O10 0.927154 0.616713 0.500000
O O11 0.000000 0.622730 0.676661
O O12 0.898001 0.898001 0.500000
O O13 0.899300 0.899300 0.230354
O O14 0.000000 0.926236 0.195666
O O15 0.065355 0.934646 0.000000
#
# Coordination Sequence:
#
# PCOD9571952 Si02
#       7
#    16  16  16  32  32  16  16
#     4  12  22  43  68  95 136 181 230 292 373 453
#     4  12  25  45  67  96 133 181 254 329 390 455
#     4  12  26  39  67  98 136 185 244 304 379 448
#     4  12  24  45  66 103 144 187 235 302 374 449
#     4  12  25  44  68  93 133 187 247 317 391 454
#     4  12  27  47  76 116 161 198 246 296 357 446
#     4   9  22  50  86 121 157 196 239 289 346 419
#
# _framework density 23.483066999999998
#
# number of rings (size 3 to 8) (size 9 to 14) (size 15 to 20)
#    0.000    0.333    6.667    2.000    3.111    4.222 
#    0.000    0.556    0.000    0.000    0.000    0.000 
#    0.000    0.000    0.000    0.000    0.000    0.000 
#
# Total GULP energy -400876.842093 kJ/mol
# GULP energy per Si atom -5567.733918 kJ/mol
# Density = 2.342962 g / cm^3
# Si number density = 23.483067 Si / 1000 Ang^3
#
#
#
# Elastic Constant Matrix: (Units=GPa)
#
#
# Indices 1 2 3 4 5 6 
#
# 1 129.1892 34.5623 38.8034 0.0000 0.0000 0.0000
# 2 34.5623 129.1874 38.7991 0.0000 0.0000 0.0000
# 3 38.8034 38.7991 171.7407 0.0000 0.0000 0.0000
# 4 0.0000 0.0000 0.0000 18.4687 0.0000 0.0000
# 5 0.0000 0.0000 0.0000 0.0000 18.4696 0.0000
# 6 0.0000 0.0000 0.0000 0.0000 0.0000 22.0972
#
#
#
# Elastic Compliance Matrix: (Units=1/GPa)
#
#
# Indices 1 2 3 4 5 6 
#
# 1 0.008704 -0.001864 -0.001545 0.000000 0.000000 0.000000
# 2 -0.001864 0.008704 -0.001545 0.000000 0.000000 0.000000
# 3 -0.001545 -0.001545 0.006521 0.000000 0.000000 0.000000
# 4 0.000000 0.000000 0.000000 0.054146 0.000000 0.000000
# 5 0.000000 0.000000 0.000000 0.000000 0.054143 0.000000
# 6 0.000000 0.000000 0.000000 0.000000 0.000000 0.045255
#
#
# Mechanical properties :
#
#
# Convention : Reuss Voigt Hill
#
# Bulk Modulus (GPa) = 71.33422 72.71634 72.02528
# Shear Modulus (GPa) = 26.03442 33.00394 29.51918
#
# Velocity S-wave (km/s) = 3.33325 3.75298 3.54932
# Velocity P-wave (km/s) = 6.72732 7.05780 6.89454
#
# Compressibility (1/GPa) = 0.01401852
#
# Stress axis : x y z
#
# Youngs Moduli (GPa) = 114.89605 114.89617 153.35257
#
# Poissons Ratio (x) = 0.21421 0.23697
# Poissons Ratio (y) = 0.21421 0.23693
# Poissons Ratio (z) = 0.17755 0.17752
#
# Static dielectric constant tensor:
#      x y z
#    x 1.877310 0.000000 0.000000 
#    y 0.000000 1.877320 0.000000 
#    z 0.000000 0.000000 2.117370 
# 
# From -- ./inp_files/2137.got.cif
#   From: 2010.05.17/outbox.cif.g08.bks.cpg/sg139_2_cif.got.tgz:2137.got - 2010.05.20 13:14:44.
