data_PCOD9571412
_publ_section_title
;
Structure prediction by ZEFSAII (Michael W. Deem and Ramdas Pophale) SiO2 
 PCOD9571412
Probable space group: I 4/M M M
;
_chemical_formula_sum "Si O2"
_cell_formula_units_Z 128
_cell_length_a 22.876000
_cell_length_b 22.876000
_cell_length_c 13.628994
_cell_angle_alpha 90.000000
_cell_angle_beta 90.000000
_cell_angle_gamma 90.000000
_cell_volume 7132.207604
_symmetry_space_group_name_H-M "I 4/M M M"
_symmetry_group_IT_number 139
_symmetry_cell_setting 'tetragonal'
loop_
_space_group_symop_operation_xyz
x,y,z
-y,x,z
-x,-y,z
y,-x,z
x,-y,-z
-x,y,-z
y,x,-z
-y,-x,-z
-x,-y,-z
y,-x,-z
x,y,-z
-y,x,-z
-x,y,z
x,-y,z
-y,-x,z
y,x,z
1/2+x,1/2+y,1/2+z
1/2-y,1/2+x,1/2+z
1/2-x,1/2-y,1/2+z
1/2+y,1/2-x,1/2+z
1/2+x,1/2-y,1/2-z
1/2-x,1/2+y,1/2-z
1/2+y,1/2+x,1/2-z
1/2-y,1/2-x,1/2-z
1/2-x,1/2-y,1/2-z
1/2+y,1/2-x,1/2-z
1/2+x,1/2+y,1/2-z
1/2-y,1/2+x,1/2-z
1/2-x,1/2+y,1/2+z
1/2+x,1/2-y,1/2+z
1/2-y,1/2-x,1/2+z
1/2+y,1/2+x,1/2+z
loop_
_atom_site_type_symbol
_atom_site_label
_atom_site_fract_x
_atom_site_fract_y
_atom_site_fract_z
Si Si1 0.739070 0.260931 0.888693
Si Si2 0.434590 0.135672 0.383075
Si Si3 0.337828 0.662173 0.613302
Si Si4 0.118240 0.699341 0.618180
Si Si5 0.237647 0.064286 0.209309
O O1 0.788158 0.211842 0.889823
O O2 0.771293 0.319320 0.850367
O O3 0.722931 0.277070 0.000000
O O4 0.436873 0.127707 0.500000
O O5 0.500000 0.116152 0.345090
O O6 0.369810 0.111552 0.355024
O O7 0.429986 0.204290 0.357856
O O8 0.352322 0.647679 0.500000
O O9 0.390333 0.690446 0.672713
O O10 0.113070 0.703077 0.500000
O O11 0.073864 0.737558 0.681326
O O12 0.213522 0.000000 0.198493
#
# Coordination Sequence:
#
# PCOD9571412 Si02
#       5
#    16  32  16  32  32
#     4   9  17  29  49  78 103 132 168 208 273 336
#     4   9  17  29  46  72 105 140 180 221 263 314
#     4  11  21  35  56  81 110 140 172 220 274 329
#     4  10  19  32  50  74 108 145 179 220 271 325
#     4  11  22  33  51  78 106 142 181 221 270 321
#
# _framework density 17.946757000000002
#
# number of rings (size 3 to 8) (size 9 to 14) (size 15 to 20)
#    0.000    2.000    2.500    2.250    0.000    3.000 
#    0.000    0.000    0.000    1.125    0.000    7.875 
#    0.000    0.000    0.000    9.750    0.000    0.000 
#
# Total GULP energy -356286.123033 kJ/mol
# GULP energy per Si atom -5566.970672 kJ/mol
# Density = 1.790591 g / cm^3
# Si number density = 17.946757 Si / 1000 Ang^3
#
#
#
# Elastic Constant Matrix: (Units=GPa)
#
#
# Indices 1 2 3 4 5 6 
#
# 1 72.0076 7.6964 10.9561 0.0000 0.0000 0.0000
# 2 7.6964 72.0077 10.9550 0.0000 0.0000 0.0000
# 3 10.9561 10.9550 67.5214 0.0000 0.0000 0.0000
# 4 0.0000 0.0000 0.0000 5.8503 0.0000 0.0000
# 5 0.0000 0.0000 0.0000 0.0000 5.8506 0.0000
# 6 0.0000 0.0000 0.0000 0.0000 0.0000 4.9585
#
#
#
# Elastic Compliance Matrix: (Units=1/GPa)
#
#
# Indices 1 2 3 4 5 6 
#
# 1 0.014341 -0.001209 -0.002131 0.000000 0.000000 0.000000
# 2 -0.001209 0.014341 -0.002131 0.000000 0.000000 0.000000
# 3 -0.002131 -0.002131 0.015502 0.000000 0.000000 0.000000
# 4 0.000000 0.000000 0.000000 0.170931 0.000000 0.000000
# 5 0.000000 0.000000 0.000000 0.000000 0.170924 0.000000
# 6 0.000000 0.000000 0.000000 0.000000 0.000000 0.201676
#
#
# Mechanical properties :
#
#
# Convention : Reuss Voigt Hill
#
# Bulk Modulus (GPa) = 30.08157 30.08353 30.08255
# Shear Modulus (GPa) = 8.20029 15.46047 11.83038
#
# Velocity S-wave (km/s) = 2.13989 2.93825 2.57026
# Velocity P-wave (km/s) = 4.78576 5.32073 5.06032
#
# Compressibility (1/GPa) = 0.03324294
#
# Stress axis : x y z
#
# Youngs Moduli (GPa) = 69.73101 69.73148 64.50961
#
# Poissons Ratio (x) = 0.08428 0.13746
# Poissons Ratio (y) = 0.08428 0.13744
# Poissons Ratio (z) = 0.14859 0.14857
#
# Static dielectric constant tensor:
#      x y z
#    x 1.613190 0.000000 0.000000 
#    y 0.000000 1.613190 0.000000 
#    z 0.000000 0.000000 1.668480 
# 
# From -- ./inp_files/5428.got.cif
#   From: 2010.05.17/outbox.cif.g08.bks.cpg/sg139_3_cif.got.tgz:5428.got - 2010.05.20 13:14:44.
