data_PCOD9571840
_publ_section_title
;
Structure prediction by ZEFSAII (Michael W. Deem and Ramdas Pophale) SiO2 
 PCOD9571840
Probable space group: I 4/M M M
;
_chemical_formula_sum "Si O2"
_cell_formula_units_Z 192
_cell_length_a 18.065081
_cell_length_b 18.065081
_cell_length_c 32.803229
_cell_angle_alpha 90.000000
_cell_angle_beta 90.000000
_cell_angle_gamma 90.000000
_cell_volume 10705.240345
_symmetry_space_group_name_H-M "I 4/M M M"
_symmetry_group_IT_number 139
_symmetry_cell_setting 'tetragonal'
loop_
_space_group_symop_operation_xyz
x,y,z
-y,x,z
-x,-y,z
y,-x,z
x,-y,-z
-x,y,-z
y,x,-z
-y,-x,-z
-x,-y,-z
y,-x,-z
x,y,-z
-y,x,-z
-x,y,z
x,-y,z
-y,-x,z
y,x,z
1/2+x,1/2+y,1/2+z
1/2-y,1/2+x,1/2+z
1/2-x,1/2-y,1/2+z
1/2+y,1/2-x,1/2+z
1/2+x,1/2-y,1/2-z
1/2-x,1/2+y,1/2-z
1/2+y,1/2+x,1/2-z
1/2-y,1/2-x,1/2-z
1/2-x,1/2-y,1/2-z
1/2+y,1/2-x,1/2-z
1/2+x,1/2+y,1/2-z
1/2-y,1/2+x,1/2-z
1/2-x,1/2+y,1/2+z
1/2+x,1/2-y,1/2+z
1/2-y,1/2-x,1/2+z
1/2+y,1/2+x,1/2+z
loop_
_atom_site_type_symbol
_atom_site_label
_atom_site_fract_x
_atom_site_fract_y
_atom_site_fract_z
Si Si1 0.208205 0.912287 0.661506
Si Si2 0.416011 0.416011 0.549532
Si Si3 0.168231 0.333916 0.609197
Si Si4 0.912796 0.789821 0.834178
Si Si5 0.789496 0.414752 0.248066
Si Si6 0.794100 0.205901 0.048552
Si Si7 0.083032 0.411857 0.044095
O O1 0.129954 0.870047 0.659779
O O2 0.264700 0.868552 0.631881
O O3 0.242882 0.904479 0.706747
O O4 0.203668 0.000000 0.652130
O O5 0.500000 0.398022 0.562829
O O6 0.417097 0.417097 0.500000
O O7 0.355514 0.355514 0.560832
O O8 0.222865 0.378299 0.639200
O O9 0.217915 0.314143 0.570122
O O10 0.106216 0.381817 0.587360
O O11 0.862649 0.862649 0.840578
O O12 0.905623 0.762987 0.787335
O O13 0.000000 0.800636 0.843090
O O14 0.817131 0.500000 0.248522
O O15 0.855886 0.355886 0.250000
O O16 0.790824 0.209177 0.000000
O O17 0.079497 0.500000 0.041845
O O18 0.000000 0.380304 0.044650
O O19 0.116704 0.387540 0.000000
#
# Coordination Sequence:
#
# PCOD9571840 Si02
#       7
#    32  16  32  32  32  16  32
#     4  11  23  40  64  93 122 155 192 237 292 353
#     4   8  16  33  54  76 107 150 198 244 294 354
#     4  12  21  38  57  86 116 151 194 244 295 350
#     4  11  23  39  59  86 120 161 203 245 292 345
#     4  10  21  38  63  91 125 163 197 239 288 344
#     4  11  23  36  55  83 112 147 199 254 304 349
#     4   9  19  36  57  81 111 149 190 236 296 357
#
# _framework density 17.935141000000002
#
# number of rings (size 3 to 8) (size 9 to 14) (size 15 to 20)
#    0.000    1.583    3.333    2.750    0.000    2.500 
#    0.000    1.667    0.000    3.000    0.000    0.000 
#    0.000    0.667    0.000    0.000    0.000    0.000 
#
# Total GULP energy -535273.683363 kJ/mol
# GULP energy per Si atom -5575.767535 kJ/mol
# Density = 1.789432 g / cm^3
# Si number density = 17.935141 Si / 1000 Ang^3
#
#
#
# Elastic Constant Matrix: (Units=GPa)
#
#
# Indices 1 2 3 4 5 6 
#
# 1 111.1725 73.3761 48.1762 0.0000 0.0000 0.0000
# 2 73.3761 111.1726 48.1764 0.0000 0.0000 0.0000
# 3 48.1762 48.1764 112.6545 0.0000 0.0000 0.0000
# 4 0.0000 0.0000 0.0000 23.6684 0.0000 0.0000
# 5 0.0000 0.0000 0.0000 0.0000 23.6685 0.0000
# 6 0.0000 0.0000 0.0000 0.0000 0.0000 33.2642
#
#
#
# Elastic Compliance Matrix: (Units=1/GPa)
#
#
# Indices 1 2 3 4 5 6 
#
# 1 0.016717 -0.009741 -0.002983 0.000000 0.000000 0.000000
# 2 -0.009741 0.016717 -0.002983 0.000000 0.000000 0.000000
# 3 -0.002983 -0.002983 0.011428 0.000000 0.000000 0.000000
# 4 0.000000 0.000000 0.000000 0.042250 0.000000 0.000000
# 5 0.000000 0.000000 0.000000 0.000000 0.042250 0.000000
# 6 0.000000 0.000000 0.000000 0.000000 0.000000 0.030062
#
#
# Mechanical properties :
#
#
# Convention : Reuss Voigt Hill
#
# Bulk Modulus (GPa) = 74.36402 74.93969 74.65185
# Shear Modulus (GPa) = 25.59871 27.13827 26.36849
#
# Velocity S-wave (km/s) = 3.78205 3.89412 3.83850
# Velocity P-wave (km/s) = 7.78618 7.87993 7.83320
#
# Compressibility (1/GPa) = 0.01344736
#
# Stress axis : x y z
#
# Youngs Moduli (GPa) = 59.81986 59.81980 87.50167
#
# Poissons Ratio (x) = 0.58268 0.26105
# Poissons Ratio (y) = 0.58268 0.26105
# Poissons Ratio (z) = 0.17846 0.17847
#
# Static dielectric constant tensor:
#      x y z
#    x 2.038450 0.000000 0.000000 
#    y 0.000000 2.038450 0.000000 
#    z 0.000000 0.000000 1.629690 
# 
# From -- ./inp_files/14383.got.cif
#   From: 2010.05.17/outbox.cif.g08.bks.cpg/sg139_8_cif.got.tgz:14383.got - 2010.05.20 13:14:44.
