data_PCOD9571385
_publ_section_title
;
Structure prediction by ZEFSAII (Michael W. Deem and Ramdas Pophale) SiO2 
 PCOD9571385
Probable space group: I 4/M M M
;
_chemical_formula_sum "Si O2"
_cell_formula_units_Z 176
_cell_length_a 27.330885
_cell_length_b 27.330885
_cell_length_c 13.476188
_cell_angle_alpha 90.000000
_cell_angle_beta 90.000000
_cell_angle_gamma 90.000000
_cell_volume 10066.406188
_symmetry_space_group_name_H-M "I 4/M M M"
_symmetry_group_IT_number 139
_symmetry_cell_setting 'tetragonal'
loop_
_space_group_symop_operation_xyz
x,y,z
-y,x,z
-x,-y,z
y,-x,z
x,-y,-z
-x,y,-z
y,x,-z
-y,-x,-z
-x,-y,-z
y,-x,-z
x,y,-z
-y,x,-z
-x,y,z
x,-y,z
-y,-x,z
y,x,z
1/2+x,1/2+y,1/2+z
1/2-y,1/2+x,1/2+z
1/2-x,1/2-y,1/2+z
1/2+y,1/2-x,1/2+z
1/2+x,1/2-y,1/2-z
1/2-x,1/2+y,1/2-z
1/2+y,1/2+x,1/2-z
1/2-y,1/2-x,1/2-z
1/2-x,1/2-y,1/2-z
1/2+y,1/2-x,1/2-z
1/2+x,1/2+y,1/2-z
1/2-y,1/2+x,1/2-z
1/2-x,1/2+y,1/2+z
1/2+x,1/2-y,1/2+z
1/2-y,1/2-x,1/2+z
1/2+y,1/2+x,1/2+z
loop_
_atom_site_type_symbol
_atom_site_label
_atom_site_fract_x
_atom_site_fract_y
_atom_site_fract_z
Si Si1 0.861753 0.058069 0.613236
Si Si2 0.866976 0.942543 0.000000
Si Si3 0.183886 0.105582 0.191635
Si Si4 0.389940 0.946111 0.882119
Si Si5 0.217145 0.442938 0.296499
Si Si6 0.653234 0.941688 0.611927
O O1 0.842746 0.066523 0.500000
O O2 0.913456 0.086545 0.619029
O O3 0.830078 0.080312 0.703104
O O4 0.866660 0.000000 0.626477
O O5 0.841808 0.921510 0.900876
O O6 0.921863 0.921863 0.000000
O O7 0.863976 0.000000 0.000000
O O8 0.159821 0.159821 0.193523
O O9 0.241105 0.095385 0.176329
O O10 0.332246 0.940202 0.861095
O O11 0.418465 0.897435 0.851000
O O12 0.404212 0.000000 0.840786
O O13 0.398036 0.948346 0.000000
O O14 0.234684 0.500000 0.301740
O O15 0.197577 0.432092 0.185982
O O16 0.662981 0.924695 0.500000
O O17 0.646690 0.000000 0.610566
#
# Coordination Sequence:
#
# PCOD9571385 Si02
#       6
#    32  16  32  32  32  32
#     4   9  17  29  45  66  93 123 156 195 242 300
#     4  10  20  33  50  72 100 130 163 207 261 321
#     4  10  21  35  50  71  97 129 169 216 265 305
#     4   9  18  31  49  76 105 134 167 200 241 296
#     4  10  19  31  50  73  97 129 167 209 251 297
#     4   9  18  32  50  75 106 136 166 200 242 296
#
# _framework density 17.483896999999999
#
# number of rings (size 3 to 8) (size 9 to 14) (size 15 to 20)
#    0.000    2.545    0.000    2.182    1.273    1.364 
#    0.000    4.545    0.000    8.727    0.000    2.545 
#    0.000    0.000    0.000    0.000    0.000    0.000 
#
# Total GULP energy -490116.062060 kJ/mol
# GULP energy per Si atom -5569.500705 kJ/mol
# Density = 1.744410 g / cm^3
# Si number density = 17.483897 Si / 1000 Ang^3
#
#
#
# Elastic Constant Matrix: (Units=GPa)
#
#
# Indices 1 2 3 4 5 6 
#
# 1 50.6026 32.4720 -8.6876 0.0000 0.0000 0.0000
# 2 32.4720 50.6026 -8.6876 0.0000 0.0000 0.0000
# 3 -8.6876 -8.6876 55.8765 0.0000 0.0000 0.0000
# 4 0.0000 0.0000 0.0000 13.9071 0.0000 0.0000
# 5 0.0000 0.0000 0.0000 0.0000 13.9071 0.0000
# 6 0.0000 0.0000 0.0000 0.0000 0.0000 24.5902
#
#
#
# Elastic Compliance Matrix: (Units=1/GPa)
#
#
# Indices 1 2 3 4 5 6 
#
# 1 0.033799 -0.021357 0.001934 0.000000 0.000000 0.000000
# 2 -0.021357 0.033799 0.001934 0.000000 0.000000 0.000000
# 3 0.001934 0.001934 0.018498 0.000000 0.000000 0.000000
# 4 0.000000 0.000000 0.000000 0.071906 0.000000 0.000000
# 5 0.000000 0.000000 0.000000 0.000000 0.071906 0.000000
# 6 0.000000 0.000000 0.000000 0.000000 0.000000 0.040667
#
#
# Mechanical properties :
#
#
# Convention : Reuss Voigt Hill
#
# Bulk Modulus (GPa) = 19.56185 20.80837 20.18511
# Shear Modulus (GPa) = 15.49958 19.94655 17.72306
#
# Velocity S-wave (km/s) = 2.98066 3.38132 3.18729
# Velocity P-wave (km/s) = 4.80193 5.21265 5.01150
#
# Compressibility (1/GPa) = 0.05111991
#
# Stress axis : x y z
#
# Youngs Moduli (GPa) = 29.58685 29.58685 54.05952
#
# Poissons Ratio (x) = 0.63188 -0.10458
# Poissons Ratio (y) = 0.63188 -0.10458
# Poissons Ratio (z) = -0.05723 -0.05723
#
# Static dielectric constant tensor:
#      x y z
#    x 1.588290 0.000000 0.000000 
#    y 0.000000 1.588290 0.000000 
#    z 0.000000 0.000000 1.691140 
# 
# From -- ./inp_files/6389.got.cif
#   From: 2010.05.17/outbox.cif.g08.bks.cpg/sg139_4_cif.got.tgz:6389.got - 2010.05.20 13:14:44.
