data_PCOD9571642
_publ_section_title
;
Structure prediction by ZEFSAII (Michael W. Deem and Ramdas Pophale) SiO2 
 PCOD9571642
Probable space group: I 4/M M M
;
_chemical_formula_sum "Si O2"
_cell_formula_units_Z 192
_cell_length_a 20.917226
_cell_length_b 20.917226
_cell_length_c 26.293945
_cell_angle_alpha 90.000000
_cell_angle_beta 90.000000
_cell_angle_gamma 90.000000
_cell_volume 11504.398789
_symmetry_space_group_name_H-M "I 4/M M M"
_symmetry_group_IT_number 139
_symmetry_cell_setting 'tetragonal'
loop_
_space_group_symop_operation_xyz
x,y,z
-y,x,z
-x,-y,z
y,-x,z
x,-y,-z
-x,y,-z
y,x,-z
-y,-x,-z
-x,-y,-z
y,-x,-z
x,y,-z
-y,x,-z
-x,y,z
x,-y,z
-y,-x,z
y,x,z
1/2+x,1/2+y,1/2+z
1/2-y,1/2+x,1/2+z
1/2-x,1/2-y,1/2+z
1/2+y,1/2-x,1/2+z
1/2+x,1/2-y,1/2-z
1/2-x,1/2+y,1/2-z
1/2+y,1/2+x,1/2-z
1/2-y,1/2-x,1/2-z
1/2-x,1/2-y,1/2-z
1/2+y,1/2-x,1/2-z
1/2+x,1/2+y,1/2-z
1/2-y,1/2+x,1/2-z
1/2-x,1/2+y,1/2+z
1/2+x,1/2-y,1/2+z
1/2-y,1/2-x,1/2+z
1/2+y,1/2+x,1/2+z
loop_
_atom_site_type_symbol
_atom_site_label
_atom_site_fract_x
_atom_site_fract_y
_atom_site_fract_z
Si Si1 0.304588 0.847353 0.197670
Si Si2 0.188835 0.288992 0.587777
Si Si3 0.862410 0.425391 0.943386
Si Si4 0.573505 0.925049 0.163106
Si Si5 0.427077 0.681934 0.332474
Si Si6 0.787899 0.895081 0.054917
O O1 0.309337 0.809337 0.250000
O O2 0.303768 0.802395 0.147886
O O3 0.370066 0.887991 0.191304
O O4 0.242097 0.892524 0.194777
O O5 0.223195 0.223195 0.574350
O O6 0.117341 0.301018 0.569831
O O7 0.229015 0.346419 0.561957
O O8 0.846590 0.500000 0.942841
O O9 0.911774 0.415098 0.897142
O O10 0.886634 0.409452 0.000000
O O11 0.500000 0.904315 0.174672
O O12 0.577657 0.000000 0.173701
O O13 0.500000 0.670285 0.315010
O O14 0.379530 0.620471 0.328619
O O15 0.430668 0.703483 0.391907
O O16 0.850138 0.850138 0.052630
O O17 0.781943 0.927785 0.000000
#
# Coordination Sequence:
#
# PCOD9571642 Si02
#       6
#    32  32  32  32  32  32
#     4  10  20  34  52  70  93 121 155 199 248 293
#     4   9  17  29  46  67  89 116 151 189 232 282
#     4   9  17  28  42  63  93 125 153 184 221 263
#     4   9  18  31  46  68  98 129 160 190 223 271
#     4  10  21  35  51  73  99 129 167 207 246 289
#     4   8  14  26  45  69  96 125 158 195 231 268
#
# _framework density 16.689267000000001
#
# number of rings (size 3 to 8) (size 9 to 14) (size 15 to 20)
#    0.000    2.833    0.000    2.500    0.000    4.500 
#    0.000    2.500    0.000    6.000    0.000    2.333 
#    0.000    0.333    0.000    1.833    0.000    0.000 
#
# Total GULP energy -534500.981975 kJ/mol
# GULP energy per Si atom -5567.718562 kJ/mol
# Density = 1.665128 g / cm^3
# Si number density = 16.689267 Si / 1000 Ang^3
#
#
#
# Elastic Constant Matrix: (Units=GPa)
#
#
# Indices 1 2 3 4 5 6 
#
# 1 52.6325 22.8840 23.6047 0.0000 0.0000 0.0000
# 2 22.8840 52.6325 23.6047 0.0000 0.0000 0.0000
# 3 23.6047 23.6047 76.5909 0.0000 0.0000 0.0000
# 4 0.0000 0.0000 0.0000 5.5625 0.0000 0.0000
# 5 0.0000 0.0000 0.0000 0.0000 5.5625 0.0000
# 6 0.0000 0.0000 0.0000 0.0000 0.0000 19.5983
#
#
#
# Elastic Compliance Matrix: (Units=1/GPa)
#
#
# Indices 1 2 3 4 5 6 
#
# 1 0.025009 -0.008606 -0.005055 0.000000 0.000000 0.000000
# 2 -0.008606 0.025009 -0.005055 0.000000 0.000000 0.000000
# 3 -0.005055 -0.005055 0.016172 0.000000 0.000000 0.000000
# 4 0.000000 0.000000 0.000000 0.179775 0.000000 0.000000
# 5 0.000000 0.000000 0.000000 0.000000 0.179775 0.000000
# 6 0.000000 0.000000 0.000000 0.000000 0.000000 0.051025
#
#
# Mechanical properties :
#
#
# Convention : Reuss Voigt Hill
#
# Bulk Modulus (GPa) = 34.77462 35.78256 35.27859
# Shear Modulus (GPa) = 9.54592 13.59549 11.57070
#
# Velocity S-wave (km/s) = 2.39420 2.85726 2.63592
# Velocity P-wave (km/s) = 5.34085 5.68966 5.51801
#
# Compressibility (1/GPa) = 0.02875660
#
# Stress axis : x y z
#
# Youngs Moduli (GPa) = 39.98603 39.98603 61.83435
#
# Poissons Ratio (x) = 0.34414 0.31258
# Poissons Ratio (y) = 0.34414 0.31258
# Poissons Ratio (z) = 0.20213 0.20213
#
# Static dielectric constant tensor:
#      x y z
#    x 1.570340 0.000000 0.000000 
#    y 0.000000 1.570340 0.000000 
#    z 0.000000 0.000000 1.607760 
# 
# From -- ./inp_files/11920.got.cif
#   From: 2010.05.17/outbox.cif.g08.bks.cpg/sg139_6_cif.got.tgz:11920.got - 2010.05.20 13:14:44.
