data_PCOD9571605
_publ_section_title
;
Structure prediction by ZEFSAII (Michael W. Deem and Ramdas Pophale) SiO2 
 PCOD9571605
Probable space group: I 4/M M M
;
_chemical_formula_sum "Si O2"
_cell_formula_units_Z 144
_cell_length_a 21.265062
_cell_length_b 21.265062
_cell_length_c 18.325141
_cell_angle_alpha 90.000000
_cell_angle_beta 90.000000
_cell_angle_gamma 90.000000
_cell_volume 8286.681204
_symmetry_space_group_name_H-M "I 4/M M M"
_symmetry_group_IT_number 139
_symmetry_cell_setting 'tetragonal'
loop_
_space_group_symop_operation_xyz
x,y,z
-y,x,z
-x,-y,z
y,-x,z
x,-y,-z
-x,y,-z
y,x,-z
-y,-x,-z
-x,-y,-z
y,-x,-z
x,y,-z
-y,x,-z
-x,y,z
x,-y,z
-y,-x,z
y,x,z
1/2+x,1/2+y,1/2+z
1/2-y,1/2+x,1/2+z
1/2-x,1/2-y,1/2+z
1/2+y,1/2-x,1/2+z
1/2+x,1/2-y,1/2-z
1/2-x,1/2+y,1/2-z
1/2+y,1/2+x,1/2-z
1/2-y,1/2-x,1/2-z
1/2-x,1/2-y,1/2-z
1/2+y,1/2-x,1/2-z
1/2+x,1/2+y,1/2-z
1/2-y,1/2+x,1/2-z
1/2-x,1/2+y,1/2+z
1/2+x,1/2-y,1/2+z
1/2-y,1/2-x,1/2+z
1/2+y,1/2+x,1/2+z
loop_
_atom_site_type_symbol
_atom_site_label
_atom_site_fract_x
_atom_site_fract_y
_atom_site_fract_z
Si Si1 0.573305 0.677072 0.000000
Si Si2 0.691395 0.924122 0.916292
Si Si3 0.352239 0.246871 0.718825
Si Si4 0.076217 0.570075 0.167738
Si Si5 0.925429 0.818933 0.660269
O O1 0.586308 0.708137 0.921690
O O2 0.500000 0.661287 0.000000
O O3 0.614149 0.614149 0.000000
O O4 0.731306 0.888332 0.855516
O O5 0.619799 0.907336 0.893804
O O6 0.698169 0.000000 0.908805
O O7 0.704935 0.907561 0.000000
O O8 0.303684 0.303684 0.706350
O O9 0.310135 0.189866 0.750000
O O10 0.401343 0.269999 0.779916
O O11 0.101439 0.500000 0.155771
O O12 0.092075 0.592075 0.250000
O O13 0.000000 0.566272 0.168676
O O14 0.881760 0.881760 0.666860
O O15 0.000000 0.831769 0.668052
#
# Coordination Sequence:
#
# PCOD9571605 Si02
#       5
#    16  32  32  32  32
#     4   8  14  25  44  74 106 134 161 189 236 298
#     4  10  20  33  51  75 100 127 162 207 259 308
#     4  10  21  37  53  71  96 133 180 217 252 298
#     4   8  14  26  46  70  95 125 156 188 236 295
#     4   9  17  31  53  79 108 138 167 207 257 311
#
# _framework density 17.377282999999998
#
# number of rings (size 3 to 8) (size 9 to 14) (size 15 to 20)
#    0.000    2.889    0.000    2.000    0.000    1.222 
#    2.000    5.556    0.000    0.000    0.000    0.000 
#    0.000    0.000    0.000   20.667    0.000    0.222 
#
# Total GULP energy -400963.481198 kJ/mol
# GULP energy per Si atom -5568.937239 kJ/mol
# Density = 1.733773 g / cm^3
# Si number density = 17.377283 Si / 1000 Ang^3
#
#
#
# Elastic Constant Matrix: (Units=GPa)
#
#
# Indices 1 2 3 4 5 6 
#
# 1 58.1417 30.4077 63.5088 0.0000 0.0000 0.0000
# 2 30.4077 58.1419 63.5094 0.0000 0.0000 0.0000
# 3 63.5088 63.5094 185.7416 0.0000 0.0000 0.0000
# 4 0.0000 0.0000 0.0000 26.4884 0.0000 0.0000
# 5 0.0000 0.0000 0.0000 0.0000 26.4890 0.0000
# 6 0.0000 0.0000 0.0000 0.0000 0.0000 15.3608
#
#
#
# Elastic Compliance Matrix: (Units=1/GPa)
#
#
# Indices 1 2 3 4 5 6 
#
# 1 0.029110 -0.006947 -0.007578 0.000000 0.000000 0.000000
# 2 -0.006947 0.029110 -0.007578 0.000000 0.000000 0.000000
# 3 -0.007578 -0.007578 0.010566 0.000000 0.000000 0.000000
# 4 0.000000 0.000000 0.000000 0.037752 0.000000 0.000000
# 5 0.000000 0.000000 0.000000 0.000000 0.037752 0.000000
# 6 0.000000 0.000000 0.000000 0.000000 0.000000 0.065101
#
#
# Mechanical properties :
#
#
# Convention : Reuss Voigt Hill
#
# Bulk Modulus (GPa) = 40.68282 68.54188 54.61235
# Shear Modulus (GPa) = 19.09927 23.30761 21.20344
#
# Velocity S-wave (km/s) = 3.31886 3.66631 3.49690
# Velocity P-wave (km/s) = 6.17647 7.57967 6.91376
#
# Compressibility (1/GPa) = 0.02458040
#
# Stress axis : x y z
#
# Youngs Moduli (GPa) = 34.35252 34.35220 94.64210
#
# Poissons Ratio (x) = 0.23863 0.71721
# Poissons Ratio (y) = 0.23863 0.71723
# Poissons Ratio (z) = 0.26033 0.26033
#
# Static dielectric constant tensor:
#      x y z
#    x 1.594640 0.000000 0.000000 
#    y 0.000000 1.594640 0.000000 
#    z 0.000000 0.000000 1.599010 
# 
# From -- ./inp_files/8212.got.cif
#   From: 2010.05.17/outbox.cif.g08.bks.cpg/sg139_5_cif.got.tgz:8212.got - 2010.05.20 13:14:44.
