data_PCOD9571681
_publ_section_title
;
Structure prediction by ZEFSAII (Michael W. Deem and Ramdas Pophale) SiO2 
 PCOD9571681
Probable space group: I 4/M M M
;
_chemical_formula_sum "Si O2"
_cell_formula_units_Z 136
_cell_length_a 24.663251
_cell_length_b 24.663251
_cell_length_c 13.950717
_cell_angle_alpha 90.000000
_cell_angle_beta 90.000000
_cell_angle_gamma 90.000000
_cell_volume 8485.885635
_symmetry_space_group_name_H-M "I 4/M M M"
_symmetry_group_IT_number 139
_symmetry_cell_setting 'tetragonal'
loop_
_space_group_symop_operation_xyz
x,y,z
-y,x,z
-x,-y,z
y,-x,z
x,-y,-z
-x,y,-z
y,x,-z
-y,-x,-z
-x,-y,-z
y,-x,-z
x,y,-z
-y,x,-z
-x,y,z
x,-y,z
-y,-x,z
y,x,z
1/2+x,1/2+y,1/2+z
1/2-y,1/2+x,1/2+z
1/2-x,1/2-y,1/2+z
1/2+y,1/2-x,1/2+z
1/2+x,1/2-y,1/2-z
1/2-x,1/2+y,1/2-z
1/2+y,1/2+x,1/2-z
1/2-y,1/2-x,1/2-z
1/2-x,1/2-y,1/2-z
1/2+y,1/2-x,1/2-z
1/2+x,1/2+y,1/2-z
1/2-y,1/2+x,1/2-z
1/2-x,1/2+y,1/2+z
1/2+x,1/2-y,1/2+z
1/2-y,1/2-x,1/2+z
1/2+y,1/2+x,1/2+z
loop_
_atom_site_type_symbol
_atom_site_label
_atom_site_fract_x
_atom_site_fract_y
_atom_site_fract_z
Si Si1 0.408906 0.500000 0.106078
Si Si2 0.000000 0.301586 0.692088
Si Si3 0.300828 0.608202 0.614507
Si Si4 0.113456 0.433942 0.500000
Si Si5 0.607141 0.820199 0.684159
Si Si6 0.183012 0.000000 0.237877
Si Si7 0.627685 0.000000 0.500000
O O1 0.448027 0.448027 0.111399
O O2 0.367894 0.500000 0.192770
O O3 0.382809 0.500000 0.000000
O O4 0.053341 0.317331 0.751146
O O5 0.000000 0.236288 0.694329
O O6 0.000000 0.333037 0.592265
O O7 0.300296 0.598506 0.500000
O O8 0.344221 0.655780 0.634376
O O9 0.239976 0.622398 0.648497
O O10 0.315717 0.553199 0.670926
O O11 0.115580 0.500000 0.500000
O O12 0.143843 0.409631 0.407278
O O13 0.052635 0.410800 0.500000
O O14 0.652932 0.847069 0.750000
#
# Coordination Sequence:
#
# PCOD9571681 Si02
#       7
#    16  16  32  16  32  16   8
#     4   9  18  33  53  78 111 149 184 221 272 331
#     4  10  22  34  54  79 108 138 191 222 272 333
#     4  10  21  36  57  86 112 141 188 234 279 340
#     4  12  23  36  61  81 115 143 188 229 284 329
#     4  11  21  37  57  80 107 152 183 230 279 338
#     4  10  20  34  57  80 110 147 180 233 278 329
#     4  12  23  38  52  86 112 143 180 242 282 326
#
# _framework density 16.026612
#
# number of rings (size 3 to 8) (size 9 to 14) (size 15 to 20)
#    0.000    1.529    4.706    1.588    0.824    0.471 
#    0.000    0.000    0.000    0.000    0.000    4.941 
#    0.000    0.000    0.000    0.000    0.000    0.000 
#
# Total GULP energy -379349.835990 kJ/mol
# GULP energy per Si atom -5578.674059 kJ/mol
# Density = 1.599014 g / cm^3
# Si number density = 16.026612 Si / 1000 Ang^3
#
#
#
# Elastic Constant Matrix: (Units=GPa)
#
#
# Indices 1 2 3 4 5 6 
#
# 1 128.2258 73.1389 74.4264 0.0000 0.0000 0.0000
# 2 73.1389 128.2267 74.4256 0.0000 0.0000 0.0000
# 3 74.4264 74.4256 125.1576 0.0000 0.0000 0.0000
# 4 0.0000 0.0000 0.0000 22.4029 0.0000 0.0000
# 5 0.0000 0.0000 0.0000 0.0000 22.4070 0.0000
# 6 0.0000 0.0000 0.0000 0.0000 0.0000 20.1989
#
#
#
# Elastic Compliance Matrix: (Units=1/GPa)
#
#
# Indices 1 2 3 4 5 6 
#
# 1 0.013507 -0.004646 -0.005270 0.000000 0.000000 0.000000
# 2 -0.004646 0.013507 -0.005269 0.000000 0.000000 0.000000
# 3 -0.005270 -0.005269 0.014257 0.000000 0.000000 0.000000
# 4 0.000000 0.000000 0.000000 0.044637 0.000000 0.000000
# 5 0.000000 0.000000 0.000000 0.000000 0.044629 0.000000
# 6 0.000000 0.000000 0.000000 0.000000 0.000000 0.049508
#
#
# Mechanical properties :
#
#
# Convention : Reuss Voigt Hill
#
# Bulk Modulus (GPa) = 91.72786 91.73244 91.73015
# Shear Modulus (GPa) = 23.35918 23.64304 23.50111
#
# Velocity S-wave (km/s) = 3.82190 3.84505 3.83349
# Velocity P-wave (km/s) = 8.76555 8.77920 8.77238
#
# Compressibility (1/GPa) = 0.01090181
#
# Stress axis : x y z
#
# Youngs Moduli (GPa) = 74.03386 74.03551 70.14081
#
# Poissons Ratio (x) = 0.34395 0.36962
# Poissons Ratio (y) = 0.34395 0.36960
# Poissons Ratio (z) = 0.39013 0.39012
#
# Static dielectric constant tensor:
#      x y z
#    x 1.519920 0.000000 0.000000 
#    y 0.000000 1.519920 0.000000 
#    z 0.000000 0.000000 1.513670 
# 
# From -- ./inp_files/3604.got.cif
#   From: 2010.05.17/outbox.cif.g08.bks.cpg/sg139_2_cif.got.tgz:3604.got - 2010.05.20 13:14:44.
