data_PCOD9571841
_publ_section_title
;
Structure prediction by ZEFSAII (Michael W. Deem and Ramdas Pophale) SiO2 
 PCOD9571841
Probable space group: I 4/M M M
;
_chemical_formula_sum "Si O2"
_cell_formula_units_Z 136
_cell_length_a 26.366798
_cell_length_b 26.366798
_cell_length_c 10.577101
_cell_angle_alpha 90.000000
_cell_angle_beta 90.000000
_cell_angle_gamma 90.000000
_cell_volume 7353.285621
_symmetry_space_group_name_H-M "I 4/M M M"
_symmetry_group_IT_number 139
_symmetry_cell_setting 'tetragonal'
loop_
_space_group_symop_operation_xyz
x,y,z
-y,x,z
-x,-y,z
y,-x,z
x,-y,-z
-x,y,-z
y,x,-z
-y,-x,-z
-x,-y,-z
y,-x,-z
x,y,-z
-y,x,-z
-x,y,z
x,-y,z
-y,-x,z
y,x,z
1/2+x,1/2+y,1/2+z
1/2-y,1/2+x,1/2+z
1/2-x,1/2-y,1/2+z
1/2+y,1/2-x,1/2+z
1/2+x,1/2-y,1/2-z
1/2-x,1/2+y,1/2-z
1/2+y,1/2+x,1/2-z
1/2-y,1/2-x,1/2-z
1/2-x,1/2-y,1/2-z
1/2+y,1/2-x,1/2-z
1/2+x,1/2+y,1/2-z
1/2-y,1/2+x,1/2-z
1/2-x,1/2+y,1/2+z
1/2+x,1/2-y,1/2+z
1/2-y,1/2-x,1/2+z
1/2+y,1/2+x,1/2+z
loop_
_atom_site_type_symbol
_atom_site_label
_atom_site_fract_x
_atom_site_fract_y
_atom_site_fract_z
Si Si1 0.272495 0.059551 0.500000
Si Si2 0.559480 0.059480 0.750000
Si Si3 0.620449 0.620449 0.709055
Si Si4 0.057532 0.298446 0.000000
Si Si5 0.056236 0.943765 0.351956
Si Si6 0.059644 0.940357 0.000000
Si Si7 0.219763 0.059080 0.229771
Si Si8 0.615608 0.098686 0.500000
O O1 0.240977 0.067825 0.371066
O O2 0.324147 0.091281 0.500000
O O3 0.287324 0.000000 0.500000
O O4 0.500000 0.067315 0.721140
O O5 0.592146 0.073997 0.626985
O O6 0.598625 0.598625 0.838674
O O7 0.586461 0.586461 0.616452
O O8 0.677505 0.601089 0.696625
O O9 0.062329 0.263731 0.124676
O O10 0.097672 0.343247 0.000000
O O11 0.000000 0.319919 0.000000
O O12 0.050459 0.949542 0.500000
O O13 0.000000 0.930244 0.301496
O O14 0.000000 0.931292 0.000000
O O15 0.200473 0.000000 0.224253
#
# Coordination Sequence:
#
# PCOD9571841 Si02
#       8
#    16  16  16  16  16   8  32  16
#     4  10  22  39  58  86 117 150 195 245 290 343
#     4  11  22  34  54  92 130 155 184 226 282 357
#     4  12  22  35  58  79 109 153 197 236 296 348
#     4  10  21  39  60  85 114 152 197 241 293 353
#     4   9  18  30  46  74 109 140 174 217 274 355
#     4  11  22  34  52  84 120 150 186 234 294 374
#     4  10  22  38  58  84 117 151 195 249 297 350
#     4  12  22  38  64  84 117 164 201 234 289 355
#
# _framework density 18.495134
#
# number of rings (size 3 to 8) (size 9 to 14) (size 15 to 20)
#    0.000    1.471    0.000    6.706    1.647    4.706 
#    0.000    0.000    0.000    4.235    0.000    0.000 
#    0.000    0.000    0.000    0.000    0.000    0.000 
#
# Total GULP energy -379519.920480 kJ/mol
# GULP energy per Si atom -5581.175301 kJ/mol
# Density = 1.845304 g / cm^3
# Si number density = 18.495134 Si / 1000 Ang^3
#
#
#
# Elastic Constant Matrix: (Units=GPa)
#
#
# Indices 1 2 3 4 5 6 
#
# 1 125.8257 17.1544 17.6172 0.0000 0.0000 0.0000
# 2 17.1544 125.8228 17.6156 0.0000 0.0000 0.0000
# 3 17.6172 17.6156 100.0354 0.0000 0.0000 0.0000
# 4 0.0000 0.0000 0.0000 23.3548 0.0000 0.0000
# 5 0.0000 0.0000 0.0000 0.0000 23.3548 0.0000
# 6 0.0000 0.0000 0.0000 0.0000 0.0000 35.8734
#
#
#
# Elastic Compliance Matrix: (Units=1/GPa)
#
#
# Indices 1 2 3 4 5 6 
#
# 1 0.008257 -0.000945 -0.001288 0.000000 0.000000 0.000000
# 2 -0.000945 0.008257 -0.001287 0.000000 0.000000 0.000000
# 3 -0.001288 -0.001287 0.010450 0.000000 0.000000 0.000000
# 4 0.000000 0.000000 0.000000 0.042818 0.000000 0.000000
# 5 0.000000 0.000000 0.000000 0.000000 0.042818 0.000000
# 6 0.000000 0.000000 0.000000 0.000000 0.000000 0.027876
#
#
# Mechanical properties :
#
#
# Convention : Reuss Voigt Hill
#
# Bulk Modulus (GPa) = 50.19466 50.71759 50.45612
# Shear Modulus (GPa) = 32.43457 36.46973 34.45215
#
# Velocity S-wave (km/s) = 4.19224 4.44538 4.32066
# Velocity P-wave (km/s) = 7.11558 7.33690 7.22709
#
# Compressibility (1/GPa) = 0.01992244
#
# Stress axis : x y z
#
# Youngs Moduli (GPa) = 121.11409 121.11182 95.69435
#
# Poissons Ratio (x) = 0.11450 0.12322
# Poissons Ratio (y) = 0.11450 0.12320
# Poissons Ratio (z) = 0.15595 0.15593
#
# Static dielectric constant tensor:
#      x y z
#    x 1.640190 0.000000 0.000000 
#    y 0.000000 1.640190 0.000000 
#    z 0.000000 0.000000 1.169520 
# 
# From -- ./inp_files/3638.got.cif
#   From: 2010.05.17/outbox.cif.g08.bks.cpg/sg139_2_cif.got.tgz:3638.got - 2010.05.20 13:14:44.
