data_PCOD9571439
_publ_section_title
;
Structure prediction by ZEFSAII (Michael W. Deem and Ramdas Pophale) SiO2 
 PCOD9571439
Probable space group: I 4/M M M
;
_chemical_formula_sum "Si O2"
_cell_formula_units_Z 160
_cell_length_a 32.493503
_cell_length_b 32.493503
_cell_length_c 8.020924
_cell_angle_alpha 90.000000
_cell_angle_beta 90.000000
_cell_angle_gamma 90.000000
_cell_volume 8468.714037
_symmetry_space_group_name_H-M "I 4/M M M"
_symmetry_group_IT_number 139
_symmetry_cell_setting 'tetragonal'
loop_
_space_group_symop_operation_xyz
x,y,z
-y,x,z
-x,-y,z
y,-x,z
x,-y,-z
-x,y,-z
y,x,-z
-y,-x,-z
-x,-y,-z
y,-x,-z
x,y,-z
-y,x,-z
-x,y,z
x,-y,z
-y,-x,z
y,x,z
1/2+x,1/2+y,1/2+z
1/2-y,1/2+x,1/2+z
1/2-x,1/2-y,1/2+z
1/2+y,1/2-x,1/2+z
1/2+x,1/2-y,1/2-z
1/2-x,1/2+y,1/2-z
1/2+y,1/2+x,1/2-z
1/2-y,1/2-x,1/2-z
1/2-x,1/2-y,1/2-z
1/2+y,1/2-x,1/2-z
1/2+x,1/2+y,1/2-z
1/2-y,1/2+x,1/2-z
1/2-x,1/2+y,1/2+z
1/2+x,1/2-y,1/2+z
1/2-y,1/2-x,1/2+z
1/2+y,1/2+x,1/2+z
loop_
_atom_site_type_symbol
_atom_site_label
_atom_site_fract_x
_atom_site_fract_y
_atom_site_fract_z
Si Si1 0.047016 0.047016 0.200216
Si Si2 0.548951 0.743467 0.500000
Si Si3 0.450835 0.890368 0.811713
Si Si4 0.210094 0.099227 0.304808
Si Si5 0.747979 0.183263 0.199342
Si Si6 0.614744 0.385257 0.801609
Si Si7 0.662768 0.050175 0.000000
O O1 0.081323 0.081323 0.240578
O O2 0.000000 0.056950 0.258545
O O3 0.045275 0.045275 0.000000
O O4 0.500000 0.741329 0.500000
O O5 0.566254 0.724723 0.329802
O O6 0.563072 0.790592 0.500000
O O7 0.500000 0.889848 0.812436
O O8 0.434071 0.934071 0.750000
O O9 0.435882 0.859243 0.669322
O O10 0.436852 0.881360 0.000000
O O11 0.212301 0.087056 0.500000
O O12 0.237514 0.140515 0.280569
O O13 0.162292 0.106747 0.257852
O O14 0.783229 0.216772 0.243965
O O15 0.704848 0.204848 0.250000
O O16 0.748209 0.177695 0.000000
O O17 0.612468 0.387533 0.000000
O O18 0.661075 0.000000 0.000000
#
# Coordination Sequence:
#
# PCOD9571439 Si02
#       7
#    16  16  32  32  32  16  16
#     4   9  20  38  60  89 125 167 214 265 322 379
#     4  11  26  45  65  86 116 163 213 265 318 366
#     4  10  19  32  56  86 116 152 192 239 298 364
#     4  11  23  41  65  95 129 163 208 259 314 381
#     4  10  19  33  60  93 127 167 204 244 306 384
#     4  10  23  39  62  93 128 167 205 253 312 379
#     4   9  20  40  58  77 108 150 200 244 292 354
#
# _framework density 18.893068
#
# number of rings (size 3 to 8) (size 9 to 14) (size 15 to 20)
#    0.000    1.900    3.000    0.900    1.400    3.400 
#    0.000    6.500    0.000    0.000    0.000    0.000 
#    0.000    0.000    0.000    0.000    0.000    0.000 
#
# Total GULP energy -446014.207246 kJ/mol
# GULP energy per Si atom -5575.177591 kJ/mol
# Density = 1.885007 g / cm^3
# Si number density = 18.893068 Si / 1000 Ang^3
#
#
#
# Elastic Constant Matrix: (Units=GPa)
#
#
# Indices 1 2 3 4 5 6 
#
# 1 85.1614 56.1325 50.2082 0.0000 0.0000 0.0000
# 2 56.1325 85.1610 50.2077 0.0000 0.0000 0.0000
# 3 50.2082 50.2077 128.1629 0.0000 0.0000 0.0000
# 4 0.0000 0.0000 0.0000 21.1242 0.0000 0.0000
# 5 0.0000 0.0000 0.0000 0.0000 21.1248 0.0000
# 6 0.0000 0.0000 0.0000 0.0000 0.0000 31.6095
#
#
#
# Elastic Compliance Matrix: (Units=1/GPa)
#
#
# Indices 1 2 3 4 5 6 
#
# 1 0.022128 -0.012320 -0.003842 0.000000 0.000000 0.000000
# 2 -0.012320 0.022128 -0.003842 0.000000 0.000000 0.000000
# 3 -0.003842 -0.003842 0.010813 0.000000 0.000000 0.000000
# 4 0.000000 0.000000 0.000000 0.047339 0.000000 0.000000
# 5 0.000000 0.000000 0.000000 0.000000 0.047338 0.000000
# 6 0.000000 0.000000 0.000000 0.000000 0.000000 0.031636
#
#
# Mechanical properties :
#
#
# Convention : Reuss Voigt Hill
#
# Bulk Modulus (GPa) = 66.40117 67.95356 67.17736
# Shear Modulus (GPa) = 22.08358 24.23417 23.15888
#
# Velocity S-wave (km/s) = 3.42259 3.58537 3.50492
# Velocity P-wave (km/s) = 7.13028 7.29283 7.21201
#
# Compressibility (1/GPa) = 0.01505998
#
# Stress axis : x y z
#
# Youngs Moduli (GPa) = 45.19074 45.19076 92.48069
#
# Poissons Ratio (x) = 0.55676 0.35535
# Poissons Ratio (y) = 0.55676 0.35534
# Poissons Ratio (z) = 0.17364 0.17364
#
# Static dielectric constant tensor:
#      x y z
#    x 1.662310 0.000000 0.000000 
#    y 0.000000 1.662310 0.000000 
#    z 0.000000 0.000000 1.644810 
# 
# From -- ./inp_files/2320.got.cif
#   From: 2010.05.17/outbox.cif.g08.bks.cpg/sg139_2_cif.got.tgz:2320.got - 2010.05.20 13:14:44.
