data_PCOD9571951
_publ_section_title
;
Structure prediction by ZEFSAII (Michael W. Deem and Ramdas Pophale) SiO2 
 PCOD9571951
Probable space group: I 4/M M M
;
_chemical_formula_sum "Si O2"
_cell_formula_units_Z 96
_cell_length_a 24.772358
_cell_length_b 24.772358
_cell_length_c 7.854389
_cell_angle_alpha 90.000000
_cell_angle_beta 90.000000
_cell_angle_gamma 90.000000
_cell_volume 4820.000705
_symmetry_space_group_name_H-M "I 4/M M M"
_symmetry_group_IT_number 139
_symmetry_cell_setting 'tetragonal'
loop_
_space_group_symop_operation_xyz
x,y,z
-y,x,z
-x,-y,z
y,-x,z
x,-y,-z
-x,y,-z
y,x,-z
-y,-x,-z
-x,-y,-z
y,-x,-z
x,y,-z
-y,x,-z
-x,y,z
x,-y,z
-y,-x,z
y,x,z
1/2+x,1/2+y,1/2+z
1/2-y,1/2+x,1/2+z
1/2-x,1/2-y,1/2+z
1/2+y,1/2-x,1/2+z
1/2+x,1/2-y,1/2-z
1/2-x,1/2+y,1/2-z
1/2+y,1/2+x,1/2-z
1/2-y,1/2-x,1/2-z
1/2-x,1/2-y,1/2-z
1/2+y,1/2-x,1/2-z
1/2+x,1/2+y,1/2-z
1/2-y,1/2+x,1/2-z
1/2-x,1/2+y,1/2+z
1/2+x,1/2-y,1/2+z
1/2-y,1/2-x,1/2+z
1/2+y,1/2+x,1/2+z
loop_
_atom_site_type_symbol
_atom_site_label
_atom_site_fract_x
_atom_site_fract_y
_atom_site_fract_z
Si Si1 0.914653 0.771012 0.808773
Si Si2 0.706009 0.293992 0.204562
Si Si3 0.560341 0.149322 0.796724
Si Si4 0.650441 0.441267 0.000000
O O1 0.850506 0.775939 0.783272
O O2 0.930393 0.708709 0.780196
O O3 0.937410 0.810480 0.664056
O O4 0.929803 0.787308 0.000000
O O5 0.750000 0.250000 0.250000
O O6 0.700600 0.299401 0.000000
O O7 0.500000 0.130481 0.747003
O O8 0.606542 0.106542 0.750000
O O9 0.561687 0.156096 0.000000
O O10 0.623488 0.500000 0.000000
O O11 0.607440 0.392561 0.000000
#
# Coordination Sequence:
#
# PCOD9571951 Si02
#       4
#    32  16  32  16
#     4  12  23  42  68  99 134 174 220 270 332 397
#     4  12  22  38  62  99 143 177 215 270 329 398
#     4  11  24  42  63  91 130 174 226 282 332 390
#     4  12  26  47  72 102 137 173 221 273 329 402
#
# _framework density 19.917010000000001
#
# number of rings (size 3 to 8) (size 9 to 14) (size 15 to 20)
#    0.000    0.333    5.000    4.500    0.000    5.167 
#    0.000    1.667    0.000    0.000    0.000    2.333 
#    0.000    0.000    0.000    0.000    0.000    0.000 
#
# Total GULP energy -268575.809652 kJ/mol
# GULP energy per Si atom -5595.329368 kJ/mol
# Density = 1.987168 g / cm^3
# Si number density = 19.917010 Si / 1000 Ang^3
#
#
#
# Elastic Constant Matrix: (Units=GPa)
#
#
# Indices 1 2 3 4 5 6 
#
# 1 112.3150 60.1380 41.6895 0.0000 0.0000 0.0000
# 2 60.1380 112.3160 41.6896 0.0000 0.0000 0.0000
# 3 41.6895 41.6896 163.4815 0.0000 0.0000 0.0000
# 4 0.0000 0.0000 0.0000 2.8309 0.0000 0.0000
# 5 0.0000 0.0000 0.0000 0.0000 2.8319 0.0000
# 6 0.0000 0.0000 0.0000 0.0000 0.0000 5.8341
#
#
#
# Elastic Compliance Matrix: (Units=1/GPa)
#
#
# Indices 1 2 3 4 5 6 
#
# 1 0.012890 -0.006276 -0.001687 0.000000 0.000000 0.000000
# 2 -0.006276 0.012890 -0.001687 0.000000 0.000000 0.000000
# 3 -0.001687 -0.001687 0.006977 0.000000 0.000000 0.000000
# 4 0.000000 0.000000 0.000000 0.353246 0.000000 0.000000
# 5 0.000000 0.000000 0.000000 0.000000 0.353125 0.000000
# 6 0.000000 0.000000 0.000000 0.000000 0.000000 0.171405
#
#
# Mechanical properties :
#
#
# Convention : Reuss Voigt Hill
#
# Bulk Modulus (GPa) = 74.30124 75.01632 74.65878
# Shear Modulus (GPa) = 5.35150 18.60573 11.97862
#
# Velocity S-wave (km/s) = 1.64096 3.05972 2.45506
# Velocity P-wave (km/s) = 6.40131 7.08722 6.75298
#
# Compressibility (1/GPa) = 0.01345872
#
# Stress axis : x y z
#
# Youngs Moduli (GPa) = 77.58062 77.58135 143.32511
#
# Poissons Ratio (x) = 0.48687 0.24175
# Poissons Ratio (y) = 0.48687 0.24174
# Poissons Ratio (z) = 0.13085 0.13085
#
# Static dielectric constant tensor:
#      x y z
#    x 1.675780 0.000000 0.000000 
#    y 0.000000 1.675740 0.000000 
#    z 0.000000 0.000000 1.711150 
# 
# From -- ./inp_files/1145.got.cif
#   From: 2010.05.17/outbox.cif.g08.bks.cpg/sg139_1_cif.got.tgz:1145.got - 2010.05.20 13:14:44.
