data_PCOD9571193
_publ_section_title
;
Structure prediction by ZEFSAII (Michael W. Deem and Ramdas Pophale) SiO2 
 PCOD9571193
Probable space group: I 4/M M M
;
_chemical_formula_sum "Si O2"
_cell_formula_units_Z 160
_cell_length_a 18.594801
_cell_length_b 18.594801
_cell_length_c 29.083102
_cell_angle_alpha 90.000000
_cell_angle_beta 90.000000
_cell_angle_gamma 90.000000
_cell_volume 10055.966001
_symmetry_space_group_name_H-M "I 4/M M M"
_symmetry_group_IT_number 139
_symmetry_cell_setting 'tetragonal'
loop_
_space_group_symop_operation_xyz
x,y,z
-y,x,z
-x,-y,z
y,-x,z
x,-y,-z
-x,y,-z
y,x,-z
-y,-x,-z
-x,-y,-z
y,-x,-z
x,y,-z
-y,x,-z
-x,y,z
x,-y,z
-y,-x,z
y,x,z
1/2+x,1/2+y,1/2+z
1/2-y,1/2+x,1/2+z
1/2-x,1/2-y,1/2+z
1/2+y,1/2-x,1/2+z
1/2+x,1/2-y,1/2-z
1/2-x,1/2+y,1/2-z
1/2+y,1/2+x,1/2-z
1/2-y,1/2-x,1/2-z
1/2-x,1/2-y,1/2-z
1/2+y,1/2-x,1/2-z
1/2+x,1/2+y,1/2-z
1/2-y,1/2+x,1/2-z
1/2-x,1/2+y,1/2+z
1/2+x,1/2-y,1/2+z
1/2-y,1/2-x,1/2+z
1/2+y,1/2+x,1/2+z
loop_
_atom_site_type_symbol
_atom_site_label
_atom_site_fract_x
_atom_site_fract_y
_atom_site_fract_z
Si Si1 0.767563 0.350288 0.098690
Si Si2 0.803553 0.082055 0.684864
Si Si3 0.500000 0.787586 0.054349
Si Si4 0.582340 0.159476 0.636762
Si Si5 0.000000 0.580602 0.376889
Si Si6 0.138442 0.256281 0.777117
O O1 0.714862 0.285139 0.085241
O O2 0.747632 0.371937 0.151310
O O3 0.753459 0.423629 0.070125
O O4 0.852160 0.330093 0.100569
O O5 0.881376 0.118625 0.680181
O O6 0.779337 0.090120 0.737488
O O7 0.801348 0.000000 0.670235
O O8 0.500000 0.862366 0.082338
O O9 0.500000 0.796225 0.000000
O O10 0.500000 0.169837 0.620239
O O11 0.589057 0.074577 0.650240
O O12 0.597080 0.209714 0.680319
O O13 0.000000 0.500000 0.395916
O O14 0.196642 0.196642 0.792931
O O15 0.183034 0.316967 0.750000
#
# Coordination Sequence:
#
# PCOD9571193 Si02
#       6
#    32  32  16  32  16  32
#     4  10  19  33  51  69  95 127 157 197 248 296
#     4  10  19  31  47  65  87 121 162 201 241 288
#     4  10  20  33  52  75  94 120 159 197 242 300
#     4  10  18  30  45  66  95 126 159 200 236 281
#     4   8  18  33  48  66  97 127 160 196 235 283
#     4  10  18  28  43  64  90 123 164 201 239 289
#
# _framework density 15.910952999999999
#
# number of rings (size 3 to 8) (size 9 to 14) (size 15 to 20)
#    0.000    2.200    3.000    1.200    0.000    0.800 
#    1.800    0.000    0.000    0.300    0.000    0.700 
#    0.000    3.600    0.000    0.000    0.000    0.000 
#
# Total GULP energy -445377.278882 kJ/mol
# GULP energy per Si atom -5567.215986 kJ/mol
# Density = 1.587474 g / cm^3
# Si number density = 15.910953 Si / 1000 Ang^3
#
#
#
# Elastic Constant Matrix: (Units=GPa)
#
#
# Indices 1 2 3 4 5 6 
#
# 1 78.4421 47.1396 12.5296 0.0000 0.0000 0.0000
# 2 47.1396 78.4401 12.5292 0.0000 0.0000 0.0000
# 3 12.5296 12.5292 46.4508 0.0000 0.0000 0.0000
# 4 0.0000 0.0000 0.0000 6.4042 0.0000 0.0000
# 5 0.0000 0.0000 0.0000 0.0000 6.4044 0.0000
# 6 0.0000 0.0000 0.0000 0.0000 0.0000 20.4434
#
#
#
# Elastic Compliance Matrix: (Units=1/GPa)
#
#
# Indices 1 2 3 4 5 6 
#
# 1 0.020181 -0.011766 -0.002270 0.000000 0.000000 0.000000
# 2 -0.011766 0.020182 -0.002270 0.000000 0.000000 0.000000
# 3 -0.002270 -0.002270 0.022753 0.000000 0.000000 0.000000
# 4 0.000000 0.000000 0.000000 0.156147 0.000000 0.000000
# 5 0.000000 0.000000 0.000000 0.000000 0.156143 0.000000
# 6 0.000000 0.000000 0.000000 0.000000 0.000000 0.048915
#
#
# Mechanical properties :
#
#
# Convention : Reuss Voigt Hill
#
# Bulk Modulus (GPa) = 32.78210 38.63663 35.70937
# Shear Modulus (GPa) = 10.70433 15.39272 13.04853
#
# Velocity S-wave (km/s) = 2.59659 3.11373 2.86684
# Velocity P-wave (km/s) = 5.44407 6.10433 5.78363
#
# Compressibility (1/GPa) = 0.03050445
#
# Stress axis : x y z
#
# Youngs Moduli (GPa) = 49.55049 49.54938 43.95060
#
# Poissons Ratio (x) = 0.58298 0.09978
# Poissons Ratio (y) = 0.58299 0.09977
# Poissons Ratio (z) = 0.11249 0.11248
#
# Static dielectric constant tensor:
#      x y z
#    x 1.566900 0.000000 0.000000 
#    y 0.000000 1.566900 0.000000 
#    z 0.000000 0.000000 1.504520 
# 
# From -- ./inp_files/12964.got.cif
#   From: 2010.05.17/outbox.cif.g08.bks.cpg/sg139_7_cif.got.tgz:12964.got - 2010.05.20 13:14:44.
