data_PCOD9571175
_publ_section_title
;
Structure prediction by ZEFSAII (Michael W. Deem and Ramdas Pophale) SiO2 
 PCOD9571175
Probable space group: I 4/M M M
;
_chemical_formula_sum "Si O2"
_cell_formula_units_Z 224
_cell_length_a 30.892171
_cell_length_b 30.892171
_cell_length_c 17.834223
_cell_angle_alpha 90.000000
_cell_angle_beta 90.000000
_cell_angle_gamma 90.000000
_cell_volume 17019.666784
_symmetry_space_group_name_H-M "I 4/M M M"
_symmetry_group_IT_number 139
_symmetry_cell_setting 'tetragonal'
loop_
_space_group_symop_operation_xyz
x,y,z
-y,x,z
-x,-y,z
y,-x,z
x,-y,-z
-x,y,-z
y,x,-z
-y,-x,-z
-x,-y,-z
y,-x,-z
x,y,-z
-y,x,-z
-x,y,z
x,-y,z
-y,-x,z
y,x,z
1/2+x,1/2+y,1/2+z
1/2-y,1/2+x,1/2+z
1/2-x,1/2-y,1/2+z
1/2+y,1/2-x,1/2+z
1/2+x,1/2-y,1/2-z
1/2-x,1/2+y,1/2-z
1/2+y,1/2+x,1/2-z
1/2-y,1/2-x,1/2-z
1/2-x,1/2-y,1/2-z
1/2+y,1/2-x,1/2-z
1/2+x,1/2+y,1/2-z
1/2-y,1/2+x,1/2-z
1/2-x,1/2+y,1/2+z
1/2+x,1/2-y,1/2+z
1/2-y,1/2-x,1/2+z
1/2+y,1/2+x,1/2+z
loop_
_atom_site_type_symbol
_atom_site_label
_atom_site_fract_x
_atom_site_fract_y
_atom_site_fract_z
Si Si1 0.678964 0.678964 0.087600
Si Si2 0.450294 0.890989 0.412476
Si Si3 0.317398 0.189140 0.911603
Si Si4 0.607123 0.163584 0.692487
Si Si5 0.395296 0.740356 0.913850
Si Si6 0.743701 0.743701 0.161648
Si Si7 0.368291 0.948974 0.582204
Si Si8 0.289488 0.948798 0.303873
O O1 0.630051 0.695041 0.096865
O O2 0.707509 0.707509 0.143593
O O3 0.690710 0.690710 0.000000
O O4 0.447670 0.877021 0.500000
O O5 0.500000 0.903190 0.397851
O O6 0.432678 0.856044 0.354418
O O7 0.414952 0.928703 0.403038
O O8 0.325404 0.145609 0.865004
O O9 0.358157 0.222335 0.903454
O O10 0.275835 0.213697 0.877371
O O11 0.312362 0.180913 0.000000
O O12 0.629071 0.129071 0.750000
O O13 0.585578 0.203216 0.737416
O O14 0.433149 0.750160 0.855847
O O15 0.410169 0.742981 0.000000
O O16 0.750000 0.750000 0.250000
O O17 0.353517 0.932256 0.500000
O O18 0.332265 0.941545 0.644401
O O19 0.373319 0.000000 0.577693
O O20 0.287428 0.000000 0.284545
#
# Coordination Sequence:
#
# PCOD9571175 Si02
#       8
#    16  32  32  32  32  16  32  32
#     4   8  16  28  42  60  88 116 130 155 193 241
#     4  10  20  33  46  56  69  94 126 161 206 261
#     4  10  19  31  46  63  86 111 134 163 201 252
#     4  12  20  31  44  60  76 100 132 170 211 251
#     4   9  16  28  44  62  84 109 136 160 200 255
#     4  10  18  26  44  70  92 108 128 158 196 245
#     4   9  17  29  43  58  74  93 119 156 209 266
#     4  11  21  30  42  60  83 105 132 176 216 249
#
# _framework density 13.161244999999999
#
# number of rings (size 3 to 8) (size 9 to 14) (size 15 to 20)
#    0.000    2.000    2.857    3.214    2.000    3.429 
#    0.000    1.429    0.000    0.000    0.000    0.000 
#    0.000    0.000    0.000    0.000    0.000    0.357 
#
# Total GULP energy -623798.391486 kJ/mol
# GULP energy per Si atom -5569.628495 kJ/mol
# Density = 1.313129 g / cm^3
# Si number density = 13.161245 Si / 1000 Ang^3
#
#
#
# Elastic Constant Matrix: (Units=GPa)
#
#
# Indices 1 2 3 4 5 6 
#
# 1 26.9400 15.6414 16.0035 0.0000 0.0000 0.0000
# 2 15.6414 26.9400 16.0035 0.0000 0.0000 0.0000
# 3 16.0035 16.0035 54.1151 0.0000 0.0000 0.0000
# 4 0.0000 0.0000 0.0000 15.5824 0.0000 0.0000
# 5 0.0000 0.0000 0.0000 0.0000 15.5824 0.0000
# 6 0.0000 0.0000 0.0000 0.0000 0.0000 21.0487
#
#
#
# Elastic Compliance Matrix: (Units=1/GPa)
#
#
# Indices 1 2 3 4 5 6 
#
# 1 0.059352 -0.029155 -0.008930 0.000000 0.000000 0.000000
# 2 -0.029155 0.059352 -0.008930 0.000000 0.000000 0.000000
# 3 -0.008930 -0.008930 0.023761 0.000000 0.000000 0.000000
# 4 0.000000 0.000000 0.000000 0.064175 0.000000 0.000000
# 5 0.000000 0.000000 0.000000 0.000000 0.064175 0.000000
# 6 0.000000 0.000000 0.000000 0.000000 0.000000 0.047509
#
#
# Mechanical properties :
#
#
# Convention : Reuss Voigt Hill
#
# Bulk Modulus (GPa) = 20.64656 22.58799 21.61727
# Shear Modulus (GPa) = 11.66865 14.46580 13.06722
#
# Velocity S-wave (km/s) = 2.98080 3.31890 3.15438
# Velocity P-wave (km/s) = 5.25055 5.64682 5.45229
#
# Compressibility (1/GPa) = 0.04843422
#
# Stress axis : x y z
#
# Youngs Moduli (GPa) = 16.84868 16.84868 42.08582
#
# Poissons Ratio (x) = 0.49122 0.37583
# Poissons Ratio (y) = 0.49122 0.37583
# Poissons Ratio (z) = 0.15046 0.15046
#
# Static dielectric constant tensor:
#      x y z
#    x 1.433550 0.000000 0.000000 
#    y 0.000000 1.433550 0.000000 
#    z 0.000000 0.000000 1.472770 
# 
# From -- ./inp_files/9117.got.cif
#   From: 2010.05.17/outbox.cif.g08.bks.cpg/sg139_5_cif.got.tgz:9117.got - 2010.05.20 13:14:44.
