data_PCOD9571223
_publ_section_title
;
Structure prediction by ZEFSAII (Michael W. Deem and Ramdas Pophale) SiO2 
 PCOD9571223
Probable space group: I 4/M M M
;
_chemical_formula_sum "Si O2"
_cell_formula_units_Z 240
_cell_length_a 27.393509
_cell_length_b 27.393509
_cell_length_c 18.262921
_cell_angle_alpha 90.000000
_cell_angle_beta 90.000000
_cell_angle_gamma 90.000000
_cell_volume 13704.575094
_symmetry_space_group_name_H-M "I 4/M M M"
_symmetry_group_IT_number 139
_symmetry_cell_setting 'tetragonal'
loop_
_space_group_symop_operation_xyz
x,y,z
-y,x,z
-x,-y,z
y,-x,z
x,-y,-z
-x,y,-z
y,x,-z
-y,-x,-z
-x,-y,-z
y,-x,-z
x,y,-z
-y,x,-z
-x,y,z
x,-y,z
-y,-x,z
y,x,z
1/2+x,1/2+y,1/2+z
1/2-y,1/2+x,1/2+z
1/2-x,1/2-y,1/2+z
1/2+y,1/2-x,1/2+z
1/2+x,1/2-y,1/2-z
1/2-x,1/2+y,1/2-z
1/2+y,1/2+x,1/2-z
1/2-y,1/2-x,1/2-z
1/2-x,1/2-y,1/2-z
1/2+y,1/2-x,1/2-z
1/2+x,1/2+y,1/2-z
1/2-y,1/2+x,1/2-z
1/2-x,1/2+y,1/2+z
1/2+x,1/2-y,1/2+z
1/2-y,1/2-x,1/2+z
1/2+y,1/2+x,1/2+z
loop_
_atom_site_type_symbol
_atom_site_label
_atom_site_fract_x
_atom_site_fract_y
_atom_site_fract_z
Si Si1 0.056613 0.659157 0.303027
Si Si2 0.787258 0.295277 0.083834
Si Si3 0.942938 0.135480 0.174514
Si Si4 0.692073 0.613319 0.198645
Si Si5 0.271387 0.557735 0.417253
Si Si6 0.944918 0.555083 0.750000
Si Si7 0.218920 0.625541 0.302808
Si Si8 0.909613 0.263834 0.417029
O O1 0.060071 0.600444 0.305547
O O2 0.096546 0.678586 0.244496
O O3 0.068760 0.688590 0.376830
O O4 0.000000 0.670779 0.282074
O O5 0.744441 0.255560 0.096517
O O6 0.827059 0.293505 0.149018
O O7 0.768087 0.350640 0.082410
O O8 0.806365 0.285736 0.000000
O O9 0.913762 0.086239 0.162630
O O10 0.920781 0.162183 0.245788
O O11 0.934106 0.173038 0.108116
O O12 0.000000 0.128029 0.183011
O O13 0.655945 0.655945 0.172455
O O14 0.736506 0.635725 0.246843
O O15 0.717231 0.582084 0.134837
O O16 0.263668 0.573645 0.500000
O O17 0.262116 0.500000 0.411644
O O18 0.238081 0.586661 0.361560
O O19 0.940956 0.500000 0.718480
O O20 0.926932 0.259067 0.500000
#
# Coordination Sequence:
#
# PCOD9571223 Si02
#       8
#    32  32  32  32  32  16  32  32
#     4  10  20  34  53  76  99 123 158 205 249 289
#     4  10  20  32  47  71 105 140 169 196 227 273
#     4   9  18  32  49  70  95 123 159 203 248 293
#     4   9  18  31  48  69  94 128 166 201 237 283
#     4   9  17  29  45  66  95 131 168 204 241 283
#     4   9  18  34  56  78  99 126 158 192 233 282
#     4  10  18  30  48  71  99 131 165 202 243 283
#     4  10  21  35  51  72 100 131 160 196 243 288
#
# _framework density 17.5124
#
# number of rings (size 3 to 8) (size 9 to 14) (size 15 to 20)
#    0.000    2.467    0.000    2.400    0.000    6.800 
#    0.000    3.333    0.000    0.400    0.000    7.467 
#    0.000    0.000    0.000    2.933    0.000    0.000 
#
# Total GULP energy -668784.245088 kJ/mol
# GULP energy per Si atom -5573.202042 kJ/mol
# Density = 1.747254 g / cm^3
# Si number density = 17.512400 Si / 1000 Ang^3
#
#
#
# Elastic Constant Matrix: (Units=GPa)
#
#
# Indices 1 2 3 4 5 6 
#
# 1 30.8558 29.3632 4.3357 0.0000 0.0000 0.0000
# 2 29.3632 30.8549 4.3357 0.0000 0.0000 0.0000
# 3 4.3357 4.3357 70.2857 0.0000 0.0000 0.0000
# 4 0.0000 0.0000 0.0000 13.7759 0.0000 0.0000
# 5 0.0000 0.0000 0.0000 0.0000 13.7756 0.0000
# 6 0.0000 0.0000 0.0000 0.0000 0.0000 24.6309
#
#
#
# Elastic Compliance Matrix: (Units=1/GPa)
#
#
# Indices 1 2 3 4 5 6 
#
# 1 0.343454 -0.326704 -0.001033 0.000000 0.000000 0.000000
# 2 -0.326704 0.343464 -0.001034 0.000000 0.000000 0.000000
# 3 -0.001033 -0.001034 0.014355 0.000000 0.000000 0.000000
# 4 0.000000 0.000000 0.000000 0.072591 0.000000 0.000000
# 5 0.000000 0.000000 0.000000 0.000000 0.072592 0.000000
# 6 0.000000 0.000000 0.000000 0.000000 0.000000 0.040599
#
#
# Mechanical properties :
#
#
# Convention : Reuss Voigt Hill
#
# Bulk Modulus (GPa) = 22.86711 23.11840 22.99275
# Shear Modulus (GPa) = 3.20683 16.70060 9.95372
#
# Velocity S-wave (km/s) = 1.35468 3.09146 2.38666
# Velocity P-wave (km/s) = 3.94118 5.09634 4.55552
#
# Compressibility (1/GPa) = 0.04373093
#
# Stress axis : x y z
#
# Youngs Moduli (GPa) = 2.91160 2.91152 69.66136
#
# Poissons Ratio (x) = 0.95120 0.07196
# Poissons Ratio (y) = 0.95123 0.07204
# Poissons Ratio (z) = 0.00301 0.00301
#
# Static dielectric constant tensor:
#      x y z
#    x 1.603300 0.000000 0.000000 
#    y 0.000000 1.603300 0.000000 
#    z 0.000000 0.000000 1.601930 
# 
# From -- ./inp_files/9082.got.cif
#   From: 2010.05.17/outbox.cif.g08.bks.cpg/sg139_5_cif.got.tgz:9082.got - 2010.05.20 13:14:44.
