data_PCOD9571645
_publ_section_title
;
Structure prediction by ZEFSAII (Michael W. Deem and Ramdas Pophale) SiO2 
 PCOD9571645
Probable space group: I 4/M M M
;
_chemical_formula_sum "Si O2"
_cell_formula_units_Z 160
_cell_length_a 33.141317
_cell_length_b 33.141317
_cell_length_c 8.320521
_cell_angle_alpha 90.000000
_cell_angle_beta 90.000000
_cell_angle_gamma 90.000000
_cell_volume 9138.818384
_symmetry_space_group_name_H-M "I 4/M M M"
_symmetry_group_IT_number 139
_symmetry_cell_setting 'tetragonal'
loop_
_space_group_symop_operation_xyz
x,y,z
-y,x,z
-x,-y,z
y,-x,z
x,-y,-z
-x,y,-z
y,x,-z
-y,-x,-z
-x,-y,-z
y,-x,-z
x,y,-z
-y,x,-z
-x,y,z
x,-y,z
-y,-x,z
y,x,z
1/2+x,1/2+y,1/2+z
1/2-y,1/2+x,1/2+z
1/2-x,1/2-y,1/2+z
1/2+y,1/2-x,1/2+z
1/2+x,1/2-y,1/2-z
1/2-x,1/2+y,1/2-z
1/2+y,1/2+x,1/2-z
1/2-y,1/2-x,1/2-z
1/2-x,1/2-y,1/2-z
1/2+y,1/2-x,1/2-z
1/2+x,1/2+y,1/2-z
1/2-y,1/2+x,1/2-z
1/2-x,1/2+y,1/2+z
1/2+x,1/2-y,1/2+z
1/2-y,1/2-x,1/2+z
1/2+y,1/2+x,1/2+z
loop_
_atom_site_type_symbol
_atom_site_label
_atom_site_fract_x
_atom_site_fract_y
_atom_site_fract_z
Si Si1 0.046123 0.390399 0.305582
Si Si2 0.282359 0.282359 0.810186
Si Si3 0.453218 0.385199 0.000000
Si Si4 0.762541 0.871999 0.809620
Si Si5 0.674439 0.111317 0.691502
Si Si6 0.653640 0.415005 0.312864
O O1 0.045797 0.389946 0.500000
O O2 0.069723 0.430278 0.250000
O O3 0.073457 0.352496 0.249791
O O4 0.000000 0.388679 0.249247
O O5 0.250000 0.250000 0.750000
O O6 0.327176 0.270935 0.754210
O O7 0.281796 0.281796 0.000000
O O8 0.442877 0.361142 0.165540
O O9 0.500000 0.396028 0.000000
O O10 0.424000 0.424000 0.000000
O O11 0.720562 0.888891 0.744195
O O12 0.801268 0.899824 0.775792
O O13 0.759064 0.868925 0.000000
O O14 0.673005 0.111198 0.500000
O O15 0.651577 0.151577 0.750000
O O16 0.652124 0.430448 0.500000
O O17 0.623901 0.376100 0.310175
#
# Coordination Sequence:
#
# PCOD9571645 Si02
#       6
#    32  16  16  32  32  32
#     4   9  19  36  56  78 104 134 171 218 273 333
#     4  12  24  34  50  76 112 150 194 245 284 327
#     4  10  22  39  64  92 122 152 192 234 285 351
#     4  11  21  35  54  77 109 147 191 236 281 329
#     4  10  20  34  52  74 105 144 185 226 276 335
#     4   9  19  36  59  85 116 155 195 237 285 336
#
# _framework density 17.507733000000002
#
# number of rings (size 3 to 8) (size 9 to 14) (size 15 to 20)
#    0.000    2.000    1.000    2.700    2.800    1.900 
#    0.000    2.000    0.000    1.200    0.000    2.800 
#    0.000    0.000    0.000    0.000    0.000    0.000 
#
# Total GULP energy -446326.764626 kJ/mol
# GULP energy per Si atom -5579.084558 kJ/mol
# Density = 1.746788 g / cm^3
# Si number density = 17.507733 Si / 1000 Ang^3
#
#
#
# Elastic Constant Matrix: (Units=GPa)
#
#
# Indices 1 2 3 4 5 6 
#
# 1 96.9039 54.4573 49.3550 0.0000 0.0000 0.0000
# 2 54.4573 96.9228 49.3593 0.0000 0.0000 0.0000
# 3 49.3550 49.3593 75.6495 0.0000 0.0000 0.0000
# 4 0.0000 0.0000 0.0000 22.6282 0.0000 0.0000
# 5 0.0000 0.0000 0.0000 0.0000 22.6286 0.0000
# 6 0.0000 0.0000 0.0000 0.0000 0.0000 8.3678
#
#
#
# Elastic Compliance Matrix: (Units=1/GPa)
#
#
# Indices 1 2 3 4 5 6 
#
# 1 0.017528 -0.006027 -0.007503 0.000000 0.000000 0.000000
# 2 -0.006027 0.017525 -0.007502 0.000000 0.000000 0.000000
# 3 -0.007503 -0.007502 0.023009 0.000000 0.000000 0.000000
# 4 0.000000 0.000000 0.000000 0.044193 0.000000 0.000000
# 5 0.000000 0.000000 0.000000 0.000000 0.044192 0.000000
# 6 0.000000 0.000000 0.000000 0.000000 0.000000 0.119505
#
#
# Mechanical properties :
#
#
# Convention : Reuss Voigt Hill
#
# Bulk Modulus (GPa) = 62.51228 63.97994 63.24611
# Shear Modulus (GPa) = 15.95672 18.47857 17.21765
#
# Velocity S-wave (km/s) = 3.02223 3.25230 3.13937
# Velocity P-wave (km/s) = 6.92543 7.12225 7.02453
#
# Compressibility (1/GPa) = 0.01599686
#
# Stress axis : x y z
#
# Youngs Moduli (GPa) = 57.05123 57.06293 43.46191
#
# Poissons Ratio (x) = 0.34394 0.32609
# Poissons Ratio (y) = 0.34387 0.32605
# Poissons Ratio (z) = 0.42805 0.42808
#
# Static dielectric constant tensor:
#      x y z
#    x 1.579570 0.000000 0.000000 
#    y 0.000000 1.579580 0.000000 
#    z 0.000000 0.000000 1.625330 
# 
# From -- ./inp_files/2196.got.cif
#   From: 2010.05.17/outbox.cif.g08.bks.cpg/sg139_2_cif.got.tgz:2196.got - 2010.05.20 13:14:44.
