data_PCOD9571333
_publ_section_title
;
Structure prediction by ZEFSAII (Michael W. Deem and Ramdas Pophale) SiO2 
 PCOD9571333
Probable space group: I 4/M M M
;
_chemical_formula_sum "Si O2"
_cell_formula_units_Z 160
_cell_length_a 19.026996
_cell_length_b 19.026996
_cell_length_c 27.881468
_cell_angle_alpha 90.000000
_cell_angle_beta 90.000000
_cell_angle_gamma 90.000000
_cell_volume 10093.832416
_symmetry_space_group_name_H-M "I 4/M M M"
_symmetry_group_IT_number 139
_symmetry_cell_setting 'tetragonal'
loop_
_space_group_symop_operation_xyz
x,y,z
-y,x,z
-x,-y,z
y,-x,z
x,-y,-z
-x,y,-z
y,x,-z
-y,-x,-z
-x,-y,-z
y,-x,-z
x,y,-z
-y,x,-z
-x,y,z
x,-y,z
-y,-x,z
y,x,z
1/2+x,1/2+y,1/2+z
1/2-y,1/2+x,1/2+z
1/2-x,1/2-y,1/2+z
1/2+y,1/2-x,1/2+z
1/2+x,1/2-y,1/2-z
1/2-x,1/2+y,1/2-z
1/2+y,1/2+x,1/2-z
1/2-y,1/2-x,1/2-z
1/2-x,1/2-y,1/2-z
1/2+y,1/2-x,1/2-z
1/2+x,1/2+y,1/2-z
1/2-y,1/2+x,1/2-z
1/2-x,1/2+y,1/2+z
1/2+x,1/2-y,1/2+z
1/2-y,1/2-x,1/2+z
1/2+y,1/2+x,1/2+z
loop_
_atom_site_type_symbol
_atom_site_label
_atom_site_fract_x
_atom_site_fract_y
_atom_site_fract_z
Si Si1 0.693506 0.421493 0.555695
Si Si2 0.202290 0.682637 0.193655
Si Si3 0.166025 0.418664 0.617678
Si Si4 0.810580 0.415875 0.054610
Si Si5 0.300762 0.584139 0.136168
O O1 0.715029 0.411748 0.500000
O O2 0.663115 0.500000 0.559555
O O3 0.636657 0.363344 0.567852
O O4 0.760308 0.417253 0.589602
O O5 0.247556 0.752445 0.179821
O O6 0.187473 0.687473 0.250000
O O7 0.130429 0.674323 0.164199
O O8 0.252748 0.617847 0.178279
O O9 0.147460 0.500000 0.627315
O O10 0.112433 0.378800 0.582285
O O11 0.813977 0.500000 0.052948
O O12 0.743121 0.398208 0.087604
O O13 0.805862 0.389111 0.000000
O O14 0.307601 0.500000 0.140155
O O15 0.374155 0.625846 0.135806
#
# Coordination Sequence:
#
# PCOD9571333 Si02
#       5
#    32  32  32  32  32
#     4   9  17  28  42  62  89 119 149 181 217 259
#     4   9  18  33  51  69  91 122 159 196 237 287
#     4  10  19  30  46  69  93 116 149 193 236 277
#     4   9  18  32  48  66  92 126 158 187 224 274
#     4   9  18  32  50  73  99 126 159 198 239 286
#
# _framework density 15.851262999999999
#
# number of rings (size 3 to 8) (size 9 to 14) (size 15 to 20)
#    0.000    2.800    0.000    1.200    0.000    4.000 
#    0.000    2.000    0.000    0.000    0.000    5.600 
#    0.000    4.800    0.000    0.000    0.000    0.000 
#
# Total GULP energy -445534.413881 kJ/mol
# GULP energy per Si atom -5569.180174 kJ/mol
# Density = 1.581519 g / cm^3
# Si number density = 15.851263 Si / 1000 Ang^3
#
#
#
# Elastic Constant Matrix: (Units=GPa)
#
#
# Indices 1 2 3 4 5 6 
#
# 1 85.4419 44.0095 39.3884 0.0000 0.0000 0.0000
# 2 44.0095 85.4419 39.3884 0.0000 0.0000 0.0000
# 3 39.3884 39.3884 89.4407 0.0000 0.0000 0.0000
# 4 0.0000 0.0000 0.0000 17.2172 0.0000 0.0000
# 5 0.0000 0.0000 0.0000 0.0000 17.2172 0.0000
# 6 0.0000 0.0000 0.0000 0.0000 0.0000 23.0491
#
#
#
# Elastic Compliance Matrix: (Units=1/GPa)
#
#
# Indices 1 2 3 4 5 6 
#
# 1 0.017344 -0.006791 -0.004647 0.000000 0.000000 0.000000
# 2 -0.006791 0.017344 -0.004647 0.000000 0.000000 0.000000
# 3 -0.004647 -0.004647 0.015274 0.000000 0.000000 0.000000
# 4 0.000000 0.000000 0.000000 0.058081 0.000000 0.000000
# 5 0.000000 0.000000 0.000000 0.000000 0.058081 0.000000
# 6 0.000000 0.000000 0.000000 0.000000 0.000000 0.043386
#
#
# Mechanical properties :
#
#
# Convention : Reuss Voigt Hill
#
# Bulk Modulus (GPa) = 56.21023 56.21080 56.21051
# Shear Modulus (GPa) = 20.19276 20.66592 20.42934
#
# Velocity S-wave (km/s) = 3.57303 3.61465 3.59390
# Velocity P-wave (km/s) = 7.24983 7.27731 7.26359
#
# Compressibility (1/GPa) = 0.01779036
#
# Stress axis : x y z
#
# Youngs Moduli (GPa) = 57.65547 57.65547 65.47113
#
# Poissons Ratio (x) = 0.39156 0.30427
# Poissons Ratio (y) = 0.39156 0.30427
# Poissons Ratio (z) = 0.26795 0.26795
#
# Static dielectric constant tensor:
#      x y z
#    x 1.523770 0.000000 0.000000 
#    y 0.000000 1.523770 0.000000 
#    z 0.000000 0.000000 1.527510 
# 
# From -- ./inp_files/12904.got.cif
#   From: 2010.05.17/outbox.cif.g08.bks.cpg/sg139_7_cif.got.tgz:12904.got - 2010.05.20 13:14:44.
