data_PCOD9571348
_publ_section_title
;
Structure prediction by ZEFSAII (Michael W. Deem and Ramdas Pophale) SiO2 
 PCOD9571348
Probable space group: I 4/M M M
;
_chemical_formula_sum "Si O2"
_cell_formula_units_Z 240
_cell_length_a 30.925677
_cell_length_b 30.925677
_cell_length_c 14.323543
_cell_angle_alpha 90.000000
_cell_angle_beta 90.000000
_cell_angle_gamma 90.000000
_cell_volume 13699.000686
_symmetry_space_group_name_H-M "I 4/M M M"
_symmetry_group_IT_number 139
_symmetry_cell_setting 'tetragonal'
loop_
_space_group_symop_operation_xyz
x,y,z
-y,x,z
-x,-y,z
y,-x,z
x,-y,-z
-x,y,-z
y,x,-z
-y,-x,-z
-x,-y,-z
y,-x,-z
x,y,-z
-y,x,-z
-x,y,z
x,-y,z
-y,-x,z
y,x,z
1/2+x,1/2+y,1/2+z
1/2-y,1/2+x,1/2+z
1/2-x,1/2-y,1/2+z
1/2+y,1/2-x,1/2+z
1/2+x,1/2-y,1/2-z
1/2-x,1/2+y,1/2-z
1/2+y,1/2+x,1/2-z
1/2-y,1/2-x,1/2-z
1/2-x,1/2-y,1/2-z
1/2+y,1/2-x,1/2-z
1/2+x,1/2+y,1/2-z
1/2-y,1/2+x,1/2-z
1/2-x,1/2+y,1/2+z
1/2+x,1/2-y,1/2+z
1/2-y,1/2-x,1/2+z
1/2+y,1/2+x,1/2+z
loop_
_atom_site_type_symbol
_atom_site_label
_atom_site_fract_x
_atom_site_fract_y
_atom_site_fract_z
Si Si1 0.206172 0.133291 0.392477
Si Si2 0.547660 0.294779 0.203046
Si Si3 0.885100 0.597009 0.887744
Si Si4 0.797824 0.726539 0.385837
Si Si5 0.799032 0.548496 0.890322
Si Si6 0.872202 0.305621 0.886888
Si Si7 0.742582 0.451425 0.608439
Si Si8 0.051136 0.448865 0.750000
O O1 0.213633 0.120806 0.500000
O O2 0.171111 0.171111 0.390637
O O3 0.187977 0.091764 0.339509
O O4 0.249921 0.157196 0.357037
O O5 0.500000 0.310721 0.172348
O O6 0.550270 0.244581 0.168864
O O7 0.549249 0.294933 0.314871
O O8 0.836877 0.580822 0.864609
O O9 0.886899 0.646772 0.857591
O O10 0.921039 0.568738 0.836829
O O11 0.889800 0.593987 0.000000
O O12 0.798676 0.727036 0.500000
O O13 0.757167 0.757167 0.358964
O O14 0.794669 0.676668 0.354843
O O15 0.817058 0.500000 0.880731
O O16 0.788330 0.554700 0.000000
O O17 0.910966 0.272825 0.866561
O O18 0.869094 0.306887 0.000000
O O19 0.729785 0.447083 0.500000
O O20 0.762886 0.500000 0.617625
O O21 0.058320 0.500000 0.736909
#
# Coordination Sequence:
#
# PCOD9571348 Si02
#       8
#    32  32  32  32  32  32  32  16
#     4   9  17  30  48  71 104 139 163 194 245 300
#     4  10  19  30  49  73  96 127 164 203 241 284
#     4  10  21  36  54  72  91 117 148 190 242 296
#     4   8  14  27  48  72 100 133 163 192 234 291
#     4   9  17  29  46  69  93 113 139 183 236 284
#     4   9  17  30  49  71  92 120 160 200 240 290
#     4   9  19  34  48  65  92 124 161 208 257 294
#     4  11  26  42  54  70  89 112 148 194 249 320
#
# _framework density 17.519525000000002
#
# number of rings (size 3 to 8) (size 9 to 14) (size 15 to 20)
#    0.000    2.733    0.000    2.400    1.867    4.533 
#    0.000    2.667    0.000    2.800    0.000    0.000 
#    0.000    0.267    0.000    1.467    0.000    0.000 
#
# Total GULP energy -668806.779801 kJ/mol
# GULP energy per Si atom -5573.389832 kJ/mol
# Density = 1.747965 g / cm^3
# Si number density = 17.519525 Si / 1000 Ang^3
#
#
#
# Elastic Constant Matrix: (Units=GPa)
#
#
# Indices 1 2 3 4 5 6 
#
# 1 49.8651 19.5968 3.2980 0.0000 0.0000 0.0000
# 2 19.5968 49.8699 3.2986 0.0000 0.0000 0.0000
# 3 3.2980 3.2986 45.8527 0.0000 0.0000 0.0000
# 4 0.0000 0.0000 0.0000 10.0821 0.0000 0.0000
# 5 0.0000 0.0000 0.0000 0.0000 10.0817 0.0000
# 6 0.0000 0.0000 0.0000 0.0000 0.0000 16.3580
#
#
#
# Elastic Compliance Matrix: (Units=1/GPa)
#
#
# Indices 1 2 3 4 5 6 
#
# 1 0.023766 -0.009270 -0.001043 0.000000 0.000000 0.000000
# 2 -0.009270 0.023764 -0.001043 0.000000 0.000000 0.000000
# 3 -0.001043 -0.001043 0.021959 0.000000 0.000000 0.000000
# 4 0.000000 0.000000 0.000000 0.099185 0.000000 0.000000
# 5 0.000000 0.000000 0.000000 0.000000 0.099190 0.000000
# 6 0.000000 0.000000 0.000000 0.000000 0.000000 0.061132
#
#
# Mechanical properties :
#
#
# Convention : Reuss Voigt Hill
#
# Bulk Modulus (GPa) = 21.37752 21.99718 21.68735
# Shear Modulus (GPa) = 13.61284 15.26397 14.43840
#
# Velocity S-wave (km/s) = 2.79051 2.95490 2.87388
# Velocity P-wave (km/s) = 4.75513 4.92189 4.83923
#
# Compressibility (1/GPa) = 0.04677812
#
# Stress axis : x y z
#
# Youngs Moduli (GPa) = 42.07650 42.08054 45.53949
#
# Poissons Ratio (x) = 0.39009 0.04748
# Poissons Ratio (y) = 0.39006 0.04749
# Poissons Ratio (z) = 0.04387 0.04388
#
# Static dielectric constant tensor:
#      x y z
#    x 1.610040 0.000000 0.000000 
#    y 0.000000 1.610040 0.000000 
#    z 0.000000 0.000000 1.662190 
# 
# From -- ./inp_files/6805.got.cif
#   From: 2010.05.17/outbox.cif.g08.bks.cpg/sg139_4_cif.got.tgz:6805.got - 2010.05.20 13:14:44.
