data_PCOD9571759
_publ_section_title
;
Structure prediction by ZEFSAII (Michael W. Deem and Ramdas Pophale) SiO2 
 PCOD9571759
Probable space group: I 4/M M M
;
_chemical_formula_sum "Si O2"
_cell_formula_units_Z 168
_cell_length_a 24.404817
_cell_length_b 24.404817
_cell_length_c 15.217710
_cell_angle_alpha 90.000000
_cell_angle_beta 90.000000
_cell_angle_gamma 90.000000
_cell_volume 9063.593400
_symmetry_space_group_name_H-M "I 4/M M M"
_symmetry_group_IT_number 139
_symmetry_cell_setting 'tetragonal'
loop_
_space_group_symop_operation_xyz
x,y,z
-y,x,z
-x,-y,z
y,-x,z
x,-y,-z
-x,y,-z
y,x,-z
-y,-x,-z
-x,-y,-z
y,-x,-z
x,y,-z
-y,x,-z
-x,y,z
x,-y,z
-y,-x,z
y,x,z
1/2+x,1/2+y,1/2+z
1/2-y,1/2+x,1/2+z
1/2-x,1/2-y,1/2+z
1/2+y,1/2-x,1/2+z
1/2+x,1/2-y,1/2-z
1/2-x,1/2+y,1/2-z
1/2+y,1/2+x,1/2-z
1/2-y,1/2-x,1/2-z
1/2-x,1/2-y,1/2-z
1/2+y,1/2-x,1/2-z
1/2+x,1/2+y,1/2-z
1/2-y,1/2+x,1/2-z
1/2-x,1/2+y,1/2+z
1/2+x,1/2-y,1/2+z
1/2-y,1/2-x,1/2+z
1/2+y,1/2+x,1/2+z
loop_
_atom_site_type_symbol
_atom_site_label
_atom_site_fract_x
_atom_site_fract_y
_atom_site_fract_z
Si Si1 0.434265 0.065736 0.250000
Si Si2 0.608351 0.303662 0.604053
Si Si3 0.851688 0.599281 0.097942
Si Si4 0.500000 0.407245 0.000000
Si Si5 0.799537 0.000000 0.784248
Si Si6 0.408281 0.500000 0.809546
Si Si7 0.286092 0.200966 0.145303
Si Si8 0.000000 0.733549 0.600945
O O1 0.500000 0.074624 0.258061
O O2 0.411289 0.100446 0.167867
O O3 0.595980 0.305047 0.500000
O O4 0.638726 0.361275 0.627537
O O5 0.554946 0.289104 0.660331
O O6 0.653844 0.257449 0.622303
O O7 0.819400 0.656273 0.108940
O O8 0.806090 0.552374 0.107064
O O9 0.875265 0.596469 0.000000
O O10 0.552243 0.447758 0.000000
O O11 0.500000 0.379447 0.905651
O O12 0.864056 0.000000 0.764987
O O13 0.770087 0.000000 0.689197
O O14 0.447617 0.447617 0.804927
O O15 0.258051 0.258051 0.114116
O O16 0.293429 0.206572 0.250000
O O17 0.000000 0.757420 0.500000
#
# Coordination Sequence:
#
# PCOD9571759 Si02
#       8
#    16  32  32   8  16  16  32  16
#     4  11  24  40  65  94 122 156 205 252 296 361
#     4  10  22  39  57  85 122 155 194 246 299 348
#     4  11  22  41  64  85 121 161 196 242 305 361
#     4   7  12  26  48  72  98 130 174 234 289 326
#     4  12  22  34  60  83 116 157 201 238 292 372
#     4   9  18  33  54  78 105 145 198 247 292 343
#     4  10  20  37  63  89 115 152 200 248 296 354
#     4  10  24  42  59  86 122 159 191 244 312 362
#
# _framework density 18.535695
#
# number of rings (size 3 to 8) (size 9 to 14) (size 15 to 20)
#    0.000    1.762    1.905    3.143    0.667    1.524 
#    0.000    1.905    0.000    2.286    0.000    4.000 
#    0.000    0.000    0.000    0.000    0.000    0.000 
#
# Total GULP energy -468412.936436 kJ/mol
# GULP energy per Si atom -5576.344481 kJ/mol
# Density = 1.849351 g / cm^3
# Si number density = 18.535695 Si / 1000 Ang^3
#
#
#
# Elastic Constant Matrix: (Units=GPa)
#
#
# Indices 1 2 3 4 5 6 
#
# 1 117.5798 48.6216 55.4167 0.0000 0.0000 0.0000
# 2 48.6216 117.5790 55.4164 0.0000 0.0000 0.0000
# 3 55.4167 55.4164 135.3787 0.0000 0.0000 0.0000
# 4 0.0000 0.0000 0.0000 1736.0389 0.0000 0.0000
# 5 0.0000 0.0000 0.0000 0.0000 1798.7373 0.0000
# 6 0.0000 0.0000 0.0000 0.0000 0.0000 13.8313
#
#
#
# Elastic Compliance Matrix: (Units=1/GPa)
#
#
# Indices 1 2 3 4 5 6 
#
# 1 0.011389 -0.003113 -0.003388 0.000000 0.000000 0.000000
# 2 -0.003113 0.011389 -0.003388 0.000000 0.000000 0.000000
# 3 -0.003388 -0.003388 0.010160 0.000000 0.000000 0.000000
# 4 0.000000 0.000000 0.000000 0.000576 0.000000 0.000000
# 5 0.000000 0.000000 0.000000 0.000000 0.000556 0.000000
# 6 0.000000 0.000000 0.000000 0.000000 0.000000 0.072300
#
#
# Mechanical properties :
#
#
# Convention : Reuss Voigt Hill
#
# Bulk Modulus (GPa) = 75.98086 76.60521 76.29304
# Shear Modulus (GPa) = 38.30447 723.79369 381.04908
#
# Velocity S-wave (km/s) = 4.55084 19.78217 14.35347
# Velocity P-wave (km/s) = 8.28819 23.73177 17.77486
#
# Compressibility (1/GPa) = 0.01316121
#
# Stress axis : x y z
#
# Youngs Moduli (GPa) = 87.80588 87.80538 98.42345
#
# Poissons Ratio (x) = 0.27332 0.33343
# Poissons Ratio (y) = 0.27333 0.33343
# Poissons Ratio (z) = 0.29746 0.29746
#
# Static dielectric constant tensor:
#      x y z
#    x 1.628680 0.000000 0.000000 
#    y 0.000000 1.628690 0.000000 
#    z 0.000000 0.000000 1.655730 
# 
# From -- ./inp_files/6223.got.cif
#   From: 2010.05.17/outbox.cif.g08.bks.cpg/sg139_4_cif.got.tgz:6223.got - 2010.05.20 13:14:44.
