data_PCOD9571240
_publ_section_title
;
Structure prediction by ZEFSAII (Michael W. Deem and Ramdas Pophale) SiO2 
 PCOD9571240
Probable space group: I 4/M M M
;
_chemical_formula_sum "Si O2"
_cell_formula_units_Z 176
_cell_length_a 23.822474
_cell_length_b 23.822474
_cell_length_c 17.615379
_cell_angle_alpha 90.000000
_cell_angle_beta 90.000000
_cell_angle_gamma 90.000000
_cell_volume 9996.908448
_symmetry_space_group_name_H-M "I 4/M M M"
_symmetry_group_IT_number 139
_symmetry_cell_setting 'tetragonal'
loop_
_space_group_symop_operation_xyz
x,y,z
-y,x,z
-x,-y,z
y,-x,z
x,-y,-z
-x,y,-z
y,x,-z
-y,-x,-z
-x,-y,-z
y,-x,-z
x,y,-z
-y,x,-z
-x,y,z
x,-y,z
-y,-x,z
y,x,z
1/2+x,1/2+y,1/2+z
1/2-y,1/2+x,1/2+z
1/2-x,1/2-y,1/2+z
1/2+y,1/2-x,1/2+z
1/2+x,1/2-y,1/2-z
1/2-x,1/2+y,1/2-z
1/2+y,1/2+x,1/2-z
1/2-y,1/2-x,1/2-z
1/2-x,1/2-y,1/2-z
1/2+y,1/2-x,1/2-z
1/2+x,1/2+y,1/2-z
1/2-y,1/2+x,1/2-z
1/2-x,1/2+y,1/2+z
1/2+x,1/2-y,1/2+z
1/2-y,1/2-x,1/2+z
1/2+y,1/2+x,1/2+z
loop_
_atom_site_type_symbol
_atom_site_label
_atom_site_fract_x
_atom_site_fract_y
_atom_site_fract_z
Si Si1 0.734589 0.435745 0.646560
Si Si2 0.062159 0.155654 0.000000
Si Si3 0.141266 0.333630 0.907508
Si Si4 0.563900 0.062803 0.592217
Si Si5 0.137193 0.231760 0.411869
Si Si6 0.339063 0.566087 0.797585
O O1 0.757753 0.500000 0.649962
O O2 0.694845 0.432914 0.573266
O O3 0.782401 0.389494 0.634096
O O4 0.695662 0.426690 0.719613
O O5 0.109220 0.109220 0.000000
O O6 0.000000 0.129849 0.000000
O O7 0.107017 0.389449 0.886105
O O8 0.206129 0.343807 0.887828
O O9 0.137374 0.325284 0.000000
O O10 0.563364 0.061928 0.500000
O O11 0.500000 0.075015 0.616441
O O12 0.579016 0.000000 0.617847
O O13 0.119780 0.235452 0.500000
O O14 0.190530 0.190530 0.406782
O O15 0.088849 0.202735 0.362684
O O16 0.352276 0.500000 0.806574
O O17 0.394139 0.605862 0.797444
#
# Coordination Sequence:
#
# PCOD9571240 Si02
#       6
#    32  16  32  32  32  32
#     4  10  20  34  52  79 112 146 186 231 271 313
#     4  10  20  33  50  74 105 141 183 231 278 324
#     4  10  18  30  51  78 106 148 190 219 261 323
#     4   8  14  24  40  66 100 134 173 223 265 299
#     4   9  20  37  55  79 108 135 170 218 271 326
#     4  10  22  40  60  82 109 140 177 225 281 337
#
# _framework density 17.605443000000001
#
# number of rings (size 3 to 8) (size 9 to 14) (size 15 to 20)
#    0.000    2.545    0.909    1.636    0.000    4.273 
#    0.000    3.636    0.000    3.273    0.000    2.545 
#    0.000    4.364    0.000    0.182    0.000    0.000 
#
# Total GULP energy -490649.820910 kJ/mol
# GULP energy per Si atom -5575.566147 kJ/mol
# Density = 1.756537 g / cm^3
# Si number density = 17.605443 Si / 1000 Ang^3
#
#
#
# Elastic Constant Matrix: (Units=GPa)
#
#
# Indices 1 2 3 4 5 6 
#
# 1 120.2665 79.7123 49.9401 0.0000 0.0000 0.0000
# 2 79.7123 120.2665 49.9401 0.0000 0.0000 0.0000
# 3 49.9401 49.9401 61.8527 0.0000 0.0000 0.0000
# 4 0.0000 0.0000 0.0000 22.7136 0.0000 0.0000
# 5 0.0000 0.0000 0.0000 0.0000 22.7136 0.0000
# 6 0.0000 0.0000 0.0000 0.0000 0.0000 17.8176
#
#
#
# Elastic Compliance Matrix: (Units=1/GPa)
#
#
# Indices 1 2 3 4 5 6 
#
# 1 0.016519 -0.008139 -0.006766 0.000000 0.000000 0.000000
# 2 -0.008139 0.016519 -0.006766 0.000000 0.000000 0.000000
# 3 -0.006766 -0.006766 0.027093 0.000000 0.000000 0.000000
# 4 0.000000 0.000000 0.000000 0.044027 0.000000 0.000000
# 5 0.000000 0.000000 0.000000 0.000000 0.044027 0.000000
# 6 0.000000 0.000000 0.000000 0.000000 0.000000 0.056124
#
#
# Mechanical properties :
#
#
# Convention : Reuss Voigt Hill
#
# Bulk Modulus (GPa) = 59.56244 73.50785 66.53514
# Shear Modulus (GPa) = 19.74358 20.83516 20.28937
#
# Velocity S-wave (km/s) = 3.35244 3.44386 3.39846
# Velocity P-wave (km/s) = 6.99216 7.59323 7.29889
#
# Compressibility (1/GPa) = 0.01678911
#
# Stress axis : x y z
#
# Youngs Moduli (GPa) = 60.53616 60.53616 36.91000
#
# Poissons Ratio (x) = 0.49272 0.24973
# Poissons Ratio (y) = 0.49272 0.24973
# Poissons Ratio (z) = 0.40958 0.40958
#
# Static dielectric constant tensor:
#      x y z
#    x 1.583940 0.000000 0.000000 
#    y 0.000000 1.583940 0.000000 
#    z 0.000000 0.000000 1.604240 
# 
# From -- ./inp_files/6128.got.cif
#   From: 2010.05.17/outbox.cif.g08.bks.cpg/sg139_4_cif.got.tgz:6128.got - 2010.05.20 13:14:44.
