data_PCOD9571590
_publ_section_title
;
Structure prediction by ZEFSAII (Michael W. Deem and Ramdas Pophale) SiO2 
 PCOD9571590
Probable space group: I 4/M M M
;
_chemical_formula_sum "Si O2"
_cell_formula_units_Z 160
_cell_length_a 21.876190
_cell_length_b 21.876190
_cell_length_c 18.386002
_cell_angle_alpha 90.000000
_cell_angle_beta 90.000000
_cell_angle_gamma 90.000000
_cell_volume 8798.946486
_symmetry_space_group_name_H-M "I 4/M M M"
_symmetry_group_IT_number 139
_symmetry_cell_setting 'tetragonal'
loop_
_space_group_symop_operation_xyz
x,y,z
-y,x,z
-x,-y,z
y,-x,z
x,-y,-z
-x,y,-z
y,x,-z
-y,-x,-z
-x,-y,-z
y,-x,-z
x,y,-z
-y,x,-z
-x,y,z
x,-y,z
-y,-x,z
y,x,z
1/2+x,1/2+y,1/2+z
1/2-y,1/2+x,1/2+z
1/2-x,1/2-y,1/2+z
1/2+y,1/2-x,1/2+z
1/2+x,1/2-y,1/2-z
1/2-x,1/2+y,1/2-z
1/2+y,1/2+x,1/2-z
1/2-y,1/2-x,1/2-z
1/2-x,1/2-y,1/2-z
1/2+y,1/2-x,1/2-z
1/2+x,1/2+y,1/2-z
1/2-y,1/2+x,1/2-z
1/2-x,1/2+y,1/2+z
1/2+x,1/2-y,1/2+z
1/2-y,1/2-x,1/2+z
1/2+y,1/2+x,1/2+z
loop_
_atom_site_type_symbol
_atom_site_label
_atom_site_fract_x
_atom_site_fract_y
_atom_site_fract_z
Si Si1 0.216546 0.119964 0.585677
Si Si2 0.569149 0.665503 0.777821
Si Si3 0.824332 0.570809 0.412486
Si Si4 0.240546 0.340775 0.301729
Si Si5 0.347541 0.931260 0.587629
O O1 0.209940 0.107827 0.500000
O O2 0.187058 0.187058 0.599609
O O3 0.177709 0.074733 0.635859
O O4 0.287118 0.108320 0.604937
O O5 0.500000 0.669885 0.752976
O O6 0.601117 0.601117 0.760942
O O7 0.612599 0.717382 0.744115
O O8 0.816742 0.577147 0.500000
O O9 0.813159 0.500000 0.393453
O O10 0.783516 0.619148 0.368801
O O11 0.893343 0.592189 0.393217
O O12 0.284522 0.284522 0.323870
O O13 0.188045 0.311956 0.250000
O O14 0.347616 0.936155 0.500000
O O15 0.343449 0.000000 0.617739
#
# Coordination Sequence:
#
# PCOD9571590 Si02
#       5
#    32  32  32  32  32
#     4   9  17  29  47  73 102 131 169 216 262 308
#     4  10  20  33  50  71  98 134 169 205 252 302
#     4  10  21  36  55  79 106 138 175 216 263 312
#     4  10  21  37  56  79 106 134 168 212 265 322
#     4   9  17  29  47  71  98 131 169 205 243 291
#
# _framework density 18.183994999999999
#
# number of rings (size 3 to 8) (size 9 to 14) (size 15 to 20)
#    0.000    2.400    0.000    2.400    0.000    4.600 
#    0.000    5.000    0.000    0.000    0.000    2.800 
#    0.000    0.000    0.000   18.600    0.000    0.200 
#
# Total GULP energy -445780.184077 kJ/mol
# GULP energy per Si atom -5572.252301 kJ/mol
# Density = 1.814261 g / cm^3
# Si number density = 18.183995 Si / 1000 Ang^3
#
#
#
# Elastic Constant Matrix: (Units=GPa)
#
#
# Indices 1 2 3 4 5 6 
#
# 1 109.4388 64.0023 38.2433 0.0000 0.0000 0.0000
# 2 64.0023 109.4349 38.2437 0.0000 0.0000 0.0000
# 3 38.2433 38.2437 42.1821 0.0000 0.0000 0.0000
# 4 0.0000 0.0000 0.0000 21.4089 0.0000 0.0000
# 5 0.0000 0.0000 0.0000 0.0000 21.4089 0.0000
# 6 0.0000 0.0000 0.0000 0.0000 0.0000 14.1557
#
#
#
# Elastic Compliance Matrix: (Units=1/GPa)
#
#
# Indices 1 2 3 4 5 6 
#
# 1 0.015808 -0.006201 -0.008709 0.000000 0.000000 0.000000
# 2 -0.006201 0.015809 -0.008710 0.000000 0.000000 0.000000
# 3 -0.008709 -0.008710 0.039500 0.000000 0.000000 0.000000
# 4 0.000000 0.000000 0.000000 0.046709 0.000000 0.000000
# 5 0.000000 0.000000 0.000000 0.000000 0.046709 0.000000
# 6 0.000000 0.000000 0.000000 0.000000 0.000000 0.070643
#
#
# Mechanical properties :
#
#
# Convention : Reuss Voigt Hill
#
# Bulk Modulus (GPa) = 41.88616 60.22606 51.05611
# Shear Modulus (GPa) = 17.21895 19.43248 18.32571
#
# Velocity S-wave (km/s) = 3.08056 3.27258 3.17802
# Velocity P-wave (km/s) = 5.97811 6.88999 6.45018
#
# Compressibility (1/GPa) = 0.02387423
#
# Stress axis : x y z
#
# Youngs Moduli (GPa) = 63.26020 63.25639 25.31666
#
# Poissons Ratio (x) = 0.39228 0.22049
# Poissons Ratio (y) = 0.39231 0.22051
# Poissons Ratio (z) = 0.55095 0.55098
#
# Static dielectric constant tensor:
#      x y z
#    x 1.639710 0.000000 0.000000 
#    y 0.000000 1.639710 0.000000 
#    z 0.000000 0.000000 1.649670 
# 
# From -- ./inp_files/8401.got.cif
#   From: 2010.05.17/outbox.cif.g08.bks.cpg/sg139_5_cif.got.tgz:8401.got - 2010.05.20 13:14:44.
