data_PCOD9571327
_publ_section_title
;
Structure prediction by ZEFSAII (Michael W. Deem and Ramdas Pophale) SiO2 
 PCOD9571327
Probable space group: I 4/M M M
;
_chemical_formula_sum "Si O2"
_cell_formula_units_Z 192
_cell_length_a 20.905577
_cell_length_b 20.905577
_cell_length_c 25.936649
_cell_angle_alpha 90.000000
_cell_angle_beta 90.000000
_cell_angle_gamma 90.000000
_cell_volume 11335.434772
_symmetry_space_group_name_H-M "I 4/M M M"
_symmetry_group_IT_number 139
_symmetry_cell_setting 'tetragonal'
loop_
_space_group_symop_operation_xyz
x,y,z
-y,x,z
-x,-y,z
y,-x,z
x,-y,-z
-x,y,-z
y,x,-z
-y,-x,-z
-x,-y,-z
y,-x,-z
x,y,-z
-y,x,-z
-x,y,z
x,-y,z
-y,-x,z
y,x,z
1/2+x,1/2+y,1/2+z
1/2-y,1/2+x,1/2+z
1/2-x,1/2-y,1/2+z
1/2+y,1/2-x,1/2+z
1/2+x,1/2-y,1/2-z
1/2-x,1/2+y,1/2-z
1/2+y,1/2+x,1/2-z
1/2-y,1/2-x,1/2-z
1/2-x,1/2-y,1/2-z
1/2+y,1/2-x,1/2-z
1/2+x,1/2+y,1/2-z
1/2-y,1/2+x,1/2-z
1/2-x,1/2+y,1/2+z
1/2+x,1/2-y,1/2+z
1/2-y,1/2-x,1/2+z
1/2+y,1/2+x,1/2+z
loop_
_atom_site_type_symbol
_atom_site_label
_atom_site_fract_x
_atom_site_fract_y
_atom_site_fract_z
Si Si1 0.830638 0.731315 0.596982
Si Si2 0.129257 0.427139 0.056753
Si Si3 0.925806 0.819991 0.776031
Si Si4 0.303737 0.847806 0.197186
Si Si5 0.427979 0.925674 0.831818
Si Si6 0.072740 0.826903 0.347162
O O1 0.775931 0.775931 0.572251
O O2 0.871546 0.681841 0.563296
O O3 0.800116 0.694032 0.645599
O O4 0.883182 0.777923 0.622382
O O5 0.156794 0.500000 0.059910
O O6 0.083373 0.422163 0.106231
O O7 0.099153 0.421598 0.000000
O O8 0.880220 0.880220 0.788759
O O9 0.895819 0.755714 0.799416
O O10 0.923724 0.812048 0.713834
O O11 0.000000 0.829332 0.790546
O O12 0.307190 0.807190 0.250000
O O13 0.371354 0.884810 0.192402
O O14 0.500000 0.903658 0.817439
O O15 0.422272 0.000000 0.818334
O O16 0.103181 0.896820 0.354033
O O17 0.000000 0.823034 0.363924
#
# Coordination Sequence:
#
# PCOD9571327 Si02
#       6
#    32  32  32  32  32  32
#     4  10  19  30  46  66  90 119 150 191 234 278
#     4   9  18  32  49  67  87 114 148 189 236 283
#     4  10  20  32  47  67  91 123 162 200 239 282
#     4  11  20  31  48  68  96 129 162 195 232 278
#     4   9  19  33  47  68  95 122 156 193 231 279
#     4   9  17  28  42  61  85 115 152 191 232 275
#
# _framework density 16.938034999999999
#
# number of rings (size 3 to 8) (size 9 to 14) (size 15 to 20)
#    0.000    2.333    1.667    1.500    0.000    3.667 
#    0.000    4.167    0.000    0.000    0.000    0.000 
#    0.000    0.000    0.000   15.500    0.000    3.167 
#
# Total GULP energy -535185.595464 kJ/mol
# GULP energy per Si atom -5574.849953 kJ/mol
# Density = 1.689948 g / cm^3
# Si number density = 16.938035 Si / 1000 Ang^3
#
#
#
# Elastic Constant Matrix: (Units=GPa)
#
#
# Indices 1 2 3 4 5 6 
#
# 1 65.0407 21.3943 2.2915 0.0000 0.0000 0.0000
# 2 21.3943 65.0407 2.2915 0.0000 0.0000 0.0000
# 3 2.2915 2.2915 50.4244 0.0000 0.0000 0.0000
# 4 0.0000 0.0000 0.0000 8.9980 0.0000 0.0000
# 5 0.0000 0.0000 0.0000 0.0000 8.9980 0.0000
# 6 0.0000 0.0000 0.0000 0.0000 0.0000 20.2394
#
#
#
# Elastic Compliance Matrix: (Units=1/GPa)
#
#
# Indices 1 2 3 4 5 6 
#
# 1 0.017254 -0.005657 -0.000527 0.000000 0.000000 0.000000
# 2 -0.005657 0.017254 -0.000527 0.000000 0.000000 0.000000
# 3 -0.000527 -0.000527 0.019880 0.000000 0.000000 0.000000
# 4 0.000000 0.000000 0.000000 0.111136 0.000000 0.000000
# 5 0.000000 0.000000 0.000000 0.000000 0.111136 0.000000
# 6 0.000000 0.000000 0.000000 0.000000 0.000000 0.049408
#
#
# Mechanical properties :
#
#
# Convention : Reuss Voigt Hill
#
# Bulk Modulus (GPa) = 24.41043 25.82894 25.11969
# Shear Modulus (GPa) = 14.15847 17.94899 16.05373
#
# Velocity S-wave (km/s) = 2.89433 3.25881 3.08196
# Velocity P-wave (km/s) = 5.06087 5.42605 5.24664
#
# Compressibility (1/GPa) = 0.04096609
#
# Stress axis : x y z
#
# Youngs Moduli (GPa) = 57.95632 57.95632 50.30286
#
# Poissons Ratio (x) = 0.32786 0.02651
# Poissons Ratio (y) = 0.32786 0.02651
# Poissons Ratio (z) = 0.03055 0.03055
#
# Static dielectric constant tensor:
#      x y z
#    x 1.574020 0.000000 0.000000 
#    y 0.000000 1.574020 0.000000 
#    z 0.000000 0.000000 1.570270 
# 
# From -- ./inp_files/11919.got.cif
#   From: 2010.05.17/outbox.cif.g08.bks.cpg/sg139_6_cif.got.tgz:11919.got - 2010.05.20 13:14:44.
