data_PCOD9571493
_publ_section_title
;
Structure prediction by ZEFSAII (Michael W. Deem and Ramdas Pophale) SiO2 
 PCOD9571493
Probable space group: I 4/M M M
;
_chemical_formula_sum "Si O2"
_cell_formula_units_Z 96
_cell_length_a 19.654767
_cell_length_b 19.654767
_cell_length_c 14.833486
_cell_angle_alpha 90.000000
_cell_angle_beta 90.000000
_cell_angle_gamma 90.000000
_cell_volume 5730.321986
_symmetry_space_group_name_H-M "I 4/M M M"
_symmetry_group_IT_number 139
_symmetry_cell_setting 'tetragonal'
loop_
_space_group_symop_operation_xyz
x,y,z
-y,x,z
-x,-y,z
y,-x,z
x,-y,-z
-x,y,-z
y,x,-z
-y,-x,-z
-x,-y,-z
y,-x,-z
x,y,-z
-y,x,-z
-x,y,z
x,-y,z
-y,-x,z
y,x,z
1/2+x,1/2+y,1/2+z
1/2-y,1/2+x,1/2+z
1/2-x,1/2-y,1/2+z
1/2+y,1/2-x,1/2+z
1/2+x,1/2-y,1/2-z
1/2-x,1/2+y,1/2-z
1/2+y,1/2+x,1/2-z
1/2-y,1/2-x,1/2-z
1/2-x,1/2-y,1/2-z
1/2+y,1/2-x,1/2-z
1/2+x,1/2+y,1/2-z
1/2-y,1/2+x,1/2-z
1/2-x,1/2+y,1/2+z
1/2+x,1/2-y,1/2+z
1/2-y,1/2-x,1/2+z
1/2+y,1/2+x,1/2+z
loop_
_atom_site_type_symbol
_atom_site_label
_atom_site_fract_x
_atom_site_fract_y
_atom_site_fract_z
Si Si1 0.421717 0.182059 0.797771
Si Si2 0.419728 0.225245 0.500000
Si Si3 0.692713 0.581055 0.323375
Si Si4 0.137470 0.576658 0.000000
O O1 0.500000 0.165545 0.770771
O O2 0.371220 0.128781 0.750000
O O3 0.407463 0.257221 0.760870
O O4 0.418337 0.177773 0.905817
O O5 0.500000 0.234766 0.500000
O O6 0.395045 0.263253 0.589745
O O7 0.407409 0.144667 0.500000
O O8 0.679362 0.500000 0.330622
O O9 0.624779 0.624779 0.317924
O O10 0.105504 0.500000 0.000000
#
# Coordination Sequence:
#
# PCOD9571493 Si02
#       4
#    32  16  32  16
#     4  10  20  35  54  79 111 143 178 220 262 312
#     4  10  19  34  53  79 110 139 178 223 264 312
#     4  10  21  37  56  78 107 140 178 228 278 324
#     4  10  20  34  52  78 114 149 178 212 256 313
#
# _framework density 16.752984000000001
#
# number of rings (size 3 to 8) (size 9 to 14) (size 15 to 20)
#    0.000    2.000    3.333    0.500    0.000    1.667 
#    0.000    4.167    0.000    3.000    0.000    0.000 
#    0.000    6.667    0.000    0.000    0.000    0.000 
#
# Total GULP energy -267344.780483 kJ/mol
# GULP energy per Si atom -5569.682927 kJ/mol
# Density = 1.671485 g / cm^3
# Si number density = 16.752984 Si / 1000 Ang^3
#
#
#
# Elastic Constant Matrix: (Units=GPa)
#
#
# Indices 1 2 3 4 5 6 
#
# 1 82.5541 56.7668 34.2085 0.0000 0.0000 0.0000
# 2 56.7668 82.5565 34.2078 0.0000 0.0000 0.0000
# 3 34.2085 34.2078 96.8850 0.0000 0.0000 0.0000
# 4 0.0000 0.0000 0.0000 10.7480 0.0000 0.0000
# 5 0.0000 0.0000 0.0000 0.0000 10.7484 0.0000
# 6 0.0000 0.0000 0.0000 0.0000 0.0000 26.0524
#
#
#
# Elastic Compliance Matrix: (Units=1/GPa)
#
#
# Indices 1 2 3 4 5 6 
#
# 1 0.023731 -0.015047 -0.003066 0.000000 0.000000 0.000000
# 2 -0.015047 0.023730 -0.003066 0.000000 0.000000 0.000000
# 3 -0.003066 -0.003066 0.012486 0.000000 0.000000 0.000000
# 4 0.000000 0.000000 0.000000 0.093040 0.000000 0.000000
# 5 0.000000 0.000000 0.000000 0.000000 0.093037 0.000000
# 6 0.000000 0.000000 0.000000 0.000000 0.000000 0.038384
#
#
# Mechanical properties :
#
#
# Convention : Reuss Voigt Hill
#
# Bulk Modulus (GPa) = 56.85240 56.92907 56.89074
# Shear Modulus (GPa) = 15.03178 18.63060 16.83119
#
# Velocity S-wave (km/s) = 2.99868 3.33840 3.17309
# Velocity P-wave (km/s) = 6.78224 6.99393 6.88890
#
# Compressibility (1/GPa) = 0.01758941
#
# Stress axis : x y z
#
# Youngs Moduli (GPa) = 42.13975 42.14147 80.08653
#
# Poissons Ratio (x) = 0.63410 0.24556
# Poissons Ratio (y) = 0.63407 0.24551
# Poissons Ratio (z) = 0.12921 0.12919
#
# Static dielectric constant tensor:
#      x y z
#    x 1.554290 0.000000 0.000000 
#    y 0.000000 1.554290 0.000000 
#    z 0.000000 0.000000 1.602030 
# 
# From -- ./inp_files/7307.got.cif
#   From: 2010.05.17/outbox.cif.g08.bks.cpg/sg139_4_cif.got.tgz:7307.got - 2010.05.20 13:14:44.
