data_PCOD9571239
_publ_section_title
;
Structure prediction by ZEFSAII (Michael W. Deem and Ramdas Pophale) SiO2 
 PCOD9571239
Probable space group: I 4/M M M
;
_chemical_formula_sum "Si O2"
_cell_formula_units_Z 112
_cell_length_a 19.054350
_cell_length_b 19.054350
_cell_length_c 18.184772
_cell_angle_alpha 90.000000
_cell_angle_beta 90.000000
_cell_angle_gamma 90.000000
_cell_volume 6602.313418
_symmetry_space_group_name_H-M "I 4/M M M"
_symmetry_group_IT_number 139
_symmetry_cell_setting 'tetragonal'
loop_
_space_group_symop_operation_xyz
x,y,z
-y,x,z
-x,-y,z
y,-x,z
x,-y,-z
-x,y,-z
y,x,-z
-y,-x,-z
-x,-y,-z
y,-x,-z
x,y,-z
-y,x,-z
-x,y,z
x,-y,z
-y,-x,z
y,x,z
1/2+x,1/2+y,1/2+z
1/2-y,1/2+x,1/2+z
1/2-x,1/2-y,1/2+z
1/2+y,1/2-x,1/2+z
1/2+x,1/2-y,1/2-z
1/2-x,1/2+y,1/2-z
1/2+y,1/2+x,1/2-z
1/2-y,1/2-x,1/2-z
1/2-x,1/2-y,1/2-z
1/2+y,1/2-x,1/2-z
1/2+x,1/2+y,1/2-z
1/2-y,1/2+x,1/2-z
1/2-x,1/2+y,1/2+z
1/2+x,1/2-y,1/2+z
1/2-y,1/2-x,1/2+z
1/2+y,1/2+x,1/2+z
loop_
_atom_site_type_symbol
_atom_site_label
_atom_site_fract_x
_atom_site_fract_y
_atom_site_fract_z
Si Si1 0.417179 0.699973 0.702361
Si Si2 0.923832 0.576169 0.250000
Si Si3 0.783244 0.335874 0.581212
Si Si4 0.713289 0.921274 0.650696
O O1 0.500000 0.687470 0.690857
O O2 0.368794 0.631207 0.692551
O O3 0.389124 0.759341 0.645523
O O4 0.407859 0.729696 0.785158
O O5 0.919684 0.500000 0.287973
O O6 0.921554 0.639276 0.306329
O O7 0.784797 0.369001 0.500000
O O8 0.723175 0.276826 0.581943
O O9 0.856396 0.296308 0.596563
O O10 0.724851 0.000000 0.620178
#
# Coordination Sequence:
#
# PCOD9571239 Si02
#       4
#    32  16  32  32
#     4  10  20  34  52  73  96 126 165 206 248 291
#     4   9  16  26  43  68  96 124 153 182 221 276
#     4  10  20  33  49  70  99 132 163 198 240 287
#     4  10  18  30  51  74  98 129 161 196 237 284
#
# _framework density 16.963750999999998
#
# number of rings (size 3 to 8) (size 9 to 14) (size 15 to 20)
#    0.000    2.143    2.857    0.857    0.000    3.714 
#    0.000    0.000    0.000    0.000    0.000   10.000 
#    0.000    0.000    0.000   26.571    0.000    0.000 
#
# Total GULP energy -311796.297130 kJ/mol
# GULP energy per Si atom -5567.791020 kJ/mol
# Density = 1.692514 g / cm^3
# Si number density = 16.963751 Si / 1000 Ang^3
#
#
#
# Elastic Constant Matrix: (Units=GPa)
#
#
# Indices 1 2 3 4 5 6 
#
# 1 75.2929 32.0213 19.7146 0.0000 0.0000 0.0000
# 2 32.0213 75.2933 19.7146 0.0000 0.0000 0.0000
# 3 19.7146 19.7146 33.6577 0.0000 0.0000 0.0000
# 4 0.0000 0.0000 0.0000 13.6170 0.0000 0.0000
# 5 0.0000 0.0000 0.0000 0.0000 13.6168 0.0000
# 6 0.0000 0.0000 0.0000 0.0000 0.0000 16.5656
#
#
#
# Elastic Compliance Matrix: (Units=1/GPa)
#
#
# Indices 1 2 3 4 5 6 
#
# 1 0.017492 -0.005618 -0.006955 0.000000 0.000000 0.000000
# 2 -0.005618 0.017492 -0.006955 0.000000 0.000000 0.000000
# 3 -0.006955 -0.006955 0.037858 0.000000 0.000000 0.000000
# 4 0.000000 0.000000 0.000000 0.073438 0.000000 0.000000
# 5 0.000000 0.000000 0.000000 0.000000 0.073439 0.000000
# 6 0.000000 0.000000 0.000000 0.000000 0.000000 0.060366
#
#
# Mechanical properties :
#
#
# Convention : Reuss Voigt Hill
#
# Bulk Modulus (GPa) = 29.59780 36.34941 32.97361
# Shear Modulus (GPa) = 15.13309 16.27945 15.70627
#
# Velocity S-wave (km/s) = 2.99002 3.10120 3.04612
# Velocity P-wave (km/s) = 5.42271 5.85640 5.64373
#
# Compressibility (1/GPa) = 0.03378629
#
# Stress axis : x y z
#
# Youngs Moduli (GPa) = 57.16966 57.16996 26.41422
#
# Poissons Ratio (x) = 0.32118 0.18371
# Poissons Ratio (y) = 0.32118 0.18371
# Poissons Ratio (z) = 0.39761 0.39761
#
# Static dielectric constant tensor:
#      x y z
#    x 1.589630 0.000000 0.000000 
#    y 0.000000 1.589630 0.000000 
#    z 0.000000 0.000000 1.584520 
# 
# From -- ./inp_files/7573.got.cif
#   From: 2010.05.17/outbox.cif.g08.bks.cpg/sg139_4_cif.got.tgz:7573.got - 2010.05.20 13:14:44.
