data_PCOD9571301
_publ_section_title
;
Structure prediction by ZEFSAII (Michael W. Deem and Ramdas Pophale) SiO2 
 PCOD9571301
Probable space group: I 4/M M M
;
_chemical_formula_sum "Si O2"
_cell_formula_units_Z 176
_cell_length_a 26.598574
_cell_length_b 26.598574
_cell_length_c 15.073708
_cell_angle_alpha 90.000000
_cell_angle_beta 90.000000
_cell_angle_gamma 90.000000
_cell_volume 10664.409323
_symmetry_space_group_name_H-M "I 4/M M M"
_symmetry_group_IT_number 139
_symmetry_cell_setting 'tetragonal'
loop_
_space_group_symop_operation_xyz
x,y,z
-y,x,z
-x,-y,z
y,-x,z
x,-y,-z
-x,y,-z
y,x,-z
-y,-x,-z
-x,-y,-z
y,-x,-z
x,y,-z
-y,x,-z
-x,y,z
x,-y,z
-y,-x,z
y,x,z
1/2+x,1/2+y,1/2+z
1/2-y,1/2+x,1/2+z
1/2-x,1/2-y,1/2+z
1/2+y,1/2-x,1/2+z
1/2+x,1/2-y,1/2-z
1/2-x,1/2+y,1/2-z
1/2+y,1/2+x,1/2-z
1/2-y,1/2-x,1/2-z
1/2-x,1/2-y,1/2-z
1/2+y,1/2-x,1/2-z
1/2+x,1/2+y,1/2-z
1/2-y,1/2+x,1/2-z
1/2-x,1/2+y,1/2+z
1/2+x,1/2-y,1/2+z
1/2-y,1/2-x,1/2+z
1/2+y,1/2+x,1/2+z
loop_
_atom_site_type_symbol
_atom_site_label
_atom_site_fract_x
_atom_site_fract_y
_atom_site_fract_z
Si Si1 0.942324 0.857257 0.100486
Si Si2 0.558104 0.941897 0.750000
Si Si3 0.798598 0.880823 0.231733
Si Si4 0.357502 0.942170 0.896824
Si Si5 0.214749 0.651940 0.396361
Si Si6 0.158461 0.244497 0.397671
O O1 0.904162 0.904162 0.108127
O O2 0.928348 0.816160 0.174473
O O3 0.000000 0.873192 0.109157
O O4 0.935389 0.836541 0.000000
O O5 0.500000 0.935779 0.778834
O O6 0.596488 0.933065 0.830227
O O7 0.848813 0.848813 0.247516
O O8 0.761973 0.849131 0.168015
O O9 0.771319 0.883436 0.326348
O O10 0.315391 0.899979 0.882127
O O11 0.339844 0.000000 0.883568
O O12 0.373268 0.937864 0.000000
O O13 0.229774 0.655146 0.500000
O O14 0.179559 0.699955 0.378543
O O15 0.141662 0.242596 0.500000
O O16 0.205302 0.205302 0.388948
#
# Coordination Sequence:
#
# PCOD9571301 Si02
#       6
#    32  16  32  32  32  32
#     4   9  18  32  50  74 102 129 159 194 233 283
#     4   9  18  32  50  68  83 106 144 188 231 274
#     4  10  19  30  47  70  95 126 161 195 232 274
#     4   9  19  33  47  67  92 116 147 187 232 282
#     4  10  19  29  45  67  94 127 158 194 237 281
#     4   9  18  31  46  67  94 125 164 201 231 271
#
# _framework density 16.503492000000001
#
# number of rings (size 3 to 8) (size 9 to 14) (size 15 to 20)
#    0.000    2.636    0.000    1.636    2.545    4.545 
#    0.000    4.545    0.000    0.545    0.000    0.000 
#    0.000    0.000    0.000    7.091    0.000    0.182 
#
# Total GULP energy -490201.064642 kJ/mol
# GULP energy per Si atom -5570.466644 kJ/mol
# Density = 1.646593 g / cm^3
# Si number density = 16.503492 Si / 1000 Ang^3
#
#
#
# Elastic Constant Matrix: (Units=GPa)
#
#
# Indices 1 2 3 4 5 6 
#
# 1 33.5719 18.1724 31.7390 0.0000 0.0000 0.0000
# 2 18.1724 33.5725 31.7388 0.0000 0.0000 0.0000
# 3 31.7390 31.7388 64.2867 0.0000 0.0000 0.0000
# 4 0.0000 0.0000 0.0000 20.4712 0.0000 0.0000
# 5 0.0000 0.0000 0.0000 0.0000 20.4713 0.0000
# 6 0.0000 0.0000 0.0000 0.0000 0.0000 7.5149
#
#
#
# Elastic Compliance Matrix: (Units=1/GPa)
#
#
# Indices 1 2 3 4 5 6 
#
# 1 0.056973 -0.007964 -0.024196 0.000000 0.000000 0.000000
# 2 -0.007964 0.056971 -0.024195 0.000000 0.000000 0.000000
# 3 -0.024196 -0.024195 0.039446 0.000000 0.000000 0.000000
# 4 0.000000 0.000000 0.000000 0.048849 0.000000 0.000000
# 5 0.000000 0.000000 0.000000 0.000000 0.048849 0.000000
# 6 0.000000 0.000000 0.000000 0.000000 0.000000 0.133069
#
#
# Mechanical properties :
#
#
# Convention : Reuss Voigt Hill
#
# Bulk Modulus (GPa) = 24.58231 32.74793 28.66512
# Shear Modulus (GPa) = 9.79572 13.01020 11.40296
#
# Velocity S-wave (km/s) = 2.43894 2.81077 2.63143
# Velocity P-wave (km/s) = 4.78109 5.51543 5.16134
#
# Compressibility (1/GPa) = 0.04067965
#
# Stress axis : x y z
#
# Youngs Moduli (GPa) = 17.55219 17.55292 25.35083
#
# Poissons Ratio (x) = 0.13979 0.61339
# Poissons Ratio (y) = 0.13979 0.61336
# Poissons Ratio (z) = 0.42470 0.42469
#
# Static dielectric constant tensor:
#      x y z
#    x 1.550200 0.000000 0.000000 
#    y 0.000000 1.550200 0.000000 
#    z 0.000000 0.000000 1.573190 
# 
# From -- ./inp_files/6370.got.cif
#   From: 2010.05.17/outbox.cif.g08.bks.cpg/sg139_4_cif.got.tgz:6370.got - 2010.05.20 13:14:44.
