data_PCOD9571356
_publ_section_title
;
Structure prediction by ZEFSAII (Michael W. Deem and Ramdas Pophale) SiO2 
 PCOD9571356
Probable space group: I 4/M M M
;
_chemical_formula_sum "Si O2"
_cell_formula_units_Z 176
_cell_length_a 19.077030
_cell_length_b 19.077030
_cell_length_c 22.979126
_cell_angle_alpha 90.000000
_cell_angle_beta 90.000000
_cell_angle_gamma 90.000000
_cell_volume 8362.863954
_symmetry_space_group_name_H-M "I 4/M M M"
_symmetry_group_IT_number 139
_symmetry_cell_setting 'tetragonal'
loop_
_space_group_symop_operation_xyz
x,y,z
-y,x,z
-x,-y,z
y,-x,z
x,-y,-z
-x,y,-z
y,x,-z
-y,-x,-z
-x,-y,-z
y,-x,-z
x,y,-z
-y,x,-z
-x,y,z
x,-y,z
-y,-x,z
y,x,z
1/2+x,1/2+y,1/2+z
1/2-y,1/2+x,1/2+z
1/2-x,1/2-y,1/2+z
1/2+y,1/2-x,1/2+z
1/2+x,1/2-y,1/2-z
1/2-x,1/2+y,1/2-z
1/2+y,1/2+x,1/2-z
1/2-y,1/2-x,1/2-z
1/2-x,1/2-y,1/2-z
1/2+y,1/2-x,1/2-z
1/2+x,1/2+y,1/2-z
1/2-y,1/2+x,1/2-z
1/2-x,1/2+y,1/2+z
1/2+x,1/2-y,1/2+z
1/2-y,1/2-x,1/2+z
1/2+y,1/2+x,1/2+z
loop_
_atom_site_type_symbol
_atom_site_label
_atom_site_fract_x
_atom_site_fract_y
_atom_site_fract_z
Si Si1 0.310069 0.422193 0.233144
Si Si2 0.581033 0.303845 0.092650
Si Si3 0.584037 0.000000 0.061803
Si Si4 0.918607 0.306985 0.173476
Si Si5 0.082349 0.652672 0.616669
Si Si6 0.699079 0.581770 0.566785
O O1 0.337468 0.500000 0.246062
O O2 0.364354 0.364354 0.252555
O O3 0.302316 0.417785 0.163415
O O4 0.240048 0.413524 0.269550
O O5 0.500000 0.319233 0.074992
O O6 0.637778 0.362223 0.073705
O O7 0.598103 0.222317 0.079204
O O8 0.596199 0.077706 0.086547
O O9 0.500000 0.000000 0.057737
O O10 0.621107 0.000000 0.000000
O O11 0.859622 0.366558 0.170850
O O12 0.907535 0.256594 0.117207
O O13 0.000000 0.333290 0.171662
O O14 0.000000 0.657424 0.631838
O O15 0.724621 0.593327 0.500000
O O16 0.677792 0.500000 0.570831
O O17 0.634537 0.634537 0.576020
#
# Coordination Sequence:
#
# PCOD9571356 Si02
#       6
#    32  32  16  32  32  32
#     4   9  18  32  50  73 103 139 184 230 275 326
#     4   9  19  35  55  80 110 144 182 229 279 330
#     4   9  18  34  58  86 110 138 175 217 268 322
#     4  10  19  31  47  69  98 137 174 223 275 329
#     4  10  20  35  55  79 105 135 173 222 269 324
#     4   9  18  31  46  67  96 131 172 217 266 320
#
# _framework density 21.045421000000001
#
# number of rings (size 3 to 8) (size 9 to 14) (size 15 to 20)
#    0.000    2.636    0.909    0.545    0.000    3.455 
#    0.000    4.545    2.000    3.818    0.000    0.000 
#    0.000    0.000    0.000    7.091    0.000    0.182 
#
# Total GULP energy -490326.746203 kJ/mol
# GULP energy per Si atom -5571.894843 kJ/mol
# Density = 2.099752 g / cm^3
# Si number density = 21.045421 Si / 1000 Ang^3
#
#
#
# Elastic Constant Matrix: (Units=GPa)
#
#
# Indices 1 2 3 4 5 6 
#
# 1 103.7830 77.8350 20.5862 0.0000 0.0000 0.0000
# 2 77.8350 103.7830 20.5863 0.0000 0.0000 0.0000
# 3 20.5862 20.5863 47.9598 0.0000 0.0000 0.0000
# 4 0.0000 0.0000 0.0000 0.5222 0.0000 0.0000
# 5 0.0000 0.0000 0.0000 0.0000 0.5222 0.0000
# 6 0.0000 0.0000 0.0000 0.0000 0.0000 40.3483
#
#
#
# Elastic Compliance Matrix: (Units=1/GPa)
#
#
# Indices 1 2 3 4 5 6 
#
# 1 0.022319 -0.016219 -0.002618 0.000000 0.000000 0.000000
# 2 -0.016219 0.022319 -0.002618 0.000000 0.000000 0.000000
# 3 -0.002618 -0.002618 0.023098 0.000000 0.000000 0.000000
# 4 0.000000 0.000000 0.000000 1.914896 -0.000004 0.000000
# 5 0.000000 0.000000 0.000000 -0.000004 1.914907 0.000000
# 6 0.000000 0.000000 0.000000 0.000000 0.000000 0.024784
#
#
# Mechanical properties :
#
#
# Convention : Reuss Voigt Hill
#
# Bulk Modulus (GPa) = 40.28213 54.83787 47.56000
# Shear Modulus (GPa) = 1.25833 17.37977 9.31905
#
# Velocity S-wave (km/s) = 0.77409 2.87683 2.10658
# Velocity P-wave (km/s) = 4.47002 6.09494 5.34460
#
# Compressibility (1/GPa) = 0.02482490
#
# Stress axis : x y z
#
# Youngs Moduli (GPa) = 44.80474 44.80474 43.29292
#
# Poissons Ratio (x) = 0.72671 0.11335
# Poissons Ratio (y) = 0.72671 0.11335
# Poissons Ratio (z) = 0.11731 0.11731
#
# Static dielectric constant tensor:
#      x y z
#    x 1.758370 0.000000 0.000000 
#    y 0.000000 1.758370 0.000000 
#    z 0.000000 0.000000 1.887620 
# 
# From -- ./inp_files/13125.got.cif
#   From: 2010.05.17/outbox.cif.g08.bks.cpg/sg139_7_cif.got.tgz:13125.got - 2010.05.20 13:14:44.
