data_PCOD9571108
_publ_section_title
;
Structure prediction by ZEFSAII (Michael W. Deem and Ramdas Pophale) SiO2 
 PCOD9571108
Probable space group: P 42/N C M
;
_chemical_formula_sum "Si O2"
_cell_formula_units_Z 60
_cell_length_a 11.664025
_cell_length_b 11.664025
_cell_length_c 22.373526
_cell_angle_alpha 90.000000
_cell_angle_beta 90.000000
_cell_angle_gamma 90.000000
_cell_volume 3043.906560
_symmetry_space_group_name_H-M "P 42/N C M"
_symmetry_group_IT_number 138
_space_group.IT_coordinate_system_code '2'
_symmetry_cell_setting 'tetragonal'
loop_
_space_group_symop_operation_xyz
x,y,z
1/2-y,x,1/2+z
1/2-x,1/2-y,z
y,1/2-x,1/2+z
1/2+x,-y,1/2-z
-x,1/2+y,1/2-z
1/2+y,1/2+x,-z
-y,-x,-z
-x,-y,-z
1/2+y,-x,1/2-z
1/2+x,1/2+y,-z
-y,1/2+x,1/2-z
1/2-x,y,1/2+z
x,1/2-y,1/2+z
1/2-y,1/2-x,z
y,x,z
loop_
_atom_site_type_symbol
_atom_site_label
_atom_site_fract_x
_atom_site_fract_y
_atom_site_fract_z
Si Si1 0.743121 0.431187 0.021373
Si Si2 0.550963 0.230028 0.838706
Si Si3 0.750000 0.250000 0.750000
Si Si4 0.456880 0.456880 0.660322
Si Si5 0.660356 0.660356 0.226908
Si Si6 0.155270 0.155270 0.542278
O O1 0.736037 0.434184 0.092760
O O2 0.841641 0.341641 0.000000
O O3 0.622852 0.377149 0.000000
O O4 0.782603 0.553819 0.995340
O O5 0.646318 0.280673 0.794163
O O6 0.430173 0.272072 0.813650
O O7 0.562755 0.092888 0.838078
O O8 0.402368 0.402368 0.719076
O O9 0.402089 0.402089 0.600754
O O10 0.750000 0.750000 0.253209
O O11 0.250000 0.250000 0.558468
#
# Coordination Sequence:
#
# PCOD9571108 Si02
#       6
#    16  16   4   8   8   8
#     4  11  24  45  72 103 135 183 237 286 350 422
#     4  12  25  43  71  99 139 185 234 285 348 419
#     4  12  24  44  66 100 136 188 236 274 348 416
#     4  12  24  49  68  98 143 184 231 287 356 418
#     4  12  27  43  69 108 135 179 234 293 343 417
#     4  12  27  46  71 105 145 184 232 296 355 421
#
# _framework density 19.711513
#
# number of rings (size 3 to 8) (size 9 to 14) (size 15 to 20)
#    0.000    0.267    6.667    3.200    1.867    0.533 
#    0.000    0.000    0.000    0.000    0.000    0.000 
#    0.000    0.000    0.000    0.000    0.000    0.000 
#
# Total GULP energy -335568.256204 kJ/mol
# GULP energy per Si atom -5592.804270 kJ/mol
# Density = 1.966665 g / cm^3
# Si number density = 19.711513 Si / 1000 Ang^3
#
#
#
# Elastic Constant Matrix: (Units=GPa)
#
#
# Indices 1 2 3 4 5 6 
#
# 1 82.8956 84.0995 62.3128 0.0000 0.0000 0.0000
# 2 84.0995 82.8916 62.3127 0.0000 0.0000 0.0000
# 3 62.3128 62.3127 189.0530 0.0000 0.0000 0.0000
# 4 0.0000 0.0000 0.0000 6.1394 0.0000 0.0000
# 5 0.0000 0.0000 0.0000 0.0000 6.1321 0.0000
# 6 0.0000 0.0000 0.0000 0.0000 0.0000 41.2130
#
#
#
# Elastic Compliance Matrix: (Units=1/GPa)
#
#
# Indices 1 2 3 4 5 6 
#
# 1 -0.410650 0.418605 -0.002621 0.000000 0.000000 0.000000
# 2 0.418605 -0.410676 -0.002614 0.000000 0.000000 0.000000
# 3 -0.002621 -0.002614 0.007015 0.000000 0.000000 0.000000
# 4 0.000000 0.000000 0.000000 0.162881 0.000000 0.000000
# 5 0.000000 0.000000 0.000000 0.000000 0.163075 0.000000
# 6 0.000000 0.000000 0.000000 0.000000 0.000000 0.024264
#
#
# Mechanical properties :
#
#
# Convention : Reuss Voigt Hill
#
# Bulk Modulus (GPa) = 80.46287 85.81002 83.13644
# Shear Modulus (GPa) = -3.88595 20.43793 8.27599
#
# Velocity S-wave (km/s) = -1.40559 3.22351 2.05126
# Velocity P-wave (km/s) = 6.18665 7.58170 6.91942
#
# Compressibility (1/GPa) = 0.01242809
#
# Stress axis : x y z
#
# Youngs Moduli (GPa) = -2.43516 -2.43501 142.54950
#
# Poissons Ratio (x) = 1.01931 0.37369
# Poissons Ratio (y) = 1.01937 0.37260
# Poissons Ratio (z) = -0.00638 -0.00636
#
# Static dielectric constant tensor:
#      x y z
#    x 1.697910 0.000000 0.000000 
#    y 0.000000 1.697910 0.000000 
#    z 0.000000 0.000000 1.644210 
# 
# From -- ./inp_files/5914.got.cif
#   From: 2010.05.17/outbox.cif.g08.bks.cpg/sg138_3_cif.got.tgz:5914.got - 2010.05.20 13:08:53.
