data_PCOD9571998
_publ_section_title
;
Structure prediction by ZEFSAII (Michael W. Deem and Ramdas Pophale) SiO2 
 PCOD9571998
Probable space group: I 4/M C M
;
_chemical_formula_sum "Si O2"
_cell_formula_units_Z 96
_cell_length_a 30.067831
_cell_length_b 30.067831
_cell_length_c 8.609226
_cell_angle_alpha 90.000000
_cell_angle_beta 90.000000
_cell_angle_gamma 90.000000
_cell_volume 7783.381356
_symmetry_space_group_name_H-M "I 4/M C M"
_symmetry_group_IT_number 140
_symmetry_cell_setting 'tetragonal'
loop_
_space_group_symop_operation_xyz
x,y,z
-y,x,z
-x,-y,z
y,-x,z
x,-y,1/2-z
-x,y,1/2-z
y,x,1/2-z
-y,-x,1/2-z
-x,-y,-z
y,-x,-z
x,y,-z
-y,x,-z
-x,y,1/2+z
x,-y,1/2+z
-y,-x,1/2+z
y,x,1/2+z
1/2+x,1/2+y,1/2+z
1/2-y,1/2+x,1/2+z
1/2-x,1/2-y,1/2+z
1/2+y,1/2-x,1/2+z
1/2+x,1/2-y,-z
1/2-x,1/2+y,-z
1/2+y,1/2+x,-z
1/2-y,1/2-x,-z
1/2-x,1/2-y,1/2-z
1/2+y,1/2-x,1/2-z
1/2+x,1/2+y,1/2-z
1/2-y,1/2+x,1/2-z
1/2-x,1/2+y,z
1/2+x,1/2-y,z
1/2-y,1/2-x,z
1/2+y,1/2+x,z
loop_
_atom_site_type_symbol
_atom_site_label
_atom_site_fract_x
_atom_site_fract_y
_atom_site_fract_z
Si Si1 0.879438 0.950606 0.685875
Si Si2 0.313196 0.615205 0.185446
Si Si3 0.248685 0.679759 0.686126
O O1 0.918210 0.918210 0.750000
O O2 0.880438 0.949825 0.500000
O O3 0.832587 0.930305 0.745865
O O4 0.885726 0.000000 0.750000
O O5 0.348439 0.651562 0.250000
O O6 0.265547 0.633527 0.241920
O O7 0.315098 0.614520 0.000000
O O8 0.283386 0.716615 0.750000
O O9 0.253034 0.677719 0.500000
O O10 0.200177 0.700177 0.723781
#
# Coordination Sequence:
#
# PCOD9571998 Si02
#       3
#    32  32  32
#     4  11  21  34  47  59  72  88 112 143 182 223
#     4  10  17  26  39  54  71  91 112 136 168 205
#     4   9  15  22  33  50  71  93 114 135 160 193
#
# _framework density 12.333971
#
# number of rings (size 3 to 8) (size 9 to 14) (size 15 to 20)
#    0.000    2.000    0.000   11.000    0.000    2.333 
#    0.000    1.667    0.000    0.000    0.000    0.000 
#    0.000    0.000    0.000    0.000    0.000    0.000 
#
# Total GULP energy -267260.385916 kJ/mol
# GULP energy per Si atom -5567.924707 kJ/mol
# Density = 1.230590 g / cm^3
# Si number density = 12.333971 Si / 1000 Ang^3
#
#
#
# Elastic Constant Matrix: (Units=GPa)
#
#
# Indices 1 2 3 4 5 6 
#
# 1 51.5369 52.1285 36.0858 0.0000 0.0000 0.0000
# 2 52.1285 51.5363 36.0854 0.0000 0.0000 0.0000
# 3 36.0858 36.0854 124.7061 0.0000 0.0000 0.0000
# 4 0.0000 0.0000 0.0000 12.3361 0.0000 0.0000
# 5 0.0000 0.0000 0.0000 0.0000 12.3366 0.0000
# 6 0.0000 0.0000 0.0000 0.0000 0.0000 17.8469
#
#
#
# Elastic Compliance Matrix: (Units=1/GPa)
#
#
# Indices 1 2 3 4 5 6 
#
# 1 -0.838689 0.850773 -0.003494 0.000000 0.000000 0.000000
# 2 0.850773 -0.838697 -0.003497 0.000000 0.000000 0.000000
# 3 -0.003494 -0.003497 0.010042 0.000000 0.000000 0.000000
# 4 0.000000 0.000000 0.000000 0.081063 0.000000 0.000000
# 5 0.000000 0.000000 0.000000 0.000000 0.081060 0.000000
# 6 0.000000 0.000000 0.000000 0.000000 0.000000 0.056032
#
#
# Mechanical properties :
#
#
# Convention : Reuss Voigt Hill
#
# Bulk Modulus (GPa) = 49.45665 52.93096 51.19380
# Shear Modulus (GPa) = -1.59744 15.40254 6.90255
#
# Velocity S-wave (km/s) = -1.13928 3.53766 2.36823
# Velocity P-wave (km/s) = 6.20116 7.72623 7.00532
#
# Compressibility (1/GPa) = 0.02021973
#
# Stress axis : x y z
#
# Youngs Moduli (GPa) = -1.19234 -1.19233 99.58341
#
# Poissons Ratio (x) = 1.01440 0.34799
# Poissons Ratio (y) = 1.01441 0.34821
# Poissons Ratio (z) = -0.00417 -0.00417
#
# Static dielectric constant tensor:
#      x y z
#    x 1.424470 0.000000 0.000000 
#    y 0.000000 1.424470 0.000000 
#    z 0.000000 0.000000 1.407340 
# 
# From -- ./inp_files/1054.got.cif
#   From: 2010.05.17/outbox.cif.g08.bks.cpg/sg140_1_cif.got.tgz:1054.got - 2010.06.21 00:45:31.
