data_PCOD9571889
_publ_section_title
;
Structure prediction by ZEFSAII (Michael W. Deem and Ramdas Pophale) SiO2 
 PCOD9571889
Probable space group: I 4/M M M
;
_chemical_formula_sum "Si O2"
_cell_formula_units_Z 132
_cell_length_a 21.129729
_cell_length_b 21.129729
_cell_length_c 15.303524
_cell_angle_alpha 90.000000
_cell_angle_beta 90.000000
_cell_angle_gamma 90.000000
_cell_volume 6832.494693
_symmetry_space_group_name_H-M "I 4/M M M"
_symmetry_group_IT_number 139
_symmetry_cell_setting 'tetragonal'
loop_
_space_group_symop_operation_xyz
x,y,z
-y,x,z
-x,-y,z
y,-x,z
x,-y,-z
-x,y,-z
y,x,-z
-y,-x,-z
-x,-y,-z
y,-x,-z
x,y,-z
-y,x,-z
-x,y,z
x,-y,z
-y,-x,z
y,x,z
1/2+x,1/2+y,1/2+z
1/2-y,1/2+x,1/2+z
1/2-x,1/2-y,1/2+z
1/2+y,1/2-x,1/2+z
1/2+x,1/2-y,1/2-z
1/2-x,1/2+y,1/2-z
1/2+y,1/2+x,1/2-z
1/2-y,1/2-x,1/2-z
1/2-x,1/2-y,1/2-z
1/2+y,1/2-x,1/2-z
1/2+x,1/2+y,1/2-z
1/2-y,1/2+x,1/2-z
1/2-x,1/2+y,1/2+z
1/2+x,1/2-y,1/2+z
1/2-y,1/2-x,1/2+z
1/2+y,1/2+x,1/2+z
loop_
_atom_site_type_symbol
_atom_site_label
_atom_site_fract_x
_atom_site_fract_y
_atom_site_fract_z
Si Si1 0.069848 0.627779 0.000000
Si Si2 0.236401 0.000000 0.786428
Si Si3 0.758409 0.758409 0.606398
Si Si4 0.813122 0.626167 0.668060
Si Si5 0.393163 0.500000 0.396464
Si Si6 0.500000 0.309300 0.103930
Si Si7 0.362279 0.362279 0.895932
Si Si8 0.500000 0.000000 0.000000
O O1 0.108025 0.645675 0.915096
O O2 0.000000 0.661017 0.000000
O O3 0.053544 0.555008 0.000000
O O4 0.269519 0.065210 0.815143
O O5 0.166244 0.000000 0.830492
O O6 0.241725 0.000000 0.680659
O O7 0.757410 0.757410 0.500000
O O8 0.776234 0.689905 0.642906
O O9 0.810868 0.810868 0.637387
O O10 0.856822 0.643179 0.750000
O O11 0.438638 0.438638 0.383663
O O12 0.373449 0.500000 0.500000
O O13 0.565005 0.346589 0.123463
O O14 0.500000 0.292015 0.000000
O O15 0.356676 0.356676 0.000000
#
# Coordination Sequence:
#
# PCOD9571889 Si02
#       8
#    16  16  16  32  16  16  16   4
#     4  10  22  49  69 100 138 169 224 292 349 418
#     4  12  26  41  70 103 131 176 235 285 336 435
#     4  11  23  43  72  97 141 189 219 284 352 410
#     4  12  26  44  69 102 140 180 232 285 350 420
#     4   9  22  43  67 100 142 181 227 287 349 419
#     4  10  22  41  64  91 132 174 221 276 335 392
#     4   9  20  40  65  93 129 176 223 271 329 400
#     4   8  20  44  74  96 132 174 220 292 354 416
#
# _framework density 19.319445000000002
#
# number of rings (size 3 to 8) (size 9 to 14) (size 15 to 20)
#    0.364    1.091    2.424    2.182    5.091    1.212 
#    2.182    3.030    0.000    0.000    0.000    0.000 
#    0.000    0.000    0.000    0.000    0.000    0.000 
#
# Total GULP energy -367545.914342 kJ/mol
# GULP energy per Si atom -5568.877490 kJ/mol
# Density = 1.927547 g / cm^3
# Si number density = 19.319445 Si / 1000 Ang^3
#
#
#
# Elastic Constant Matrix: (Units=GPa)
#
#
# Indices 1 2 3 4 5 6 
#
# 1 150.3143 90.5120 61.8107 0.0000 0.0000 0.0000
# 2 90.5120 150.3162 61.8112 0.0000 0.0000 0.0000
# 3 61.8107 61.8112 141.5549 0.0000 0.0000 0.0000
# 4 0.0000 0.0000 0.0000 18.3471 0.0000 0.0000
# 5 0.0000 0.0000 0.0000 0.0000 18.3483 0.0000
# 6 0.0000 0.0000 0.0000 0.0000 0.0000 9.4023
#
#
#
# Elastic Compliance Matrix: (Units=1/GPa)
#
#
# Indices 1 2 3 4 5 6 
#
# 1 0.011037 -0.005685 -0.002337 0.000000 0.000000 0.000000
# 2 -0.005685 0.011037 -0.002337 0.000000 0.000000 0.000000
# 3 -0.002337 -0.002337 0.009105 0.000000 0.000000 0.000000
# 4 0.000000 0.000000 0.000000 0.054504 0.000000 0.000000
# 5 0.000000 0.000000 0.000000 0.000000 0.054501 0.000000
# 6 0.000000 0.000000 0.000000 0.000000 0.000000 0.106357
#
#
# Mechanical properties :
#
#
# Convention : Reuss Voigt Hill
#
# Bulk Modulus (GPa) = 95.58995 96.71704 96.15349
# Shear Modulus (GPa) = 18.46750 24.42298 21.44524
#
# Velocity S-wave (km/s) = 3.09512 3.55937 3.33533
# Velocity P-wave (km/s) = 7.89678 8.18919 8.04431
#
# Compressibility (1/GPa) = 0.01046135
#
# Stress axis : x y z
#
# Youngs Moduli (GPa) = 90.60599 90.60700 109.82597
#
# Poissons Ratio (x) = 0.51508 0.25666
# Poissons Ratio (y) = 0.51507 0.25666
# Poissons Ratio (z) = 0.21174 0.21175
#
# Static dielectric constant tensor:
#      x y z
#    x 1.702980 0.000000 0.000000 
#    y 0.000000 1.702970 0.000000 
#    z 0.000000 0.000000 1.671670 
# 
# From -- ./inp_files/5560.got.cif
#   From: 2010.05.17/outbox.cif.g08.bks.cpg/sg139_3_cif.got.tgz:5560.got - 2010.05.20 13:14:44.
