data_PCOD9571972
_publ_section_title
;
Structure prediction by ZEFSAII (Michael W. Deem and Ramdas Pophale) SiO2 
 PCOD9571972
Probable space group: I 4/M M M
;
_chemical_formula_sum "Si O2"
_cell_formula_units_Z 64
_cell_length_a 30.000000
_cell_length_b 30.000000
_cell_length_c 9.000000
_cell_angle_alpha 90.000000
_cell_angle_beta 90.000000
_cell_angle_gamma 90.000000
_cell_volume 8100.000000
_symmetry_space_group_name_H-M "I 4/M M M"
_symmetry_group_IT_number 139
_symmetry_cell_setting 'tetragonal'
loop_
_space_group_symop_operation_xyz
x,y,z
-y,x,z
-x,-y,z
y,-x,z
x,-y,-z
-x,y,-z
y,x,-z
-y,-x,-z
-x,-y,-z
y,-x,-z
x,y,-z
-y,x,-z
-x,y,z
x,-y,z
-y,-x,z
y,x,z
1/2+x,1/2+y,1/2+z
1/2-y,1/2+x,1/2+z
1/2-x,1/2-y,1/2+z
1/2+y,1/2-x,1/2+z
1/2+x,1/2-y,1/2-z
1/2-x,1/2+y,1/2-z
1/2+y,1/2+x,1/2-z
1/2-y,1/2-x,1/2-z
1/2-x,1/2-y,1/2-z
1/2+y,1/2-x,1/2-z
1/2+x,1/2+y,1/2-z
1/2-y,1/2+x,1/2-z
1/2-x,1/2+y,1/2+z
1/2+x,1/2-y,1/2+z
1/2-y,1/2-x,1/2+z
1/2+y,1/2+x,1/2+z
loop_
_atom_site_type_symbol
_atom_site_label
_atom_site_fract_x
_atom_site_fract_y
_atom_site_fract_z
Si Si1 0.112402 0.887599 0.828000
Si Si2 0.620268 0.052293 0.176986
Si Si3 0.947496 0.947496 0.662250
Si Si4 0.812336 0.052408 0.679868
Si Si5 0.788678 0.446112 0.830562
O O1 0.074916 0.925085 0.801263
O O2 0.154547 0.911351 0.749504
O O3 0.121249 0.878752 0.000000
O O4 0.582589 0.082589 0.250000
O O5 0.669188 0.067288 0.232724
O O6 0.614607 0.000000 0.218251
O O7 0.617918 0.055549 0.000000
O O8 0.930530 0.930530 0.500000
O O9 0.000000 0.939583 0.663631
O O10 0.815113 0.053421 0.500000
O O11 0.761331 0.064420 0.721698
O O12 0.821404 0.000000 0.722515
O O13 0.789176 0.500000 0.835436
O O14 0.794451 0.429982 0.000000
#
# Coordination Sequence:
#
# PCOD9571972 Si02
#       5
#    16  32  16  32  32
#     4  12  23  29  39  64  93 117 144 187 240 285
#     4  10  20  32  48  72 102 135 166 195 227 263
#     4   9  18  32  46  56  72 107 151 187 222 275
#     4   9  18  33  51  67  86 118 157 194 235 286
#     4   8  15  30  51  71  90 116 154 198 238 275
#
# _framework density 7.9012349999999998
#
# number of rings (size 3 to 8) (size 9 to 14) (size 15 to 20)
#    0.000    2.625    0.000    4.500    0.000    6.750 
#    0.000    4.375    0.000    0.000    0.000    0.875 
#    0.000    0.000    0.000    0.000    0.000    0.000 
#
# Total GULP energy -356395.025189 kJ/mol
# GULP energy per Si atom -5568.672269 kJ/mol
# Density = 0.788325 g / cm^3
# Si number density = 7.901235 Si / 1000 Ang^3
#
#
#
# Elastic Constant Matrix: (Units=GPa)
#
#
# Indices 1 2 3 4 5 6 
#
# 1 105.7863 59.2455 46.6304 0.0000 0.0000 0.0000
# 2 59.2455 105.7862 46.6303 0.0000 0.0000 0.0000
# 3 46.6304 46.6303 50.0690 0.0000 0.0000 0.0000
# 4 0.0000 0.0000 0.0000 14.5590 0.0000 0.0000
# 5 0.0000 0.0000 0.0000 0.0000 14.5588 0.0000
# 6 0.0000 0.0000 0.0000 0.0000 0.0000 14.2806
#
#
#
# Elastic Compliance Matrix: (Units=1/GPa)
#
#
# Indices 1 2 3 4 5 6 
#
# 1 0.017139 -0.004347 -0.011913 0.000000 0.000000 0.000000
# 2 -0.004347 0.017139 -0.011913 0.000000 0.000000 0.000000
# 3 -0.011913 -0.011913 0.042162 0.000000 0.000000 0.000000
# 4 0.000000 0.000000 0.000000 0.068686 0.000000 0.000000
# 5 0.000000 0.000000 0.000000 0.000000 0.068687 0.000000
# 6 0.000000 0.000000 0.000000 0.000000 0.000000 0.070025
#
#
# Mechanical properties :
#
#
# Convention : Reuss Voigt Hill
#
# Bulk Modulus (GPa) = 49.76833 62.96156 56.36494
# Shear Modulus (GPa) = 14.41406 15.95538 15.18472
#
# Velocity S-wave (km/s) = 3.02344 3.18099 3.10321
# Velocity P-wave (km/s) = 6.61443 7.30896 6.97035
#
# Compressibility (1/GPa) = 0.02009310
#
# Stress axis : x y z
#
# Youngs Moduli (GPa) = 58.34617 58.34614 23.71786
#
# Poissons Ratio (x) = 0.25366 0.28255
# Poissons Ratio (y) = 0.25366 0.28255
# Poissons Ratio (z) = 0.69508 0.69508
#
# Static dielectric constant tensor:
#      x y z
#    x 1.535100 0.000000 0.000000 
#    y 0.000000 1.535100 0.000000 
#    z 0.000000 0.000000 1.542930 
# 
# From -- ./inp_files/1870.got.cif
#   From: 2010.05.17/outbox.ucp.g08.bks.cvg/sg139_1_cif.got.tgz:1870.got - 2010.06.11 11:42:03.
