data_PCOD9571656
_publ_section_title
;
Structure prediction by ZEFSAII (Michael W. Deem and Ramdas Pophale) SiO2 
 PCOD9571656
Probable space group: I 4/M M M
;
_chemical_formula_sum "Si O2"
_cell_formula_units_Z 176
_cell_length_a 20.106813
_cell_length_b 20.106813
_cell_length_c 24.017645
_cell_angle_alpha 90.000000
_cell_angle_beta 90.000000
_cell_angle_gamma 90.000000
_cell_volume 9709.947886
_symmetry_space_group_name_H-M "I 4/M M M"
_symmetry_group_IT_number 139
_symmetry_cell_setting 'tetragonal'
loop_
_space_group_symop_operation_xyz
x,y,z
-y,x,z
-x,-y,z
y,-x,z
x,-y,-z
-x,y,-z
y,x,-z
-y,-x,-z
-x,-y,-z
y,-x,-z
x,y,-z
-y,x,-z
-x,y,z
x,-y,z
-y,-x,z
y,x,z
1/2+x,1/2+y,1/2+z
1/2-y,1/2+x,1/2+z
1/2-x,1/2-y,1/2+z
1/2+y,1/2-x,1/2+z
1/2+x,1/2-y,1/2-z
1/2-x,1/2+y,1/2-z
1/2+y,1/2+x,1/2-z
1/2-y,1/2-x,1/2-z
1/2-x,1/2-y,1/2-z
1/2+y,1/2-x,1/2-z
1/2+x,1/2+y,1/2-z
1/2-y,1/2+x,1/2-z
1/2-x,1/2+y,1/2+z
1/2+x,1/2-y,1/2+z
1/2-y,1/2-x,1/2+z
1/2+y,1/2+x,1/2+z
loop_
_atom_site_type_symbol
_atom_site_label
_atom_site_fract_x
_atom_site_fract_y
_atom_site_fract_z
Si Si1 0.316660 0.922144 0.771659
Si Si2 0.574697 0.319033 0.082297
Si Si3 0.578704 0.799961 0.400241
Si Si4 0.074025 0.336296 0.564882
Si Si5 0.194979 0.919143 0.000000
Si Si6 0.679213 0.425885 0.215819
O O1 0.375735 0.875735 0.750000
O O2 0.288991 0.909773 0.834312
O O3 0.254346 0.910467 0.731573
O O4 0.335906 0.000000 0.769209
O O5 0.500000 0.334542 0.062571
O O6 0.630286 0.369715 0.061807
O O7 0.588750 0.242250 0.069101
O O8 0.573391 0.324998 0.149170
O O9 0.500000 0.812906 0.407921
O O10 0.620509 0.866432 0.411593
O O11 0.594632 0.741334 0.444932
O O12 0.069962 0.353179 0.500000
O O13 0.000000 0.347012 0.590199
O O14 0.130439 0.869562 0.000000
O O15 0.179834 0.000000 0.000000
O O16 0.663509 0.500000 0.236787
O O17 0.628105 0.371896 0.238071
#
# Coordination Sequence:
#
# PCOD9571656 Si02
#       6
#    32  32  32  32  16  32
#     4  10  21  36  56  81 113 151 187 228 276 330
#     4   9  18  32  50  73 103 138 177 222 267 315
#     4  10  21  38  58  82 112 146 186 230 279 334
#     4  10  20  34  53  77 105 139 179 221 265 315
#     4  10  22  41  63  87 115 147 188 238 292 348
#     4   9  18  33  52  75 103 135 173 218 269 322
#
# _framework density 18.125741999999999
#
# number of rings (size 3 to 8) (size 9 to 14) (size 15 to 20)
#    0.000    2.364    0.909    1.091    0.000    5.364 
#    0.000    4.545    0.000    0.000    0.000    7.636 
#    0.000    0.000    0.000    0.000    0.000    0.000 
#
# Total GULP energy -490312.973481 kJ/mol
# GULP energy per Si atom -5571.738335 kJ/mol
# Density = 1.808449 g / cm^3
# Si number density = 18.125742 Si / 1000 Ang^3
#
#
#
# Elastic Constant Matrix: (Units=GPa)
#
#
# Indices 1 2 3 4 5 6 
#
# 1 86.9666 81.0738 39.1942 0.0000 0.0000 0.0000
# 2 81.0738 86.9649 39.1941 0.0000 0.0000 0.0000
# 3 39.1942 39.1941 61.9393 0.0000 0.0000 0.0000
# 4 0.0000 0.0000 0.0000 7.6123 0.0000 0.0000
# 5 0.0000 0.0000 0.0000 0.0000 7.6124 0.0000
# 6 0.0000 0.0000 0.0000 0.0000 0.0000 45.4887
#
#
#
# Elastic Compliance Matrix: (Units=1/GPa)
#
#
# Indices 1 2 3 4 5 6 
#
# 1 0.089082 -0.080640 -0.005342 0.000000 0.000000 0.000000
# 2 -0.080640 0.089085 -0.005343 0.000000 0.000000 0.000000
# 3 -0.005342 -0.005343 0.022906 0.000000 0.000000 0.000000
# 4 0.000000 0.000000 0.000000 0.131366 0.000000 0.000000
# 5 0.000000 0.000000 0.000000 0.000000 0.131365 0.000000
# 6 0.000000 0.000000 0.000000 0.000000 0.000000 0.021983
#
#
# Mechanical properties :
#
#
# Convention : Reuss Voigt Hill
#
# Bulk Modulus (GPa) = 54.28299 61.64387 57.96343
# Shear Modulus (GPa) = 7.41201 17.23660 12.32431
#
# Velocity S-wave (km/s) = 2.02438 3.08709 2.61038
# Velocity P-wave (km/s) = 5.95627 6.84030 6.41353
#
# Compressibility (1/GPa) = 0.01842198
#
# Stress axis : x y z
#
# Youngs Moduli (GPa) = 11.22556 11.22528 43.65576
#
# Poissons Ratio (x) = 0.90521 0.23322
# Poissons Ratio (y) = 0.90523 0.23327
# Poissons Ratio (z) = 0.05997 0.05998
#
# Static dielectric constant tensor:
#      x y z
#    x 1.620200 0.000000 0.000000 
#    y 0.000000 1.620200 0.000000 
#    z 0.000000 0.000000 1.673210 
# 
# From -- ./inp_files/13099.got.cif
#   From: 2010.05.17/outbox.cif.g08.bks.cpg/sg139_7_cif.got.tgz:13099.got - 2010.05.20 13:14:44.
