data_PCOD9571981
_publ_section_title
;
Structure prediction by ZEFSAII (Michael W. Deem and Ramdas Pophale) SiO2 
 PCOD9571981
Probable space group: I 4/M M M
;
_chemical_formula_sum "Si O2"
_cell_formula_units_Z 88
_cell_length_a 24.000000
_cell_length_b 24.000000
_cell_length_c 15.000000
_cell_angle_alpha 90.000000
_cell_angle_beta 90.000000
_cell_angle_gamma 90.000000
_cell_volume 8640.000000
_symmetry_space_group_name_H-M "I 4/M M M"
_symmetry_group_IT_number 139
_symmetry_cell_setting 'tetragonal'
loop_
_space_group_symop_operation_xyz
x,y,z
-y,x,z
-x,-y,z
y,-x,z
x,-y,-z
-x,y,-z
y,x,-z
-y,-x,-z
-x,-y,-z
y,-x,-z
x,y,-z
-y,x,-z
-x,y,z
x,-y,z
-y,-x,z
y,x,z
1/2+x,1/2+y,1/2+z
1/2-y,1/2+x,1/2+z
1/2-x,1/2-y,1/2+z
1/2+y,1/2-x,1/2+z
1/2+x,1/2-y,1/2-z
1/2-x,1/2+y,1/2-z
1/2+y,1/2+x,1/2-z
1/2-y,1/2-x,1/2-z
1/2-x,1/2-y,1/2-z
1/2+y,1/2-x,1/2-z
1/2+x,1/2+y,1/2-z
1/2-y,1/2+x,1/2-z
1/2-x,1/2+y,1/2+z
1/2+x,1/2-y,1/2+z
1/2-y,1/2-x,1/2+z
1/2+y,1/2+x,1/2+z
loop_
_atom_site_type_symbol
_atom_site_label
_atom_site_fract_x
_atom_site_fract_y
_atom_site_fract_z
Si Si1 0.309579 0.223516 0.104573
Si Si2 0.639036 0.891791 0.840661
Si Si3 0.314666 0.406726 0.096681
Si Si4 0.748547 0.064812 0.099134
Si Si5 0.565911 0.066301 0.000000
Si Si6 0.062281 0.846143 0.784572
O O1 0.254603 0.254603 0.140328
O O2 0.331351 0.167971 0.148768
O O3 0.359995 0.267470 0.108199
O O4 0.299980 0.212342 0.000000
O O5 0.606460 0.893541 0.750000
O O6 0.691630 0.931817 0.847257
O O7 0.596024 0.905544 0.917230
O O8 0.372245 0.372245 0.092170
O O9 0.318412 0.440457 0.186936
O O10 0.306224 0.434106 0.000000
O O11 0.800378 0.090001 0.150964
O O12 0.761917 0.000000 0.091041
O O13 0.739887 0.087929 0.000000
O O14 0.500000 0.074464 0.000000
O O15 0.577439 0.000000 0.000000
O O16 0.100148 0.899853 0.781796
O O17 0.000000 0.860890 0.812832
#
# Coordination Sequence:
#
# PCOD9571981 Si02
#       6
#    32  32  32  32  16  32
#     4   9  17  32  55  86 126 161 191 238 303 367
#     4  12  23  38  66  97 125 159 206 251 304 372
#     4   8  15  30  52  76 113 158 193 235 294 358
#     4  10  21  39  61  82 113 156 195 241 298 356
#     4  11  26  48  67  86 122 168 214 271 328 373
#     4  10  21  36  55  83 116 155 207 257 306 365
#
# _framework density 10.185185000000001
#
# number of rings (size 3 to 8) (size 9 to 14) (size 15 to 20)
#    0.000    2.091    1.818    2.727    0.000    3.455 
#    0.000    1.818    0.000    0.000    0.000    5.091 
#    0.000    0.000    0.000    0.000    0.000    0.000 
#
# Total GULP energy -489983.317262 kJ/mol
# GULP energy per Si atom -5567.992242 kJ/mol
# Density = 1.016200 g / cm^3
# Si number density = 10.185185 Si / 1000 Ang^3
#
#
#
# Elastic Constant Matrix: (Units=GPa)
#
#
# Indices 1 2 3 4 5 6 
#
# 1 66.4351 50.9723 45.9179 0.0000 0.0000 0.0000
# 2 50.9723 66.4341 45.9200 0.0000 0.0000 0.0000
# 3 45.9179 45.9200 102.9749 0.0000 0.0000 0.0000
# 4 0.0000 0.0000 0.0000 29.3048 0.0000 0.0000
# 5 0.0000 0.0000 0.0000 0.0000 29.3299 0.0000
# 6 0.0000 0.0000 0.0000 0.0000 0.0000 16.9837
#
#
#
# Elastic Compliance Matrix: (Units=1/GPa)
#
#
# Indices 1 2 3 4 5 6 
#
# 1 0.038875 -0.025797 -0.005831 0.000000 0.000000 0.000000
# 2 -0.025797 0.038878 -0.005834 0.000000 0.000000 0.000000
# 3 -0.005831 -0.005834 0.014913 0.000000 0.000000 0.000000
# 4 0.000000 0.000000 0.000000 0.034124 0.000000 0.000000
# 5 0.000000 0.000000 0.000000 0.000000 0.034095 0.000000
# 6 0.000000 0.000000 0.000000 0.000000 0.000000 0.058880
#
#
# Mechanical properties :
#
#
# Convention : Reuss Voigt Hill
#
# Bulk Modulus (GPa) = 56.36319 57.94048 57.15183
# Shear Modulus (GPa) = 16.63322 21.32593 18.97957
#
# Velocity S-wave (km/s) = 2.86062 3.23911 3.05573
# Velocity P-wave (km/s) = 6.21612 6.51877 6.36924
#
# Compressibility (1/GPa) = 0.01774208
#
# Stress axis : x y z
#
# Youngs Moduli (GPa) = 25.72320 25.72158 67.05615
#
# Poissons Ratio (x) = 0.66354 0.39103
# Poissons Ratio (y) = 0.66358 0.39119
# Poissons Ratio (z) = 0.15000 0.15005
#
# Static dielectric constant tensor:
#      x y z
#    x 1.729920 0.000000 0.000000 
#    y 0.000000 1.729930 0.000000 
#    z 0.000000 0.000000 1.800770 
# 
# From -- ./inp_files/6091.got.cif
#   From: 2010.05.17/outbox.ucp.g08.bks.cvg/sg139_4_cif.got.tgz:6091.got - 2010.06.11 11:42:03.
