data_PCOD9571099
_publ_section_title
;
Structure prediction by ZEFSAII (Michael W. Deem and Ramdas Pophale) SiO2 
 PCOD9571099
Probable space group: P 42/N C M
;
_chemical_formula_sum "Si O2"
_cell_formula_units_Z 64
_cell_length_a 11.364239
_cell_length_b 11.364239
_cell_length_c 22.588186
_cell_angle_alpha 90.000000
_cell_angle_beta 90.000000
_cell_angle_gamma 90.000000
_cell_volume 2917.172244
_symmetry_space_group_name_H-M "P 42/N C M"
_symmetry_group_IT_number 138
_space_group.IT_coordinate_system_code '2'
_symmetry_cell_setting 'tetragonal'
loop_
_space_group_symop_operation_xyz
x,y,z
1/2-y,x,1/2+z
1/2-x,1/2-y,z
y,1/2-x,1/2+z
1/2+x,-y,1/2-z
-x,1/2+y,1/2-z
1/2+y,1/2+x,-z
-y,-x,-z
-x,-y,-z
1/2+y,-x,1/2-z
1/2+x,1/2+y,-z
-y,1/2+x,1/2-z
1/2-x,y,1/2+z
x,1/2-y,1/2+z
1/2-y,1/2-x,z
y,x,z
loop_
_atom_site_type_symbol
_atom_site_label
_atom_site_fract_x
_atom_site_fract_y
_atom_site_fract_z
Si Si1 0.351321 0.351321 0.548463
Si Si2 0.820723 0.488975 0.384055
Si Si3 0.242479 0.926755 0.844246
Si Si4 0.649856 0.649856 0.589483
Si Si5 0.164552 0.525593 0.215748
O O1 0.250000 0.250000 0.555016
O O2 0.466341 0.292191 0.578447
O O3 0.372866 0.372866 0.479659
O O4 0.932006 0.567995 0.401694
O O5 0.859185 0.352905 0.384496
O O6 0.781896 0.519110 0.316614
O O7 0.346696 0.853044 0.813374
O O8 0.174510 0.972110 0.785940
O O9 0.301281 0.033297 0.879336
O O10 0.750000 0.750000 0.593893
O O11 0.056684 0.443317 0.198839
#
# Coordination Sequence:
#
# PCOD9571099 Si02
#       5
#     8  16  16   8  16
#     4   9  22  45  71 101 137 181 241 290 343 419
#     4  11  23  42  68 100 132 180 233 287 348 420
#     4  12  25  42  63 103 142 180 233 290 363 421
#     4  11  24  45  71 101 140 189 236 292 344 420
#     4  12  24  41  64  97 141 182 224 288 360 427
#
# _framework density 21.939056000000001
#
# number of rings (size 3 to 8) (size 9 to 14) (size 15 to 20)
#    0.000    0.750    5.000    3.000    1.750    1.000 
#    0.000    6.250    0.000    3.000    0.000    0.000 
#    0.000    0.000    0.000    0.000    0.000    0.000 
#
# Total GULP energy -357608.591722 kJ/mol
# GULP energy per Si atom -5587.634246 kJ/mol
# Density = 2.188912 g / cm^3
# Si number density = 21.939056 Si / 1000 Ang^3
#
#
#
# Elastic Constant Matrix: (Units=GPa)
#
#
# Indices 1 2 3 4 5 6 
#
# 1 119.6416 63.1810 48.9946 0.0000 0.0000 0.0000
# 2 63.1810 119.6416 48.9946 0.0000 0.0000 0.0000
# 3 48.9946 48.9946 118.6187 0.0000 0.0000 0.0000
# 4 0.0000 0.0000 0.0000 22.3917 0.0000 0.0000
# 5 0.0000 0.0000 0.0000 0.0000 22.3917 0.0000
# 6 0.0000 0.0000 0.0000 0.0000 0.0000 49.5770
#
#
#
# Elastic Compliance Matrix: (Units=1/GPa)
#
#
# Indices 1 2 3 4 5 6 
#
# 1 0.012368 -0.005343 -0.002902 0.000000 0.000000 0.000000
# 2 -0.005343 0.012368 -0.002902 0.000000 0.000000 0.000000
# 3 -0.002902 -0.002902 0.010827 0.000000 0.000000 0.000000
# 4 0.000000 0.000000 0.000000 0.044659 0.000000 0.000000
# 5 0.000000 0.000000 0.000000 0.000000 0.044659 0.000000
# 6 0.000000 0.000000 0.000000 0.000000 0.000000 0.020171
#
#
# Mechanical properties :
#
#
# Convention : Reuss Voigt Hill
#
# Bulk Modulus (GPa) = 75.35308 75.58248 75.46778
# Shear Modulus (GPa) = 29.10868 31.98751 30.54809
#
# Velocity S-wave (km/s) = 3.64647 3.82254 3.73555
# Velocity P-wave (km/s) = 7.22151 7.34904 7.28555
#
# Compressibility (1/GPa) = 0.01327086
#
# Stress axis : x y z
#
# Youngs Moduli (GPa) = 80.85230 80.85230 92.35852
#
# Poissons Ratio (x) = 0.43201 0.26799
# Poissons Ratio (y) = 0.43201 0.26799
# Poissons Ratio (z) = 0.23460 0.23460
#
# Static dielectric constant tensor:
#      x y z
#    x 1.850180 0.000000 0.000000 
#    y 0.000000 1.850180 0.000000 
#    z 0.000000 0.000000 1.772750 
# 
# From -- ./inp_files/6791.got.cif
#   From: 2010.05.17/outbox.cif.g08.bks.cpg/sg138_4_cif.got.tgz:6791.got - 2010.05.20 13:08:53.
