data_PCOD9571470
_publ_section_title
;
Structure prediction by ZEFSAII (Michael W. Deem and Ramdas Pophale) SiO2 
 PCOD9571470
Probable space group: I 4/M M M
;
_chemical_formula_sum "Si O2"
_cell_formula_units_Z 240
_cell_length_a 21.069469
_cell_length_b 21.069469
_cell_length_c 28.127943
_cell_angle_alpha 90.000000
_cell_angle_beta 90.000000
_cell_angle_gamma 90.000000
_cell_volume 12486.627450
_symmetry_space_group_name_H-M "I 4/M M M"
_symmetry_group_IT_number 139
_symmetry_cell_setting 'tetragonal'
loop_
_space_group_symop_operation_xyz
x,y,z
-y,x,z
-x,-y,z
y,-x,z
x,-y,-z
-x,y,-z
y,x,-z
-y,-x,-z
-x,-y,-z
y,-x,-z
x,y,-z
-y,x,-z
-x,y,z
x,-y,z
-y,-x,z
y,x,z
1/2+x,1/2+y,1/2+z
1/2-y,1/2+x,1/2+z
1/2-x,1/2-y,1/2+z
1/2+y,1/2-x,1/2+z
1/2+x,1/2-y,1/2-z
1/2-x,1/2+y,1/2-z
1/2+y,1/2+x,1/2-z
1/2-y,1/2-x,1/2-z
1/2-x,1/2-y,1/2-z
1/2+y,1/2-x,1/2-z
1/2+x,1/2+y,1/2-z
1/2-y,1/2+x,1/2-z
1/2-x,1/2+y,1/2+z
1/2+x,1/2-y,1/2+z
1/2-y,1/2-x,1/2+z
1/2+y,1/2+x,1/2+z
loop_
_atom_site_type_symbol
_atom_site_label
_atom_site_fract_x
_atom_site_fract_y
_atom_site_fract_z
Si Si1 0.575542 0.193498 0.053412
Si Si2 0.818391 0.923254 0.385628
Si Si3 0.870369 0.227797 0.903109
Si Si4 0.824665 0.075243 0.804931
Si Si5 0.073624 0.366864 0.897822
Si Si6 0.574207 0.329406 0.500000
Si Si7 0.891123 0.574150 0.197474
Si Si8 0.423654 0.748505 0.212775
O O1 0.500000 0.200068 0.050804
O O2 0.595474 0.254766 0.084666
O O3 0.588148 0.123934 0.075363
O O4 0.602695 0.196568 0.000000
O O5 0.878682 0.878682 0.397756
O O6 0.799315 0.912105 0.330510
O O7 0.829544 0.000000 0.391768
O O8 0.797707 0.202294 0.900773
O O9 0.904476 0.198005 0.857053
O O10 0.889630 0.300486 0.901693
O O11 0.898045 0.201878 0.952525
O O12 0.891637 0.108364 0.795764
O O13 0.776980 0.098790 0.763609
O O14 0.828651 0.000000 0.802197
O O15 0.072653 0.387546 0.842815
O O16 0.000000 0.364764 0.914929
O O17 0.500000 0.323192 0.500000
O O18 0.598414 0.401587 0.500000
O O19 0.891101 0.500000 0.183844
O O20 0.919037 0.580964 0.250000
O O21 0.818801 0.599138 0.199928
O O22 0.500000 0.755031 0.216600
#
# Coordination Sequence:
#
# PCOD9571470 Si02
#       8
#    32  32  32  32  32  16  32  32
#     4  10  23  43  63  87 121 161 205 252 310 377
#     4  10  20  38  64  93 127 168 213 262 315 371
#     4  10  23  41  58  82 115 152 196 244 298 362
#     4  10  19  33  54  80 112 151 194 242 296 352
#     4  12  24  39  63  91 120 157 202 253 305 363
#     4  10  20  37  60  82 111 147 185 237 294 350
#     4  11  22  37  58  87 123 161 203 249 302 367
#     4   9  18  35  56  79 115 160 200 241 296 362
#
# _framework density 19.220562999999999
#
# number of rings (size 3 to 8) (size 9 to 14) (size 15 to 20)
#    0.000    1.733    1.333    3.200    0.933    4.200 
#    0.000    0.667    0.000    7.600    0.000    1.867 
#    0.000    0.000    0.000    0.000    0.000    0.000 
#
# Total GULP energy -669095.809317 kJ/mol
# GULP energy per Si atom -5575.798411 kJ/mol
# Density = 1.917682 g / cm^3
# Si number density = 19.220563 Si / 1000 Ang^3
#
#
#
# Elastic Constant Matrix: (Units=GPa)
#
#
# Indices 1 2 3 4 5 6 
#
# 1 85.1717 12.6415 28.0707 0.0000 0.0000 0.0000
# 2 12.6415 85.1743 28.0728 0.0000 0.0000 0.0000
# 3 28.0707 28.0728 117.0043 0.0000 0.0000 0.0000
# 4 0.0000 0.0000 0.0000 34.1916 0.0000 0.0000
# 5 0.0000 0.0000 0.0000 0.0000 34.1901 0.0000
# 6 0.0000 0.0000 0.0000 0.0000 0.0000 36.7735
#
#
#
# Elastic Compliance Matrix: (Units=1/GPa)
#
#
# Indices 1 2 3 4 5 6 
#
# 1 0.012822 -0.000965 -0.002844 0.000000 0.000000 0.000000
# 2 -0.000965 0.012821 -0.002845 0.000000 0.000000 0.000000
# 3 -0.002844 -0.002845 0.009912 0.000000 0.000000 0.000000
# 4 0.000000 0.000000 0.000000 0.029247 0.000000 0.000000
# 5 0.000000 0.000000 0.000000 0.000000 0.029248 0.000000
# 6 0.000000 0.000000 0.000000 0.000000 0.000000 0.027193
#
#
# Mechanical properties :
#
#
# Convention : Reuss Voigt Hill
#
# Bulk Modulus (GPa) = 44.95238 47.21336 46.08287
# Shear Modulus (GPa) = 35.21922 35.60205 35.41064
#
# Velocity S-wave (km/s) = 4.28527 4.30849 4.29689
# Velocity P-wave (km/s) = 6.92265 7.02625 6.97464
#
# Compressibility (1/GPa) = 0.02224576
#
# Stress axis : x y z
#
# Youngs Moduli (GPa) = 77.99245 77.99401 100.89175
#
# Poissons Ratio (x) = 0.07530 0.28698
# Poissons Ratio (y) = 0.07530 0.28700
# Poissons Ratio (z) = 0.22184 0.22186
#
# Static dielectric constant tensor:
#      x y z
#    x 1.691210 0.000000 0.000000 
#    y 0.000000 1.691210 0.000000 
#    z 0.000000 0.000000 1.687870 
# 
# From -- ./inp_files/13407.got.cif
#   From: 2010.05.17/outbox.cif.g08.bks.cpg/sg139_7_cif.got.tgz:13407.got - 2010.05.20 13:14:44.
