data_PCOD9571897
_publ_section_title
;
Structure prediction by ZEFSAII (Michael W. Deem and Ramdas Pophale) SiO2 
 PCOD9571897
Probable space group: I 4/M M M
;
_chemical_formula_sum "Si O2"
_cell_formula_units_Z 160
_cell_length_a 22.822650
_cell_length_b 22.822650
_cell_length_c 14.903793
_cell_angle_alpha 90.000000
_cell_angle_beta 90.000000
_cell_angle_gamma 90.000000
_cell_volume 7762.988633
_symmetry_space_group_name_H-M "I 4/M M M"
_symmetry_group_IT_number 139
_symmetry_cell_setting 'tetragonal'
loop_
_space_group_symop_operation_xyz
x,y,z
-y,x,z
-x,-y,z
y,-x,z
x,-y,-z
-x,y,-z
y,x,-z
-y,-x,-z
-x,-y,-z
y,-x,-z
x,y,-z
-y,x,-z
-x,y,z
x,-y,z
-y,-x,z
y,x,z
1/2+x,1/2+y,1/2+z
1/2-y,1/2+x,1/2+z
1/2-x,1/2-y,1/2+z
1/2+y,1/2-x,1/2+z
1/2+x,1/2-y,1/2-z
1/2-x,1/2+y,1/2-z
1/2+y,1/2+x,1/2-z
1/2-y,1/2-x,1/2-z
1/2-x,1/2-y,1/2-z
1/2+y,1/2-x,1/2-z
1/2+x,1/2+y,1/2-z
1/2-y,1/2+x,1/2-z
1/2-x,1/2+y,1/2+z
1/2+x,1/2-y,1/2+z
1/2-y,1/2-x,1/2+z
1/2+y,1/2+x,1/2+z
loop_
_atom_site_type_symbol
_atom_site_label
_atom_site_fract_x
_atom_site_fract_y
_atom_site_fract_z
Si Si1 0.184252 0.184252 0.394135
Si Si2 0.814266 0.500000 0.893823
Si Si3 0.343529 0.656472 0.292205
Si Si4 0.568825 0.431176 0.607240
Si Si5 0.265205 0.875838 0.903978
Si Si6 0.000000 0.404294 0.738955
Si Si7 0.310011 0.864939 0.341370
Si Si8 0.000000 0.311044 0.899718
O O1 0.173036 0.173036 0.500000
O O2 0.149981 0.149981 0.315053
O O3 0.169041 0.251146 0.370242
O O4 0.881147 0.500000 0.862446
O O5 0.797359 0.434800 0.853179
O O6 0.802689 0.500000 0.000000
O O7 0.387454 0.612546 0.342205
O O8 0.276888 0.645656 0.324983
O O9 0.580409 0.500000 0.628094
O O10 0.575957 0.424044 0.500000
O O11 0.333254 0.856561 0.905636
O O12 0.269075 0.944668 0.894366
O O13 0.239043 0.858736 0.000000
O O14 0.943145 0.443145 0.750000
O O15 0.000000 0.354776 0.815528
O O16 0.341251 0.841251 0.250000
O O17 0.000000 0.339058 0.000000
#
# Coordination Sequence:
#
# PCOD9571897 Si02
#       8
#    16  16  16  16  32  16  32  16
#     4  12  26  47  70  99 137 180 232 294 358 425
#     4  12  25  41  67 100 134 180 228 282 345 421
#     4  12  24  40  66 102 140 179 232 283 358 426
#     4   9  20  41  70 105 147 192 236 288 355 437
#     4  11  22  38  63  96 134 174 218 278 344 417
#     4  11  24  40  60  86 120 171 227 281 337 399
#     4  12  24  46  69  97 136 180 232 288 355 421
#     4  10  23  41  61  90 129 169 215 274 333 394
#
# _framework density 20.610619
#
# number of rings (size 3 to 8) (size 9 to 14) (size 15 to 20)
#    0.000    0.800    2.000    6.900    1.400    2.400 
#    1.800    1.000    0.000    0.000    0.000    0.700 
#    0.000    0.000    0.000    0.000    0.000    0.000 
#
# Total GULP energy -445387.153251 kJ/mol
# GULP energy per Si atom -5567.339416 kJ/mol
# Density = 2.056371 g / cm^3
# Si number density = 20.610619 Si / 1000 Ang^3
#
#
#
# Elastic Constant Matrix: (Units=GPa)
#
#
# Indices 1 2 3 4 5 6 
#
# 1 87.0802 49.8552 30.3747 0.0000 0.0000 0.0000
# 2 49.8552 87.0804 30.3750 0.0000 0.0000 0.0000
# 3 30.3747 30.3750 165.1415 0.0000 0.0000 0.0000
# 4 0.0000 0.0000 0.0000 25.9291 0.0000 0.0000
# 5 0.0000 0.0000 0.0000 0.0000 25.9292 0.0000
# 6 0.0000 0.0000 0.0000 0.0000 0.0000 47.0585
#
#
#
# Elastic Compliance Matrix: (Units=1/GPa)
#
#
# Indices 1 2 3 4 5 6 
#
# 1 0.017408 -0.009456 -0.001463 0.000000 0.000000 0.000000
# 2 -0.009456 0.017408 -0.001463 0.000000 0.000000 0.000000
# 3 -0.001463 -0.001463 0.006593 0.000000 0.000000 0.000000
# 4 0.000000 0.000000 0.000000 0.038567 0.000000 0.000000
# 5 0.000000 0.000000 0.000000 0.000000 0.038567 0.000000
# 6 0.000000 0.000000 0.000000 0.000000 0.000000 0.021250
#
#
# Mechanical properties :
#
#
# Convention : Reuss Voigt Hill
#
# Bulk Modulus (GPa) = 60.07325 62.27911 61.17618
# Shear Modulus (GPa) = 29.39396 35.02983 32.21190
#
# Velocity S-wave (km/s) = 3.78054 4.12709 3.95761
# Velocity P-wave (km/s) = 6.94743 7.27964 7.11547
#
# Compressibility (1/GPa) = 0.01664634
#
# Stress axis : x y z
#
# Youngs Moduli (GPa) = 57.44623 57.44636 151.66603
#
# Poissons Ratio (x) = 0.54321 0.22182
# Poissons Ratio (y) = 0.54321 0.22182
# Poissons Ratio (z) = 0.08402 0.08402
#
# Static dielectric constant tensor:
#      x y z
#    x 1.752200 0.000000 0.000000 
#    y 0.000000 1.752200 0.000000 
#    z 0.000000 0.000000 1.887720 
# 
# From -- ./inp_files/6070.got.cif
#   From: 2010.05.17/outbox.cif.g08.bks.cpg/sg139_4_cif.got.tgz:6070.got - 2010.05.20 13:14:44.
