data_PCOD9571866
_publ_section_title
;
Structure prediction by ZEFSAII (Michael W. Deem and Ramdas Pophale) SiO2 
 PCOD9571866
Probable space group: I 4/M M M
;
_chemical_formula_sum "Si O2"
_cell_formula_units_Z 144
_cell_length_a 22.973806
_cell_length_b 22.973806
_cell_length_c 14.090190
_cell_angle_alpha 90.000000
_cell_angle_beta 90.000000
_cell_angle_gamma 90.000000
_cell_volume 7436.742570
_symmetry_space_group_name_H-M "I 4/M M M"
_symmetry_group_IT_number 139
_symmetry_cell_setting 'tetragonal'
loop_
_space_group_symop_operation_xyz
x,y,z
-y,x,z
-x,-y,z
y,-x,z
x,-y,-z
-x,y,-z
y,x,-z
-y,-x,-z
-x,-y,-z
y,-x,-z
x,y,-z
-y,x,-z
-x,y,z
x,-y,z
-y,-x,z
y,x,z
1/2+x,1/2+y,1/2+z
1/2-y,1/2+x,1/2+z
1/2-x,1/2-y,1/2+z
1/2+y,1/2-x,1/2+z
1/2+x,1/2-y,1/2-z
1/2-x,1/2+y,1/2-z
1/2+y,1/2+x,1/2-z
1/2-y,1/2-x,1/2-z
1/2-x,1/2-y,1/2-z
1/2+y,1/2-x,1/2-z
1/2+x,1/2+y,1/2-z
1/2-y,1/2+x,1/2-z
1/2-x,1/2+y,1/2+z
1/2+x,1/2-y,1/2+z
1/2-y,1/2-x,1/2+z
1/2+y,1/2+x,1/2+z
loop_
_atom_site_type_symbol
_atom_site_label
_atom_site_fract_x
_atom_site_fract_y
_atom_site_fract_z
Si Si1 0.568769 0.000000 0.384174
Si Si2 0.627311 0.279407 0.887385
Si Si3 0.720017 0.066681 0.114266
Si Si4 0.067568 0.161785 0.780307
Si Si5 0.355904 0.887816 0.615669
O O1 0.606550 0.943865 0.353909
O O2 0.500000 0.000000 0.356441
O O3 0.567794 0.000000 0.500000
O O4 0.690943 0.309057 0.868877
O O5 0.582776 0.317490 0.826181
O O6 0.617988 0.212103 0.859375
O O7 0.617225 0.283795 0.000000
O O8 0.782587 0.082745 0.155177
O O9 0.669423 0.109471 0.146658
O O10 0.707136 0.000000 0.143413
O O11 0.721781 0.068005 0.000000
O O12 0.107719 0.107719 0.804847
O O13 0.000000 0.148962 0.791184
O O14 0.356783 0.889129 0.500000
#
# Coordination Sequence:
#
# PCOD9571866 Si02
#       5
#    16  32  32  32  32
#     4   9  16  26  44  76 112 144 186 228 262 315
#     4   9  19  35  54  79 108 136 174 223 272 325
#     4   9  18  34  54  77 108 144 181 220 262 312
#     4  10  22  38  57  81 105 136 175 220 275 332
#     4   9  17  29  50  78 107 145 183 221 269 316
#
# _framework density 19.363316999999999
#
# number of rings (size 3 to 8) (size 9 to 14) (size 15 to 20)
#    0.000    2.778    0.000    0.667    1.556    5.556 
#    0.000    4.444    0.000    0.000    0.000    6.222 
#    0.000    0.000    0.000    0.000    0.000    0.000 
#
# Total GULP energy -401760.241491 kJ/mol
# GULP energy per Si atom -5580.003354 kJ/mol
# Density = 1.931925 g / cm^3
# Si number density = 19.363317 Si / 1000 Ang^3
#
#
#
# Elastic Constant Matrix: (Units=GPa)
#
#
# Indices 1 2 3 4 5 6 
#
# 1 109.7172 98.2910 -1.7468 0.0000 0.0000 0.0000
# 2 98.2910 109.7172 -1.7468 0.0000 0.0000 0.0000
# 3 -1.7468 -1.7468 20.7178 0.0000 0.0000 0.0000
# 4 0.0000 0.0000 0.0000 19.1577 0.0000 0.0000
# 5 0.0000 0.0000 0.0000 0.0000 19.1577 0.0000
# 6 0.0000 0.0000 0.0000 0.0000 0.0000 31.5280
#
#
#
# Elastic Compliance Matrix: (Units=1/GPa)
#
#
# Indices 1 2 3 4 5 6 
#
# 1 0.046166 -0.041352 0.000406 0.000000 0.000000 0.000000
# 2 -0.041352 0.046166 0.000406 0.000000 0.000000 0.000000
# 3 0.000406 0.000406 0.048336 0.000000 0.000000 0.000000
# 4 0.000000 0.000000 0.000000 0.052198 0.000000 0.000000
# 5 0.000000 0.000000 0.000000 0.000000 0.052198 0.000000
# 6 0.000000 0.000000 0.000000 0.000000 0.000000 0.031718
#
#
# Mechanical properties :
#
#
# Convention : Reuss Voigt Hill
#
# Bulk Modulus (GPa) = 16.78179 47.74964 32.26571
# Shear Modulus (GPa) = 13.23709 23.65898 18.44804
#
# Velocity S-wave (km/s) = 2.61744 3.49928 3.08998
# Velocity P-wave (km/s) = 4.22141 6.40625 5.42496
#
# Compressibility (1/GPa) = 0.05958840
#
# Stress axis : x y z
#
# Youngs Moduli (GPa) = 21.66082 21.66082 20.68849
#
# Poissons Ratio (x) = 0.89572 -0.00840
# Poissons Ratio (y) = 0.89572 -0.00840
# Poissons Ratio (z) = -0.00879 -0.00879
#
# Static dielectric constant tensor:
#      x y z
#    x 1.651590 0.000000 0.000000 
#    y 0.000000 1.651590 0.000000 
#    z 0.000000 0.000000 1.719350 
# 
# From -- ./inp_files/8195.got.cif
#   From: 2010.05.17/outbox.cif.g08.bks.cpg/sg139_5_cif.got.tgz:8195.got - 2010.05.20 13:14:44.
