data_PCOD9571429
_publ_section_title
;
Structure prediction by ZEFSAII (Michael W. Deem and Ramdas Pophale) SiO2 
 PCOD9571429
Probable space group: I 4/M M M
;
_chemical_formula_sum "Si O2"
_cell_formula_units_Z 208
_cell_length_a 26.083362
_cell_length_b 26.083362
_cell_length_c 18.816921
_cell_angle_alpha 90.000000
_cell_angle_beta 90.000000
_cell_angle_gamma 90.000000
_cell_volume 12801.937400
_symmetry_space_group_name_H-M "I 4/M M M"
_symmetry_group_IT_number 139
_symmetry_cell_setting 'tetragonal'
loop_
_space_group_symop_operation_xyz
x,y,z
-y,x,z
-x,-y,z
y,-x,z
x,-y,-z
-x,y,-z
y,x,-z
-y,-x,-z
-x,-y,-z
y,-x,-z
x,y,-z
-y,x,-z
-x,y,z
x,-y,z
-y,-x,z
y,x,z
1/2+x,1/2+y,1/2+z
1/2-y,1/2+x,1/2+z
1/2-x,1/2-y,1/2+z
1/2+y,1/2-x,1/2+z
1/2+x,1/2-y,1/2-z
1/2-x,1/2+y,1/2-z
1/2+y,1/2+x,1/2-z
1/2-y,1/2-x,1/2-z
1/2-x,1/2-y,1/2-z
1/2+y,1/2-x,1/2-z
1/2+x,1/2+y,1/2-z
1/2-y,1/2+x,1/2-z
1/2-x,1/2+y,1/2+z
1/2+x,1/2-y,1/2+z
1/2-y,1/2-x,1/2+z
1/2+y,1/2+x,1/2+z
loop_
_atom_site_type_symbol
_atom_site_label
_atom_site_fract_x
_atom_site_fract_y
_atom_site_fract_z
Si Si1 0.355731 0.559850 0.500000
Si Si2 0.809685 0.108382 0.139207
Si Si3 0.825009 0.743362 0.305110
Si Si4 0.057975 0.257338 0.254012
Si Si5 0.644929 0.095774 0.180808
Si Si6 0.830772 0.711589 0.915030
Si Si7 0.942417 0.561247 0.420907
O O1 0.364549 0.500000 0.500000
O O2 0.408078 0.591923 0.500000
O O3 0.324388 0.577514 0.568904
O O4 0.858869 0.141132 0.162540
O O5 0.787648 0.070274 0.198003
O O6 0.765370 0.149040 0.117127
O O7 0.798679 0.798679 0.291422
O O8 0.795858 0.704143 0.250000
O O9 0.887036 0.741882 0.297307
O O10 0.806241 0.722791 0.381314
O O11 0.059051 0.310619 0.210041
O O12 0.000000 0.251770 0.285239
O O13 0.626197 0.126197 0.250000
O O14 0.670969 0.130277 0.119910
O O15 0.595775 0.073056 0.142291
O O16 0.831059 0.713479 0.000000
O O17 0.925780 0.579417 0.500000
O O18 0.945441 0.500000 0.425115
O O19 0.000000 0.581277 0.407898
#
# Coordination Sequence:
#
# PCOD9571429 Si02
#       7
#    16  32  32  32  32  32  32
#     4  10  20  33  48  72 106 142 181 217 257 313
#     4  10  19  32  52  77 103 134 169 214 264 312
#     4  11  20  36  57  78 106 139 175 217 266 318
#     4  11  21  34  51  75 104 135 168 211 260 311
#     4  11  20  35  49  73 100 133 171 216 268 312
#     4  11  20  33  53  80 107 132 171 216 268 329
#     4   9  19  35  51  67  90 126 175 226 273 316
#
# _framework density 16.247540999999998
#
# number of rings (size 3 to 8) (size 9 to 14) (size 15 to 20)
#    0.000    1.538    5.385    2.769    0.000    2.231 
#    0.000    0.769    0.000    0.462    0.000    0.000 
#    0.000    2.769    0.000    0.000    0.000    0.000 
#
# Total GULP energy -579157.048243 kJ/mol
# GULP energy per Si atom -5568.817772 kJ/mol
# Density = 1.621056 g / cm^3
# Si number density = 16.247541 Si / 1000 Ang^3
#
#
#
# Elastic Constant Matrix: (Units=GPa)
#
#
# Indices 1 2 3 4 5 6 
#
# 1 57.9191 40.3764 10.8717 0.0000 0.0000 0.0000
# 2 40.3764 57.8878 10.8670 0.0000 0.0000 0.0000
# 3 10.8717 10.8670 31.8818 0.0000 0.0000 0.0000
# 4 0.0000 0.0000 0.0000 12.2534 0.0000 0.0000
# 5 0.0000 0.0000 0.0000 0.0000 12.2526 0.0000
# 6 0.0000 0.0000 0.0000 0.0000 0.0000 13.5129
#
#
#
# Elastic Compliance Matrix: (Units=1/GPa)
#
#
# Indices 1 2 3 4 5 6 
#
# 1 0.034021 -0.023025 -0.003753 0.000000 0.000000 0.000000
# 2 -0.023025 0.034039 -0.003751 0.000000 0.000000 0.000000
# 3 -0.003753 -0.003751 0.033924 0.000000 0.000000 0.000000
# 4 0.000000 0.000000 0.000000 0.081610 0.000000 0.000000
# 5 0.000000 0.000000 0.000000 0.000000 0.081615 0.000000
# 6 0.000000 0.000000 0.000000 0.000000 0.000000 0.074003
#
#
# Mechanical properties :
#
#
# Convention : Reuss Voigt Hill
#
# Bulk Modulus (GPa) = 24.43412 30.21324 27.32368
# Shear Modulus (GPa) = 12.07985 13.30866 12.69426
#
# Velocity S-wave (km/s) = 2.72966 2.86513 2.79821
# Velocity P-wave (km/s) = 5.00060 5.43886 5.22433
#
# Compressibility (1/GPa) = 0.04092637
#
# Stress axis : x y z
#
# Youngs Moduli (GPa) = 29.39354 29.37837 29.47761
#
# Poissons Ratio (x) = 0.67644 0.11063
# Poissons Ratio (y) = 0.67679 0.11056
# Poissons Ratio (z) = 0.11032 0.11019
#
# Static dielectric constant tensor:
#      x y z
#    x 1.581590 0.000000 0.000000 
#    y 0.000000 1.581590 0.000000 
#    z 0.000000 0.000000 1.553570 
# 
# From -- ./inp_files/9006.got.cif
#   From: 2010.05.17/outbox.cif.g08.bks.cpg/sg139_5_cif.got.tgz:9006.got - 2010.05.20 13:14:44.
