data_PCOD9571627
_publ_section_title
;
Structure prediction by ZEFSAII (Michael W. Deem and Ramdas Pophale) SiO2 
 PCOD9571627
Probable space group: I 4/M M M
;
_chemical_formula_sum "Si O2"
_cell_formula_units_Z 80
_cell_length_a 24.944526
_cell_length_b 24.944526
_cell_length_c 7.741853
_cell_angle_alpha 90.000000
_cell_angle_beta 90.000000
_cell_angle_gamma 90.000000
_cell_volume 4817.208372
_symmetry_space_group_name_H-M "I 4/M M M"
_symmetry_group_IT_number 139
_symmetry_cell_setting 'tetragonal'
loop_
_space_group_symop_operation_xyz
x,y,z
-y,x,z
-x,-y,z
y,-x,z
x,-y,-z
-x,y,-z
y,x,-z
-y,-x,-z
-x,-y,-z
y,-x,-z
x,y,-z
-y,x,-z
-x,y,z
x,-y,z
-y,-x,z
y,x,z
1/2+x,1/2+y,1/2+z
1/2-y,1/2+x,1/2+z
1/2-x,1/2-y,1/2+z
1/2+y,1/2-x,1/2+z
1/2+x,1/2-y,1/2-z
1/2-x,1/2+y,1/2-z
1/2+y,1/2+x,1/2-z
1/2-y,1/2-x,1/2-z
1/2-x,1/2-y,1/2-z
1/2+y,1/2-x,1/2-z
1/2+x,1/2+y,1/2-z
1/2-y,1/2+x,1/2-z
1/2-x,1/2+y,1/2+z
1/2+x,1/2-y,1/2+z
1/2-y,1/2-x,1/2+z
1/2+y,1/2+x,1/2+z
loop_
_atom_site_type_symbol
_atom_site_label
_atom_site_fract_x
_atom_site_fract_y
_atom_site_fract_z
Si Si1 0.767180 0.065106 0.697839
Si Si2 0.939288 0.351478 0.292684
Si Si3 0.064493 0.848360 0.000000
O O1 0.775767 0.083557 0.500000
O O2 0.707608 0.080370 0.762808
O O3 0.765742 0.000000 0.692862
O O4 0.813256 0.079814 0.831820
O O5 0.942675 0.347867 0.500000
O O6 0.898645 0.398645 0.250000
O O7 0.000000 0.361046 0.226941
O O8 0.096345 0.903656 0.000000
O O9 0.000000 0.855424 0.000000
#
# Coordination Sequence:
#
# PCOD9571627 Si02
#       3
#    32  32  16
#     4   8  16  32  50  70  96 128 170 205 231 279
#     4   9  18  30  45  69  97 129 169 210 251 290
#     4  10  20  33  54  80 101 127 157 191 243 299
#
# _framework density 16.607129
#
# number of rings (size 3 to 8) (size 9 to 14) (size 15 to 20)
#    0.000    3.200    0.000    2.400    2.800    2.200 
#    0.000    2.000    0.000    1.200    0.000    5.600 
#    0.000    0.000    0.000    0.000    0.000    0.000 
#
# Total GULP energy -222688.039710 kJ/mol
# GULP energy per Si atom -5567.200993 kJ/mol
# Density = 1.656933 g / cm^3
# Si number density = 16.607129 Si / 1000 Ang^3
#
#
#
# Elastic Constant Matrix: (Units=GPa)
#
#
# Indices 1 2 3 4 5 6 
#
# 1 79.0933 54.0810 33.7062 0.0000 0.0000 0.0000
# 2 54.0810 79.0807 33.7042 0.0000 0.0000 0.0000
# 3 33.7062 33.7042 64.8016 0.0000 0.0000 0.0000
# 4 0.0000 0.0000 0.0000 7.2844 0.0000 0.0000
# 5 0.0000 0.0000 0.0000 0.0000 7.2445 0.0000
# 6 0.0000 0.0000 0.0000 0.0000 0.0000 -5.0186
#
#
#
# Elastic Compliance Matrix: (Units=1/GPa)
#
#
# Indices 1 2 3 4 5 6 
#
# 1 0.025090 -0.014899 -0.005301 0.000000 0.000000 0.000000
# 2 -0.014899 0.025094 -0.005302 0.000000 0.000000 0.000000
# 3 -0.005301 -0.005302 0.020947 0.000000 0.000000 0.000000
# 4 0.000000 0.000000 0.000000 0.137279 0.000000 0.000000
# 5 0.000000 0.000000 0.000000 0.000000 0.138036 0.000000
# 6 0.000000 0.000000 0.000000 0.000000 0.000000 -0.199260
#
#
# Mechanical properties :
#
#
# Convention : Reuss Voigt Hill
#
# Bulk Modulus (GPa) = 49.68659 51.77317 50.72988
# Shear Modulus (GPa) = 24.40236 8.66768 16.53502
#
# Velocity S-wave (km/s) = 3.83742 2.28705 3.15883
# Velocity P-wave (km/s) = 7.04402 6.18199 6.62704
#
# Compressibility (1/GPa) = 0.02012616
#
# Stress axis : x y z
#
# Youngs Moduli (GPa) = 39.85718 39.85033 47.73985
#
# Poissons Ratio (x) = 0.59372 0.25308
# Poissons Ratio (y) = 0.59382 0.25313
# Poissons Ratio (z) = 0.21129 0.21130
#
# Static dielectric constant tensor:
#      x y z
#    x 1.557270 0.000000 0.000000 
#    y 0.000000 1.557270 0.000000 
#    z 0.000000 0.000000 1.604630 
# 
# From -- ./inp_files/944.got.cif
#   From: 2010.05.17/outbox.cif.g08.bks.cpg/sg139_1_cif.got.tgz:944.got - 2010.05.20 13:14:44.
