data_PCOD9571043
_publ_section_title
;
Structure prediction by ZEFSAII (Michael W. Deem and Ramdas Pophale) SiO2 
 PCOD9571043
Probable space group: P 42/N C M
;
_chemical_formula_sum "Si O2"
_cell_formula_units_Z 64
_cell_length_a 17.595974
_cell_length_b 17.595974
_cell_length_c 10.159834
_cell_angle_alpha 90.000000
_cell_angle_beta 90.000000
_cell_angle_gamma 90.000000
_cell_volume 3145.670542
_symmetry_space_group_name_H-M "P 42/N C M"
_symmetry_group_IT_number 138
_space_group.IT_coordinate_system_code '2'
_symmetry_cell_setting 'tetragonal'
loop_
_space_group_symop_operation_xyz
x,y,z
1/2-y,x,1/2+z
1/2-x,1/2-y,z
y,1/2-x,1/2+z
1/2+x,-y,1/2-z
-x,1/2+y,1/2-z
1/2+y,1/2+x,-z
-y,-x,-z
-x,-y,-z
1/2+y,-x,1/2-z
1/2+x,1/2+y,-z
-y,1/2+x,1/2-z
1/2-x,y,1/2+z
x,1/2-y,1/2+z
1/2-y,1/2-x,z
y,x,z
loop_
_atom_site_type_symbol
_atom_site_label
_atom_site_fract_x
_atom_site_fract_y
_atom_site_fract_z
Si Si1 0.797238 0.989880 0.917856
Si Si2 0.890825 0.392389 0.708107
Si Si3 0.875777 0.230338 0.431164
Si Si4 0.322187 0.056616 0.289427
O O1 0.874486 0.034177 0.878005
O O2 0.754486 0.950216 0.796835
O O3 0.742623 0.059394 0.960910
O O4 0.806812 0.943720 0.053124
O O5 0.811643 0.366263 0.638697
O O6 0.900531 0.335000 0.829518
O O7 0.873547 0.480591 0.734039
O O8 0.803150 0.196851 0.500000
O O9 0.370378 0.129623 0.251245
#
# Coordination Sequence:
#
# PCOD9571043 Si02
#       4
#    16  16  16  16
#     4  11  22  40  61  89 128 167 213 257 305 370
#     4  11  21  34  58  92 128 170 213 250 294 372
#     4  11  19  32  52  87 129 174 204 243 293 368
#     4  11  24  43  67  93 126 165 206 259 320 379
#
# _framework density 20.345423
#
# number of rings (size 3 to 8) (size 9 to 14) (size 15 to 20)
#    0.000    1.000    7.500    3.000    0.000    8.500 
#    0.000    3.750    0.000    2.250    0.000    0.000 
#    0.000    0.000    0.000    0.000    0.000    0.000 
#
# Total GULP energy -357171.045217 kJ/mol
# GULP energy per Si atom -5580.797582 kJ/mol
# Density = 2.029912 g / cm^3
# Si number density = 20.345423 Si / 1000 Ang^3
#
#
#
# Elastic Constant Matrix: (Units=GPa)
#
#
# Indices 1 2 3 4 5 6 
#
# 1 39.3328 24.9529 6.1727 0.0000 0.0000 0.0000
# 2 24.9529 39.3323 6.1718 0.0000 0.0000 0.0000
# 3 6.1727 6.1718 66.1527 0.0000 0.0000 0.0000
# 4 0.0000 0.0000 0.0000 10.2228 0.0000 0.0000
# 5 0.0000 0.0000 0.0000 0.0000 10.2242 0.0000
# 6 0.0000 0.0000 0.0000 0.0000 0.0000 34.9154
#
#
#
# Elastic Compliance Matrix: (Units=1/GPa)
#
#
# Indices 1 2 3 4 5 6 
#
# 1 0.042691 -0.026852 -0.001478 0.000000 0.000000 0.000000
# 2 -0.026852 0.042691 -0.001477 0.000000 0.000000 0.000000
# 3 -0.001478 -0.001477 0.015392 0.000000 0.000000 0.000000
# 4 0.000000 0.000000 0.000000 0.097820 0.000000 0.000000
# 5 0.000000 0.000000 0.000000 0.000000 0.097808 0.000000
# 6 0.000000 0.000000 0.000000 0.000000 0.000000 0.028641
#
#
# Mechanical properties :
#
#
# Convention : Reuss Voigt Hill
#
# Bulk Modulus (GPa) = 24.29562 24.37917 24.33739
# Shear Modulus (GPa) = 12.55092 18.24052 15.39572
#
# Velocity S-wave (km/s) = 2.48642 2.99748 2.75383
# Velocity P-wave (km/s) = 4.49562 4.89780 4.70101
#
# Compressibility (1/GPa) = 0.04115969
#
# Stress axis : x y z
#
# Youngs Moduli (GPa) = 23.42420 23.42401 64.96751
#
# Poissons Ratio (x) = 0.62897 0.09604
# Poissons Ratio (y) = 0.62898 0.09598
# Poissons Ratio (z) = 0.03463 0.03461
#
# Static dielectric constant tensor:
#      x y z
#    x 1.717440 0.000000 0.000000 
#    y 0.000000 1.717440 0.000000 
#    z 0.000000 0.000000 1.817900 
# 
# From -- ./inp_files/2680.got.cif
#   From: 2010.05.17/outbox.cif.g08.bks.cpg/sg138_2_cif.got.tgz:2680.got - 2010.05.20 13:08:53.
