data_PCOD9571888
_publ_section_title
;
Structure prediction by ZEFSAII (Michael W. Deem and Ramdas Pophale) SiO2 
 PCOD9571888
Probable space group: I 4/M M M
;
_chemical_formula_sum "Si O2"
_cell_formula_units_Z 128
_cell_length_a 20.763927
_cell_length_b 20.763927
_cell_length_c 14.810505
_cell_angle_alpha 90.000000
_cell_angle_beta 90.000000
_cell_angle_gamma 90.000000
_cell_volume 6385.410967
_symmetry_space_group_name_H-M "I 4/M M M"
_symmetry_group_IT_number 139
_symmetry_cell_setting 'tetragonal'
loop_
_space_group_symop_operation_xyz
x,y,z
-y,x,z
-x,-y,z
y,-x,z
x,-y,-z
-x,y,-z
y,x,-z
-y,-x,-z
-x,-y,-z
y,-x,-z
x,y,-z
-y,x,-z
-x,y,z
x,-y,z
-y,-x,z
y,x,z
1/2+x,1/2+y,1/2+z
1/2-y,1/2+x,1/2+z
1/2-x,1/2-y,1/2+z
1/2+y,1/2-x,1/2+z
1/2+x,1/2-y,1/2-z
1/2-x,1/2+y,1/2-z
1/2+y,1/2+x,1/2-z
1/2-y,1/2-x,1/2-z
1/2-x,1/2-y,1/2-z
1/2+y,1/2-x,1/2-z
1/2+x,1/2+y,1/2-z
1/2-y,1/2+x,1/2-z
1/2-x,1/2+y,1/2+z
1/2+x,1/2-y,1/2+z
1/2-y,1/2-x,1/2+z
1/2+y,1/2+x,1/2+z
loop_
_atom_site_type_symbol
_atom_site_label
_atom_site_fract_x
_atom_site_fract_y
_atom_site_fract_z
Si Si1 0.628536 0.861936 0.399601
Si Si2 0.000000 0.109271 0.896041
Si Si3 0.000000 0.803059 0.283571
Si Si4 0.667165 0.000000 0.201306
Si Si5 0.500000 0.076038 0.861531
Si Si6 0.272466 0.378792 0.105866
O O1 0.634452 0.834522 0.500000
O O2 0.567105 0.829736 0.352250
O O3 0.700220 0.863376 0.358354
O O4 0.606757 0.936160 0.402218
O O5 0.937792 0.062209 0.888603
O O6 0.000000 0.158811 0.811799
O O7 0.000000 0.135946 0.000000
O O8 0.934890 0.810567 0.341375
O O9 0.000000 0.726866 0.266759
O O10 0.601095 0.000000 0.257939
O O11 0.500000 0.000000 0.877082
O O12 0.314797 0.314797 0.109849
O O13 0.265008 0.398172 0.000000
#
# Coordination Sequence:
#
# PCOD9571888 Si02
#       6
#    32  16  16  16  16  32
#     4  11  23  38  56  83 118 161 207 252 305 369
#     4   9  20  41  66  90 118 154 198 250 312 381
#     4  12  22  37  64  93 127 152 206 256 319 368
#     4  12  25  36  56  87 121 157 200 262 300 365
#     4  12  23  34  58  83 119 153 201 251 313 360
#     4  10  22  41  64  91 126 168 209 255 317 387
#
# _framework density 20.045694999999998
#
# number of rings (size 3 to 8) (size 9 to 14) (size 15 to 20)
#    0.000    1.125    3.750    3.000    1.750    3.500 
#    0.000    3.750    0.000    3.000    0.000    5.250 
#    0.000    0.000    0.000    0.000    0.000    0.000 
#
# Total GULP energy -357028.036274 kJ/mol
# GULP energy per Si atom -5578.563067 kJ/mol
# Density = 2.000007 g / cm^3
# Si number density = 20.045695 Si / 1000 Ang^3
#
#
#
# Elastic Constant Matrix: (Units=GPa)
#
#
# Indices 1 2 3 4 5 6 
#
# 1 88.8500 24.3598 24.8499 0.0000 0.0000 0.0000
# 2 24.3598 88.8500 24.8499 0.0000 0.0000 0.0000
# 3 24.8499 24.8499 87.0668 0.0000 0.0000 0.0000
# 4 0.0000 0.0000 0.0000 44.8541 0.0000 0.0000
# 5 0.0000 0.0000 0.0000 0.0000 44.8541 0.0000
# 6 0.0000 0.0000 0.0000 0.0000 0.0000 22.1745
#
#
#
# Elastic Compliance Matrix: (Units=1/GPa)
#
#
# Indices 1 2 3 4 5 6 
#
# 1 0.012802 -0.002704 -0.002882 0.000000 0.000000 0.000000
# 2 -0.002704 0.012802 -0.002882 0.000000 0.000000 0.000000
# 3 -0.002882 -0.002882 0.013131 0.000000 0.000000 0.000000
# 4 0.000000 0.000000 0.000000 0.022295 0.000000 0.000000
# 5 0.000000 0.000000 0.000000 0.000000 0.022295 0.000000
# 6 0.000000 0.000000 0.000000 0.000000 0.000000 0.045097
#
#
# Mechanical properties :
#
#
# Convention : Reuss Voigt Hill
#
# Bulk Modulus (GPa) = 45.87426 45.87624 45.87525
# Shear Modulus (GPa) = 32.76021 35.09035 33.92528
#
# Velocity S-wave (km/s) = 4.04700 4.18846 4.11834
# Velocity P-wave (km/s) = 6.69120 6.80635 6.74902
#
# Compressibility (1/GPa) = 0.02179872
#
# Stress axis : x y z
#
# Youngs Moduli (GPa) = 78.11064 78.11064 76.15757
#
# Poissons Ratio (x) = 0.21120 0.21950
# Poissons Ratio (y) = 0.21120 0.21950
# Poissons Ratio (z) = 0.22513 0.22513
#
# Static dielectric constant tensor:
#      x y z
#    x 1.704680 0.000000 0.000000 
#    y 0.000000 1.704680 0.000000 
#    z 0.000000 0.000000 1.788060 
# 
# From -- ./inp_files/5503.got.cif
#   From: 2010.05.17/outbox.cif.g08.bks.cpg/sg139_3_cif.got.tgz:5503.got - 2010.05.20 13:14:44.
