data_PCOD9571461
_publ_section_title
;
Structure prediction by ZEFSAII (Michael W. Deem and Ramdas Pophale) SiO2 
 PCOD9571461
Probable space group: I 4/M M M
;
_chemical_formula_sum "Si O2"
_cell_formula_units_Z 160
_cell_length_a 23.163334
_cell_length_b 23.163334
_cell_length_c 16.488372
_cell_angle_alpha 90.000000
_cell_angle_beta 90.000000
_cell_angle_gamma 90.000000
_cell_volume 8846.671805
_symmetry_space_group_name_H-M "I 4/M M M"
_symmetry_group_IT_number 139
_symmetry_cell_setting 'tetragonal'
loop_
_space_group_symop_operation_xyz
x,y,z
-y,x,z
-x,-y,z
y,-x,z
x,-y,-z
-x,y,-z
y,x,-z
-y,-x,-z
-x,-y,-z
y,-x,-z
x,y,-z
-y,x,-z
-x,y,z
x,-y,z
-y,-x,z
y,x,z
1/2+x,1/2+y,1/2+z
1/2-y,1/2+x,1/2+z
1/2-x,1/2-y,1/2+z
1/2+y,1/2-x,1/2+z
1/2+x,1/2-y,1/2-z
1/2-x,1/2+y,1/2-z
1/2+y,1/2+x,1/2-z
1/2-y,1/2-x,1/2-z
1/2-x,1/2-y,1/2-z
1/2+y,1/2-x,1/2-z
1/2+x,1/2+y,1/2-z
1/2-y,1/2+x,1/2-z
1/2-x,1/2+y,1/2+z
1/2+x,1/2-y,1/2+z
1/2-y,1/2-x,1/2+z
1/2+y,1/2+x,1/2+z
loop_
_atom_site_type_symbol
_atom_site_label
_atom_site_fract_x
_atom_site_fract_y
_atom_site_fract_z
Si Si1 0.726188 0.726188 0.902970
Si Si2 0.431429 0.431429 0.095142
Si Si3 0.331395 0.063448 0.631484
Si Si4 0.938897 0.561104 0.750000
Si Si5 0.754862 0.932084 0.777283
Si Si6 0.856411 0.308918 0.090314
Si Si7 0.146527 0.853474 0.287176
O O1 0.793536 0.715332 0.886985
O O2 0.686770 0.686770 0.845068
O O3 0.715278 0.715278 0.000000
O O4 0.500000 0.421023 0.107918
O O5 0.392939 0.392939 0.154195
O O6 0.419076 0.419076 0.000000
O O7 0.385487 0.061226 0.691774
O O8 0.275909 0.070546 0.689141
O O9 0.344475 0.122459 0.586007
O O10 0.327355 0.000000 0.591518
O O11 0.937022 0.500000 0.703727
O O12 0.712301 0.902241 0.842971
O O13 0.812568 0.894380 0.767245
O O14 0.763990 0.000000 0.795806
O O15 0.872822 0.288626 0.000000
#
# Coordination Sequence:
#
# PCOD9571461 Si02
#       7
#    16  16  32  16  32  32  16
#     4  10  22  36  54  85 116 148 190 226 277 346
#     4   9  19  37  60  88 123 159 192 229 282 343
#     4  10  19  33  53  79 110 142 188 239 281 334
#     4   9  16  28  50  73  98 136 180 229 276 320
#     4  11  23  37  57  86 111 145 196 242 288 340
#     4  11  22  38  56  77 113 153 189 236 292 345
#     4  12  21  36  62  82 118 154 192 239 282 335
#
# _framework density 18.085898
#
# number of rings (size 3 to 8) (size 9 to 14) (size 15 to 20)
#    0.000    1.600    4.000    1.800    0.000    1.600 
#    0.000    0.000    0.000    0.000    0.000    4.200 
#    0.000    0.000    0.000    9.600    0.000    0.000 
#
# Total GULP energy -445820.895548 kJ/mol
# GULP energy per Si atom -5572.761194 kJ/mol
# Density = 1.804473 g / cm^3
# Si number density = 18.085898 Si / 1000 Ang^3
#
#
#
# Elastic Constant Matrix: (Units=GPa)
#
#
# Indices 1 2 3 4 5 6 
#
# 1 97.9174 60.8715 36.3001 0.0000 0.0000 0.0000
# 2 60.8715 97.9175 36.3001 0.0000 0.0000 0.0000
# 3 36.3001 36.3001 64.8192 0.0000 0.0000 0.0000
# 4 0.0000 0.0000 0.0000 1.6986 0.0000 0.0000
# 5 0.0000 0.0000 0.0000 0.0000 1.6970 0.0000
# 6 0.0000 0.0000 0.0000 0.0000 0.0000 25.5748
#
#
#
# Elastic Compliance Matrix: (Units=1/GPa)
#
#
# Indices 1 2 3 4 5 6 
#
# 1 0.017729 -0.009264 -0.004741 0.000000 0.000000 0.000000
# 2 -0.009264 0.017729 -0.004741 0.000000 0.000000 0.000000
# 3 -0.004741 -0.004741 0.020737 0.000000 0.000000 0.000000
# 4 0.000000 0.000000 0.000000 0.588714 0.000000 0.000000
# 5 0.000000 0.000000 0.000000 0.000000 0.589261 0.000000
# 6 0.000000 0.000000 0.000000 0.000000 0.000000 0.039101
#
#
# Mechanical properties :
#
#
# Convention : Reuss Voigt Hill
#
# Bulk Modulus (GPa) = 53.46185 58.62195 56.04190
# Shear Modulus (GPa) = 3.79651 14.27291 9.03471
#
# Velocity S-wave (km/s) = 1.45042 2.81227 2.23747
# Velocity P-wave (km/s) = 5.69465 6.55962 6.14238
#
# Compressibility (1/GPa) = 0.01870493
#
# Stress axis : x y z
#
# Youngs Moduli (GPa) = 56.40371 56.40384 48.22233
#
# Poissons Ratio (x) = 0.52253 0.22861
# Poissons Ratio (y) = 0.52253 0.22860
# Poissons Ratio (z) = 0.26739 0.26739
#
# Static dielectric constant tensor:
#      x y z
#    x 1.650780 0.000000 0.000000 
#    y 0.000000 1.650780 0.000000 
#    z 0.000000 0.000000 1.598640 
# 
# From -- ./inp_files/6021.got.cif
#   From: 2010.05.17/outbox.cif.g08.bks.cpg/sg139_4_cif.got.tgz:6021.got - 2010.05.20 13:14:44.
