data_PCOD9571974
_publ_section_title
;
Structure prediction by ZEFSAII (Michael W. Deem and Ramdas Pophale) SiO2 
 PCOD9571974
Probable space group: I 4/M M M
;
_chemical_formula_sum "Si O2"
_cell_formula_units_Z 96
_cell_length_a 27.000000
_cell_length_b 27.000000
_cell_length_c 15.000000
_cell_angle_alpha 90.000000
_cell_angle_beta 90.000000
_cell_angle_gamma 90.000000
_cell_volume 10935.000000
_symmetry_space_group_name_H-M "I 4/M M M"
_symmetry_group_IT_number 139
_symmetry_cell_setting 'tetragonal'
loop_
_space_group_symop_operation_xyz
x,y,z
-y,x,z
-x,-y,z
y,-x,z
x,-y,-z
-x,y,-z
y,x,-z
-y,-x,-z
-x,-y,-z
y,-x,-z
x,y,-z
-y,x,-z
-x,y,z
x,-y,z
-y,-x,z
y,x,z
1/2+x,1/2+y,1/2+z
1/2-y,1/2+x,1/2+z
1/2-x,1/2-y,1/2+z
1/2+y,1/2-x,1/2+z
1/2+x,1/2-y,1/2-z
1/2-x,1/2+y,1/2-z
1/2+y,1/2+x,1/2-z
1/2-y,1/2-x,1/2-z
1/2-x,1/2-y,1/2-z
1/2+y,1/2-x,1/2-z
1/2+x,1/2+y,1/2-z
1/2-y,1/2+x,1/2-z
1/2-x,1/2+y,1/2+z
1/2+x,1/2-y,1/2+z
1/2-y,1/2-x,1/2+z
1/2+y,1/2+x,1/2+z
loop_
_atom_site_type_symbol
_atom_site_label
_atom_site_fract_x
_atom_site_fract_y
_atom_site_fract_z
Si Si1 0.819983 0.559687 0.000000
Si Si2 0.299021 0.440412 0.000000
Si Si3 0.227552 0.153200 0.105331
Si Si4 0.256776 0.445460 0.704999
Si Si5 0.188040 0.264404 0.393439
Si Si6 0.856917 0.059139 0.322644
Si Si7 0.825717 0.603987 0.810819
O O1 0.841701 0.583913 0.908901
O O2 0.826345 0.500000 0.000000
O O3 0.760014 0.569855 0.000000
O O4 0.329769 0.424101 0.086010
O O5 0.300846 0.500000 0.000000
O O6 0.177264 0.177264 0.143909
O O7 0.243610 0.100787 0.140353
O O8 0.270420 0.193477 0.119936
O O9 0.221153 0.149172 0.000000
O O10 0.255757 0.500000 0.664007
O O11 0.309566 0.440875 0.756155
O O12 0.206707 0.438786 0.763681
O O13 0.177977 0.263107 0.500000
O O14 0.212340 0.212340 0.367879
O O15 0.143468 0.282545 0.334076
O O16 0.902939 0.097062 0.303973
O O17 0.872388 0.000000 0.329256
O O18 0.867609 0.632392 0.750000
#
# Coordination Sequence:
#
# PCOD9571974 Si02
#       7
#    16  16  32  32  32  32  32
#     4  11  22  41  61  82 122 167 193 230 288 338
#     4   9  17  33  52  71 101 143 190 231 274 333
#     4   9  18  34  54  74 103 144 182 224 286 350
#     4  11  22  35  51  76 108 144 191 237 283 345
#     4   9  18  32  49  75 111 148 186 228 283 344
#     4  10  20  33  50  73 102 141 193 248 296 342
#     4  12  22  35  56  83 113 154 196 243 281 339
#
# _framework density 8.7791499999999996
#
# number of rings (size 3 to 8) (size 9 to 14) (size 15 to 20)
#    0.000    1.833    4.167    2.250    0.000    2.167 
#    0.000    0.000    0.000    1.500    0.000    0.000 
#    0.000    8.000    0.000   15.500    0.000    0.000 
#
# Total GULP energy -534863.093777 kJ/mol
# GULP energy per Si atom -5571.490560 kJ/mol
# Density = 0.875917 g / cm^3
# Si number density = 8.779150 Si / 1000 Ang^3
#
#
#
# Elastic Constant Matrix: (Units=GPa)
#
#
# Indices 1 2 3 4 5 6 
#
# 1 75.3781 10.5773 20.6043 0.0000 0.0000 0.0000
# 2 10.5773 75.3780 20.6036 0.0000 0.0000 0.0000
# 3 20.6043 20.6036 32.2548 0.0000 0.0000 0.0000
# 4 0.0000 0.0000 0.0000 19.7238 0.0000 0.0000
# 5 0.0000 0.0000 0.0000 0.0000 19.7238 0.0000
# 6 0.0000 0.0000 0.0000 0.0000 0.0000 21.8365
#
#
#
# Elastic Compliance Matrix: (Units=1/GPa)
#
#
# Indices 1 2 3 4 5 6 
#
# 1 0.016101 0.000669 -0.010712 0.000000 0.000000 0.000000
# 2 0.000669 0.016101 -0.010712 0.000000 0.000000 0.000000
# 3 -0.010712 -0.010712 0.044689 0.000000 0.000000 0.000000
# 4 0.000000 0.000000 0.000000 0.050700 0.000000 0.000000
# 5 0.000000 0.000000 0.000000 0.000000 0.050700 0.000000
# 6 0.000000 0.000000 0.000000 0.000000 0.000000 0.045795
#
#
# Mechanical properties :
#
#
# Convention : Reuss Voigt Hill
#
# Bulk Modulus (GPa) = 28.26524 31.84235 30.05379
# Shear Modulus (GPa) = 18.02520 21.00519 19.51520
#
# Velocity S-wave (km/s) = 3.20752 3.46253 3.33746
# Velocity P-wave (km/s) = 5.46356 5.84466 5.65732
#
# Compressibility (1/GPa) = 0.03537914
#
# Stress axis : x y z
#
# Youngs Moduli (GPa) = 62.10874 62.10955 22.37702
#
# Poissons Ratio (x) = -0.04154 0.23971
# Poissons Ratio (y) = -0.04154 0.23970
# Poissons Ratio (z) = 0.66533 0.66531
#
# Static dielectric constant tensor:
#      x y z
#    x 1.606610 0.000000 0.000000 
#    y 0.000000 1.606610 0.000000 
#    z 0.000000 0.000000 1.661720 
# 
# From -- ./inp_files/6530.got.cif
#   From: 2010.05.17/outbox.ucp.g08.bks.cvg/sg139_4_cif.got.tgz:6530.got - 2010.06.11 11:42:03.
