data_PCOD9571640
_publ_section_title
;
Structure prediction by ZEFSAII (Michael W. Deem and Ramdas Pophale) SiO2 
 PCOD9571640
Probable space group: I 4/M M M
;
_chemical_formula_sum "Si O2"
_cell_formula_units_Z 192
_cell_length_a 22.305337
_cell_length_b 22.305337
_cell_length_c 22.993498
_cell_angle_alpha 90.000000
_cell_angle_beta 90.000000
_cell_angle_gamma 90.000000
_cell_volume 11439.910422
_symmetry_space_group_name_H-M "I 4/M M M"
_symmetry_group_IT_number 139
_symmetry_cell_setting 'tetragonal'
loop_
_space_group_symop_operation_xyz
x,y,z
-y,x,z
-x,-y,z
y,-x,z
x,-y,-z
-x,y,-z
y,x,-z
-y,-x,-z
-x,-y,-z
y,-x,-z
x,y,-z
-y,x,-z
-x,y,z
x,-y,z
-y,-x,z
y,x,z
1/2+x,1/2+y,1/2+z
1/2-y,1/2+x,1/2+z
1/2-x,1/2-y,1/2+z
1/2+y,1/2-x,1/2+z
1/2+x,1/2-y,1/2-z
1/2-x,1/2+y,1/2-z
1/2+y,1/2+x,1/2-z
1/2-y,1/2-x,1/2-z
1/2-x,1/2-y,1/2-z
1/2+y,1/2-x,1/2-z
1/2+x,1/2+y,1/2-z
1/2-y,1/2+x,1/2-z
1/2-x,1/2+y,1/2+z
1/2+x,1/2-y,1/2+z
1/2-y,1/2-x,1/2+z
1/2+y,1/2+x,1/2+z
loop_
_atom_site_type_symbol
_atom_site_label
_atom_site_fract_x
_atom_site_fract_y
_atom_site_fract_z
Si Si1 0.188383 0.431093 0.123715
Si Si2 0.429256 0.331511 0.566070
Si Si3 0.330224 0.071229 0.242711
Si Si4 0.678243 0.774807 0.065382
Si Si5 0.745379 0.646811 0.344263
Si Si6 0.565738 0.927363 0.432621
O O1 0.192779 0.500000 0.106106
O O2 0.197159 0.426693 0.192274
O O3 0.230592 0.389331 0.086297
O O4 0.120724 0.409782 0.107456
O O5 0.418012 0.308311 0.500000
O O6 0.500000 0.337272 0.573876
O O7 0.394789 0.394789 0.569719
O O8 0.399890 0.289681 0.614624
O O9 0.394018 0.105982 0.250000
O O10 0.286547 0.110417 0.201319
O O11 0.336086 0.000000 0.227013
O O12 0.712265 0.712265 0.065267
O O13 0.712133 0.815706 0.112389
O O14 0.682258 0.800033 0.000000
O O15 0.695303 0.695303 0.321041
O O16 0.575816 0.910220 0.500000
O O17 0.500000 0.904892 0.414541
O O18 0.563295 0.000000 0.431496
#
# Coordination Sequence:
#
# PCOD9571640 Si02
#       6
#    32  32  32  32  32  32
#     4  10  20  34  51  72 100 133 169 208 254 306
#     4   9  17  30  50  77 108 140 173 213 263 315
#     4  11  23  38  54  75 102 140 185 224 264 314
#     4  10  20  34  54  79 103 127 163 211 261 314
#     4  10  20  36  56  75 101 136 176 221 265 310
#     4   8  14  26  45  68  93 123 161 201 241 291
#
# _framework density 16.783348
#
# number of rings (size 3 to 8) (size 9 to 14) (size 15 to 20)
#    0.000    2.333    1.667    2.000    0.000    5.000 
#    0.000    2.500    0.000    3.000    0.000    0.000 
#    0.000    0.333    0.000    5.500    0.000    4.000 
#
# Total GULP energy -534942.665579 kJ/mol
# GULP energy per Si atom -5572.319433 kJ/mol
# Density = 1.674515 g / cm^3
# Si number density = 16.783348 Si / 1000 Ang^3
#
#
#
# Elastic Constant Matrix: (Units=GPa)
#
#
# Indices 1 2 3 4 5 6 
#
# 1 93.0049 54.9646 48.9876 0.0000 0.0000 0.0000
# 2 54.9646 93.0049 48.9876 0.0000 0.0000 0.0000
# 3 48.9876 48.9876 81.2919 0.0000 0.0000 0.0000
# 4 0.0000 0.0000 0.0000 25.2769 0.0000 0.0000
# 5 0.0000 0.0000 0.0000 0.0000 25.2769 0.0000
# 6 0.0000 0.0000 0.0000 0.0000 0.0000 21.5533
#
#
#
# Elastic Compliance Matrix: (Units=1/GPa)
#
#
# Indices 1 2 3 4 5 6 
#
# 1 0.018766 -0.007521 -0.006776 0.000000 0.000000 0.000000
# 2 -0.007521 0.018766 -0.006776 0.000000 0.000000 0.000000
# 3 -0.006776 -0.006776 0.020468 0.000000 0.000000 0.000000
# 4 0.000000 0.000000 0.000000 0.039562 0.000000 0.000000
# 5 0.000000 0.000000 0.000000 0.000000 0.039562 0.000000
# 6 0.000000 0.000000 0.000000 0.000000 0.000000 0.046397
#
#
# Mechanical properties :
#
#
# Convention : Reuss Voigt Hill
#
# Bulk Modulus (GPa) = 63.08000 63.68680 63.38340
# Shear Modulus (GPa) = 21.64928 22.04553 21.84740
#
# Velocity S-wave (km/s) = 3.59545 3.62821 3.61187
# Velocity P-wave (km/s) = 7.40964 7.45524 7.43248
#
# Compressibility (1/GPa) = 0.01585289
#
# Stress axis : x y z
#
# Youngs Moduli (GPa) = 53.28649 53.28649 48.85566
#
# Poissons Ratio (x) = 0.40079 0.33107
# Poissons Ratio (y) = 0.40079 0.33107
# Poissons Ratio (z) = 0.36109 0.36109
#
# Static dielectric constant tensor:
#      x y z
#    x 1.580760 0.000000 0.000000 
#    y 0.000000 1.580760 0.000000 
#    z 0.000000 0.000000 1.584700 
# 
# From -- ./inp_files/11968.got.cif
#   From: 2010.05.17/outbox.cif.g08.bks.cpg/sg139_6_cif.got.tgz:11968.got - 2010.05.20 13:14:44.
