data_PCOD9571081
_publ_section_title
;
Structure prediction by ZEFSAII (Michael W. Deem and Ramdas Pophale) SiO2 
 PCOD9571081
Probable space group: P 42/N C M
;
_chemical_formula_sum "Si O2"
_cell_formula_units_Z 92
_cell_length_a 19.798503
_cell_length_b 19.798503
_cell_length_c 14.494233
_cell_angle_alpha 90.000000
_cell_angle_beta 90.000000
_cell_angle_gamma 90.000000
_cell_volume 5681.459902
_symmetry_space_group_name_H-M "P 42/N C M"
_symmetry_group_IT_number 138
_space_group.IT_coordinate_system_code '2'
_symmetry_cell_setting 'tetragonal'
loop_
_space_group_symop_operation_xyz
x,y,z
1/2-y,x,1/2+z
1/2-x,1/2-y,z
y,1/2-x,1/2+z
1/2+x,-y,1/2-z
-x,1/2+y,1/2-z
1/2+y,1/2+x,-z
-y,-x,-z
-x,-y,-z
1/2+y,-x,1/2-z
1/2+x,1/2+y,-z
-y,1/2+x,1/2-z
1/2-x,y,1/2+z
x,1/2-y,1/2+z
1/2-y,1/2-x,z
y,x,z
loop_
_atom_site_type_symbol
_atom_site_label
_atom_site_fract_x
_atom_site_fract_y
_atom_site_fract_z
Si Si1 0.858697 0.641304 0.802835
Si Si2 0.190043 0.487922 0.311482
Si Si3 0.858698 0.641303 0.197138
Si Si4 0.942180 0.057820 0.888648
Si Si5 0.750000 0.750000 0.249987
Si Si6 0.190038 0.012080 0.188539
Si Si7 0.660544 0.660544 0.499988
Si Si8 0.590135 0.798275 0.499989
O O1 0.924257 0.666897 0.750026
O O2 0.800736 0.699265 0.801835
O O3 0.871764 0.628237 0.909252
O O4 0.126263 0.533230 0.339609
O O5 0.250003 0.520151 0.250010
O O6 0.211319 0.454750 0.409017
O O7 0.800737 0.699264 0.198141
O O8 0.833106 0.575742 0.249948
O O9 0.871764 0.628237 0.090722
O O10 0.873741 0.033227 0.839601
O O11 0.933050 0.066950 0.000000
O O12 0.000001 0.000001 0.878106
O O13 0.211319 0.045254 0.091007
O O14 0.645031 0.739569 0.499990
O O15 0.629152 0.870849 0.499991
#
# Coordination Sequence:
#
# PCOD9571081 Si02
#       8
#     8  16   8  16   4  16   8  16
#     4  12  22  31  49  78 120 168 206 232 283 360
#     4  12  23  38  56  85 123 159 203 259 304 354
#     4  12  22  31  49  78 120 168 206 232 283 360
#     4  11  22  38  66  93 118 159 219 266 305 360
#     4  12  20  34  48  80 128 178 204 226 280 380
#     4  12  23  38  56  85 123 159 203 259 304 354
#     4  12  23  28  46  79 122 172 194 223 286 381
#     4  12  21  31  52  81 121 164 206 235 279 355
#
# _framework density 16.193020000000001
#
# number of rings (size 3 to 8) (size 9 to 14) (size 15 to 20)
#    0.000    0.174   10.435    0.261    2.435    0.000 
#    0.000    0.000    0.000    5.739    0.000    1.217 
#    0.000    0.000    0.000    0.000    0.000    0.000 
#
# Total GULP energy -513488.705302 kJ/mol
# GULP energy per Si atom -5581.398971 kJ/mol
# Density = 1.615616 g / cm^3
# Si number density = 16.193020 Si / 1000 Ang^3
#
#
#
# Elastic Constant Matrix: (Units=GPa)
#
#
# Indices 1 2 3 4 5 6 
#
# 1 87.8801 59.1511 51.1003 0.0000 0.0000 0.0000
# 2 59.1511 87.8804 51.1005 0.0000 0.0000 0.0000
# 3 51.1003 51.1005 163.6216 0.0000 0.0000 0.0000
# 4 0.0000 0.0000 0.0000 19.0950 0.0000 0.0000
# 5 0.0000 0.0000 0.0000 0.0000 19.0905 0.0000
# 6 0.0000 0.0000 0.0000 0.0000 0.0000 37.5052
#
#
#
# Elastic Compliance Matrix: (Units=1/GPa)
#
#
# Indices 1 2 3 4 5 6 
#
# 1 0.021747 -0.013060 -0.002713 0.000000 0.000000 0.000000
# 2 -0.013060 0.021747 -0.002713 0.000000 0.000000 0.000000
# 3 -0.002713 -0.002713 0.007806 0.000000 0.000000 0.000000
# 4 0.000000 0.000000 0.000000 0.052370 0.000000 0.000000
# 5 0.000000 0.000000 0.000000 0.000000 0.052382 0.000000
# 6 0.000000 0.000000 0.000000 0.000000 0.000000 0.026663
#
#
# Mechanical properties :
#
#
# Convention : Reuss Voigt Hill
#
# Bulk Modulus (GPa) = 69.79211 73.56510 71.67861
# Shear Modulus (GPa) = 22.27519 27.00682 24.64101
#
# Velocity S-wave (km/s) = 3.71294 4.08831 3.90514
# Velocity P-wave (km/s) = 7.84697 8.23495 8.04330
#
# Compressibility (1/GPa) = 0.01432827
#
# Stress axis : x y z
#
# Youngs Moduli (GPa) = 45.98236 45.98246 128.10195
#
# Poissons Ratio (x) = 0.60055 0.34755
# Poissons Ratio (y) = 0.60055 0.34755
# Poissons Ratio (z) = 0.12475 0.12475
#
# Static dielectric constant tensor:
#      x y z
#    x 1.558230 0.000000 0.000000 
#    y 0.000000 1.558230 0.000000 
#    z 0.000000 0.000000 1.571960 
# 
# From -- ./inp_files/4382.got.cif
#   From: 2010.05.17/outbox.cif.g08.bks.cpg/sg138_3_cif.got.tgz:4382.got - 2010.05.20 13:08:53.
