data_PCOD9571705
_publ_section_title
;
Structure prediction by ZEFSAII (Michael W. Deem and Ramdas Pophale) SiO2 
 PCOD9571705
Probable space group: I 4/M M M
;
_chemical_formula_sum "Si O2"
_cell_formula_units_Z 144
_cell_length_a 20.850605
_cell_length_b 20.850605
_cell_length_c 17.994973
_cell_angle_alpha 90.000000
_cell_angle_beta 90.000000
_cell_angle_gamma 90.000000
_cell_volume 7823.273643
_symmetry_space_group_name_H-M "I 4/M M M"
_symmetry_group_IT_number 139
_symmetry_cell_setting 'tetragonal'
loop_
_space_group_symop_operation_xyz
x,y,z
-y,x,z
-x,-y,z
y,-x,z
x,-y,-z
-x,y,-z
y,x,-z
-y,-x,-z
-x,-y,-z
y,-x,-z
x,y,-z
-y,x,-z
-x,y,z
x,-y,z
-y,-x,z
y,x,z
1/2+x,1/2+y,1/2+z
1/2-y,1/2+x,1/2+z
1/2-x,1/2-y,1/2+z
1/2+y,1/2-x,1/2+z
1/2+x,1/2-y,1/2-z
1/2-x,1/2+y,1/2-z
1/2+y,1/2+x,1/2-z
1/2-y,1/2-x,1/2-z
1/2-x,1/2-y,1/2-z
1/2+y,1/2-x,1/2-z
1/2+x,1/2+y,1/2-z
1/2-y,1/2+x,1/2-z
1/2-x,1/2+y,1/2+z
1/2+x,1/2-y,1/2+z
1/2-y,1/2-x,1/2+z
1/2+y,1/2+x,1/2+z
loop_
_atom_site_type_symbol
_atom_site_label
_atom_site_fract_x
_atom_site_fract_y
_atom_site_fract_z
Si Si1 0.423810 0.201076 0.082876
Si Si2 0.923542 0.237684 0.844260
Si Si3 0.388343 0.073973 0.831948
Si Si4 0.922385 0.820649 0.000000
Si Si5 0.680296 0.577683 0.186864
O O1 0.500000 0.210349 0.078042
O O2 0.414326 0.130112 0.115837
O O3 0.402072 0.258248 0.137205
O O4 0.395945 0.205829 0.000000
O O5 0.912747 0.312341 0.828282
O O6 0.904858 0.197647 0.771977
O O7 0.000000 0.230328 0.848854
O O8 0.899720 0.215157 0.924811
O O9 0.417711 0.082290 0.750000
O O10 0.398226 0.000000 0.856861
O O11 0.890551 0.890551 0.000000
O O12 0.000000 0.823561 0.000000
O O13 0.672300 0.500000 0.181971
O O14 0.617255 0.617255 0.164525
#
# Coordination Sequence:
#
# PCOD9571705 Si02
#       5
#    32  32  32  16  32
#     4  10  22  39  57  82 119 156 188 231 289 342
#     4   9  19  35  55  80 115 156 188 228 292 350
#     4  11  21  36  60  86 114 150 195 238 279 335
#     4  10  20  35  56  82 113 151 193 239 292 348
#     4  10  20  38  62  85 113 150 191 237 292 349
#
# _framework density 18.406617000000001
#
# number of rings (size 3 to 8) (size 9 to 14) (size 15 to 20)
#    0.000    2.000    2.222    1.333    1.556    2.778 
#    0.000    4.444    0.000    4.000    0.000    3.111 
#    0.000    0.000    0.000    0.000    0.000    0.000 
#
# Total GULP energy -401159.507727 kJ/mol
# GULP energy per Si atom -5571.659830 kJ/mol
# Density = 1.836472 g / cm^3
# Si number density = 18.406617 Si / 1000 Ang^3
#
#
#
# Elastic Constant Matrix: (Units=GPa)
#
#
# Indices 1 2 3 4 5 6 
#
# 1 63.6714 41.6685 43.3394 0.0000 0.0000 0.0000
# 2 41.6685 63.6715 43.3370 0.0000 0.0000 0.0000
# 3 43.3394 43.3370 116.5876 0.0000 0.0000 0.0000
# 4 0.0000 0.0000 0.0000 7.5703 0.0000 0.0000
# 5 0.0000 0.0000 0.0000 0.0000 7.5702 0.0000
# 6 0.0000 0.0000 0.0000 0.0000 0.0000 -116.7311
#
#
#
# Elastic Compliance Matrix: (Units=1/GPa)
#
#
# Indices 1 2 3 4 5 6 
#
# 1 0.029563 -0.015886 -0.005084 0.000000 0.000000 0.000000
# 2 -0.015886 0.029562 -0.005083 0.000000 0.000000 0.000000
# 3 -0.005084 -0.005083 0.012357 0.000000 0.000000 0.000000
# 4 0.000000 0.000000 0.000000 0.132095 0.000000 0.000000
# 5 0.000000 0.000000 0.000000 0.000000 0.132098 0.000000
# 6 0.000000 0.000000 0.000000 0.000000 0.000000 -0.008567
#
#
# Mechanical properties :
#
#
# Convention : Reuss Voigt Hill
#
# Bulk Modulus (GPa) = 51.61549 55.62450 53.61999
# Shear Modulus (GPa) = 12.96438 -12.61241 0.17598
#
# Velocity S-wave (km/s) = 2.65681 -2.62049 0.30954
# Velocity P-wave (km/s) = 6.12488 4.59668 5.41496
#
# Compressibility (1/GPa) = 0.01937403
#
# Stress axis : x y z
#
# Youngs Moduli (GPa) = 33.82621 33.82750 80.92778
#
# Poissons Ratio (x) = 0.53739 0.41147
# Poissons Ratio (y) = 0.53737 0.41136
# Poissons Ratio (z) = 0.17199 0.17195
#
# Static dielectric constant tensor:
#      x y z
#    x 1.643460 0.000000 0.000000 
#    y 0.000000 1.643460 0.000000 
#    z 0.000000 0.000000 1.670340 
# 
# From -- ./inp_files/8178.got.cif
#   From: 2010.05.17/outbox.cif.g08.bks.cpg/sg139_5_cif.got.tgz:8178.got - 2010.05.20 13:14:44.
