data_PCOD9571060
_publ_section_title
;
Structure prediction by ZEFSAII (Michael W. Deem and Ramdas Pophale) SiO2 
 PCOD9571060
Probable space group: P 42/N C M
;
_chemical_formula_sum "Si O2"
_cell_formula_units_Z 64
_cell_length_a 14.693705
_cell_length_b 14.693705
_cell_length_c 17.415165
_cell_angle_alpha 90.000000
_cell_angle_beta 90.000000
_cell_angle_gamma 90.000000
_cell_volume 3760.020618
_symmetry_space_group_name_H-M "P 42/N C M"
_symmetry_group_IT_number 138
_space_group.IT_coordinate_system_code '2'
_symmetry_cell_setting 'tetragonal'
loop_
_space_group_symop_operation_xyz
x,y,z
1/2-y,x,1/2+z
1/2-x,1/2-y,z
y,1/2-x,1/2+z
1/2+x,-y,1/2-z
-x,1/2+y,1/2-z
1/2+y,1/2+x,-z
-y,-x,-z
-x,-y,-z
1/2+y,-x,1/2-z
1/2+x,1/2+y,-z
-y,1/2+x,1/2-z
1/2-x,y,1/2+z
x,1/2-y,1/2+z
1/2-y,1/2-x,z
y,x,z
loop_
_atom_site_type_symbol
_atom_site_label
_atom_site_fract_x
_atom_site_fract_y
_atom_site_fract_z
Si Si1 0.530596 0.378859 0.073353
Si Si2 0.953348 0.394725 0.884823
Si Si3 0.027169 0.316702 0.033759
Si Si4 0.174018 0.621096 0.733029
O O1 0.463741 0.463741 0.088170
O O2 0.469807 0.288762 0.056270
O O3 0.590064 0.356109 0.148750
O O4 0.592977 0.407024 0.000000
O O5 0.864283 0.449186 0.913822
O O6 0.946035 0.358232 0.799683
O O7 0.030003 0.469998 0.888836
O O8 0.984997 0.322249 0.948128
O O9 0.118480 0.381521 0.038364
O O10 0.132100 0.718249 0.756565
#
# Coordination Sequence:
#
# PCOD9571060 Si02
#       4
#    16  16  16  16
#     4  11  23  38  55  80 117 151 179 225 285 336
#     4   9  17  33  56  78 103 139 180 228 269 316
#     4   9  18  35  58  80 104 139 187 226 270 327
#     4  11  21  34  52  81 111 141 182 227 274 324
#
# _framework density 17.021183000000001
#
# number of rings (size 3 to 8) (size 9 to 14) (size 15 to 20)
#    0.000    2.000    2.500    3.750    0.000    0.500 
#    0.000    0.000    0.000    0.000    0.000    3.500 
#    0.000    0.000    0.000    0.000    0.000    0.000 
#
# Total GULP energy -356376.782832 kJ/mol
# GULP energy per Si atom -5568.387232 kJ/mol
# Density = 1.698244 g / cm^3
# Si number density = 17.021183 Si / 1000 Ang^3
#
#
#
# Elastic Constant Matrix: (Units=GPa)
#
#
# Indices 1 2 3 4 5 6 
#
# 1 91.3769 -6.2190 45.8100 0.0000 0.0000 0.0000
# 2 -6.2190 91.3738 45.8103 0.0000 0.0000 0.0000
# 3 45.8100 45.8103 148.8979 0.0000 0.0000 0.0000
# 4 0.0000 0.0000 0.0000 23.7021 0.0000 0.0000
# 5 0.0000 0.0000 0.0000 0.0000 23.7022 0.0000
# 6 0.0000 0.0000 0.0000 0.0000 0.0000 29.0715
#
#
#
# Elastic Compliance Matrix: (Units=1/GPa)
#
#
# Indices 1 2 3 4 5 6 
#
# 1 0.013900 0.003654 -0.005400 0.000000 0.000000 0.000000
# 2 0.003654 0.013900 -0.005401 0.000000 0.000000 0.000000
# 3 -0.005400 -0.005401 0.010039 0.000000 0.000000 0.000000
# 4 0.000000 0.000000 0.000000 0.042190 0.000000 0.000000
# 5 0.000000 0.000000 0.000000 0.000000 0.042190 0.000000
# 6 0.000000 0.000000 0.000000 0.000000 0.000000 0.034398
#
#
# Mechanical properties :
#
#
# Convention : Reuss Voigt Hill
#
# Bulk Modulus (GPa) = 42.47357 55.82791 49.15074
# Shear Modulus (GPa) = 27.97032 31.71164 29.84098
#
# Velocity S-wave (km/s) = 4.05812 4.32101 4.19163
# Velocity P-wave (km/s) = 6.85312 7.60034 7.23638
#
# Compressibility (1/GPa) = 0.02354405
#
# Stress axis : x y z
#
# Youngs Moduli (GPa) = 71.94368 71.94064 99.61044
#
# Poissons Ratio (x) = -0.26284 0.53794
# Poissons Ratio (y) = -0.26285 0.53796
# Poissons Ratio (z) = 0.38853 0.38853
#
# Static dielectric constant tensor:
#      x y z
#    x 1.604270 0.000000 0.000000 
#    y 0.000000 1.604270 0.000000 
#    z 0.000000 0.000000 1.580730 
# 
# From -- ./inp_files/3869.got.cif
#   From: 2010.05.17/outbox.cif.g08.bks.cpg/sg138_2_cif.got.tgz:3869.got - 2010.05.20 13:08:53.
