data_PCOD9571283
_publ_section_title
;
Structure prediction by ZEFSAII (Michael W. Deem and Ramdas Pophale) SiO2 
 PCOD9571283
Probable space group: I 4/M M M
;
_chemical_formula_sum "Si O2"
_cell_formula_units_Z 160
_cell_length_a 30.797128
_cell_length_b 30.797128
_cell_length_c 8.419081
_cell_angle_alpha 90.000000
_cell_angle_beta 90.000000
_cell_angle_gamma 90.000000
_cell_volume 7985.187606
_symmetry_space_group_name_H-M "I 4/M M M"
_symmetry_group_IT_number 139
_symmetry_cell_setting 'tetragonal'
loop_
_space_group_symop_operation_xyz
x,y,z
-y,x,z
-x,-y,z
y,-x,z
x,-y,-z
-x,y,-z
y,x,-z
-y,-x,-z
-x,-y,-z
y,-x,-z
x,y,-z
-y,x,-z
-x,y,z
x,-y,z
-y,-x,z
y,x,z
1/2+x,1/2+y,1/2+z
1/2-y,1/2+x,1/2+z
1/2-x,1/2-y,1/2+z
1/2+y,1/2-x,1/2+z
1/2+x,1/2-y,1/2-z
1/2-x,1/2+y,1/2-z
1/2+y,1/2+x,1/2-z
1/2-y,1/2-x,1/2-z
1/2-x,1/2-y,1/2-z
1/2+y,1/2-x,1/2-z
1/2+x,1/2+y,1/2-z
1/2-y,1/2+x,1/2-z
1/2-x,1/2+y,1/2+z
1/2+x,1/2-y,1/2+z
1/2-y,1/2-x,1/2+z
1/2+y,1/2+x,1/2+z
loop_
_atom_site_type_symbol
_atom_site_label
_atom_site_fract_x
_atom_site_fract_y
_atom_site_fract_z
Si Si1 0.451688 0.118428 0.310335
Si Si2 0.324744 0.324744 0.672699
Si Si3 0.383532 0.383532 0.822517
Si Si4 0.213501 0.569632 0.816113
Si Si5 0.839960 0.276768 0.180493
Si Si6 0.050491 0.187833 0.691127
O O1 0.450186 0.116694 0.500000
O O2 0.500000 0.103365 0.256467
O O3 0.412600 0.087401 0.250000
O O4 0.447980 0.169346 0.261497
O O5 0.341298 0.341298 0.500000
O O6 0.346706 0.346706 0.821836
O O7 0.274472 0.334916 0.677351
O O8 0.353972 0.422130 0.748120
O O9 0.397207 0.397207 0.000000
O O10 0.209701 0.621094 0.793845
O O11 0.262451 0.559439 0.750270
O O12 0.213576 0.556197 0.000000
O O13 0.796722 0.296722 0.250000
O O14 0.848708 0.291735 0.000000
O O15 0.059276 0.189295 0.500000
O O16 0.000000 0.179532 0.716238
#
# Coordination Sequence:
#
# PCOD9571283 Si02
#       6
#    32  16  16  32  32  32
#     4  11  25  44  65  89 117 149 189 238 292 350
#     4  10  21  35  51  74 109 147 186 236 281 326
#     4  10  18  33  57  81 111 148 191 236 281 343
#     4  11  21  36  59  84 115 151 190 238 285 342
#     4  11  22  35  51  75 110 152 194 236 280 334
#     4   9  18  32  54  85 115 147 188 234 283 334
#
# _framework density 20.037099999999999
#
# number of rings (size 3 to 8) (size 9 to 14) (size 15 to 20)
#    0.000    1.600    2.000    3.300    0.000    3.400 
#    0.000    1.000    0.000    2.100    0.000    2.100 
#    0.000    0.000    0.000    0.900    0.000    1.000 
#
# Total GULP energy -445575.442244 kJ/mol
# GULP energy per Si atom -5569.693028 kJ/mol
# Density = 1.999149 g / cm^3
# Si number density = 20.037100 Si / 1000 Ang^3
#
#
#
# Elastic Constant Matrix: (Units=GPa)
#
#
# Indices 1 2 3 4 5 6 
#
# 1 90.0979 53.3544 20.2077 0.0000 0.0000 0.0000
# 2 53.3544 90.0930 20.2059 0.0000 0.0000 0.0000
# 3 20.2077 20.2059 28.9138 0.0000 0.0000 0.0000
# 4 0.0000 0.0000 0.0000 8.5659 0.0000 0.0000
# 5 0.0000 0.0000 0.0000 0.0000 8.5664 0.0000
# 6 0.0000 0.0000 0.0000 0.0000 0.0000 21.5685
#
#
#
# Elastic Compliance Matrix: (Units=1/GPa)
#
#
# Indices 1 2 3 4 5 6 
#
# 1 0.017949 -0.009269 -0.006067 0.000000 0.000000 0.000000
# 2 -0.009269 0.017949 -0.006066 0.000000 0.000000 0.000000
# 3 -0.006067 -0.006066 0.043064 0.000000 0.000000 0.000000
# 4 0.000000 0.000000 0.000000 0.116742 0.000000 0.000000
# 5 0.000000 0.000000 0.000000 0.000000 0.116736 0.000000
# 6 0.000000 0.000000 0.000000 0.000000 0.000000 0.046364
#
#
# Mechanical properties :
#
#
# Convention : Reuss Voigt Hill
#
# Bulk Modulus (GPa) = 27.65497 44.07119 35.86308
# Shear Modulus (GPa) = 12.08724 15.42926 13.75825
#
# Velocity S-wave (km/s) = 2.45877 2.77796 2.62322
# Velocity P-wave (km/s) = 4.67895 5.68612 5.20694
#
# Compressibility (1/GPa) = 0.03615987
#
# Stress axis : x y z
#
# Youngs Moduli (GPa) = 55.71482 55.71312 23.22099
#
# Poissons Ratio (x) = 0.51639 0.14088
# Poissons Ratio (y) = 0.51641 0.14085
# Poissons Ratio (z) = 0.33801 0.33793
#
# Static dielectric constant tensor:
#      x y z
#    x 1.726270 0.000000 0.000000 
#    y 0.000000 1.726270 0.000000 
#    z 0.000000 0.000000 1.772210 
# 
# From -- ./inp_files/2183.got.cif
#   From: 2010.05.17/outbox.cif.g08.bks.cpg/sg139_2_cif.got.tgz:2183.got - 2010.05.20 13:14:44.
