data_PCOD9571499
_publ_section_title
;
Structure prediction by ZEFSAII (Michael W. Deem and Ramdas Pophale) SiO2 
 PCOD9571499
Probable space group: I 4/M M M
;
_chemical_formula_sum "Si O2"
_cell_formula_units_Z 136
_cell_length_a 25.356475
_cell_length_b 25.356475
_cell_length_c 12.224985
_cell_angle_alpha 90.000000
_cell_angle_beta 90.000000
_cell_angle_gamma 90.000000
_cell_volume 7860.064184
_symmetry_space_group_name_H-M "I 4/M M M"
_symmetry_group_IT_number 139
_symmetry_cell_setting 'tetragonal'
loop_
_space_group_symop_operation_xyz
x,y,z
-y,x,z
-x,-y,z
y,-x,z
x,-y,-z
-x,y,-z
y,x,-z
-y,-x,-z
-x,-y,-z
y,-x,-z
x,y,-z
-y,x,-z
-x,y,z
x,-y,z
-y,-x,z
y,x,z
1/2+x,1/2+y,1/2+z
1/2-y,1/2+x,1/2+z
1/2-x,1/2-y,1/2+z
1/2+y,1/2-x,1/2+z
1/2+x,1/2-y,1/2-z
1/2-x,1/2+y,1/2-z
1/2+y,1/2+x,1/2-z
1/2-y,1/2-x,1/2-z
1/2-x,1/2-y,1/2-z
1/2+y,1/2-x,1/2-z
1/2+x,1/2+y,1/2-z
1/2-y,1/2+x,1/2-z
1/2-x,1/2+y,1/2+z
1/2+x,1/2-y,1/2+z
1/2-y,1/2-x,1/2+z
1/2+y,1/2+x,1/2+z
loop_
_atom_site_type_symbol
_atom_site_label
_atom_site_fract_x
_atom_site_fract_y
_atom_site_fract_z
Si Si1 0.500000 0.639020 0.736027
Si Si2 0.218883 0.387447 0.130414
Si Si3 0.809422 0.809422 0.627139
Si Si4 0.912861 0.000000 0.000000
Si Si5 0.391750 0.108251 0.250000
Si Si6 0.899196 0.899196 0.372278
Si Si7 0.135489 0.500000 0.368867
Si Si8 0.741622 0.000000 0.264106
O O1 0.500000 0.615640 0.615510
O O2 0.550193 0.621686 0.807448
O O3 0.500000 0.700818 0.716235
O O4 0.257219 0.339753 0.173047
O O5 0.158671 0.385441 0.170728
O O6 0.237224 0.445804 0.167365
O O7 0.221454 0.384957 0.000000
O O8 0.796901 0.796901 0.500000
O O9 0.854363 0.854363 0.629044
O O10 0.948993 0.051008 0.000000
O O11 0.446710 0.111418 0.316073
O O12 0.910898 0.910898 0.500000
O O13 0.131222 0.500000 0.500000
O O14 0.195940 0.500000 0.326699
#
# Coordination Sequence:
#
# PCOD9571499 Si02
#       8
#    16  32  16   8  16  16  16  16
#     4  12  22  38  55  80 113 152 205 245 292 352
#     4  10  19  34  55  81 113 148 185 230 285 339
#     4   9  18  31  51  81 112 145 182 228 293 341
#     4  11  24  40  52  68 106 164 204 245 290 346
#     4  10  22  38  60  86 112 148 184 220 276 336
#     4  11  22  34  55  84 117 149 189 256 311 341
#     4  10  22  42  61  87 118 144 178 223 270 332
#     4  10  21  33  57  85 110 146 189 234 279 335
#
# _framework density 17.302658000000001
#
# number of rings (size 3 to 8) (size 9 to 14) (size 15 to 20)
#    0.000    1.706    3.529    1.412    0.824    1.882 
#    0.000    2.941    0.000    0.000    0.000    0.000 
#    0.000    0.000    0.000    0.000    0.000    0.000 
#
# Total GULP energy -378879.379310 kJ/mol
# GULP energy per Si atom -5571.755578 kJ/mol
# Density = 1.726328 g / cm^3
# Si number density = 17.302658 Si / 1000 Ang^3
#
#
#
# Elastic Constant Matrix: (Units=GPa)
#
#
# Indices 1 2 3 4 5 6 
#
# 1 130.9747 65.0749 57.8380 0.0000 0.0000 0.0000
# 2 65.0749 130.9732 57.8371 0.0000 0.0000 0.0000
# 3 57.8380 57.8371 125.1936 0.0000 0.0000 0.0000
# 4 0.0000 0.0000 0.0000 10.9500 0.0000 0.0000
# 5 0.0000 0.0000 0.0000 0.0000 10.9483 0.0000
# 6 0.0000 0.0000 0.0000 0.0000 0.0000 26.1379
#
#
#
# Elastic Compliance Matrix: (Units=1/GPa)
#
#
# Indices 1 2 3 4 5 6 
#
# 1 0.011093 -0.004081 -0.003240 0.000000 0.000000 0.000000
# 2 -0.004081 0.011093 -0.003239 0.000000 0.000000 0.000000
# 3 -0.003240 -0.003239 0.010981 0.000000 0.000000 0.000000
# 4 0.000000 0.000000 0.000000 0.091324 0.000000 0.000000
# 5 0.000000 0.000000 0.000000 0.000000 0.091339 0.000000
# 6 0.000000 0.000000 0.000000 0.000000 0.000000 0.038259
#
#
# Mechanical properties :
#
#
# Convention : Reuss Voigt Hill
#
# Bulk Modulus (GPa) = 83.00730 83.18238 83.09484
# Shear Modulus (GPa) = 17.90668 23.36667 20.63667
#
# Velocity S-wave (km/s) = 3.22049 3.67886 3.45728
# Velocity P-wave (km/s) = 7.86808 8.13785 8.00410
#
# Compressibility (1/GPa) = 0.01204713
#
# Stress axis : x y z
#
# Youngs Moduli (GPa) = 90.14346 90.14288 91.06766
#
# Poissons Ratio (x) = 0.36790 0.29502
# Poissons Ratio (y) = 0.36790 0.29501
# Poissons Ratio (z) = 0.29203 0.29202
#
# Static dielectric constant tensor:
#      x y z
#    x 1.653270 0.000000 0.000000 
#    y 0.000000 1.653280 0.000000 
#    z 0.000000 0.000000 1.508740 
# 
# From -- ./inp_files/3632.got.cif
#   From: 2010.05.17/outbox.cif.g08.bks.cpg/sg139_2_cif.got.tgz:3632.got - 2010.05.20 13:14:44.
