data_PCOD9571556
_publ_section_title
;
Structure prediction by ZEFSAII (Michael W. Deem and Ramdas Pophale) SiO2 
 PCOD9571556
Probable space group: I 4/M M M
;
_chemical_formula_sum "Si O2"
_cell_formula_units_Z 160
_cell_length_a 18.500763
_cell_length_b 18.500763
_cell_length_c 28.487801
_cell_angle_alpha 90.000000
_cell_angle_beta 90.000000
_cell_angle_gamma 90.000000
_cell_volume 9750.754148
_symmetry_space_group_name_H-M "I 4/M M M"
_symmetry_group_IT_number 139
_symmetry_cell_setting 'tetragonal'
loop_
_space_group_symop_operation_xyz
x,y,z
-y,x,z
-x,-y,z
y,-x,z
x,-y,-z
-x,y,-z
y,x,-z
-y,-x,-z
-x,-y,-z
y,-x,-z
x,y,-z
-y,x,-z
-x,y,z
x,-y,z
-y,-x,z
y,x,z
1/2+x,1/2+y,1/2+z
1/2-y,1/2+x,1/2+z
1/2-x,1/2-y,1/2+z
1/2+y,1/2-x,1/2+z
1/2+x,1/2-y,1/2-z
1/2-x,1/2+y,1/2-z
1/2+y,1/2+x,1/2-z
1/2-y,1/2-x,1/2-z
1/2-x,1/2-y,1/2-z
1/2+y,1/2-x,1/2-z
1/2+x,1/2+y,1/2-z
1/2-y,1/2+x,1/2-z
1/2-x,1/2+y,1/2+z
1/2+x,1/2-y,1/2+z
1/2-y,1/2-x,1/2+z
1/2+y,1/2+x,1/2+z
loop_
_atom_site_type_symbol
_atom_site_label
_atom_site_fract_x
_atom_site_fract_y
_atom_site_fract_z
Si Si1 0.684356 0.194214 0.053692
Si Si2 0.313915 0.915398 0.357267
Si Si3 0.203927 0.915254 0.094335
Si Si4 0.415514 0.202693 0.312379
Si Si5 0.203553 0.084438 0.723921
O O1 0.736813 0.263188 0.061709
O O2 0.621034 0.193517 0.091847
O O3 0.736146 0.124869 0.062472
O O4 0.659218 0.195166 0.000000
O O5 0.371644 0.866938 0.329029
O O6 0.240852 0.909045 0.326810
O O7 0.333283 0.000000 0.359596
O O8 0.130251 0.869750 0.090453
O O9 0.236702 0.907828 0.146913
O O10 0.195936 0.000000 0.083768
O O11 0.500000 0.184057 0.308593
O O12 0.392328 0.238448 0.263509
O O13 0.133910 0.133910 0.727422
O O14 0.187509 0.000000 0.732718
#
# Coordination Sequence:
#
# PCOD9571556 Si02
#       5
#    32  32  32  32  32
#     4   9  18  33  51  68  90 124 161 197 242 292
#     4  10  20  32  49  74  98 122 157 199 241 285
#     4   9  17  29  46  69  96 126 161 198 236 281
#     4   9  18  32  48  68  97 131 163 194 230 275
#     4  10  20  33  50  73 100 129 161 195 231 274
#
# _framework density 16.408987
#
# number of rings (size 3 to 8) (size 9 to 14) (size 15 to 20)
#    0.000    2.600    0.000    1.800    0.000    4.800 
#    0.000    0.000    0.000    7.200    0.000    8.400 
#    0.000    0.000    0.000   18.600    0.000    0.000 
#
# Total GULP energy -446025.617080 kJ/mol
# GULP energy per Si atom -5575.320213 kJ/mol
# Density = 1.637164 g / cm^3
# Si number density = 16.408987 Si / 1000 Ang^3
#
#
#
# Elastic Constant Matrix: (Units=GPa)
#
#
# Indices 1 2 3 4 5 6 
#
# 1 106.9531 64.9702 52.0178 0.0000 0.0000 0.0000
# 2 64.9702 106.9531 52.0178 0.0000 0.0000 0.0000
# 3 52.0178 52.0178 100.6141 0.0000 0.0000 0.0000
# 4 0.0000 0.0000 0.0000 15.9504 0.0000 0.0000
# 5 0.0000 0.0000 0.0000 0.0000 15.9504 0.0000
# 6 0.0000 0.0000 0.0000 0.0000 0.0000 14.7224
#
#
#
# Elastic Compliance Matrix: (Units=1/GPa)
#
#
# Indices 1 2 3 4 5 6 
#
# 1 0.016142 -0.007677 -0.004376 0.000000 0.000000 0.000000
# 2 -0.007677 0.016142 -0.004376 0.000000 0.000000 0.000000
# 3 -0.004376 -0.004376 0.014464 0.000000 0.000000 0.000000
# 4 0.000000 0.000000 0.000000 0.062694 0.000000 0.000000
# 5 0.000000 0.000000 0.000000 0.000000 0.062694 0.000000
# 6 0.000000 0.000000 0.000000 0.000000 0.000000 0.067924
#
#
# Mechanical properties :
#
#
# Convention : Reuss Voigt Hill
#
# Bulk Modulus (GPa) = 72.00257 72.50354 72.25306
# Shear Modulus (GPa) = 18.01479 19.02560 18.52019
#
# Velocity S-wave (km/s) = 3.31699 3.40878 3.36320
# Velocity P-wave (km/s) = 7.65801 7.73138 7.69478
#
# Compressibility (1/GPa) = 0.01388839
#
# Stress axis : x y z
#
# Youngs Moduli (GPa) = 61.95013 61.95013 69.13665
#
# Poissons Ratio (x) = 0.47561 0.30256
# Poissons Ratio (y) = 0.47561 0.30256
# Poissons Ratio (z) = 0.27111 0.27111
#
# Static dielectric constant tensor:
#      x y z
#    x 1.531890 0.000000 0.000000 
#    y 0.000000 1.531890 0.000000 
#    z 0.000000 0.000000 1.563260 
# 
# From -- ./inp_files/12899.got.cif
#   From: 2010.05.17/outbox.cif.g08.bks.cpg/sg139_7_cif.got.tgz:12899.got - 2010.05.20 13:14:44.
