data_PCOD9571455
_publ_section_title
;
Structure prediction by ZEFSAII (Michael W. Deem and Ramdas Pophale) SiO2 
 PCOD9571455
Probable space group: I 4/M M M
;
_chemical_formula_sum "Si O2"
_cell_formula_units_Z 240
_cell_length_a 29.387465
_cell_length_b 29.387465
_cell_length_c 16.036920
_cell_angle_alpha 90.000000
_cell_angle_beta 90.000000
_cell_angle_gamma 90.000000
_cell_volume 13849.854551
_symmetry_space_group_name_H-M "I 4/M M M"
_symmetry_group_IT_number 139
_symmetry_cell_setting 'tetragonal'
loop_
_space_group_symop_operation_xyz
x,y,z
-y,x,z
-x,-y,z
y,-x,z
x,-y,-z
-x,y,-z
y,x,-z
-y,-x,-z
-x,-y,-z
y,-x,-z
x,y,-z
-y,x,-z
-x,y,z
x,-y,z
-y,-x,z
y,x,z
1/2+x,1/2+y,1/2+z
1/2-y,1/2+x,1/2+z
1/2-x,1/2-y,1/2+z
1/2+y,1/2-x,1/2+z
1/2+x,1/2-y,1/2-z
1/2-x,1/2+y,1/2-z
1/2+y,1/2+x,1/2-z
1/2-y,1/2-x,1/2-z
1/2-x,1/2-y,1/2-z
1/2+y,1/2-x,1/2-z
1/2+x,1/2+y,1/2-z
1/2-y,1/2+x,1/2-z
1/2-x,1/2+y,1/2+z
1/2+x,1/2-y,1/2+z
1/2-y,1/2-x,1/2+z
1/2+y,1/2+x,1/2+z
loop_
_atom_site_type_symbol
_atom_site_label
_atom_site_fract_x
_atom_site_fract_y
_atom_site_fract_z
Si Si1 0.130669 0.054133 0.500000
Si Si2 0.053534 0.448271 0.899966
Si Si3 0.854837 0.717507 0.906179
Si Si4 0.786608 0.863331 0.756728
Si Si5 0.677829 0.245499 0.908035
Si Si6 0.127654 0.621218 0.845487
Si Si7 0.192882 0.948130 0.661859
Si Si8 0.449986 0.203079 0.099479
O O1 0.087184 0.087184 0.500000
O O2 0.161603 0.063018 0.418204
O O3 0.119399 0.000000 0.500000
O O4 0.064821 0.500000 0.874177
O O5 0.084315 0.411019 0.856671
O O6 0.000000 0.441312 0.885087
O O7 0.061267 0.445510 0.000000
O O8 0.867924 0.753071 0.834982
O O9 0.801522 0.704630 0.896650
O O10 0.877956 0.668157 0.895079
O O11 0.862313 0.734762 0.000000
O O12 0.822750 0.822750 0.770684
O O13 0.757455 0.850725 0.673727
O O14 0.811700 0.910090 0.732530
O O15 0.714276 0.285725 0.912830
O O16 0.654317 0.243562 0.000000
O O17 0.134374 0.634374 0.750000
O O18 0.170609 0.591100 0.874071
O O19 0.245766 0.947504 0.633727
O O20 0.182381 0.000000 0.687768
O O21 0.500000 0.184312 0.125555
O O22 0.449941 0.205141 0.000000
#
# Coordination Sequence:
#
# PCOD9571455 Si02
#       8
#    16  32  32  32  32  32  32  32
#     4  10  20  35  56  84 120 156 183 207 239 291
#     4   9  19  37  57  74  96 130 174 224 278 339
#     4  11  22  36  52  71 102 141 181 228 283 332
#     4  11  22  35  54  78 104 140 185 225 264 321
#     4   9  18  31  49  75 106 140 175 216 265 319
#     4  12  23  33  49  75 102 132 172 225 291 352
#     4  10  20  35  54  80 111 139 171 215 264 306
#     4  10  19  33  53  74  98 133 175 216 262 321
#
# _framework density 17.328702
#
# number of rings (size 3 to 8) (size 9 to 14) (size 15 to 20)
#    0.000    1.733    0.667    5.600    0.933    5.133 
#    0.000    1.333    0.000    1.200    0.000    0.000 
#    0.000    0.000    0.000    0.000    0.000    0.000 
#
# Total GULP energy -670104.327523 kJ/mol
# GULP energy per Si atom -5584.202729 kJ/mol
# Density = 1.728926 g / cm^3
# Si number density = 17.328702 Si / 1000 Ang^3
#
#
#
# Elastic Constant Matrix: (Units=GPa)
#
#
# Indices 1 2 3 4 5 6 
#
# 1 63.7727 44.6530 33.3477 0.0000 0.0000 0.0000
# 2 44.6530 63.7727 33.3477 0.0000 0.0000 0.0000
# 3 33.3477 33.3477 72.1547 0.0000 0.0000 0.0000
# 4 0.0000 0.0000 0.0000 17.3706 0.0000 0.0000
# 5 0.0000 0.0000 0.0000 0.0000 17.3706 0.0000
# 6 0.0000 0.0000 0.0000 0.0000 0.0000 11.4798
#
#
#
# Elastic Compliance Matrix: (Units=1/GPa)
#
#
# Indices 1 2 3 4 5 6 
#
# 1 0.032594 -0.019708 -0.005956 0.000000 0.000000 0.000000
# 2 -0.019708 0.032594 -0.005956 0.000000 0.000000 0.000000
# 3 -0.005956 -0.005956 0.019364 0.000000 0.000000 0.000000
# 4 0.000000 0.000000 0.000000 0.057568 0.000000 0.000000
# 5 0.000000 0.000000 0.000000 0.000000 0.057568 0.000000
# 6 0.000000 0.000000 0.000000 0.000000 0.000000 0.087110
#
#
# Mechanical properties :
#
#
# Convention : Reuss Voigt Hill
#
# Bulk Modulus (GPa) = 46.91707 46.93298 46.92503
# Shear Modulus (GPa) = 14.00001 15.13431 14.56716
#
# Velocity S-wave (km/s) = 2.84546 2.95848 2.90252
# Velocity P-wave (km/s) = 6.15866 6.23000 6.19443
#
# Compressibility (1/GPa) = 0.02131420
#
# Stress axis : x y z
#
# Youngs Moduli (GPa) = 30.68025 30.68025 51.64157
#
# Poissons Ratio (x) = 0.60464 0.30756
# Poissons Ratio (y) = 0.60464 0.30756
# Poissons Ratio (z) = 0.18272 0.18272
#
# Static dielectric constant tensor:
#      x y z
#    x 1.611490 0.000000 0.000000 
#    y 0.000000 1.611490 0.000000 
#    z 0.000000 0.000000 1.612580 
# 
# From -- ./inp_files/6807.got.cif
#   From: 2010.05.17/outbox.cif.g08.bks.cpg/sg139_4_cif.got.tgz:6807.got - 2010.05.20 13:14:44.
