data_PCOD9571543
_publ_section_title
;
Structure prediction by ZEFSAII (Michael W. Deem and Ramdas Pophale) SiO2 
 PCOD9571543
Probable space group: I 4/M M M
;
_chemical_formula_sum "Si O2"
_cell_formula_units_Z 192
_cell_length_a 19.452016
_cell_length_b 19.452016
_cell_length_c 32.268069
_cell_angle_alpha 90.000000
_cell_angle_beta 90.000000
_cell_angle_gamma 90.000000
_cell_volume 12209.621843
_symmetry_space_group_name_H-M "I 4/M M M"
_symmetry_group_IT_number 139
_symmetry_cell_setting 'tetragonal'
loop_
_space_group_symop_operation_xyz
x,y,z
-y,x,z
-x,-y,z
y,-x,z
x,-y,-z
-x,y,-z
y,x,-z
-y,-x,-z
-x,-y,-z
y,-x,-z
x,y,-z
-y,x,-z
-x,y,z
x,-y,z
-y,-x,z
y,x,z
1/2+x,1/2+y,1/2+z
1/2-y,1/2+x,1/2+z
1/2-x,1/2-y,1/2+z
1/2+y,1/2-x,1/2+z
1/2+x,1/2-y,1/2-z
1/2-x,1/2+y,1/2-z
1/2+y,1/2+x,1/2-z
1/2-y,1/2-x,1/2-z
1/2-x,1/2-y,1/2-z
1/2+y,1/2-x,1/2-z
1/2+x,1/2+y,1/2-z
1/2-y,1/2+x,1/2-z
1/2-x,1/2+y,1/2+z
1/2+x,1/2-y,1/2+z
1/2-y,1/2-x,1/2+z
1/2+y,1/2+x,1/2+z
loop_
_atom_site_type_symbol
_atom_site_label
_atom_site_fract_x
_atom_site_fract_y
_atom_site_fract_z
Si Si1 0.827712 0.286581 0.382914
Si Si2 0.418896 0.918896 0.250000
Si Si3 0.579623 0.176298 0.672494
Si Si4 0.082959 0.500000 0.452978
Si Si5 0.576504 0.689269 0.728394
Si Si6 0.692130 0.419568 0.176348
Si Si7 0.347043 0.080957 0.550024
O O1 0.757461 0.242540 0.386630
O O2 0.819291 0.361420 0.361930
O O3 0.877864 0.243182 0.352922
O O4 0.867872 0.297008 0.426087
O O5 0.500000 0.906820 0.243521
O O6 0.400397 0.879089 0.292017
O O7 0.500000 0.162121 0.658886
O O8 0.579087 0.248151 0.696956
O O9 0.110229 0.500000 0.500000
O O10 0.099337 0.425155 0.435502
O O11 0.000000 0.500000 0.455432
O O12 0.500000 0.658379 0.727503
O O13 0.633629 0.633629 0.718704
O O14 0.587301 0.714721 0.775596
O O15 0.689211 0.500000 0.166059
O O16 0.618234 0.381767 0.173650
O O17 0.344205 0.086918 0.500000
O O18 0.334828 0.000000 0.559913
#
# Coordination Sequence:
#
# PCOD9571543 Si02
#       7
#    32  16  32  16  32  32  32
#     4  11  22  32  46  69  98 128 159 196 234 282
#     4   9  18  32  47  66  92 122 161 206 245 280
#     4  10  20  32  47  65  90 127 163 195 236 284
#     4   7  12  26  48  72  92 112 141 177 221 273
#     4   9  17  30  47  65  88 118 155 198 240 280
#     4   9  18  31  47  68  92 122 158 197 239 278
#     4   9  18  33  53  73  94 121 151 187 232 282
#
# _framework density 15.725303
#
# number of rings (size 3 to 8) (size 9 to 14) (size 15 to 20)
#    0.000    2.667    0.000    3.000    1.167    3.333 
#    0.000    5.000    0.000    0.000    0.000    0.000 
#    0.000    0.000    0.000   15.500    0.000    4.833 
#
# Total GULP energy -534639.538211 kJ/mol
# GULP energy per Si atom -5569.161856 kJ/mol
# Density = 1.568951 g / cm^3
# Si number density = 15.725303 Si / 1000 Ang^3
#
#
#
# Elastic Constant Matrix: (Units=GPa)
#
#
# Indices 1 2 3 4 5 6 
#
# 1 72.9139 41.2693 40.0575 0.0000 0.0000 0.0000
# 2 41.2693 72.9139 40.0575 0.0000 0.0000 0.0000
# 3 40.0575 40.0575 54.8849 0.0000 0.0000 0.0000
# 4 0.0000 0.0000 0.0000 20.3457 0.0000 0.0000
# 5 0.0000 0.0000 0.0000 0.0000 20.3457 0.0000
# 6 0.0000 0.0000 0.0000 0.0000 0.0000 20.7273
#
#
#
# Elastic Compliance Matrix: (Units=1/GPa)
#
#
# Indices 1 2 3 4 5 6 
#
# 1 0.024775 -0.006826 -0.013100 0.000000 0.000000 0.000000
# 2 -0.006826 0.024775 -0.013100 0.000000 0.000000 0.000000
# 3 -0.013100 -0.013100 0.037343 0.000000 0.000000 0.000000
# 4 0.000000 0.000000 0.000000 0.049150 0.000000 0.000000
# 5 0.000000 0.000000 0.000000 0.000000 0.049150 0.000000
# 6 0.000000 0.000000 0.000000 0.000000 0.000000 0.048246
#
#
# Mechanical properties :
#
#
# Convention : Reuss Voigt Hill
#
# Bulk Modulus (GPa) = 47.98465 49.27569 48.63017
# Shear Modulus (GPa) = 16.31645 17.57230 16.94438
#
# Velocity S-wave (km/s) = 3.22466 3.34646 3.28613
# Velocity P-wave (km/s) = 6.66672 6.80699 6.73722
#
# Compressibility (1/GPa) = 0.02084000
#
# Stress axis : x y z
#
# Youngs Moduli (GPa) = 40.36289 40.36289 26.77912
#
# Poissons Ratio (x) = 0.27550 0.35082
# Poissons Ratio (y) = 0.27550 0.35082
# Poissons Ratio (z) = 0.52877 0.52877
#
# Static dielectric constant tensor:
#      x y z
#    x 1.529870 0.000000 0.000000 
#    y 0.000000 1.529870 0.000000 
#    z 0.000000 0.000000 1.524750 
# 
# From -- ./inp_files/14394.got.cif
#   From: 2010.05.17/outbox.cif.g08.bks.cpg/sg139_8_cif.got.tgz:14394.got - 2010.05.20 13:14:44.
