data_PCOD9571083
_publ_section_title
;
Structure prediction by ZEFSAII (Michael W. Deem and Ramdas Pophale) SiO2 
 PCOD9571083
Probable space group: P 42/N C M
;
_chemical_formula_sum "Si O2"
_cell_formula_units_Z 96
_cell_length_a 15.542664
_cell_length_b 15.542664
_cell_length_c 19.328349
_cell_angle_alpha 90.000000
_cell_angle_beta 90.000000
_cell_angle_gamma 90.000000
_cell_volume 4669.234394
_symmetry_space_group_name_H-M "P 42/N C M"
_symmetry_group_IT_number 138
_space_group.IT_coordinate_system_code '2'
_symmetry_cell_setting 'tetragonal'
loop_
_space_group_symop_operation_xyz
x,y,z
1/2-y,x,1/2+z
1/2-x,1/2-y,z
y,1/2-x,1/2+z
1/2+x,-y,1/2-z
-x,1/2+y,1/2-z
1/2+y,1/2+x,-z
-y,-x,-z
-x,-y,-z
1/2+y,-x,1/2-z
1/2+x,1/2+y,-z
-y,1/2+x,1/2-z
1/2-x,y,1/2+z
x,1/2-y,1/2+z
1/2-y,1/2-x,z
y,x,z
loop_
_atom_site_type_symbol
_atom_site_label
_atom_site_fract_x
_atom_site_fract_y
_atom_site_fract_z
Si Si1 0.257075 0.948898 0.372126
Si Si2 0.944395 0.411029 0.581137
Si Si3 0.890598 0.751798 0.227901
Si Si4 0.639782 0.504587 0.506237
Si Si5 0.272005 0.487392 0.636872
Si Si6 0.810098 0.344624 0.793539
O O1 0.239847 0.020943 0.313919
O O2 0.217765 0.983216 0.443385
O O3 0.358444 0.937172 0.378568
O O4 0.208351 0.859590 0.353278
O O5 0.918123 0.418123 0.500000
O O6 0.021610 0.478391 0.592917
O O7 0.973754 0.316794 0.606205
O O8 0.826214 0.673787 0.212484
O O9 0.839653 0.839653 0.209452
O O10 0.911698 0.753326 0.309588
O O11 0.578904 0.421097 0.500000
O O12 0.580421 0.580421 0.535938
O O13 0.672359 0.531087 0.430677
O O14 0.323150 0.558042 0.683555
O O15 0.842702 0.292074 0.725682
#
# Coordination Sequence:
#
# PCOD9571083 Si02
#       6
#    16  16  16  16  16  16
#     4  12  23  44  67  96 132 172 214 274 334 390
#     4  11  24  41  65  94 129 168 213 265 321 392
#     4  11  26  46  67  92 126 174 229 276 326 393
#     4  11  24  43  65  96 132 171 220 268 328 401
#     4  12  23  44  67  96 132 172 214 274 334 390
#     4  11  22  39  63  97 131 167 207 263 325 401
#
# _framework density 20.560116000000001
#
# number of rings (size 3 to 8) (size 9 to 14) (size 15 to 20)
#    0.000    0.667    5.000    4.000    0.000    0.000 
#    0.000    1.667    0.000    4.000    0.000    0.000 
#    0.000    0.000    0.000    0.000    0.000    0.000 
#
# Total GULP energy -535240.595818 kJ/mol
# GULP energy per Si atom -5575.422873 kJ/mol
# Density = 2.051332 g / cm^3
# Si number density = 20.560116 Si / 1000 Ang^3
#
#
#
# Elastic Constant Matrix: (Units=GPa)
#
#
# Indices 1 2 3 4 5 6 
#
# 1 50.6163 40.2934 20.2768 0.0000 0.0000 0.0000
# 2 40.2934 50.6168 20.2768 0.0000 0.0000 0.0000
# 3 20.2768 20.2768 83.0752 0.0000 0.0000 0.0000
# 4 0.0000 0.0000 0.0000 28.7258 0.0000 0.0000
# 5 0.0000 0.0000 0.0000 0.0000 28.7251 0.0000
# 6 0.0000 0.0000 0.0000 0.0000 0.0000 24.5231
#
#
#
# Elastic Compliance Matrix: (Units=1/GPa)
#
#
# Indices 1 2 3 4 5 6 
#
# 1 0.054607 -0.042263 -0.003013 0.000000 0.000000 0.000000
# 2 -0.042263 0.054606 -0.003013 0.000000 0.000000 0.000000
# 3 -0.003013 -0.003013 0.013508 0.000000 0.000000 0.000000
# 4 0.000000 0.000000 0.000000 0.034812 0.000000 0.000000
# 5 0.000000 0.000000 0.000000 0.000000 0.034813 0.000000
# 6 0.000000 0.000000 0.000000 0.000000 0.000000 0.040778
#
#
# Mechanical properties :
#
#
# Convention : Reuss Voigt Hill
#
# Bulk Modulus (GPa) = 38.24918 38.44469 38.34694
# Shear Modulus (GPa) = 14.77472 23.29223 19.03347
#
# Velocity S-wave (km/s) = 2.68360 3.36949 3.04591
# Velocity P-wave (km/s) = 5.31472 5.82041 5.57330
#
# Compressibility (1/GPa) = 0.02614435
#
# Stress axis : x y z
#
# Youngs Moduli (GPa) = 18.31266 18.31285 74.03002
#
# Poissons Ratio (x) = 0.77395 0.22305
# Poissons Ratio (y) = 0.77395 0.22304
# Poissons Ratio (z) = 0.05517 0.05517
#
# Static dielectric constant tensor:
#      x y z
#    x 1.732310 0.000000 0.000000 
#    y 0.000000 1.732310 0.000000 
#    z 0.000000 0.000000 1.740570 
# 
# From -- ./inp_files/6232.got.cif
#   From: 2010.05.17/outbox.cif.g08.bks.cpg/sg138_4_cif.got.tgz:6232.got - 2010.05.20 13:08:53.
