data_PCOD9571613
_publ_section_title
;
Structure prediction by ZEFSAII (Michael W. Deem and Ramdas Pophale) SiO2 
 PCOD9571613
Probable space group: I 4/M M M
;
_chemical_formula_sum "Si O2"
_cell_formula_units_Z 136
_cell_length_a 26.688458
_cell_length_b 26.688458
_cell_length_c 10.892496
_cell_angle_alpha 90.000000
_cell_angle_beta 90.000000
_cell_angle_gamma 90.000000
_cell_volume 7758.439413
_symmetry_space_group_name_H-M "I 4/M M M"
_symmetry_group_IT_number 139
_symmetry_cell_setting 'tetragonal'
loop_
_space_group_symop_operation_xyz
x,y,z
-y,x,z
-x,-y,z
y,-x,z
x,-y,-z
-x,y,-z
y,x,-z
-y,-x,-z
-x,-y,-z
y,-x,-z
x,y,-z
-y,x,-z
-x,y,z
x,-y,z
-y,-x,z
y,x,z
1/2+x,1/2+y,1/2+z
1/2-y,1/2+x,1/2+z
1/2-x,1/2-y,1/2+z
1/2+y,1/2-x,1/2+z
1/2+x,1/2-y,1/2-z
1/2-x,1/2+y,1/2-z
1/2+y,1/2+x,1/2-z
1/2-y,1/2-x,1/2-z
1/2-x,1/2-y,1/2-z
1/2+y,1/2-x,1/2-z
1/2+x,1/2+y,1/2-z
1/2-y,1/2+x,1/2-z
1/2-x,1/2+y,1/2+z
1/2+x,1/2-y,1/2+z
1/2-y,1/2-x,1/2+z
1/2+y,1/2+x,1/2+z
loop_
_atom_site_type_symbol
_atom_site_label
_atom_site_fract_x
_atom_site_fract_y
_atom_site_fract_z
Si Si1 0.383366 0.059499 0.141690
Si Si2 0.500000 0.584180 0.500000
Si Si3 0.500000 0.667034 0.286414
Si Si4 0.688921 0.608487 0.645606
Si Si5 0.577882 0.500000 0.143836
Si Si6 0.356288 0.800800 0.641277
O O1 0.418911 0.081090 0.250000
O O2 0.331874 0.091425 0.149967
O O3 0.375885 0.000000 0.157308
O O4 0.402184 0.067335 0.000000
O O5 0.451705 0.548296 0.500000
O O6 0.500000 0.621312 0.384733
O O7 0.552645 0.694016 0.301726
O O8 0.500000 0.636286 0.162478
O O9 0.680475 0.601927 0.500000
O O10 0.642710 0.642710 0.692823
O O11 0.741843 0.635898 0.659819
O O12 0.548475 0.548475 0.194704
O O13 0.570199 0.500000 0.000000
O O14 0.338015 0.808761 0.500000
O O15 0.322110 0.822110 0.750000
#
# Coordination Sequence:
#
# PCOD9571613 Si02
#       6
#    32   8  16  32  16  32
#     4   9  18  32  51  75 105 137 175 211 251 308
#     4  11  20  28  44  72 108 144 172 206 257 312
#     4  12  20  31  50  74 110 136 169 218 269 322
#     4  10  20  33  51  79 109 137 171 216 268 321
#     4   9  18  32  48  64  90 138 190 223 252 300
#     4   9  19  36  57  78 104 138 178 221 268 317
#
# _framework density 17.529299000000002
#
# number of rings (size 3 to 8) (size 9 to 14) (size 15 to 20)
#    0.000    2.294    1.176    2.471    1.647    2.118 
#    0.000    2.353    0.000    1.412    0.000    0.000 
#    0.000    0.000    0.000    0.000    0.000    0.000 
#
# Total GULP energy -378585.677833 kJ/mol
# GULP energy per Si atom -5567.436439 kJ/mol
# Density = 1.748940 g / cm^3
# Si number density = 17.529299 Si / 1000 Ang^3
#
#
#
# Elastic Constant Matrix: (Units=GPa)
#
#
# Indices 1 2 3 4 5 6 
#
# 1 70.6081 25.2991 33.6268 0.0000 0.0000 0.0000
# 2 25.2991 70.6083 33.6268 0.0000 0.0000 0.0000
# 3 33.6268 33.6268 71.8169 0.0000 0.0000 0.0000
# 4 0.0000 0.0000 0.0000 23.2357 0.0000 0.0000
# 5 0.0000 0.0000 0.0000 0.0000 23.2360 0.0000
# 6 0.0000 0.0000 0.0000 0.0000 0.0000 12.1675
#
#
#
# Elastic Compliance Matrix: (Units=1/GPa)
#
#
# Indices 1 2 3 4 5 6 
#
# 1 0.018797 -0.003273 -0.007269 0.000000 0.000000 0.000000
# 2 -0.003273 0.018797 -0.007269 0.000000 0.000000 0.000000
# 3 -0.007269 -0.007269 0.020731 0.000000 0.000000 0.000000
# 4 0.000000 0.000000 0.000000 0.043037 0.000000 0.000000
# 5 0.000000 0.000000 0.000000 0.000000 0.043037 0.000000
# 6 0.000000 0.000000 0.000000 0.000000 0.000000 0.082186
#
#
# Mechanical properties :
#
#
# Convention : Reuss Voigt Hill
#
# Bulk Modulus (GPa) = 44.04522 44.23762 44.14142
# Shear Modulus (GPa) = 18.53396 19.75989 19.14692
#
# Velocity S-wave (km/s) = 3.25516 3.36110 3.30855
# Velocity P-wave (km/s) = 6.26971 6.35246 6.31122
#
# Compressibility (1/GPa) = 0.02270394
#
# Stress axis : x y z
#
# Youngs Moduli (GPa) = 53.19925 53.19946 48.23660
#
# Poissons Ratio (x) = 0.17414 0.35062
# Poissons Ratio (y) = 0.17414 0.35062
# Poissons Ratio (z) = 0.38669 0.38669
#
# Static dielectric constant tensor:
#      x y z
#    x 1.605090 0.000000 0.000000 
#    y 0.000000 1.605090 0.000000 
#    z 0.000000 0.000000 1.676090 
# 
# From -- ./inp_files/3579.got.cif
#   From: 2010.05.17/outbox.cif.g08.bks.cpg/sg139_2_cif.got.tgz:3579.got - 2010.05.20 13:14:44.
