data_PCOD9571958
_publ_section_title
;
Structure prediction by ZEFSAII (Michael W. Deem and Ramdas Pophale) SiO2 
 PCOD9571958
Probable space group: I 4/M M M
;
_chemical_formula_sum "Si O2"
_cell_formula_units_Z 128
_cell_length_a 23.145283
_cell_length_b 23.145283
_cell_length_c 11.128696
_cell_angle_alpha 90.000000
_cell_angle_beta 90.000000
_cell_angle_gamma 90.000000
_cell_volume 5961.688355
_symmetry_space_group_name_H-M "I 4/M M M"
_symmetry_group_IT_number 139
_symmetry_cell_setting 'tetragonal'
loop_
_space_group_symop_operation_xyz
x,y,z
-y,x,z
-x,-y,z
y,-x,z
x,-y,-z
-x,y,-z
y,x,-z
-y,-x,-z
-x,-y,-z
y,-x,-z
x,y,-z
-y,x,-z
-x,y,z
x,-y,z
-y,-x,z
y,x,z
1/2+x,1/2+y,1/2+z
1/2-y,1/2+x,1/2+z
1/2-x,1/2-y,1/2+z
1/2+y,1/2-x,1/2+z
1/2+x,1/2-y,1/2-z
1/2-x,1/2+y,1/2-z
1/2+y,1/2+x,1/2-z
1/2-y,1/2-x,1/2-z
1/2-x,1/2-y,1/2-z
1/2+y,1/2-x,1/2-z
1/2+x,1/2+y,1/2-z
1/2-y,1/2+x,1/2-z
1/2-x,1/2+y,1/2+z
1/2+x,1/2-y,1/2+z
1/2-y,1/2-x,1/2+z
1/2+y,1/2+x,1/2+z
loop_
_atom_site_type_symbol
_atom_site_label
_atom_site_fract_x
_atom_site_fract_y
_atom_site_fract_z
Si Si1 0.566672 0.258757 0.632189
Si Si2 0.317812 0.822021 0.873955
Si Si3 0.835570 0.931894 0.633950
Si Si4 0.117745 0.565416 0.866633
O O1 0.571116 0.289086 0.500000
O O2 0.500000 0.239243 0.642689
O O3 0.613095 0.207972 0.624623
O O4 0.580571 0.296585 0.749384
O O5 0.296105 0.796105 0.750000
O O6 0.386608 0.832014 0.867075
O O7 0.302623 0.793782 0.000000
O O8 0.809039 0.921631 0.500000
O O9 0.891771 0.891771 0.640587
O O10 0.849653 0.000000 0.639829
O O11 0.139505 0.500000 0.858080
O O12 0.079064 0.579064 0.750000
O O13 0.089333 0.571008 0.000000
#
# Coordination Sequence:
#
# PCOD9571958 Si02
#       4
#    32  32  32  32
#     4   9  18  33  52  73 101 141 185 224 262 309
#     4   9  18  31  47  68  94 126 168 218 269 316
#     4   9  18  33  55  85 118 147 173 203 244 299
#     4   9  18  31  44  59  83 117 157 202 254 311
#
# _framework density 21.470427000000001
#
# number of rings (size 3 to 8) (size 9 to 14) (size 15 to 20)
#    0.000    3.000    0.000    0.000    0.000    6.500 
#    0.000    7.500    0.000    3.750    0.000    3.500 
#    0.000    0.000    0.000    0.000    0.000    0.000 
#
# Total GULP energy -356395.276569 kJ/mol
# GULP energy per Si atom -5568.676196 kJ/mol
# Density = 2.142156 g / cm^3
# Si number density = 21.470427 Si / 1000 Ang^3
#
#
#
# Elastic Constant Matrix: (Units=GPa)
#
#
# Indices 1 2 3 4 5 6 
#
# 1 45.7369 47.1046 38.3737 0.0000 0.0000 0.0000
# 2 47.1046 45.7369 38.3737 0.0000 0.0000 0.0000
# 3 38.3737 38.3737 266.5271 0.0000 0.0000 0.0000
# 4 0.0000 0.0000 0.0000 17.7418 0.0000 0.0000
# 5 0.0000 0.0000 0.0000 0.0000 17.7418 0.0000
# 6 0.0000 0.0000 0.0000 0.0000 0.0000 7.6475
#
#
#
# Elastic Compliance Matrix: (Units=1/GPa)
#
#
# Indices 1 2 3 4 5 6 
#
# 1 -0.359444 0.371670 -0.001760 0.000000 0.000000 0.000000
# 2 0.371670 -0.359444 -0.001760 0.000000 0.000000 0.000000
# 3 -0.001760 -0.001760 0.004259 0.000000 0.000000 0.000000
# 4 0.000000 0.000000 0.000000 0.056364 0.000000 0.000000
# 5 0.000000 0.000000 0.000000 0.000000 0.056364 0.000000
# 6 0.000000 0.000000 0.000000 0.000000 0.000000 0.130762
#
#
# Mechanical properties :
#
#
# Convention : Reuss Voigt Hill
#
# Bulk Modulus (GPa) = 46.14659 67.30056 56.72357
# Shear Modulus (GPa) = -4.16593 24.23612 10.03510
#
# Velocity S-wave (km/s) = -1.39446 3.36343 2.16427
# Velocity P-wave (km/s) = 4.35282 6.81889 5.72033
#
# Compressibility (1/GPa) = 0.02167007
#
# Stress axis : x y z
#
# Youngs Moduli (GPa) = -2.78208 -2.78208 234.80543
#
# Poissons Ratio (x) = 1.03401 0.41333
# Poissons Ratio (y) = 1.03401 0.41333
# Poissons Ratio (z) = -0.00490 -0.00490
#
# Static dielectric constant tensor:
#      x y z
#    x 1.737970 0.000000 0.000000 
#    y 0.000000 1.737970 0.000000 
#    z 0.000000 0.000000 1.922650 
# 
# From -- ./inp_files/3411.got.cif
#   From: 2010.05.17/outbox.cif.g08.bks.cpg/sg139_2_cif.got.tgz:3411.got - 2010.05.20 13:14:44.
