data_PCOD9571000
_publ_section_title
;
Structure prediction by ZEFSAII (Michael W. Deem and Ramdas Pophale) SiO2 
 PCOD9571000
Probable space group: P 42/N C M
;
_chemical_formula_sum "Si O2"
_cell_formula_units_Z 72
_cell_length_a 11.397881
_cell_length_b 11.397881
_cell_length_c 28.539010
_cell_angle_alpha 90.000000
_cell_angle_beta 90.000000
_cell_angle_gamma 90.000000
_cell_volume 3707.551057
_symmetry_space_group_name_H-M "P 42/N C M"
_symmetry_group_IT_number 138
_space_group.IT_coordinate_system_code '2'
_symmetry_cell_setting 'tetragonal'
loop_
_space_group_symop_operation_xyz
x,y,z
1/2-y,x,1/2+z
1/2-x,1/2-y,z
y,1/2-x,1/2+z
1/2+x,-y,1/2-z
-x,1/2+y,1/2-z
1/2+y,1/2+x,-z
-y,-x,-z
-x,-y,-z
1/2+y,-x,1/2-z
1/2+x,1/2+y,-z
-y,1/2+x,1/2-z
1/2-x,y,1/2+z
x,1/2-y,1/2+z
1/2-y,1/2-x,z
y,x,z
loop_
_atom_site_type_symbol
_atom_site_label
_atom_site_fract_x
_atom_site_fract_y
_atom_site_fract_z
Si Si1 0.649440 0.850561 0.977994
Si Si2 0.226315 0.889619 0.373376
Si Si3 0.656702 0.843299 0.789545
Si Si4 0.453018 0.046983 0.117579
Si Si5 0.436207 0.765534 0.732809
Si Si6 0.479642 0.679275 0.029850
O O1 0.750000 0.750000 0.973305
O O2 0.606412 0.893589 0.927545
O O3 0.541421 0.791863 0.006114
O O4 0.250000 0.750000 0.370248
O O5 0.263566 0.942109 0.323251
O O6 0.295679 0.939799 0.417577
O O7 0.090715 0.922399 0.382063
O O8 0.750000 0.750000 0.806884
O O9 0.597437 0.902564 0.834136
O O10 0.559383 0.780832 0.757753
O O11 0.371207 0.647702 0.750004
O O12 0.578343 0.578343 0.029949
O O13 0.370652 0.629349 0.000000
#
# Coordination Sequence:
#
# PCOD9571000 Si02
#       6
#     8  16   8   8  16  16
#     4  10  22  43  64  90 132 172 202 272 328 371
#     4  12  24  41  66  95 125 172 216 268 332 392
#     4  12  27  41  69 100 128 174 226 275 327 411
#     4  12  24  42  68  95 130 167 227 269 325 406
#     4  11  23  47  67  93 137 173 215 277 339 388
#     4  10  23  42  63  94 132 167 217 266 325 401
#
# _framework density 19.419827999999999
#
# number of rings (size 3 to 8) (size 9 to 14) (size 15 to 20)
#    0.000    0.889    4.444    2.333    4.667    4.000 
#    0.000    3.333    0.000    0.000    0.000    0.000 
#    0.000    0.000    0.000    0.000    0.000    0.000 
#
# Total GULP energy -402717.124118 kJ/mol
# GULP energy per Si atom -5593.293391 kJ/mol
# Density = 1.937563 g / cm^3
# Si number density = 19.419828 Si / 1000 Ang^3
#
#
#
# Elastic Constant Matrix: (Units=GPa)
#
#
# Indices 1 2 3 4 5 6 
#
# 1 -61.8153 138.9417 19.3489 0.0000 0.0000 0.0000
# 2 138.9417 -61.8156 19.3519 0.0000 0.0000 0.0000
# 3 19.3489 19.3519 173.6488 0.0000 0.0000 0.0000
# 4 0.0000 0.0000 0.0000 45.8161 0.0000 0.0000
# 5 0.0000 0.0000 0.0000 0.0000 45.8150 0.0000
# 6 0.0000 0.0000 0.0000 0.0000 0.0000 19.1240
#
#
#
# Elastic Compliance Matrix: (Units=1/GPa)
#
#
# Indices 1 2 3 4 5 6 
#
# 1 0.004376 0.009357 -0.001530 0.000000 0.000000 0.000000
# 2 0.009357 0.004376 -0.001530 0.000000 0.000000 0.000000
# 3 -0.001530 -0.001530 0.006100 0.000000 0.000000 0.000000
# 4 0.000000 0.000000 0.000000 0.021826 0.000000 0.000000
# 5 0.000000 0.000000 0.000000 0.000000 0.021827 0.000000
# 6 0.000000 0.000000 0.000000 0.000000 0.000000 0.052290
#
#
# Mechanical properties :
#
#
# Convention : Reuss Voigt Hill
#
# Bulk Modulus (GPa) = 36.43570 45.03365 40.73467
# Shear Modulus (GPa) = 46.57609 13.64273 30.10941
#
# Velocity S-wave (km/s) = 4.90264 2.65338 3.94184
# Velocity P-wave (km/s) = 7.13096 5.71201 6.46056
#
# Compressibility (1/GPa) = 0.02744561
#
# Stress axis : x y z
#
# Youngs Moduli (GPa) = 228.50310 228.50664 163.93909
#
# Poissons Ratio (x) = -2.13823 0.25090
# Poissons Ratio (y) = -2.13820 0.25088
# Poissons Ratio (z) = 0.34971 0.34970
#
# Static dielectric constant tensor:
#      x y z
#    x 1.622740 0.000000 0.000000 
#    y 0.000000 1.622740 0.000000 
#    z 0.000000 0.000000 1.633790 
# 
# From -- ./inp_files/7447.got.cif
#   From: 2010.05.17/outbox.cif.g08.bks.cpg/sg138_4_cif.got.tgz:7447.got - 2010.05.20 13:08:53.
