data_PCOD9571177
_publ_section_title
;
Structure prediction by ZEFSAII (Michael W. Deem and Ramdas Pophale) SiO2 
 PCOD9571177
Probable space group: I 4/M M M
;
_chemical_formula_sum "Si O2"
_cell_formula_units_Z 112
_cell_length_a 36.370316
_cell_length_b 36.370316
_cell_length_c 5.337933
_cell_angle_alpha 90.000000
_cell_angle_beta 90.000000
_cell_angle_gamma 90.000000
_cell_volume 7061.017164
_symmetry_space_group_name_H-M "I 4/M M M"
_symmetry_group_IT_number 139
_symmetry_cell_setting 'tetragonal'
loop_
_space_group_symop_operation_xyz
x,y,z
-y,x,z
-x,-y,z
y,-x,z
x,-y,-z
-x,y,-z
y,x,-z
-y,-x,-z
-x,-y,-z
y,-x,-z
x,y,-z
-y,x,-z
-x,y,z
x,-y,z
-y,-x,z
y,x,z
1/2+x,1/2+y,1/2+z
1/2-y,1/2+x,1/2+z
1/2-x,1/2-y,1/2+z
1/2+y,1/2-x,1/2+z
1/2+x,1/2-y,1/2-z
1/2-x,1/2+y,1/2-z
1/2+y,1/2+x,1/2-z
1/2-y,1/2-x,1/2-z
1/2-x,1/2-y,1/2-z
1/2+y,1/2-x,1/2-z
1/2+x,1/2+y,1/2-z
1/2-y,1/2+x,1/2-z
1/2-x,1/2+y,1/2+z
1/2+x,1/2-y,1/2+z
1/2-y,1/2-x,1/2+z
1/2+y,1/2+x,1/2+z
loop_
_atom_site_type_symbol
_atom_site_label
_atom_site_fract_x
_atom_site_fract_y
_atom_site_fract_z
Si Si1 0.544777 0.791070 0.500000
Si Si2 0.955912 0.662939 0.500000
Si Si3 0.900329 0.221680 0.000000
Si Si4 0.657100 0.459922 0.500000
Si Si5 0.628278 0.431251 0.000000
Si Si6 0.578529 0.955662 0.500000
Si Si7 0.868505 0.192476 0.500000
O O1 0.500000 0.782425 0.500000
O O2 0.553123 0.814766 0.748549
O O3 0.572464 0.756580 0.500000
O O4 0.942519 0.621024 0.500000
O O5 0.000000 0.660119 0.500000
O O6 0.928509 0.187553 0.000000
O O7 0.875939 0.216382 0.250356
O O8 0.674832 0.500000 0.500000
O O9 0.633719 0.454406 0.250143
O O10 0.590438 0.409563 0.000000
O O11 0.660543 0.400022 0.000000
O O12 0.559060 0.940941 0.250000
O O13 0.577533 0.000000 0.500000
O O14 0.830091 0.169910 0.500000
#
# Coordination Sequence:
#
# PCOD9571177 Si02
#       7
#    16  16  16  16  16  16  16
#     4  10  18  30  46  65  91 122 161 199 230 268
#     4   9  19  33  48  66  92 127 161 196 236 285
#     4  10  18  27  42  62  84 115 151 182 216 257
#     4  10  18  27  39  58  81  98 122 165 210 242
#     4   9  17  28  40  52  72 101 127 155 195 251
#     4  11  22  36  54  76 102 132 170 212 255 296
#     4   9  17  28  40  56  81 114 149 180 214 262
#
# _framework density 15.861738000000001
#
# number of rings (size 3 to 8) (size 9 to 14) (size 15 to 20)
#    0.000    2.286    0.000    3.857    0.000    6.571 
#    0.000    4.286    0.000    0.000    0.000    0.000 
#    0.000   20.000    0.000    0.000    0.000  180.000 
#
# Total GULP energy -311936.750553 kJ/mol
# GULP energy per Si atom -5570.299117 kJ/mol
# Density = 1.582564 g / cm^3
# Si number density = 15.861738 Si / 1000 Ang^3
#
#
#
# Elastic Constant Matrix: (Units=GPa)
#
#
# Indices 1 2 3 4 5 6 
#
# 1 71.4316 35.5721 58.1464 0.0000 0.0000 0.0000
# 2 35.5721 71.4313 58.1447 0.0000 0.0000 0.0000
# 3 58.1464 58.1447 184.3965 0.0000 0.0000 0.0000
# 4 0.0000 0.0000 0.0000 14.6702 0.0000 0.0000
# 5 0.0000 0.0000 0.0000 0.0000 14.6616 0.0000
# 6 0.0000 0.0000 0.0000 0.0000 0.0000 1.8875
#
#
#
# Elastic Compliance Matrix: (Units=1/GPa)
#
#
# Indices 1 2 3 4 5 6 
#
# 1 0.021052 -0.006834 -0.004484 0.000000 0.000000 0.000000
# 2 -0.006834 0.021052 -0.004483 0.000000 0.000000 0.000000
# 3 -0.004484 -0.004483 0.008251 0.000000 0.000000 0.000000
# 4 0.000000 0.000000 0.000000 0.068165 0.000000 0.000000
# 5 0.000000 0.000000 0.000000 0.000000 0.068205 0.000000
# 6 0.000000 0.000000 0.000000 0.000000 0.000000 0.529803
#
#
# Mechanical properties :
#
#
# Convention : Reuss Voigt Hill
#
# Bulk Modulus (GPa) = 53.32443 70.10954 61.71698
# Shear Modulus (GPa) = 6.62794 17.93694 12.28244
#
# Velocity S-wave (km/s) = 2.04637 3.36643 2.78572
# Velocity P-wave (km/s) = 6.26696 7.70758 7.02430
#
# Compressibility (1/GPa) = 0.01875313
#
# Stress axis : x y z
#
# Youngs Moduli (GPa) = 47.50030 47.50101 121.20410
#
# Poissons Ratio (x) = 0.32464 0.54342
# Poissons Ratio (y) = 0.32464 0.54338
# Poissons Ratio (z) = 0.21297 0.21295
#
# Static dielectric constant tensor:
#      x y z
#    x 1.515230 0.000000 0.000000 
#    y 0.000000 1.515230 0.000000 
#    z 0.000000 0.000000 1.553630 
# 
# From -- ./inp_files/242.got.cif
#   From: 2010.05.17/outbox.cif.g08.bks.cpg/sg139_1_cif.got.tgz:242.got - 2010.05.20 13:14:44.
