data_PCOD9571400
_publ_section_title
;
Structure prediction by ZEFSAII (Michael W. Deem and Ramdas Pophale) SiO2 
 PCOD9571400
Probable space group: I 4/M M M
;
_chemical_formula_sum "Si O2"
_cell_formula_units_Z 176
_cell_length_a 26.882908
_cell_length_b 26.882908
_cell_length_c 14.019720
_cell_angle_alpha 90.000000
_cell_angle_beta 90.000000
_cell_angle_gamma 90.000000
_cell_volume 10131.921857
_symmetry_space_group_name_H-M "I 4/M M M"
_symmetry_group_IT_number 139
_symmetry_cell_setting 'tetragonal'
loop_
_space_group_symop_operation_xyz
x,y,z
-y,x,z
-x,-y,z
y,-x,z
x,-y,-z
-x,y,-z
y,x,-z
-y,-x,-z
-x,-y,-z
y,-x,-z
x,y,-z
-y,x,-z
-x,y,z
x,-y,z
-y,-x,z
y,x,z
1/2+x,1/2+y,1/2+z
1/2-y,1/2+x,1/2+z
1/2-x,1/2-y,1/2+z
1/2+y,1/2-x,1/2+z
1/2+x,1/2-y,1/2-z
1/2-x,1/2+y,1/2-z
1/2+y,1/2+x,1/2-z
1/2-y,1/2-x,1/2-z
1/2-x,1/2-y,1/2-z
1/2+y,1/2-x,1/2-z
1/2+x,1/2+y,1/2-z
1/2-y,1/2+x,1/2-z
1/2-x,1/2+y,1/2+z
1/2+x,1/2-y,1/2+z
1/2-y,1/2-x,1/2+z
1/2+y,1/2+x,1/2+z
loop_
_atom_site_type_symbol
_atom_site_label
_atom_site_fract_x
_atom_site_fract_y
_atom_site_fract_z
Si Si1 0.293642 0.878027 0.387718
Si Si2 0.302629 0.122360 0.891407
Si Si3 0.140054 0.943722 0.500000
Si Si4 0.685659 0.601087 0.813718
Si Si5 0.359572 0.058759 0.261189
Si Si6 0.897226 0.812845 0.104550
O O1 0.282981 0.879544 0.500000
O O2 0.325281 0.828318 0.365519
O O3 0.242242 0.881938 0.331136
O O4 0.330676 0.922140 0.355361
O O5 0.324501 0.080185 0.823014
O O6 0.243292 0.123367 0.890369
O O7 0.318511 0.111757 0.000000
O O8 0.094563 0.905438 0.500000
O O9 0.171060 0.932869 0.596332
O O10 0.122709 0.000000 0.500000
O O11 0.648507 0.648507 0.817256
O O12 0.679871 0.577127 0.708040
O O13 0.411112 0.088889 0.250000
O O14 0.365161 0.000000 0.258372
O O15 0.852455 0.852455 0.103010
O O16 0.923223 0.817465 0.000000
#
# Coordination Sequence:
#
# PCOD9571400 Si02
#       6
#    32  32  16  32  32  32
#     4  10  19  32  48  72 103 135 166 207 257 312
#     4   9  18  32  49  69  99 132 170 209 250 305
#     4  10  22  39  58  82 110 140 175 213 255 301
#     4  10  19  32  51  78 112 143 172 210 253 300
#     4  10  21  36  52  70  92 122 166 217 271 322
#     4   9  17  30  48  73 107 146 180 207 242 294
#
# _framework density 17.370840000000001
#
# number of rings (size 3 to 8) (size 9 to 14) (size 15 to 20)
#    0.000    2.364    2.727    0.000    0.000    2.455 
#    0.000    3.636    0.000    0.545    0.000    5.091 
#    0.000    0.000    0.000    7.091    0.000    0.000 
#
# Total GULP energy -489925.641855 kJ/mol
# GULP energy per Si atom -5567.336839 kJ/mol
# Density = 1.733130 g / cm^3
# Si number density = 17.370840 Si / 1000 Ang^3
#
#
#
# Elastic Constant Matrix: (Units=GPa)
#
#
# Indices 1 2 3 4 5 6 
#
# 1 38.7746 -10.8207 10.3884 0.0000 0.0000 0.0000
# 2 -10.8207 38.7747 10.3879 0.0000 0.0000 0.0000
# 3 10.3884 10.3879 147.9425 0.0000 0.0000 0.0000
# 4 0.0000 0.0000 0.0000 10.8584 0.0000 0.0000
# 5 0.0000 0.0000 0.0000 0.0000 10.8579 0.0000
# 6 0.0000 0.0000 0.0000 0.0000 0.0000 -0.2448
#
#
#
# Elastic Compliance Matrix: (Units=1/GPa)
#
#
# Indices 1 2 3 4 5 6 
#
# 1 0.028953 0.008790 -0.002650 0.000000 0.000000 0.000000
# 2 0.008790 0.028953 -0.002650 0.000000 0.000000 0.000000
# 3 -0.002650 -0.002650 0.007132 0.000000 0.000000 0.000000
# 4 0.000000 0.000000 0.000000 0.092095 0.000000 0.000000
# 5 0.000000 0.000000 0.000000 0.000000 0.092099 0.000000
# 6 0.000000 0.000000 0.000000 0.000000 0.000000 -4.084502
#
#
# Mechanical properties :
#
#
# Convention : Reuss Voigt Hill
#
# Bulk Modulus (GPa) = 13.88573 27.26701 20.57637
# Shear Modulus (GPa) = -1.30950 18.66337 8.67694
#
# Velocity S-wave (km/s) = -0.86919 3.28137 2.23740
# Velocity P-wave (km/s) = 2.64646 5.48522 4.30647
#
# Compressibility (1/GPa) = 0.07201636
#
# Stress axis : x y z
#
# Youngs Moduli (GPa) = 34.53866 34.53883 140.22171
#
# Poissons Ratio (x) = -0.30359 0.37162
# Poissons Ratio (y) = -0.30359 0.37161
# Poissons Ratio (z) = 0.09154 0.09153
#
# Static dielectric constant tensor:
#      x y z
#    x 1.556590 0.000000 0.000000 
#    y 0.000000 1.556590 0.000000 
#    z 0.000000 0.000000 1.680060 
# 
# From -- ./inp_files/6410.got.cif
#   From: 2010.05.17/outbox.cif.g08.bks.cpg/sg139_4_cif.got.tgz:6410.got - 2010.05.20 13:14:44.
