data_PCOD9571603
_publ_section_title
;
Structure prediction by ZEFSAII (Michael W. Deem and Ramdas Pophale) SiO2 
 PCOD9571603
Probable space group: I 4/M M M
;
_chemical_formula_sum "Si O2"
_cell_formula_units_Z 160
_cell_length_a 30.474257
_cell_length_b 30.474257
_cell_length_c 9.623266
_cell_angle_alpha 90.000000
_cell_angle_beta 90.000000
_cell_angle_gamma 90.000000
_cell_volume 8936.937938
_symmetry_space_group_name_H-M "I 4/M M M"
_symmetry_group_IT_number 139
_symmetry_cell_setting 'tetragonal'
loop_
_space_group_symop_operation_xyz
x,y,z
-y,x,z
-x,-y,z
y,-x,z
x,-y,-z
-x,y,-z
y,x,-z
-y,-x,-z
-x,-y,-z
y,-x,-z
x,y,-z
-y,x,-z
-x,y,z
x,-y,z
-y,-x,z
y,x,z
1/2+x,1/2+y,1/2+z
1/2-y,1/2+x,1/2+z
1/2-x,1/2-y,1/2+z
1/2+y,1/2-x,1/2+z
1/2+x,1/2-y,1/2-z
1/2-x,1/2+y,1/2-z
1/2+y,1/2+x,1/2-z
1/2-y,1/2-x,1/2-z
1/2-x,1/2-y,1/2-z
1/2+y,1/2-x,1/2-z
1/2+x,1/2+y,1/2-z
1/2-y,1/2+x,1/2-z
1/2-x,1/2+y,1/2+z
1/2+x,1/2-y,1/2+z
1/2-y,1/2-x,1/2+z
1/2+y,1/2+x,1/2+z
loop_
_atom_site_type_symbol
_atom_site_label
_atom_site_fract_x
_atom_site_fract_y
_atom_site_fract_z
Si Si1 0.215713 0.886358 0.662103
Si Si2 0.113235 0.113235 0.662882
Si Si3 0.949195 0.050806 0.833854
Si Si4 0.947712 0.298174 0.659124
Si Si5 0.759967 0.686491 0.654587
Si Si6 0.447093 0.116500 0.665378
O O1 0.218405 0.871841 0.500000
O O2 0.164784 0.896341 0.688671
O O3 0.251222 0.924848 0.681283
O O4 0.231136 0.848574 0.764711
O O5 0.104919 0.104919 0.500000
O O6 0.083023 0.083023 0.755829
O O7 0.000000 0.059896 0.798377
O O8 0.944817 0.055184 0.000000
O O9 0.937162 0.312167 0.500000
O O10 0.934905 0.336278 0.766921
O O11 0.000000 0.292767 0.668531
O O12 0.772500 0.672245 0.500000
O O13 0.729696 0.729696 0.641210
O O14 0.801052 0.698949 0.750000
O O15 0.437898 0.115086 0.500000
O O16 0.500000 0.111074 0.683354
O O17 0.420422 0.079579 0.750000
#
# Coordination Sequence:
#
# PCOD9571603 Si02
#       6
#    32  16  16  32  32  32
#     4  10  20  35  55  80 111 145 181 226 276 328
#     4  10  21  35  56  87 118 145 179 229 282 333
#     4   9  20  40  62  83 111 147 184 223 272 333
#     4   9  19  36  56  77 105 144 185 223 267 321
#     4  10  20  33  51  74 101 137 177 220 265 314
#     4  10  21  37  58  84 113 145 183 228 277 329
#
# _framework density 17.903223000000001
#
# number of rings (size 3 to 8) (size 9 to 14) (size 15 to 20)
#    0.000    2.300    1.000    1.500    0.000    5.800 
#    0.000    3.500    0.000    2.400    0.000    0.000 
#    0.000    0.000    0.000    0.000    0.000    0.000 
#
# Total GULP energy -446109.699103 kJ/mol
# GULP energy per Si atom -5576.371239 kJ/mol
# Density = 1.786247 g / cm^3
# Si number density = 17.903223 Si / 1000 Ang^3
#
#
#
# Elastic Constant Matrix: (Units=GPa)
#
#
# Indices 1 2 3 4 5 6 
#
# 1 60.3458 78.8312 80.1974 0.0000 0.0000 0.0000
# 2 78.8312 60.3557 80.1992 0.0000 0.0000 0.0000
# 3 80.1974 80.1992 132.4687 0.0000 0.0000 0.0000
# 4 0.0000 0.0000 0.0000 18.7284 0.0000 0.0000
# 5 0.0000 0.0000 0.0000 0.0000 18.7130 0.0000
# 6 0.0000 0.0000 0.0000 0.0000 0.0000 34.9298
#
#
#
# Elastic Compliance Matrix: (Units=1/GPa)
#
#
# Indices 1 2 3 4 5 6 
#
# 1 -0.015177 0.038939 -0.014386 0.000000 0.000000 0.000000
# 2 0.038939 -0.015167 -0.014391 0.000000 0.000000 0.000000
# 3 -0.014386 -0.014391 0.024971 0.000000 0.000000 0.000000
# 4 0.000000 0.000000 0.000000 0.053395 0.000000 0.000000
# 5 0.000000 0.000000 0.000000 0.000000 0.053439 0.000000
# 6 0.000000 0.000000 0.000000 0.000000 0.000000 0.028629
#
#
# Mechanical properties :
#
#
# Convention : Reuss Voigt Hill
#
# Bulk Modulus (GPa) = 66.89039 81.29178 74.09108
# Shear Modulus (GPa) = 43.57326 15.40373 29.48849
#
# Velocity S-wave (km/s) = 4.93873 2.93642 4.06286
# Velocity P-wave (km/s) = 8.36449 7.54994 7.96763
#
# Compressibility (1/GPa) = 0.01494983
#
# Stress axis : x y z
#
# Youngs Moduli (GPa) = -65.88839 -65.93133 40.04619
#
# Poissons Ratio (x) = 2.56730 0.57611
# Poissons Ratio (y) = 2.56562 0.57632
# Poissons Ratio (z) = -0.94787 -0.94884
#
# Static dielectric constant tensor:
#      x y z
#    x 1.605790 0.000000 0.000000 
#    y 0.000000 1.605790 0.000000 
#    z 0.000000 0.000000 1.620560 
# 
# From -- ./inp_files/2228.got.cif
#   From: 2010.05.17/outbox.cif.g08.bks.cpg/sg139_2_cif.got.tgz:2228.got - 2010.05.20 13:14:44.
