data_PCOD9571422
_publ_section_title
;
Structure prediction by ZEFSAII (Michael W. Deem and Ramdas Pophale) SiO2 
 PCOD9571422
Probable space group: I 4/M M M
;
_chemical_formula_sum "Si O2"
_cell_formula_units_Z 160
_cell_length_a 32.731904
_cell_length_b 32.731904
_cell_length_c 8.939705
_cell_angle_alpha 90.000000
_cell_angle_beta 90.000000
_cell_angle_gamma 90.000000
_cell_volume 9577.799146
_symmetry_space_group_name_H-M "I 4/M M M"
_symmetry_group_IT_number 139
_symmetry_cell_setting 'tetragonal'
loop_
_space_group_symop_operation_xyz
x,y,z
-y,x,z
-x,-y,z
y,-x,z
x,-y,-z
-x,y,-z
y,x,-z
-y,-x,-z
-x,-y,-z
y,-x,-z
x,y,-z
-y,x,-z
-x,y,z
x,-y,z
-y,-x,z
y,x,z
1/2+x,1/2+y,1/2+z
1/2-y,1/2+x,1/2+z
1/2-x,1/2-y,1/2+z
1/2+y,1/2-x,1/2+z
1/2+x,1/2-y,1/2-z
1/2-x,1/2+y,1/2-z
1/2+y,1/2+x,1/2-z
1/2-y,1/2-x,1/2-z
1/2-x,1/2-y,1/2-z
1/2+y,1/2-x,1/2-z
1/2+x,1/2+y,1/2-z
1/2-y,1/2+x,1/2-z
1/2-x,1/2+y,1/2+z
1/2+x,1/2-y,1/2+z
1/2-y,1/2-x,1/2+z
1/2+y,1/2+x,1/2+z
loop_
_atom_site_type_symbol
_atom_site_label
_atom_site_fract_x
_atom_site_fract_y
_atom_site_fract_z
Si Si1 0.113562 0.324056 0.179633
Si Si2 0.894823 0.105178 0.828830
Si Si3 0.175292 0.175292 0.827469
Si Si4 0.391555 0.046798 0.179751
Si Si5 0.235054 0.114051 0.320412
Si Si6 0.332923 0.546888 0.179879
O O1 0.151964 0.348037 0.250000
O O2 0.073979 0.351826 0.217100
O O3 0.109563 0.279298 0.248131
O O4 0.117524 0.322182 0.000000
O O5 0.859744 0.140257 0.827351
O O6 0.873586 0.067134 0.747744
O O7 0.904563 0.095438 0.000000
O O8 0.154624 0.213089 0.742938
O O9 0.184980 0.184980 0.000000
O O10 0.430151 0.069850 0.250000
O O11 0.388019 0.000000 0.229343
O O12 0.395561 0.047360 0.000000
O O13 0.237646 0.115966 0.500000
O O14 0.205500 0.075829 0.279571
O O15 0.327403 0.500000 0.227286
O O16 0.336068 0.548036 0.000000
#
# Coordination Sequence:
#
# PCOD9571422 Si02
#       6
#    32  16  16  32  32  32
#     4  10  20  35  53  72  98 133 168 201 243 295
#     4   9  17  29  47  71  99 131 165 204 248 290
#     4   9  17  31  50  72  98 130 167 202 242 292
#     4   9  19  35  53  74 100 130 165 204 246 293
#     4  10  19  32  51  75 102 130 163 205 248 289
#     4   9  18  32  50  73 101 133 167 201 241 293
#
# _framework density 16.705300000000001
#
# number of rings (size 3 to 8) (size 9 to 14) (size 15 to 20)
#    0.000    2.600    0.000    1.800    0.000    5.800 
#    0.000    1.500    0.000    0.300    0.000    2.100 
#    0.000    0.000    0.000    0.000    0.000    0.000 
#
# Total GULP energy -446042.663352 kJ/mol
# GULP energy per Si atom -5575.533292 kJ/mol
# Density = 1.666728 g / cm^3
# Si number density = 16.705300 Si / 1000 Ang^3
#
#
#
# Elastic Constant Matrix: (Units=GPa)
#
#
# Indices 1 2 3 4 5 6 
#
# 1 93.1533 119.8793 49.4046 0.0000 0.0000 0.0000
# 2 119.8793 93.2074 49.4216 0.0000 0.0000 0.0000
# 3 49.4046 49.4216 53.8169 0.0000 0.0000 0.0000
# 4 0.0000 0.0000 0.0000 24.8311 0.0000 0.0000
# 5 0.0000 0.0000 0.0000 0.0000 24.8301 0.0000
# 6 0.0000 0.0000 0.0000 0.0000 0.0000 10.1534
#
#
#
# Elastic Compliance Matrix: (Units=1/GPa)
#
#
# Indices 1 2 3 4 5 6 
#
# 1 -0.014643 0.022815 -0.007509 0.000000 0.000000 0.000000
# 2 0.022815 -0.014636 -0.007504 0.000000 0.000000 0.000000
# 3 -0.007509 -0.007504 0.032366 0.000000 0.000000 0.000000
# 4 0.000000 0.000000 0.000000 0.040272 0.000000 0.000000
# 5 0.000000 0.000000 0.000000 0.000000 0.040274 0.000000
# 6 0.000000 0.000000 0.000000 0.000000 0.000000 0.098489
#
#
# Mechanical properties :
#
#
# Convention : Reuss Voigt Hill
#
# Bulk Modulus (GPa) = 53.50165 75.28763 64.39464
# Shear Modulus (GPa) = 28.94414 13.39440 21.16927
#
# Velocity S-wave (km/s) = 4.16701 2.83469 3.56366
# Velocity P-wave (km/s) = 7.43291 7.47529 7.45413
#
# Compressibility (1/GPa) = 0.01869101
#
# Stress axis : x y z
#
# Youngs Moduli (GPa) = -68.29132 -68.32376 30.89698
#
# Poissons Ratio (x) = 1.55880 0.23201
# Poissons Ratio (y) = 1.55806 0.23184
# Poissons Ratio (z) = -0.51280 -0.51267
#
# Static dielectric constant tensor:
#      x y z
#    x 1.547290 0.000000 0.000000 
#    y 0.000000 1.547290 0.000000 
#    z 0.000000 0.000000 1.560640 
# 
# From -- ./inp_files/2209.got.cif
#   From: 2010.05.17/outbox.cif.g08.bks.cpg/sg139_2_cif.got.tgz:2209.got - 2010.05.20 13:14:44.
