data_PCOD9571719
_publ_section_title
;
Structure prediction by ZEFSAII (Michael W. Deem and Ramdas Pophale) SiO2 
 PCOD9571719
Probable space group: I 4/M M M
;
_chemical_formula_sum "Si O2"
_cell_formula_units_Z 240
_cell_length_a 30.193979
_cell_length_b 30.193979
_cell_length_c 13.581642
_cell_angle_alpha 90.000000
_cell_angle_beta 90.000000
_cell_angle_gamma 90.000000
_cell_volume 12382.062048
_symmetry_space_group_name_H-M "I 4/M M M"
_symmetry_group_IT_number 139
_symmetry_cell_setting 'tetragonal'
loop_
_space_group_symop_operation_xyz
x,y,z
-y,x,z
-x,-y,z
y,-x,z
x,-y,-z
-x,y,-z
y,x,-z
-y,-x,-z
-x,-y,-z
y,-x,-z
x,y,-z
-y,x,-z
-x,y,z
x,-y,z
-y,-x,z
y,x,z
1/2+x,1/2+y,1/2+z
1/2-y,1/2+x,1/2+z
1/2-x,1/2-y,1/2+z
1/2+y,1/2-x,1/2+z
1/2+x,1/2-y,1/2-z
1/2-x,1/2+y,1/2-z
1/2+y,1/2+x,1/2-z
1/2-y,1/2-x,1/2-z
1/2-x,1/2-y,1/2-z
1/2+y,1/2-x,1/2-z
1/2+x,1/2+y,1/2-z
1/2-y,1/2+x,1/2-z
1/2-x,1/2+y,1/2+z
1/2+x,1/2-y,1/2+z
1/2-y,1/2-x,1/2+z
1/2+y,1/2+x,1/2+z
loop_
_atom_site_type_symbol
_atom_site_label
_atom_site_fract_x
_atom_site_fract_y
_atom_site_fract_z
Si Si1 0.552559 0.629844 0.500000
Si Si2 0.669724 0.402365 0.311706
Si Si3 0.643518 0.051334 0.607750
Si Si4 0.694613 0.233184 0.880608
Si Si5 0.699690 0.377444 0.114719
Si Si6 0.855919 0.743567 0.116908
Si Si7 0.450855 0.913656 0.618315
Si Si8 0.404339 0.832498 0.285544
O O1 0.500000 0.618171 0.500000
O O2 0.587179 0.587179 0.500000
O O3 0.563950 0.659032 0.401343
O O4 0.624321 0.375680 0.299822
O O5 0.686085 0.412401 0.199723
O O6 0.707691 0.368096 0.347560
O O7 0.646314 0.072733 0.500000
O O8 0.592682 0.057767 0.644807
O O9 0.677190 0.072298 0.683006
O O10 0.651523 0.000000 0.600592
O O11 0.728706 0.271295 0.853492
O O12 0.646674 0.253727 0.855438
O O13 0.718455 0.188323 0.846549
O O14 0.692957 0.230002 0.000000
O O15 0.661648 0.338353 0.115978
O O16 0.702447 0.392137 0.000000
O O17 0.893431 0.709486 0.150427
O O18 0.852511 0.745999 0.000000
O O19 0.452656 0.915096 0.500000
O O20 0.500000 0.926572 0.653714
O O21 0.436793 0.865130 0.654546
O O22 0.361664 0.861664 0.250000
#
# Coordination Sequence:
#
# PCOD9571719 Si02
#       8
#    16  32  32  32  32  32  32  32
#     4  10  22  43  68  96 126 156 192 238 299 371
#     4  10  20  35  59  87 119 154 189 236 292 343
#     4   9  18  34  54  72  91 118 156 210 278 345
#     4   8  15  27  45  72 108 149 194 243 280 313
#     4   8  15  29  49  78 118 161 202 238 275 317
#     4  11  21  32  48  73 107 148 195 236 284 332
#     4   9  17  31  51  73  95 116 146 200 270 340
#     4  10  21  33  45  63  95 134 178 218 261 321
#
# _framework density 19.382878000000002
#
# number of rings (size 3 to 8) (size 9 to 14) (size 15 to 20)
#    0.000    2.667    0.667    2.000    1.867    1.400 
#    0.000    5.333    0.000    2.800    0.000    0.000 
#    0.000    0.000    0.000    5.200    0.000    0.000 
#
# Total GULP energy -668103.233271 kJ/mol
# GULP energy per Si atom -5567.526944 kJ/mol
# Density = 1.933876 g / cm^3
# Si number density = 19.382878 Si / 1000 Ang^3
#
#
#
# Elastic Constant Matrix: (Units=GPa)
#
#
# Indices 1 2 3 4 5 6 
#
# 1 27.7318 17.9321 16.8491 0.0000 0.0000 0.0000
# 2 17.9321 27.7318 16.8491 0.0000 0.0000 0.0000
# 3 16.8491 16.8491 75.9166 0.0000 0.0000 0.0000
# 4 0.0000 0.0000 0.0000 18.1015 0.0000 0.0000
# 5 0.0000 0.0000 0.0000 0.0000 18.1015 0.0000
# 6 0.0000 0.0000 0.0000 0.0000 0.0000 10.9993
#
#
#
# Elastic Compliance Matrix: (Units=1/GPa)
#
#
# Indices 1 2 3 4 5 6 
#
# 1 0.064116 -0.037928 -0.005812 0.000000 0.000000 0.000000
# 2 -0.037928 0.064116 -0.005812 0.000000 0.000000 0.000000
# 3 -0.005812 -0.005812 0.015752 0.000000 0.000000 0.000000
# 4 0.000000 0.000000 0.000000 0.055244 0.000000 0.000000
# 5 0.000000 0.000000 0.000000 0.000000 0.055244 0.000000
# 6 0.000000 0.000000 0.000000 0.000000 0.000000 0.090915
#
#
# Mechanical properties :
#
#
# Convention : Reuss Voigt Hill
#
# Bulk Modulus (GPa) = 22.28171 26.07122 24.17647
# Shear Modulus (GPa) = 10.88251 14.75713 12.81982
#
# Velocity S-wave (km/s) = 2.37206 2.76225 2.57456
# Velocity P-wave (km/s) = 4.36151 4.86346 4.61931
#
# Compressibility (1/GPa) = 0.04487986
#
# Stress axis : x y z
#
# Youngs Moduli (GPa) = 15.59665 15.59665 63.48261
#
# Poissons Ratio (x) = 0.59155 0.36898
# Poissons Ratio (y) = 0.59155 0.36898
# Poissons Ratio (z) = 0.09065 0.09065
#
# Static dielectric constant tensor:
#      x y z
#    x 1.686170 0.000000 0.000000 
#    y 0.000000 1.686170 0.000000 
#    z 0.000000 0.000000 1.798890 
# 
# From -- ./inp_files/6810.got.cif
#   From: 2010.05.17/outbox.cif.g08.bks.cpg/sg139_4_cif.got.tgz:6810.got - 2010.05.20 13:14:44.
