data_PCOD9571040
_publ_section_title
;
Structure prediction by ZEFSAII (Michael W. Deem and Ramdas Pophale) SiO2 
 PCOD9571040
Probable space group: P 42/N C M
;
_chemical_formula_sum "Si O2"
_cell_formula_units_Z 64
_cell_length_a 12.333080
_cell_length_b 12.333080
_cell_length_c 19.145635
_cell_angle_alpha 90.000000
_cell_angle_beta 90.000000
_cell_angle_gamma 90.000000
_cell_volume 2912.144175
_symmetry_space_group_name_H-M "P 42/N C M"
_symmetry_group_IT_number 138
_space_group.IT_coordinate_system_code '2'
_symmetry_cell_setting 'tetragonal'
loop_
_space_group_symop_operation_xyz
x,y,z
1/2-y,x,1/2+z
1/2-x,1/2-y,z
y,1/2-x,1/2+z
1/2+x,-y,1/2-z
-x,1/2+y,1/2-z
1/2+y,1/2+x,-z
-y,-x,-z
-x,-y,-z
1/2+y,-x,1/2-z
1/2+x,1/2+y,-z
-y,1/2+x,1/2-z
1/2-x,y,1/2+z
x,1/2-y,1/2+z
1/2-y,1/2-x,z
y,x,z
loop_
_atom_site_type_symbol
_atom_site_label
_atom_site_fract_x
_atom_site_fract_y
_atom_site_fract_z
Si Si1 0.122710 0.771716 0.836133
Si Si2 0.829020 0.006718 0.086223
Si Si3 0.494673 0.664986 0.461348
Si Si4 0.249899 0.070639 0.770928
O O1 0.250000 0.750000 0.824091
O O2 0.126221 0.884628 0.878105
O O3 0.065572 0.688577 0.889122
O O4 0.042324 0.767532 0.769851
O O5 0.753199 0.954180 0.146483
O O6 0.928615 0.928615 0.074860
O O7 0.766429 0.013856 0.013505
O O8 0.423705 0.576296 0.500000
O O9 0.614932 0.614932 0.451903
O O10 0.347327 0.152674 0.753695
O O11 0.137332 0.137332 0.755304
#
# Coordination Sequence:
#
# PCOD9571040 Si02
#       4
#    16  16  16  16
#     4  12  25  42  68 104 138 180 222 283 341 405
#     4  11  25  43  70 104 137 176 224 283 343 403
#     4  11  24  44  68  94 131 180 229 276 334 401
#     4  10  24  47  71  99 137 182 231 279 335 406
#
# _framework density 21.976932999999999
#
# number of rings (size 3 to 8) (size 9 to 14) (size 15 to 20)
#    0.000    1.000    2.500    3.000    3.500    4.500 
#    0.000    0.000    0.000    0.000    0.000    0.000 
#    0.000    0.000    0.000    0.000    0.000    0.000 
#
# Total GULP energy -357683.726198 kJ/mol
# GULP energy per Si atom -5588.808222 kJ/mol
# Density = 2.192691 g / cm^3
# Si number density = 21.976933 Si / 1000 Ang^3
#
#
#
# Elastic Constant Matrix: (Units=GPa)
#
#
# Indices 1 2 3 4 5 6 
#
# 1 127.1688 -6.2847 28.4793 0.0000 0.0000 0.0000
# 2 -6.2847 127.1111 28.4486 0.0000 0.0000 0.0000
# 3 28.4793 28.4486 88.4670 0.0000 0.0000 0.0000
# 4 0.0000 0.0000 0.0000 79.2617 0.0000 0.0000
# 5 0.0000 0.0000 0.0000 0.0000 79.3193 0.0000
# 6 0.0000 0.0000 0.0000 0.0000 0.0000 35.1456
#
#
#
# Elastic Compliance Matrix: (Units=1/GPa)
#
#
# Indices 1 2 3 4 5 6 
#
# 1 0.008622 0.001129 -0.003139 0.000000 0.000000 0.000000
# 2 0.001129 0.008625 -0.003137 0.000000 0.000000 0.000000
# 3 -0.003139 -0.003137 0.013323 0.000000 0.000000 0.000000
# 4 0.000000 0.000000 0.000000 0.012616 0.000000 0.000000
# 5 0.000000 0.000000 0.000000 0.000000 0.012607 0.000000
# 6 0.000000 0.000000 0.000000 0.000000 0.000000 0.028453
#
#
# Mechanical properties :
#
#
# Convention : Reuss Voigt Hill
#
# Bulk Modulus (GPa) = 49.31843 49.33703 49.32773
# Shear Modulus (GPa) = 49.35867 58.21889 53.78878
#
# Velocity S-wave (km/s) = 4.74427 5.15252 4.95260
# Velocity P-wave (km/s) = 7.24572 7.60895 7.42955
#
# Compressibility (1/GPa) = 0.02027640
#
# Stress axis : x y z
#
# Youngs Moduli (GPa) = 115.97907 115.94173 75.05927
#
# Poissons Ratio (x) = -0.13087 0.23559
# Poissons Ratio (y) = -0.13091 0.23546
# Poissons Ratio (z) = 0.36402 0.36370
#
# Static dielectric constant tensor:
#      x y z
#    x 1.877130 0.000000 0.000000 
#    y 0.000000 1.877130 0.000000 
#    z 0.000000 0.000000 1.799250 
# 
# From -- ./inp_files/5817.got.cif
#   From: 2010.05.17/outbox.cif.g08.bks.cpg/sg138_3_cif.got.tgz:5817.got - 2010.05.20 13:08:53.
