data_PCOD9571650
_publ_section_title
;
Structure prediction by ZEFSAII (Michael W. Deem and Ramdas Pophale) SiO2 
 PCOD9571650
Probable space group: I 4/M M M
;
_chemical_formula_sum "Si O2"
_cell_formula_units_Z 192
_cell_length_a 20.091221
_cell_length_b 20.091221
_cell_length_c 27.182291
_cell_angle_alpha 90.000000
_cell_angle_beta 90.000000
_cell_angle_gamma 90.000000
_cell_volume 10972.326422
_symmetry_space_group_name_H-M "I 4/M M M"
_symmetry_group_IT_number 139
_symmetry_cell_setting 'tetragonal'
loop_
_space_group_symop_operation_xyz
x,y,z
-y,x,z
-x,-y,z
y,-x,z
x,-y,-z
-x,y,-z
y,x,-z
-y,-x,-z
-x,-y,-z
y,-x,-z
x,y,-z
-y,x,-z
-x,y,z
x,-y,z
-y,-x,z
y,x,z
1/2+x,1/2+y,1/2+z
1/2-y,1/2+x,1/2+z
1/2-x,1/2-y,1/2+z
1/2+y,1/2-x,1/2+z
1/2+x,1/2-y,1/2-z
1/2-x,1/2+y,1/2-z
1/2+y,1/2+x,1/2-z
1/2-y,1/2-x,1/2-z
1/2-x,1/2-y,1/2-z
1/2+y,1/2-x,1/2-z
1/2+x,1/2+y,1/2-z
1/2-y,1/2+x,1/2-z
1/2-x,1/2+y,1/2+z
1/2+x,1/2-y,1/2+z
1/2-y,1/2-x,1/2+z
1/2+y,1/2+x,1/2+z
loop_
_atom_site_type_symbol
_atom_site_label
_atom_site_fract_x
_atom_site_fract_y
_atom_site_fract_z
Si Si1 0.789359 0.320010 0.558824
Si Si2 0.314451 0.926313 0.617354
Si Si3 0.760105 0.079079 0.209729
Si Si4 0.685022 0.578607 0.397672
Si Si5 0.577268 0.110537 0.304912
Si Si6 0.815594 0.077620 0.314687
O O1 0.793671 0.320400 0.500000
O O2 0.744502 0.255499 0.573701
O O3 0.862448 0.319975 0.582334
O O4 0.746657 0.383787 0.576655
O O5 0.375134 0.924433 0.656248
O O6 0.246753 0.919119 0.648744
O O7 0.313851 0.000000 0.593576
O O8 0.803430 0.087809 0.160966
O O9 0.686078 0.104556 0.199550
O O10 0.790886 0.101779 0.260889
O O11 0.750723 0.000000 0.216676
O O12 0.683215 0.500000 0.408124
O O13 0.618316 0.618316 0.412029
O O14 0.500000 0.110267 0.320858
O O15 0.581369 0.081369 0.250000
O O16 0.875923 0.124077 0.330899
O O17 0.835810 0.000000 0.310578
#
# Coordination Sequence:
#
# PCOD9571650 Si02
#       6
#    32  32  32  32  32  32
#     4  10  22  40  60  80 103 136 177 218 269 332
#     4  11  22  36  55  81 109 137 175 223 270 314
#     4   9  17  31  50  74 108 144 175 213 255 298
#     4  10  20  35  56  81 110 144 181 221 264 311
#     4  11  20  33  51  76 112 148 181 216 256 308
#     4  10  20  34  52  77 110 144 179 218 260 311
#
# _framework density 17.498567999999999
#
# number of rings (size 3 to 8) (size 9 to 14) (size 15 to 20)
#    0.000    1.833    3.333    1.500    0.000    2.167 
#    0.000    0.833    0.000    3.000    0.000    4.667 
#    0.000    0.000    0.000   15.500    0.000    0.000 
#
# Total GULP energy -535428.277657 kJ/mol
# GULP energy per Si atom -5577.377892 kJ/mol
# Density = 1.745874 g / cm^3
# Si number density = 17.498568 Si / 1000 Ang^3
#
#
#
# Elastic Constant Matrix: (Units=GPa)
#
#
# Indices 1 2 3 4 5 6 
#
# 1 121.0268 73.2994 33.8327 0.0000 0.0000 0.0000
# 2 73.2994 121.0268 33.8327 0.0000 0.0000 0.0000
# 3 33.8327 33.8327 54.2937 0.0000 0.0000 0.0000
# 4 0.0000 0.0000 0.0000 11.8616 0.0000 0.0000
# 5 0.0000 0.0000 0.0000 0.0000 11.8616 0.0000
# 6 0.0000 0.0000 0.0000 0.0000 0.0000 12.9497
#
#
#
# Elastic Compliance Matrix: (Units=1/GPa)
#
#
# Indices 1 2 3 4 5 6 
#
# 1 0.013762 -0.007190 -0.004095 0.000000 0.000000 0.000000
# 2 -0.007190 0.013762 -0.004095 0.000000 0.000000 0.000000
# 3 -0.004095 -0.004095 0.023522 0.000000 0.000000 0.000000
# 4 0.000000 0.000000 0.000000 0.084306 0.000000 0.000000
# 5 0.000000 0.000000 0.000000 0.000000 0.084306 0.000000
# 6 0.000000 0.000000 0.000000 0.000000 0.000000 0.077222
#
#
# Mechanical properties :
#
#
# Convention : Reuss Voigt Hill
#
# Bulk Modulus (GPa) = 49.29733 64.25300 56.77517
# Shear Modulus (GPa) = 14.95200 17.69339 16.32270
#
# Velocity S-wave (km/s) = 2.92630 3.18328 3.05749
# Velocity P-wave (km/s) = 6.29691 7.09294 6.70674
#
# Compressibility (1/GPa) = 0.02028507
#
# Stress axis : x y z
#
# Youngs Moduli (GPa) = 72.66295 72.66295 42.51294
#
# Poissons Ratio (x) = 0.52246 0.17410
# Poissons Ratio (y) = 0.52246 0.17410
# Poissons Ratio (z) = 0.29758 0.29758
#
# Static dielectric constant tensor:
#      x y z
#    x 1.606720 0.000000 0.000000 
#    y 0.000000 1.606720 0.000000 
#    z 0.000000 0.000000 1.580640 
# 
# From -- ./inp_files/11925.got.cif
#   From: 2010.05.17/outbox.cif.g08.bks.cpg/sg139_6_cif.got.tgz:11925.got - 2010.05.20 13:14:44.
