data_PCOD9571924
_publ_section_title
;
Structure prediction by ZEFSAII (Michael W. Deem and Ramdas Pophale) SiO2 
 PCOD9571924
Probable space group: I 4/M M M
;
_chemical_formula_sum "Si O2"
_cell_formula_units_Z 240
_cell_length_a 29.980368
_cell_length_b 29.980368
_cell_length_c 14.827282
_cell_angle_alpha 90.000000
_cell_angle_beta 90.000000
_cell_angle_gamma 90.000000
_cell_volume 13327.094163
_symmetry_space_group_name_H-M "I 4/M M M"
_symmetry_group_IT_number 139
_symmetry_cell_setting 'tetragonal'
loop_
_space_group_symop_operation_xyz
x,y,z
-y,x,z
-x,-y,z
y,-x,z
x,-y,-z
-x,y,-z
y,x,-z
-y,-x,-z
-x,-y,-z
y,-x,-z
x,y,-z
-y,x,-z
-x,y,z
x,-y,z
-y,-x,z
y,x,z
1/2+x,1/2+y,1/2+z
1/2-y,1/2+x,1/2+z
1/2-x,1/2-y,1/2+z
1/2+y,1/2-x,1/2+z
1/2+x,1/2-y,1/2-z
1/2-x,1/2+y,1/2-z
1/2+y,1/2+x,1/2-z
1/2-y,1/2-x,1/2-z
1/2-x,1/2-y,1/2-z
1/2+y,1/2-x,1/2-z
1/2+x,1/2+y,1/2-z
1/2-y,1/2+x,1/2-z
1/2-x,1/2+y,1/2+z
1/2+x,1/2-y,1/2+z
1/2-y,1/2-x,1/2+z
1/2+y,1/2+x,1/2+z
loop_
_atom_site_type_symbol
_atom_site_label
_atom_site_fract_x
_atom_site_fract_y
_atom_site_fract_z
Si Si1 0.907801 0.699680 0.902256
Si Si2 0.924609 0.223500 0.602990
Si Si3 0.747285 0.675494 0.856202
Si Si4 0.876459 0.051438 0.609649
Si Si5 0.252391 0.179826 0.138417
Si Si6 0.053350 0.446651 0.250000
Si Si7 0.118038 0.403169 0.894791
Si Si8 0.548657 0.805499 0.788168
O O1 0.869011 0.736842 0.897561
O O2 0.886287 0.650258 0.894827
O O3 0.938394 0.702170 0.814977
O O4 0.930350 0.702295 0.000000
O O5 0.940390 0.225695 0.500000
O O6 0.873706 0.240493 0.607812
O O7 0.929910 0.172459 0.634094
O O8 0.950800 0.257991 0.663827
O O9 0.704046 0.704046 0.881248
O O10 0.789330 0.705037 0.886273
O O11 0.750581 0.674872 0.747160
O O12 0.878034 0.051512 0.500000
O O13 0.915646 0.084355 0.641265
O O14 0.881357 0.000000 0.638746
O O15 0.208326 0.208326 0.112217
O O16 0.060891 0.500000 0.251939
O O17 0.077493 0.424708 0.162722
O O18 0.162207 0.417444 0.840577
O O19 0.119128 0.417733 0.000000
O O20 0.500000 0.826782 0.794920
#
# Coordination Sequence:
#
# PCOD9571924 Si02
#       8
#    32  32  32  32  32  16  32  32
#     4  11  23  39  60  83 108 141 182 230 282 334
#     4  11  21  33  52  78 110 146 183 225 275 327
#     4   9  17  29  49  76 106 141 177 213 256 311
#     4   9  18  32  49  72 105 144 188 236 282 332
#     4   9  18  33  53  78 109 143 180 222 266 317
#     4  11  24  42  64  90 117 144 182 238 297 348
#     4  11  24  41  63  87 112 147 188 230 284 348
#     4  12  24  39  58  79 109 143 182 232 279 336
#
# _framework density 18.008427000000001
#
# number of rings (size 3 to 8) (size 9 to 14) (size 15 to 20)
#    0.000    1.667    2.667    3.200    1.867    5.733 
#    0.000    4.000    0.000    0.000    0.000    0.000 
#    0.000    0.000    0.000    0.000    0.000    0.133 
#
# Total GULP energy -669823.037924 kJ/mol
# GULP energy per Si atom -5581.858649 kJ/mol
# Density = 1.796744 g / cm^3
# Si number density = 18.008427 Si / 1000 Ang^3
#
#
#
# Elastic Constant Matrix: (Units=GPa)
#
#
# Indices 1 2 3 4 5 6 
#
# 1 69.4615 21.1496 20.0454 0.0000 0.0000 0.0000
# 2 21.1496 69.4621 20.0454 0.0000 0.0000 0.0000
# 3 20.0454 20.0454 100.5229 0.0000 0.0000 0.0000
# 4 0.0000 0.0000 0.0000 -1.3060 0.0000 0.0000
# 5 0.0000 0.0000 0.0000 0.0000 -1.3038 0.0000
# 6 0.0000 0.0000 0.0000 0.0000 0.0000 20.5566
#
#
#
# Elastic Compliance Matrix: (Units=1/GPa)
#
#
# Indices 1 2 3 4 5 6 
#
# 1 0.016401 -0.004297 -0.002414 0.000000 0.000000 0.000000
# 2 -0.004297 0.016401 -0.002414 0.000000 0.000000 0.000000
# 3 -0.002414 -0.002414 0.010911 0.000000 0.000000 0.000000
# 4 0.000000 0.000000 0.000000 -0.765669 0.000000 0.000000
# 5 0.000000 0.000000 0.000000 0.000000 -0.766973 0.000000
# 6 0.000000 0.000000 0.000000 0.000000 0.000000 0.048646
#
#
# Mechanical properties :
#
#
# Convention : Reuss Voigt Hill
#
# Bulk Modulus (GPa) = 39.27112 40.21414 39.74263
# Shear Modulus (GPa) = -3.53721 15.46976 5.96628
#
# Velocity S-wave (km/s) = -1.40302 2.93410 1.82215
# Velocity P-wave (km/s) = 4.38518 5.81875 5.15207
#
# Compressibility (1/GPa) = 0.02546401
#
# Stress axis : x y z
#
# Youngs Moduli (GPa) = 60.97017 60.97075 91.65387
#
# Poissons Ratio (x) = 0.26201 0.22123
# Poissons Ratio (y) = 0.26201 0.22122
# Poissons Ratio (z) = 0.14716 0.14716
#
# Static dielectric constant tensor:
#      x y z
#    x 1.625380 0.000000 0.000000 
#    y 0.000000 1.625370 0.000000 
#    z 0.000000 0.000000 1.634530 
# 
# From -- ./inp_files/6809.got.cif
#   From: 2010.05.17/outbox.cif.g08.bks.cpg/sg139_4_cif.got.tgz:6809.got - 2010.05.20 13:14:44.
