data_PCOD9571843
_publ_section_title
;
Structure prediction by ZEFSAII (Michael W. Deem and Ramdas Pophale) SiO2 
 PCOD9571843
Probable space group: I 4/M M M
;
_chemical_formula_sum "Si O2"
_cell_formula_units_Z 160
_cell_length_a 31.826006
_cell_length_b 31.826006
_cell_length_c 8.099913
_cell_angle_alpha 90.000000
_cell_angle_beta 90.000000
_cell_angle_gamma 90.000000
_cell_volume 8204.358607
_symmetry_space_group_name_H-M "I 4/M M M"
_symmetry_group_IT_number 139
_symmetry_cell_setting 'tetragonal'
loop_
_space_group_symop_operation_xyz
x,y,z
-y,x,z
-x,-y,z
y,-x,z
x,-y,-z
-x,y,-z
y,x,-z
-y,-x,-z
-x,-y,-z
y,-x,-z
x,y,-z
-y,x,-z
-x,y,z
x,-y,z
-y,-x,z
y,x,z
1/2+x,1/2+y,1/2+z
1/2-y,1/2+x,1/2+z
1/2-x,1/2-y,1/2+z
1/2+y,1/2-x,1/2+z
1/2+x,1/2-y,1/2-z
1/2-x,1/2+y,1/2-z
1/2+y,1/2+x,1/2-z
1/2-y,1/2-x,1/2-z
1/2-x,1/2-y,1/2-z
1/2+y,1/2-x,1/2-z
1/2+x,1/2+y,1/2-z
1/2-y,1/2+x,1/2-z
1/2-x,1/2+y,1/2+z
1/2+x,1/2-y,1/2+z
1/2-y,1/2-x,1/2+z
1/2+y,1/2+x,1/2+z
loop_
_atom_site_type_symbol
_atom_site_label
_atom_site_fract_x
_atom_site_fract_y
_atom_site_fract_z
Si Si1 0.000000 0.126090 0.684778
Si Si2 0.143019 0.143019 0.691608
Si Si3 0.775043 0.904841 0.195459
Si Si4 0.500000 0.285086 0.312873
Si Si5 0.547761 0.885397 0.199092
Si Si6 0.384234 0.817142 0.198346
Si Si7 0.921046 0.078955 0.187809
O O1 0.040039 0.097979 0.716918
O O2 0.000000 0.143760 0.500000
O O3 0.000000 0.164497 0.810626
O O4 0.133765 0.133765 0.500000
O O5 0.126352 0.190275 0.725691
O O6 0.114419 0.114419 0.807933
O O7 0.728741 0.887013 0.225130
O O8 0.774683 0.953658 0.260515
O O9 0.784470 0.907439 0.000000
O O10 0.500000 0.267965 0.500000
O O11 0.500000 0.884036 0.260482
O O12 0.572850 0.927151 0.250000
O O13 0.576147 0.845901 0.254017
O O14 0.546760 0.884180 0.000000
O O15 0.343092 0.843092 0.250000
O O16 0.385547 0.813708 0.000000
O O17 0.932091 0.067910 0.000000
#
# Coordination Sequence:
#
# PCOD9571843 Si02
#       7
#    16  16  32  16  32  32  16
#     4  12  24  39  61  88 118 156 205 253 299 358
#     4  12  24  40  62  92 122 156 199 246 299 356
#     4  11  23  40  63  92 124 160 200 244 299 360
#     4  10  22  38  59  89 126 162 197 243 303 362
#     4   9  19  35  54  80 115 156 199 245 295 347
#     4  10  21  39  62  87 120 159 200 249 302 358
#     4  12  24  41  61  83 119 162 200 246 307 364
#
# _framework density 19.501829000000001
#
# number of rings (size 3 to 8) (size 9 to 14) (size 15 to 20)
#    0.000    1.400    2.000    3.900    1.400    2.400 
#    0.000    2.500    0.000    0.000    0.000    0.000 
#    0.000    0.000    0.000    0.000    0.000    0.000 
#
# Total GULP energy -446534.504567 kJ/mol
# GULP energy per Si atom -5581.681307 kJ/mol
# Density = 1.945744 g / cm^3
# Si number density = 19.501829 Si / 1000 Ang^3
#
#
#
# Elastic Constant Matrix: (Units=GPa)
#
#
# Indices 1 2 3 4 5 6 
#
# 1 141.5403 58.4175 2.1280 0.0000 0.0000 0.0000
# 2 58.4175 141.5389 2.1283 0.0000 0.0000 0.0000
# 3 2.1280 2.1283 56.0356 0.0000 0.0000 0.0000
# 4 0.0000 0.0000 0.0000 22.4715 0.0000 0.0000
# 5 0.0000 0.0000 0.0000 0.0000 22.4722 0.0000
# 6 0.0000 0.0000 0.0000 0.0000 0.0000 19.2102
#
#
#
# Elastic Compliance Matrix: (Units=1/GPa)
#
#
# Indices 1 2 3 4 5 6 
#
# 1 0.008518 -0.003513 -0.000190 0.000000 0.000000 0.000000
# 2 -0.003513 0.008518 -0.000190 0.000000 0.000000 0.000000
# 3 -0.000190 -0.000190 0.017860 0.000000 0.000000 0.000000
# 4 0.000000 0.000000 0.000000 0.044501 0.000000 0.000000
# 5 0.000000 0.000000 0.000000 0.000000 0.044499 0.000000
# 6 0.000000 0.000000 0.000000 0.000000 0.000000 0.052056
#
#
# Mechanical properties :
#
#
# Convention : Reuss Voigt Hill
#
# Bulk Modulus (GPa) = 36.88660 51.60694 44.24677
# Shear Modulus (GPa) = 25.93709 31.26018 28.59863
#
# Velocity S-wave (km/s) = 3.65085 4.00801 3.83359
# Velocity P-wave (km/s) = 6.06029 6.92379 6.50638
#
# Compressibility (1/GPa) = 0.02711012
#
# Stress axis : x y z
#
# Youngs Moduli (GPa) = 117.40165 117.40050 55.99033
#
# Poissons Ratio (x) = 0.41239 0.01064
# Poissons Ratio (y) = 0.41240 0.01064
# Poissons Ratio (z) = 0.02231 0.02232
#
# Static dielectric constant tensor:
#      x y z
#    x 1.661710 0.000000 0.000000 
#    y 0.000000 1.661710 0.000000 
#    z 0.000000 0.000000 1.696530 
# 
# From -- ./inp_files/2312.got.cif
#   From: 2010.05.17/outbox.cif.g08.bks.cpg/sg139_2_cif.got.tgz:2312.got - 2010.05.20 13:14:44.
