data_PCOD9571110
_publ_section_title
;
Structure prediction by ZEFSAII (Michael W. Deem and Ramdas Pophale) SiO2 
 PCOD9571110
Probable space group: P 42/N C M
;
_chemical_formula_sum "Si O2"
_cell_formula_units_Z 40
_cell_length_a 13.993508
_cell_length_b 13.993508
_cell_length_c 8.379433
_cell_angle_alpha 90.000000
_cell_angle_beta 90.000000
_cell_angle_gamma 90.000000
_cell_volume 1640.846041
_symmetry_space_group_name_H-M "P 42/N C M"
_symmetry_group_IT_number 138
_space_group.IT_coordinate_system_code '2'
_symmetry_cell_setting 'tetragonal'
loop_
_space_group_symop_operation_xyz
x,y,z
1/2-y,x,1/2+z
1/2-x,1/2-y,z
y,1/2-x,1/2+z
1/2+x,-y,1/2-z
-x,1/2+y,1/2-z
1/2+y,1/2+x,-z
-y,-x,-z
-x,-y,-z
1/2+y,-x,1/2-z
1/2+x,1/2+y,-z
-y,1/2+x,1/2-z
1/2-x,y,1/2+z
x,1/2-y,1/2+z
1/2-y,1/2-x,z
y,x,z
loop_
_atom_site_type_symbol
_atom_site_label
_atom_site_fract_x
_atom_site_fract_y
_atom_site_fract_z
Si Si1 0.335876 0.871626 0.314389
Si Si2 0.860687 0.860687 0.621667
Si Si3 0.506713 0.506713 0.309867
Si Si4 0.824211 0.824211 0.278790
O O1 0.352838 0.852838 0.500000
O O2 0.374628 0.777289 0.221482
O O3 0.395784 0.963632 0.259595
O O4 0.926200 0.926200 0.731020
O O5 0.871822 0.871822 0.430872
O O6 0.750255 0.881065 0.668758
O O7 0.500000 0.500000 0.500000
O O8 0.750000 0.750000 0.364707
#
# Coordination Sequence:
#
# PCOD9571110 Si02
#       4
#    16   8   8   8
#     4  11  24  48  75  99 137 185 233 287 351 417
#     4   9  18  33  56  86 127 161 210 259 321 393
#     4  12  26  42  64 104 135 173 231 285 334 405
#     4   8  14  34  55  81 118 166 205 243 326 387
#
# _framework density 24.377666999999999
#
# number of rings (size 3 to 8) (size 9 to 14) (size 15 to 20)
#    1.200    0.400    2.000    5.400    0.000    6.400 
#    0.000    4.000    0.000    0.000    0.000    0.000 
#    0.000    0.000    0.000    0.000    0.000    0.000 
#
# Total GULP energy -223348.102265 kJ/mol
# GULP energy per Si atom -5583.702557 kJ/mol
# Density = 2.432218 g / cm^3
# Si number density = 24.377667 Si / 1000 Ang^3
#
#
#
# Elastic Constant Matrix: (Units=GPa)
#
#
# Indices 1 2 3 4 5 6 
#
# 1 89.7402 74.8240 32.9650 0.0000 0.0000 0.0000
# 2 74.8240 89.7402 32.9650 0.0000 0.0000 0.0000
# 3 32.9650 32.9650 156.1283 0.0000 0.0000 0.0000
# 4 0.0000 0.0000 0.0000 32.1740 0.0000 0.0000
# 5 0.0000 0.0000 0.0000 0.0000 32.1740 0.0000
# 6 0.0000 0.0000 0.0000 0.0000 0.0000 59.5696
#
#
#
# Elastic Compliance Matrix: (Units=1/GPa)
#
#
# Indices 1 2 3 4 5 6 
#
# 1 0.036840 -0.030202 -0.001402 0.000000 0.000000 0.000000
# 2 -0.030202 0.036840 -0.001402 0.000000 0.000000 0.000000
# 3 -0.001402 -0.001402 0.006997 0.000000 0.000000 0.000000
# 4 0.000000 0.000000 0.000000 0.031081 0.000000 0.000000
# 5 0.000000 0.000000 0.000000 0.000000 0.031081 0.000000
# 6 0.000000 0.000000 0.000000 0.000000 0.000000 0.016787
#
#
# Mechanical properties :
#
#
# Convention : Reuss Voigt Hill
#
# Bulk Modulus (GPa) = 68.18091 68.56851 68.37471
# Shear Modulus (GPa) = 21.68971 37.77381 29.73176
#
# Velocity S-wave (km/s) = 2.98608 3.94067 3.49611
# Velocity P-wave (km/s) = 6.31809 6.99241 6.66379
#
# Compressibility (1/GPa) = 0.01466686
#
# Stress axis : x y z
#
# Youngs Moduli (GPa) = 27.14456 27.14456 142.92137
#
# Poissons Ratio (x) = 0.81981 0.20032
# Poissons Ratio (y) = 0.81981 0.20032
# Poissons Ratio (z) = 0.03805 0.03805
#
# Static dielectric constant tensor:
#      x y z
#    x 2.064520 0.000000 0.000000 
#    y 0.000000 2.064520 0.000000 
#    z 0.000000 0.000000 1.874720 
# 
# From -- ./inp_files/887.got.cif
#   From: 2010.05.17/outbox.cif.g08.bks.cpg/sg138_1_cif.got.tgz:887.got - 2010.05.20 13:08:53.
