data_PCOD9571134
_publ_section_title
;
Structure prediction by ZEFSAII (Michael W. Deem and Ramdas Pophale) SiO2 
 PCOD9571134
Probable space group: P 42/N C M
;
_chemical_formula_sum "Si O2"
_cell_formula_units_Z 112
_cell_length_a 24.000000
_cell_length_b 24.000000
_cell_length_c 12.000000
_cell_angle_alpha 90.000000
_cell_angle_beta 90.000000
_cell_angle_gamma 90.000000
_cell_volume 6912.000000
_symmetry_space_group_name_H-M "P 42/N C M"
_symmetry_group_IT_number 138
_space_group.IT_coordinate_system_code '2'
_symmetry_cell_setting 'tetragonal'
loop_
_space_group_symop_operation_xyz
x,y,z
1/2-y,x,1/2+z
1/2-x,1/2-y,z
y,1/2-x,1/2+z
1/2+x,-y,1/2-z
-x,1/2+y,1/2-z
1/2+y,1/2+x,-z
-y,-x,-z
-x,-y,-z
1/2+y,-x,1/2-z
1/2+x,1/2+y,-z
-y,1/2+x,1/2-z
1/2-x,y,1/2+z
x,1/2-y,1/2+z
1/2-y,1/2-x,z
y,x,z
loop_
_atom_site_type_symbol
_atom_site_label
_atom_site_fract_x
_atom_site_fract_y
_atom_site_fract_z
Si Si1 0.104963 0.301884 0.765824
Si Si2 0.670646 0.985573 0.864811
Si Si3 0.527154 0.795888 0.428388
Si Si4 0.684342 0.908665 0.651152
Si Si5 0.578625 0.012814 0.406661
Si Si6 0.446218 0.960611 0.164930
Si Si7 0.468376 0.376755 0.404456
O O1 0.153767 0.346234 0.778502
O O2 0.085443 0.294927 0.639397
O O3 0.120190 0.243193 0.820048
O O4 0.048343 0.327663 0.820616
O O5 0.735995 0.000725 0.893065
O O6 0.669263 0.944212 0.760719
O O7 0.620098 0.029696 0.844017
O O8 0.648648 0.955956 0.975981
O O9 0.546451 0.801973 0.555614
O O10 0.495095 0.854509 0.405360
O O11 0.635155 0.864846 0.624580
O O12 0.554444 0.054444 0.500000
O O13 0.556265 0.036875 0.290266
O O14 0.547053 0.952948 0.423682
O O15 0.472021 0.907774 0.097734
O O16 0.482660 0.017341 0.136703
O O17 0.426716 0.426716 0.375736
#
# Coordination Sequence:
#
# PCOD9571134 Si02
#       7
#    16  16  16  16  16  16  16
#     4  10  20  35  52  69  96 139 183 221 263 308
#     4  11  22  34  51  79 109 136 172 218 270 325
#     4  11  21  36  54  74 107 143 174 214 274 331
#     4  11  22  35  52  73 102 142 184 227 264 309
#     4  10  19  32  53  79 107 140 179 222 268 329
#     4  10  19  32  53  79 105 136 175 221 273 329
#     4  10  18  33  53  73 101 135 172 216 269 319
#
# _framework density 16.203703999999998
#
# number of rings (size 3 to 8) (size 9 to 14) (size 15 to 20)
#    0.000    1.571    2.857    3.857    0.000    2.571 
#    0.000    0.000    0.000    1.714    0.000    0.000 
#    0.000    7.429    0.000    0.000    0.000    0.000 
#
# Total GULP energy -623525.702472 kJ/mol
# GULP energy per Si atom -5567.193772 kJ/mol
# Density = 1.616682 g / cm^3
# Si number density = 16.203704 Si / 1000 Ang^3
#
#
#
# Elastic Constant Matrix: (Units=GPa)
#
#
# Indices 1 2 3 4 5 6 
#
# 1 88.5844 34.0064 16.2663 0.0000 0.0000 0.0000
# 2 34.0064 88.5844 16.2663 0.0000 0.0000 0.0000
# 3 16.2663 16.2663 77.1717 0.0000 0.0000 0.0000
# 4 0.0000 0.0000 0.0000 21.0511 0.0000 0.0000
# 5 0.0000 0.0000 0.0000 0.0000 21.0511 0.0000
# 6 0.0000 0.0000 0.0000 0.0000 0.0000 20.9727
#
#
#
# Elastic Compliance Matrix: (Units=1/GPa)
#
#
# Indices 1 2 3 4 5 6 
#
# 1 0.013481 -0.004841 -0.001821 0.000000 0.000000 0.000000
# 2 -0.004841 0.013481 -0.001821 0.000000 0.000000 0.000000
# 3 -0.001821 -0.001821 0.013726 0.000000 0.000000 0.000000
# 4 0.000000 0.000000 0.000000 0.047504 0.000000 0.000000
# 5 0.000000 0.000000 0.000000 0.000000 0.047504 0.000000
# 6 0.000000 0.000000 0.000000 0.000000 0.000000 0.047681
#
#
# Mechanical properties :
#
#
# Convention : Reuss Voigt Hill
#
# Bulk Modulus (GPa) = 42.15504 43.04646 42.60075
# Shear Modulus (GPa) = 24.00947 25.13506 24.57226
#
# Velocity S-wave (km/s) = 3.85350 3.94279 3.89840
# Velocity P-wave (km/s) = 6.77284 6.88120 6.82724
#
# Compressibility (1/GPa) = 0.02372195
#
# Stress axis : x y z
#
# Youngs Moduli (GPa) = 74.17589 74.17589 72.85500
#
# Poissons Ratio (x) = 0.35908 0.13269
# Poissons Ratio (y) = 0.35908 0.13269
# Poissons Ratio (z) = 0.13509 0.13509
#
# Static dielectric constant tensor:
#      x y z
#    x 1.549890 0.000000 0.000000 
#    y 0.000000 1.549890 0.000000 
#    z 0.000000 0.000000 1.633380 
# 
# From -- ./inp_files/3300.got.cif
#   From: 2010.05.17/outbox.ucp.g08.bks.cvg/sg138_2_cif.got.tgz:3300.got - 2010.06.11 11:41:40.
