data_PCOD9571641
_publ_section_title
;
Structure prediction by ZEFSAII (Michael W. Deem and Ramdas Pophale) SiO2 
 PCOD9571641
Probable space group: I 4/M M M
;
_chemical_formula_sum "Si O2"
_cell_formula_units_Z 160
_cell_length_a 33.179804
_cell_length_b 33.179804
_cell_length_c 8.003721
_cell_angle_alpha 90.000000
_cell_angle_beta 90.000000
_cell_angle_gamma 90.000000
_cell_volume 8811.291594
_symmetry_space_group_name_H-M "I 4/M M M"
_symmetry_group_IT_number 139
_symmetry_cell_setting 'tetragonal'
loop_
_space_group_symop_operation_xyz
x,y,z
-y,x,z
-x,-y,z
y,-x,z
x,-y,-z
-x,y,-z
y,x,-z
-y,-x,-z
-x,-y,-z
y,-x,-z
x,y,-z
-y,x,-z
-x,y,z
x,-y,z
-y,-x,z
y,x,z
1/2+x,1/2+y,1/2+z
1/2-y,1/2+x,1/2+z
1/2-x,1/2-y,1/2+z
1/2+y,1/2-x,1/2+z
1/2+x,1/2-y,1/2-z
1/2-x,1/2+y,1/2-z
1/2+y,1/2+x,1/2-z
1/2-y,1/2-x,1/2-z
1/2-x,1/2-y,1/2-z
1/2+y,1/2-x,1/2-z
1/2+x,1/2+y,1/2-z
1/2-y,1/2+x,1/2-z
1/2-x,1/2+y,1/2+z
1/2+x,1/2-y,1/2+z
1/2-y,1/2-x,1/2+z
1/2+y,1/2+x,1/2+z
loop_
_atom_site_type_symbol
_atom_site_label
_atom_site_fract_x
_atom_site_fract_y
_atom_site_fract_z
Si Si1 0.045894 0.389588 0.201543
Si Si2 0.282846 0.282846 0.799120
Si Si3 0.453421 0.385687 0.000000
Si Si4 0.765779 0.873781 0.697814
Si Si5 0.675674 0.110871 0.799666
Si Si6 0.654603 0.413126 0.312369
O O1 0.070305 0.429696 0.250000
O O2 0.073198 0.351769 0.258994
O O3 0.000000 0.388880 0.263288
O O4 0.044898 0.387855 0.000000
O O5 0.250000 0.250000 0.750000
O O6 0.327613 0.270846 0.741375
O O7 0.283927 0.283927 0.000000
O O8 0.442043 0.360238 0.834901
O O9 0.500000 0.396378 0.000000
O O10 0.424690 0.424690 0.000000
O O11 0.774817 0.874581 0.500000
O O12 0.720322 0.887903 0.727342
O O13 0.799163 0.900884 0.786921
O O14 0.650804 0.150804 0.750000
O O15 0.678418 0.109395 0.000000
O O16 0.647889 0.428833 0.500000
O O17 0.627534 0.372467 0.294565
#
# Coordination Sequence:
#
# PCOD9571641 Si02
#       6
#    32  16  16  32  32  32
#     4   9  19  36  56  77 103 134 170 219 279 342
#     4  10  22  32  46  72 110 150 192 249 292 331
#     4  10  22  41  66  94 128 156 194 244 291 355
#     4  11  20  34  54  77 111 154 198 243 290 340
#     4  10  20  34  51  74 105 145 190 234 287 349
#     4  10  20  36  61  89 118 160 203 241 292 344
#
# _framework density 18.158518999999998
#
# number of rings (size 3 to 8) (size 9 to 14) (size 15 to 20)
#    0.000    2.000    2.000    1.800    0.000    5.100 
#    0.000    2.000    0.000    2.400    0.000    2.800 
#    0.000    0.000    0.000    0.000    0.000    0.000 
#
# Total GULP energy -446635.328468 kJ/mol
# GULP energy per Si atom -5582.941606 kJ/mol
# Density = 1.811719 g / cm^3
# Si number density = 18.158519 Si / 1000 Ang^3
#
#
#
# Elastic Constant Matrix: (Units=GPa)
#
#
# Indices 1 2 3 4 5 6 
#
# 1 105.1733 47.2685 26.4968 0.0000 0.0000 0.0000
# 2 47.2685 105.1789 26.4982 0.0000 0.0000 0.0000
# 3 26.4968 26.4982 73.5067 0.0000 0.0000 0.0000
# 4 0.0000 0.0000 0.0000 16.4068 0.0000 0.0000
# 5 0.0000 0.0000 0.0000 0.0000 16.4076 0.0000
# 6 0.0000 0.0000 0.0000 0.0000 0.0000 8.8243
#
#
#
# Elastic Compliance Matrix: (Units=1/GPa)
#
#
# Indices 1 2 3 4 5 6 
#
# 1 0.012385 -0.004885 -0.002703 0.000000 0.000000 0.000000
# 2 -0.004885 0.012384 -0.002703 0.000000 0.000000 0.000000
# 3 -0.002703 -0.002703 0.015553 0.000000 0.000000 0.000000
# 4 0.000000 0.000000 0.000000 0.060950 0.000000 0.000000
# 5 0.000000 0.000000 0.000000 0.000000 0.060947 0.000000
# 6 0.000000 0.000000 0.000000 0.000000 0.000000 0.113323
#
#
# Mechanical properties :
#
#
# Convention : Reuss Voigt Hill
#
# Bulk Modulus (GPa) = 50.66195 53.82065 52.24130
# Shear Modulus (GPa) = 16.51775 20.56745 18.54260
#
# Velocity S-wave (km/s) = 3.01930 3.36915 3.19901
# Velocity P-wave (km/s) = 6.33366 6.69616 6.51743
#
# Compressibility (1/GPa) = 0.01973868
#
# Stress axis : x y z
#
# Youngs Moduli (GPa) = 80.74591 80.74981 64.29525
#
# Poissons Ratio (x) = 0.39444 0.17381
# Poissons Ratio (y) = 0.39442 0.17382
# Poissons Ratio (z) = 0.21829 0.21831
#
# Static dielectric constant tensor:
#      x y z
#    x 1.600350 0.000000 0.000000 
#    y 0.000000 1.600350 0.000000 
#    z 0.000000 0.000000 1.654380 
# 
# From -- ./inp_files/2192.got.cif
#   From: 2010.05.17/outbox.cif.g08.bks.cpg/sg139_2_cif.got.tgz:2192.got - 2010.05.20 13:14:44.
