data_PCOD9571469
_publ_section_title
;
Structure prediction by ZEFSAII (Michael W. Deem and Ramdas Pophale) SiO2 
 PCOD9571469
Probable space group: I 4/M M M
;
_chemical_formula_sum "Si O2"
_cell_formula_units_Z 240
_cell_length_a 20.646761
_cell_length_b 20.646761
_cell_length_c 28.608861
_cell_angle_alpha 90.000000
_cell_angle_beta 90.000000
_cell_angle_gamma 90.000000
_cell_volume 12195.635303
_symmetry_space_group_name_H-M "I 4/M M M"
_symmetry_group_IT_number 139
_symmetry_cell_setting 'tetragonal'
loop_
_space_group_symop_operation_xyz
x,y,z
-y,x,z
-x,-y,z
y,-x,z
x,-y,-z
-x,y,-z
y,x,-z
-y,-x,-z
-x,-y,-z
y,-x,-z
x,y,-z
-y,x,-z
-x,y,z
x,-y,z
-y,-x,z
y,x,z
1/2+x,1/2+y,1/2+z
1/2-y,1/2+x,1/2+z
1/2-x,1/2-y,1/2+z
1/2+y,1/2-x,1/2+z
1/2+x,1/2-y,1/2-z
1/2-x,1/2+y,1/2-z
1/2+y,1/2+x,1/2-z
1/2-y,1/2-x,1/2-z
1/2-x,1/2-y,1/2-z
1/2+y,1/2-x,1/2-z
1/2+x,1/2+y,1/2-z
1/2-y,1/2+x,1/2-z
1/2-x,1/2+y,1/2+z
1/2+x,1/2-y,1/2+z
1/2-y,1/2-x,1/2+z
1/2+y,1/2+x,1/2+z
loop_
_atom_site_type_symbol
_atom_site_label
_atom_site_fract_x
_atom_site_fract_y
_atom_site_fract_z
Si Si1 0.073836 0.373867 0.797141
Si Si2 0.796025 0.423437 0.551963
Si Si3 0.181665 0.923030 0.879288
Si Si4 0.679816 0.577764 0.804083
Si Si5 0.072773 0.607548 0.603568
Si Si6 0.738054 0.575741 0.902316
Si Si7 0.363334 0.739852 0.712448
Si Si8 0.078181 0.820139 0.500000
O O1 0.086348 0.413653 0.750000
O O2 0.083353 0.415598 0.843718
O O3 0.125160 0.315028 0.797973
O O4 0.000000 0.347805 0.797077
O O5 0.790848 0.394817 0.500000
O O6 0.783905 0.500000 0.548653
O O7 0.741432 0.399759 0.588024
O O8 0.868146 0.416454 0.572088
O O9 0.117790 0.882211 0.891161
O O10 0.202134 0.905235 0.826551
O O11 0.172764 0.000000 0.883834
O O12 0.680266 0.500000 0.801358
O O13 0.609091 0.609091 0.797548
O O14 0.706117 0.600090 0.854650
O O15 0.724009 0.607292 0.763141
O O16 0.078614 0.685090 0.602699
O O17 0.000000 0.589728 0.588037
O O18 0.719702 0.500000 0.903498
O O19 0.715053 0.601635 0.952479
O O20 0.291580 0.708421 0.709785
O O21 0.108558 0.891443 0.500000
O O22 0.000000 0.820555 0.500000
#
# Coordination Sequence:
#
# PCOD9571469 Si02
#       8
#    32  32  32  32  32  32  32  16
#     4  12  24  39  61  90 128 165 201 250 306 363
#     4  10  22  40  62  88 119 155 195 245 306 364
#     4  10  20  38  63  91 124 163 205 251 308 369
#     4  10  19  33  54  80 111 147 190 237 289 351
#     4  11  23  39  62  86 114 156 202 246 295 358
#     4   9  20  37  55  78 109 149 193 238 294 353
#     4  10  21  38  61  86 116 162 208 247 299 364
#     4  10  20  37  60  84 115 153 193 245 304 360
#
# _framework density 19.679172000000001
#
# number of rings (size 3 to 8) (size 9 to 14) (size 15 to 20)
#    0.000    1.733    1.333    3.200    0.933    3.933 
#    0.000    3.333    0.000    4.800    0.000    1.867 
#    0.000    0.000    0.000    0.000    0.000    0.000 
#
# Total GULP energy -669669.739614 kJ/mol
# GULP energy per Si atom -5580.581163 kJ/mol
# Density = 1.963438 g / cm^3
# Si number density = 19.679172 Si / 1000 Ang^3
#
#
#
# Elastic Constant Matrix: (Units=GPa)
#
#
# Indices 1 2 3 4 5 6 
#
# 1 63.2805 21.4144 26.5266 0.0000 0.0000 0.0000
# 2 21.4144 63.2782 26.5262 0.0000 0.0000 0.0000
# 3 26.5266 26.5262 134.3251 0.0000 0.0000 0.0000
# 4 0.0000 0.0000 0.0000 14.1976 0.0000 0.0000
# 5 0.0000 0.0000 0.0000 0.0000 14.1981 0.0000
# 6 0.0000 0.0000 0.0000 0.0000 0.0000 27.0220
#
#
#
# Elastic Compliance Matrix: (Units=1/GPa)
#
#
# Indices 1 2 3 4 5 6 
#
# 1 0.018680 -0.005206 -0.002661 0.000000 0.000000 0.000000
# 2 -0.005206 0.018681 -0.002661 0.000000 0.000000 0.000000
# 3 -0.002661 -0.002661 0.008496 0.000000 0.000000 0.000000
# 4 0.000000 0.000000 0.000000 0.070434 0.000000 0.000000
# 5 0.000000 0.000000 0.000000 0.000000 0.070432 0.000000
# 6 0.000000 0.000000 0.000000 0.000000 0.000000 0.037007
#
#
# Mechanical properties :
#
#
# Convention : Reuss Voigt Hill
#
# Bulk Modulus (GPa) = 40.32219 45.53535 42.92877
# Shear Modulus (GPa) = 19.75881 23.51131 21.63506
#
# Velocity S-wave (km/s) = 3.17211 3.46024 3.31930
# Velocity P-wave (km/s) = 5.82672 6.25727 6.04583
#
# Compressibility (1/GPa) = 0.02480024
#
# Stress axis : x y z
#
# Youngs Moduli (GPa) = 53.53368 53.53167 117.70876
#
# Poissons Ratio (x) = 0.27869 0.31320
# Poissons Ratio (y) = 0.27870 0.31321
# Poissons Ratio (z) = 0.14244 0.14244
#
# Static dielectric constant tensor:
#      x y z
#    x 1.682920 0.000000 0.000000 
#    y 0.000000 1.682920 0.000000 
#    z 0.000000 0.000000 1.710770 
# 
# From -- ./inp_files/13390.got.cif
#   From: 2010.05.17/outbox.cif.g08.bks.cpg/sg139_7_cif.got.tgz:13390.got - 2010.05.20 13:14:44.
