data_PCOD9571199
_publ_section_title
;
Structure prediction by ZEFSAII (Michael W. Deem and Ramdas Pophale) SiO2 
 PCOD9571199
Probable space group: I 4/M M M
;
_chemical_formula_sum "Si O2"
_cell_formula_units_Z 160
_cell_length_a 32.774623
_cell_length_b 32.774623
_cell_length_c 9.157673
_cell_angle_alpha 90.000000
_cell_angle_beta 90.000000
_cell_angle_gamma 90.000000
_cell_volume 9836.951754
_symmetry_space_group_name_H-M "I 4/M M M"
_symmetry_group_IT_number 139
_symmetry_cell_setting 'tetragonal'
loop_
_space_group_symop_operation_xyz
x,y,z
-y,x,z
-x,-y,z
y,-x,z
x,-y,-z
-x,y,-z
y,x,-z
-y,-x,-z
-x,-y,-z
y,-x,-z
x,y,-z
-y,x,-z
-x,y,z
x,-y,z
-y,-x,z
y,x,z
1/2+x,1/2+y,1/2+z
1/2-y,1/2+x,1/2+z
1/2-x,1/2-y,1/2+z
1/2+y,1/2-x,1/2+z
1/2+x,1/2-y,1/2-z
1/2-x,1/2+y,1/2-z
1/2+y,1/2+x,1/2-z
1/2-y,1/2-x,1/2-z
1/2-x,1/2-y,1/2-z
1/2+y,1/2-x,1/2-z
1/2+x,1/2+y,1/2-z
1/2-y,1/2+x,1/2-z
1/2-x,1/2+y,1/2+z
1/2+x,1/2-y,1/2+z
1/2-y,1/2-x,1/2+z
1/2+y,1/2+x,1/2+z
loop_
_atom_site_type_symbol
_atom_site_label
_atom_site_fract_x
_atom_site_fract_y
_atom_site_fract_z
Si Si1 0.245948 0.909480 0.330686
Si Si2 0.500000 0.349157 0.327718
Si Si3 0.000000 0.234055 0.334405
Si Si4 0.175559 0.385183 0.326406
Si Si5 0.416396 0.650505 0.175302
Si Si6 0.047449 0.609015 0.175751
O O1 0.249302 0.896665 0.500000
O O2 0.278500 0.887100 0.231696
O O3 0.198085 0.907297 0.288398
O O4 0.257078 0.957651 0.322694
O O5 0.500000 0.355820 0.500000
O O6 0.500000 0.301110 0.286065
O O7 0.542075 0.363701 0.253871
O O8 0.000000 0.215220 0.500000
O O9 0.174742 0.380597 0.500000
O O10 0.151111 0.348890 0.250000
O O11 0.149746 0.426345 0.289446
O O12 0.378972 0.621029 0.212530
O O13 0.422533 0.649273 0.000000
O O14 0.071591 0.571591 0.250000
O O15 0.000000 0.611599 0.219794
O O16 0.048808 0.603987 0.000000
#
# Coordination Sequence:
#
# PCOD9571199 Si02
#       6
#    32  16  16  32  32  32
#     4   9  17  30  49  74  99 123 159 202 244 291
#     4  10  18  28  46  75 109 138 164 203 246 280
#     4   8  16  30  46  68  99 131 161 195 238 300
#     4  10  20  33  49  67  93 127 161 200 249 303
#     4   9  18  34  55  76 103 140 174 203 239 291
#     4   9  19  34  48  65  90 120 157 199 242 294
#
# _framework density 16.265201999999999
#
# number of rings (size 3 to 8) (size 9 to 14) (size 15 to 20)
#    0.000    2.800    0.000    2.700    1.400    5.000 
#    0.000    1.000    0.000    0.900    0.000    2.100 
#    0.000    0.000    0.000    0.000    0.000    0.000 
#
# Total GULP energy -445470.265813 kJ/mol
# GULP energy per Si atom -5568.378323 kJ/mol
# Density = 1.622818 g / cm^3
# Si number density = 16.265202 Si / 1000 Ang^3
#
#
#
# Elastic Constant Matrix: (Units=GPa)
#
#
# Indices 1 2 3 4 5 6 
#
# 1 102.0995 61.5239 48.2887 0.0000 0.0000 0.0000
# 2 61.5239 102.1020 48.2880 0.0000 0.0000 0.0000
# 3 48.2887 48.2880 50.0789 0.0000 0.0000 0.0000
# 4 0.0000 0.0000 0.0000 20.3457 0.0000 0.0000
# 5 0.0000 0.0000 0.0000 0.0000 20.3455 0.0000
# 6 0.0000 0.0000 0.0000 0.0000 0.0000 12.8971
#
#
#
# Elastic Compliance Matrix: (Units=1/GPa)
#
#
# Indices 1 2 3 4 5 6 
#
# 1 0.019415 -0.005230 -0.013678 0.000000 0.000000 0.000000
# 2 -0.005230 0.019414 -0.013676 0.000000 0.000000 0.000000
# 3 -0.013678 -0.013676 0.046345 0.000000 0.000000 0.000000
# 4 0.000000 0.000000 0.000000 0.049150 0.000000 0.000000
# 5 0.000000 0.000000 0.000000 0.000000 0.049151 0.000000
# 6 0.000000 0.000000 0.000000 0.000000 0.000000 0.077537
#
#
# Mechanical properties :
#
#
# Convention : Reuss Voigt Hill
#
# Bulk Modulus (GPa) = 49.98809 63.38684 56.68747
# Shear Modulus (GPa) = 15.02185 17.12965 16.07575
#
# Velocity S-wave (km/s) = 3.04231 3.24874 3.14722
# Velocity P-wave (km/s) = 6.56816 7.28889 6.93789
#
# Compressibility (1/GPa) = 0.02000476
#
# Stress axis : x y z
#
# Youngs Moduli (GPa) = 51.50636 51.51005 21.57750
#
# Poissons Ratio (x) = 0.26941 0.29514
# Poissons Ratio (y) = 0.26939 0.29510
# Poissons Ratio (z) = 0.70450 0.70446
#
# Static dielectric constant tensor:
#      x y z
#    x 1.548280 0.000000 0.000000 
#    y 0.000000 1.548270 0.000000 
#    z 0.000000 0.000000 1.546830 
# 
# From -- ./inp_files/2172.got.cif
#   From: 2010.05.17/outbox.cif.g08.bks.cpg/sg139_2_cif.got.tgz:2172.got - 2010.05.20 13:14:44.
