data_PCOD9571245
_publ_section_title
;
Structure prediction by ZEFSAII (Michael W. Deem and Ramdas Pophale) SiO2 
 PCOD9571245
Probable space group: I 4/M M M
;
_chemical_formula_sum "Si O2"
_cell_formula_units_Z 144
_cell_length_a 22.414962
_cell_length_b 22.414962
_cell_length_c 18.651694
_cell_angle_alpha 90.000000
_cell_angle_beta 90.000000
_cell_angle_gamma 90.000000
_cell_volume 9371.180343
_symmetry_space_group_name_H-M "I 4/M M M"
_symmetry_group_IT_number 139
_symmetry_cell_setting 'tetragonal'
loop_
_space_group_symop_operation_xyz
x,y,z
-y,x,z
-x,-y,z
y,-x,z
x,-y,-z
-x,y,-z
y,x,-z
-y,-x,-z
-x,-y,-z
y,-x,-z
x,y,-z
-y,x,-z
-x,y,z
x,-y,z
-y,-x,z
y,x,z
1/2+x,1/2+y,1/2+z
1/2-y,1/2+x,1/2+z
1/2-x,1/2-y,1/2+z
1/2+y,1/2-x,1/2+z
1/2+x,1/2-y,1/2-z
1/2-x,1/2+y,1/2-z
1/2+y,1/2+x,1/2-z
1/2-y,1/2-x,1/2-z
1/2-x,1/2-y,1/2-z
1/2+y,1/2-x,1/2-z
1/2+x,1/2+y,1/2-z
1/2-y,1/2+x,1/2-z
1/2-x,1/2+y,1/2+z
1/2+x,1/2-y,1/2+z
1/2-y,1/2-x,1/2+z
1/2+y,1/2+x,1/2+z
loop_
_atom_site_type_symbol
_atom_site_label
_atom_site_fract_x
_atom_site_fract_y
_atom_site_fract_z
Si Si1 0.432051 0.200320 0.222919
Si Si2 0.832458 0.931717 0.778275
Si Si3 0.428679 0.930912 0.500000
Si Si4 0.616883 0.851565 0.632355
Si Si5 0.120188 0.218263 0.080268
O O1 0.500000 0.191984 0.198174
O O2 0.421173 0.270519 0.235883
O O3 0.424559 0.165748 0.299205
O O4 0.384933 0.172738 0.168204
O O5 0.883655 0.883655 0.761801
O O6 0.811892 0.921981 0.860677
O O7 0.851492 0.000000 0.766936
O O8 0.500000 0.932354 0.500000
O O9 0.408942 0.894757 0.428869
O O10 0.407144 0.000000 0.500000
O O11 0.630224 0.787398 0.597842
O O12 0.181955 0.181955 0.084523
O O13 0.096030 0.212376 0.000000
#
# Coordination Sequence:
#
# PCOD9571245 Si02
#       5
#    32  32  16  32  32
#     4   9  18  31  47  66  90 120 154 189 227 276
#     4   9  18  31  47  69  94 121 153 188 228 274
#     4  11  22  32  43  64  92 120 155 196 230 265
#     4  10  18  31  48  66  88 120 155 188 233 275
#     4   9  17  30  46  67  92 116 150 191 228 270
#
# _framework density 15.366261
#
# number of rings (size 3 to 8) (size 9 to 14) (size 15 to 20)
#    0.000    2.556    1.111    1.333    0.000    2.444 
#    0.000    4.444    0.000    5.333    0.000    3.111 
#    0.000    0.000    0.000    0.000    0.000   10.222 
#
# Total GULP energy -400889.389370 kJ/mol
# GULP energy per Si atom -5567.908186 kJ/mol
# Density = 1.533129 g / cm^3
# Si number density = 15.366261 Si / 1000 Ang^3
#
#
#
# Elastic Constant Matrix: (Units=GPa)
#
#
# Indices 1 2 3 4 5 6 
#
# 1 81.5083 43.3191 13.8863 0.0000 0.0000 0.0000
# 2 43.3191 81.5083 13.8863 0.0000 0.0000 0.0000
# 3 13.8863 13.8863 39.6236 0.0000 0.0000 0.0000
# 4 0.0000 0.0000 0.0000 15.5020 0.0000 0.0000
# 5 0.0000 0.0000 0.0000 0.0000 15.5020 0.0000
# 6 0.0000 0.0000 0.0000 0.0000 0.0000 18.1405
#
#
#
# Elastic Compliance Matrix: (Units=1/GPa)
#
#
# Indices 1 2 3 4 5 6 
#
# 1 0.017437 -0.008748 -0.003045 0.000000 0.000000 0.000000
# 2 -0.008748 0.017437 -0.003045 0.000000 0.000000 0.000000
# 3 -0.003045 -0.003045 0.027372 0.000000 0.000000 0.000000
# 4 0.000000 0.000000 0.000000 0.064508 0.000000 0.000000
# 5 0.000000 0.000000 0.000000 0.000000 0.064508 0.000000
# 6 0.000000 0.000000 0.000000 0.000000 0.000000 0.055125
#
#
# Mechanical properties :
#
#
# Convention : Reuss Voigt Hill
#
# Bulk Modulus (GPa) = 30.70401 38.31371 34.50886
# Shear Modulus (GPa) = 17.42650 18.59881 18.01265
#
# Velocity S-wave (km/s) = 3.37126 3.48281 3.42749
# Velocity P-wave (km/s) = 5.93116 6.41569 6.17818
#
# Compressibility (1/GPa) = 0.03256903
#
# Stress axis : x y z
#
# Youngs Moduli (GPa) = 57.34937 57.34937 36.53402
#
# Poissons Ratio (x) = 0.50172 0.11124
# Poissons Ratio (y) = 0.50172 0.11124
# Poissons Ratio (z) = 0.17463 0.17463
#
# Static dielectric constant tensor:
#      x y z
#    x 1.497130 0.000000 0.000000 
#    y 0.000000 1.497130 0.000000 
#    z 0.000000 0.000000 1.512750 
# 
# From -- ./inp_files/8185.got.cif
#   From: 2010.05.17/outbox.cif.g08.bks.cpg/sg139_5_cif.got.tgz:8185.got - 2010.05.20 13:14:44.
