data_PCOD9571138
_publ_section_title
;
Structure prediction by ZEFSAII (Michael W. Deem and Ramdas Pophale) SiO2 
 PCOD9571138
Probable space group: P 42/N C M
;
_chemical_formula_sum "Si O2"
_cell_formula_units_Z 100
_cell_length_a 15.000000
_cell_length_b 15.000000
_cell_length_c 24.000000
_cell_angle_alpha 90.000000
_cell_angle_beta 90.000000
_cell_angle_gamma 90.000000
_cell_volume 5400.000000
_symmetry_space_group_name_H-M "P 42/N C M"
_symmetry_group_IT_number 138
_space_group.IT_coordinate_system_code '2'
_symmetry_cell_setting 'tetragonal'
loop_
_space_group_symop_operation_xyz
x,y,z
1/2-y,x,1/2+z
1/2-x,1/2-y,z
y,1/2-x,1/2+z
1/2+x,-y,1/2-z
-x,1/2+y,1/2-z
1/2+y,1/2+x,-z
-y,-x,-z
-x,-y,-z
1/2+y,-x,1/2-z
1/2+x,1/2+y,-z
-y,1/2+x,1/2-z
1/2-x,y,1/2+z
x,1/2-y,1/2+z
1/2-y,1/2-x,z
y,x,z
loop_
_atom_site_type_symbol
_atom_site_label
_atom_site_fract_x
_atom_site_fract_y
_atom_site_fract_z
Si Si1 0.542668 0.693232 0.454078
Si Si2 0.250000 0.250000 0.902938
Si Si3 0.427654 0.921388 0.113450
Si Si4 0.051291 0.900223 0.153278
Si Si5 0.465361 0.247066 0.422693
Si Si6 0.356077 0.508924 0.724653
Si Si7 0.953927 0.693938 0.345483
O O1 0.617487 0.617487 0.465341
O O2 0.452795 0.644249 0.432709
O O3 0.532470 0.749697 0.510062
O O4 0.571721 0.751848 0.401054
O O5 0.250514 0.361511 0.904863
O O6 0.481007 0.833790 0.098055
O O7 0.498634 0.001367 0.113951
O O8 0.383805 0.923459 0.174913
O O9 0.017712 0.834670 0.105309
O O10 0.050884 0.853814 0.214078
O O11 0.143182 0.952695 0.143695
O O12 0.977257 0.977257 0.156871
O O13 0.430372 0.430372 0.725037
O O14 0.263125 0.466954 0.704692
O O15 0.878821 0.621180 0.332606
#
# Coordination Sequence:
#
# PCOD9571138 Si02
#       7
#    16   4  16  16  16  16  16
#     4  10  21  37  62  90 122 151 207 248 294 359
#     4  12  24  36  54  98 126 156 204 240 308 354
#     4   9  18  36  62  87 112 155 200 249 296 350
#     4  10  23  40  55  85 127 158 195 242 301 376
#     4  12  22  37  59  89 124 158 194 250 302 353
#     4   9  20  40  61  87 114 150 205 253 293 358
#     4  10  22  39  61  86 117 162 198 243 306 355
#
# _framework density 18.518519000000001
#
# number of rings (size 3 to 8) (size 9 to 14) (size 15 to 20)
#    0.000    1.920    2.400    1.920    3.360    3.200 
#    1.440    4.800    0.000    3.840    0.000    0.000 
#    0.000    0.000    0.000    0.000    0.000    0.000 
#
# Total GULP energy -556760.161840 kJ/mol
# GULP energy per Si atom -5567.601618 kJ/mol
# Density = 1.847637 g / cm^3
# Si number density = 18.518519 Si / 1000 Ang^3
#
#
#
# Elastic Constant Matrix: (Units=GPa)
#
#
# Indices 1 2 3 4 5 6 
#
# 1 48.5367 6.1578 13.0091 0.0000 0.0000 0.0000
# 2 6.1578 48.5367 13.0091 0.0000 0.0000 0.0000
# 3 13.0091 13.0091 82.4962 0.0000 0.0000 0.0000
# 4 0.0000 0.0000 0.0000 12.4784 0.0000 0.0000
# 5 0.0000 0.0000 0.0000 0.0000 12.4784 0.0000
# 6 0.0000 0.0000 0.0000 0.0000 0.0000 8.3732
#
#
#
# Elastic Compliance Matrix: (Units=1/GPa)
#
#
# Indices 1 2 3 4 5 6 
#
# 1 0.021681 -0.001915 -0.003117 0.000000 0.000000 0.000000
# 2 -0.001915 0.021681 -0.003117 0.000000 0.000000 0.000000
# 3 -0.003117 -0.003117 0.013105 0.000000 0.000000 0.000000
# 4 0.000000 0.000000 0.000000 0.080139 0.000000 0.000000
# 5 0.000000 0.000000 0.000000 0.000000 0.080139 0.000000
# 6 0.000000 0.000000 0.000000 0.000000 0.000000 0.119429
#
#
# Mechanical properties :
#
#
# Convention : Reuss Voigt Hill
#
# Bulk Modulus (GPa) = 24.89474 27.10240 25.99857
# Shear Modulus (GPa) = 13.66635 16.49222 15.07929
#
# Velocity S-wave (km/s) = 2.71953 2.98750 2.85666
# Velocity P-wave (km/s) = 4.83047 5.15434 4.99503
#
# Compressibility (1/GPa) = 0.04016913
#
# Stress axis : x y z
#
# Youngs Moduli (GPa) = 46.12252 46.12252 76.30773
#
# Poissons Ratio (x) = 0.08834 0.23785
# Poissons Ratio (y) = 0.08834 0.23785
# Poissons Ratio (z) = 0.14376 0.14376
#
# Static dielectric constant tensor:
#      x y z
#    x 1.641110 0.000000 0.000000 
#    y 0.000000 1.641110 0.000000 
#    z 0.000000 0.000000 1.642220 
# 
# From -- ./inp_files/7006.got.cif
#   From: 2010.05.17/outbox.ucp.g08.bks.cvg/sg138_4_cif.got.tgz:7006.got - 2010.06.11 11:41:40.
