data_PCOD9571941
_publ_section_title
;
Structure prediction by ZEFSAII (Michael W. Deem and Ramdas Pophale) SiO2 
 PCOD9571941
Probable space group: I 4/M M M
;
_chemical_formula_sum "Si O2"
_cell_formula_units_Z 96
_cell_length_a 15.028687
_cell_length_b 15.028687
_cell_length_c 18.432257
_cell_angle_alpha 90.000000
_cell_angle_beta 90.000000
_cell_angle_gamma 90.000000
_cell_volume 4163.135978
_symmetry_space_group_name_H-M "I 4/M M M"
_symmetry_group_IT_number 139
_symmetry_cell_setting 'tetragonal'
loop_
_space_group_symop_operation_xyz
x,y,z
-y,x,z
-x,-y,z
y,-x,z
x,-y,-z
-x,y,-z
y,x,-z
-y,-x,-z
-x,-y,-z
y,-x,-z
x,y,-z
-y,x,-z
-x,y,z
x,-y,z
-y,-x,z
y,x,z
1/2+x,1/2+y,1/2+z
1/2-y,1/2+x,1/2+z
1/2-x,1/2-y,1/2+z
1/2+y,1/2-x,1/2+z
1/2+x,1/2-y,1/2-z
1/2-x,1/2+y,1/2-z
1/2+y,1/2+x,1/2-z
1/2-y,1/2-x,1/2-z
1/2-x,1/2-y,1/2-z
1/2+y,1/2-x,1/2-z
1/2+x,1/2+y,1/2-z
1/2-y,1/2+x,1/2-z
1/2-x,1/2+y,1/2+z
1/2+x,1/2-y,1/2+z
1/2-y,1/2-x,1/2+z
1/2+y,1/2+x,1/2+z
loop_
_atom_site_type_symbol
_atom_site_label
_atom_site_fract_x
_atom_site_fract_y
_atom_site_fract_z
Si Si1 0.355651 0.000000 0.117896
Si Si2 0.105972 0.105972 0.416670
Si Si3 0.144157 0.000000 0.087044
Si Si4 0.500000 0.226393 0.238960
Si Si5 0.178656 0.178656 0.274497
Si Si6 0.500000 0.855996 0.919278
O O1 0.356174 0.000000 0.205752
O O2 0.411365 0.083212 0.087513
O O3 0.250232 0.000000 0.101878
O O4 0.126553 0.126553 0.500000
O O5 0.162980 0.162980 0.360525
O O6 0.000000 0.119482 0.405035
O O7 0.086952 0.913049 0.111335
O O8 0.138955 0.000000 0.000000
O O9 0.585582 0.285867 0.253523
O O10 0.500000 0.198948 0.154920
O O11 0.250000 0.250000 0.250000
O O12 0.500000 0.813784 0.000000
#
# Coordination Sequence:
#
# PCOD9571941 Si02
#       6
#    16  16  16  16  16  16
#     4  11  22  43  73 101 140 188 240 304 365 451
#     4   9  18  38  71 109 149 193 241 303 378 446
#     4   9  19  37  64 104 149 191 240 296 358 432
#     4  12  28  46  70 102 154 187 241 304 376 440
#     4  12  25  45  72 108 147 197 247 301 368 453
#     4  11  24  46  73 103 137 189 249 305 370 441
#
# _framework density 23.059540999999999
#
# number of rings (size 3 to 8) (size 9 to 14) (size 15 to 20)
#    0.000    1.333    1.667    6.000    2.333    3.000 
#    3.000    0.000    0.000    0.000    0.000    0.000 
#    0.000    0.000    0.000    0.000    0.000    0.000 
#
# Total GULP energy -268386.103643 kJ/mol
# GULP energy per Si atom -5591.377159 kJ/mol
# Density = 2.300706 g / cm^3
# Si number density = 23.059541 Si / 1000 Ang^3
#
#
#
# Elastic Constant Matrix: (Units=GPa)
#
#
# Indices 1 2 3 4 5 6 
#
# 1 165.1455 76.0149 45.9189 0.0000 0.0000 0.0000
# 2 76.0149 165.1455 45.9189 0.0000 0.0000 0.0000
# 3 45.9189 45.9189 172.0842 0.0000 0.0000 0.0000
# 4 0.0000 0.0000 0.0000 34.1431 0.0000 0.0000
# 5 0.0000 0.0000 0.0000 0.0000 34.1431 0.0000
# 6 0.0000 0.0000 0.0000 0.0000 0.0000 26.8587
#
#
#
# Elastic Compliance Matrix: (Units=1/GPa)
#
#
# Indices 1 2 3 4 5 6 
#
# 1 0.007918 -0.003302 -0.001232 0.000000 0.000000 0.000000
# 2 -0.003302 0.007918 -0.001232 0.000000 0.000000 0.000000
# 3 -0.001232 -0.001232 0.006468 0.000000 0.000000 0.000000
# 4 0.000000 0.000000 0.000000 0.029288 0.000000 0.000000
# 5 0.000000 0.000000 0.000000 0.000000 0.029288 0.000000
# 6 0.000000 0.000000 0.000000 0.000000 0.000000 0.037232
#
#
# Mechanical properties :
#
#
# Convention : Reuss Voigt Hill
#
# Bulk Modulus (GPa) = 92.82338 93.12008 92.97173
# Shear Modulus (GPa) = 37.52799 41.33048 39.42924
#
# Velocity S-wave (km/s) = 4.03853 4.23819 4.13957
# Velocity P-wave (km/s) = 7.87956 8.02620 7.95322
#
# Compressibility (1/GPa) = 0.01077315
#
# Stress axis : x y z
#
# Youngs Moduli (GPa) = 126.30144 126.30144 154.59753
#
# Poissons Ratio (x) = 0.41704 0.19041
# Poissons Ratio (y) = 0.41704 0.19041
# Poissons Ratio (z) = 0.15556 0.15556
#
# Static dielectric constant tensor:
#      x y z
#    x 1.850380 0.000000 0.000000 
#    y 0.000000 1.850380 0.000000 
#    z 0.000000 0.000000 1.901210 
# 
# From -- ./inp_files/9521.got.cif
#   From: 2010.05.17/outbox.cif.g08.bks.cpg/sg139_5_cif.got.tgz:9521.got - 2010.05.20 13:14:44.
