data_PCOD9571594
_publ_section_title
;
Structure prediction by ZEFSAII (Michael W. Deem and Ramdas Pophale) SiO2 
 PCOD9571594
Probable space group: I 4/M M M
;
_chemical_formula_sum "Si O2"
_cell_formula_units_Z 192
_cell_length_a 20.912139
_cell_length_b 20.912139
_cell_length_c 26.385949
_cell_angle_alpha 90.000000
_cell_angle_beta 90.000000
_cell_angle_gamma 90.000000
_cell_volume 11539.038770
_symmetry_space_group_name_H-M "I 4/M M M"
_symmetry_group_IT_number 139
_symmetry_cell_setting 'tetragonal'
loop_
_space_group_symop_operation_xyz
x,y,z
-y,x,z
-x,-y,z
y,-x,z
x,-y,-z
-x,y,-z
y,x,-z
-y,-x,-z
-x,-y,-z
y,-x,-z
x,y,-z
-y,x,-z
-x,y,z
x,-y,z
-y,-x,z
y,x,z
1/2+x,1/2+y,1/2+z
1/2-y,1/2+x,1/2+z
1/2-x,1/2-y,1/2+z
1/2+y,1/2-x,1/2+z
1/2+x,1/2-y,1/2-z
1/2-x,1/2+y,1/2-z
1/2+y,1/2+x,1/2-z
1/2-y,1/2-x,1/2-z
1/2-x,1/2-y,1/2-z
1/2+y,1/2-x,1/2-z
1/2+x,1/2+y,1/2-z
1/2-y,1/2+x,1/2-z
1/2-x,1/2+y,1/2+z
1/2+x,1/2-y,1/2+z
1/2-y,1/2-x,1/2+z
1/2+y,1/2+x,1/2+z
loop_
_atom_site_type_symbol
_atom_site_label
_atom_site_fract_x
_atom_site_fract_y
_atom_site_fract_z
Si Si1 0.774460 0.333522 0.057519
Si Si2 0.425941 0.683119 0.337778
Si Si3 0.751304 0.857195 0.254424
Si Si4 0.424097 0.202195 0.852440
Si Si5 0.077267 0.429068 0.308711
Si Si6 0.618868 0.728419 0.556204
O O1 0.717723 0.282278 0.064272
O O2 0.770664 0.387256 0.099628
O O3 0.840044 0.293055 0.062593
O O4 0.771431 0.358217 0.000000
O O5 0.500000 0.669200 0.325632
O O6 0.379824 0.620177 0.336762
O O7 0.395410 0.732423 0.296996
O O8 0.421775 0.713333 0.394090
O O9 0.812532 0.812532 0.265328
O O10 0.692024 0.807977 0.250000
O O11 0.737745 0.903916 0.301002
O O12 0.500000 0.203808 0.858654
O O13 0.402370 0.128403 0.844229
O O14 0.103525 0.500000 0.318828
O O15 0.088762 0.411239 0.250000
O O16 0.000000 0.432817 0.312422
O O17 0.587998 0.729299 0.500000
O O18 0.672127 0.672127 0.554895
#
# Coordination Sequence:
#
# PCOD9571594 Si02
#       6
#    32  32  32  32  32  32
#     4   9  18  34  53  69  89 120 157 197 243 292
#     4  10  20  33  50  73 102 133 163 198 241 292
#     4  10  20  34  51  70  95 127 164 206 249 288
#     4  11  20  29  47  73  99 125 155 195 240 289
#     4   8  15  28  43  60  88 127 162 184 209 256
#     4   8  15  30  51  70  89 121 165 206 240 274
#
# _framework density 16.639168000000002
#
# number of rings (size 3 to 8) (size 9 to 14) (size 15 to 20)
#    0.000    2.667    0.000    4.000    0.000    3.500 
#    0.000    5.000    0.000    1.500    0.000    4.667 
#    0.000    3.000    0.000    7.333    0.000    0.000 
#
# Total GULP energy -535022.882835 kJ/mol
# GULP energy per Si atom -5573.155030 kJ/mol
# Density = 1.660130 g / cm^3
# Si number density = 16.639168 Si / 1000 Ang^3
#
#
#
# Elastic Constant Matrix: (Units=GPa)
#
#
# Indices 1 2 3 4 5 6 
#
# 1 63.6634 28.8760 56.4483 0.0000 0.0000 0.0000
# 2 28.8760 63.6657 56.4481 0.0000 0.0000 0.0000
# 3 56.4483 56.4481 121.2842 0.0000 0.0000 0.0000
# 4 0.0000 0.0000 0.0000 16.1883 0.0000 0.0000
# 5 0.0000 0.0000 0.0000 0.0000 16.1886 0.0000
# 6 0.0000 0.0000 0.0000 0.0000 0.0000 14.5388
#
#
#
# Elastic Compliance Matrix: (Units=1/GPa)
#
#
# Indices 1 2 3 4 5 6 
#
# 1 0.026875 -0.001871 -0.011637 0.000000 0.000000 0.000000
# 2 -0.001871 0.026873 -0.011636 0.000000 0.000000 0.000000
# 3 -0.011637 -0.011636 0.019077 0.000000 0.000000 0.000000
# 4 0.000000 0.000000 0.000000 0.061773 0.000000 0.000000
# 5 0.000000 0.000000 0.000000 0.000000 0.061772 0.000000
# 6 0.000000 0.000000 0.000000 0.000000 0.000000 0.068782
#
#
# Mechanical properties :
#
#
# Convention : Reuss Voigt Hill
#
# Bulk Modulus (GPa) = 44.37505 59.12866 51.75186
# Shear Modulus (GPa) = 15.48219 16.50586 15.99402
#
# Velocity S-wave (km/s) = 3.05366 3.15300 3.10373
# Velocity P-wave (km/s) = 6.25780 6.99058 6.63432
#
# Compressibility (1/GPa) = 0.02253519
#
# Stress axis : x y z
#
# Youngs Moduli (GPa) = 37.20984 37.21230 52.41939
#
# Poissons Ratio (x) = 0.06964 0.61001
# Poissons Ratio (y) = 0.06963 0.60996
# Poissons Ratio (z) = 0.43301 0.43301
#
# Static dielectric constant tensor:
#      x y z
#    x 1.559520 0.000000 0.000000 
#    y 0.000000 1.559520 0.000000 
#    z 0.000000 0.000000 1.560480 
# 
# From -- ./inp_files/11909.got.cif
#   From: 2010.05.17/outbox.cif.g08.bks.cpg/sg139_6_cif.got.tgz:11909.got - 2010.05.20 13:14:44.
