data_PCOD9571285
_publ_section_title
;
Structure prediction by ZEFSAII (Michael W. Deem and Ramdas Pophale) SiO2 
 PCOD9571285
Probable space group: I 4/M M M
;
_chemical_formula_sum "Si O2"
_cell_formula_units_Z 104
_cell_length_a 15.064832
_cell_length_b 15.064832
_cell_length_c 26.600512
_cell_angle_alpha 90.000000
_cell_angle_beta 90.000000
_cell_angle_gamma 90.000000
_cell_volume 6036.963939
_symmetry_space_group_name_H-M "I 4/M M M"
_symmetry_group_IT_number 139
_symmetry_cell_setting 'tetragonal'
loop_
_space_group_symop_operation_xyz
x,y,z
-y,x,z
-x,-y,z
y,-x,z
x,-y,-z
-x,y,-z
y,x,-z
-y,-x,-z
-x,-y,-z
y,-x,-z
x,y,-z
-y,x,-z
-x,y,z
x,-y,z
-y,-x,z
y,x,z
1/2+x,1/2+y,1/2+z
1/2-y,1/2+x,1/2+z
1/2-x,1/2-y,1/2+z
1/2+y,1/2-x,1/2+z
1/2+x,1/2-y,1/2-z
1/2-x,1/2+y,1/2-z
1/2+y,1/2+x,1/2-z
1/2-y,1/2-x,1/2-z
1/2-x,1/2-y,1/2-z
1/2+y,1/2-x,1/2-z
1/2+x,1/2+y,1/2-z
1/2-y,1/2+x,1/2-z
1/2-x,1/2+y,1/2+z
1/2+x,1/2-y,1/2+z
1/2-y,1/2-x,1/2+z
1/2+y,1/2+x,1/2+z
loop_
_atom_site_type_symbol
_atom_site_label
_atom_site_fract_x
_atom_site_fract_y
_atom_site_fract_z
Si Si1 0.191130 0.340359 0.943537
Si Si2 0.306448 0.000000 0.363775
Si Si3 0.351222 0.500000 0.667657
Si Si4 0.000000 0.500000 0.639185
Si Si5 0.000000 0.307071 0.911187
Si Si6 0.147841 0.000000 0.714308
O O1 0.265153 0.265153 0.936244
O O2 0.199518 0.414928 0.900626
O O3 0.092871 0.298144 0.939875
O O4 0.201644 0.378015 0.000000
O O5 0.402817 0.000000 0.336297
O O6 0.229711 0.000000 0.322968
O O7 0.414235 0.414235 0.658328
O O8 0.263991 0.500000 0.633827
O O9 0.327417 0.500000 0.726764
O O10 0.090254 0.500000 0.606859
O O11 0.085481 0.085481 0.705684
#
# Coordination Sequence:
#
# PCOD9571285 Si02
#       6
#    32  16  16   8  16  16
#     4  10  20  32  49  74 101 131 168 208 248 294
#     4  10  18  34  52  70  98 134 167 203 250 294
#     4   9  18  33  54  78 100 125 162 208 256 304
#     4   8  20  32  46  68  92 126 168 200 230 276
#     4  10  18  34  52  70  98 134 167 203 250 294
#     4   9  18  33  54  78 100 125 162 208 256 304
#
# _framework density 17.227202999999999
#
# number of rings (size 3 to 8) (size 9 to 14) (size 15 to 20)
#    0.000    2.462    0.000    3.692    0.000    0.000 
#    0.000   11.538    0.000   16.615    0.000   12.923 
#    0.000    0.000    0.000    0.000    0.000    0.000 
#
# Total GULP energy -289650.195173 kJ/mol
# GULP energy per Si atom -5570.196061 kJ/mol
# Density = 1.718799 g / cm^3
# Si number density = 17.227203 Si / 1000 Ang^3
#
#
#
# Elastic Constant Matrix: (Units=GPa)
#
#
# Indices 1 2 3 4 5 6 
#
# 1 114.3287 32.1338 54.9255 0.0000 0.0000 0.0000
# 2 32.1338 114.3287 54.9255 0.0000 0.0000 0.0000
# 3 54.9255 54.9255 78.8174 0.0000 0.0000 0.0000
# 4 0.0000 0.0000 0.0000 21.6520 0.0000 0.0000
# 5 0.0000 0.0000 0.0000 0.0000 21.6520 0.0000
# 6 0.0000 0.0000 0.0000 0.0000 0.0000 16.1090
#
#
#
# Elastic Compliance Matrix: (Units=1/GPa)
#
#
# Indices 1 2 3 4 5 6 
#
# 1 0.013235 0.001069 -0.009968 0.000000 0.000000 0.000000
# 2 0.001069 0.013235 -0.009968 0.000000 0.000000 0.000000
# 3 -0.009968 -0.009968 0.026580 0.000000 0.000000 0.000000
# 4 0.000000 0.000000 0.000000 0.046185 0.000000 0.000000
# 5 0.000000 0.000000 0.000000 0.000000 0.046185 0.000000
# 6 0.000000 0.000000 0.000000 0.000000 0.000000 0.062077
#
#
# Mechanical properties :
#
#
# Convention : Reuss Voigt Hill
#
# Bulk Modulus (GPa) = 65.29003 65.71603 65.50303
# Shear Modulus (GPa) = 19.97302 22.91527 21.44415
#
# Velocity S-wave (km/s) = 3.40867 3.65112 3.53198
# Velocity P-wave (km/s) = 7.31257 7.48356 7.39856
#
# Compressibility (1/GPa) = 0.01531627
#
# Stress axis : x y z
#
# Youngs Moduli (GPa) = 75.55667 75.55667 37.62174
#
# Poissons Ratio (x) = -0.08076 0.37501
# Poissons Ratio (y) = -0.08076 0.37501
# Poissons Ratio (z) = 0.75315 0.75315
#
# Static dielectric constant tensor:
#      x y z
#    x 1.584740 0.000000 0.000000 
#    y 0.000000 1.584740 0.000000 
#    z 0.000000 0.000000 1.562630 
# 
# From -- ./inp_files/11122.got.cif
#   From: 2010.05.17/outbox.cif.g08.bks.cpg/sg139_6_cif.got.tgz:11122.got - 2010.05.20 13:14:44.
