data_PCOD9571347
_publ_section_title
;
Structure prediction by ZEFSAII (Michael W. Deem and Ramdas Pophale) SiO2 
 PCOD9571347
Probable space group: I 4/M M M
;
_chemical_formula_sum "Si O2"
_cell_formula_units_Z 160
_cell_length_a 23.245241
_cell_length_b 23.245241
_cell_length_c 18.585993
_cell_angle_alpha 90.000000
_cell_angle_beta 90.000000
_cell_angle_gamma 90.000000
_cell_volume 10042.778303
_symmetry_space_group_name_H-M "I 4/M M M"
_symmetry_group_IT_number 139
_symmetry_cell_setting 'tetragonal'
loop_
_space_group_symop_operation_xyz
x,y,z
-y,x,z
-x,-y,z
y,-x,z
x,-y,-z
-x,y,-z
y,x,-z
-y,-x,-z
-x,-y,-z
y,-x,-z
x,y,-z
-y,x,-z
-x,y,z
x,-y,z
-y,-x,z
y,x,z
1/2+x,1/2+y,1/2+z
1/2-y,1/2+x,1/2+z
1/2-x,1/2-y,1/2+z
1/2+y,1/2-x,1/2+z
1/2+x,1/2-y,1/2-z
1/2-x,1/2+y,1/2-z
1/2+y,1/2+x,1/2-z
1/2-y,1/2-x,1/2-z
1/2-x,1/2-y,1/2-z
1/2+y,1/2-x,1/2-z
1/2+x,1/2+y,1/2-z
1/2-y,1/2+x,1/2-z
1/2-x,1/2+y,1/2+z
1/2+x,1/2-y,1/2+z
1/2-y,1/2-x,1/2+z
1/2+y,1/2+x,1/2+z
loop_
_atom_site_type_symbol
_atom_site_label
_atom_site_fract_x
_atom_site_fract_y
_atom_site_fract_z
Si Si1 0.359742 0.163784 0.585100
Si Si2 0.271119 0.631562 0.080963
Si Si3 0.432639 0.664478 0.204407
Si Si4 0.565500 0.127090 0.807349
Si Si5 0.230032 0.567985 0.303925
O O1 0.370809 0.166563 0.500000
O O2 0.290999 0.159135 0.596680
O O3 0.381465 0.105861 0.624228
O O4 0.391227 0.213933 0.629660
O O5 0.317379 0.682622 0.082018
O O6 0.294992 0.585230 0.137048
O O7 0.268087 0.607256 0.000000
O O8 0.500000 0.649059 0.200147
O O9 0.390200 0.609801 0.205601
O O10 0.423644 0.706173 0.272988
O O11 0.500000 0.132338 0.829163
O O12 0.576668 0.076668 0.750000
O O13 0.581119 0.184176 0.760346
O O14 0.222348 0.500000 0.321212
#
# Coordination Sequence:
#
# PCOD9571347 Si02
#       5
#    32  32  32  32  32
#     4  10  19  30  48  74 101 131 167 207 248 291
#     4   9  18  31  47  72 105 134 161 197 241 291
#     4  10  20  34  53  75  99 131 169 207 249 298
#     4   9  17  30  46  65  93 129 169 207 242 286
#     4   9  18  33  49  68  98 134 170 206 251 302
#
# _framework density 15.931846
#
# number of rings (size 3 to 8) (size 9 to 14) (size 15 to 20)
#    0.000    2.600    2.000    0.000    0.000    2.400 
#    0.000    4.000    0.000    0.000    0.000    8.400 
#    0.000    0.000    0.000    4.400    0.000    0.000 
#
# Total GULP energy -445377.497460 kJ/mol
# GULP energy per Si atom -5567.218718 kJ/mol
# Density = 1.589558 g / cm^3
# Si number density = 15.931846 Si / 1000 Ang^3
#
#
#
# Elastic Constant Matrix: (Units=GPa)
#
#
# Indices 1 2 3 4 5 6 
#
# 1 64.8651 53.6036 53.6890 0.0000 0.0000 0.0000
# 2 53.6036 64.8651 53.6890 0.0000 0.0000 0.0000
# 3 53.6890 53.6890 95.8424 0.0000 0.0000 0.0000
# 4 0.0000 0.0000 0.0000 17.4088 0.0000 0.0000
# 5 0.0000 0.0000 0.0000 0.0000 17.4088 0.0000
# 6 0.0000 0.0000 0.0000 0.0000 0.0000 16.2270
#
#
#
# Elastic Compliance Matrix: (Units=1/GPa)
#
#
# Indices 1 2 3 4 5 6 
#
# 1 0.052973 -0.035825 -0.009606 0.000000 0.000000 0.000000
# 2 -0.035825 0.052973 -0.009606 0.000000 0.000000 0.000000
# 3 -0.009606 -0.009606 0.021196 0.000000 0.000000 0.000000
# 4 0.000000 0.000000 0.000000 0.057442 0.000000 0.000000
# 5 0.000000 0.000000 0.000000 0.000000 0.057442 0.000000
# 6 0.000000 0.000000 0.000000 0.000000 0.000000 0.061626
#
#
# Mechanical properties :
#
#
# Convention : Reuss Voigt Hill
#
# Bulk Modulus (GPa) = 58.58968 60.83734 59.71351
# Shear Modulus (GPa) = 11.92138 14.51499 13.21818
#
# Velocity S-wave (km/s) = 2.73843 3.02166 2.88353
# Velocity P-wave (km/s) = 6.84497 7.10231 6.97483
#
# Compressibility (1/GPa) = 0.01706785
#
# Stress axis : x y z
#
# Youngs Moduli (GPa) = 18.87756 18.87756 47.17957
#
# Poissons Ratio (x) = 0.67630 0.45319
# Poissons Ratio (y) = 0.67630 0.45319
# Poissons Ratio (z) = 0.18133 0.18133
#
# Static dielectric constant tensor:
#      x y z
#    x 1.536410 0.000000 0.000000 
#    y 0.000000 1.536410 0.000000 
#    z 0.000000 0.000000 1.540800 
# 
# From -- ./inp_files/5908.got.cif
#   From: 2010.05.17/outbox.cif.g08.bks.cpg/sg139_3_cif.got.tgz:5908.got - 2010.05.20 13:14:44.
