data_PCOD9571799
_publ_section_title
;
Structure prediction by ZEFSAII (Michael W. Deem and Ramdas Pophale) SiO2 
 PCOD9571799
Probable space group: I 4/M M M
;
_chemical_formula_sum "Si O2"
_cell_formula_units_Z 176
_cell_length_a 17.848648
_cell_length_b 17.848648
_cell_length_c 28.445805
_cell_angle_alpha 90.000000
_cell_angle_beta 90.000000
_cell_angle_gamma 90.000000
_cell_volume 9062.100579
_symmetry_space_group_name_H-M "I 4/M M M"
_symmetry_group_IT_number 139
_symmetry_cell_setting 'tetragonal'
loop_
_space_group_symop_operation_xyz
x,y,z
-y,x,z
-x,-y,z
y,-x,z
x,-y,-z
-x,y,-z
y,x,-z
-y,-x,-z
-x,-y,-z
y,-x,-z
x,y,-z
-y,x,-z
-x,y,z
x,-y,z
-y,-x,z
y,x,z
1/2+x,1/2+y,1/2+z
1/2-y,1/2+x,1/2+z
1/2-x,1/2-y,1/2+z
1/2+y,1/2-x,1/2+z
1/2+x,1/2-y,1/2-z
1/2-x,1/2+y,1/2-z
1/2+y,1/2+x,1/2-z
1/2-y,1/2-x,1/2-z
1/2-x,1/2-y,1/2-z
1/2+y,1/2-x,1/2-z
1/2+x,1/2+y,1/2-z
1/2-y,1/2+x,1/2-z
1/2-x,1/2+y,1/2+z
1/2+x,1/2-y,1/2+z
1/2-y,1/2-x,1/2+z
1/2+y,1/2+x,1/2+z
loop_
_atom_site_type_symbol
_atom_site_label
_atom_site_fract_x
_atom_site_fract_y
_atom_site_fract_z
Si Si1 0.408505 0.287292 0.863046
Si Si2 0.803387 0.410598 0.230836
Si Si3 0.500000 0.917265 0.943271
Si Si4 0.859136 0.316471 0.445935
Si Si5 0.298379 0.586950 0.313670
Si Si6 0.590289 0.286924 0.422799
O O1 0.500000 0.293197 0.866951
O O2 0.366525 0.366525 0.854530
O O3 0.389697 0.231155 0.819623
O O4 0.371515 0.250569 0.909492
O O5 0.803390 0.500000 0.230563
O O6 0.882599 0.382599 0.250000
O O7 0.750472 0.378804 0.272344
O O8 0.425008 0.873625 0.931075
O O9 0.500000 0.000000 0.922899
O O10 0.500000 0.922303 0.000000
O O11 0.871552 0.292319 0.500000
O O12 0.781178 0.362314 0.444798
O O13 0.299459 0.500000 0.305387
O O14 0.380570 0.619431 0.311113
O O15 0.271760 0.598699 0.366849
O O16 0.500000 0.288668 0.433720
O O17 0.635111 0.364890 0.433020
#
# Coordination Sequence:
#
# PCOD9571799 Si02
#       6
#    32  32  16  32  32  32
#     4  11  24  41  62  89 121 156 200 249 302 365
#     4  10  21  37  58  83 116 153 193 236 286 345
#     4   9  18  34  58  84 111 143 179 233 302 364
#     4  11  22  39  61  86 116 151 198 254 309 363
#     4   9  18  33  53  79 110 145 185 230 279 333
#     4  10  21  36  57  87 122 160 202 244 292 354
#
# _framework density 19.421545999999999
#
# number of rings (size 3 to 8) (size 9 to 14) (size 15 to 20)
#    0.000    1.909    0.909    2.727    0.000    6.182 
#    0.000    2.727    0.000    3.273    0.000    2.545 
#    0.000    0.000    0.000    0.000    0.000    0.000 
#
# Total GULP energy -490103.974675 kJ/mol
# GULP energy per Si atom -5569.363349 kJ/mol
# Density = 1.937734 g / cm^3
# Si number density = 19.421546 Si / 1000 Ang^3
#
#
#
# Elastic Constant Matrix: (Units=GPa)
#
#
# Indices 1 2 3 4 5 6 
#
# 1 79.0695 38.0058 37.0555 0.0000 0.0000 0.0000
# 2 38.0058 79.0695 37.0555 0.0000 0.0000 0.0000
# 3 37.0555 37.0555 89.8554 0.0000 0.0000 0.0000
# 4 0.0000 0.0000 0.0000 17.1001 0.0000 0.0000
# 5 0.0000 0.0000 0.0000 0.0000 17.1001 0.0000
# 6 0.0000 0.0000 0.0000 0.0000 0.0000 18.8543
#
#
#
# Elastic Compliance Matrix: (Units=1/GPa)
#
#
# Indices 1 2 3 4 5 6 
#
# 1 0.017956 -0.006397 -0.004767 0.000000 0.000000 0.000000
# 2 -0.006397 0.017956 -0.004767 0.000000 0.000000 0.000000
# 3 -0.004767 -0.004767 0.015061 0.000000 0.000000 0.000000
# 4 0.000000 0.000000 0.000000 0.058479 0.000000 0.000000
# 5 0.000000 0.000000 0.000000 0.000000 0.058479 0.000000
# 6 0.000000 0.000000 0.000000 0.000000 0.000000 0.053038
#
#
# Mechanical properties :
#
#
# Convention : Reuss Voigt Hill
#
# Bulk Modulus (GPa) = 52.32508 52.46978 52.39743
# Shear Modulus (GPa) = 19.29013 19.66941 19.47977
#
# Velocity S-wave (km/s) = 3.15498 3.18584 3.17045
# Velocity P-wave (km/s) = 6.34603 6.37242 6.35924
#
# Compressibility (1/GPa) = 0.01911129
#
# Stress axis : x y z
#
# Youngs Moduli (GPa) = 55.69262 55.69262 66.39859
#
# Poissons Ratio (x) = 0.35625 0.31651
# Poissons Ratio (y) = 0.35625 0.31651
# Poissons Ratio (z) = 0.26548 0.26548
#
# Static dielectric constant tensor:
#      x y z
#    x 1.706680 0.000000 0.000000 
#    y 0.000000 1.706680 0.000000 
#    z 0.000000 0.000000 1.734250 
# 
# From -- ./inp_files/13102.got.cif
#   From: 2010.05.17/outbox.cif.g08.bks.cpg/sg139_7_cif.got.tgz:13102.got - 2010.05.20 13:14:44.
