data_PCOD9571658
_publ_section_title
;
Structure prediction by ZEFSAII (Michael W. Deem and Ramdas Pophale) SiO2 
 PCOD9571658
Probable space group: I 4/M M M
;
_chemical_formula_sum "Si O2"
_cell_formula_units_Z 176
_cell_length_a 24.990905
_cell_length_b 24.990905
_cell_length_c 15.262610
_cell_angle_alpha 90.000000
_cell_angle_beta 90.000000
_cell_angle_gamma 90.000000
_cell_volume 9532.191841
_symmetry_space_group_name_H-M "I 4/M M M"
_symmetry_group_IT_number 139
_symmetry_cell_setting 'tetragonal'
loop_
_space_group_symop_operation_xyz
x,y,z
-y,x,z
-x,-y,z
y,-x,z
x,-y,-z
-x,y,-z
y,x,-z
-y,-x,-z
-x,-y,-z
y,-x,-z
x,y,-z
-y,x,-z
-x,y,z
x,-y,z
-y,-x,z
y,x,z
1/2+x,1/2+y,1/2+z
1/2-y,1/2+x,1/2+z
1/2-x,1/2-y,1/2+z
1/2+y,1/2-x,1/2+z
1/2+x,1/2-y,1/2-z
1/2-x,1/2+y,1/2-z
1/2+y,1/2+x,1/2-z
1/2-y,1/2-x,1/2-z
1/2-x,1/2-y,1/2-z
1/2+y,1/2-x,1/2-z
1/2+x,1/2+y,1/2-z
1/2-y,1/2+x,1/2-z
1/2-x,1/2+y,1/2+z
1/2+x,1/2-y,1/2+z
1/2-y,1/2-x,1/2+z
1/2+y,1/2+x,1/2+z
loop_
_atom_site_type_symbol
_atom_site_label
_atom_site_fract_x
_atom_site_fract_y
_atom_site_fract_z
Si Si1 0.254971 0.063674 0.397955
Si Si2 0.936999 0.500000 0.893910
Si Si3 0.797163 0.559626 0.601246
Si Si4 0.598030 0.683138 0.602867
Si Si5 0.350968 0.438737 0.786381
Si Si6 0.394982 0.871151 0.848066
O O1 0.240861 0.073256 0.500000
O O2 0.205121 0.076130 0.334225
O O3 0.310453 0.093893 0.376860
O O4 0.266025 0.000000 0.388157
O O5 0.905590 0.551216 0.858546
O O6 0.000000 0.500000 0.870415
O O7 0.933598 0.500000 0.000000
O O8 0.786556 0.550573 0.500000
O O9 0.802077 0.500000 0.643830
O O10 0.745040 0.592357 0.629731
O O11 0.849706 0.595030 0.603686
O O12 0.581185 0.675482 0.500000
O O13 0.656907 0.656907 0.608298
O O14 0.564826 0.654909 0.680357
O O15 0.362895 0.500000 0.810883
O O16 0.397039 0.397039 0.811916
O O17 0.373794 0.873794 0.750000
#
# Coordination Sequence:
#
# PCOD9571658 Si02
#       6
#    32  16  32  32  32  32
#     4  10  21  40  62  81 110 155 203 246 293 351
#     4  11  24  38  52  72 110 154 191 237 293 354
#     4  10  20  34  53  77 109 147 189 235 286 343
#     4   9  18  34  57  84 117 157 197 239 289 347
#     4  10  21  37  60  90 121 152 194 243 298 364
#     4  12  24  34  55  81 111 146 193 245 293 349
#
# _framework density 18.463749
#
# number of rings (size 3 to 8) (size 9 to 14) (size 15 to 20)
#    0.000    1.727    0.909    3.818    2.545    4.545 
#    0.000    0.909    0.000    5.455    0.000    5.091 
#    0.000    0.000    0.000    0.000    0.000    0.000 
#
# Total GULP energy -490172.701148 kJ/mol
# GULP energy per Si atom -5570.144331 kJ/mol
# Density = 1.842172 g / cm^3
# Si number density = 18.463749 Si / 1000 Ang^3
#
#
#
# Elastic Constant Matrix: (Units=GPa)
#
#
# Indices 1 2 3 4 5 6 
#
# 1 124.2288 87.9699 25.8589 0.0000 0.0000 0.0000
# 2 87.9699 124.2288 25.8589 0.0000 0.0000 0.0000
# 3 25.8589 25.8589 78.3320 0.0000 0.0000 0.0000
# 4 0.0000 0.0000 0.0000 24.6336 0.0000 0.0000
# 5 0.0000 0.0000 0.0000 0.0000 24.6336 0.0000
# 6 0.0000 0.0000 0.0000 0.0000 0.0000 31.1266
#
#
#
# Elastic Compliance Matrix: (Units=1/GPa)
#
#
# Indices 1 2 3 4 5 6 
#
# 1 0.016352 -0.011227 -0.001692 0.000000 0.000000 0.000000
# 2 -0.011227 0.016352 -0.001692 0.000000 0.000000 0.000000
# 3 -0.001692 -0.001692 0.013883 0.000000 0.000000 0.000000
# 4 0.000000 0.000000 0.000000 0.040595 0.000000 0.000000
# 5 0.000000 0.000000 0.000000 0.000000 0.040595 0.000000
# 6 0.000000 0.000000 0.000000 0.000000 0.000000 0.032127
#
#
# Mechanical properties :
#
#
# Convention : Reuss Voigt Hill
#
# Bulk Modulus (GPa) = 57.58483 67.35164 62.46824
# Shear Modulus (GPa) = 25.65225 28.55223 27.10224
#
# Velocity S-wave (km/s) = 3.73142 3.93669 3.83543
# Velocity P-wave (km/s) = 7.05835 7.56441 7.31576
#
# Compressibility (1/GPa) = 0.01736568
#
# Stress axis : x y z
#
# Youngs Moduli (GPa) = 61.15390 61.15390 72.02956
#
# Poissons Ratio (x) = 0.68659 0.12186
# Poissons Ratio (y) = 0.68659 0.12186
# Poissons Ratio (z) = 0.10346 0.10346
#
# Static dielectric constant tensor:
#      x y z
#    x 1.648990 0.000000 0.000000 
#    y 0.000000 1.648990 0.000000 
#    z 0.000000 0.000000 1.626250 
# 
# From -- ./inp_files/6104.got.cif
#   From: 2010.05.17/outbox.cif.g08.bks.cpg/sg139_4_cif.got.tgz:6104.got - 2010.05.20 13:14:44.
