data_PCOD9571090
_publ_section_title
;
Structure prediction by ZEFSAII (Michael W. Deem and Ramdas Pophale) SiO2 
 PCOD9571090
Probable space group: P 42/N C M
;
_chemical_formula_sum "Si O2"
_cell_formula_units_Z 52
_cell_length_a 15.066075
_cell_length_b 15.066075
_cell_length_c 12.053630
_cell_angle_alpha 90.000000
_cell_angle_beta 90.000000
_cell_angle_gamma 90.000000
_cell_volume 2736.012683
_symmetry_space_group_name_H-M "P 42/N C M"
_symmetry_group_IT_number 138
_space_group.IT_coordinate_system_code '2'
_symmetry_cell_setting 'tetragonal'
loop_
_space_group_symop_operation_xyz
x,y,z
1/2-y,x,1/2+z
1/2-x,1/2-y,z
y,1/2-x,1/2+z
1/2+x,-y,1/2-z
-x,1/2+y,1/2-z
1/2+y,1/2+x,-z
-y,-x,-z
-x,-y,-z
1/2+y,-x,1/2-z
1/2+x,1/2+y,-z
-y,1/2+x,1/2-z
1/2-x,y,1/2+z
x,1/2-y,1/2+z
1/2-y,1/2-x,z
y,x,z
loop_
_atom_site_type_symbol
_atom_site_label
_atom_site_fract_x
_atom_site_fract_y
_atom_site_fract_z
Si Si1 0.750000 0.250000 0.750000
Si Si2 0.326264 0.471059 0.465448
Si Si3 0.596947 0.371431 0.670110
Si Si4 0.020651 0.871521 0.082865
O O1 0.679884 0.303828 0.674736
O O2 0.377432 0.377432 0.466513
O O3 0.368499 0.532617 0.368806
O O4 0.345020 0.523191 0.580194
O O5 0.221561 0.475364 0.447085
O O6 0.557929 0.370253 0.792872
O O7 0.100062 0.899939 0.000000
O O8 0.946667 0.946667 0.075334
#
# Coordination Sequence:
#
# PCOD9571090 Si02
#       4
#     4  16  16  16
#     4  12  20  34  68 100 122 152 210 264 312 382
#     4  11  24  40  64  90 126 169 209 256 317 385
#     4  11  22  41  62  94 127 161 203 264 322 376
#     4  11  24  42  64  91 128 167 209 263 316 370
#
# _framework density 19.005759999999999
#
# number of rings (size 3 to 8) (size 9 to 14) (size 15 to 20)
#    0.000    0.923    3.077    5.538    0.000    1.846 
#    0.000    0.000    0.000    3.692    0.000    0.000 
#    0.000    0.000    0.000    0.000    0.000    0.000 
#
# Total GULP energy -290626.244038 kJ/mol
# GULP energy per Si atom -5588.966232 kJ/mol
# Density = 1.896250 g / cm^3
# Si number density = 19.005760 Si / 1000 Ang^3
#
#
#
# Elastic Constant Matrix: (Units=GPa)
#
#
# Indices 1 2 3 4 5 6 
#
# 1 112.6362 68.1596 52.0750 0.0000 0.0000 0.0000
# 2 68.1596 112.6379 52.0778 0.0000 0.0000 0.0000
# 3 52.0750 52.0778 89.9113 0.0000 0.0000 0.0000
# 4 0.0000 0.0000 0.0000 17.9340 0.0000 0.0000
# 5 0.0000 0.0000 0.0000 0.0000 17.9337 0.0000
# 6 0.0000 0.0000 0.0000 0.0000 0.0000 41.8094
#
#
#
# Elastic Compliance Matrix: (Units=1/GPa)
#
#
# Indices 1 2 3 4 5 6 
#
# 1 0.015392 -0.007091 -0.004807 0.000000 0.000000 0.000000
# 2 -0.007091 0.015392 -0.004808 0.000000 0.000000 0.000000
# 3 -0.004807 -0.004808 0.016691 0.000000 0.000000 0.000000
# 4 0.000000 0.000000 0.000000 0.055760 0.000000 0.000000
# 5 0.000000 0.000000 0.000000 0.000000 0.055761 0.000000
# 6 0.000000 0.000000 0.000000 0.000000 0.000000 0.023918
#
#
# Mechanical properties :
#
#
# Convention : Reuss Voigt Hill
#
# Bulk Modulus (GPa) = 71.11480 73.31223 72.21352
# Shear Modulus (GPa) = 22.62286 25.06028 23.84157
#
# Velocity S-wave (km/s) = 3.45384 3.63514 3.54565
# Velocity P-wave (km/s) = 7.30781 7.50176 7.40542
#
# Compressibility (1/GPa) = 0.01406177
#
# Stress axis : x y z
#
# Youngs Moduli (GPa) = 64.96936 64.96819 59.91131
#
# Poissons Ratio (x) = 0.46071 0.28801
# Poissons Ratio (y) = 0.46072 0.28806
# Poissons Ratio (z) = 0.31233 0.31238
#
# Static dielectric constant tensor:
#      x y z
#    x 1.658760 0.000000 0.000000 
#    y 0.000000 1.658760 0.000000 
#    z 0.000000 0.000000 1.641380 
# 
# From -- ./inp_files/2485.got.cif
#   From: 2010.05.17/outbox.cif.g08.bks.cpg/sg138_2_cif.got.tgz:2485.got - 2010.05.20 13:08:53.
