data_PCOD9571102
_publ_section_title
;
Structure prediction by ZEFSAII (Michael W. Deem and Ramdas Pophale) SiO2 
 PCOD9571102
Probable space group: P 42/N C M
;
_chemical_formula_sum "Si O2"
_cell_formula_units_Z 68
_cell_length_a 17.609544
_cell_length_b 17.609544
_cell_length_c 11.464597
_cell_angle_alpha 90.000000
_cell_angle_beta 90.000000
_cell_angle_gamma 90.000000
_cell_volume 3555.126129
_symmetry_space_group_name_H-M "P 42/N C M"
_symmetry_group_IT_number 138
_space_group.IT_coordinate_system_code '2'
_symmetry_cell_setting 'tetragonal'
loop_
_space_group_symop_operation_xyz
x,y,z
1/2-y,x,1/2+z
1/2-x,1/2-y,z
y,1/2-x,1/2+z
1/2+x,-y,1/2-z
-x,1/2+y,1/2-z
1/2+y,1/2+x,-z
-y,-x,-z
-x,-y,-z
1/2+y,-x,1/2-z
1/2+x,1/2+y,-z
-y,1/2+x,1/2-z
1/2-x,y,1/2+z
x,1/2-y,1/2+z
1/2-y,1/2-x,z
y,x,z
loop_
_atom_site_type_symbol
_atom_site_label
_atom_site_fract_x
_atom_site_fract_y
_atom_site_fract_z
Si Si1 0.369157 0.369157 0.539312
Si Si2 0.032155 0.595016 0.336126
Si Si3 0.250000 0.250000 0.430612
Si Si4 0.362620 0.362620 0.815102
Si Si5 0.479710 0.679940 0.063795
Si Si6 0.964044 0.351542 0.929904
O O1 0.306244 0.306244 0.502648
O O2 0.373191 0.373191 0.678257
O O3 0.351561 0.452740 0.488948
O O4 0.116386 0.572768 0.376394
O O5 0.029126 0.618678 0.202228
O O6 0.977556 0.522445 0.354211
O O7 0.007209 0.659179 0.427928
O O8 0.199136 0.300865 0.347285
O O9 0.332261 0.440320 0.871918
O O10 0.443665 0.762745 0.074092
O O11 0.905607 0.405607 0.000000
#
# Coordination Sequence:
#
# PCOD9571102 Si02
#       6
#     8  16   4   8  16  16
#     4  12  26  42  68 104 145 185 229 282 353 423
#     4  11  23  45  72  98 129 174 241 282 334 422
#     4  12  26  42  60 112 140 186 222 280 348 410
#     4  12  23  42  68  98 144 172 225 281 347 411
#     4  11  24  44  71  97 127 182 228 285 345 407
#     4  12  27  43  68 101 139 181 229 285 352 414
#
# _framework density 19.127310000000001
#
# number of rings (size 3 to 8) (size 9 to 14) (size 15 to 20)
#    0.000    0.471    5.882    2.824    6.588    0.000 
#    4.235    2.353    0.000    0.000    0.000    0.000 
#    0.000    0.000    0.000    0.000    0.000    0.000 
#
# Total GULP energy -380043.090022 kJ/mol
# GULP energy per Si atom -5588.868971 kJ/mol
# Density = 1.908378 g / cm^3
# Si number density = 19.127310 Si / 1000 Ang^3
#
#
#
# Elastic Constant Matrix: (Units=GPa)
#
#
# Indices 1 2 3 4 5 6 
#
# 1 115.9393 40.2324 53.1848 0.0000 0.0000 0.0000
# 2 40.2324 115.9393 53.1848 0.0000 0.0000 0.0000
# 3 53.1848 53.1848 177.4818 0.0000 0.0000 0.0000
# 4 0.0000 0.0000 0.0000 15.9808 0.0000 0.0000
# 5 0.0000 0.0000 0.0000 0.0000 15.9808 0.0000
# 6 0.0000 0.0000 0.0000 0.0000 0.0000 36.1857
#
#
#
# Elastic Compliance Matrix: (Units=1/GPa)
#
#
# Indices 1 2 3 4 5 6 
#
# 1 0.010627 -0.002582 -0.002411 0.000000 0.000000 0.000000
# 2 -0.002582 0.010627 -0.002411 0.000000 0.000000 0.000000
# 3 -0.002411 -0.002411 0.007079 0.000000 0.000000 0.000000
# 4 0.000000 0.000000 0.000000 0.062575 0.000000 0.000000
# 5 0.000000 0.000000 0.000000 0.000000 0.062575 0.000000
# 6 0.000000 0.000000 0.000000 0.000000 0.000000 0.027635
#
#
# Mechanical properties :
#
#
# Convention : Reuss Voigt Hill
#
# Bulk Modulus (GPa) = 73.92989 78.06273 75.99631
# Shear Modulus (GPa) = 24.94583 31.14671 28.04627
#
# Velocity S-wave (km/s) = 3.61529 4.03971 3.83338
# Velocity P-wave (km/s) = 7.49416 7.91579 7.70786
#
# Compressibility (1/GPa) = 0.01352633
#
# Stress axis : x y z
#
# Youngs Moduli (GPa) = 94.09946 94.09946 141.25727
#
# Poissons Ratio (x) = 0.24294 0.34055
# Poissons Ratio (y) = 0.24294 0.34055
# Poissons Ratio (z) = 0.22686 0.22686
#
# Static dielectric constant tensor:
#      x y z
#    x 1.371330 0.000000 0.000000 
#    y 0.000000 1.371330 0.000000 
#    z 0.000000 0.000000 1.646180 
# 
# From -- ./inp_files/2890.got.cif
#   From: 2010.05.17/outbox.cif.g08.bks.cpg/sg138_2_cif.got.tgz:2890.got - 2010.05.20 13:08:53.
