data_PCOD9571263
_publ_section_title
;
Structure prediction by ZEFSAII (Michael W. Deem and Ramdas Pophale) SiO2 
 PCOD9571263
Probable space group: I 4/M M M
;
_chemical_formula_sum "Si O2"
_cell_formula_units_Z 144
_cell_length_a 19.789858
_cell_length_b 19.789858
_cell_length_c 22.537895
_cell_angle_alpha 90.000000
_cell_angle_beta 90.000000
_cell_angle_gamma 90.000000
_cell_volume 8826.706933
_symmetry_space_group_name_H-M "I 4/M M M"
_symmetry_group_IT_number 139
_symmetry_cell_setting 'tetragonal'
loop_
_space_group_symop_operation_xyz
x,y,z
-y,x,z
-x,-y,z
y,-x,z
x,-y,-z
-x,y,-z
y,x,-z
-y,-x,-z
-x,-y,-z
y,-x,-z
x,y,-z
-y,x,-z
-x,y,z
x,-y,z
-y,-x,z
y,x,z
1/2+x,1/2+y,1/2+z
1/2-y,1/2+x,1/2+z
1/2-x,1/2-y,1/2+z
1/2+y,1/2-x,1/2+z
1/2+x,1/2-y,1/2-z
1/2-x,1/2+y,1/2-z
1/2+y,1/2+x,1/2-z
1/2-y,1/2-x,1/2-z
1/2-x,1/2-y,1/2-z
1/2+y,1/2-x,1/2-z
1/2+x,1/2+y,1/2-z
1/2-y,1/2+x,1/2-z
1/2-x,1/2+y,1/2+z
1/2+x,1/2-y,1/2+z
1/2-y,1/2-x,1/2+z
1/2+y,1/2+x,1/2+z
loop_
_atom_site_type_symbol
_atom_site_label
_atom_site_fract_x
_atom_site_fract_y
_atom_site_fract_z
Si Si1 0.138466 0.747978 0.733087
Si Si2 0.579172 0.310404 0.351854
Si Si3 0.827851 0.281485 0.929168
Si Si4 0.686856 0.425658 0.000000
Si Si5 0.576334 0.210387 0.110459
O O1 0.195384 0.804617 0.719915
O O2 0.180197 0.680197 0.750000
O O3 0.097450 0.773369 0.790077
O O4 0.091491 0.738409 0.675977
O O5 0.500000 0.317582 0.359413
O O6 0.618650 0.381351 0.351555
O O7 0.613567 0.264957 0.402715
O O8 0.757416 0.242585 0.911526
O O9 0.833436 0.357115 0.904058
O O10 0.829186 0.283858 0.000000
O O11 0.733203 0.420895 0.058627
O O12 0.654709 0.500000 0.000000
O O13 0.633332 0.366669 0.000000
O O14 0.500000 0.181212 0.108021
#
# Coordination Sequence:
#
# PCOD9571263 Si02
#       5
#    32  32  32  16  32
#     4  10  18  31  53  78 104 137 178 223 263 303
#     4  10  21  36  55  81 109 139 175 214 264 320
#     4  10  19  33  55  78 103 136 176 223 264 308
#     4  10  20  31  46  70 103 141 176 212 254 300
#     4  11  20  30  49  78 107 135 170 218 267 306
#
# _framework density 16.314125000000001
#
# number of rings (size 3 to 8) (size 9 to 14) (size 15 to 20)
#    0.000    1.778    3.333    2.667    0.000    0.778 
#    0.000    0.000    0.000    0.667    0.000    9.333 
#    0.000    0.000    0.000    0.000    0.000    0.000 
#
# Total GULP energy -401421.388877 kJ/mol
# GULP energy per Si atom -5575.297068 kJ/mol
# Density = 1.627699 g / cm^3
# Si number density = 16.314125 Si / 1000 Ang^3
#
#
#
# Elastic Constant Matrix: (Units=GPa)
#
#
# Indices 1 2 3 4 5 6 
#
# 1 108.7600 40.4988 19.5917 0.0000 0.0000 0.0000
# 2 40.4988 108.7602 19.5916 0.0000 0.0000 0.0000
# 3 19.5917 19.5916 50.7233 0.0000 0.0000 0.0000
# 4 0.0000 0.0000 0.0000 4.7544 0.0000 0.0000
# 5 0.0000 0.0000 0.0000 0.0000 4.7613 0.0000
# 6 0.0000 0.0000 0.0000 0.0000 0.0000 10.0093
#
#
#
# Elastic Compliance Matrix: (Units=1/GPa)
#
#
# Indices 1 2 3 4 5 6 
#
# 1 0.011053 -0.003597 -0.002880 0.000000 0.000000 0.000000
# 2 -0.003597 0.011053 -0.002880 0.000000 0.000000 0.000000
# 3 -0.002880 -0.002880 0.021939 0.000000 0.000000 0.000000
# 4 0.000000 0.000000 0.000000 0.210333 0.000000 0.000000
# 5 0.000000 0.000000 0.000000 0.000000 0.210028 0.000000
# 6 0.000000 0.000000 0.000000 0.000000 0.000000 0.099907
#
#
# Mechanical properties :
#
#
# Convention : Reuss Voigt Hill
#
# Bulk Modulus (GPa) = 39.47593 47.51196 43.49395
# Shear Modulus (GPa) = 8.45354 16.47576 12.46465
#
# Velocity S-wave (km/s) = 2.27881 3.18135 2.76713
# Velocity P-wave (km/s) = 5.58336 6.53308 6.07680
#
# Compressibility (1/GPa) = 0.02533189
#
# Stress axis : x y z
#
# Youngs Moduli (GPa) = 90.47567 90.47598 45.58017
#
# Poissons Ratio (x) = 0.32544 0.13126
# Poissons Ratio (y) = 0.32543 0.13126
# Poissons Ratio (z) = 0.26055 0.26055
#
# Static dielectric constant tensor:
#      x y z
#    x 1.541350 0.000000 0.000000 
#    y 0.000000 1.541350 0.000000 
#    z 0.000000 0.000000 1.552010 
# 
# From -- ./inp_files/11493.got.cif
#   From: 2010.05.17/outbox.cif.g08.bks.cpg/sg139_6_cif.got.tgz:11493.got - 2010.05.20 13:14:44.
