data_PCOD9571617
_publ_section_title
;
Structure prediction by ZEFSAII (Michael W. Deem and Ramdas Pophale) SiO2 
 PCOD9571617
Probable space group: I 4/M M M
;
_chemical_formula_sum "Si O2"
_cell_formula_units_Z 240
_cell_length_a 27.503997
_cell_length_b 27.503997
_cell_length_c 17.870878
_cell_angle_alpha 90.000000
_cell_angle_beta 90.000000
_cell_angle_gamma 90.000000
_cell_volume 13518.780417
_symmetry_space_group_name_H-M "I 4/M M M"
_symmetry_group_IT_number 139
_symmetry_cell_setting 'tetragonal'
loop_
_space_group_symop_operation_xyz
x,y,z
-y,x,z
-x,-y,z
y,-x,z
x,-y,-z
-x,y,-z
y,x,-z
-y,-x,-z
-x,-y,-z
y,-x,-z
x,y,-z
-y,x,-z
-x,y,z
x,-y,z
-y,-x,z
y,x,z
1/2+x,1/2+y,1/2+z
1/2-y,1/2+x,1/2+z
1/2-x,1/2-y,1/2+z
1/2+y,1/2-x,1/2+z
1/2+x,1/2-y,1/2-z
1/2-x,1/2+y,1/2-z
1/2+y,1/2+x,1/2-z
1/2-y,1/2-x,1/2-z
1/2-x,1/2-y,1/2-z
1/2+y,1/2-x,1/2-z
1/2+x,1/2+y,1/2-z
1/2-y,1/2+x,1/2-z
1/2-x,1/2+y,1/2+z
1/2+x,1/2-y,1/2+z
1/2-y,1/2-x,1/2+z
1/2+y,1/2+x,1/2+z
loop_
_atom_site_type_symbol
_atom_site_label
_atom_site_fract_x
_atom_site_fract_y
_atom_site_fract_z
Si Si1 0.860853 0.943474 0.500000
Si Si2 0.111101 0.190562 0.810897
Si Si3 0.443553 0.139942 0.664464
Si Si4 0.705625 0.868671 0.588392
Si Si5 0.366931 0.942963 0.343293
Si Si6 0.687677 0.394539 0.859408
Si Si7 0.729030 0.805109 0.168915
Si Si8 0.759216 0.441799 0.415430
O O1 0.907433 0.907433 0.500000
O O2 0.830073 0.930743 0.575115
O O3 0.874142 0.000000 0.500000
O O4 0.140278 0.140278 0.825183
O O5 0.088781 0.188738 0.727252
O O6 0.151933 0.232966 0.816316
O O7 0.073804 0.210649 0.871776
O O8 0.500000 0.132137 0.645349
O O9 0.412783 0.092464 0.642490
O O10 0.439895 0.144427 0.754449
O O11 0.427746 0.190677 0.626904
O O12 0.706813 0.865444 0.500000
O O13 0.676231 0.916313 0.613447
O O14 0.759643 0.874525 0.620107
O O15 0.683847 0.818839 0.621566
O O16 0.373791 0.000000 0.361709
O O17 0.649956 0.350045 0.860765
O O18 0.760212 0.760212 0.135313
O O19 0.710697 0.789304 0.250000
O O20 0.759506 0.422083 0.500000
O O21 0.760234 0.500000 0.418357
#
# Coordination Sequence:
#
# PCOD9571617 Si02
#       8
#    16  32  32  32  32  32  32  32
#     4  10  22  39  60  86 114 146 185 227 267 317
#     4  10  20  34  56  83 111 143 178 223 271 318
#     4   9  19  37  59  76  95 134 182 231 283 333
#     4  12  23  33  51  77 108 149 178 218 265 317
#     4  10  22  36  52  77 105 134 175 228 283 336
#     4  10  20  36  56  79 108 146 185 215 257 318
#     4  10  20  33  52  76 104 140 180 215 257 313
#     4  10  21  37  56  78 106 142 183 224 268 325
#
# _framework density 17.753080000000001
#
# number of rings (size 3 to 8) (size 9 to 14) (size 15 to 20)
#    0.000    1.867    2.000    2.000    1.867    4.867 
#    0.000    2.667    0.000    0.000    0.000    2.800 
#    0.000    0.267    0.000    1.467    0.000    0.000 
#
# Total GULP energy -669316.689785 kJ/mol
# GULP energy per Si atom -5577.639082 kJ/mol
# Density = 1.771267 g / cm^3
# Si number density = 17.753080 Si / 1000 Ang^3
#
#
#
# Elastic Constant Matrix: (Units=GPa)
#
#
# Indices 1 2 3 4 5 6 
#
# 1 55.3756 15.2161 39.3412 0.0000 0.0000 0.0000
# 2 15.2161 55.3717 39.3403 0.0000 0.0000 0.0000
# 3 39.3412 39.3403 82.7549 0.0000 0.0000 0.0000
# 4 0.0000 0.0000 0.0000 19.6797 0.0000 0.0000
# 5 0.0000 0.0000 0.0000 0.0000 19.6795 0.0000
# 6 0.0000 0.0000 0.0000 0.0000 0.0000 21.2574
#
#
#
# Elastic Compliance Matrix: (Units=1/GPa)
#
#
# Indices 1 2 3 4 5 6 
#
# 1 0.027517 0.002616 -0.014325 0.000000 0.000000 0.000000
# 2 0.002616 0.027519 -0.014326 0.000000 0.000000 0.000000
# 3 -0.014325 -0.014326 0.025704 0.000000 0.000000 0.000000
# 4 0.000000 0.000000 0.000000 0.050814 0.000000 0.000000
# 5 0.000000 0.000000 0.000000 0.000000 0.050814 0.000000
# 6 0.000000 0.000000 0.000000 0.000000 0.000000 0.047043
#
#
# Mechanical properties :
#
#
# Convention : Reuss Voigt Hill
#
# Bulk Modulus (GPa) = 34.87903 42.36638 38.62271
# Shear Modulus (GPa) = 17.17997 18.76361 17.97179
#
# Velocity S-wave (km/s) = 3.11419 3.25456 3.18515
# Velocity P-wave (km/s) = 5.71142 6.16757 5.94387
#
# Compressibility (1/GPa) = 0.02867052
#
# Stress axis : x y z
#
# Youngs Moduli (GPa) = 36.34154 36.33857 38.90439
#
# Poissons Ratio (x) = -0.09506 0.55730
# Poissons Ratio (y) = -0.09507 0.55733
# Poissons Ratio (z) = 0.52059 0.52057
#
# Static dielectric constant tensor:
#      x y z
#    x 1.608800 0.000000 0.000000 
#    y 0.000000 1.608800 0.000000 
#    z 0.000000 0.000000 1.616460 
# 
# From -- ./inp_files/9073.got.cif
#   From: 2010.05.17/outbox.cif.g08.bks.cpg/sg139_5_cif.got.tgz:9073.got - 2010.05.20 13:14:44.
