data_PCOD9571330
_publ_section_title
;
Structure prediction by ZEFSAII (Michael W. Deem and Ramdas Pophale) SiO2 
 PCOD9571330
Probable space group: I 4/M M M
;
_chemical_formula_sum "Si O2"
_cell_formula_units_Z 160
_cell_length_a 17.755302
_cell_length_b 17.755302
_cell_length_c 34.129512
_cell_angle_alpha 90.000000
_cell_angle_beta 90.000000
_cell_angle_gamma 90.000000
_cell_volume 10759.354225
_symmetry_space_group_name_H-M "I 4/M M M"
_symmetry_group_IT_number 139
_symmetry_cell_setting 'tetragonal'
loop_
_space_group_symop_operation_xyz
x,y,z
-y,x,z
-x,-y,z
y,-x,z
x,-y,-z
-x,y,-z
y,x,-z
-y,-x,-z
-x,-y,-z
y,-x,-z
x,y,-z
-y,x,-z
-x,y,z
x,-y,z
-y,-x,z
y,x,z
1/2+x,1/2+y,1/2+z
1/2-y,1/2+x,1/2+z
1/2-x,1/2-y,1/2+z
1/2+y,1/2-x,1/2+z
1/2+x,1/2-y,1/2-z
1/2-x,1/2+y,1/2-z
1/2+y,1/2+x,1/2-z
1/2-y,1/2-x,1/2-z
1/2-x,1/2-y,1/2-z
1/2+y,1/2-x,1/2-z
1/2+x,1/2+y,1/2-z
1/2-y,1/2+x,1/2-z
1/2-x,1/2+y,1/2+z
1/2+x,1/2-y,1/2+z
1/2-y,1/2-x,1/2+z
1/2+y,1/2+x,1/2+z
loop_
_atom_site_type_symbol
_atom_site_label
_atom_site_fract_x
_atom_site_fract_y
_atom_site_fract_z
Si Si1 0.588019 0.797573 0.732383
Si Si2 0.588107 0.289473 0.811385
Si Si3 0.591605 0.720682 0.500000
Si Si4 0.334145 0.090432 0.927400
Si Si5 0.500000 0.908563 0.954541
Si Si6 0.825888 0.299717 0.152412
O O1 0.500000 0.810995 0.727551
O O2 0.629620 0.870381 0.750000
O O3 0.598619 0.734205 0.765740
O O4 0.625333 0.780121 0.690818
O O5 0.500000 0.296695 0.819203
O O6 0.635540 0.364461 0.819096
O O7 0.625976 0.222210 0.836238
O O8 0.500000 0.703327 0.500000
O O9 0.647173 0.647173 0.500000
O O10 0.607368 0.774220 0.537876
O O11 0.419879 0.116247 0.936864
O O12 0.310600 0.125393 0.886193
O O13 0.336076 0.000000 0.924566
O O14 0.500000 0.000000 0.952473
O O15 0.500000 0.887515 0.000000
O O16 0.765921 0.234080 0.145998
#
# Coordination Sequence:
#
# PCOD9571330 Si02
#       6
#    32  32  16  32  16  32
#     4   9  17  30  46  64  90 120 151 186 227 272
#     4   9  18  31  46  64  86 115 150 189 230 270
#     4  10  20  34  51  71  97 127 160 196 231 270
#     4  10  19  31  49  71  95 122 153 188 230 278
#     4   9  16  30  48  68  92 120 147 181 231 281
#     4  10  19  30  46  67  92 121 153 186 224 274
#
# _framework density 14.87078
#
# number of rings (size 3 to 8) (size 9 to 14) (size 15 to 20)
#    0.000    2.500    1.000    1.800    1.400    2.900 
#    0.000    0.000    0.000    0.000    0.000    0.000 
#    0.000   14.400    0.000    0.000    0.000   19.600 
#
# Total GULP energy -445528.063125 kJ/mol
# GULP energy per Si atom -5569.100789 kJ/mol
# Density = 1.483693 g / cm^3
# Si number density = 14.870780 Si / 1000 Ang^3
#
#
#
# Elastic Constant Matrix: (Units=GPa)
#
#
# Indices 1 2 3 4 5 6 
#
# 1 61.6343 38.7531 28.6727 0.0000 0.0000 0.0000
# 2 38.7531 61.6342 28.6732 0.0000 0.0000 0.0000
# 3 28.6727 28.6732 99.4894 0.0000 0.0000 0.0000
# 4 0.0000 0.0000 0.0000 16.4633 0.0000 0.0000
# 5 0.0000 0.0000 0.0000 0.0000 16.4629 0.0000
# 6 0.0000 0.0000 0.0000 0.0000 0.0000 4.3977
#
#
#
# Elastic Compliance Matrix: (Units=1/GPa)
#
#
# Indices 1 2 3 4 5 6 
#
# 1 0.027814 -0.015890 -0.003437 0.000000 0.000000 0.000000
# 2 -0.015890 0.027814 -0.003437 0.000000 0.000000 0.000000
# 3 -0.003437 -0.003437 0.012032 0.000000 0.000000 0.000000
# 4 0.000000 0.000000 0.000000 0.060741 0.000000 0.000000
# 5 0.000000 0.000000 0.000000 0.000000 0.060742 0.000000
# 6 0.000000 0.000000 0.000000 0.000000 0.000000 0.227390
#
#
# Mechanical properties :
#
#
# Convention : Reuss Voigt Hill
#
# Bulk Modulus (GPa) = 45.17791 46.10621 45.64206
# Shear Modulus (GPa) = 10.65101 15.90872 13.27987
#
# Velocity S-wave (km/s) = 2.67917 3.27432 2.99158
# Velocity P-wave (km/s) = 6.32589 6.73549 6.53390
#
# Compressibility (1/GPa) = 0.02213471
#
# Stress axis : x y z
#
# Youngs Moduli (GPa) = 35.95279 35.95250 83.11009
#
# Poissons Ratio (x) = 0.57128 0.28561
# Poissons Ratio (y) = 0.57128 0.28564
# Poissons Ratio (z) = 0.12355 0.12356
#
# Static dielectric constant tensor:
#      x y z
#    x 1.483560 0.000000 0.000000 
#    y 0.000000 1.483560 0.000000 
#    z 0.000000 0.000000 1.484420 
# 
# From -- ./inp_files/14157.got.cif
#   From: 2010.05.17/outbox.cif.g08.bks.cpg/sg139_8_cif.got.tgz:14157.got - 2010.05.20 13:14:44.
