data_PCOD9571518
_publ_section_title
;
Structure prediction by ZEFSAII (Michael W. Deem and Ramdas Pophale) SiO2 
 PCOD9571518
Probable space group: I 4/M M M
;
_chemical_formula_sum "Si O2"
_cell_formula_units_Z 112
_cell_length_a 18.400850
_cell_length_b 18.400850
_cell_length_c 14.049083
_cell_angle_alpha 90.000000
_cell_angle_beta 90.000000
_cell_angle_gamma 90.000000
_cell_volume 4756.897006
_symmetry_space_group_name_H-M "I 4/M M M"
_symmetry_group_IT_number 139
_symmetry_cell_setting 'tetragonal'
loop_
_space_group_symop_operation_xyz
x,y,z
-y,x,z
-x,-y,z
y,-x,z
x,-y,-z
-x,y,-z
y,x,-z
-y,-x,-z
-x,-y,-z
y,-x,-z
x,y,-z
-y,x,-z
-x,y,z
x,-y,z
-y,-x,z
y,x,z
1/2+x,1/2+y,1/2+z
1/2-y,1/2+x,1/2+z
1/2-x,1/2-y,1/2+z
1/2+y,1/2-x,1/2+z
1/2+x,1/2-y,1/2-z
1/2-x,1/2+y,1/2-z
1/2+y,1/2+x,1/2-z
1/2-y,1/2-x,1/2-z
1/2-x,1/2-y,1/2-z
1/2+y,1/2-x,1/2-z
1/2+x,1/2+y,1/2-z
1/2-y,1/2+x,1/2-z
1/2-x,1/2+y,1/2+z
1/2+x,1/2-y,1/2+z
1/2-y,1/2-x,1/2+z
1/2+y,1/2+x,1/2+z
loop_
_atom_site_type_symbol
_atom_site_label
_atom_site_fract_x
_atom_site_fract_y
_atom_site_fract_z
Si Si1 0.914958 0.500000 0.384323
Si Si2 0.199350 0.080224 0.615698
Si Si3 0.204645 0.204645 0.833144
Si Si4 0.913942 0.086059 0.114915
Si Si5 0.848764 0.642447 0.110317
O O1 0.908241 0.500000 0.500000
O O2 0.877960 0.573470 0.349049
O O3 0.000000 0.500000 0.362220
O O4 0.202298 0.079657 0.500000
O O5 0.142055 0.142055 0.639502
O O6 0.278816 0.101566 0.653206
O O7 0.177885 0.000000 0.646939
O O8 0.250000 0.250000 0.750000
O O9 0.141967 0.141967 0.834479
O O10 0.272530 0.167461 0.885626
O O11 0.000000 0.100057 0.136173
O O12 0.905234 0.094767 0.000000
O O13 0.850215 0.618980 0.000000
#
# Coordination Sequence:
#
# PCOD9571518 Si02
#       5
#    16  32  16  16  32
#     4   9  18  32  58  94 121 149 196 258 315 364
#     4   9  16  27  46  72 103 139 184 240 293 341
#     4  12  25  39  58  92 133 171 207 255 344 437
#     4   9  20  42  75 109 135 169 229 305 366 412
#     4  10  19  35  59  85 116 157 207 258 315 384
#
# _framework density 23.544761999999999
#
# number of rings (size 3 to 8) (size 9 to 14) (size 15 to 20)
#    0.000    2.286    1.429    2.571    2.000    3.714 
#    0.000    4.286    0.000    0.000    0.000    0.000 
#    0.000    0.000    0.000    0.143    0.000    0.000 
#
# Total GULP energy -312746.887154 kJ/mol
# GULP energy per Si atom -5584.765842 kJ/mol
# Density = 2.349117 g / cm^3
# Si number density = 23.544762 Si / 1000 Ang^3
#
#
#
# Elastic Constant Matrix: (Units=GPa)
#
#
# Indices 1 2 3 4 5 6 
#
# 1 205.5875 119.9370 20.6407 0.0000 0.0000 0.0000
# 2 119.9370 205.5873 20.6407 0.0000 0.0000 0.0000
# 3 20.6407 20.6407 84.7360 0.0000 0.0000 0.0000
# 4 0.0000 0.0000 0.0000 5.9715 0.0000 0.0000
# 5 0.0000 0.0000 0.0000 0.0000 5.9715 0.0000
# 6 0.0000 0.0000 0.0000 0.0000 0.0000 98.0159
#
#
#
# Elastic Compliance Matrix: (Units=1/GPa)
#
#
# Indices 1 2 3 4 5 6 
#
# 1 0.007423 -0.004253 -0.000772 0.000000 0.000000 0.000000
# 2 -0.004253 0.007423 -0.000772 0.000000 0.000000 0.000000
# 3 -0.000772 -0.000772 0.012178 0.000000 0.000000 0.000000
# 4 0.000000 0.000000 0.000000 0.167461 0.000000 0.000000
# 5 0.000000 0.000000 0.000000 0.000000 0.167461 0.000000
# 6 0.000000 0.000000 0.000000 0.000000 0.000000 0.010202
#
#
# Mechanical properties :
#
#
# Convention : Reuss Voigt Hill
#
# Bulk Modulus (GPa) = 64.81420 90.92750 77.87085
# Shear Modulus (GPa) = 12.85729 44.30463 28.58096
#
# Velocity S-wave (km/s) = 2.33937 4.34258 3.48789
# Velocity P-wave (km/s) = 5.90633 7.99042 7.02608
#
# Compressibility (1/GPa) = 0.01542872
#
# Stress axis : x y z
#
# Youngs Moduli (GPa) = 134.72322 134.72311 82.11845
#
# Poissons Ratio (x) = 0.57294 0.06341
# Poissons Ratio (y) = 0.57294 0.06341
# Poissons Ratio (z) = 0.10403 0.10403
#
# Static dielectric constant tensor:
#      x y z
#    x 1.848840 0.000000 0.000000 
#    y 0.000000 1.848840 0.000000 
#    z 0.000000 0.000000 1.964130 
# 
# From -- ./inp_files/7602.got.cif
#   From: 2010.05.17/outbox.cif.g08.bks.cpg/sg139_4_cif.got.tgz:7602.got - 2010.05.20 13:14:44.
