data_PCOD9571880
_publ_section_title
;
Structure prediction by ZEFSAII (Michael W. Deem and Ramdas Pophale) SiO2 
 PCOD9571880
Probable space group: I 4/M M M
;
_chemical_formula_sum "Si O2"
_cell_formula_units_Z 80
_cell_length_a 17.366352
_cell_length_b 17.366352
_cell_length_c 11.310635
_cell_angle_alpha 90.000000
_cell_angle_beta 90.000000
_cell_angle_gamma 90.000000
_cell_volume 3411.176466
_symmetry_space_group_name_H-M "I 4/M M M"
_symmetry_group_IT_number 139
_symmetry_cell_setting 'tetragonal'
loop_
_space_group_symop_operation_xyz
x,y,z
-y,x,z
-x,-y,z
y,-x,z
x,-y,-z
-x,y,-z
y,x,-z
-y,-x,-z
-x,-y,-z
y,-x,-z
x,y,-z
-y,x,-z
-x,y,z
x,-y,z
-y,-x,z
y,x,z
1/2+x,1/2+y,1/2+z
1/2-y,1/2+x,1/2+z
1/2-x,1/2-y,1/2+z
1/2+y,1/2-x,1/2+z
1/2+x,1/2-y,1/2-z
1/2-x,1/2+y,1/2-z
1/2+y,1/2+x,1/2-z
1/2-y,1/2-x,1/2-z
1/2-x,1/2-y,1/2-z
1/2+y,1/2-x,1/2-z
1/2+x,1/2+y,1/2-z
1/2-y,1/2+x,1/2-z
1/2-x,1/2+y,1/2+z
1/2+x,1/2-y,1/2+z
1/2-y,1/2-x,1/2+z
1/2+y,1/2+x,1/2+z
loop_
_atom_site_type_symbol
_atom_site_label
_atom_site_fract_x
_atom_site_fract_y
_atom_site_fract_z
Si Si1 0.206491 0.913126 0.359393
Si Si2 0.631773 0.118157 0.127824
Si Si3 0.586587 0.283216 0.500000
O O1 0.190202 0.919873 0.500000
O O2 0.141094 0.858907 0.305273
O O3 0.289837 0.873598 0.358821
O O4 0.208034 0.000000 0.312769
O O5 0.592867 0.092867 0.250000
O O6 0.595786 0.097207 0.000000
O O7 0.721174 0.095709 0.107689
O O8 0.500000 0.314580 0.500000
O O9 0.652791 0.347210 0.500000
#
# Coordination Sequence:
#
# PCOD9571880 Si02
#       3
#    32  32  16
#     4   9  17  30  51  81 116 154 195 243 301 360
#     4   9  20  38  61  88 120 163 215 263 307 366
#     4  10  22  39  63  95 130 168 212 262 320 386
#
# _framework density 23.452318999999999
#
# number of rings (size 3 to 8) (size 9 to 14) (size 15 to 20)
#    1.200    1.600    0.000    1.200    0.000    5.400 
#    0.000    2.000    0.000    2.400    0.000    8.400 
#    0.000    0.000    0.000    0.000    0.000    0.000 
#
# Total GULP energy -222766.492853 kJ/mol
# GULP energy per Si atom -5569.162321 kJ/mol
# Density = 2.339894 g / cm^3
# Si number density = 23.452319 Si / 1000 Ang^3
#
#
#
# Elastic Constant Matrix: (Units=GPa)
#
#
# Indices 1 2 3 4 5 6 
#
# 1 101.2186 94.6284 1.7156 0.0000 0.0000 0.0000
# 2 94.6284 101.2290 1.7162 0.0000 0.0000 0.0000
# 3 1.7156 1.7162 193.4500 0.0000 0.0000 0.0000
# 4 0.0000 0.0000 0.0000 9.7936 0.0000 0.0000
# 5 0.0000 0.0000 0.0000 0.0000 9.7939 0.0000
# 6 0.0000 0.0000 0.0000 0.0000 0.0000 -11.8323
#
#
#
# Elastic Compliance Matrix: (Units=1/GPa)
#
#
# Indices 1 2 3 4 5 6 
#
# 1 0.078368 -0.073257 -0.000045 0.000000 0.000000 0.000000
# 2 -0.073257 0.078360 -0.000046 0.000000 0.000000 0.000000
# 3 -0.000045 -0.000046 0.005170 0.000000 0.000000 0.000000
# 4 0.000000 0.000000 0.000000 0.102107 0.000000 0.000000
# 5 0.000000 0.000000 0.000000 0.000000 0.102104 0.000000
# 6 0.000000 0.000000 0.000000 0.000000 0.000000 -0.084515
#
#
# Mechanical properties :
#
#
# Convention : Reuss Voigt Hill
#
# Bulk Modulus (GPa) = 65.77960 65.77978 65.77969
# Shear Modulus (GPa) = 11.53783 21.40689 16.47236
#
# Velocity S-wave (km/s) = 2.22045 3.02451 2.65311
# Velocity P-wave (km/s) = 5.88922 6.34871 6.12328
#
# Compressibility (1/GPa) = 0.01520228
#
# Stress axis : x y z
#
# Youngs Moduli (GPa) = 12.76035 12.76166 193.41993
#
# Poissons Ratio (x) = 0.93488 0.00872
# Poissons Ratio (y) = 0.93479 0.00880
# Poissons Ratio (z) = 0.00058 0.00058
#
# Static dielectric constant tensor:
#      x y z
#    x 1.822230 0.000000 0.000000 
#    y 0.000000 1.822230 0.000000 
#    z 0.000000 0.000000 2.141770 
# 
# From -- ./inp_files/4661.got.cif
#   From: 2010.05.17/outbox.cif.g08.bks.cpg/sg139_3_cif.got.tgz:4661.got - 2010.05.20 13:14:44.
