data_PCOD9571771
_publ_section_title
;
Structure prediction by ZEFSAII (Michael W. Deem and Ramdas Pophale) SiO2 
 PCOD9571771
Probable space group: I 4/M M M
;
_chemical_formula_sum "Si O2"
_cell_formula_units_Z 192
_cell_length_a 23.084085
_cell_length_b 23.084085
_cell_length_c 23.296694
_cell_angle_alpha 90.000000
_cell_angle_beta 90.000000
_cell_angle_gamma 90.000000
_cell_volume 12414.225356
_symmetry_space_group_name_H-M "I 4/M M M"
_symmetry_group_IT_number 139
_symmetry_cell_setting 'tetragonal'
loop_
_space_group_symop_operation_xyz
x,y,z
-y,x,z
-x,-y,z
y,-x,z
x,-y,-z
-x,y,-z
y,x,-z
-y,-x,-z
-x,-y,-z
y,-x,-z
x,y,-z
-y,x,-z
-x,y,z
x,-y,z
-y,-x,z
y,x,z
1/2+x,1/2+y,1/2+z
1/2-y,1/2+x,1/2+z
1/2-x,1/2-y,1/2+z
1/2+y,1/2-x,1/2+z
1/2+x,1/2-y,1/2-z
1/2-x,1/2+y,1/2-z
1/2+y,1/2+x,1/2-z
1/2-y,1/2-x,1/2-z
1/2-x,1/2-y,1/2-z
1/2+y,1/2-x,1/2-z
1/2+x,1/2+y,1/2-z
1/2-y,1/2+x,1/2-z
1/2-x,1/2+y,1/2+z
1/2+x,1/2-y,1/2+z
1/2-y,1/2-x,1/2+z
1/2+y,1/2+x,1/2+z
loop_
_atom_site_type_symbol
_atom_site_label
_atom_site_fract_x
_atom_site_fract_y
_atom_site_fract_z
Si Si1 0.067492 0.430534 0.064798
Si Si2 0.206794 0.431240 0.739471
Si Si3 0.866146 0.647176 0.344955
Si Si4 0.066838 0.838721 0.408479
Si Si5 0.743632 0.841594 0.564536
Si Si6 0.339916 0.434210 0.230549
O O1 0.071628 0.500000 0.067774
O O2 0.106612 0.402577 0.112882
O O3 0.000000 0.415154 0.072821
O O4 0.084549 0.413157 0.000000
O O5 0.195260 0.500000 0.732482
O O6 0.179848 0.392473 0.688893
O O7 0.177180 0.407437 0.797679
O O8 0.275819 0.423229 0.745305
O O9 0.839311 0.696639 0.385435
O O10 0.105935 0.894065 0.425860
O O11 0.099525 0.781374 0.430000
O O12 0.068061 0.836091 0.338942
O O13 0.000000 0.842489 0.426518
O O14 0.719091 0.838540 0.500000
O O15 0.789998 0.789998 0.571262
O O16 0.357350 0.500000 0.245727
O O17 0.386676 0.386676 0.248891
#
# Coordination Sequence:
#
# PCOD9571771 Si02
#       6
#    32  32  32  32  32  32
#     4   9  18  32  49  69  92 117 151 199 245 284
#     4  10  21  33  47  71 100 125 155 199 239 282
#     4  11  20  32  51  69  91 128 164 191 236 295
#     4   9  17  30  47  67  94 125 157 196 240 282
#     4  10  21  35  49  69  96 124 161 207 244 276
#     4   9  17  31  49  69  96 125 155 193 234 278
#
# _framework density 15.466127999999999
#
# number of rings (size 3 to 8) (size 9 to 14) (size 15 to 20)
#    0.000    2.333    1.667    2.000    0.000    2.000 
#    0.000    3.333    0.000    4.000    0.000    2.333 
#    0.000    0.000    0.000    0.000    0.000    0.500 
#
# Total GULP energy -535371.006025 kJ/mol
# GULP energy per Si atom -5576.781313 kJ/mol
# Density = 1.543093 g / cm^3
# Si number density = 15.466128 Si / 1000 Ang^3
#
#
#
# Elastic Constant Matrix: (Units=GPa)
#
#
# Indices 1 2 3 4 5 6 
#
# 1 97.7621 65.9017 54.5331 0.0000 0.0000 0.0000
# 2 65.9017 97.7621 54.5331 0.0000 0.0000 0.0000
# 3 54.5331 54.5331 89.8235 0.0000 0.0000 0.0000
# 4 0.0000 0.0000 0.0000 11.1132 0.0000 0.0000
# 5 0.0000 0.0000 0.0000 0.0000 11.1132 0.0000
# 6 0.0000 0.0000 0.0000 0.0000 0.0000 21.8237
#
#
#
# Elastic Compliance Matrix: (Units=1/GPa)
#
#
# Indices 1 2 3 4 5 6 
#
# 1 0.020824 -0.010562 -0.006230 0.000000 0.000000 0.000000
# 2 -0.010562 0.020824 -0.006230 0.000000 0.000000 0.000000
# 3 -0.006230 -0.006230 0.018698 0.000000 0.000000 0.000000
# 4 0.000000 0.000000 0.000000 0.089983 0.000000 0.000000
# 5 0.000000 0.000000 0.000000 0.000000 0.089983 0.000000
# 6 0.000000 0.000000 0.000000 0.000000 0.000000 0.045822
#
#
# Mechanical properties :
#
#
# Convention : Reuss Voigt Hill
#
# Bulk Modulus (GPa) = 69.92529 70.58705 70.25617
# Shear Modulus (GPa) = 14.83913 16.16868 15.50391
#
# Velocity S-wave (km/s) = 3.10088 3.23681 3.16957
# Velocity P-wave (km/s) = 7.62434 7.72710 7.67589
#
# Compressibility (1/GPa) = 0.01430098
#
# Stress axis : x y z
#
# Youngs Moduli (GPa) = 48.02071 48.02071 53.48249
#
# Poissons Ratio (x) = 0.50722 0.33320
# Poissons Ratio (y) = 0.50722 0.33320
# Poissons Ratio (z) = 0.29917 0.29917
#
# Static dielectric constant tensor:
#      x y z
#    x 1.505770 0.000000 0.000000 
#    y 0.000000 1.505770 0.000000 
#    z 0.000000 0.000000 1.510490 
# 
# From -- ./inp_files/11905.got.cif
#   From: 2010.05.17/outbox.cif.g08.bks.cpg/sg139_6_cif.got.tgz:11905.got - 2010.05.20 13:14:44.
