data_PCOD9571171
_publ_section_title
;
Structure prediction by ZEFSAII (Michael W. Deem and Ramdas Pophale) SiO2 
 PCOD9571171
Probable space group: I 4/M M M
;
_chemical_formula_sum "Si O2"
_cell_formula_units_Z 160
_cell_length_a 17.849421
_cell_length_b 17.849421
_cell_length_c 32.853416
_cell_angle_alpha 90.000000
_cell_angle_beta 90.000000
_cell_angle_gamma 90.000000
_cell_volume 10467.158461
_symmetry_space_group_name_H-M "I 4/M M M"
_symmetry_group_IT_number 139
_symmetry_cell_setting 'tetragonal'
loop_
_space_group_symop_operation_xyz
x,y,z
-y,x,z
-x,-y,z
y,-x,z
x,-y,-z
-x,y,-z
y,x,-z
-y,-x,-z
-x,-y,-z
y,-x,-z
x,y,-z
-y,x,-z
-x,y,z
x,-y,z
-y,-x,z
y,x,z
1/2+x,1/2+y,1/2+z
1/2-y,1/2+x,1/2+z
1/2-x,1/2-y,1/2+z
1/2+y,1/2-x,1/2+z
1/2+x,1/2-y,1/2-z
1/2-x,1/2+y,1/2-z
1/2+y,1/2+x,1/2-z
1/2-y,1/2-x,1/2-z
1/2-x,1/2-y,1/2-z
1/2+y,1/2-x,1/2-z
1/2+x,1/2+y,1/2-z
1/2-y,1/2+x,1/2-z
1/2-x,1/2+y,1/2+z
1/2+x,1/2-y,1/2+z
1/2-y,1/2-x,1/2+z
1/2+y,1/2+x,1/2+z
loop_
_atom_site_type_symbol
_atom_site_label
_atom_site_fract_x
_atom_site_fract_y
_atom_site_fract_z
Si Si1 0.413476 0.708205 0.912239
Si Si2 0.189490 0.311394 0.644605
Si Si3 0.863389 0.739693 0.500000
Si Si4 0.912497 0.587561 0.701218
Si Si5 0.915183 0.709928 0.000000
Si Si6 0.087119 0.791428 0.086407
O O1 0.500000 0.704410 0.901193
O O2 0.370868 0.629133 0.908514
O O3 0.368151 0.766088 0.884031
O O4 0.403964 0.734564 0.958982
O O5 0.250370 0.250370 0.660294
O O6 0.143299 0.357074 0.678113
O O7 0.234943 0.369250 0.616187
O O8 0.782658 0.782658 0.500000
O O9 0.849970 0.651188 0.500000
O O10 0.897663 0.500000 0.690872
O O11 0.905191 0.594810 0.750000
O O12 0.000000 0.602775 0.690891
O O13 0.906637 0.759333 0.959390
O O14 0.000000 0.678708 0.000000
O O15 0.129947 0.870054 0.088558
O O16 0.000000 0.796775 0.096942
#
# Coordination Sequence:
#
# PCOD9571171 Si02
#       6
#    32  32  16  32  16  32
#     4  10  20  32  49  70  92 122 156 193 236 276
#     4  10  19  31  49  71  95 123 155 188 224 275
#     4  10  17  31  49  64  90 123 160 197 229 270
#     4   9  18  33  52  72  95 122 149 184 232 277
#     4  10  18  29  47  66  91 124 159 198 233 267
#     4  10  19  30  46  67  92 124 160 197 234 271
#
# _framework density 15.285906000000001
#
# number of rings (size 3 to 8) (size 9 to 14) (size 15 to 20)
#    0.000    2.200    2.000    3.000    0.000    0.800 
#    0.000    0.000    0.000    6.000    0.000    0.000 
#    0.000    0.000    0.000   37.200    0.000    0.000 
#
# Total GULP energy -446079.919156 kJ/mol
# GULP energy per Si atom -5575.998989 kJ/mol
# Density = 1.525111 g / cm^3
# Si number density = 15.285906 Si / 1000 Ang^3
#
#
#
# Elastic Constant Matrix: (Units=GPa)
#
#
# Indices 1 2 3 4 5 6 
#
# 1 119.7979 64.0146 41.0441 0.0000 0.0000 0.0000
# 2 64.0146 119.7977 41.0440 0.0000 0.0000 0.0000
# 3 41.0441 41.0440 58.0346 0.0000 0.0000 0.0000
# 4 0.0000 0.0000 0.0000 22.6653 0.0000 0.0000
# 5 0.0000 0.0000 0.0000 0.0000 22.6655 0.0000
# 6 0.0000 0.0000 0.0000 0.0000 0.0000 20.2051
#
#
#
# Elastic Compliance Matrix: (Units=1/GPa)
#
#
# Indices 1 2 3 4 5 6 
#
# 1 0.012939 -0.004987 -0.005624 0.000000 0.000000 0.000000
# 2 -0.004987 0.012939 -0.005624 0.000000 0.000000 0.000000
# 3 -0.005624 -0.005624 0.025186 0.000000 0.000000 0.000000
# 4 0.000000 0.000000 0.000000 0.044120 0.000000 0.000000
# 5 0.000000 0.000000 0.000000 0.000000 0.044120 0.000000
# 6 0.000000 0.000000 0.000000 0.000000 0.000000 0.049493
#
#
# Mechanical properties :
#
#
# Convention : Reuss Voigt Hill
#
# Bulk Modulus (GPa) = 53.78009 65.53728 59.65869
# Shear Modulus (GPa) = 21.98141 23.20902 22.59521
#
# Velocity S-wave (km/s) = 3.79624 3.90080 3.84887
# Velocity P-wave (km/s) = 7.38068 7.95335 7.67236
#
# Compressibility (1/GPa) = 0.01859424
#
# Stress axis : x y z
#
# Youngs Moduli (GPa) = 77.28461 77.28452 39.70493
#
# Poissons Ratio (x) = 0.38545 0.22329
# Poissons Ratio (y) = 0.38545 0.22329
# Poissons Ratio (z) = 0.43463 0.43463
#
# Static dielectric constant tensor:
#      x y z
#    x 1.498960 0.000000 0.000000 
#    y 0.000000 1.498960 0.000000 
#    z 0.000000 0.000000 1.487630 
# 
# From -- ./inp_files/12975.got.cif
#   From: 2010.05.17/outbox.cif.g08.bks.cpg/sg139_7_cif.got.tgz:12975.got - 2010.05.20 13:14:44.
