data_PCOD9571512
_publ_section_title
;
Structure prediction by ZEFSAII (Michael W. Deem and Ramdas Pophale) SiO2 
 PCOD9571512
Probable space group: I 4/M M M
;
_chemical_formula_sum "Si O2"
_cell_formula_units_Z 160
_cell_length_a 30.690652
_cell_length_b 30.690652
_cell_length_c 7.951185
_cell_angle_alpha 90.000000
_cell_angle_beta 90.000000
_cell_angle_gamma 90.000000
_cell_volume 7489.349326
_symmetry_space_group_name_H-M "I 4/M M M"
_symmetry_group_IT_number 139
_symmetry_cell_setting 'tetragonal'
loop_
_space_group_symop_operation_xyz
x,y,z
-y,x,z
-x,-y,z
y,-x,z
x,-y,-z
-x,y,-z
y,x,-z
-y,-x,-z
-x,-y,-z
y,-x,-z
x,y,-z
-y,x,-z
-x,y,z
x,-y,z
-y,-x,z
y,x,z
1/2+x,1/2+y,1/2+z
1/2-y,1/2+x,1/2+z
1/2-x,1/2-y,1/2+z
1/2+y,1/2-x,1/2+z
1/2+x,1/2-y,1/2-z
1/2-x,1/2+y,1/2-z
1/2+y,1/2+x,1/2-z
1/2-y,1/2-x,1/2-z
1/2-x,1/2-y,1/2-z
1/2+y,1/2-x,1/2-z
1/2+x,1/2+y,1/2-z
1/2-y,1/2+x,1/2-z
1/2-x,1/2+y,1/2+z
1/2+x,1/2-y,1/2+z
1/2-y,1/2-x,1/2+z
1/2+y,1/2+x,1/2+z
loop_
_atom_site_type_symbol
_atom_site_label
_atom_site_fract_x
_atom_site_fract_y
_atom_site_fract_z
Si Si1 0.339997 0.729672 0.803160
Si Si2 0.500000 0.231581 0.687992
Si Si3 0.500000 0.676984 0.813086
Si Si4 0.699101 0.905519 0.299594
Si Si5 0.160655 0.910216 0.192652
Si Si6 0.450482 0.114997 0.202489
O O1 0.297305 0.702696 0.733207
O O2 0.363743 0.773480 0.731491
O O3 0.380071 0.695722 0.787078
O O4 0.330394 0.737364 0.000000
O O5 0.500000 0.213292 0.500000
O O6 0.500000 0.283343 0.685525
O O7 0.546382 0.220499 0.773521
O O8 0.544385 0.652484 0.781013
O O9 0.500000 0.695760 0.000000
O O10 0.696863 0.898239 0.500000
O O11 0.651202 0.916559 0.230048
O O12 0.116977 0.883024 0.188363
O O13 0.176169 0.915545 0.000000
O O14 0.500000 0.122690 0.261343
O O15 0.431863 0.068138 0.250000
O O16 0.451218 0.118927 0.000000
#
# Coordination Sequence:
#
# PCOD9571512 Si02
#       6
#    32  16  16  32  32  32
#     4   9  17  29  49  77 107 144 185 221 267 328
#     4  12  22  30  48  80 110 140 182 230 282 333
#     4  12  22  32  48  69  99 137 175 216 267 334
#     4  10  19  35  56  78 113 151 184 230 283 335
#     4  10  20  32  46  68  98 129 167 219 276 330
#     4  10  22  40  61  86 116 152 193 236 290 347
#
# _framework density 21.363672000000001
#
# number of rings (size 3 to 8) (size 9 to 14) (size 15 to 20)
#    0.000    1.800    3.000    2.400    0.000    2.600 
#    0.000    1.000    0.000    0.900    0.000    2.100 
#    0.000    0.000    0.000    0.000    0.000    0.000 
#
# Total GULP energy -445612.086850 kJ/mol
# GULP energy per Si atom -5570.151086 kJ/mol
# Density = 2.131505 g / cm^3
# Si number density = 21.363672 Si / 1000 Ang^3
#
#
#
# Elastic Constant Matrix: (Units=GPa)
#
#
# Indices 1 2 3 4 5 6 
#
# 1 66.4786 61.1799 -0.9981 0.0000 0.0000 0.0000
# 2 61.1799 66.4999 -0.9984 0.0000 0.0000 0.0000
# 3 -0.9981 -0.9984 36.3066 0.0000 0.0000 0.0000
# 4 0.0000 0.0000 0.0000 10.0838 0.0000 0.0000
# 5 0.0000 0.0000 0.0000 0.0000 10.0843 0.0000
# 6 0.0000 0.0000 0.0000 0.0000 0.0000 38.7689
#
#
#
# Elastic Compliance Matrix: (Units=1/GPa)
#
#
# Indices 1 2 3 4 5 6 
#
# 1 0.098107 -0.090256 0.000215 0.000000 0.000000 0.000000
# 2 -0.090256 0.098076 0.000216 0.000000 0.000000 0.000000
# 3 0.000215 0.000216 0.027555 0.000000 0.000000 0.000000
# 4 0.000000 0.000000 0.000000 0.099169 0.000000 0.000000
# 5 0.000000 0.000000 0.000000 0.000000 0.099164 0.000000
# 6 0.000000 0.000000 0.000000 0.000000 0.000000 0.025794
#
#
# Mechanical properties :
#
#
# Convention : Reuss Voigt Hill
#
# Bulk Modulus (GPa) = 22.68132 31.96132 27.32132
# Shear Modulus (GPa) = 7.78560 19.12752 13.45656
#
# Velocity S-wave (km/s) = 1.91108 2.99545 2.51246
# Velocity P-wave (km/s) = 3.93821 5.19199 4.60794
#
# Compressibility (1/GPa) = 0.04408914
#
# Stress axis : x y z
#
# Youngs Moduli (GPa) = 10.19291 10.19617 36.29096
#
# Poissons Ratio (x) = 0.92026 -0.00780
# Poissons Ratio (y) = 0.91997 -0.00783
# Poissons Ratio (z) = -0.00219 -0.00220
#
# Static dielectric constant tensor:
#      x y z
#    x 1.838650 0.000000 0.000000 
#    y 0.000000 1.838640 0.000000 
#    z 0.000000 0.000000 1.817290 
# 
# From -- ./inp_files/2244.got.cif
#   From: 2010.05.17/outbox.cif.g08.bks.cpg/sg139_2_cif.got.tgz:2244.got - 2010.05.20 13:14:44.
