data_PCOD9571968
_publ_section_title
;
Structure prediction by ZEFSAII (Michael W. Deem and Ramdas Pophale) SiO2 
 PCOD9571968
Probable space group: I 4/M M M
;
_chemical_formula_sum "Si O2"
_cell_formula_units_Z 120
_cell_length_a 21.000000
_cell_length_b 21.000000
_cell_length_c 27.000000
_cell_angle_alpha 90.000000
_cell_angle_beta 90.000000
_cell_angle_gamma 90.000000
_cell_volume 11907.000000
_symmetry_space_group_name_H-M "I 4/M M M"
_symmetry_group_IT_number 139
_symmetry_cell_setting 'tetragonal'
loop_
_space_group_symop_operation_xyz
x,y,z
-y,x,z
-x,-y,z
y,-x,z
x,-y,-z
-x,y,-z
y,x,-z
-y,-x,-z
-x,-y,-z
y,-x,-z
x,y,-z
-y,x,-z
-x,y,z
x,-y,z
-y,-x,z
y,x,z
1/2+x,1/2+y,1/2+z
1/2-y,1/2+x,1/2+z
1/2-x,1/2-y,1/2+z
1/2+y,1/2-x,1/2+z
1/2+x,1/2-y,1/2-z
1/2-x,1/2+y,1/2-z
1/2+y,1/2+x,1/2-z
1/2-y,1/2-x,1/2-z
1/2-x,1/2-y,1/2-z
1/2+y,1/2-x,1/2-z
1/2+x,1/2+y,1/2-z
1/2-y,1/2+x,1/2-z
1/2-x,1/2+y,1/2+z
1/2+x,1/2-y,1/2+z
1/2-y,1/2-x,1/2+z
1/2+y,1/2+x,1/2+z
loop_
_atom_site_type_symbol
_atom_site_label
_atom_site_fract_x
_atom_site_fract_y
_atom_site_fract_z
Si Si1 0.756793 0.072693 0.399278
Si Si2 0.877667 0.427545 0.200470
Si Si3 0.603723 0.069175 0.407988
Si Si4 0.572311 0.671543 0.735094
Si Si5 0.073769 0.822975 0.116899
Si Si6 0.754607 0.655215 0.805684
Si Si7 0.424379 0.793457 0.553470
Si Si8 0.424291 0.675801 0.000000
O O1 0.680621 0.069557 0.405937
O O2 0.770991 0.120597 0.355090
O O3 0.787058 0.094612 0.450538
O O4 0.778013 0.000000 0.388155
O O5 0.848334 0.500000 0.201634
O O6 0.917233 0.417233 0.250000
O O7 0.916754 0.425626 0.149469
O O8 0.827468 0.368826 0.196788
O O9 0.584891 0.132481 0.435757
O O10 0.583387 0.000000 0.427877
O O11 0.500000 0.678114 0.752432
O O12 0.602409 0.602409 0.745864
O O13 0.574151 0.680971 0.676228
O O14 0.618573 0.721884 0.760354
O O15 0.119673 0.880328 0.101407
O O16 0.098219 0.756333 0.094499
O O17 0.000000 0.834713 0.102316
O O18 0.727686 0.727686 0.805483
O O19 0.396182 0.777379 0.500000
O O20 0.500000 0.784248 0.551665
O O21 0.500000 0.672608 0.000000
O O22 0.392378 0.607623 0.000000
#
# Coordination Sequence:
#
# PCOD9571968 Si02
#       8
#    32  32  32  32  32  32  32  16
#     4   9  18  34  55  78 105 142 183 228 277 325
#     4  10  22  38  57  83 113 147 186 230 276 327
#     4   9  20  38  58  82 110 143 187 230 274 331
#     4   9  17  29  49  76 105 143 183 221 269 323
#     4   9  19  36  57  83 115 150 191 235 283 341
#     4  10  19  33  54  79 110 144 180 223 271 330
#     4  10  22  38  57  82 112 146 182 228 285 335
#     4  10  20  33  52  76 103 139 181 225 276 330
#
# _framework density 10.078105000000001
#
# number of rings (size 3 to 8) (size 9 to 14) (size 15 to 20)
#    0.000    2.533    0.000    2.400    2.800    2.067 
#    0.000    6.667    0.000    0.000    0.000    3.733 
#    0.000    0.000    0.000    0.000    0.000    0.000 
#
# Total GULP energy -668579.561969 kJ/mol
# GULP energy per Si atom -5571.496350 kJ/mol
# Density = 1.005517 g / cm^3
# Si number density = 10.078105 Si / 1000 Ang^3
#
#
#
# Elastic Constant Matrix: (Units=GPa)
#
#
# Indices 1 2 3 4 5 6 
#
# 1 51.7535 4.6660 21.6131 0.0000 0.0000 0.0000
# 2 4.6660 51.7519 21.6080 0.0000 0.0000 0.0000
# 3 21.6131 21.6080 39.9588 0.0000 0.0000 0.0000
# 4 0.0000 0.0000 0.0000 6.0601 0.0000 0.0000
# 5 0.0000 0.0000 0.0000 0.0000 6.0598 0.0000
# 6 0.0000 0.0000 0.0000 0.0000 0.0000 28.6434
#
#
#
# Elastic Compliance Matrix: (Units=1/GPa)
#
#
# Indices 1 2 3 4 5 6 
#
# 1 0.025751 0.004513 -0.016369 0.000000 0.000000 0.000000
# 2 0.004513 0.025749 -0.016365 0.000000 0.000000 0.000000
# 3 -0.016369 -0.016365 0.042729 0.000000 0.000000 0.000000
# 4 0.000000 0.000000 0.000000 0.165013 0.000000 0.000000
# 5 0.000000 0.000000 0.000000 0.000000 0.165022 0.000000
# 6 0.000000 0.000000 0.000000 0.000000 0.000000 0.034912
#
#
# Mechanical properties :
#
#
# Convention : Reuss Voigt Hill
#
# Bulk Modulus (GPa) = 26.46390 26.58205 26.52298
# Shear Modulus (GPa) = 9.46587 14.52447 11.99517
#
# Velocity S-wave (km/s) = 2.16944 2.68730 2.44213
# Velocity P-wave (km/s) = 4.40831 4.77969 4.59775
#
# Compressibility (1/GPa) = 0.03778733
#
# Stress axis : x y z
#
# Youngs Moduli (GPa) = 38.83285 38.83663 23.40342
#
# Poissons Ratio (x) = -0.17526 0.38309
# Poissons Ratio (y) = -0.17524 0.38299
# Poissons Ratio (z) = 0.63565 0.63555
#
# Static dielectric constant tensor:
#      x y z
#    x 1.724960 0.000000 0.000000 
#    y 0.000000 1.724960 0.000000 
#    z 0.000000 0.000000 1.744910 
# 
# From -- ./inp_files/13424.got.cif
#   From: 2010.05.17/outbox.ucp.g08.bks.cvg/sg139_7_cif.got.tgz:13424.got - 2010.06.11 11:42:03.
