data_PCOD9571629
_publ_section_title
;
Structure prediction by ZEFSAII (Michael W. Deem and Ramdas Pophale) SiO2 
 PCOD9571629
Probable space group: I 4/M M M
;
_chemical_formula_sum "Si O2"
_cell_formula_units_Z 112
_cell_length_a 19.125325
_cell_length_b 19.125325
_cell_length_c 18.719444
_cell_angle_alpha 90.000000
_cell_angle_beta 90.000000
_cell_angle_gamma 90.000000
_cell_volume 6847.161842
_symmetry_space_group_name_H-M "I 4/M M M"
_symmetry_group_IT_number 139
_symmetry_cell_setting 'tetragonal'
loop_
_space_group_symop_operation_xyz
x,y,z
-y,x,z
-x,-y,z
y,-x,z
x,-y,-z
-x,y,-z
y,x,-z
-y,-x,-z
-x,-y,-z
y,-x,-z
x,y,-z
-y,x,-z
-x,y,z
x,-y,z
-y,-x,z
y,x,z
1/2+x,1/2+y,1/2+z
1/2-y,1/2+x,1/2+z
1/2-x,1/2-y,1/2+z
1/2+y,1/2-x,1/2+z
1/2+x,1/2-y,1/2-z
1/2-x,1/2+y,1/2-z
1/2+y,1/2+x,1/2-z
1/2-y,1/2-x,1/2-z
1/2-x,1/2-y,1/2-z
1/2+y,1/2-x,1/2-z
1/2+x,1/2+y,1/2-z
1/2-y,1/2+x,1/2-z
1/2-x,1/2+y,1/2+z
1/2+x,1/2-y,1/2+z
1/2-y,1/2-x,1/2+z
1/2+y,1/2+x,1/2+z
loop_
_atom_site_type_symbol
_atom_site_label
_atom_site_fract_x
_atom_site_fract_y
_atom_site_fract_z
Si Si1 0.382296 0.500000 0.920250
Si Si2 0.417471 0.154760 0.418575
Si Si3 0.000000 0.237022 0.303097
Si Si4 0.637238 0.000000 0.415818
Si Si5 0.140018 0.744866 0.209201
O O1 0.432732 0.432732 0.916903
O O2 0.330576 0.500000 0.853932
O O3 0.348666 0.500000 0.000000
O O4 0.394375 0.167526 0.500000
O O5 0.500000 0.167171 0.413573
O O6 0.404056 0.072452 0.403755
O O7 0.379647 0.205827 0.363891
O O8 0.069511 0.241604 0.254541
O O9 0.000000 0.300322 0.359601
O O10 0.658233 0.000000 0.500000
O O11 0.184177 0.815824 0.198896
O O12 0.190751 0.690751 0.250000
#
# Coordination Sequence:
#
# PCOD9571629 Si02
#       5
#    16  32  16  16  32
#     4   9  19  36  56  79 106 137 178 225 273 326
#     4  10  20  37  58  81 109 143 181 222 270 324
#     4  12  20  35  57  77 110 146 182 220 269 322
#     4  10  20  33  54  84 113 141 175 214 261 329
#     4  11  23  37  54  81 112 144 186 230 271 326
#
# _framework density 16.357142
#
# number of rings (size 3 to 8) (size 9 to 14) (size 15 to 20)
#    0.000    1.571    4.286    2.143    0.000    2.286 
#    0.000    0.000    0.000    0.000    0.000    0.000 
#    0.000    2.286    0.000    0.000    0.000    0.000 
#
# Total GULP energy -312341.105826 kJ/mol
# GULP energy per Si atom -5577.519747 kJ/mol
# Density = 1.631991 g / cm^3
# Si number density = 16.357142 Si / 1000 Ang^3
#
#
#
# Elastic Constant Matrix: (Units=GPa)
#
#
# Indices 1 2 3 4 5 6 
#
# 1 100.2615 47.6515 67.7659 0.0000 0.0000 0.0000
# 2 47.6515 100.2615 67.7659 0.0000 0.0000 0.0000
# 3 67.7659 67.7659 116.7279 0.0000 0.0000 0.0000
# 4 0.0000 0.0000 0.0000 33.4888 0.0000 0.0000
# 5 0.0000 0.0000 0.0000 0.0000 33.4888 0.0000
# 6 0.0000 0.0000 0.0000 0.0000 0.0000 21.4122
#
#
#
# Elastic Compliance Matrix: (Units=1/GPa)
#
#
# Indices 1 2 3 4 5 6 
#
# 1 0.016726 -0.002282 -0.008386 0.000000 0.000000 0.000000
# 2 -0.002282 0.016726 -0.008386 0.000000 0.000000 0.000000
# 3 -0.008386 -0.008386 0.018304 0.000000 0.000000 0.000000
# 4 0.000000 0.000000 0.000000 0.029861 0.000000 0.000000
# 5 0.000000 0.000000 0.000000 0.000000 0.029861 0.000000
# 6 0.000000 0.000000 0.000000 0.000000 0.000000 0.046702
#
#
# Mechanical properties :
#
#
# Convention : Reuss Voigt Hill
#
# Bulk Modulus (GPa) = 73.26163 75.95751 74.60957
# Shear Modulus (GPa) = 24.89598 26.61580 25.75589
#
# Velocity S-wave (km/s) = 3.90555 4.03819 3.97242
# Velocity P-wave (km/s) = 8.07612 8.26319 8.17019
#
# Compressibility (1/GPa) = 0.01364971
#
# Stress axis : x y z
#
# Youngs Moduli (GPa) = 59.78666 59.78666 54.63431
#
# Poissons Ratio (x) = 0.13641 0.45815
# Poissons Ratio (y) = 0.13641 0.45815
# Poissons Ratio (z) = 0.50135 0.50135
#
# Static dielectric constant tensor:
#      x y z
#    x 1.532310 0.000000 0.000000 
#    y 0.000000 1.532310 0.000000 
#    z 0.000000 0.000000 1.545350 
# 
# From -- ./inp_files/7604.got.cif
#   From: 2010.05.17/outbox.cif.g08.bks.cpg/sg139_4_cif.got.tgz:7604.got - 2010.05.20 13:14:44.
