data_PCOD9571826
_publ_section_title
;
Structure prediction by ZEFSAII (Michael W. Deem and Ramdas Pophale) SiO2 
 PCOD9571826
Probable space group: I 4/M M M
;
_chemical_formula_sum "Si O2"
_cell_formula_units_Z 104
_cell_length_a 16.348534
_cell_length_b 16.348534
_cell_length_c 21.196122
_cell_angle_alpha 90.000000
_cell_angle_beta 90.000000
_cell_angle_gamma 90.000000
_cell_volume 5665.184265
_symmetry_space_group_name_H-M "I 4/M M M"
_symmetry_group_IT_number 139
_symmetry_cell_setting 'tetragonal'
loop_
_space_group_symop_operation_xyz
x,y,z
-y,x,z
-x,-y,z
y,-x,z
x,-y,-z
-x,y,-z
y,x,-z
-y,-x,-z
-x,-y,-z
y,-x,-z
x,y,-z
-y,x,-z
-x,y,z
x,-y,z
-y,-x,z
y,x,z
1/2+x,1/2+y,1/2+z
1/2-y,1/2+x,1/2+z
1/2-x,1/2-y,1/2+z
1/2+y,1/2-x,1/2+z
1/2+x,1/2-y,1/2-z
1/2-x,1/2+y,1/2-z
1/2+y,1/2+x,1/2-z
1/2-y,1/2-x,1/2-z
1/2-x,1/2-y,1/2-z
1/2+y,1/2-x,1/2-z
1/2+x,1/2+y,1/2-z
1/2-y,1/2+x,1/2-z
1/2-x,1/2+y,1/2+z
1/2+x,1/2-y,1/2+z
1/2-y,1/2-x,1/2+z
1/2+y,1/2+x,1/2+z
loop_
_atom_site_type_symbol
_atom_site_label
_atom_site_fract_x
_atom_site_fract_y
_atom_site_fract_z
Si Si1 0.685072 0.095446 0.930071
Si Si2 0.500000 0.724053 0.138981
Si Si3 0.661630 0.338371 0.205868
Si Si4 0.500000 0.907698 0.116435
Si Si5 0.000000 0.859009 0.500000
Si Si6 0.706824 0.706824 0.339589
O O1 0.586664 0.098016 0.919907
O O2 0.738636 0.144961 0.880573
O O3 0.707212 0.000000 0.926655
O O4 0.702164 0.127571 0.000000
O O5 0.578176 0.687759 0.173371
O O6 0.500000 0.821592 0.152392
O O7 0.500000 0.696480 0.064370
O O8 0.661698 0.338303 0.281755
O O9 0.728609 0.271392 0.187288
O O10 0.500000 0.000000 0.145966
O O11 0.079686 0.920315 0.500000
#
# Coordination Sequence:
#
# PCOD9571826 Si02
#       6
#    32  16  16  16   8  16
#     4  10  21  38  63  93 125 158 202 257 308 365
#     4  12  23  44  63  93 129 166 208 258 316 375
#     4  11  26  40  63  89 123 168 213 255 304 378
#     4  10  21  37  61  96 128 163 199 248 317 372
#     4  11  24  40  63  98 130 164 213 264 320 385
#     4  11  23  42  61  90 120 165 212 252 304 371
#
# _framework density 18.357742999999999
#
# number of rings (size 3 to 8) (size 9 to 14) (size 15 to 20)
#    0.000    1.308    4.615    0.923    4.308    2.154 
#    2.769    0.000    3.385    0.462    0.000    2.154 
#    0.000    0.000    0.000    0.000    0.000    0.000 
#
# Total GULP energy -289790.933165 kJ/mol
# GULP energy per Si atom -5572.902561 kJ/mol
# Density = 1.831596 g / cm^3
# Si number density = 18.357743 Si / 1000 Ang^3
#
#
#
# Elastic Constant Matrix: (Units=GPa)
#
#
# Indices 1 2 3 4 5 6 
#
# 1 95.2971 65.3813 64.3138 0.0000 0.0000 0.0000
# 2 65.3813 95.2972 64.3136 0.0000 0.0000 0.0000
# 3 64.3138 64.3136 136.5388 0.0000 0.0000 0.0000
# 4 0.0000 0.0000 0.0000 18.4465 0.0000 0.0000
# 5 0.0000 0.0000 0.0000 0.0000 18.4465 0.0000
# 6 0.0000 0.0000 0.0000 0.0000 0.0000 38.2409
#
#
#
# Elastic Compliance Matrix: (Units=1/GPa)
#
#
# Indices 1 2 3 4 5 6 
#
# 1 0.021709 -0.011718 -0.004706 0.000000 0.000000 0.000000
# 2 -0.011718 0.021709 -0.004706 0.000000 0.000000 0.000000
# 3 -0.004706 -0.004706 0.011757 0.000000 0.000000 0.000000
# 4 0.000000 0.000000 0.000000 0.054211 0.000000 0.000000
# 5 0.000000 0.000000 0.000000 0.000000 0.054211 0.000000
# 6 0.000000 0.000000 0.000000 0.000000 0.000000 0.026150
#
#
# Mechanical properties :
#
#
# Convention : Reuss Voigt Hill
#
# Bulk Modulus (GPa) = 77.42913 79.46116 78.44515
# Shear Modulus (GPa) = 21.15846 23.90174 22.53010
#
# Velocity S-wave (km/s) = 3.39863 3.61223 3.50706
# Velocity P-wave (km/s) = 7.59410 7.79592 7.69567
#
# Compressibility (1/GPa) = 0.01291504
#
# Stress axis : x y z
#
# Youngs Moduli (GPa) = 46.06374 46.06396 85.05402
#
# Poissons Ratio (x) = 0.53978 0.40027
# Poissons Ratio (y) = 0.53978 0.40026
# Poissons Ratio (z) = 0.21678 0.21677
#
# Static dielectric constant tensor:
#      x y z
#    x 1.613400 0.000000 0.000000 
#    y 0.000000 1.613400 0.000000 
#    z 0.000000 0.000000 1.643290 
# 
# From -- ./inp_files/9790.got.cif
#   From: 2010.05.17/outbox.cif.g08.bks.cpg/sg139_5_cif.got.tgz:9790.got - 2010.05.20 13:14:44.
