data_PCOD9571580
_publ_section_title
;
Structure prediction by ZEFSAII (Michael W. Deem and Ramdas Pophale) SiO2 
 PCOD9571580
Probable space group: I 4/M M M
;
_chemical_formula_sum "Si O2"
_cell_formula_units_Z 192
_cell_length_a 27.165673
_cell_length_b 27.165673
_cell_length_c 15.471995
_cell_angle_alpha 90.000000
_cell_angle_beta 90.000000
_cell_angle_gamma 90.000000
_cell_volume 11417.926782
_symmetry_space_group_name_H-M "I 4/M M M"
_symmetry_group_IT_number 139
_symmetry_cell_setting 'tetragonal'
loop_
_space_group_symop_operation_xyz
x,y,z
-y,x,z
-x,-y,z
y,-x,z
x,-y,-z
-x,y,-z
y,x,-z
-y,-x,-z
-x,-y,-z
y,-x,-z
x,y,-z
-y,x,-z
-x,y,z
x,-y,z
-y,-x,z
y,x,z
1/2+x,1/2+y,1/2+z
1/2-y,1/2+x,1/2+z
1/2-x,1/2-y,1/2+z
1/2+y,1/2-x,1/2+z
1/2+x,1/2-y,1/2-z
1/2-x,1/2+y,1/2-z
1/2+y,1/2+x,1/2-z
1/2-y,1/2-x,1/2-z
1/2-x,1/2-y,1/2-z
1/2+y,1/2-x,1/2-z
1/2+x,1/2+y,1/2-z
1/2-y,1/2+x,1/2-z
1/2-x,1/2+y,1/2+z
1/2+x,1/2-y,1/2+z
1/2-y,1/2-x,1/2+z
1/2+y,1/2+x,1/2+z
loop_
_atom_site_type_symbol
_atom_site_label
_atom_site_fract_x
_atom_site_fract_y
_atom_site_fract_z
Si Si1 0.000000 0.078935 0.605031
Si Si2 0.087819 0.257852 0.400949
Si Si3 0.055573 0.636413 0.349472
Si Si4 0.363210 0.943949 0.856593
Si Si5 0.749820 0.166331 0.000000
Si Si6 0.279613 0.057375 0.000000
Si Si7 0.779314 0.696269 0.155672
Si Si8 0.500000 0.691274 0.893738
O O1 0.000000 0.134882 0.633576
O O2 0.952248 0.047753 0.631862
O O3 0.000000 0.079399 0.500000
O O4 0.095581 0.243626 0.500000
O O5 0.064306 0.311905 0.395525
O O6 0.141317 0.261544 0.360733
O O7 0.048566 0.219768 0.362939
O O8 0.060897 0.646327 0.246191
O O9 0.095755 0.596569 0.377543
O O10 0.000000 0.618729 0.364533
O O11 0.381273 0.000000 0.871147
O O12 0.315333 0.938020 0.916232
O O13 0.717543 0.183961 0.917184
O O14 0.800221 0.199780 0.000000
O O15 0.754270 0.106734 0.000000
O O16 0.260335 0.000000 0.000000
O O17 0.733015 0.733015 0.154799
O O18 0.802792 0.697209 0.250000
O O19 0.500000 0.693506 0.000000
#
# Coordination Sequence:
#
# PCOD9571580 Si02
#       8
#    16  32  32  32  16  16  32  16
#     4   8  14  27  48  72  96 125 159 193 235 286
#     4  11  21  33  48  69 102 133 170 205 249 306
#     4  10  20  33  49  69  95 130 169 211 259 298
#     4   9  20  34  50  71  93 125 171 213 257 306
#     4  10  20  36  56  82 106 135 175 214 258 309
#     4  10  20  36  53  76 104 131 166 205 257 308
#     4  10  22  37  55  78 103 135 174 216 263 311
#     4   9  19  32  45  72 103 133 166 208 250 297
#
# _framework density 16.815663000000001
#
# number of rings (size 3 to 8) (size 9 to 14) (size 15 to 20)
#    0.000    2.250    1.667    1.250    5.833    1.000 
#    0.000    3.333    0.000    1.500    0.000    0.000 
#    0.000    0.167    0.000    0.000    0.000    0.000 
#
# Total GULP energy -535212.917061 kJ/mol
# GULP energy per Si atom -5575.134553 kJ/mol
# Density = 1.677739 g / cm^3
# Si number density = 16.815663 Si / 1000 Ang^3
#
#
#
# Elastic Constant Matrix: (Units=GPa)
#
#
# Indices 1 2 3 4 5 6 
#
# 1 109.0356 49.8104 21.0822 0.0000 0.0000 0.0000
# 2 49.8104 109.0310 21.0825 0.0000 0.0000 0.0000
# 3 21.0822 21.0825 50.4312 0.0000 0.0000 0.0000
# 4 0.0000 0.0000 0.0000 4.2704 0.0000 0.0000
# 5 0.0000 0.0000 0.0000 0.0000 4.2727 0.0000
# 6 0.0000 0.0000 0.0000 0.0000 0.0000 11.7543
#
#
#
# Elastic Compliance Matrix: (Units=1/GPa)
#
#
# Indices 1 2 3 4 5 6 
#
# 1 0.011983 -0.004902 -0.002960 0.000000 0.000000 0.000000
# 2 -0.004902 0.011984 -0.002960 0.000000 0.000000 0.000000
# 3 -0.002960 -0.002960 0.022304 0.000000 0.000000 0.000000
# 4 0.000000 0.000000 0.000000 0.234168 0.000000 0.000000
# 5 0.000000 0.000000 0.000000 0.000000 0.234042 0.000000
# 6 0.000000 0.000000 0.000000 0.000000 0.000000 0.085075
#
#
# Mechanical properties :
#
#
# Convention : Reuss Voigt Hill
#
# Bulk Modulus (GPa) = 40.60830 50.27200 45.44015
# Shear Modulus (GPa) = 7.94395 15.82767 11.88581
#
# Velocity S-wave (km/s) = 2.17587 3.07130 2.66151
# Velocity P-wave (km/s) = 5.52395 6.52212 6.04368
#
# Compressibility (1/GPa) = 0.02462551
#
# Stress axis : x y z
#
# Youngs Moduli (GPa) = 83.45131 83.44724 44.83491
#
# Poissons Ratio (x) = 0.40906 0.13272
# Poissons Ratio (y) = 0.40908 0.13273
# Poissons Ratio (z) = 0.24703 0.24704
#
# Static dielectric constant tensor:
#      x y z
#    x 1.567150 0.000000 0.000000 
#    y 0.000000 1.567150 0.000000 
#    z 0.000000 0.000000 1.603590 
# 
# From -- ./inp_files/6579.got.cif
#   From: 2010.05.17/outbox.cif.g08.bks.cpg/sg139_4_cif.got.tgz:6579.got - 2010.05.20 13:14:44.
