data_PCOD9571919
_publ_section_title
;
Structure prediction by ZEFSAII (Michael W. Deem and Ramdas Pophale) SiO2 
 PCOD9571919
Probable space group: I 4/M M M
;
_chemical_formula_sum "Si O2"
_cell_formula_units_Z 136
_cell_length_a 18.368169
_cell_length_b 18.368169
_cell_length_c 23.025668
_cell_angle_alpha 90.000000
_cell_angle_beta 90.000000
_cell_angle_gamma 90.000000
_cell_volume 7768.621663
_symmetry_space_group_name_H-M "I 4/M M M"
_symmetry_group_IT_number 139
_symmetry_cell_setting 'tetragonal'
loop_
_space_group_symop_operation_xyz
x,y,z
-y,x,z
-x,-y,z
y,-x,z
x,-y,-z
-x,y,-z
y,x,-z
-y,-x,-z
-x,-y,-z
y,-x,-z
x,y,-z
-y,x,-z
-x,y,z
x,-y,z
-y,-x,z
y,x,z
1/2+x,1/2+y,1/2+z
1/2-y,1/2+x,1/2+z
1/2-x,1/2-y,1/2+z
1/2+y,1/2-x,1/2+z
1/2+x,1/2-y,1/2-z
1/2-x,1/2+y,1/2-z
1/2+y,1/2+x,1/2-z
1/2-y,1/2-x,1/2-z
1/2-x,1/2-y,1/2-z
1/2+y,1/2-x,1/2-z
1/2+x,1/2+y,1/2-z
1/2-y,1/2+x,1/2-z
1/2-x,1/2+y,1/2+z
1/2+x,1/2-y,1/2+z
1/2-y,1/2-x,1/2+z
1/2+y,1/2+x,1/2+z
loop_
_atom_site_type_symbol
_atom_site_label
_atom_site_fract_x
_atom_site_fract_y
_atom_site_fract_z
Si Si1 0.337376 0.662625 0.253904
Si Si2 0.631713 0.820497 0.933251
Si Si3 0.384072 0.500000 0.000000
Si Si4 0.381384 0.000000 0.266547
Si Si5 0.000000 0.414340 0.398351
Si Si6 0.500000 0.718369 0.102566
Si Si7 0.285828 0.500000 0.240669
Si Si8 0.746592 0.253409 0.151391
O O1 0.320835 0.576652 0.259217
O O2 0.305014 0.694987 0.192510
O O3 0.294116 0.705885 0.303998
O O4 0.577478 0.890634 0.926372
O O5 0.571450 0.759884 0.919498
O O6 0.696546 0.800209 0.888564
O O7 0.656905 0.817115 0.000000
O O8 0.427548 0.427548 0.000000
O O9 0.350805 0.500000 0.063504
O O10 0.429383 0.070618 0.250000
O O11 0.375394 0.000000 0.335879
O O12 0.300081 0.000000 0.242091
O O13 0.000000 0.500000 0.389408
O O14 0.500000 0.709457 0.170780
#
# Coordination Sequence:
#
# PCOD9571919 Si02
#       8
#    16  32   8  16  16  16  16  16
#     4  11  26  41  64  88 122 156 206 257 318 360
#     4  11  22  38  59  86 120 163 201 247 303 365
#     4  11  26  36  50  78 115 160 212 246 275 338
#     4  11  22  35  61  91 122 171 210 245 304 371
#     4  11  21  37  57  88 127 163 206 244 300 368
#     4  11  20  35  55  81 120 160 203 237 295 347
#     4  12  25  41  62  89 122 164 202 264 306 374
#     4  11  23  40  62  94 115 154 207 263 298 363
#
# _framework density 17.506322000000001
#
# number of rings (size 3 to 8) (size 9 to 14) (size 15 to 20)
#    0.000    0.882    7.059    1.412    9.882    1.176 
#    0.000    0.000    0.000    0.000    0.000    0.000 
#    0.000    0.000    0.000    4.235    0.000    0.000 
#
# Total GULP energy -378668.972573 kJ/mol
# GULP energy per Si atom -5568.661361 kJ/mol
# Density = 1.746648 g / cm^3
# Si number density = 17.506322 Si / 1000 Ang^3
#
#
#
# Elastic Constant Matrix: (Units=GPa)
#
#
# Indices 1 2 3 4 5 6 
#
# 1 104.0451 59.9415 21.7689 0.0000 0.0000 0.0000
# 2 59.9415 104.0441 21.7679 0.0000 0.0000 0.0000
# 3 21.7689 21.7679 81.9655 0.0000 0.0000 0.0000
# 4 0.0000 0.0000 0.0000 32.4681 0.0000 0.0000
# 5 0.0000 0.0000 0.0000 0.0000 32.4684 0.0000
# 6 0.0000 0.0000 0.0000 0.0000 0.0000 5.9463
#
#
#
# Elastic Compliance Matrix: (Units=1/GPa)
#
#
# Indices 1 2 3 4 5 6 
#
# 1 0.014617 -0.008057 -0.001743 0.000000 0.000000 0.000000
# 2 -0.008057 0.014617 -0.001742 0.000000 0.000000 0.000000
# 3 -0.001743 -0.001742 0.013126 0.000000 0.000000 0.000000
# 4 0.000000 0.000000 0.000000 0.030799 0.000000 0.000000
# 5 0.000000 0.000000 0.000000 0.000000 0.030799 0.000000
# 6 0.000000 0.000000 0.000000 0.000000 0.000000 0.168171
#
#
# Mechanical properties :
#
#
# Convention : Reuss Voigt Hill
#
# Bulk Modulus (GPa) = 51.87383 55.22348 53.54866
# Shear Modulus (GPa) = 16.57610 26.61500 21.59555
#
# Velocity S-wave (km/s) = 3.08045 3.90334 3.51605
# Velocity P-wave (km/s) = 6.50754 7.20612 6.86572
#
# Compressibility (1/GPa) = 0.01927754
#
# Stress axis : x y z
#
# Youngs Moduli (GPa) = 68.41174 68.41144 76.18614
#
# Poissons Ratio (x) = 0.55117 0.13276
# Poissons Ratio (y) = 0.55118 0.13274
# Poissons Ratio (z) = 0.11921 0.11919
#
# Static dielectric constant tensor:
#      x y z
#    x 1.586320 0.000000 0.000000 
#    y 0.000000 1.586310 0.000000 
#    z 0.000000 0.000000 1.584700 
# 
# From -- ./inp_files/11597.got.cif
#   From: 2010.05.17/outbox.cif.g08.bks.cpg/sg139_6_cif.got.tgz:11597.got - 2010.05.20 13:14:44.
