data_PCOD9571113
_publ_section_title
;
Structure prediction by ZEFSAII (Michael W. Deem and Ramdas Pophale) SiO2 
 PCOD9571113
Probable space group: P 42/N C M
;
_chemical_formula_sum "Si O2"
_cell_formula_units_Z 56
_cell_length_a 11.915516
_cell_length_b 11.915516
_cell_length_c 19.566583
_cell_angle_alpha 90.000000
_cell_angle_beta 90.000000
_cell_angle_gamma 90.000000
_cell_volume 2778.054093
_symmetry_space_group_name_H-M "P 42/N C M"
_symmetry_group_IT_number 138
_space_group.IT_coordinate_system_code '2'
_symmetry_cell_setting 'tetragonal'
loop_
_space_group_symop_operation_xyz
x,y,z
1/2-y,x,1/2+z
1/2-x,1/2-y,z
y,1/2-x,1/2+z
1/2+x,-y,1/2-z
-x,1/2+y,1/2-z
1/2+y,1/2+x,-z
-y,-x,-z
-x,-y,-z
1/2+y,-x,1/2-z
1/2+x,1/2+y,-z
-y,1/2+x,1/2-z
1/2-x,y,1/2+z
x,1/2-y,1/2+z
1/2-y,1/2-x,z
y,x,z
loop_
_atom_site_type_symbol
_atom_site_label
_atom_site_fract_x
_atom_site_fract_y
_atom_site_fract_z
Si Si1 0.658771 0.658771 0.964980
Si Si2 0.656877 0.656877 0.262900
Si Si3 0.899961 0.334130 0.573652
Si Si4 0.093744 0.093744 0.888034
Si Si5 0.782094 0.095672 0.290684
O O1 0.750000 0.750000 0.943454
O O2 0.532414 0.683745 0.940747
O O3 0.650976 0.650976 0.046945
O O4 0.750000 0.750000 0.277945
O O5 0.641045 0.641045 0.181710
O O6 0.690778 0.534793 0.289887
O O7 0.839436 0.339436 0.500000
O O8 0.888041 0.459558 0.605027
O O9 0.869219 0.245344 0.631756
O O10 0.672502 0.122676 0.244091
#
# Coordination Sequence:
#
# PCOD9571113 Si02
#       5
#     8   8  16   8  16
#     4   9  18  30  61  94 130 169 222 265 332 392
#     4  12  26  37  70  99 136 174 225 280 330 402
#     4   9  19  37  63  87 128 178 220 274 326 399
#     4   9  17  39  58  90 132 169 219 273 323 397
#     4  11  25  44  66  96 137 179 223 280 340 397
#
# _framework density 20.157995
#
# number of rings (size 3 to 8) (size 9 to 14) (size 15 to 20)
#    0.000    2.000    2.857    2.143    8.000    0.000 
#    0.000    2.857    0.000    0.000    0.000   14.000 
#    0.000    0.000    0.000    0.000    0.000    0.000 
#
# Total GULP energy -312781.816892 kJ/mol
# GULP energy per Si atom -5585.389587 kJ/mol
# Density = 2.011211 g / cm^3
# Si number density = 20.157995 Si / 1000 Ang^3
#
#
#
# Elastic Constant Matrix: (Units=GPa)
#
#
# Indices 1 2 3 4 5 6 
#
# 1 109.9170 88.3716 38.9224 0.0000 0.0000 0.0000
# 2 88.3716 109.9170 38.9224 0.0000 0.0000 0.0000
# 3 38.9224 38.9224 153.9270 0.0000 0.0000 0.0000
# 4 0.0000 0.0000 0.0000 12.0345 0.0000 0.0000
# 5 0.0000 0.0000 0.0000 0.0000 12.0345 0.0000
# 6 0.0000 0.0000 0.0000 0.0000 0.0000 39.8468
#
#
#
# Elastic Compliance Matrix: (Units=1/GPa)
#
#
# Indices 1 2 3 4 5 6 
#
# 1 0.026006 -0.020407 -0.001416 0.000000 0.000000 0.000000
# 2 -0.020407 0.026006 -0.001416 0.000000 0.000000 0.000000
# 3 -0.001416 -0.001416 0.007213 0.000000 0.000000 0.000000
# 4 0.000000 0.000000 0.000000 0.083095 0.000000 0.000000
# 5 0.000000 0.000000 0.000000 0.000000 0.083095 0.000000
# 6 0.000000 0.000000 0.000000 0.000000 0.000000 0.025096
#
#
# Mechanical properties :
#
#
# Convention : Reuss Voigt Hill
#
# Bulk Modulus (GPa) = 78.44719 78.46595 78.45657
# Shear Modulus (GPa) = 16.59821 26.61945 21.60883
#
# Velocity S-wave (km/s) = 2.87262 3.63787 3.27765
# Velocity P-wave (km/s) = 7.07130 7.52698 7.30269
#
# Compressibility (1/GPa) = 0.01274743
#
# Stress axis : x y z
#
# Youngs Moduli (GPa) = 38.45225 38.45225 138.64671
#
# Poissons Ratio (x) = 0.78471 0.19629
# Poissons Ratio (y) = 0.78471 0.19629
# Poissons Ratio (z) = 0.05444 0.05444
#
# Static dielectric constant tensor:
#      x y z
#    x 1.700220 0.000000 0.000000 
#    y 0.000000 1.700220 0.000000 
#    z 0.000000 0.000000 1.728010 
# 
# From -- ./inp_files/5741.got.cif
#   From: 2010.05.17/outbox.cif.g08.bks.cpg/sg138_3_cif.got.tgz:5741.got - 2010.05.20 13:08:53.
