data_PCOD9571494
_publ_section_title
;
Structure prediction by ZEFSAII (Michael W. Deem and Ramdas Pophale) SiO2 
 PCOD9571494
Probable space group: I 4/M M M
;
_chemical_formula_sum "Si O2"
_cell_formula_units_Z 144
_cell_length_a 28.681673
_cell_length_b 28.681673
_cell_length_c 10.494779
_cell_angle_alpha 90.000000
_cell_angle_beta 90.000000
_cell_angle_gamma 90.000000
_cell_volume 8633.407849
_symmetry_space_group_name_H-M "I 4/M M M"
_symmetry_group_IT_number 139
_symmetry_cell_setting 'tetragonal'
loop_
_space_group_symop_operation_xyz
x,y,z
-y,x,z
-x,-y,z
y,-x,z
x,-y,-z
-x,y,-z
y,x,-z
-y,-x,-z
-x,-y,-z
y,-x,-z
x,y,-z
-y,x,-z
-x,y,z
x,-y,z
-y,-x,z
y,x,z
1/2+x,1/2+y,1/2+z
1/2-y,1/2+x,1/2+z
1/2-x,1/2-y,1/2+z
1/2+y,1/2-x,1/2+z
1/2+x,1/2-y,1/2-z
1/2-x,1/2+y,1/2-z
1/2+y,1/2+x,1/2-z
1/2-y,1/2-x,1/2-z
1/2-x,1/2-y,1/2-z
1/2+y,1/2-x,1/2-z
1/2+x,1/2+y,1/2-z
1/2-y,1/2+x,1/2-z
1/2-x,1/2+y,1/2+z
1/2+x,1/2-y,1/2+z
1/2-y,1/2-x,1/2+z
1/2+y,1/2+x,1/2+z
loop_
_atom_site_type_symbol
_atom_site_label
_atom_site_fract_x
_atom_site_fract_y
_atom_site_fract_z
Si Si1 0.445450 0.780652 0.642987
Si Si2 0.372626 0.446409 0.154302
Si Si3 0.219812 0.780189 0.350739
Si Si4 0.108392 0.777078 0.649985
Si Si5 0.054458 0.607577 0.141571
O O1 0.430670 0.765855 0.500000
O O2 0.500000 0.768282 0.657823
O O3 0.415976 0.758521 0.755027
O O4 0.442148 0.836551 0.647758
O O5 0.368412 0.500000 0.199943
O O6 0.418740 0.418740 0.198602
O O7 0.327645 0.414101 0.181569
O O8 0.375020 0.448583 0.000000
O O9 0.231145 0.768856 0.500000
O O10 0.250000 0.750000 0.250000
O O11 0.226158 0.835919 0.334063
O O12 0.098278 0.768384 0.500000
O O13 0.084191 0.584191 0.250000
O O14 0.000000 0.595483 0.156009
O O15 0.069656 0.592791 0.000000
#
# Coordination Sequence:
#
# PCOD9571494 Si02
#       5
#    32  32  16  32  32
#     4   9  19  35  53  75 104 135 169 213 261 308
#     4   9  16  27  46  73 105 139 173 211 257 307
#     4  10  22  38  54  74 105 139 175 221 270 322
#     4  10  19  34  54  76 103 136 176 220 262 311
#     4   9  19  35  52  72 101 134 167 208 258 310
#
# _framework density 16.679392
#
# number of rings (size 3 to 8) (size 9 to 14) (size 15 to 20)
#    0.000    2.667    1.111    2.000    0.000    4.889 
#    0.000    8.889    0.000    0.000    0.000    0.000 
#    0.000    0.000    0.000    4.667    0.000    4.444 
#
# Total GULP energy -401072.222222 kJ/mol
# GULP energy per Si atom -5570.447531 kJ/mol
# Density = 1.664143 g / cm^3
# Si number density = 16.679392 Si / 1000 Ang^3
#
#
#
# Elastic Constant Matrix: (Units=GPa)
#
#
# Indices 1 2 3 4 5 6 
#
# 1 61.3268 61.6786 64.0909 0.0000 0.0000 0.0000
# 2 61.6786 61.3268 64.0910 0.0000 0.0000 0.0000
# 3 64.0909 64.0910 108.9530 0.0000 0.0000 0.0000
# 4 0.0000 0.0000 0.0000 21.1265 0.0000 0.0000
# 5 0.0000 0.0000 0.0000 0.0000 21.1267 0.0000
# 6 0.0000 0.0000 0.0000 0.0000 0.0000 31.1559
#
#
#
# Elastic Compliance Matrix: (Units=1/GPa)
#
#
# Indices 1 2 3 4 5 6 
#
# 1 -1.410799 1.431807 -0.012359 0.000000 0.000000 0.000000
# 2 1.431807 -1.410801 -0.012356 0.000000 0.000000 0.000000
# 3 -0.012359 -0.012356 0.023716 0.000000 0.000000 0.000000
# 4 0.000000 0.000000 0.000000 0.047334 0.000000 0.000000
# 5 0.000000 0.000000 0.000000 0.000000 0.047334 0.000000
# 6 0.000000 0.000000 0.000000 0.000000 0.000000 0.032097
#
#
# Mechanical properties :
#
#
# Convention : Reuss Voigt Hill
#
# Bulk Modulus (GPa) = 61.34424 67.92529 64.63477
# Shear Modulus (GPa) = -0.91243 17.46489 8.27623
#
# Velocity S-wave (km/s) = -0.74042 3.23939 2.22996
# Velocity P-wave (km/s) = 6.01060 7.40298 6.74283
#
# Compressibility (1/GPa) = 0.01630145
#
# Stress axis : x y z
#
# Youngs Moduli (GPa) = -0.70882 -0.70882 42.16490
#
# Poissons Ratio (x) = 1.01489 0.52111
# Poissons Ratio (y) = 1.01489 0.52097
# Poissons Ratio (z) = -0.00876 -0.00876
#
# Static dielectric constant tensor:
#      x y z
#    x 1.561990 0.000000 0.000000 
#    y 0.000000 1.561990 0.000000 
#    z 0.000000 0.000000 1.546120 
# 
# From -- ./inp_files/2027.got.cif
#   From: 2010.05.17/outbox.cif.g08.bks.cpg/sg139_2_cif.got.tgz:2027.got - 2010.05.20 13:14:44.
