data_PCOD9571852
_publ_section_title
;
Structure prediction by ZEFSAII (Michael W. Deem and Ramdas Pophale) SiO2 
 PCOD9571852
Probable space group: I 4/M M M
;
_chemical_formula_sum "Si O2"
_cell_formula_units_Z 136
_cell_length_a 23.851836
_cell_length_b 23.851836
_cell_length_c 12.214539
_cell_angle_alpha 90.000000
_cell_angle_beta 90.000000
_cell_angle_gamma 90.000000
_cell_volume 6948.974367
_symmetry_space_group_name_H-M "I 4/M M M"
_symmetry_group_IT_number 139
_symmetry_cell_setting 'tetragonal'
loop_
_space_group_symop_operation_xyz
x,y,z
-y,x,z
-x,-y,z
y,-x,z
x,-y,-z
-x,y,-z
y,x,-z
-y,-x,-z
-x,-y,-z
y,-x,-z
x,y,-z
-y,x,-z
-x,y,z
x,-y,z
-y,-x,z
y,x,z
1/2+x,1/2+y,1/2+z
1/2-y,1/2+x,1/2+z
1/2-x,1/2-y,1/2+z
1/2+y,1/2-x,1/2+z
1/2+x,1/2-y,1/2-z
1/2-x,1/2+y,1/2-z
1/2+y,1/2+x,1/2-z
1/2-y,1/2-x,1/2-z
1/2-x,1/2-y,1/2-z
1/2+y,1/2-x,1/2-z
1/2+x,1/2+y,1/2-z
1/2-y,1/2+x,1/2-z
1/2-x,1/2+y,1/2+z
1/2+x,1/2-y,1/2+z
1/2-y,1/2-x,1/2+z
1/2+y,1/2+x,1/2+z
loop_
_atom_site_type_symbol
_atom_site_label
_atom_site_fract_x
_atom_site_fract_y
_atom_site_fract_z
Si Si1 0.500000 0.642892 0.625742
Si Si2 0.205251 0.205251 0.694761
Si Si3 0.000000 0.248793 0.236751
Si Si4 0.224650 0.397907 0.124654
Si Si5 0.106882 0.393119 0.250000
Si Si6 0.931447 0.068554 0.500000
Si Si7 0.000000 0.369388 0.872713
Si Si8 0.888676 0.111325 0.260894
O O1 0.500000 0.622505 0.500000
O O2 0.500000 0.710026 0.631364
O O3 0.445455 0.627113 0.695909
O O4 0.250000 0.250000 0.750000
O O5 0.244402 0.161602 0.631120
O O6 0.160030 0.160030 0.750993
O O7 0.945187 0.240543 0.311017
O O8 0.000000 0.311795 0.194640
O O9 0.165146 0.394021 0.184690
O O10 0.217367 0.415343 0.000000
O O11 0.100917 0.443489 0.335173
O O12 0.904008 0.095993 0.388901
O O13 0.000000 0.077300 0.500000
O O14 0.000000 0.358648 0.000000
#
# Coordination Sequence:
#
# PCOD9571852 Si02
#       8
#    16  16  16  32  16   8  16  16
#     4  12  25  45  69 100 140 184 228 277 330 412
#     4  12  25  43  62  94 136 172 221 277 319 399
#     4  10  22  40  64  95 126 166 226 266 319 401
#     4  11  22  40  64  92 127 168 212 273 334 390
#     4  10  22  40  62  90 126 158 210 264 318 398
#     4  11  24  46  78 112 146 178 230 302 344 425
#     4  10  21  40  64  90 121 165 207 257 323 387
#     4  12  26  46  71 104 140 182 231 279 351 404
#
# _framework density 19.571234
#
# number of rings (size 3 to 8) (size 9 to 14) (size 15 to 20)
#    0.000    1.000    4.706    2.118    1.647    0.471 
#    2.118    7.647    0.000    0.000    0.000    0.000 
#    0.000    0.000    0.000    0.000    0.000    0.000 
#
# Total GULP energy -378904.195795 kJ/mol
# GULP energy per Si atom -5572.120526 kJ/mol
# Density = 1.952669 g / cm^3
# Si number density = 19.571234 Si / 1000 Ang^3
#
#
#
# Elastic Constant Matrix: (Units=GPa)
#
#
# Indices 1 2 3 4 5 6 
#
# 1 111.3554 24.0673 38.3239 0.0000 0.0000 0.0000
# 2 24.0673 111.3547 38.3237 0.0000 0.0000 0.0000
# 3 38.3239 38.3237 146.7078 0.0000 0.0000 0.0000
# 4 0.0000 0.0000 0.0000 8.7093 0.0000 0.0000
# 5 0.0000 0.0000 0.0000 0.0000 8.7092 0.0000
# 6 0.0000 0.0000 0.0000 0.0000 0.0000 22.1948
#
#
#
# Elastic Compliance Matrix: (Units=1/GPa)
#
#
# Indices 1 2 3 4 5 6 
#
# 1 0.010061 -0.001395 -0.002264 0.000000 0.000000 0.000000
# 2 -0.001395 0.010061 -0.002264 0.000000 0.000000 0.000000
# 3 -0.002264 -0.002264 0.007999 0.000000 0.000000 0.000000
# 4 0.000000 0.000000 0.000000 0.114820 0.000000 0.000000
# 5 0.000000 0.000000 0.000000 0.000000 0.114821 0.000000
# 6 0.000000 0.000000 0.000000 0.000000 0.000000 0.045056
#
#
# Mechanical properties :
#
#
# Convention : Reuss Voigt Hill
#
# Bulk Modulus (GPa) = 61.44269 63.42752 62.43510
# Shear Modulus (GPa) = 15.62068 25.83618 20.72843
#
# Velocity S-wave (km/s) = 2.82821 3.63727 3.25795
# Velocity P-wave (km/s) = 6.49058 7.07945 6.79140
#
# Compressibility (1/GPa) = 0.01627533
#
# Stress axis : x y z
#
# Youngs Moduli (GPa) = 99.39466 99.39407 125.01694
#
# Poissons Ratio (x) = 0.13870 0.28299
# Poissons Ratio (y) = 0.13870 0.28299
# Poissons Ratio (z) = 0.22499 0.22499
#
# Static dielectric constant tensor:
#      x y z
#    x 1.717200 0.000000 0.000000 
#    y 0.000000 1.717200 0.000000 
#    z 0.000000 0.000000 1.636590 
# 
# From -- ./inp_files/3628.got.cif
#   From: 2010.05.17/outbox.cif.g08.bks.cpg/sg139_2_cif.got.tgz:3628.got - 2010.05.20 13:14:44.
