data_PCOD9571973
_publ_section_title
;
Structure prediction by ZEFSAII (Michael W. Deem and Ramdas Pophale) SiO2 
 PCOD9571973
Probable space group: I 4/M M M
;
_chemical_formula_sum "Si O2"
_cell_formula_units_Z 72
_cell_length_a 21.000000
_cell_length_b 21.000000
_cell_length_c 18.000000
_cell_angle_alpha 90.000000
_cell_angle_beta 90.000000
_cell_angle_gamma 90.000000
_cell_volume 7938.000000
_symmetry_space_group_name_H-M "I 4/M M M"
_symmetry_group_IT_number 139
_symmetry_cell_setting 'tetragonal'
loop_
_space_group_symop_operation_xyz
x,y,z
-y,x,z
-x,-y,z
y,-x,z
x,-y,-z
-x,y,-z
y,x,-z
-y,-x,-z
-x,-y,-z
y,-x,-z
x,y,-z
-y,x,-z
-x,y,z
x,-y,z
-y,-x,z
y,x,z
1/2+x,1/2+y,1/2+z
1/2-y,1/2+x,1/2+z
1/2-x,1/2-y,1/2+z
1/2+y,1/2-x,1/2+z
1/2+x,1/2-y,1/2-z
1/2-x,1/2+y,1/2-z
1/2+y,1/2+x,1/2-z
1/2-y,1/2-x,1/2-z
1/2-x,1/2-y,1/2-z
1/2+y,1/2-x,1/2-z
1/2+x,1/2+y,1/2-z
1/2-y,1/2+x,1/2-z
1/2-x,1/2+y,1/2+z
1/2+x,1/2-y,1/2+z
1/2-y,1/2-x,1/2+z
1/2+y,1/2+x,1/2+z
loop_
_atom_site_type_symbol
_atom_site_label
_atom_site_fract_x
_atom_site_fract_y
_atom_site_fract_z
Si Si1 0.250524 0.433549 0.266976
Si Si2 0.253762 0.253762 0.917409
Si Si3 0.837346 0.162655 0.690804
Si Si4 0.068936 0.619425 0.676229
Si Si5 0.575205 0.424796 0.087543
Si Si6 0.303724 0.109959 0.085081
O O1 0.282919 0.500000 0.249595
O O2 0.294673 0.377708 0.244740
O O3 0.188745 0.427781 0.214571
O O4 0.230969 0.430867 0.352399
O O5 0.293039 0.293039 0.858578
O O6 0.179691 0.271365 0.910974
O O7 0.274145 0.274145 0.000000
O O8 0.880979 0.119022 0.638342
O O9 0.076538 0.576538 0.750000
O O10 0.124462 0.613169 0.616603
O O11 0.000000 0.609465 0.641990
O O12 0.586960 0.500000 0.100655
O O13 0.587380 0.412621 0.000000
O O14 0.301391 0.088140 0.000000
#
# Coordination Sequence:
#
# PCOD9571973 Si02
#       6
#    32  16  16  32  16  32
#     4  10  21  34  52  78 103 136 178 217 260 307
#     4  10  20  32  50  81 110 134 168 206 257 318
#     4  12  19  32  56  76 108 140 176 217 254 303
#     4   9  18  33  51  74 104 135 172 218 263 309
#     4   9  19  35  52  74 109 149 182 211 250 301
#     4  10  20  35  53  74 105 140 172 213 266 317
#
# _framework density 9.0702949999999998
#
# number of rings (size 3 to 8) (size 9 to 14) (size 15 to 20)
#    0.000    2.111    2.222    2.000    0.000    2.000 
#    0.000    0.000    0.000    0.000    0.000    6.222 
#    0.000    0.000    0.000   10.667    0.000    0.000 
#
# Total GULP energy -400992.105061 kJ/mol
# GULP energy per Si atom -5569.334793 kJ/mol
# Density = 0.904965 g / cm^3
# Si number density = 9.070295 Si / 1000 Ang^3
#
#
#
# Elastic Constant Matrix: (Units=GPa)
#
#
# Indices 1 2 3 4 5 6 
#
# 1 54.0925 37.3364 17.3871 0.0000 0.0000 0.0000
# 2 37.3364 54.0930 17.3874 0.0000 0.0000 0.0000
# 3 17.3871 17.3874 75.7415 0.0000 0.0000 0.0000
# 4 0.0000 0.0000 0.0000 26.3450 0.0000 0.0000
# 5 0.0000 0.0000 0.0000 0.0000 26.3447 0.0000
# 6 0.0000 0.0000 0.0000 0.0000 0.0000 8.0188
#
#
#
# Elastic Compliance Matrix: (Units=1/GPa)
#
#
# Indices 1 2 3 4 5 6 
#
# 1 0.035831 -0.023848 -0.002751 0.000000 0.000000 0.000000
# 2 -0.023848 0.035831 -0.002751 0.000000 0.000000 0.000000
# 3 -0.002751 -0.002751 0.014466 0.000000 0.000000 0.000000
# 4 0.000000 0.000000 0.000000 0.037958 0.000000 0.000000
# 5 0.000000 0.000000 0.000000 0.000000 0.037958 0.000000
# 6 0.000000 0.000000 0.000000 0.000000 0.000000 0.124708
#
#
# Mechanical properties :
#
#
# Convention : Reuss Voigt Hill
#
# Bulk Modulus (GPa) = 36.45729 36.46099 36.45914
# Shear Modulus (GPa) = 14.10061 19.59609 16.84835
#
# Velocity S-wave (km/s) = 2.79103 3.29026 3.05087
# Velocity P-wave (km/s) = 5.52514 5.88023 5.70545
#
# Compressibility (1/GPa) = 0.02742936
#
# Stress axis : x y z
#
# Youngs Moduli (GPa) = 27.90845 27.90860 69.12837
#
# Poissons Ratio (x) = 0.66555 0.19016
# Poissons Ratio (y) = 0.66555 0.19018
# Poissons Ratio (z) = 0.07677 0.07678
#
# Static dielectric constant tensor:
#      x y z
#    x 1.629390 0.000000 0.000000 
#    y 0.000000 1.629390 0.000000 
#    z 0.000000 0.000000 1.580080 
# 
# From -- ./inp_files/8293.got.cif
#   From: 2010.05.17/outbox.ucp.g08.bks.cvg/sg139_5_cif.got.tgz:8293.got - 2010.06.11 11:42:03.
