data_PCOD9571266
_publ_section_title
;
Structure prediction by ZEFSAII (Michael W. Deem and Ramdas Pophale) SiO2 
 PCOD9571266
Probable space group: I 4/M M M
;
_chemical_formula_sum "Si O2"
_cell_formula_units_Z 192
_cell_length_a 30.106995
_cell_length_b 30.106995
_cell_length_c 13.510752
_cell_angle_alpha 90.000000
_cell_angle_beta 90.000000
_cell_angle_gamma 90.000000
_cell_volume 12246.566445
_symmetry_space_group_name_H-M "I 4/M M M"
_symmetry_group_IT_number 139
_symmetry_cell_setting 'tetragonal'
loop_
_space_group_symop_operation_xyz
x,y,z
-y,x,z
-x,-y,z
y,-x,z
x,-y,-z
-x,y,-z
y,x,-z
-y,-x,-z
-x,-y,-z
y,-x,-z
x,y,-z
-y,x,-z
-x,y,z
x,-y,z
-y,-x,z
y,x,z
1/2+x,1/2+y,1/2+z
1/2-y,1/2+x,1/2+z
1/2-x,1/2-y,1/2+z
1/2+y,1/2-x,1/2+z
1/2+x,1/2-y,1/2-z
1/2-x,1/2+y,1/2-z
1/2+y,1/2+x,1/2-z
1/2-y,1/2-x,1/2-z
1/2-x,1/2-y,1/2-z
1/2+y,1/2-x,1/2-z
1/2+x,1/2+y,1/2-z
1/2-y,1/2+x,1/2-z
1/2-x,1/2+y,1/2+z
1/2+x,1/2-y,1/2+z
1/2-y,1/2-x,1/2+z
1/2+y,1/2+x,1/2+z
loop_
_atom_site_type_symbol
_atom_site_label
_atom_site_fract_x
_atom_site_fract_y
_atom_site_fract_z
Si Si1 0.284651 0.173174 0.113394
Si Si2 0.072274 0.000000 0.620459
Si Si3 0.738478 0.332718 0.183122
Si Si4 0.396966 0.865354 0.611881
Si Si5 0.431760 0.748985 0.883909
Si Si6 0.449354 0.153599 0.805191
Si Si7 0.825817 0.000000 0.380051
O O1 0.302774 0.222349 0.136367
O O2 0.250007 0.162643 0.200197
O O3 0.326633 0.139990 0.125349
O O4 0.268866 0.170104 0.000000
O O5 0.043305 0.043305 0.649720
O O6 0.073146 0.000000 0.500000
O O7 0.123312 0.000000 0.655720
O O8 0.692577 0.307424 0.169665
O O9 0.740816 0.380041 0.132163
O O10 0.413384 0.863301 0.500000
O O11 0.434582 0.857028 0.693098
O O12 0.372315 0.912152 0.631308
O O13 0.444883 0.793913 0.827123
O O14 0.458346 0.705087 0.851561
O O15 0.441413 0.756638 0.000000
O O16 0.500000 0.140130 0.825095
O O17 0.828632 0.000000 0.500000
#
# Coordination Sequence:
#
# PCOD9571266 Si02
#       7
#    32  16  32  32  32  32  16
#     4  10  18  32  51  67  92 130 170 206 237 279
#     4   8  14  27  46  64  86 123 171 215 251 292
#     4  11  21  31  44  67  99 131 167 205 246 291
#     4  10  20  35  55  78 102 127 163 207 245 291
#     4  11  20  31  46  69  98 130 167 205 248 298
#     4  11  20  34  56  77 100 129 163 202 248 296
#     4   9  19  30  45  68  95 125 162 207 249 291
#
# _framework density 15.677864
#
# number of rings (size 3 to 8) (size 9 to 14) (size 15 to 20)
#    0.000    1.750    4.167    3.250    0.000    4.333 
#    0.000    1.667    0.000    4.000    0.000    4.667 
#    0.000    0.000    0.000    0.000    0.000    0.500 
#
# Total GULP energy -535389.431151 kJ/mol
# GULP energy per Si atom -5576.973241 kJ/mol
# Density = 1.564218 g / cm^3
# Si number density = 15.677864 Si / 1000 Ang^3
#
#
#
# Elastic Constant Matrix: (Units=GPa)
#
#
# Indices 1 2 3 4 5 6 
#
# 1 74.0145 29.1582 2.2588 0.0000 0.0000 0.0000
# 2 29.1582 74.0145 2.2588 0.0000 0.0000 0.0000
# 3 2.2588 2.2588 48.8358 0.0000 0.0000 0.0000
# 4 0.0000 0.0000 0.0000 8.2834 0.0000 0.0000
# 5 0.0000 0.0000 0.0000 0.0000 8.2834 0.0000
# 6 0.0000 0.0000 0.0000 0.0000 0.0000 17.3704
#
#
#
# Elastic Compliance Matrix: (Units=1/GPa)
#
#
# Indices 1 2 3 4 5 6 
#
# 1 0.016003 -0.006291 -0.000449 0.000000 0.000000 0.000000
# 2 -0.006291 0.016003 -0.000449 0.000000 0.000000 0.000000
# 3 -0.000449 -0.000449 0.020518 0.000000 0.000000 0.000000
# 4 0.000000 0.000000 0.000000 0.120723 0.000000 0.000000
# 5 0.000000 0.000000 0.000000 0.000000 0.120723 0.000000
# 6 0.000000 0.000000 0.000000 0.000000 0.000000 0.057569
#
#
# Mechanical properties :
#
#
# Convention : Reuss Voigt Hill
#
# Bulk Modulus (GPa) = 26.21522 29.35738 27.78630
# Shear Modulus (GPa) = 13.20541 17.66673 15.43607
#
# Velocity S-wave (km/s) = 2.90538 3.36051 3.14120
# Velocity P-wave (km/s) = 5.29268 5.81579 5.56039
#
# Compressibility (1/GPa) = 0.03814578
#
# Stress axis : x y z
#
# Youngs Moduli (GPa) = 62.48917 62.48917 48.73694
#
# Poissons Ratio (x) = 0.39310 0.02189
# Poissons Ratio (y) = 0.39310 0.02189
# Poissons Ratio (z) = 0.02807 0.02807
#
# Static dielectric constant tensor:
#      x y z
#    x 1.520840 0.000000 0.000000 
#    y 0.000000 1.520840 0.000000 
#    z 0.000000 0.000000 1.533050 
# 
# From -- ./inp_files/6489.got.cif
#   From: 2010.05.17/outbox.cif.g08.bks.cpg/sg139_4_cif.got.tgz:6489.got - 2010.05.20 13:14:44.
