data_PCOD9571274
_publ_section_title
;
Structure prediction by ZEFSAII (Michael W. Deem and Ramdas Pophale) SiO2 
 PCOD9571274
Probable space group: I 4/M M M
;
_chemical_formula_sum "Si O2"
_cell_formula_units_Z 144
_cell_length_a 19.933246
_cell_length_b 19.933246
_cell_length_c 18.175795
_cell_angle_alpha 90.000000
_cell_angle_beta 90.000000
_cell_angle_gamma 90.000000
_cell_volume 7221.866712
_symmetry_space_group_name_H-M "I 4/M M M"
_symmetry_group_IT_number 139
_symmetry_cell_setting 'tetragonal'
loop_
_space_group_symop_operation_xyz
x,y,z
-y,x,z
-x,-y,z
y,-x,z
x,-y,-z
-x,y,-z
y,x,-z
-y,-x,-z
-x,-y,-z
y,-x,-z
x,y,-z
-y,x,-z
-x,y,z
x,-y,z
-y,-x,z
y,x,z
1/2+x,1/2+y,1/2+z
1/2-y,1/2+x,1/2+z
1/2-x,1/2-y,1/2+z
1/2+y,1/2-x,1/2+z
1/2+x,1/2-y,1/2-z
1/2-x,1/2+y,1/2-z
1/2+y,1/2+x,1/2-z
1/2-y,1/2-x,1/2-z
1/2-x,1/2-y,1/2-z
1/2+y,1/2-x,1/2-z
1/2+x,1/2+y,1/2-z
1/2-y,1/2+x,1/2-z
1/2-x,1/2+y,1/2+z
1/2+x,1/2-y,1/2+z
1/2-y,1/2-x,1/2+z
1/2+y,1/2+x,1/2+z
loop_
_atom_site_type_symbol
_atom_site_label
_atom_site_fract_x
_atom_site_fract_y
_atom_site_fract_z
Si Si1 0.188904 0.081301 0.500000
Si Si2 0.250496 0.639696 0.272936
Si Si3 0.692212 0.420382 0.584304
Si Si4 0.922739 0.715477 0.629991
Si Si5 0.072077 0.419100 0.912288
O O1 0.118064 0.118064 0.500000
O O2 0.232227 0.104724 0.429305
O O3 0.181632 0.000000 0.500000
O O4 0.318561 0.681440 0.260859
O O5 0.192053 0.692053 0.250000
O O6 0.257700 0.609967 0.354643
O O7 0.242909 0.583181 0.211631
O O8 0.717051 0.412129 0.500000
O O9 0.681634 0.500000 0.596602
O O10 0.623469 0.376531 0.589628
O O11 0.893894 0.640337 0.623676
O O12 0.000000 0.708190 0.608086
O O13 0.069135 0.500000 0.901070
O O14 0.000000 0.391513 0.886004
O O15 0.076611 0.408473 0.000000
#
# Coordination Sequence:
#
# PCOD9571274 Si02
#       5
#    16  32  32  32  32
#     4  10  20  33  51  79 113 153 201 247 292 342
#     4  10  21  37  54  76 109 149 192 238 285 336
#     4   9  18  35  60  89 121 155 192 242 308 376
#     4  10  18  32  54  79 108 144 189 236 285 345
#     4   8  13  24  44  71 104 138 171 214 272 333
#
# _framework density 19.939443000000001
#
# number of rings (size 3 to 8) (size 9 to 14) (size 15 to 20)
#    0.000    2.667    1.111    2.000    0.000    0.333 
#    2.000    3.333    0.000    2.667    0.000    3.111 
#    0.000    0.000    0.000    8.667    0.000    0.000 
#
# Total GULP energy -401068.663832 kJ/mol
# GULP energy per Si atom -5570.398109 kJ/mol
# Density = 1.989406 g / cm^3
# Si number density = 19.939443 Si / 1000 Ang^3
#
#
#
# Elastic Constant Matrix: (Units=GPa)
#
#
# Indices 1 2 3 4 5 6 
#
# 1 97.6356 40.4298 53.0633 0.0000 0.0000 0.0000
# 2 40.4298 97.6356 53.0633 0.0000 0.0000 0.0000
# 3 53.0633 53.0633 122.5133 0.0000 0.0000 0.0000
# 4 0.0000 0.0000 0.0000 381.4972 0.0001 0.0000
# 5 0.0000 0.0000 0.0000 0.0001 381.4974 0.0000
# 6 0.0000 0.0000 0.0000 0.0000 0.0000 2.8827
#
#
#
# Elastic Compliance Matrix: (Units=1/GPa)
#
#
# Indices 1 2 3 4 5 6 
#
# 1 0.014169 -0.003311 -0.004703 0.000000 0.000000 0.000000
# 2 -0.003311 0.014169 -0.004703 0.000000 0.000000 0.000000
# 3 -0.004703 -0.004703 0.012236 0.000000 0.000000 0.000000
# 4 0.000000 0.000000 0.000000 0.002621 0.000000 0.000000
# 5 0.000000 0.000000 0.000000 0.000000 0.002621 0.000000
# 6 0.000000 0.000000 0.000000 0.000000 0.000000 0.346899
#
#
# Mechanical properties :
#
#
# Convention : Reuss Voigt Hill
#
# Bulk Modulus (GPa) = 66.04719 67.87748 66.96233
# Shear Modulus (GPa) = 11.81482 164.59068 88.20275
#
# Velocity S-wave (km/s) = 2.43685 9.09530 6.65818
# Velocity P-wave (km/s) = 6.41197 12.01728 9.63142
#
# Compressibility (1/GPa) = 0.01514069
#
# Stress axis : x y z
#
# Youngs Moduli (GPa) = 70.57525 70.57525 81.72520
#
# Poissons Ratio (x) = 0.23371 0.38433
# Poissons Ratio (y) = 0.23371 0.38433
# Poissons Ratio (z) = 0.33190 0.33190
#
# Static dielectric constant tensor:
#      x y z
#    x 1.718180 0.000000 0.000000 
#    y 0.000000 1.718180 0.000000 
#    z 0.000000 0.000000 1.694390 
# 
# From -- ./inp_files/8232.got.cif
#   From: 2010.05.17/outbox.cif.g08.bks.cpg/sg139_5_cif.got.tgz:8232.got - 2010.05.20 13:14:44.
