data_PCOD9571287
_publ_section_title
;
Structure prediction by ZEFSAII (Michael W. Deem and Ramdas Pophale) SiO2 
 PCOD9571287
Probable space group: I 4/M M M
;
_chemical_formula_sum "Si O2"
_cell_formula_units_Z 160
_cell_length_a 30.707750
_cell_length_b 30.707750
_cell_length_c 8.644286
_cell_angle_alpha 90.000000
_cell_angle_beta 90.000000
_cell_angle_gamma 90.000000
_cell_volume 8151.267015
_symmetry_space_group_name_H-M "I 4/M M M"
_symmetry_group_IT_number 139
_symmetry_cell_setting 'tetragonal'
loop_
_space_group_symop_operation_xyz
x,y,z
-y,x,z
-x,-y,z
y,-x,z
x,-y,-z
-x,y,-z
y,x,-z
-y,-x,-z
-x,-y,-z
y,-x,-z
x,y,-z
-y,x,-z
-x,y,z
x,-y,z
-y,-x,z
y,x,z
1/2+x,1/2+y,1/2+z
1/2-y,1/2+x,1/2+z
1/2-x,1/2-y,1/2+z
1/2+y,1/2-x,1/2+z
1/2+x,1/2-y,1/2-z
1/2-x,1/2+y,1/2-z
1/2+y,1/2+x,1/2-z
1/2-y,1/2-x,1/2-z
1/2-x,1/2-y,1/2-z
1/2+y,1/2-x,1/2-z
1/2+x,1/2+y,1/2-z
1/2-y,1/2+x,1/2-z
1/2-x,1/2+y,1/2+z
1/2+x,1/2-y,1/2+z
1/2-y,1/2-x,1/2+z
1/2+y,1/2+x,1/2+z
loop_
_atom_site_type_symbol
_atom_site_label
_atom_site_fract_x
_atom_site_fract_y
_atom_site_fract_z
Si Si1 0.120442 0.449981 0.185468
Si Si2 0.131191 0.131191 0.817684
Si Si3 0.696538 0.303463 0.176303
Si Si4 0.217658 0.438047 0.322414
Si Si5 0.280597 0.836080 0.826059
Si Si6 0.315064 0.452255 0.311901
O O1 0.106801 0.500000 0.227094
O O2 0.087168 0.412833 0.250000
O O3 0.171190 0.445839 0.240762
O O4 0.120120 0.446153 0.000000
O O5 0.167752 0.167752 0.791643
O O6 0.153807 0.086899 0.755224
O O7 0.123815 0.123815 0.000000
O O8 0.745939 0.313948 0.214821
O O9 0.685839 0.314162 0.000000
O O10 0.213358 0.453459 0.500000
O O11 0.225827 0.386789 0.328943
O O12 0.264604 0.452791 0.255523
O O13 0.326894 0.826894 0.750000
O O14 0.276470 0.819313 0.000000
O O15 0.311545 0.447145 0.500000
O O16 0.333924 0.500000 0.280025
#
# Coordination Sequence:
#
# PCOD9571287 Si02
#       6
#    32  16  16  32  32  32
#     4  11  25  43  63  88 117 149 188 238 294 349
#     4  10  18  35  57  81 116 150 192 242 283 341
#     4  12  23  35  52  76 108 149 192 236 281 330
#     4  10  20  36  60  85 114 149 190 238 286 343
#     4  11  22  36  53  77 110 151 194 234 277 328
#     4   9  17  31  56  87 115 150 193 235 283 336
#
# _framework density 19.628851000000001
#
# number of rings (size 3 to 8) (size 9 to 14) (size 15 to 20)
#    0.000    1.600    2.000    3.600    0.000    5.800 
#    0.000    1.000    0.000    0.900    0.000    2.100 
#    0.000    0.000    0.000    0.900    0.000    1.000 
#
# Total GULP energy -445763.943126 kJ/mol
# GULP energy per Si atom -5572.049289 kJ/mol
# Density = 1.958417 g / cm^3
# Si number density = 19.628851 Si / 1000 Ang^3
#
#
#
# Elastic Constant Matrix: (Units=GPa)
#
#
# Indices 1 2 3 4 5 6 
#
# 1 117.1089 71.3010 21.3338 0.0000 0.0000 0.0000
# 2 71.3010 117.1130 21.3371 0.0000 0.0000 0.0000
# 3 21.3338 21.3371 32.5872 0.0000 0.0000 0.0000
# 4 0.0000 0.0000 0.0000 14.8807 0.0000 0.0000
# 5 0.0000 0.0000 0.0000 0.0000 14.8793 0.0000
# 6 0.0000 0.0000 0.0000 0.0000 0.0000 11.4501
#
#
#
# Elastic Compliance Matrix: (Units=1/GPa)
#
#
# Indices 1 2 3 4 5 6 
#
# 1 0.014030 -0.007799 -0.004079 0.000000 0.000000 0.000000
# 2 -0.007799 0.014030 -0.004081 0.000000 0.000000 0.000000
# 3 -0.004079 -0.004081 0.036029 0.000000 0.000000 0.000000
# 4 0.000000 0.000000 0.000000 0.067201 0.000000 0.000000
# 5 0.000000 0.000000 0.000000 0.000000 0.067207 0.000000
# 6 0.000000 0.000000 0.000000 0.000000 0.000000 0.087335
#
#
# Mechanical properties :
#
#
# Convention : Reuss Voigt Hill
#
# Bulk Modulus (GPa) = 31.08225 54.97253 43.02739
# Shear Modulus (GPa) = 15.22184 18.43118 16.82651
#
# Velocity S-wave (km/s) = 2.78777 3.06761 2.93103
# Velocity P-wave (km/s) = 5.12168 6.37289 5.78123
#
# Compressibility (1/GPa) = 0.03217270
#
# Stress axis : x y z
#
# Youngs Moduli (GPa) = 71.27384 71.27371 27.75528
#
# Poissons Ratio (x) = 0.55586 0.11321
# Poissons Ratio (y) = 0.55586 0.11327
# Poissons Ratio (z) = 0.29071 0.29087
#
# Static dielectric constant tensor:
#      x y z
#    x 1.707280 0.000000 0.000000 
#    y 0.000000 1.707280 0.000000 
#    z 0.000000 0.000000 1.684820 
# 
# From -- ./inp_files/2164.got.cif
#   From: 2010.05.17/outbox.cif.g08.bks.cpg/sg139_2_cif.got.tgz:2164.got - 2010.05.20 13:14:44.
