data_PCOD9571995
_publ_section_title
;
Structure prediction by ZEFSAII (Michael W. Deem and Ramdas Pophale) SiO2 
 PCOD9571995
Probable space group: I 4/M C M
;
_chemical_formula_sum "Si O2"
_cell_formula_units_Z 168
_cell_length_a 24.286430
_cell_length_b 24.286430
_cell_length_c 19.420921
_cell_angle_alpha 90.000000
_cell_angle_beta 90.000000
_cell_angle_gamma 90.000000
_cell_volume 11455.055081
_symmetry_space_group_name_H-M "I 4/M C M"
_symmetry_group_IT_number 140
_symmetry_cell_setting 'tetragonal'
loop_
_space_group_symop_operation_xyz
x,y,z
-y,x,z
-x,-y,z
y,-x,z
x,-y,1/2-z
-x,y,1/2-z
y,x,1/2-z
-y,-x,1/2-z
-x,-y,-z
y,-x,-z
x,y,-z
-y,x,-z
-x,y,1/2+z
x,-y,1/2+z
-y,-x,1/2+z
y,x,1/2+z
1/2+x,1/2+y,1/2+z
1/2-y,1/2+x,1/2+z
1/2-x,1/2-y,1/2+z
1/2+y,1/2-x,1/2+z
1/2+x,1/2-y,-z
1/2-x,1/2+y,-z
1/2+y,1/2+x,-z
1/2-y,1/2-x,-z
1/2-x,1/2-y,1/2-z
1/2+y,1/2-x,1/2-z
1/2+x,1/2+y,1/2-z
1/2-y,1/2+x,1/2-z
1/2-x,1/2+y,z
1/2+x,1/2-y,z
1/2-y,1/2-x,z
1/2+y,1/2+x,z
loop_
_atom_site_type_symbol
_atom_site_label
_atom_site_fract_x
_atom_site_fract_y
_atom_site_fract_z
Si Si1 0.210111 0.553048 0.648548
Si Si2 0.415241 0.084760 0.634238
Si Si3 0.583490 0.916511 0.199401
Si Si4 0.228335 0.820692 0.682551
Si Si5 0.659826 0.249680 0.918240
Si Si6 0.933989 0.289125 0.185657
Si Si7 0.000000 0.500000 0.371821
O O1 0.148038 0.567070 0.622512
O O2 0.246942 0.598582 0.611612
O O3 0.226167 0.489029 0.643772
O O4 0.213397 0.561483 0.731052
O O5 0.420638 0.079363 0.717729
O O6 0.456784 0.043217 0.595784
O O7 0.645353 0.928215 0.174871
O O8 0.540256 0.959745 0.170359
O O9 0.190439 0.809562 0.750000
O O10 0.281975 0.781975 0.693364
O O11 0.194564 0.797275 0.618287
O O12 0.251577 0.881436 0.670197
O O13 0.693222 0.193222 0.899686
O O14 0.659623 0.254598 0.000000
#
# Coordination Sequence:
#
# PCOD9571995 Si02
#       7
#    32  16  16  32  32  32   8
#     4  10  18  28  43  67  97 126 161 202 244 289
#     4  10  17  22  36  57  92 129 162 198 235 275
#     4  10  17  22  34  60  95 126 160 199 247 280
#     4  10  18  29  49  70  95 128 164 208 261 299
#     4  10  20  33  49  69  94 129 171 205 242 302
#     4  10  18  27  43  70  97 123 160 209 250 293
#     4  12  17  24  32  60  99 136 161 198 242 283
#
# _framework density 14.666014000000001
#
# number of rings (size 3 to 8) (size 9 to 14) (size 15 to 20)
#    0.000    1.905    5.714    0.857    0.000    0.000 
#    0.000    0.952    0.000    0.000    0.000    2.667 
#    0.000    0.762    1.524    1.714    0.000    0.000 
#
# Total GULP energy -467670.634229 kJ/mol
# GULP energy per Si atom -5567.507550 kJ/mol
# Density = 1.463263 g / cm^3
# Si number density = 14.666014 Si / 1000 Ang^3
#
#
#
# Elastic Constant Matrix: (Units=GPa)
#
#
# Indices 1 2 3 4 5 6 
#
# 1 93.0852 63.0098 23.3219 0.0000 0.0000 0.0000
# 2 63.0098 93.0849 23.3219 0.0000 0.0000 0.0000
# 3 23.3219 23.3219 26.5589 0.0000 0.0000 0.0000
# 4 0.0000 0.0000 0.0000 10.9422 0.0000 0.0000
# 5 0.0000 0.0000 0.0000 0.0000 10.9423 0.0000
# 6 0.0000 0.0000 0.0000 0.0000 0.0000 26.3850
#
#
#
# Elastic Compliance Matrix: (Units=1/GPa)
#
#
# Indices 1 2 3 4 5 6 
#
# 1 0.020968 -0.012282 -0.007627 0.000000 0.000000 0.000000
# 2 -0.012282 0.020968 -0.007627 0.000000 0.000000 0.000000
# 3 -0.007627 -0.007627 0.051047 0.000000 0.000000 0.000000
# 4 0.000000 0.000000 0.000000 0.091389 0.000000 0.000000
# 5 0.000000 0.000000 0.000000 0.000000 0.091389 0.000000
# 6 0.000000 0.000000 0.000000 0.000000 0.000000 0.037900
#
#
# Mechanical properties :
#
#
# Convention : Reuss Voigt Hill
#
# Bulk Modulus (GPa) = 26.37810 48.00401 37.19105
# Shear Modulus (GPa) = 13.11066 16.52558 14.81812
#
# Velocity S-wave (km/s) = 2.99314 3.36042 3.18208
# Velocity P-wave (km/s) = 5.47450 6.91802 6.23815
#
# Compressibility (1/GPa) = 0.03791024
#
# Stress axis : x y z
#
# Youngs Moduli (GPa) = 47.69262 47.69243 19.58988
#
# Poissons Ratio (x) = 0.58577 0.14941
# Poissons Ratio (y) = 0.58577 0.14941
# Poissons Ratio (z) = 0.36374 0.36374
#
# Static dielectric constant tensor:
#      x y z
#    x 1.497380 0.000000 0.000000 
#    y 0.000000 1.497380 0.000000 
#    z 0.000000 0.000000 1.484560 
# 
# From -- ./inp_files/8629.got.cif
#   From: 2010.05.17/outbox.cif.g08.bks.cpg/sg140_5_cif.got.tgz:8629.got - 2010.06.21 00:45:31.
