data_PCOD9571738
_publ_section_title
;
Structure prediction by ZEFSAII (Michael W. Deem and Ramdas Pophale) SiO2 
 PCOD9571738
Probable space group: I 4/M M M
;
_chemical_formula_sum "Si O2"
_cell_formula_units_Z 160
_cell_length_a 23.027320
_cell_length_b 23.027320
_cell_length_c 15.777331
_cell_angle_alpha 90.000000
_cell_angle_beta 90.000000
_cell_angle_gamma 90.000000
_cell_volume 8366.047562
_symmetry_space_group_name_H-M "I 4/M M M"
_symmetry_group_IT_number 139
_symmetry_cell_setting 'tetragonal'
loop_
_space_group_symop_operation_xyz
x,y,z
-y,x,z
-x,-y,z
y,-x,z
x,-y,-z
-x,y,-z
y,x,-z
-y,-x,-z
-x,-y,-z
y,-x,-z
x,y,-z
-y,x,-z
-x,y,z
x,-y,z
-y,-x,z
y,x,z
1/2+x,1/2+y,1/2+z
1/2-y,1/2+x,1/2+z
1/2-x,1/2-y,1/2+z
1/2+y,1/2-x,1/2+z
1/2+x,1/2-y,1/2-z
1/2-x,1/2+y,1/2-z
1/2+y,1/2+x,1/2-z
1/2-y,1/2-x,1/2-z
1/2-x,1/2-y,1/2-z
1/2+y,1/2-x,1/2-z
1/2+x,1/2+y,1/2-z
1/2-y,1/2+x,1/2-z
1/2-x,1/2+y,1/2+z
1/2+x,1/2-y,1/2+z
1/2-y,1/2-x,1/2+z
1/2+y,1/2+x,1/2+z
loop_
_atom_site_type_symbol
_atom_site_label
_atom_site_fract_x
_atom_site_fract_y
_atom_site_fract_z
Si Si1 0.874102 0.125899 0.905054
Si Si2 0.430512 0.569489 0.101656
Si Si3 0.674280 0.500000 0.407612
Si Si4 0.396665 0.000000 0.898859
Si Si5 0.875782 0.564374 0.899366
Si Si6 0.784184 0.500000 0.701950
Si Si7 0.212243 0.625525 0.205137
Si Si8 0.153920 0.846081 0.712160
O O1 0.942121 0.137538 0.902911
O O2 0.849709 0.150291 0.815795
O O3 0.853029 0.146972 0.000000
O O4 0.420050 0.500000 0.116129
O O5 0.390266 0.609735 0.162725
O O6 0.419716 0.580285 0.000000
O O7 0.704511 0.500000 0.500000
O O8 0.719424 0.500000 0.332617
O O9 0.422890 0.940052 0.864215
O O10 0.329740 0.000000 0.874652
O O11 0.405345 0.000000 0.000000
O O12 0.857954 0.500000 0.871284
O O13 0.828402 0.611432 0.874751
O O14 0.880744 0.563535 0.000000
O O15 0.791297 0.563402 0.745629
O O16 0.179091 0.679091 0.250000
O O17 0.279479 0.638989 0.188930
#
# Coordination Sequence:
#
# PCOD9571738 Si02
#       8
#    16  16  16  16  32  16  32  16
#     4  10  22  39  61  94 130 160 201 257 315 380
#     4   9  22  45  73 104 132 161 209 274 335 388
#     4  10  21  39  61  89 122 156 201 253 308 377
#     4  10  20  36  60  89 123 163 202 259 324 377
#     4  10  21  38  61  92 126 161 207 264 324 381
#     4  12  21  37  64  86 116 159 216 258 307 370
#     4  12  25  42  61  89 128 168 211 265 317 377
#     4  12  26  42  68  92 131 175 219 258 327 390
#
# _framework density 19.124922000000002
#
# number of rings (size 3 to 8) (size 9 to 14) (size 15 to 20)
#    0.000    1.300    5.000    1.200    2.800    2.200 
#    0.000    4.000    0.000    1.200    0.000    0.000 
#    0.000    0.000    0.000    0.000    0.000    0.000 
#
# Total GULP energy -445610.126796 kJ/mol
# GULP energy per Si atom -5570.126585 kJ/mol
# Density = 1.908139 g / cm^3
# Si number density = 19.124922 Si / 1000 Ang^3
#
#
#
# Elastic Constant Matrix: (Units=GPa)
#
#
# Indices 1 2 3 4 5 6 
#
# 1 104.4592 65.0736 41.0709 0.0000 0.0000 0.0000
# 2 65.0736 104.4577 41.0703 0.0000 0.0000 0.0000
# 3 41.0709 41.0703 52.0048 0.0000 0.0000 0.0000
# 4 0.0000 0.0000 0.0000 21.0422 0.0000 0.0000
# 5 0.0000 0.0000 0.0000 0.0000 21.0416 0.0000
# 6 0.0000 0.0000 0.0000 0.0000 0.0000 38.4101
#
#
#
# Elastic Compliance Matrix: (Units=1/GPa)
#
#
# Indices 1 2 3 4 5 6 
#
# 1 0.017472 -0.007918 -0.007546 0.000000 0.000000 0.000000
# 2 -0.007918 0.017473 -0.007546 0.000000 0.000000 0.000000
# 3 -0.007546 -0.007546 0.031147 0.000000 0.000000 0.000000
# 4 0.000000 0.000000 0.000000 0.047523 0.000000 0.000000
# 5 0.000000 0.000000 0.000000 0.000000 0.047525 0.000000
# 6 0.000000 0.000000 0.000000 0.000000 0.000000 0.026035
#
#
# Mechanical properties :
#
#
# Convention : Reuss Voigt Hill
#
# Bulk Modulus (GPa) = 49.81630 61.70573 55.76101
# Shear Modulus (GPa) = 20.84326 23.67926 22.26126
#
# Velocity S-wave (km/s) = 3.30487 3.52253 3.41543
# Velocity P-wave (km/s) = 6.37709 6.99135 6.69127
#
# Compressibility (1/GPa) = 0.02007375
#
# Stress axis : x y z
#
# Youngs Moduli (GPa) = 57.23284 57.23240 32.10533
#
# Poissons Ratio (x) = 0.45316 0.24226
# Poissons Ratio (y) = 0.45317 0.24226
# Poissons Ratio (z) = 0.43187 0.43186
#
# Static dielectric constant tensor:
#      x y z
#    x 1.647270 0.000000 0.000000 
#    y 0.000000 1.647270 0.000000 
#    z 0.000000 0.000000 1.719300 
# 
# From -- ./inp_files/8543.got.cif
#   From: 2010.05.17/outbox.cif.g08.bks.cpg/sg139_5_cif.got.tgz:8543.got - 2010.05.20 13:14:44.
