data_PCOD9571126
_publ_section_title
;
Structure prediction by ZEFSAII (Michael W. Deem and Ramdas Pophale) SiO2 
 PCOD9571126
Probable space group: P 42/N C M
;
_chemical_formula_sum "Si O2"
_cell_formula_units_Z 80
_cell_length_a 9.465220
_cell_length_b 9.465220
_cell_length_c 33.933447
_cell_angle_alpha 90.000000
_cell_angle_beta 90.000000
_cell_angle_gamma 90.000000
_cell_volume 3040.110739
_symmetry_space_group_name_H-M "P 42/N C M"
_symmetry_group_IT_number 138
_space_group.IT_coordinate_system_code '2'
_symmetry_cell_setting 'tetragonal'
loop_
_space_group_symop_operation_xyz
x,y,z
1/2-y,x,1/2+z
1/2-x,1/2-y,z
y,1/2-x,1/2+z
1/2+x,-y,1/2-z
-x,1/2+y,1/2-z
1/2+y,1/2+x,-z
-y,-x,-z
-x,-y,-z
1/2+y,-x,1/2-z
1/2+x,1/2+y,-z
-y,1/2+x,1/2-z
1/2-x,y,1/2+z
x,1/2-y,1/2+z
1/2-y,1/2-x,z
y,x,z
loop_
_atom_site_type_symbol
_atom_site_label
_atom_site_fract_x
_atom_site_fract_y
_atom_site_fract_z
Si Si1 0.241862 0.485622 0.566645
Si Si2 0.252808 0.485684 0.479775
Si Si3 0.520501 0.743357 0.776321
Si Si4 0.184705 0.557467 0.895231
Si Si5 0.057460 0.686899 0.189741
O O1 0.095299 0.404702 0.573796
O O2 0.360206 0.360206 0.564499
O O3 0.249123 0.556697 0.522935
O O4 0.301912 0.590011 0.599521
O O5 0.130990 0.369011 0.484310
O O6 0.400806 0.400806 0.477758
O O7 0.231911 0.548444 0.436286
O O8 0.645502 0.854499 0.783064
O O9 0.590031 0.590031 0.781697
O O10 0.396256 0.795270 0.804322
O O11 0.471593 0.763751 0.730970
O O12 0.257986 0.550603 0.852914
O O13 0.075505 0.424496 0.895497
O O14 0.933155 0.566846 0.189063
#
# Coordination Sequence:
#
# PCOD9571126 Si02
#       5
#    16  16  16  16  16
#     4   8  13  20  30  47  75 113 153 191 235 283
#     4   8  13  20  30  47  75 113 153 191 235 283
#     4   9  18  33  50  68  94 123 154 199 248 298
#     4   9  15  22  34  53  77 107 152 202 234 275
#     4   9  18  30  45  66  88 120 164 201 248 304
#
# _framework density 26.314827999999999
#
# number of rings (size 3 to 8) (size 9 to 14) (size 15 to 20)
#    0.000    3.400    0.000    1.800    0.000    4.400 
#    0.000    8.000    0.000    0.000    0.000    0.000 
#    0.000    0.000    0.000   14.400    0.000  118.400 
#
# Total GULP energy -447299.399528 kJ/mol
# GULP energy per Si atom -5591.242494 kJ/mol
# Density = 2.625493 g / cm^3
# Si number density = 26.314828 Si / 1000 Ang^3
#
#
#
# Elastic Constant Matrix: (Units=GPa)
#
#
# Indices 1 2 3 4 5 6 
#
# 1 58.6157 8.2296 10.4911 0.0000 0.0000 0.0000
# 2 8.2296 58.6157 10.4911 0.0000 0.0000 0.0000
# 3 10.4911 10.4911 138.6961 0.0000 0.0000 0.0000
# 4 0.0000 0.0000 0.0000 25.5801 0.0000 0.0000
# 5 0.0000 0.0000 0.0000 0.0000 25.5801 0.0000
# 6 0.0000 0.0000 0.0000 0.0000 0.0000 29.5583
#
#
#
# Elastic Compliance Matrix: (Units=1/GPa)
#
#
# Indices 1 2 3 4 5 6 
#
# 1 0.017585 -0.002261 -0.001159 0.000000 0.000000 0.000000
# 2 -0.002261 0.017585 -0.001159 0.000000 0.000000 0.000000
# 3 -0.001159 -0.001159 0.007385 0.000000 0.000000 0.000000
# 4 0.000000 0.000000 0.000000 0.039093 0.000000 0.000000
# 5 0.000000 0.000000 0.000000 0.000000 0.039093 0.000000
# 6 0.000000 0.000000 0.000000 0.000000 0.000000 0.033831
#
#
# Mechanical properties :
#
#
# Convention : Reuss Voigt Hill
#
# Bulk Modulus (GPa) = 29.94329 34.92789 32.43559
# Shear Modulus (GPa) = 28.59356 31.25808 29.92582
#
# Velocity S-wave (km/s) = 3.29993 3.45026 3.37593
# Velocity P-wave (km/s) = 5.09146 5.40132 5.24868
#
# Compressibility (1/GPa) = 0.03339646
#
# Stress axis : x y z
#
# Youngs Moduli (GPa) = 56.86583 56.86583 135.40299
#
# Poissons Ratio (x) = 0.12860 0.15695
# Poissons Ratio (y) = 0.12860 0.15695
# Poissons Ratio (z) = 0.06591 0.06591
#
# Static dielectric constant tensor:
#      x y z
#    x 2.115130 0.000000 0.000000 
#    y 0.000000 2.115130 0.000000 
#    z 0.000000 0.000000 1.962860 
# 
# From -- ./inp_files/7918.got.cif
#   From: 2010.05.17/outbox.cif.g08.bks.cpg/sg138_4_cif.got.tgz:7918.got - 2010.05.20 13:08:53.
