data_PCOD9571373
_publ_section_title
;
Structure prediction by ZEFSAII (Michael W. Deem and Ramdas Pophale) SiO2 
 PCOD9571373
Probable space group: I 4/M M M
;
_chemical_formula_sum "Si O2"
_cell_formula_units_Z 160
_cell_length_a 33.208216
_cell_length_b 33.208216
_cell_length_c 8.971903
_cell_angle_alpha 90.000000
_cell_angle_beta 90.000000
_cell_angle_gamma 90.000000
_cell_volume 9894.085522
_symmetry_space_group_name_H-M "I 4/M M M"
_symmetry_group_IT_number 139
_symmetry_cell_setting 'tetragonal'
loop_
_space_group_symop_operation_xyz
x,y,z
-y,x,z
-x,-y,z
y,-x,z
x,-y,-z
-x,y,-z
y,x,-z
-y,-x,-z
-x,-y,-z
y,-x,-z
x,y,-z
-y,x,-z
-x,y,z
x,-y,z
-y,-x,z
y,x,z
1/2+x,1/2+y,1/2+z
1/2-y,1/2+x,1/2+z
1/2-x,1/2-y,1/2+z
1/2+y,1/2-x,1/2+z
1/2+x,1/2-y,1/2-z
1/2-x,1/2+y,1/2-z
1/2+y,1/2+x,1/2-z
1/2-y,1/2-x,1/2-z
1/2-x,1/2-y,1/2-z
1/2+y,1/2-x,1/2-z
1/2+x,1/2+y,1/2-z
1/2-y,1/2+x,1/2-z
1/2-x,1/2+y,1/2+z
1/2+x,1/2-y,1/2+z
1/2-y,1/2-x,1/2+z
1/2+y,1/2+x,1/2+z
loop_
_atom_site_type_symbol
_atom_site_label
_atom_site_fract_x
_atom_site_fract_y
_atom_site_fract_z
Si Si1 0.809813 0.370987 0.821215
Si Si2 0.567221 0.500000 0.167107
Si Si3 0.500000 0.352236 0.323534
Si Si4 0.302133 0.425337 0.675527
Si Si5 0.843495 0.779369 0.679423
Si Si6 0.289897 0.046007 0.824307
O O1 0.845782 0.345782 0.750000
O O2 0.767219 0.349944 0.773833
O O3 0.809507 0.417122 0.764889
O O4 0.811814 0.370068 0.000000
O O5 0.538489 0.538489 0.179650
O O6 0.601179 0.500000 0.289320
O O7 0.585191 0.500000 0.000000
O O8 0.500000 0.343425 0.500000
O O9 0.458869 0.332666 0.264700
O O10 0.309650 0.417521 0.500000
O O11 0.301900 0.383159 0.760536
O O12 0.257962 0.445496 0.687673
O O13 0.843895 0.779668 0.500000
O O14 0.803370 0.803370 0.728869
O O15 0.298441 0.000000 0.775740
O O16 0.300167 0.049163 0.000000
#
# Coordination Sequence:
#
# PCOD9571373 Si02
#       6
#    32  16  16  32  32  32
#     4  10  20  33  49  71  99 131 167 207 245 283
#     4   9  20  38  52  60  76 106 144 184 230 289
#     4  10  19  31  49  72  94 114 142 186 239 293
#     4   9  17  30  47  69  95 120 149 188 235 289
#     4   9  19  34  48  65  93 128 165 205 245 285
#     4   9  16  30  52  73  96 128 160 192 235 284
#
# _framework density 16.171277
#
# number of rings (size 3 to 8) (size 9 to 14) (size 15 to 20)
#    0.000    2.700    1.000    0.900    0.000    4.000 
#    0.000    4.500    0.000    0.000    0.000    0.000 
#    0.000    0.400    0.000    4.200    0.000    1.800 
#
# Total GULP energy -445671.074472 kJ/mol
# GULP energy per Si atom -5570.888431 kJ/mol
# Density = 1.613447 g / cm^3
# Si number density = 16.171277 Si / 1000 Ang^3
#
#
#
# Elastic Constant Matrix: (Units=GPa)
#
#
# Indices 1 2 3 4 5 6 
#
# 1 76.5123 47.2209 25.7180 0.0000 0.0000 0.0000
# 2 47.2209 76.5123 25.7180 0.0000 0.0000 0.0000
# 3 25.7180 25.7180 19.1984 0.0000 0.0000 0.0000
# 4 0.0000 0.0000 0.0000 24.0127 0.0000 0.0000
# 5 0.0000 0.0000 0.0000 0.0000 24.0127 0.0000
# 6 0.0000 0.0000 0.0000 0.0000 0.0000 -369.3429
#
#
#
# Elastic Compliance Matrix: (Units=1/GPa)
#
#
# Indices 1 2 3 4 5 6 
#
# 1 0.026189 -0.007951 -0.024432 0.000000 0.000000 0.000000
# 2 -0.007951 0.026189 -0.024432 0.000000 0.000000 0.000000
# 3 -0.024432 -0.024432 0.117544 0.000000 0.000000 0.000000
# 4 0.000000 0.000000 0.000000 0.041645 0.000000 0.000000
# 5 0.000000 0.000000 0.000000 0.000000 0.041645 0.000000
# 6 0.000000 0.000000 0.000000 0.000000 0.000000 -0.002708
#
#
# Mechanical properties :
#
#
# Convention : Reuss Voigt Hill
#
# Bulk Modulus (GPa) = 17.76388 41.05964 29.41176
# Shear Modulus (GPa) = 13.05837 -59.35907 -23.15035
#
# Velocity S-wave (km/s) = 2.84474 -6.06516 -3.78772
# Velocity P-wave (km/s) = 4.66892 4.85825 0.94970
#
# Compressibility (1/GPa) = 0.05629400
#
# Stress axis : x y z
#
# Youngs Moduli (GPa) = 38.18406 38.18406 8.50745
#
# Poissons Ratio (x) = 0.30359 0.20785
# Poissons Ratio (y) = 0.30359 0.20785
# Poissons Ratio (z) = 0.93290 0.93290
#
# Static dielectric constant tensor:
#      x y z
#    x 1.534320 0.000000 0.000000 
#    y 0.000000 1.534320 0.000000 
#    z 0.000000 0.000000 1.552980 
# 
# From -- ./inp_files/2178.got.cif
#   From: 2010.05.17/outbox.cif.g08.bks.cpg/sg139_2_cif.got.tgz:2178.got - 2010.05.20 13:14:44.
