data_PCOD9571873
_publ_section_title
;
Structure prediction by ZEFSAII (Michael W. Deem and Ramdas Pophale) SiO2 
 PCOD9571873
Probable space group: I 4/M M M
;
_chemical_formula_sum "Si O2"
_cell_formula_units_Z 160
_cell_length_a 24.059275
_cell_length_b 24.059275
_cell_length_c 14.234460
_cell_angle_alpha 90.000000
_cell_angle_beta 90.000000
_cell_angle_gamma 90.000000
_cell_volume 8239.598859
_symmetry_space_group_name_H-M "I 4/M M M"
_symmetry_group_IT_number 139
_symmetry_cell_setting 'tetragonal'
loop_
_space_group_symop_operation_xyz
x,y,z
-y,x,z
-x,-y,z
y,-x,z
x,-y,-z
-x,y,-z
y,x,-z
-y,-x,-z
-x,-y,-z
y,-x,-z
x,y,-z
-y,x,-z
-x,y,z
x,-y,z
-y,-x,z
y,x,z
1/2+x,1/2+y,1/2+z
1/2-y,1/2+x,1/2+z
1/2-x,1/2-y,1/2+z
1/2+y,1/2-x,1/2+z
1/2+x,1/2-y,1/2-z
1/2-x,1/2+y,1/2-z
1/2+y,1/2+x,1/2-z
1/2-y,1/2-x,1/2-z
1/2-x,1/2-y,1/2-z
1/2+y,1/2-x,1/2-z
1/2+x,1/2+y,1/2-z
1/2-y,1/2+x,1/2-z
1/2-x,1/2+y,1/2+z
1/2+x,1/2-y,1/2+z
1/2-y,1/2-x,1/2+z
1/2+y,1/2+x,1/2+z
loop_
_atom_site_type_symbol
_atom_site_label
_atom_site_fract_x
_atom_site_fract_y
_atom_site_fract_z
Si Si1 0.435638 0.728626 0.390187
Si Si2 0.145838 0.237012 0.613235
Si Si3 0.061276 0.564282 0.386012
Si Si4 0.564822 0.656468 0.786401
Si Si5 0.636984 0.165651 0.614488
O O1 0.425993 0.715641 0.500000
O O2 0.500000 0.748518 0.382079
O O3 0.429795 0.676393 0.321721
O O4 0.393546 0.777181 0.359777
O O5 0.141531 0.237408 0.500000
O O6 0.197538 0.197538 0.639523
O O7 0.091576 0.207253 0.654850
O O8 0.157392 0.299686 0.645200
O O9 0.061985 0.564581 0.500000
O O10 0.066766 0.500000 0.357674
O O11 0.112806 0.600885 0.355236
O O12 0.000000 0.584712 0.357576
O O13 0.500000 0.648338 0.807840
O O14 0.602379 0.602379 0.803873
O O15 0.637379 0.165955 0.500000
#
# Coordination Sequence:
#
# PCOD9571873 Si02
#       5
#    32  32  32  32  32
#     4   9  18  33  53  78 109 143 179 219 258 299
#     4   9  19  35  53  76 106 135 166 209 257 305
#     4   8  13  21  35  60  95 131 169 213 251 283
#     4  10  22  39  58  80 104 132 168 212 266 323
#     4   9  16  27  47  73 101 139 180 210 247 302
#
# _framework density 19.418420999999999
#
# number of rings (size 3 to 8) (size 9 to 14) (size 15 to 20)
#    0.000    3.000    0.000    1.200    0.000    5.800 
#    0.000    6.000    0.000    0.000    0.000    5.600 
#    0.000    4.800    0.000    0.400    0.000    0.000 
#
# Total GULP energy -446415.500105 kJ/mol
# GULP energy per Si atom -5580.193751 kJ/mol
# Density = 1.937422 g / cm^3
# Si number density = 19.418421 Si / 1000 Ang^3
#
#
#
# Elastic Constant Matrix: (Units=GPa)
#
#
# Indices 1 2 3 4 5 6 
#
# 1 91.6472 43.7645 -1.6525 0.0000 0.0000 0.0000
# 2 43.7645 91.6472 -1.6525 0.0000 0.0000 0.0000
# 3 -1.6525 -1.6525 41.2299 0.0000 0.0000 0.0000
# 4 0.0000 0.0000 0.0000 13.2494 0.0000 0.0000
# 5 0.0000 0.0000 0.0000 0.0000 13.2494 0.0000
# 6 0.0000 0.0000 0.0000 0.0000 0.0000 110.0294
#
#
#
# Elastic Compliance Matrix: (Units=1/GPa)
#
#
# Indices 1 2 3 4 5 6 
#
# 1 0.014138 -0.006746 0.000296 0.000000 0.000000 0.000000
# 2 -0.006746 0.014138 0.000296 0.000000 0.000000 0.000000
# 3 0.000296 0.000296 0.024278 0.000000 0.000000 0.000000
# 4 0.000000 0.000000 0.000000 0.075475 0.000000 0.000000
# 5 0.000000 0.000000 0.000000 0.000000 0.075475 0.000000
# 6 0.000000 0.000000 0.000000 0.000000 0.000000 0.009088
#
#
# Mechanical properties :
#
#
# Convention : Reuss Voigt Hill
#
# Bulk Modulus (GPa) = 24.84640 33.93818 29.39229
# Shear Modulus (GPa) = 20.98053 39.57661 30.27857
#
# Velocity S-wave (km/s) = 3.29058 4.51943 3.95304
# Velocity P-wave (km/s) = 5.22114 6.68946 6.00038
#
# Compressibility (1/GPa) = 0.04024728
#
# Stress axis : x y z
#
# Youngs Moduli (GPa) = 70.73013 70.73013 41.18961
#
# Poissons Ratio (x) = 0.47715 -0.01220
# Poissons Ratio (y) = 0.47715 -0.01220
# Poissons Ratio (z) = -0.02096 -0.02096
#
# Static dielectric constant tensor:
#      x y z
#    x 1.650380 0.000000 0.000000 
#    y 0.000000 1.650380 0.000000 
#    z 0.000000 0.000000 1.732660 
# 
# From -- ./inp_files/5883.got.cif
#   From: 2010.05.17/outbox.cif.g08.bks.cpg/sg139_3_cif.got.tgz:5883.got - 2010.05.20 13:14:44.
