data_PCOD9571259
_publ_section_title
;
Structure prediction by ZEFSAII (Michael W. Deem and Ramdas Pophale) SiO2 
 PCOD9571259
Probable space group: I 4/M M M
;
_chemical_formula_sum "Si O2"
_cell_formula_units_Z 176
_cell_length_a 22.846375
_cell_length_b 22.846375
_cell_length_c 15.324924
_cell_angle_alpha 90.000000
_cell_angle_beta 90.000000
_cell_angle_gamma 90.000000
_cell_volume 7998.949067
_symmetry_space_group_name_H-M "I 4/M M M"
_symmetry_group_IT_number 139
_symmetry_cell_setting 'tetragonal'
loop_
_space_group_symop_operation_xyz
x,y,z
-y,x,z
-x,-y,z
y,-x,z
x,-y,-z
-x,y,-z
y,x,-z
-y,-x,-z
-x,-y,-z
y,-x,-z
x,y,-z
-y,x,-z
-x,y,z
x,-y,z
-y,-x,z
y,x,z
1/2+x,1/2+y,1/2+z
1/2-y,1/2+x,1/2+z
1/2-x,1/2-y,1/2+z
1/2+y,1/2-x,1/2+z
1/2+x,1/2-y,1/2-z
1/2-x,1/2+y,1/2-z
1/2+y,1/2+x,1/2-z
1/2-y,1/2-x,1/2-z
1/2-x,1/2-y,1/2-z
1/2+y,1/2-x,1/2-z
1/2+x,1/2+y,1/2-z
1/2-y,1/2+x,1/2-z
1/2-x,1/2+y,1/2+z
1/2+x,1/2-y,1/2+z
1/2-y,1/2-x,1/2+z
1/2+y,1/2+x,1/2+z
loop_
_atom_site_type_symbol
_atom_site_label
_atom_site_fract_x
_atom_site_fract_y
_atom_site_fract_z
Si Si1 0.931344 0.165942 0.893047
Si Si2 0.428725 0.065080 0.000000
Si Si3 0.065803 0.845514 0.606349
Si Si4 0.270405 0.125905 0.605984
Si Si5 0.840494 0.259045 0.899208
Si Si6 0.371810 0.066624 0.326078
O O1 0.889709 0.110292 0.868136
O O2 0.898213 0.226119 0.862508
O O3 0.000000 0.162112 0.867559
O O4 0.930078 0.167475 0.000000
O O5 0.410885 0.096473 0.912840
O O6 0.500000 0.065268 0.000000
O O7 0.406669 0.000000 0.000000
O O8 0.063662 0.844323 0.500000
O O9 0.092307 0.907693 0.633072
O O10 0.112856 0.795893 0.631112
O O11 0.000000 0.835053 0.637756
O O12 0.272575 0.125389 0.500000
O O13 0.305476 0.184095 0.636043
O O14 0.305057 0.071989 0.647708
O O15 0.792025 0.207976 0.900011
O O16 0.854779 0.274241 0.000000
O O17 0.392273 0.107728 0.250000
O O18 0.389301 0.000000 0.307017
#
# Coordination Sequence:
#
# PCOD9571259 Si02
#       6
#    32  16  32  32  32  32
#     4   8  13  21  33  52  82 120 163 214 272 334
#     4   9  18  34  54  74  99 136 183 233 287 346
#     4   9  17  28  46  75 110 148 188 231 281 341
#     4  10  18  31  52  77 106 140 190 236 279 333
#     4   8  14  25  43  66  95 133 176 221 273 330
#     4  11  22  36  55  78 107 145 187 240 295 347
#
# _framework density 22.002890000000001
#
# number of rings (size 3 to 8) (size 9 to 14) (size 15 to 20)
#    0.000    2.818    0.909    2.727    0.000    4.182 
#    0.000    3.636    0.000    2.182    0.000    0.000 
#    0.000    0.000    0.000    0.000    0.000    8.000 
#
# Total GULP energy -490305.732702 kJ/mol
# GULP energy per Si atom -5571.656053 kJ/mol
# Density = 2.195281 g / cm^3
# Si number density = 22.002890 Si / 1000 Ang^3
#
#
#
# Elastic Constant Matrix: (Units=GPa)
#
#
# Indices 1 2 3 4 5 6 
#
# 1 139.3918 61.8725 11.6533 0.0000 0.0000 0.0000
# 2 61.8725 139.3917 11.6526 0.0000 0.0000 0.0000
# 3 11.6533 11.6526 44.4320 0.0000 0.0000 0.0000
# 4 0.0000 0.0000 0.0000 5.2811 0.0000 0.0000
# 5 0.0000 0.0000 0.0000 0.0000 5.2803 0.0000
# 6 0.0000 0.0000 0.0000 0.0000 0.0000 30.3497
#
#
#
# Elastic Compliance Matrix: (Units=1/GPa)
#
#
# Indices 1 2 3 4 5 6 
#
# 1 0.009012 -0.003888 -0.001344 0.000000 0.000000 0.000000
# 2 -0.003888 0.009012 -0.001344 0.000000 0.000000 0.000000
# 3 -0.001344 -0.001344 0.023211 0.000000 0.000000 0.000000
# 4 0.000000 0.000000 0.000000 0.189356 0.000000 0.000000
# 5 0.000000 0.000000 0.000000 0.000000 0.189384 0.000000
# 6 0.000000 0.000000 0.000000 0.000000 0.000000 0.032949
#
#
# Mechanical properties :
#
#
# Convention : Reuss Voigt Hill
#
# Bulk Modulus (GPa) = 35.60743 54.84137 45.22440
# Shear Modulus (GPa) = 10.51663 24.05134 17.28398
#
# Velocity S-wave (km/s) = 2.18861 3.30979 2.80578
# Velocity P-wave (km/s) = 4.75446 6.29166 5.57629
#
# Compressibility (1/GPa) = 0.02808402
#
# Stress axis : x y z
#
# Youngs Moduli (GPa) = 110.96161 110.96181 43.08265
#
# Poissons Ratio (x) = 0.43141 0.05790
# Poissons Ratio (y) = 0.43141 0.05789
# Poissons Ratio (z) = 0.14913 0.14911
#
# Static dielectric constant tensor:
#      x y z
#    x 1.888900 0.000000 0.000000 
#    y 0.000000 1.888940 0.000000 
#    z 0.000000 0.000000 1.776180 
# 
# From -- ./inp_files/6136.got.cif
#   From: 2010.05.17/outbox.cif.g08.bks.cpg/sg139_4_cif.got.tgz:6136.got - 2010.05.20 13:14:44.
