data_PCOD9571722
_publ_section_title
;
Structure prediction by ZEFSAII (Michael W. Deem and Ramdas Pophale) SiO2 
 PCOD9571722
Probable space group: I 4/M M M
;
_chemical_formula_sum "Si O2"
_cell_formula_units_Z 160
_cell_length_a 22.139052
_cell_length_b 22.139052
_cell_length_c 19.315137
_cell_angle_alpha 90.000000
_cell_angle_beta 90.000000
_cell_angle_gamma 90.000000
_cell_volume 9467.075346
_symmetry_space_group_name_H-M "I 4/M M M"
_symmetry_group_IT_number 139
_symmetry_cell_setting 'tetragonal'
loop_
_space_group_symop_operation_xyz
x,y,z
-y,x,z
-x,-y,z
y,-x,z
x,-y,-z
-x,y,-z
y,x,-z
-y,-x,-z
-x,-y,-z
y,-x,-z
x,y,-z
-y,x,-z
-x,y,z
x,-y,z
-y,-x,z
y,x,z
1/2+x,1/2+y,1/2+z
1/2-y,1/2+x,1/2+z
1/2-x,1/2-y,1/2+z
1/2+y,1/2-x,1/2+z
1/2+x,1/2-y,1/2-z
1/2-x,1/2+y,1/2-z
1/2+y,1/2+x,1/2-z
1/2-y,1/2-x,1/2-z
1/2-x,1/2-y,1/2-z
1/2+y,1/2-x,1/2-z
1/2+x,1/2+y,1/2-z
1/2-y,1/2+x,1/2-z
1/2-x,1/2+y,1/2+z
1/2+x,1/2-y,1/2+z
1/2-y,1/2-x,1/2+z
1/2+y,1/2+x,1/2+z
loop_
_atom_site_type_symbol
_atom_site_label
_atom_site_fract_x
_atom_site_fract_y
_atom_site_fract_z
Si Si1 0.930842 0.572449 0.671474
Si Si2 0.654688 0.150821 0.080603
Si Si3 0.232429 0.069813 0.421693
Si Si4 0.342373 0.759888 0.704351
Si Si5 0.670533 0.429095 0.222543
O O1 0.929900 0.500000 0.668032
O O2 0.911674 0.588326 0.750000
O O3 0.888809 0.601114 0.614242
O O4 0.000000 0.592634 0.662051
O O5 0.617999 0.213914 0.087238
O O6 0.713993 0.150352 0.127764
O O7 0.666413 0.140541 0.000000
O O8 0.208003 0.077219 0.500000
O O9 0.185915 0.077541 0.359145
O O10 0.255115 0.000000 0.416847
O O11 0.292254 0.707747 0.704745
O O12 0.314076 0.814076 0.750000
O O13 0.401335 0.728764 0.737450
O O14 0.662306 0.500000 0.237655
O O15 0.612503 0.387498 0.238866
#
# Coordination Sequence:
#
# PCOD9571722 Si02
#       5
#    32  32  32  32  32
#     4   9  19  34  50  70 100 142 188 227 262 302
#     4  11  21  32  50  77 107 141 180 222 265 316
#     4   9  18  31  48  75 110 146 183 221 264 315
#     4  10  20  36  54  76 106 139 175 214 264 323
#     4  10  21  37  58  81 106 141 181 225 274 321
#
# _framework density 16.900677999999999
#
# number of rings (size 3 to 8) (size 9 to 14) (size 15 to 20)
#    0.000    2.200    2.000    1.800    0.000    3.400 
#    0.000    3.000    0.000    0.000    0.000    2.800 
#    0.000    0.000    0.000    4.400    0.000    0.000 
#
# Total GULP energy -446121.254524 kJ/mol
# GULP energy per Si atom -5576.515682 kJ/mol
# Density = 1.686221 g / cm^3
# Si number density = 16.900678 Si / 1000 Ang^3
#
#
#
# Elastic Constant Matrix: (Units=GPa)
#
#
# Indices 1 2 3 4 5 6 
#
# 1 71.7942 40.9302 32.4172 0.0000 0.0000 0.0000
# 2 40.9302 71.7935 32.4166 0.0000 0.0000 0.0000
# 3 32.4172 32.4166 86.9930 0.0000 0.0000 0.0000
# 4 0.0000 0.0000 0.0000 0.3504 0.0000 0.0000
# 5 0.0000 0.0000 0.0000 0.0000 0.3490 0.0000
# 6 0.0000 0.0000 0.0000 0.0000 0.0000 14.2644
#
#
#
# Elastic Compliance Matrix: (Units=1/GPa)
#
#
# Indices 1 2 3 4 5 6 
#
# 1 0.021846 -0.010555 -0.004208 0.000000 0.000000 0.000000
# 2 -0.010555 0.021846 -0.004207 0.000000 0.000000 0.000000
# 3 -0.004208 -0.004207 0.014631 0.000000 0.000000 0.000000
# 4 0.000000 0.000000 0.000000 2.853679 0.000002 0.000000
# 5 0.000000 0.000000 0.000000 0.000002 2.864932 0.000000
# 6 0.000000 0.000000 0.000000 0.000000 0.000000 0.070105
#
#
# Mechanical properties :
#
#
# Convention : Reuss Voigt Hill
#
# Bulk Modulus (GPa) = 49.05995 49.12321 49.09158
# Shear Modulus (GPa) = 0.84864 11.31389 6.08126
#
# Velocity S-wave (km/s) = 0.70938 2.59015 1.89896
# Velocity P-wave (km/s) = 5.45549 6.17042 5.82394
#
# Compressibility (1/GPa) = 0.02038322
#
# Stress axis : x y z
#
# Youngs Moduli (GPa) = 45.77535 45.77510 68.34826
#
# Poissons Ratio (x) = 0.48314 0.28758
# Poissons Ratio (y) = 0.48314 0.28757
# Poissons Ratio (z) = 0.19260 0.19260
#
# Static dielectric constant tensor:
#      x y z
#    x 1.571360 0.000000 0.000000 
#    y 0.000000 1.571360 0.000000 
#    z 0.000000 0.000000 1.569310 
# 
# From -- ./inp_files/8367.got.cif
#   From: 2010.05.17/outbox.cif.g08.bks.cpg/sg139_5_cif.got.tgz:8367.got - 2010.05.20 13:14:44.
