data_PCOD9571614
_publ_section_title
;
Structure prediction by ZEFSAII (Michael W. Deem and Ramdas Pophale) SiO2 
 PCOD9571614
Probable space group: I 4/M M M
;
_chemical_formula_sum "Si O2"
_cell_formula_units_Z 240
_cell_length_a 21.300525
_cell_length_b 21.300525
_cell_length_c 29.709881
_cell_angle_alpha 90.000000
_cell_angle_beta 90.000000
_cell_angle_gamma 90.000000
_cell_volume 13479.740381
_symmetry_space_group_name_H-M "I 4/M M M"
_symmetry_group_IT_number 139
_symmetry_cell_setting 'tetragonal'
loop_
_space_group_symop_operation_xyz
x,y,z
-y,x,z
-x,-y,z
y,-x,z
x,-y,-z
-x,y,-z
y,x,-z
-y,-x,-z
-x,-y,-z
y,-x,-z
x,y,-z
-y,x,-z
-x,y,z
x,-y,z
-y,-x,z
y,x,z
1/2+x,1/2+y,1/2+z
1/2-y,1/2+x,1/2+z
1/2-x,1/2-y,1/2+z
1/2+y,1/2-x,1/2+z
1/2+x,1/2-y,1/2-z
1/2-x,1/2+y,1/2-z
1/2+y,1/2+x,1/2-z
1/2-y,1/2-x,1/2-z
1/2-x,1/2-y,1/2-z
1/2+y,1/2-x,1/2-z
1/2+x,1/2+y,1/2-z
1/2-y,1/2+x,1/2-z
1/2-x,1/2+y,1/2+z
1/2+x,1/2-y,1/2+z
1/2-y,1/2-x,1/2+z
1/2+y,1/2+x,1/2+z
loop_
_atom_site_type_symbol
_atom_site_label
_atom_site_fract_x
_atom_site_fract_y
_atom_site_fract_z
Si Si1 0.325333 0.573678 0.127259
Si Si2 0.815171 0.428311 0.355351
Si Si3 0.429181 0.000000 0.445831
Si Si4 0.075178 0.767827 0.721142
Si Si5 0.576229 0.678889 0.318163
Si Si6 0.138598 0.610480 0.447871
Si Si7 0.376125 0.073401 0.294287
Si Si8 0.639138 0.255940 0.050643
O O1 0.336577 0.500000 0.129786
O O2 0.388478 0.611523 0.117203
O O3 0.297687 0.597630 0.174627
O O4 0.276177 0.589939 0.088211
O O5 0.818891 0.500000 0.338983
O O6 0.744537 0.407083 0.343160
O O7 0.824601 0.425081 0.408971
O O8 0.873819 0.394044 0.331093
O O9 0.395667 0.064960 0.435125
O O10 0.500000 0.000000 0.426944
O O11 0.433858 0.000000 0.500000
O O12 0.091483 0.804914 0.766078
O O13 0.089972 0.694249 0.722256
O O14 0.000000 0.770417 0.719026
O O15 0.500000 0.668114 0.322636
O O16 0.619615 0.619615 0.331811
O O17 0.146197 0.588899 0.500000
O O18 0.156279 0.683377 0.445513
O O19 0.418973 0.081028 0.250000
O O20 0.377786 0.000000 0.309915
O O21 0.699584 0.300417 0.056270
O O22 0.614119 0.265958 0.000000
#
# Coordination Sequence:
#
# PCOD9571614 Si02
#       8
#    32  32  16  32  32  32  32  32
#     4  10  20  33  52  75 100 135 174 221 278 333
#     4  11  23  37  54  81 115 150 186 229 279 326
#     4   9  18  32  50  76 108 138 175 223 269 319
#     4   9  18  35  55  76 108 142 178 228 275 322
#     4  10  21  39  61  85 114 145 181 230 286 343
#     4  10  21  36  56  79 106 145 186 230 279 326
#     4  11  21  35  54  78 110 152 197 230 263 315
#     4   9  19  35  53  75 102 133 177 229 274 324
#
# _framework density 17.804497000000001
#
# number of rings (size 3 to 8) (size 9 to 14) (size 15 to 20)
#    0.000    2.067    1.333    2.000    1.867    2.800 
#    0.000    2.000    0.000    2.400    0.000    1.867 
#    0.000    0.000    0.000    2.933    0.000    0.000 
#
# Total GULP energy -668789.953523 kJ/mol
# GULP energy per Si atom -5573.249613 kJ/mol
# Density = 1.776397 g / cm^3
# Si number density = 17.804497 Si / 1000 Ang^3
#
#
#
# Elastic Constant Matrix: (Units=GPa)
#
#
# Indices 1 2 3 4 5 6 
#
# 1 76.3936 37.8200 24.7769 0.0000 0.0000 0.0000
# 2 37.8200 76.3941 24.7770 0.0000 0.0000 0.0000
# 3 24.7769 24.7770 73.8946 0.0000 0.0000 0.0000
# 4 0.0000 0.0000 0.0000 17.9743 0.0000 0.0000
# 5 0.0000 0.0000 0.0000 0.0000 17.9744 0.0000
# 6 0.0000 0.0000 0.0000 0.0000 0.0000 21.0305
#
#
#
# Elastic Compliance Matrix: (Units=1/GPa)
#
#
# Indices 1 2 3 4 5 6 
#
# 1 0.018085 -0.007839 -0.003436 0.000000 0.000000 0.000000
# 2 -0.007839 0.018085 -0.003436 0.000000 0.000000 0.000000
# 3 -0.003436 -0.003436 0.015837 0.000000 0.000000 0.000000
# 4 0.000000 0.000000 0.000000 0.055635 0.000000 0.000000
# 5 0.000000 0.000000 0.000000 0.000000 0.055635 0.000000
# 6 0.000000 0.000000 0.000000 0.000000 0.000000 0.047550
#
#
# Mechanical properties :
#
#
# Convention : Reuss Voigt Hill
#
# Bulk Modulus (GPa) = 44.27379 44.60333 44.43856
# Shear Modulus (GPa) = 20.17954 20.68309 20.43132
#
# Velocity S-wave (km/s) = 3.37025 3.41204 3.39121
# Velocity P-wave (km/s) = 6.32972 6.37407 6.35193
#
# Compressibility (1/GPa) = 0.02258673
#
# Stress axis : x y z
#
# Youngs Moduli (GPa) = 55.29369 55.29406 63.14471
#
# Poissons Ratio (x) = 0.43346 0.21693
# Poissons Ratio (y) = 0.43345 0.21693
# Poissons Ratio (z) = 0.18996 0.18996
#
# Static dielectric constant tensor:
#      x y z
#    x 1.585230 0.000000 0.000000 
#    y 0.000000 1.585230 0.000000 
#    z 0.000000 0.000000 1.640290 
# 
# From -- ./inp_files/14660.got.cif
#   From: 2010.05.17/outbox.cif.g08.bks.cpg/sg139_8_cif.got.tgz:14660.got - 2010.05.20 13:14:44.
