data_PCOD9571251
_publ_section_title
;
Structure prediction by ZEFSAII (Michael W. Deem and Ramdas Pophale) SiO2 
 PCOD9571251
Probable space group: I 4/M M M
;
_chemical_formula_sum "Si O2"
_cell_formula_units_Z 168
_cell_length_a 22.352843
_cell_length_b 22.352843
_cell_length_c 22.787275
_cell_angle_alpha 90.000000
_cell_angle_beta 90.000000
_cell_angle_gamma 90.000000
_cell_volume 11385.652615
_symmetry_space_group_name_H-M "I 4/M M M"
_symmetry_group_IT_number 139
_symmetry_cell_setting 'tetragonal'
loop_
_space_group_symop_operation_xyz
x,y,z
-y,x,z
-x,-y,z
y,-x,z
x,-y,-z
-x,y,-z
y,x,-z
-y,-x,-z
-x,-y,-z
y,-x,-z
x,y,-z
-y,x,-z
-x,y,z
x,-y,z
-y,-x,z
y,x,z
1/2+x,1/2+y,1/2+z
1/2-y,1/2+x,1/2+z
1/2-x,1/2-y,1/2+z
1/2+y,1/2-x,1/2+z
1/2+x,1/2-y,1/2-z
1/2-x,1/2+y,1/2-z
1/2+y,1/2+x,1/2-z
1/2-y,1/2-x,1/2-z
1/2-x,1/2-y,1/2-z
1/2+y,1/2-x,1/2-z
1/2+x,1/2+y,1/2-z
1/2-y,1/2+x,1/2-z
1/2-x,1/2+y,1/2+z
1/2+x,1/2-y,1/2+z
1/2-y,1/2-x,1/2+z
1/2+y,1/2+x,1/2+z
loop_
_atom_site_type_symbol
_atom_site_label
_atom_site_fract_x
_atom_site_fract_y
_atom_site_fract_z
Si Si1 0.000000 0.899739 0.372713
Si Si2 0.211968 0.307683 0.652211
Si Si3 0.780414 0.000000 0.310275
Si Si4 0.872997 0.620091 0.931491
Si Si5 0.430611 0.000000 0.071521
Si Si6 0.601191 0.500000 0.000000
Si Si7 0.131038 0.227538 0.738949
Si Si8 0.500000 0.792854 0.932415
O O1 0.057260 0.942741 0.369639
O O2 0.000000 0.850726 0.323644
O O3 0.000000 0.868406 0.437057
O O4 0.261922 0.261922 0.627482
O O5 0.172629 0.342700 0.605304
O O6 0.167116 0.267338 0.691452
O O7 0.245398 0.351534 0.697851
O O8 0.767672 0.938604 0.276044
O O9 0.748070 0.000000 0.374166
O O10 0.939442 0.602586 0.910135
O O11 0.833578 0.559517 0.928339
O O12 0.876670 0.636885 0.000000
O O13 0.500000 0.000000 0.090711
O O14 0.431967 0.000000 0.000000
O O15 0.557057 0.557057 0.000000
O O16 0.161470 0.161470 0.735308
O O17 0.500000 0.767170 0.000000
#
# Coordination Sequence:
#
# PCOD9571251 Si02
#       8
#    16  32  16  32  16   8  32  16
#     4   9  18  30  43  61  89 122 157 200 240 274
#     4   9  18  34  49  64  93 124 155 198 239 279
#     4  12  19  29  51  69  88 121 164 197 232 286
#     4  10  18  31  50  72  96 125 158 190 237 296
#     4   9  16  27  46  69  95 124 151 185 232 281
#     4   7  12  26  42  54  78 122 158 181 228 280
#     4   9  19  33  48  66  88 122 159 195 239 280
#     4  10  20  30  42  69 104 125 149 195 240 275
#
# _framework density 14.755413000000001
#
# number of rings (size 3 to 8) (size 9 to 14) (size 15 to 20)
#    0.000    2.524    2.857    2.286    0.667    1.143 
#    0.000    0.000    0.000    0.000    0.000    0.000 
#    0.000    0.000    0.000    0.000    0.000    0.000 
#
# Total GULP energy -467632.777824 kJ/mol
# GULP energy per Si atom -5567.056879 kJ/mol
# Density = 1.472183 g / cm^3
# Si number density = 14.755413 Si / 1000 Ang^3
#
#
#
# Elastic Constant Matrix: (Units=GPa)
#
#
# Indices 1 2 3 4 5 6 
#
# 1 106.8018 53.6791 47.2651 0.0000 0.0000 0.0000
# 2 53.6791 106.8018 47.2651 0.0000 0.0000 0.0000
# 3 47.2651 47.2651 55.4971 0.0000 0.0000 0.0000
# 4 0.0000 0.0000 0.0000 22.0398 0.0000 0.0000
# 5 0.0000 0.0000 0.0000 0.0000 22.0398 0.0000
# 6 0.0000 0.0000 0.0000 0.0000 0.0000 12.8033
#
#
#
# Elastic Compliance Matrix: (Units=1/GPa)
#
#
# Indices 1 2 3 4 5 6 
#
# 1 0.015664 -0.003160 -0.010649 0.000000 0.000000 0.000000
# 2 -0.003160 0.015664 -0.010649 0.000000 0.000000 0.000000
# 3 -0.010649 -0.010649 0.036159 0.000000 0.000000 0.000000
# 4 0.000000 0.000000 0.000000 0.045372 0.000000 0.000000
# 5 0.000000 0.000000 0.000000 0.000000 0.045372 0.000000
# 6 0.000000 0.000000 0.000000 0.000000 0.000000 0.078105
#
#
# Mechanical properties :
#
#
# Convention : Reuss Voigt Hill
#
# Bulk Modulus (GPa) = 53.85259 62.83547 58.34403
# Shear Modulus (GPa) = 17.15590 19.43600 18.29595
#
# Velocity S-wave (km/s) = 3.41352 3.63328 3.52511
# Velocity P-wave (km/s) = 7.21888 7.76390 7.49634
#
# Compressibility (1/GPa) = 0.01856921
#
# Stress axis : x y z
#
# Youngs Moduli (GPa) = 63.83937 63.83937 27.65592
#
# Poissons Ratio (x) = 0.20173 0.29452
# Poissons Ratio (y) = 0.20173 0.29452
# Poissons Ratio (z) = 0.67986 0.67986
#
# Static dielectric constant tensor:
#      x y z
#    x 1.486610 0.000000 0.000000 
#    y 0.000000 1.486610 0.000000 
#    z 0.000000 0.000000 1.480000 
# 
# From -- ./inp_files/11885.got.cif
#   From: 2010.05.17/outbox.cif.g08.bks.cpg/sg139_6_cif.got.tgz:11885.got - 2010.05.20 13:14:44.
