data_PCOD9571409
_publ_section_title
;
Structure prediction by ZEFSAII (Michael W. Deem and Ramdas Pophale) SiO2 
 PCOD9571409
Probable space group: I 4/M M M
;
_chemical_formula_sum "Si O2"
_cell_formula_units_Z 160
_cell_length_a 32.951778
_cell_length_b 32.951778
_cell_length_c 8.632730
_cell_angle_alpha 90.000000
_cell_angle_beta 90.000000
_cell_angle_gamma 90.000000
_cell_volume 9373.588069
_symmetry_space_group_name_H-M "I 4/M M M"
_symmetry_group_IT_number 139
_symmetry_cell_setting 'tetragonal'
loop_
_space_group_symop_operation_xyz
x,y,z
-y,x,z
-x,-y,z
y,-x,z
x,-y,-z
-x,y,-z
y,x,-z
-y,-x,-z
-x,-y,-z
y,-x,-z
x,y,-z
-y,x,-z
-x,y,z
x,-y,z
-y,-x,z
y,x,z
1/2+x,1/2+y,1/2+z
1/2-y,1/2+x,1/2+z
1/2-x,1/2-y,1/2+z
1/2+y,1/2-x,1/2+z
1/2+x,1/2-y,1/2-z
1/2-x,1/2+y,1/2-z
1/2+y,1/2+x,1/2-z
1/2-y,1/2-x,1/2-z
1/2-x,1/2-y,1/2-z
1/2+y,1/2-x,1/2-z
1/2+x,1/2+y,1/2-z
1/2-y,1/2+x,1/2-z
1/2-x,1/2+y,1/2+z
1/2+x,1/2-y,1/2+z
1/2-y,1/2-x,1/2+z
1/2+y,1/2+x,1/2+z
loop_
_atom_site_type_symbol
_atom_site_label
_atom_site_fract_x
_atom_site_fract_y
_atom_site_fract_z
Si Si1 0.612764 0.453261 0.811047
Si Si2 0.500000 0.753519 0.324901
Si Si3 0.851740 0.500000 0.324290
Si Si4 0.412724 0.241010 0.314175
Si Si5 0.388204 0.679095 0.184780
Si Si6 0.087121 0.348942 0.684284
O O1 0.612753 0.500000 0.758718
O O2 0.573085 0.426916 0.765112
O O3 0.652238 0.427187 0.762936
O O4 0.613037 0.453537 0.000000
O O5 0.500000 0.736754 0.500000
O O6 0.500000 0.802586 0.333615
O O7 0.543032 0.744257 0.250515
O O8 0.867443 0.500000 0.500000
O O9 0.861875 0.457947 0.240493
O O10 0.415594 0.236877 0.500000
O O11 0.384143 0.277803 0.267358
O O12 0.404499 0.196673 0.246126
O O13 0.349750 0.650251 0.211730
O O14 0.391908 0.685512 0.000000
O O15 0.088195 0.348555 0.500000
O O16 0.120179 0.379822 0.750000
#
# Coordination Sequence:
#
# PCOD9571409 Si02
#       6
#    32  16  16  32  32  32
#     4   8  14  24  38  59  88 123 164 211 261 314
#     4   7  14  27  43  67  98 124 152 200 253 298
#     4   9  17  33  53  78 112 145 177 214 252 293
#     4  10  19  32  50  73 100 131 169 213 260 311
#     4   9  18  31  45  65  95 129 166 212 265 322
#     4  11  21  35  56  83 113 146 179 213 256 302
#
# _framework density 17.069237000000001
#
# number of rings (size 3 to 8) (size 9 to 14) (size 15 to 20)
#    0.000    2.800    0.000    5.100    1.400    0.600 
#    0.000    2.000    0.000    0.900    0.000    2.100 
#    0.000    0.000    0.000    4.400    0.000    4.400 
#
# Total GULP energy -445546.317000 kJ/mol
# GULP energy per Si atom -5569.328962 kJ/mol
# Density = 1.703039 g / cm^3
# Si number density = 17.069237 Si / 1000 Ang^3
#
#
#
# Elastic Constant Matrix: (Units=GPa)
#
#
# Indices 1 2 3 4 5 6 
#
# 1 107.2583 60.3411 48.2760 0.0000 0.0000 0.0000
# 2 60.3411 107.2599 48.2757 0.0000 0.0000 0.0000
# 3 48.2760 48.2757 79.5207 0.0000 0.0000 0.0000
# 4 0.0000 0.0000 0.0000 16.4728 0.0000 0.0000
# 5 0.0000 0.0000 0.0000 0.0000 16.4723 0.0000
# 6 0.0000 0.0000 0.0000 0.0000 0.0000 10.8014
#
#
#
# Elastic Compliance Matrix: (Units=1/GPa)
#
#
# Indices 1 2 3 4 5 6 
#
# 1 0.015245 -0.006069 -0.005571 0.000000 0.000000 0.000000
# 2 -0.006069 0.015244 -0.005570 0.000000 0.000000 0.000000
# 3 -0.005571 -0.005570 0.019339 0.000000 0.000000 0.000000
# 4 0.000000 0.000000 0.000000 0.060706 0.000000 0.000000
# 5 0.000000 0.000000 0.000000 0.000000 0.060708 0.000000
# 6 0.000000 0.000000 0.000000 0.000000 0.000000 0.092581
#
#
# Mechanical properties :
#
#
# Convention : Reuss Voigt Hill
#
# Bulk Modulus (GPa) = 64.89955 67.53605 66.21780
# Shear Modulus (GPa) = 16.48104 17.89235 17.18670
#
# Velocity S-wave (km/s) = 3.11069 3.24114 3.17658
# Velocity P-wave (km/s) = 7.14183 7.32519 7.23409
#
# Compressibility (1/GPa) = 0.01540843
#
# Stress axis : x y z
#
# Youngs Moduli (GPa) = 65.59582 65.59743 51.70973
#
# Poissons Ratio (x) = 0.39812 0.28805
# Poissons Ratio (y) = 0.39811 0.28803
# Poissons Ratio (z) = 0.36540 0.36539
#
# Static dielectric constant tensor:
#      x y z
#    x 1.583030 0.000000 0.000000 
#    y 0.000000 1.583030 0.000000 
#    z 0.000000 0.000000 1.586280 
# 
# From -- ./inp_files/2187.got.cif
#   From: 2010.05.17/outbox.cif.g08.bks.cpg/sg139_2_cif.got.tgz:2187.got - 2010.05.20 13:14:44.
