data_PCOD9571018
_publ_section_title
;
Structure prediction by ZEFSAII (Michael W. Deem and Ramdas Pophale) SiO2 
 PCOD9571018
Probable space group: P 42/N C M
;
_chemical_formula_sum "Si O2"
_cell_formula_units_Z 64
_cell_length_a 11.505859
_cell_length_b 11.505859
_cell_length_c 23.093508
_cell_angle_alpha 90.000000
_cell_angle_beta 90.000000
_cell_angle_gamma 90.000000
_cell_volume 3057.229238
_symmetry_space_group_name_H-M "P 42/N C M"
_symmetry_group_IT_number 138
_space_group.IT_coordinate_system_code '2'
_symmetry_cell_setting 'tetragonal'
loop_
_space_group_symop_operation_xyz
x,y,z
1/2-y,x,1/2+z
1/2-x,1/2-y,z
y,1/2-x,1/2+z
1/2+x,-y,1/2-z
-x,1/2+y,1/2-z
1/2+y,1/2+x,-z
-y,-x,-z
-x,-y,-z
1/2+y,-x,1/2-z
1/2+x,1/2+y,-z
-y,1/2+x,1/2-z
1/2-x,y,1/2+z
x,1/2-y,1/2+z
1/2-y,1/2-x,z
y,x,z
loop_
_atom_site_type_symbol
_atom_site_label
_atom_site_fract_x
_atom_site_fract_y
_atom_site_fract_z
Si Si1 0.808014 0.417095 0.670254
Si Si2 0.551631 0.132071 0.123988
Si Si3 0.982830 0.712107 0.274002
Si Si4 0.640228 0.455328 0.940785
O O1 0.804819 0.520269 0.825003
O O2 0.684332 0.372702 0.645971
O O3 0.769555 0.523500 0.710895
O O4 0.888955 0.345045 0.715556
O O5 0.544676 0.222855 0.071414
O O6 0.491704 0.008297 0.112885
O O7 0.111643 0.580399 0.386521
O O8 0.887687 0.612314 0.280657
O O9 0.582637 0.582637 0.942628
O O10 0.608006 0.391995 0.000000
#
# Coordination Sequence:
#
# PCOD9571018 Si02
#       4
#    16  16  16  16
#     4  11  21  36  61  89 121 160 200 244 297 361
#     4  11  23  37  61  93 124 157 199 253 308 363
#     4  11  22  36  58  88 124 162 200 246 305 366
#     4  10  23  43  65  86 115 162 212 254 306 366
#
# _framework density 20.933987999999999
#
# number of rings (size 3 to 8) (size 9 to 14) (size 15 to 20)
#    0.000    1.250    2.500    6.750    0.000    5.000 
#    0.000    3.750    0.000   12.000    0.000    0.000 
#    0.000    0.000    0.000    0.000    0.000    0.000 
#
# Total GULP energy -356867.426578 kJ/mol
# GULP energy per Si atom -5576.053540 kJ/mol
# Density = 2.088634 g / cm^3
# Si number density = 20.933988 Si / 1000 Ang^3
#
#
#
# Elastic Constant Matrix: (Units=GPa)
#
#
# Indices 1 2 3 4 5 6 
#
# 1 63.1099 48.8385 -5.2973 0.0000 0.0000 0.0000
# 2 48.8385 63.1100 -5.2975 0.0000 0.0000 0.0000
# 3 -5.2973 -5.2975 82.4945 0.0000 0.0000 0.0000
# 4 0.0000 0.0000 0.0000 15.4186 0.0000 0.0000
# 5 0.0000 0.0000 0.0000 0.0000 15.4178 0.0000
# 6 0.0000 0.0000 0.0000 0.0000 0.0000 29.2125
#
#
#
# Elastic Compliance Matrix: (Units=1/GPa)
#
#
# Indices 1 2 3 4 5 6 
#
# 1 0.039529 -0.030541 0.000577 0.000000 0.000000 0.000000
# 2 -0.030541 0.039529 0.000577 0.000000 0.000000 0.000000
# 3 0.000577 0.000577 0.012196 0.000000 0.000000 0.000000
# 4 0.000000 0.000000 0.000000 0.064857 0.000000 0.000000
# 5 0.000000 0.000000 0.000000 0.000000 0.064860 0.000000
# 6 0.000000 0.000000 0.000000 0.000000 0.000000 0.034232
#
#
# Mechanical properties :
#
#
# Convention : Reuss Voigt Hill
#
# Bulk Modulus (GPa) = 30.78890 31.68908 31.23899
# Shear Modulus (GPa) = 15.39393 23.37448 19.38421
#
# Velocity S-wave (km/s) = 2.71469 3.34515 3.04627
# Velocity P-wave (km/s) = 4.95637 5.48548 5.22762
#
# Compressibility (1/GPa) = 0.03247924
#
# Stress axis : x y z
#
# Youngs Moduli (GPa) = 25.29804 25.29808 81.99313
#
# Poissons Ratio (x) = 0.77264 -0.04732
# Poissons Ratio (y) = 0.77264 -0.04733
# Poissons Ratio (z) = -0.01460 -0.01460
#
# Static dielectric constant tensor:
#      x y z
#    x 1.797070 0.000000 0.000000 
#    y 0.000000 1.797070 0.000000 
#    z 0.000000 0.000000 1.751360 
# 
# From -- ./inp_files/6752.got.cif
#   From: 2010.05.17/outbox.cif.g08.bks.cpg/sg138_4_cif.got.tgz:6752.got - 2010.05.20 13:08:53.
