data_PCOD9571249
_publ_section_title
;
Structure prediction by ZEFSAII (Michael W. Deem and Ramdas Pophale) SiO2 
 PCOD9571249
Probable space group: I 4/M M M
;
_chemical_formula_sum "Si O2"
_cell_formula_units_Z 176
_cell_length_a 26.895670
_cell_length_b 26.895670
_cell_length_c 14.868682
_cell_angle_alpha 90.000000
_cell_angle_beta 90.000000
_cell_angle_gamma 90.000000
_cell_volume 10755.663542
_symmetry_space_group_name_H-M "I 4/M M M"
_symmetry_group_IT_number 139
_symmetry_cell_setting 'tetragonal'
loop_
_space_group_symop_operation_xyz
x,y,z
-y,x,z
-x,-y,z
y,-x,z
x,-y,-z
-x,y,-z
y,x,-z
-y,-x,-z
-x,-y,-z
y,-x,-z
x,y,-z
-y,x,-z
-x,y,z
x,-y,z
-y,-x,z
y,x,z
1/2+x,1/2+y,1/2+z
1/2-y,1/2+x,1/2+z
1/2-x,1/2-y,1/2+z
1/2+y,1/2-x,1/2+z
1/2+x,1/2-y,1/2-z
1/2-x,1/2+y,1/2-z
1/2+y,1/2+x,1/2-z
1/2-y,1/2-x,1/2-z
1/2-x,1/2-y,1/2-z
1/2+y,1/2-x,1/2-z
1/2+x,1/2+y,1/2-z
1/2-y,1/2+x,1/2-z
1/2-x,1/2+y,1/2+z
1/2+x,1/2-y,1/2+z
1/2-y,1/2-x,1/2+z
1/2+y,1/2+x,1/2+z
loop_
_atom_site_type_symbol
_atom_site_label
_atom_site_fract_x
_atom_site_fract_y
_atom_site_fract_z
Si Si1 0.843655 0.843655 0.399818
Si Si2 0.635580 0.364421 0.718734
Si Si3 0.109365 0.264971 0.397984
Si Si4 0.312255 0.556067 0.398676
Si Si5 0.807532 0.650433 0.396352
Si Si6 0.711886 0.943611 0.214628
Si Si7 0.217969 0.217969 0.821666
O O1 0.858315 0.858315 0.500000
O O2 0.872855 0.872855 0.323260
O O3 0.857948 0.785483 0.390445
O O4 0.588958 0.344683 0.665953
O O5 0.678339 0.321662 0.716291
O O6 0.087980 0.265291 0.500000
O O7 0.147088 0.311016 0.390033
O O8 0.071411 0.269720 0.314838
O O9 0.310170 0.576447 0.500000
O O10 0.331077 0.500000 0.402652
O O11 0.258403 0.554705 0.353381
O O12 0.804102 0.633041 0.500000
O O13 0.815846 0.604440 0.327933
O O14 0.758170 0.683272 0.373402
O O15 0.690050 0.000000 0.215646
O O16 0.250000 0.250000 0.750000
#
# Coordination Sequence:
#
# PCOD9571249 Si02
#       7
#    16  16  32  32  32  32  16
#     4  10  18  31  49  74 104 132 164 202 240 282
#     4  12  19  32  54  69  94 134 167 208 253 293
#     4  10  20  34  51  72  99 133 167 203 245 288
#     4  10  21  34  48  70  98 128 166 209 251 298
#     4  11  21  32  49  72 100 132 165 201 243 292
#     4  11  21  33  48  67  99 136 167 205 241 286
#     4  12  21  29  46  70 102 133 166 204 229 283
#
# _framework density 16.363472000000002
#
# number of rings (size 3 to 8) (size 9 to 14) (size 15 to 20)
#    0.000    1.273    3.636    4.364    0.000    3.636 
#    0.000    0.000    0.000    0.818    0.000    1.273 
#    0.000    5.818    0.000   16.818    0.000    0.091 
#
# Total GULP energy -490371.851751 kJ/mol
# GULP energy per Si atom -5572.407406 kJ/mol
# Density = 1.632623 g / cm^3
# Si number density = 16.363472 Si / 1000 Ang^3
#
#
#
# Elastic Constant Matrix: (Units=GPa)
#
#
# Indices 1 2 3 4 5 6 
#
# 1 50.1316 5.9301 34.3831 0.0000 0.0000 0.0000
# 2 5.9301 50.1316 34.3831 0.0000 0.0000 0.0000
# 3 34.3831 34.3831 151.5646 0.0000 0.0000 0.0000
# 4 0.0000 0.0000 0.0000 25.5834 0.0000 0.0000
# 5 0.0000 0.0000 0.0000 0.0000 25.5834 0.0000
# 6 0.0000 0.0000 0.0000 0.0000 0.0000 8.3476
#
#
#
# Elastic Compliance Matrix: (Units=1/GPa)
#
#
# Indices 1 2 3 4 5 6 
#
# 1 0.023669 0.001046 -0.005607 0.000000 0.000000 0.000000
# 2 0.001046 0.023669 -0.005607 0.000000 0.000000 0.000000
# 3 -0.005607 -0.005607 0.009142 0.000000 0.000000 0.000000
# 4 0.000000 0.000000 0.000000 0.039088 0.000000 0.000000
# 5 0.000000 0.000000 0.000000 0.000000 0.039088 0.000000
# 6 0.000000 0.000000 0.000000 0.000000 0.000000 0.119795
#
#
# Mechanical properties :
#
#
# Convention : Reuss Voigt Hill
#
# Bulk Modulus (GPa) = 27.66674 44.58004 36.12339
# Shear Modulus (GPa) = 17.43169 23.71167 20.57168
#
# Velocity S-wave (km/s) = 3.26740 3.81078 3.54951
# Velocity P-wave (km/s) = 5.58381 6.83122 6.23877
#
# Compressibility (1/GPa) = 0.03614448
#
# Stress axis : x y z
#
# Youngs Moduli (GPa) = 42.24902 42.24902 109.38970
#
# Poissons Ratio (x) = -0.04417 0.61331
# Poissons Ratio (y) = -0.04417 0.61331
# Poissons Ratio (z) = 0.23688 0.23688
#
# Static dielectric constant tensor:
#      x y z
#    x 1.555140 0.000000 0.000000 
#    y 0.000000 1.555140 0.000000 
#    z 0.000000 0.000000 1.621890 
# 
# From -- ./inp_files/6433.got.cif
#   From: 2010.05.17/outbox.cif.g08.bks.cpg/sg139_4_cif.got.tgz:6433.got - 2010.05.20 13:14:44.
