data_PCOD9571599
_publ_section_title
;
Structure prediction by ZEFSAII (Michael W. Deem and Ramdas Pophale) SiO2 
 PCOD9571599
Probable space group: I 4/M M M
;
_chemical_formula_sum "Si O2"
_cell_formula_units_Z 176
_cell_length_a 19.848031
_cell_length_b 19.848031
_cell_length_c 28.069610
_cell_angle_alpha 90.000000
_cell_angle_beta 90.000000
_cell_angle_gamma 90.000000
_cell_volume 11057.863833
_symmetry_space_group_name_H-M "I 4/M M M"
_symmetry_group_IT_number 139
_symmetry_cell_setting 'tetragonal'
loop_
_space_group_symop_operation_xyz
x,y,z
-y,x,z
-x,-y,z
y,-x,z
x,-y,-z
-x,y,-z
y,x,-z
-y,-x,-z
-x,-y,-z
y,-x,-z
x,y,-z
-y,x,-z
-x,y,z
x,-y,z
-y,-x,z
y,x,z
1/2+x,1/2+y,1/2+z
1/2-y,1/2+x,1/2+z
1/2-x,1/2-y,1/2+z
1/2+y,1/2-x,1/2+z
1/2+x,1/2-y,1/2-z
1/2-x,1/2+y,1/2-z
1/2+y,1/2+x,1/2-z
1/2-y,1/2-x,1/2-z
1/2-x,1/2-y,1/2-z
1/2+y,1/2-x,1/2-z
1/2+x,1/2+y,1/2-z
1/2-y,1/2+x,1/2-z
1/2-x,1/2+y,1/2+z
1/2+x,1/2-y,1/2+z
1/2-y,1/2-x,1/2+z
1/2+y,1/2+x,1/2+z
loop_
_atom_site_type_symbol
_atom_site_label
_atom_site_fract_x
_atom_site_fract_y
_atom_site_fract_z
Si Si1 0.270100 0.158152 0.635993
Si Si2 0.500000 0.873509 0.444199
Si Si3 0.691969 0.419980 0.214128
Si Si4 0.500000 0.388120 0.555939
Si Si5 0.421866 0.850120 0.055973
Si Si6 0.869046 0.757442 0.813245
Si Si7 0.500000 0.257708 0.378854
O O1 0.215945 0.215945 0.622005
O O2 0.230023 0.102057 0.666041
O O3 0.309030 0.126244 0.591393
O O4 0.323068 0.194279 0.671731
O O5 0.500000 0.854533 0.500000
O O6 0.430405 0.913056 0.435607
O O7 0.500000 0.807857 0.411759
O O8 0.682786 0.500000 0.217639
O O9 0.622007 0.377994 0.215948
O O10 0.736128 0.392663 0.258674
O O11 0.564844 0.435157 0.564842
O O12 0.500000 0.370310 0.500000
O O13 0.500000 0.323327 0.588337
O O14 0.500000 0.832081 0.063981
O O15 0.406057 0.837950 0.000000
O O16 0.822732 0.822732 0.822731
O O17 0.934312 0.757830 0.846071
#
# Coordination Sequence:
#
# PCOD9571599 Si02
#       7
#    32  16  32  16  32  32  16
#     4  10  20  35  54  76 102 133 168 206 252 304
#     4  10  20  33  50  75 104 136 171 210 253 299
#     4  10  20  35  54  76 102 133 168 206 252 304
#     4   9  19  34  48  66  99 147 195 228 258 297
#     4  10  20  35  54  76 102 133 168 206 252 304
#     4  10  20  33  50  75 104 136 171 210 253 299
#     4  12  18  31  52  75 105 132 177 222 255 297
#
# _framework density 15.916275000000001
#
# number of rings (size 3 to 8) (size 9 to 14) (size 15 to 20)
#    0.000    1.909    2.727    2.455    0.000    3.818 
#    0.000    0.000    0.000    0.000    0.000    0.000 
#    0.000    0.000    0.000   16.909    0.000    0.000 
#
# Total GULP energy -490781.586424 kJ/mol
# GULP energy per Si atom -5577.063482 kJ/mol
# Density = 1.588005 g / cm^3
# Si number density = 15.916275 Si / 1000 Ang^3
#
#
#
# Elastic Constant Matrix: (Units=GPa)
#
#
# Indices 1 2 3 4 5 6 
#
# 1 97.6595 37.8579 56.8418 0.0000 0.0000 0.0000
# 2 37.8579 97.6595 56.8418 0.0000 0.0000 0.0000
# 3 56.8418 56.8418 78.6914 0.0000 0.0000 0.0000
# 4 0.0000 0.0000 0.0000 29.9020 0.0000 0.0000
# 5 0.0000 0.0000 0.0000 0.0000 29.9020 0.0000
# 6 0.0000 0.0000 0.0000 0.0000 0.0000 10.9202
#
#
#
# Elastic Compliance Matrix: (Units=1/GPa)
#
#
# Indices 1 2 3 4 5 6 
#
# 1 0.017724 0.001002 -0.013527 0.000000 0.000000 0.000000
# 2 0.001002 0.017724 -0.013527 0.000000 0.000000 0.000000
# 3 -0.013527 -0.013527 0.032250 0.000000 0.000000 0.000000
# 4 0.000000 0.000000 0.000000 0.033443 0.000000 0.000000
# 5 0.000000 0.000000 0.000000 0.000000 0.033443 0.000000
# 6 0.000000 0.000000 0.000000 0.000000 0.000000 0.091573
#
#
# Mechanical properties :
#
#
# Convention : Reuss Voigt Hill
#
# Bulk Modulus (GPa) = 64.12150 64.12150 64.12150
# Shear Modulus (GPa) = 17.63923 22.30943 19.97433
#
# Velocity S-wave (km/s) = 3.33265 3.74796 3.54639
# Velocity P-wave (km/s) = 7.42852 7.68790 7.55932
#
# Compressibility (1/GPa) = 0.01559539
#
# Stress axis : x y z
#
# Youngs Moduli (GPa) = 56.41945 56.41945 31.00763
#
# Poissons Ratio (x) = -0.05656 0.41944
# Poissons Ratio (y) = -0.05656 0.41944
# Poissons Ratio (z) = 0.76319 0.76319
#
# Static dielectric constant tensor:
#      x y z
#    x 1.513480 0.000000 0.000000 
#    y 0.000000 1.513480 0.000000 
#    z 0.000000 0.000000 1.513480 
# 
# From -- ./inp_files/13180.got.cif
#   From: 2010.05.17/outbox.cif.g08.bks.cpg/sg139_7_cif.got.tgz:13180.got - 2010.05.20 13:14:44.
