data_PCOD9571421
_publ_section_title
;
Structure prediction by ZEFSAII (Michael W. Deem and Ramdas Pophale) SiO2 
 PCOD9571421
Probable space group: I 4/M M M
;
_chemical_formula_sum "Si O2"
_cell_formula_units_Z 160
_cell_length_a 33.027367
_cell_length_b 33.027367
_cell_length_c 8.708582
_cell_angle_alpha 90.000000
_cell_angle_beta 90.000000
_cell_angle_gamma 90.000000
_cell_volume 9499.381953
_symmetry_space_group_name_H-M "I 4/M M M"
_symmetry_group_IT_number 139
_symmetry_cell_setting 'tetragonal'
loop_
_space_group_symop_operation_xyz
x,y,z
-y,x,z
-x,-y,z
y,-x,z
x,-y,-z
-x,y,-z
y,x,-z
-y,-x,-z
-x,-y,-z
y,-x,-z
x,y,-z
-y,x,-z
-x,y,z
x,-y,z
-y,-x,z
y,x,z
1/2+x,1/2+y,1/2+z
1/2-y,1/2+x,1/2+z
1/2-x,1/2-y,1/2+z
1/2+y,1/2-x,1/2+z
1/2+x,1/2-y,1/2-z
1/2-x,1/2+y,1/2-z
1/2+y,1/2+x,1/2-z
1/2-y,1/2-x,1/2-z
1/2-x,1/2-y,1/2-z
1/2+y,1/2-x,1/2-z
1/2+x,1/2+y,1/2-z
1/2-y,1/2+x,1/2-z
1/2-x,1/2+y,1/2+z
1/2+x,1/2-y,1/2+z
1/2-y,1/2-x,1/2+z
1/2+y,1/2+x,1/2+z
loop_
_atom_site_type_symbol
_atom_site_label
_atom_site_fract_x
_atom_site_fract_y
_atom_site_fract_z
Si Si1 0.756464 0.411950 0.815456
Si Si2 0.000000 0.340278 0.818166
Si Si3 0.246278 0.500000 0.178911
Si Si4 0.546937 0.613156 0.185471
Si Si5 0.609348 0.676636 0.681631
Si Si6 0.653532 0.909554 0.181756
O O1 0.741976 0.456605 0.756420
O O2 0.720178 0.384145 0.758869
O O3 0.801352 0.404496 0.751366
O O4 0.758742 0.412708 0.000000
O O5 0.956373 0.360435 0.791983
O O6 0.000000 0.302027 0.704703
O O7 0.000000 0.327324 0.000000
O O8 0.257566 0.500000 0.000000
O O9 0.500000 0.611590 0.234909
O O10 0.573277 0.573277 0.228713
O O11 0.571335 0.651629 0.249876
O O12 0.547315 0.615751 0.000000
O O13 0.603693 0.681656 0.500000
O O14 0.647687 0.647687 0.708527
O O15 0.622129 0.877871 0.250000
O O16 0.656463 0.903636 0.000000
#
# Coordination Sequence:
#
# PCOD9571421 Si02
#       6
#    32  16  16  32  32  32
#     4  10  19  32  51  75 101 130 165 206 253 303
#     4   8  16  30  48  71 103 138 169 201 239 284
#     4   8  16  28  44  70  99 123 153 197 245 296
#     4   9  18  32  49  69  94 126 166 212 261 313
#     4  10  21  35  49  68  96 130 167 208 256 311
#     4  10  19  33  53  79 109 140 173 209 249 292
#
# _framework density 16.843201000000001
#
# number of rings (size 3 to 8) (size 9 to 14) (size 15 to 20)
#    0.000    2.600    0.000    1.800    1.400    3.400 
#    0.000    1.000    0.000    0.900    0.000    4.900 
#    0.000    0.000    0.000    0.000    0.000    0.000 
#
# Total GULP energy -445415.525743 kJ/mol
# GULP energy per Si atom -5567.694072 kJ/mol
# Density = 1.680487 g / cm^3
# Si number density = 16.843201 Si / 1000 Ang^3
#
#
#
# Elastic Constant Matrix: (Units=GPa)
#
#
# Indices 1 2 3 4 5 6 
#
# 1 104.7080 63.5884 45.9978 0.0000 0.0000 0.0000
# 2 63.5884 104.7080 45.9978 0.0000 0.0000 0.0000
# 3 45.9978 45.9978 42.1371 0.0000 0.0000 0.0000
# 4 0.0000 0.0000 0.0000 20.4613 0.0000 0.0000
# 5 0.0000 0.0000 0.0000 0.0000 20.4613 0.0000
# 6 0.0000 0.0000 0.0000 0.0000 0.0000 12.1808
#
#
#
# Elastic Compliance Matrix: (Units=1/GPa)
#
#
# Indices 1 2 3 4 5 6 
#
# 1 0.019526 -0.004793 -0.016084 0.000000 0.000000 0.000000
# 2 -0.004793 0.019526 -0.016084 0.000000 0.000000 0.000000
# 3 -0.016084 -0.016084 0.058846 0.000000 0.000000 0.000000
# 4 0.000000 0.000000 0.000000 0.048873 0.000000 0.000000
# 5 0.000000 0.000000 0.000000 0.000000 0.048873 0.000000
# 6 0.000000 0.000000 0.000000 0.000000 0.000000 0.082096
#
#
# Mechanical properties :
#
#
# Convention : Reuss Voigt Hill
#
# Bulk Modulus (GPa) = 41.70245 62.52456 52.11350
# Shear Modulus (GPa) = 13.90225 17.01863 15.46044
#
# Velocity S-wave (km/s) = 2.87608 3.18215 3.03298
# Velocity P-wave (km/s) = 5.98683 7.12064 6.57821
#
# Compressibility (1/GPa) = 0.02397941
#
# Stress axis : x y z
#
# Youngs Moduli (GPa) = 51.21255 51.21255 16.99341
#
# Poissons Ratio (x) = 0.24545 0.27331
# Poissons Ratio (y) = 0.24545 0.27331
# Poissons Ratio (z) = 0.82368 0.82368
#
# Static dielectric constant tensor:
#      x y z
#    x 1.580420 0.000000 0.000000 
#    y 0.000000 1.580420 0.000000 
#    z 0.000000 0.000000 1.575730 
# 
# From -- ./inp_files/2237.got.cif
#   From: 2010.05.17/outbox.cif.g08.bks.cpg/sg139_2_cif.got.tgz:2237.got - 2010.05.20 13:14:44.
