data_PCOD9571501
_publ_section_title
;
Structure prediction by ZEFSAII (Michael W. Deem and Ramdas Pophale) SiO2 
 PCOD9571501
Probable space group: I 4/M M M
;
_chemical_formula_sum "Si O2"
_cell_formula_units_Z 144
_cell_length_a 29.841100
_cell_length_b 29.841100
_cell_length_c 7.969561
_cell_angle_alpha 90.000000
_cell_angle_beta 90.000000
_cell_angle_gamma 90.000000
_cell_volume 7096.824331
_symmetry_space_group_name_H-M "I 4/M M M"
_symmetry_group_IT_number 139
_symmetry_cell_setting 'tetragonal'
loop_
_space_group_symop_operation_xyz
x,y,z
-y,x,z
-x,-y,z
y,-x,z
x,-y,-z
-x,y,-z
y,x,-z
-y,-x,-z
-x,-y,-z
y,-x,-z
x,y,-z
-y,x,-z
-x,y,z
x,-y,z
-y,-x,z
y,x,z
1/2+x,1/2+y,1/2+z
1/2-y,1/2+x,1/2+z
1/2-x,1/2-y,1/2+z
1/2+y,1/2-x,1/2+z
1/2+x,1/2-y,1/2-z
1/2-x,1/2+y,1/2-z
1/2+y,1/2+x,1/2-z
1/2-y,1/2-x,1/2-z
1/2-x,1/2-y,1/2-z
1/2+y,1/2-x,1/2-z
1/2+x,1/2+y,1/2-z
1/2-y,1/2+x,1/2-z
1/2-x,1/2+y,1/2+z
1/2+x,1/2-y,1/2+z
1/2-y,1/2-x,1/2+z
1/2+y,1/2+x,1/2+z
loop_
_atom_site_type_symbol
_atom_site_label
_atom_site_fract_x
_atom_site_fract_y
_atom_site_fract_z
Si Si1 0.820876 0.752574 0.798245
Si Si2 0.419327 0.776167 0.295945
Si Si3 0.949157 0.375458 0.797684
Si Si4 0.945494 0.126085 0.000000
Si Si5 0.551834 0.682264 0.817550
O O1 0.799577 0.799577 0.737608
O O2 0.785290 0.714711 0.750000
O O3 0.869180 0.736672 0.739346
O O4 0.823481 0.754974 0.000000
O O5 0.421683 0.775471 0.500000
O O6 0.433941 0.825721 0.240614
O O7 0.447535 0.734820 0.226747
O O8 0.913338 0.413338 0.750000
O O9 0.000000 0.384763 0.738556
O O10 0.950224 0.373944 0.000000
O O11 0.929436 0.154173 0.837643
O O12 0.921968 0.078033 0.000000
O O13 0.000000 0.123650 0.000000
O O14 0.500000 0.668554 0.827802
O O15 0.572954 0.674755 0.000000
#
# Coordination Sequence:
#
# PCOD9571501 Si02
#       5
#    32  32  32  16  32
#     4   9  18  31  47  70 103 143 184 227 278 337
#     4  10  19  34  56  83 114 153 194 244 298 364
#     4  10  22  38  57  81 111 151 201 257 319 384
#     4  10  22  41  64  90 126 166 205 259 311 359
#     4  10  21  37  59  88 120 156 197 244 303 361
#
# _framework density 20.290765
#
# number of rings (size 3 to 8) (size 9 to 14) (size 15 to 20)
#    0.000    2.222    1.111    1.333    0.000    4.778 
#    0.000    1.111    0.000    0.000    0.000    3.111 
#    0.000    0.000    0.000    0.000    0.000    0.000 
#
# Total GULP energy -401579.299591 kJ/mol
# GULP energy per Si atom -5577.490272 kJ/mol
# Density = 2.024458 g / cm^3
# Si number density = 20.290765 Si / 1000 Ang^3
#
#
#
# Elastic Constant Matrix: (Units=GPa)
#
#
# Indices 1 2 3 4 5 6 
#
# 1 97.2714 41.9942 39.1742 0.0000 0.0000 0.0000
# 2 41.9942 97.2832 39.1830 0.0000 0.0000 0.0000
# 3 39.1742 39.1830 71.6533 0.0000 0.0000 0.0000
# 4 0.0000 0.0000 0.0000 2.6319 0.0000 0.0000
# 5 0.0000 0.0000 0.0000 0.0000 2.6293 0.0000
# 6 0.0000 0.0000 0.0000 0.0000 0.0000 33.7439
#
#
#
# Elastic Compliance Matrix: (Units=1/GPa)
#
#
# Indices 1 2 3 4 5 6 
#
# 1 0.014230 -0.003859 -0.005669 0.000000 0.000000 0.000000
# 2 -0.003859 0.014229 -0.005671 0.000000 0.000000 0.000000
# 3 -0.005669 -0.005671 0.020157 0.000000 0.000000 0.000000
# 4 0.000000 0.000000 0.000000 0.379959 0.000000 0.000000
# 5 0.000000 0.000000 0.000000 0.000000 0.380324 0.000000
# 6 0.000000 0.000000 0.000000 0.000000 0.000000 0.029635
#
#
# Mechanical properties :
#
#
# Convention : Reuss Voigt Hill
#
# Bulk Modulus (GPa) = 54.89541 56.32342 55.60941
# Shear Modulus (GPa) = 5.71425 17.52478 11.61951
#
# Velocity S-wave (km/s) = 1.67997 2.94204 2.39561
# Velocity P-wave (km/s) = 5.55663 6.27369 5.92602
#
# Compressibility (1/GPa) = 0.01821646
#
# Stress axis : x y z
#
# Youngs Moduli (GPa) = 70.27503 70.27700 49.61058
#
# Poissons Ratio (x) = 0.27121 0.28126
# Poissons Ratio (y) = 0.27120 0.28136
# Poissons Ratio (z) = 0.39842 0.39857
#
# Static dielectric constant tensor:
#      x y z
#    x 1.747180 0.000000 0.000000 
#    y 0.000000 1.747180 0.000000 
#    z 0.000000 0.000000 1.821500 
# 
# From -- ./inp_files/1978.got.cif
#   From: 2010.05.17/outbox.cif.g08.bks.cpg/sg139_1_cif.got.tgz:1978.got - 2010.05.20 13:14:44.
