data_PCOD9571592
_publ_section_title
;
Structure prediction by ZEFSAII (Michael W. Deem and Ramdas Pophale) SiO2 
 PCOD9571592
Probable space group: I 4/M M M
;
_chemical_formula_sum "Si O2"
_cell_formula_units_Z 144
_cell_length_a 23.205662
_cell_length_b 23.205662
_cell_length_c 17.842570
_cell_angle_alpha 90.000000
_cell_angle_beta 90.000000
_cell_angle_gamma 90.000000
_cell_volume 9608.272992
_symmetry_space_group_name_H-M "I 4/M M M"
_symmetry_group_IT_number 139
_symmetry_cell_setting 'tetragonal'
loop_
_space_group_symop_operation_xyz
x,y,z
-y,x,z
-x,-y,z
y,-x,z
x,-y,-z
-x,y,-z
y,x,-z
-y,-x,-z
-x,-y,-z
y,-x,-z
x,y,-z
-y,x,-z
-x,y,z
x,-y,z
-y,-x,z
y,x,z
1/2+x,1/2+y,1/2+z
1/2-y,1/2+x,1/2+z
1/2-x,1/2-y,1/2+z
1/2+y,1/2-x,1/2+z
1/2+x,1/2-y,1/2-z
1/2-x,1/2+y,1/2-z
1/2+y,1/2+x,1/2-z
1/2-y,1/2-x,1/2-z
1/2-x,1/2-y,1/2-z
1/2+y,1/2-x,1/2-z
1/2+x,1/2+y,1/2-z
1/2-y,1/2+x,1/2-z
1/2-x,1/2+y,1/2+z
1/2+x,1/2-y,1/2+z
1/2-y,1/2-x,1/2+z
1/2+y,1/2+x,1/2+z
loop_
_atom_site_type_symbol
_atom_site_label
_atom_site_fract_x
_atom_site_fract_y
_atom_site_fract_z
Si Si1 0.250895 0.842902 0.784198
Si Si2 0.230842 0.866737 0.375636
Si Si3 0.067156 0.836426 0.500000
Si Si4 0.639109 0.833019 0.585629
Si Si5 0.931224 0.566608 0.161869
O O1 0.195394 0.804607 0.805189
O O2 0.297822 0.797822 0.750000
O O3 0.236316 0.882126 0.712332
O O4 0.281330 0.870991 0.855390
O O5 0.190052 0.809949 0.378917
O O6 0.200837 0.913763 0.427665
O O7 0.293571 0.850345 0.406504
O O8 0.106451 0.893550 0.500000
O O9 0.000000 0.848627 0.500000
O O10 0.626763 0.817620 0.500000
O O11 0.602390 0.887995 0.611870
O O12 0.914403 0.500000 0.147791
O O13 0.920524 0.579477 0.250000
O O14 0.000000 0.570711 0.150339
#
# Coordination Sequence:
#
# PCOD9571592 Si02
#       5
#    32  32  16  32  32
#     4   8  15  27  44  64  88 117 146 176 221 272
#     4   9  17  31  47  66  94 121 148 189 230 267
#     4  10  20  33  50  72  99 127 153 187 231 277
#     4  11  19  27  44  68  91 117 149 192 232 280
#     4   9  19  35  49  58  75 110 155 200 241 277
#
# _framework density 14.987085
#
# number of rings (size 3 to 8) (size 9 to 14) (size 15 to 20)
#    0.000    2.667    1.111    4.667    0.000    3.222 
#    0.000    2.222    0.000    0.000    0.000    0.000 
#    0.000    0.000    0.000    0.000    0.000    0.222 
#
# Total GULP energy -401154.620996 kJ/mol
# GULP energy per Si atom -5571.591958 kJ/mol
# Density = 1.495297 g / cm^3
# Si number density = 14.987085 Si / 1000 Ang^3
#
#
#
# Elastic Constant Matrix: (Units=GPa)
#
#
# Indices 1 2 3 4 5 6 
#
# 1 45.4502 19.7789 49.1977 0.0000 0.0000 0.0000
# 2 19.7789 45.4499 49.1975 0.0000 0.0000 0.0000
# 3 49.1977 49.1975 139.5201 0.0000 0.0000 0.0000
# 4 0.0000 0.0000 0.0000 15.6724 0.0000 0.0000
# 5 0.0000 0.0000 0.0000 0.0000 15.6729 0.0000
# 6 0.0000 0.0000 0.0000 0.0000 0.0000 14.9228
#
#
#
# Elastic Compliance Matrix: (Units=1/GPa)
#
#
# Indices 1 2 3 4 5 6 
#
# 1 0.035853 -0.003101 -0.011549 0.000000 0.000000 0.000000
# 2 -0.003101 0.035853 -0.011549 0.000000 0.000000 0.000000
# 3 -0.011549 -0.011549 0.015312 0.000000 0.000000 0.000000
# 4 0.000000 0.000000 0.000000 0.063807 0.000000 0.000000
# 5 0.000000 0.000000 0.000000 0.000000 0.063805 0.000000
# 6 0.000000 0.000000 0.000000 0.000000 0.000000 0.067011
#
#
# Mechanical properties :
#
#
# Convention : Reuss Voigt Hill
#
# Bulk Modulus (GPa) = 28.88515 51.86316 40.37416
# Shear Modulus (GPa) = 14.46848 16.73668 15.60258
#
# Velocity S-wave (km/s) = 3.11045 3.34539 3.23006
# Velocity P-wave (km/s) = 5.67583 7.04291 6.39600
#
# Compressibility (1/GPa) = 0.03461987
#
# Stress axis : x y z
#
# Youngs Moduli (GPa) = 27.89181 27.89164 65.30756
#
# Poissons Ratio (x) = 0.08650 0.75423
# Poissons Ratio (y) = 0.08650 0.75423
# Poissons Ratio (z) = 0.32212 0.32212
#
# Static dielectric constant tensor:
#      x y z
#    x 1.481670 0.000000 0.000000 
#    y 0.000000 1.481670 0.000000 
#    z 0.000000 0.000000 1.533500 
# 
# From -- ./inp_files/8221.got.cif
#   From: 2010.05.17/outbox.cif.g08.bks.cpg/sg139_5_cif.got.tgz:8221.got - 2010.05.20 13:14:44.
