data_PCOD9571984
_publ_section_title
;
Structure prediction by ZEFSAII (Michael W. Deem and Ramdas Pophale) SiO2 
 PCOD9571984
Probable space group: I 4/M M M
;
_chemical_formula_sum "Si O2"
_cell_formula_units_Z 48
_cell_length_a 24.000000
_cell_length_b 24.000000
_cell_length_c 9.000000
_cell_angle_alpha 90.000000
_cell_angle_beta 90.000000
_cell_angle_gamma 90.000000
_cell_volume 5184.000000
_symmetry_space_group_name_H-M "I 4/M M M"
_symmetry_group_IT_number 139
_symmetry_cell_setting 'tetragonal'
loop_
_space_group_symop_operation_xyz
x,y,z
-y,x,z
-x,-y,z
y,-x,z
x,-y,-z
-x,y,-z
y,x,-z
-y,-x,-z
-x,-y,-z
y,-x,-z
x,y,-z
-y,x,-z
-x,y,z
x,-y,z
-y,-x,z
y,x,z
1/2+x,1/2+y,1/2+z
1/2-y,1/2+x,1/2+z
1/2-x,1/2-y,1/2+z
1/2+y,1/2-x,1/2+z
1/2+x,1/2-y,1/2-z
1/2-x,1/2+y,1/2-z
1/2+y,1/2+x,1/2-z
1/2-y,1/2-x,1/2-z
1/2-x,1/2-y,1/2-z
1/2+y,1/2-x,1/2-z
1/2+x,1/2+y,1/2-z
1/2-y,1/2+x,1/2-z
1/2-x,1/2+y,1/2+z
1/2+x,1/2-y,1/2+z
1/2-y,1/2-x,1/2+z
1/2+y,1/2+x,1/2+z
loop_
_atom_site_type_symbol
_atom_site_label
_atom_site_fract_x
_atom_site_fract_y
_atom_site_fract_z
Si Si1 0.697218 0.697218 0.165632
Si Si2 0.701161 0.880503 0.319534
Si Si3 0.851736 0.000000 0.836617
Si Si4 0.896169 0.103832 0.662845
Si Si5 0.780616 0.500000 0.330683
O O1 0.662326 0.749049 0.231969
O O2 0.650516 0.650516 0.151208
O O3 0.715822 0.715822 0.000000
O O4 0.702002 0.881398 0.500000
O O5 0.646077 0.853924 0.250000
O O6 0.706389 0.942975 0.256915
O O7 0.870777 0.946665 0.749683
O O8 0.785767 0.000000 0.844831
O O9 0.876523 0.000000 0.000000
O O10 0.914143 0.085858 0.500000
O O11 0.803926 0.500000 0.500000
#
# Coordination Sequence:
#
# PCOD9571984 Si02
#       5
#    16  32  16  16  16
#     4   9  19  34  57  87 120 155 194 239 293 347
#     4  11  22  39  61  90 123 158 197 243 293 350
#     4  11  23  38  56  83 116 152 198 253 302 343
#     4  11  21  37  59  82 110 154 206 247 292 354
#     4  11  23  39  60  87 118 157 197 239 294 355
#
# _framework density 9.2592590000000001
#
# number of rings (size 3 to 8) (size 9 to 14) (size 15 to 20)
#    0.000    1.333    3.333    3.000    0.000    1.667 
#    0.000    4.167    0.000    0.500    0.000    3.500 
#    0.000    0.000    0.000    0.000    0.000    0.000 
#
# Total GULP energy -267412.465100 kJ/mol
# GULP energy per Si atom -5571.093023 kJ/mol
# Density = 0.923818 g / cm^3
# Si number density = 9.259259 Si / 1000 Ang^3
#
#
#
# Elastic Constant Matrix: (Units=GPa)
#
#
# Indices 1 2 3 4 5 6 
#
# 1 145.5534 31.3594 51.5133 0.0000 0.0000 0.0000
# 2 31.3594 145.5563 51.5162 0.0000 0.0000 0.0000
# 3 51.5133 51.5162 120.7625 0.0000 0.0000 0.0000
# 4 0.0000 0.0000 0.0000 16.4855 0.0000 0.0000
# 5 0.0000 0.0000 0.0000 0.0000 16.4889 0.0000
# 6 0.0000 0.0000 0.0000 0.0000 0.0000 24.9057
#
#
#
# Elastic Compliance Matrix: (Units=1/GPa)
#
#
# Indices 1 2 3 4 5 6 
#
# 1 0.008139 -0.000618 -0.003208 0.000000 0.000000 0.000000
# 2 -0.000618 0.008139 -0.003208 0.000000 0.000000 0.000000
# 3 -0.003208 -0.003208 0.011018 0.000000 0.000000 0.000000
# 4 0.000000 0.000000 0.000000 0.060659 0.000000 0.000000
# 5 0.000000 0.000000 0.000000 0.000000 0.060647 0.000000
# 6 0.000000 0.000000 0.000000 0.000000 0.000000 0.040152
#
#
# Mechanical properties :
#
#
# Convention : Reuss Voigt Hill
#
# Bulk Modulus (GPa) = 75.60526 75.62776 75.61651
# Shear Modulus (GPa) = 24.12764 30.07490 27.10127
#
# Velocity S-wave (km/s) = 3.61348 4.03432 3.82968
# Velocity P-wave (km/s) = 7.63709 7.91382 7.77669
#
# Compressibility (1/GPa) = 0.01322659
#
# Stress axis : x y z
#
# Youngs Moduli (GPa) = 122.86695 122.86729 90.76188
#
# Poissons Ratio (x) = 0.07594 0.29118
# Poissons Ratio (y) = 0.07594 0.29119
# Poissons Ratio (z) = 0.39417 0.39420
#
# Static dielectric constant tensor:
#      x y z
#    x 1.610360 0.000000 0.000000 
#    y 0.000000 1.610360 0.000000 
#    z 0.000000 0.000000 1.690880 
# 
# From -- ./inp_files/1209.got.cif
#   From: 2010.05.17/outbox.ucp.g08.bks.cvg/sg139_1_cif.got.tgz:1209.got - 2010.06.11 11:42:03.
