data_PCOD9571363
_publ_section_title
;
Structure prediction by ZEFSAII (Michael W. Deem and Ramdas Pophale) SiO2 
 PCOD9571363
Probable space group: I 4/M M M
;
_chemical_formula_sum "Si O2"
_cell_formula_units_Z 240
_cell_length_a 21.070173
_cell_length_b 21.070173
_cell_length_c 31.102126
_cell_angle_alpha 90.000000
_cell_angle_beta 90.000000
_cell_angle_gamma 90.000000
_cell_volume 13807.856959
_symmetry_space_group_name_H-M "I 4/M M M"
_symmetry_group_IT_number 139
_symmetry_cell_setting 'tetragonal'
loop_
_space_group_symop_operation_xyz
x,y,z
-y,x,z
-x,-y,z
y,-x,z
x,-y,-z
-x,y,-z
y,x,-z
-y,-x,-z
-x,-y,-z
y,-x,-z
x,y,-z
-y,x,-z
-x,y,z
x,-y,z
-y,-x,z
y,x,z
1/2+x,1/2+y,1/2+z
1/2-y,1/2+x,1/2+z
1/2-x,1/2-y,1/2+z
1/2+y,1/2-x,1/2+z
1/2+x,1/2-y,1/2-z
1/2-x,1/2+y,1/2-z
1/2+y,1/2+x,1/2-z
1/2-y,1/2-x,1/2-z
1/2-x,1/2-y,1/2-z
1/2+y,1/2-x,1/2-z
1/2+x,1/2+y,1/2-z
1/2-y,1/2+x,1/2-z
1/2-x,1/2+y,1/2+z
1/2+x,1/2-y,1/2+z
1/2-y,1/2-x,1/2+z
1/2+y,1/2+x,1/2+z
loop_
_atom_site_type_symbol
_atom_site_label
_atom_site_fract_x
_atom_site_fract_y
_atom_site_fract_z
Si Si1 0.370292 0.271124 0.240428
Si Si2 0.071479 0.737805 0.100799
Si Si3 0.073202 0.171748 0.176770
Si Si4 0.195386 0.699594 0.051383
Si Si5 0.428788 0.110048 0.656922
Si Si6 0.928614 0.825277 0.341394
Si Si7 0.428901 0.804880 0.105444
Si Si8 0.124957 0.624957 0.250000
O O1 0.300398 0.300398 0.231656
O O2 0.388132 0.285988 0.289318
O O3 0.415869 0.309841 0.208632
O O4 0.379313 0.197177 0.233316
O O5 0.080984 0.800340 0.129258
O O6 0.128687 0.728279 0.067995
O O7 0.073108 0.680233 0.135617
O O8 0.000000 0.737587 0.082068
O O9 0.102174 0.102174 0.179688
O O10 0.000000 0.175144 0.188274
O O11 0.253598 0.746403 0.064669
O O12 0.198231 0.629725 0.072512
O O13 0.196161 0.695197 0.000000
O O14 0.500000 0.084508 0.648200
O O15 0.369204 0.076292 0.633932
O O16 0.418015 0.112849 0.708263
O O17 0.875893 0.875893 0.355548
O O18 0.922007 0.757833 0.365215
O O19 0.000000 0.848839 0.347988
O O20 0.500000 0.803458 0.086171
#
# Coordination Sequence:
#
# PCOD9571363 Si02
#       8
#    32  32  32  32  32  32  32  16
#     4  10  20  31  46  73 104 138 183 227 264 304
#     4   9  18  34  54  77 105 136 168 205 255 312
#     4  10  19  31  48  70 100 137 176 216 257 302
#     4  10  21  37  58  85 111 132 164 213 260 309
#     4  10  21  34  51  75 102 136 176 224 266 299
#     4  10  20  34  53  77 106 140 179 220 262 308
#     4  10  21  38  57  76 104 141 175 213 260 316
#     4  12  19  32  50  75 104 140 184 224 264 310
#
# _framework density 17.381408
#
# number of rings (size 3 to 8) (size 9 to 14) (size 15 to 20)
#    0.000    2.000    2.667    1.400    0.000    2.133 
#    0.000    0.000    0.000    2.400    0.000    3.733 
#    0.000    0.000    0.000   24.800    0.000    0.000 
#
# Total GULP energy -668812.250805 kJ/mol
# GULP energy per Si atom -5573.435423 kJ/mol
# Density = 1.734185 g / cm^3
# Si number density = 17.381408 Si / 1000 Ang^3
#
#
#
# Elastic Constant Matrix: (Units=GPa)
#
#
# Indices 1 2 3 4 5 6 
#
# 1 103.0783 32.9411 26.7980 0.0000 0.0000 0.0000
# 2 32.9411 103.0783 26.7980 0.0000 0.0000 0.0000
# 3 26.7980 26.7980 57.2818 0.0000 0.0000 0.0000
# 4 0.0000 0.0000 0.0000 18.2224 0.0000 0.0000
# 5 0.0000 0.0000 0.0000 0.0000 18.2224 0.0000
# 6 0.0000 0.0000 0.0000 0.0000 0.0000 17.4356
#
#
#
# Elastic Compliance Matrix: (Units=1/GPa)
#
#
# Indices 1 2 3 4 5 6 
#
# 1 0.011636 -0.002622 -0.004217 0.000000 0.000000 0.000000
# 2 -0.002622 0.011636 -0.004217 0.000000 0.000000 0.000000
# 3 -0.004217 -0.004217 0.021403 0.000000 0.000000 0.000000
# 4 0.000000 0.000000 0.000000 0.054878 0.000000 0.000000
# 5 0.000000 0.000000 0.000000 0.000000 0.054878 0.000000
# 6 0.000000 0.000000 0.000000 0.000000 0.000000 0.057354
#
#
# Mechanical properties :
#
#
# Convention : Reuss Voigt Hill
#
# Bulk Modulus (GPa) = 44.32058 48.50141 46.41100
# Shear Modulus (GPa) = 20.71120 22.56950 21.64035
#
# Velocity S-wave (km/s) = 3.45566 3.60736 3.53232
# Velocity P-wave (km/s) = 6.44021 6.73168 6.58756
#
# Compressibility (1/GPa) = 0.02256288
#
# Stress axis : x y z
#
# Youngs Moduli (GPa) = 85.94316 85.94316 46.72248
#
# Poissons Ratio (x) = 0.22536 0.19702
# Poissons Ratio (y) = 0.22536 0.19702
# Poissons Ratio (z) = 0.36240 0.36240
#
# Static dielectric constant tensor:
#      x y z
#    x 1.604930 0.000000 0.000000 
#    y 0.000000 1.604930 0.000000 
#    z 0.000000 0.000000 1.559620 
# 
# From -- ./inp_files/14612.got.cif
#   From: 2010.05.17/outbox.cif.g08.bks.cpg/sg139_8_cif.got.tgz:14612.got - 2010.05.20 13:14:44.
