data_PCOD9571765
_publ_section_title
;
Structure prediction by ZEFSAII (Michael W. Deem and Ramdas Pophale) SiO2 
 PCOD9571765
Probable space group: I 4/M M M
;
_chemical_formula_sum "Si O2"
_cell_formula_units_Z 160
_cell_length_a 21.701466
_cell_length_b 21.701466
_cell_length_c 15.790241
_cell_angle_alpha 90.000000
_cell_angle_beta 90.000000
_cell_angle_gamma 90.000000
_cell_volume 7436.471263
_symmetry_space_group_name_H-M "I 4/M M M"
_symmetry_group_IT_number 139
_symmetry_cell_setting 'tetragonal'
loop_
_space_group_symop_operation_xyz
x,y,z
-y,x,z
-x,-y,z
y,-x,z
x,-y,-z
-x,y,-z
y,x,-z
-y,-x,-z
-x,-y,-z
y,-x,-z
x,y,-z
-y,x,-z
-x,y,z
x,-y,z
-y,-x,z
y,x,z
1/2+x,1/2+y,1/2+z
1/2-y,1/2+x,1/2+z
1/2-x,1/2-y,1/2+z
1/2+y,1/2-x,1/2+z
1/2+x,1/2-y,1/2-z
1/2-x,1/2+y,1/2-z
1/2+y,1/2+x,1/2-z
1/2-y,1/2-x,1/2-z
1/2-x,1/2-y,1/2-z
1/2+y,1/2-x,1/2-z
1/2+x,1/2+y,1/2-z
1/2-y,1/2+x,1/2-z
1/2-x,1/2+y,1/2+z
1/2+x,1/2-y,1/2+z
1/2-y,1/2-x,1/2+z
1/2+y,1/2+x,1/2+z
loop_
_atom_site_type_symbol
_atom_site_label
_atom_site_fract_x
_atom_site_fract_y
_atom_site_fract_z
Si Si1 0.368051 0.368051 0.896582
Si Si2 0.812271 0.000000 0.396392
Si Si3 0.367489 0.211591 0.599588
Si Si4 0.500000 0.827616 0.097576
Si Si5 0.569534 0.906908 0.654406
Si Si6 0.163121 0.068708 0.103332
Si Si7 0.231237 0.231237 0.655340
O O1 0.347554 0.437195 0.872200
O O2 0.320352 0.320352 0.854852
O O3 0.362794 0.362794 0.000000
O O4 0.740952 0.000000 0.362536
O O5 0.812115 0.000000 0.500000
O O6 0.380957 0.202423 0.500000
O O7 0.409604 0.163712 0.649961
O O8 0.387981 0.279856 0.625086
O O9 0.294564 0.206793 0.613452
O O10 0.442795 0.873122 0.113868
O O11 0.500000 0.813436 0.000000
O O12 0.500000 0.915529 0.619035
O O13 0.569600 0.930401 0.750000
O O14 0.100382 0.100382 0.131859
O O15 0.171892 0.000000 0.134982
O O16 0.161937 0.066588 0.000000
O O17 0.250000 0.250000 0.750000
#
# Coordination Sequence:
#
# PCOD9571765 Si02
#       7
#    16  16  32  16  32  32  16
#     4  10  20  39  68 100 139 178 219 273 333 405
#     4   9  20  38  64 102 136 171 217 272 331 389
#     4  11  22  39  63  92 125 166 221 275 328 394
#     4  11  23  40  64  92 127 173 229 272 319 400
#     4  12  25  42  62  90 131 175 216 274 344 406
#     4   9  17  31  53  83 118 153 196 254 311 373
#     4  12  24  40  65  95 133 171 223 281 346 405
#
# _framework density 21.515581999999998
#
# number of rings (size 3 to 8) (size 9 to 14) (size 15 to 20)
#    0.000    1.400    2.000    4.200    0.000    4.800 
#    0.000    2.000    2.200    0.000    0.000    0.000 
#    3.000    0.000    0.000    0.000    0.000    0.000 
#
# Total GULP energy -446773.280028 kJ/mol
# GULP energy per Si atom -5584.666000 kJ/mol
# Density = 2.146661 g / cm^3
# Si number density = 21.515582 Si / 1000 Ang^3
#
#
#
# Elastic Constant Matrix: (Units=GPa)
#
#
# Indices 1 2 3 4 5 6 
#
# 1 170.2981 82.9123 8.9169 0.0000 0.0000 0.0000
# 2 82.9123 170.2980 8.9167 0.0000 0.0000 0.0000
# 3 8.9169 8.9167 23.5025 0.0000 0.0000 0.0000
# 4 0.0000 0.0000 0.0000 18.4163 0.0000 0.0000
# 5 0.0000 0.0000 0.0000 0.0000 18.4166 0.0000
# 6 0.0000 0.0000 0.0000 0.0000 0.0000 9.9333
#
#
#
# Elastic Compliance Matrix: (Units=1/GPa)
#
#
# Indices 1 2 3 4 5 6 
#
# 1 0.007751 -0.003693 -0.001540 0.000000 0.000000 0.000000
# 2 -0.003693 0.007751 -0.001539 0.000000 0.000000 0.000000
# 3 -0.001540 -0.001539 0.043717 0.000000 0.000000 0.000000
# 4 0.000000 0.000000 0.000000 0.054300 0.000000 0.000000
# 5 0.000000 0.000000 0.000000 0.000000 0.054299 0.000000
# 6 0.000000 0.000000 0.000000 0.000000 0.000000 0.100671
#
#
# Mechanical properties :
#
#
# Convention : Reuss Voigt Hill
#
# Bulk Modulus (GPa) = 21.89419 62.84340 42.36879
# Shear Modulus (GPa) = 16.82051 26.91010 21.86531
#
# Velocity S-wave (km/s) = 2.79907 3.54040 3.19133
# Velocity P-wave (km/s) = 4.54362 6.78117 5.77186
#
# Compressibility (1/GPa) = 0.04567422
#
# Stress axis : x y z
#
# Youngs Moduli (GPa) = 129.02200 129.02208 22.87453
#
# Poissons Ratio (x) = 0.47647 0.03522
# Poissons Ratio (y) = 0.47647 0.03521
# Poissons Ratio (z) = 0.19863 0.19862
#
# Static dielectric constant tensor:
#      x y z
#    x 1.720450 0.000000 0.000000 
#    y 0.000000 1.720440 0.000000 
#    z 0.000000 0.000000 1.845420 
# 
# From -- ./inp_files/8513.got.cif
#   From: 2010.05.17/outbox.cif.g08.bks.cpg/sg139_5_cif.got.tgz:8513.got - 2010.05.20 13:14:44.
