data_PCOD9571558
_publ_section_title
;
Structure prediction by ZEFSAII (Michael W. Deem and Ramdas Pophale) SiO2 
 PCOD9571558
Probable space group: I 4/M M M
;
_chemical_formula_sum "Si O2"
_cell_formula_units_Z 160
_cell_length_a 18.130145
_cell_length_b 18.130145
_cell_length_c 29.673885
_cell_angle_alpha 90.000000
_cell_angle_beta 90.000000
_cell_angle_gamma 90.000000
_cell_volume 9753.870027
_symmetry_space_group_name_H-M "I 4/M M M"
_symmetry_group_IT_number 139
_symmetry_cell_setting 'tetragonal'
loop_
_space_group_symop_operation_xyz
x,y,z
-y,x,z
-x,-y,z
y,-x,z
x,-y,-z
-x,y,-z
y,x,-z
-y,-x,-z
-x,-y,-z
y,-x,-z
x,y,-z
-y,x,-z
-x,y,z
x,-y,z
-y,-x,z
y,x,z
1/2+x,1/2+y,1/2+z
1/2-y,1/2+x,1/2+z
1/2-x,1/2-y,1/2+z
1/2+y,1/2-x,1/2+z
1/2+x,1/2-y,1/2-z
1/2-x,1/2+y,1/2-z
1/2+y,1/2+x,1/2-z
1/2-y,1/2-x,1/2-z
1/2-x,1/2-y,1/2-z
1/2+y,1/2-x,1/2-z
1/2+x,1/2+y,1/2-z
1/2-y,1/2+x,1/2-z
1/2-x,1/2+y,1/2+z
1/2+x,1/2-y,1/2+z
1/2-y,1/2-x,1/2+z
1/2+y,1/2+x,1/2+z
loop_
_atom_site_type_symbol
_atom_site_label
_atom_site_fract_x
_atom_site_fract_y
_atom_site_fract_z
Si Si1 0.712467 0.836401 0.948493
Si Si2 0.259010 0.500000 0.275539
Si Si3 0.415014 0.158499 0.872916
Si Si4 0.243811 0.000000 0.924281
Si Si5 0.860261 0.262929 0.282724
Si Si6 0.366067 0.000000 0.154293
Si Si7 0.500000 0.377779 0.354691
O O1 0.778399 0.778399 0.936655
O O2 0.644258 0.831596 0.913411
O O3 0.741761 0.921195 0.947555
O O4 0.689305 0.820326 0.000000
O O5 0.268712 0.571466 0.245046
O O6 0.177303 0.500000 0.298256
O O7 0.317464 0.500000 0.315606
O O8 0.500000 0.175432 0.885262
O O9 0.388171 0.205542 0.830053
O O10 0.410555 0.074139 0.855308
O O11 0.301667 0.000000 0.883089
O O12 0.163404 0.000000 0.902354
O O13 0.797876 0.202125 0.290565
O O14 0.824562 0.324562 0.250000
O O15 0.571237 0.428764 0.350572
#
# Coordination Sequence:
#
# PCOD9571558 Si02
#       7
#    32  16  32  16  32  16  16
#     4  10  21  37  57  81 109 142 182 229 279 334
#     4  11  19  35  50  72 107 143 183 220 265 316
#     4  11  21  36  54  78 109 142 182 224 275 328
#     4   9  18  33  55  78 107 139 175 216 271 325
#     4  11  22  34  53  78 106 142 183 225 269 319
#     4   9  19  32  50  76 105 138 173 211 258 315
#     4  10  20  32  49  75 106 142 182 221 262 314
#
# _framework density 16.403746000000002
#
# number of rings (size 3 to 8) (size 9 to 14) (size 15 to 20)
#    0.000    1.700    3.000    2.400    0.000    0.400 
#    0.000    0.000    0.000    3.600    0.000    4.200 
#    0.000    0.000    0.000    4.800    0.000    0.000 
#
# Total GULP energy -446000.227354 kJ/mol
# GULP energy per Si atom -5575.002842 kJ/mol
# Density = 1.636641 g / cm^3
# Si number density = 16.403746 Si / 1000 Ang^3
#
#
#
# Elastic Constant Matrix: (Units=GPa)
#
#
# Indices 1 2 3 4 5 6 
#
# 1 101.9643 41.5530 48.2173 0.0000 0.0000 0.0000
# 2 41.5530 101.9643 48.2173 0.0000 0.0000 0.0000
# 3 48.2173 48.2173 102.3152 0.0000 0.0000 0.0000
# 4 0.0000 0.0000 0.0000 21.5772 0.0000 0.0000
# 5 0.0000 0.0000 0.0000 0.0000 21.5772 0.0000
# 6 0.0000 0.0000 0.0000 0.0000 0.0000 39.8187
#
#
#
# Elastic Compliance Matrix: (Units=1/GPa)
#
#
# Indices 1 2 3 4 5 6 
#
# 1 0.013375 -0.003178 -0.004805 0.000000 0.000000 0.000000
# 2 -0.003178 0.013375 -0.004805 0.000000 0.000000 0.000000
# 3 -0.004805 -0.004805 0.014303 0.000000 0.000000 0.000000
# 4 0.000000 0.000000 0.000000 0.046345 0.000000 0.000000
# 5 0.000000 0.000000 0.000000 0.000000 0.046345 0.000000
# 6 0.000000 0.000000 0.000000 0.000000 0.000000 0.025114
#
#
# Mechanical properties :
#
#
# Convention : Reuss Voigt Hill
#
# Bulk Modulus (GPa) = 64.62055 64.69098 64.65577
# Shear Modulus (GPa) = 26.37232 27.81174 27.09203
#
# Velocity S-wave (km/s) = 4.01396 4.12205 4.06837
# Velocity P-wave (km/s) = 7.80781 7.88527 7.84663
#
# Compressibility (1/GPa) = 0.01547495
#
# Stress axis : x y z
#
# Youngs Moduli (GPa) = 74.76683 74.76683 69.91625
#
# Poissons Ratio (x) = 0.23763 0.33597
# Poissons Ratio (y) = 0.23763 0.33597
# Poissons Ratio (z) = 0.35928 0.35928
#
# Static dielectric constant tensor:
#      x y z
#    x 1.556900 0.000000 0.000000 
#    y 0.000000 1.556900 0.000000 
#    z 0.000000 0.000000 1.537370 
# 
# From -- ./inp_files/13055.got.cif
#   From: 2010.05.17/outbox.cif.g08.bks.cpg/sg139_7_cif.got.tgz:13055.got - 2010.05.20 13:14:44.
