data_PCOD9571331
_publ_section_title
;
Structure prediction by ZEFSAII (Michael W. Deem and Ramdas Pophale) SiO2 
 PCOD9571331
Probable space group: I 4/M M M
;
_chemical_formula_sum "Si O2"
_cell_formula_units_Z 160
_cell_length_a 17.500527
_cell_length_b 17.500527
_cell_length_c 34.698405
_cell_angle_alpha 90.000000
_cell_angle_beta 90.000000
_cell_angle_gamma 90.000000
_cell_volume 10627.026553
_symmetry_space_group_name_H-M "I 4/M M M"
_symmetry_group_IT_number 139
_symmetry_cell_setting 'tetragonal'
loop_
_space_group_symop_operation_xyz
x,y,z
-y,x,z
-x,-y,z
y,-x,z
x,-y,-z
-x,y,-z
y,x,-z
-y,-x,-z
-x,-y,-z
y,-x,-z
x,y,-z
-y,x,-z
-x,y,z
x,-y,z
-y,-x,z
y,x,z
1/2+x,1/2+y,1/2+z
1/2-y,1/2+x,1/2+z
1/2-x,1/2-y,1/2+z
1/2+y,1/2-x,1/2+z
1/2+x,1/2-y,1/2-z
1/2-x,1/2+y,1/2-z
1/2+y,1/2+x,1/2-z
1/2-y,1/2-x,1/2-z
1/2-x,1/2-y,1/2-z
1/2+y,1/2-x,1/2-z
1/2+x,1/2+y,1/2-z
1/2-y,1/2+x,1/2-z
1/2-x,1/2+y,1/2+z
1/2+x,1/2-y,1/2+z
1/2-y,1/2-x,1/2+z
1/2+y,1/2+x,1/2+z
loop_
_atom_site_type_symbol
_atom_site_label
_atom_site_fract_x
_atom_site_fract_y
_atom_site_fract_z
Si Si1 0.216294 0.089060 0.192164
Si Si2 0.908260 0.332893 0.572805
Si Si3 0.278389 0.407956 0.000000
Si Si4 0.302401 0.827509 0.347068
Si Si5 0.592873 0.000000 0.044470
Si Si6 0.784184 0.911069 0.718452
O O1 0.141313 0.141313 0.186346
O O2 0.282729 0.121248 0.165044
O O3 0.240044 0.100473 0.237033
O O4 0.200985 0.000000 0.186196
O O5 0.892044 0.274662 0.537552
O O6 0.870219 0.308217 0.612602
O O7 0.883091 0.419685 0.563000
O O8 0.000000 0.333740 0.577055
O O9 0.296273 0.500000 0.000000
O O10 0.352798 0.352798 0.000000
O O11 0.236627 0.763374 0.349322
O O12 0.277789 0.883051 0.312271
O O13 0.500000 0.000000 0.045040
O O14 0.616726 0.000000 0.000000
O O15 0.859090 0.859090 0.712713
O O16 0.801212 0.000000 0.713084
#
# Coordination Sequence:
#
# PCOD9571331 Si02
#       6
#    32  32  16  32  16  32
#     4   9  18  31  47  67  90 119 154 193 236 279
#     4  10  19  31  49  70  93 121 152 189 230 274
#     4  10  20  34  51  71  97 127 158 192 231 274
#     4  10  19  30  46  68  93 122 154 187 228 279
#     4   9  16  30  48  68  90 114 145 183 231 275
#     4   9  17  30  47  66  91 122 156 194 233 273
#
# _framework density 15.055953000000001
#
# number of rings (size 3 to 8) (size 9 to 14) (size 15 to 20)
#    0.000    2.500    1.000    1.800    1.400    2.900 
#    0.000    2.000    0.000    0.000    0.000    5.600 
#    0.000    0.000    0.000    0.000    0.000   19.600 
#
# Total GULP energy -445652.080342 kJ/mol
# GULP energy per Si atom -5570.651004 kJ/mol
# Density = 1.502168 g / cm^3
# Si number density = 15.055953 Si / 1000 Ang^3
#
#
#
# Elastic Constant Matrix: (Units=GPa)
#
#
# Indices 1 2 3 4 5 6 
#
# 1 66.6136 37.2979 44.8169 0.0000 0.0000 0.0000
# 2 37.2979 66.6136 44.8169 0.0000 0.0000 0.0000
# 3 44.8169 44.8169 90.9499 0.0000 0.0000 0.0000
# 4 0.0000 0.0000 0.0000 25.9192 0.0000 0.0000
# 5 0.0000 0.0000 0.0000 0.0000 25.9192 0.0000
# 6 0.0000 0.0000 0.0000 0.0000 0.0000 10.2042
#
#
#
# Elastic Compliance Matrix: (Units=1/GPa)
#
#
# Indices 1 2 3 4 5 6 
#
# 1 0.025425 -0.008687 -0.008248 0.000000 0.000000 0.000000
# 2 -0.008687 0.025425 -0.008248 0.000000 0.000000 0.000000
# 3 -0.008248 -0.008248 0.019124 0.000000 0.000000 0.000000
# 4 0.000000 0.000000 0.000000 0.038581 0.000000 0.000000
# 5 0.000000 0.000000 0.000000 0.000000 0.038581 0.000000
# 6 0.000000 0.000000 0.000000 0.000000 0.000000 0.097999
#
#
# Mechanical properties :
#
#
# Convention : Reuss Voigt Hill
#
# Bulk Modulus (GPa) = 50.99908 53.11562 52.05735
# Shear Modulus (GPa) = 16.55427 18.89153 17.72290
#
# Velocity S-wave (km/s) = 3.31949 3.54609 3.43466
# Velocity P-wave (km/s) = 6.97414 7.21954 7.09790
#
# Compressibility (1/GPa) = 0.01960820
#
# Stress axis : x y z
#
# Youngs Moduli (GPa) = 39.33157 39.33157 52.29094
#
# Poissons Ratio (x) = 0.34165 0.43130
# Poissons Ratio (y) = 0.34165 0.43130
# Poissons Ratio (z) = 0.32441 0.32441
#
# Static dielectric constant tensor:
#      x y z
#    x 1.486720 0.000000 0.000000 
#    y 0.000000 1.486720 0.000000 
#    z 0.000000 0.000000 1.491040 
# 
# From -- ./inp_files/13027.got.cif
#   From: 2010.05.17/outbox.cif.g08.bks.cpg/sg139_7_cif.got.tgz:13027.got - 2010.05.20 13:14:44.
