data_PCOD9571793
_publ_section_title
;
Structure prediction by ZEFSAII (Michael W. Deem and Ramdas Pophale) SiO2 
 PCOD9571793
Probable space group: I 4/M M M
;
_chemical_formula_sum "Si O2"
_cell_formula_units_Z 128
_cell_length_a 19.268457
_cell_length_b 19.268457
_cell_length_c 19.893616
_cell_angle_alpha 90.000000
_cell_angle_beta 90.000000
_cell_angle_gamma 90.000000
_cell_volume 7385.971150
_symmetry_space_group_name_H-M "I 4/M M M"
_symmetry_group_IT_number 139
_symmetry_cell_setting 'tetragonal'
loop_
_space_group_symop_operation_xyz
x,y,z
-y,x,z
-x,-y,z
y,-x,z
x,-y,-z
-x,y,-z
y,x,-z
-y,-x,-z
-x,-y,-z
y,-x,-z
x,y,-z
-y,x,-z
-x,y,z
x,-y,z
-y,-x,z
y,x,z
1/2+x,1/2+y,1/2+z
1/2-y,1/2+x,1/2+z
1/2-x,1/2-y,1/2+z
1/2+y,1/2-x,1/2+z
1/2+x,1/2-y,1/2-z
1/2-x,1/2+y,1/2-z
1/2+y,1/2+x,1/2-z
1/2-y,1/2-x,1/2-z
1/2-x,1/2-y,1/2-z
1/2+y,1/2-x,1/2-z
1/2+x,1/2+y,1/2-z
1/2-y,1/2+x,1/2-z
1/2-x,1/2+y,1/2+z
1/2+x,1/2-y,1/2+z
1/2-y,1/2-x,1/2+z
1/2+y,1/2+x,1/2+z
loop_
_atom_site_type_symbol
_atom_site_label
_atom_site_fract_x
_atom_site_fract_y
_atom_site_fract_z
Si Si1 0.421311 0.686816 0.596323
Si Si2 0.919347 0.341406 0.310196
Si Si3 0.694703 0.190788 0.923136
Si Si4 0.315016 0.575494 0.241859
O O1 0.500000 0.694193 0.574018
O O2 0.384164 0.615836 0.574996
O O3 0.371485 0.749418 0.575780
O O4 0.421759 0.686052 0.677470
O O5 0.890163 0.390163 0.250000
O O6 0.866331 0.334130 0.373116
O O7 0.919077 0.263549 0.281287
O O8 0.000000 0.359352 0.326879
O O9 0.740716 0.259285 0.902029
O O10 0.670395 0.202660 0.000000
O O11 0.342980 0.500000 0.221453
O O12 0.362808 0.637193 0.216117
#
# Coordination Sequence:
#
# PCOD9571793 Si02
#       4
#    32  32  32  32
#     4   9  17  30  49  75 106 137 170 206 249 307
#     4  11  22  36  56  79 105 139 181 230 278 324
#     4  10  21  36  56  81 108 142 181 221 269 326
#     4   9  17  29  49  77 105 136 170 205 253 310
#
# _framework density 17.330151999999998
#
# number of rings (size 3 to 8) (size 9 to 14) (size 15 to 20)
#    0.000    2.250    2.500    0.750    0.000    2.750 
#    0.000    2.500    0.000    0.000    0.000    7.000 
#    0.000    0.000    0.000   23.250    0.000    0.250 
#
# Total GULP energy -356444.167892 kJ/mol
# GULP energy per Si atom -5569.440123 kJ/mol
# Density = 1.729071 g / cm^3
# Si number density = 17.330152 Si / 1000 Ang^3
#
#
#
# Elastic Constant Matrix: (Units=GPa)
#
#
# Indices 1 2 3 4 5 6 
#
# 1 101.5868 46.5689 38.5091 0.0000 0.0000 0.0000
# 2 46.5689 101.5868 38.5091 0.0000 0.0000 0.0000
# 3 38.5091 38.5091 73.7543 0.0000 0.0000 0.0000
# 4 0.0000 0.0000 0.0000 -47.6225 0.0000 0.0000
# 5 0.0000 0.0000 0.0000 0.0000 -47.6225 0.0000
# 6 0.0000 0.0000 0.0000 0.0000 0.0000 18.4946
#
#
#
# Elastic Compliance Matrix: (Units=1/GPa)
#
#
# Indices 1 2 3 4 5 6 
#
# 1 0.013720 -0.004456 -0.004837 0.000000 0.000000 0.000000
# 2 -0.004456 0.013720 -0.004837 0.000000 0.000000 0.000000
# 3 -0.004837 -0.004837 0.018610 0.000000 0.000000 0.000000
# 4 0.000000 0.000000 0.000000 -0.020998 0.000000 0.000000
# 5 0.000000 0.000000 0.000000 0.000000 -0.020998 0.000000
# 6 0.000000 0.000000 0.000000 0.000000 0.000000 0.054070
#
#
# Mechanical properties :
#
#
# Convention : Reuss Voigt Hill
#
# Bulk Modulus (GPa) = 56.21221 58.23356 57.22288
# Shear Modulus (GPa) = 54.16370 -5.12737 24.51816
#
# Velocity S-wave (km/s) = 5.59659 -1.72194 3.76542
# Velocity P-wave (km/s) = 8.61795 5.45179 7.21079
#
# Compressibility (1/GPa) = 0.01778973
#
# Stress axis : x y z
#
# Youngs Moduli (GPa) = 72.88603 72.88603 53.73551
#
# Poissons Ratio (x) = 0.32477 0.25992
# Poissons Ratio (y) = 0.32477 0.25992
# Poissons Ratio (z) = 0.35256 0.35256
#
# Static dielectric constant tensor:
#      x y z
#    x 1.590170 0.000000 0.000000 
#    y 0.000000 1.590170 0.000000 
#    z 0.000000 0.000000 1.632540 
# 
# From -- ./inp_files/7966.got.cif
#   From: 2010.05.17/outbox.cif.g08.bks.cpg/sg139_4_cif.got.tgz:7966.got - 2010.05.20 13:14:44.
