data_PCOD9571360
_publ_section_title
;
Structure prediction by ZEFSAII (Michael W. Deem and Ramdas Pophale) SiO2 
 PCOD9571360
Probable space group: I 4/M M M
;
_chemical_formula_sum "Si O2"
_cell_formula_units_Z 176
_cell_length_a 19.089485
_cell_length_b 19.089485
_cell_length_c 31.061649
_cell_angle_alpha 90.000000
_cell_angle_beta 90.000000
_cell_angle_gamma 90.000000
_cell_volume 11319.126980
_symmetry_space_group_name_H-M "I 4/M M M"
_symmetry_group_IT_number 139
_symmetry_cell_setting 'tetragonal'
loop_
_space_group_symop_operation_xyz
x,y,z
-y,x,z
-x,-y,z
y,-x,z
x,-y,-z
-x,y,-z
y,x,-z
-y,-x,-z
-x,-y,-z
y,-x,-z
x,y,-z
-y,x,-z
-x,y,z
x,-y,z
-y,-x,z
y,x,z
1/2+x,1/2+y,1/2+z
1/2-y,1/2+x,1/2+z
1/2-x,1/2-y,1/2+z
1/2+y,1/2-x,1/2+z
1/2+x,1/2-y,1/2-z
1/2-x,1/2+y,1/2-z
1/2+y,1/2+x,1/2-z
1/2-y,1/2-x,1/2-z
1/2-x,1/2-y,1/2-z
1/2+y,1/2-x,1/2-z
1/2+x,1/2+y,1/2-z
1/2-y,1/2+x,1/2-z
1/2-x,1/2+y,1/2+z
1/2+x,1/2-y,1/2+z
1/2-y,1/2-x,1/2+z
1/2+y,1/2+x,1/2+z
loop_
_atom_site_type_symbol
_atom_site_label
_atom_site_fract_x
_atom_site_fract_y
_atom_site_fract_z
Si Si1 0.500000 0.227846 0.167777
Si Si2 0.732543 0.847030 0.211740
Si Si3 0.000000 0.416427 0.162980
Si Si4 0.735009 0.852502 0.450615
Si Si5 0.500000 0.200429 0.733057
Si Si6 0.500000 0.385212 0.859847
Si Si7 0.133348 0.649709 0.368577
Si Si8 0.000000 0.816300 0.548433
O O1 0.500000 0.196438 0.215661
O O2 0.500000 0.311775 0.165186
O O3 0.431512 0.198855 0.144498
O O4 0.803821 0.803821 0.213588
O O5 0.683241 0.816760 0.250000
O O6 0.693977 0.836360 0.166288
O O7 0.739389 0.929470 0.219150
O O8 0.000000 0.374299 0.208380
O O9 0.069917 0.392006 0.138026
O O10 0.000000 0.500000 0.168674
O O11 0.712274 0.842068 0.500000
O O12 0.796214 0.796214 0.441028
O O13 0.673106 0.845727 0.416241
O O14 0.769445 0.929918 0.448116
O O15 0.568007 0.431994 0.850036
O O16 0.500000 0.367801 0.910971
O O17 0.000000 0.848016 0.500000
#
# Coordination Sequence:
#
# PCOD9571360 Si02
#       8
#    16  32  16  32  16  16  32  16
#     4  12  21  33  51  70  93 137 170 205 261 302
#     4  10  20  33  52  77 101 128 165 208 257 309
#     4  10  22  36  54  79 108 132 166 206 258 320
#     4  10  20  34  54  76  98 132 176 217 255 298
#     4  10  22  37  50  77 101 131 169 210 256 307
#     4  11  24  36  47  69  98 131 173 217 261 305
#     4  11  20  35  52  76 103 132 167 208 259 307
#     4  10  19  31  48  69  93 124 166 212 254 290
#
# _framework density 15.548902
#
# number of rings (size 3 to 8) (size 9 to 14) (size 15 to 20)
#    0.000    1.545    4.545    1.091    0.000    2.545 
#    1.636    0.909    0.000    0.818    0.000    0.000 
#    0.000    0.000    0.000    0.000    0.000    0.000 
#
# Total GULP energy -491105.124663 kJ/mol
# GULP energy per Si atom -5580.740053 kJ/mol
# Density = 1.551351 g / cm^3
# Si number density = 15.548902 Si / 1000 Ang^3
#
#
#
# Elastic Constant Matrix: (Units=GPa)
#
#
# Indices 1 2 3 4 5 6 
#
# 1 92.2310 52.3367 44.6633 0.0000 0.0000 0.0000
# 2 52.3367 92.2305 44.6633 0.0000 0.0000 0.0000
# 3 44.6633 44.6633 104.6664 0.0000 0.0000 0.0000
# 4 0.0000 0.0000 0.0000 17.8411 0.0000 0.0000
# 5 0.0000 0.0000 0.0000 0.0000 17.8397 0.0000
# 6 0.0000 0.0000 0.0000 0.0000 0.0000 26.0621
#
#
#
# Elastic Compliance Matrix: (Units=1/GPa)
#
#
# Indices 1 2 3 4 5 6 
#
# 1 0.017230 -0.007836 -0.004009 0.000000 0.000000 0.000000
# 2 -0.007836 0.017230 -0.004009 0.000000 0.000000 0.000000
# 3 -0.004009 -0.004009 0.012975 0.000000 0.000000 0.000000
# 4 0.000000 0.000000 0.000000 0.056050 0.000000 0.000000
# 5 0.000000 0.000000 0.000000 0.000000 0.056055 0.000000
# 6 0.000000 0.000000 0.000000 0.000000 0.000000 0.038370
#
#
# Mechanical properties :
#
#
# Convention : Reuss Voigt Hill
#
# Bulk Modulus (GPa) = 63.57729 63.60605 63.59167
# Shear Modulus (GPa) = 21.28922 22.17955 21.73438
#
# Velocity S-wave (km/s) = 3.70425 3.78092 3.74278
# Velocity P-wave (km/s) = 7.69888 7.74960 7.72428
#
# Compressibility (1/GPa) = 0.01572889
#
# Stress axis : x y z
#
# Youngs Moduli (GPa) = 58.03773 58.03729 77.06944
#
# Poissons Ratio (x) = 0.45479 0.30894
# Poissons Ratio (y) = 0.45479 0.30895
# Poissons Ratio (z) = 0.23265 0.23265
#
# Static dielectric constant tensor:
#      x y z
#    x 1.508650 0.000000 0.000000 
#    y 0.000000 1.508650 0.000000 
#    z 0.000000 0.000000 1.537220 
# 
# From -- ./inp_files/14325.got.cif
#   From: 2010.05.17/outbox.cif.g08.bks.cpg/sg139_8_cif.got.tgz:14325.got - 2010.05.20 13:14:44.
