data_PCOD9571037
_publ_section_title
;
Structure prediction by ZEFSAII (Michael W. Deem and Ramdas Pophale) SiO2 
 PCOD9571037
Probable space group: P 42/N C M
;
_chemical_formula_sum "Si O2"
_cell_formula_units_Z 32
_cell_length_a 12.203802
_cell_length_b 12.203802
_cell_length_c 9.003808
_cell_angle_alpha 90.000000
_cell_angle_beta 90.000000
_cell_angle_gamma 90.000000
_cell_volume 1340.962185
_symmetry_space_group_name_H-M "P 42/N C M"
_symmetry_group_IT_number 138
_space_group.IT_coordinate_system_code '2'
_symmetry_cell_setting 'tetragonal'
loop_
_space_group_symop_operation_xyz
x,y,z
1/2-y,x,1/2+z
1/2-x,1/2-y,z
y,1/2-x,1/2+z
1/2+x,-y,1/2-z
-x,1/2+y,1/2-z
1/2+y,1/2+x,-z
-y,-x,-z
-x,-y,-z
1/2+y,-x,1/2-z
1/2+x,1/2+y,-z
-y,1/2+x,1/2-z
1/2-x,y,1/2+z
x,1/2-y,1/2+z
1/2-y,1/2-x,z
y,x,z
loop_
_atom_site_type_symbol
_atom_site_label
_atom_site_fract_x
_atom_site_fract_y
_atom_site_fract_z
Si Si1 0.750000 0.750000 0.661626
Si Si2 0.905878 0.158301 0.243903
Si Si3 0.880478 0.619523 0.412841
Si Si4 0.000000 0.000000 0.500000
O O1 0.825864 0.674137 0.557142
O O2 0.822453 0.822453 0.771520
O O3 0.785449 0.109915 0.216231
O O4 0.956508 0.090606 0.378919
O O5 0.992001 0.145367 0.109527
#
# Coordination Sequence:
#
# PCOD9571037 Si02
#       4
#     4  16   8   4
#     4  10  24  44  68 104 150 198 252 298 396 448
#     4  10  24  44  73 104 138 194 253 308 376 439
#     4  10  24  44  70 102 149 196 249 317 375 460
#     4  10  24  46  74  94 162 180 228 328 370 446
#
# _framework density 23.863462999999999
#
# number of rings (size 3 to 8) (size 9 to 14) (size 15 to 20)
#    0.000    2.000    0.000    0.000   14.000   10.000 
#    0.000    2.500    0.000    0.000    0.000    0.000 
#    0.000    0.000    0.000    0.000    0.000    0.000 
#
# Total GULP energy -178303.420314 kJ/mol
# GULP energy per Si atom -5571.981885 kJ/mol
# Density = 2.380915 g / cm^3
# Si number density = 23.863463 Si / 1000 Ang^3
#
#
#
# Elastic Constant Matrix: (Units=GPa)
#
#
# Indices 1 2 3 4 5 6 
#
# 1 155.5638 128.1246 54.5663 0.0000 0.0000 0.0000
# 2 128.1246 155.5638 54.5663 0.0000 0.0000 0.0000
# 3 54.5663 54.5663 110.0931 0.0000 0.0000 0.0000
# 4 0.0000 0.0000 0.0000 -17.6437 0.0000 0.0000
# 5 0.0000 0.0000 0.0000 0.0000 -17.6437 0.0000
# 6 0.0000 0.0000 0.0000 0.0000 0.0000 46.8660
#
#
#
# Elastic Compliance Matrix: (Units=1/GPa)
#
#
# Indices 1 2 3 4 5 6 
#
# 1 0.020400 -0.016044 -0.002159 0.000000 0.000000 0.000000
# 2 -0.016044 0.020400 -0.002159 0.000000 0.000000 0.000000
# 3 -0.002159 -0.002159 0.011223 0.000000 0.000000 0.000000
# 4 0.000000 0.000000 0.000000 -0.056678 0.000000 0.000000
# 5 0.000000 0.000000 0.000000 0.000000 -0.056678 0.000000
# 6 0.000000 0.000000 0.000000 0.000000 0.000000 0.021337
#
#
# Mechanical properties :
#
#
# Convention : Reuss Voigt Hill
#
# Bulk Modulus (GPa) = 88.50261 99.52612 94.01437
# Shear Modulus (GPa) = 1112.33128 14.57996 563.45562
#
# Velocity S-wave (km/s) = 21.61331 2.47447 15.38275
# Velocity P-wave (km/s) = 25.69074 7.06831 18.84112
#
# Compressibility (1/GPa) = 0.01129910
#
# Stress axis : x y z
#
# Youngs Moduli (GPa) = 49.02001 49.02001 89.10185
#
# Poissons Ratio (x) = 0.78650 0.19235
# Poissons Ratio (y) = 0.78650 0.19235
# Poissons Ratio (z) = 0.10582 0.10582
#
# Static dielectric constant tensor:
#      x y z
#    x 1.930480 0.000000 0.000000 
#    y 0.000000 1.930480 0.000000 
#    z 0.000000 0.000000 1.868180 
# 
# From -- ./inp_files/2138.got.cif
#   From: 2010.05.17/outbox.cif.g08.bks.cpg/sg138_2_cif.got.tgz:2138.got - 2010.05.20 13:08:53.
