data_PCOD9571250
_publ_section_title
;
Structure prediction by ZEFSAII (Michael W. Deem and Ramdas Pophale) SiO2 
 PCOD9571250
Probable space group: I 4/M M M
;
_chemical_formula_sum "Si O2"
_cell_formula_units_Z 160
_cell_length_a 28.883966
_cell_length_b 28.883966
_cell_length_c 10.070468
_cell_angle_alpha 90.000000
_cell_angle_beta 90.000000
_cell_angle_gamma 90.000000
_cell_volume 8401.625208
_symmetry_space_group_name_H-M "I 4/M M M"
_symmetry_group_IT_number 139
_symmetry_cell_setting 'tetragonal'
loop_
_space_group_symop_operation_xyz
x,y,z
-y,x,z
-x,-y,z
y,-x,z
x,-y,-z
-x,y,-z
y,x,-z
-y,-x,-z
-x,-y,-z
y,-x,-z
x,y,-z
-y,x,-z
-x,y,z
x,-y,z
-y,-x,z
y,x,z
1/2+x,1/2+y,1/2+z
1/2-y,1/2+x,1/2+z
1/2-x,1/2-y,1/2+z
1/2+y,1/2-x,1/2+z
1/2+x,1/2-y,1/2-z
1/2-x,1/2+y,1/2-z
1/2+y,1/2+x,1/2-z
1/2-y,1/2-x,1/2-z
1/2-x,1/2-y,1/2-z
1/2+y,1/2-x,1/2-z
1/2+x,1/2+y,1/2-z
1/2-y,1/2+x,1/2-z
1/2-x,1/2+y,1/2+z
1/2+x,1/2-y,1/2+z
1/2-y,1/2-x,1/2+z
1/2+y,1/2+x,1/2+z
loop_
_atom_site_type_symbol
_atom_site_label
_atom_site_fract_x
_atom_site_fract_y
_atom_site_fract_z
Si Si1 0.554198 0.368086 0.156830
Si Si2 0.948896 0.350964 0.500000
Si Si3 0.917944 0.450097 0.500000
Si Si4 0.445919 0.164746 0.704752
Si Si5 0.289494 0.148895 0.849572
Si Si6 0.112854 0.190966 0.848226
O O1 0.500000 0.377179 0.183823
O O2 0.586760 0.413241 0.180855
O O3 0.573375 0.326237 0.247510
O O4 0.558805 0.356752 0.000000
O O5 0.950070 0.406280 0.500000
O O6 0.929462 0.338004 0.642194
O O7 0.000000 0.330790 0.500000
O O8 0.940964 0.500000 0.500000
O O9 0.884200 0.447025 0.628064
O O10 0.500000 0.181274 0.696764
O O11 0.404183 0.192774 0.642047
O O12 0.320348 0.179653 0.750000
O O13 0.236480 0.141275 0.805968
O O14 0.291080 0.168325 0.000000
O O15 0.149154 0.149154 0.852480
O O16 0.095817 0.198740 0.000000
#
# Coordination Sequence:
#
# PCOD9571250 Si02
#       6
#    32  16  16  32  32  32
#     4   9  18  34  57  87 123 162 202 243 287 336
#     4  10  20  33  48  68  95 127 163 205 254 306
#     4  10  18  31  50  68  93 125 159 203 252 310
#     4  10  21  35  51  73 100 131 167 211 266 321
#     4  11  23  37  58  83 108 140 182 232 284 343
#     4   9  20  39  59  81 112 150 190 232 283 340
#
# _framework density 19.043934
#
# number of rings (size 3 to 8) (size 9 to 14) (size 15 to 20)
#    0.000    2.200    1.000    1.800    1.400    2.800 
#    0.000    3.000    0.000    3.600    0.000    2.800 
#    0.000    0.000    0.000    0.000    0.000    0.000 
#
# Total GULP energy -445343.574187 kJ/mol
# GULP energy per Si atom -5566.794677 kJ/mol
# Density = 1.900059 g / cm^3
# Si number density = 19.043934 Si / 1000 Ang^3
#
#
#
# Elastic Constant Matrix: (Units=GPa)
#
#
# Indices 1 2 3 4 5 6 
#
# 1 71.1529 24.8857 43.8228 0.0000 0.0000 0.0000
# 2 24.8857 71.1541 43.8247 0.0000 0.0000 0.0000
# 3 43.8228 43.8247 118.9718 0.0000 0.0000 0.0000
# 4 0.0000 0.0000 0.0000 -8.0188 0.0000 0.0000
# 5 0.0000 0.0000 0.0000 0.0000 -8.0583 0.0000
# 6 0.0000 0.0000 0.0000 0.0000 0.0000 0.6189
#
#
#
# Elastic Compliance Matrix: (Units=1/GPa)
#
#
# Indices 1 2 3 4 5 6 
#
# 1 0.018649 -0.002964 -0.005778 0.000000 0.000000 0.000000
# 2 -0.002964 0.018649 -0.005778 0.000000 0.000000 0.000000
# 3 -0.005778 -0.005778 0.012662 0.000000 0.000000 0.000000
# 4 0.000000 0.000000 0.000000 -0.124707 0.000000 0.000000
# 5 0.000000 0.000000 0.000000 0.000000 -0.124096 0.000000
# 6 0.000000 0.000000 0.000000 0.000000 0.000000 1.615887
#
#
# Mechanical properties :
#
#
# Convention : Reuss Voigt Hill
#
# Bulk Modulus (GPa) = 47.79772 54.03836 50.91804
# Shear Modulus (GPa) = 3.44102 6.82473 5.13287
#
# Velocity S-wave (km/s) = 1.34566 1.89511 1.64351
# Velocity P-wave (km/s) = 5.25048 5.76419 5.51332
#
# Compressibility (1/GPa) = 0.02092150
#
# Stress axis : x y z
#
# Youngs Moduli (GPa) = 53.62132 53.62112 78.97724
#
# Poissons Ratio (x) = 0.15893 0.45630
# Poissons Ratio (y) = 0.15893 0.45633
# Poissons Ratio (z) = 0.30980 0.30982
#
# Static dielectric constant tensor:
#      x y z
#    x 1.670910 0.000000 0.000000 
#    y 0.000000 1.670910 0.000000 
#    z 0.000000 0.000000 1.920020 
# 
# From -- ./inp_files/2189.got.cif
#   From: 2010.05.17/outbox.cif.g08.bks.cpg/sg139_2_cif.got.tgz:2189.got - 2010.05.20 13:14:44.
