data_PCOD9571202
_publ_section_title
;
Structure prediction by ZEFSAII (Michael W. Deem and Ramdas Pophale) SiO2 
 PCOD9571202
Probable space group: I 4/M M M
;
_chemical_formula_sum "Si O2"
_cell_formula_units_Z 160
_cell_length_a 22.455633
_cell_length_b 22.455633
_cell_length_c 19.342029
_cell_angle_alpha 90.000000
_cell_angle_beta 90.000000
_cell_angle_gamma 90.000000
_cell_volume 9753.323604
_symmetry_space_group_name_H-M "I 4/M M M"
_symmetry_group_IT_number 139
_symmetry_cell_setting 'tetragonal'
loop_
_space_group_symop_operation_xyz
x,y,z
-y,x,z
-x,-y,z
y,-x,z
x,-y,-z
-x,y,-z
y,x,-z
-y,-x,-z
-x,-y,-z
y,-x,-z
x,y,-z
-y,x,-z
-x,y,z
x,-y,z
-y,-x,z
y,x,z
1/2+x,1/2+y,1/2+z
1/2-y,1/2+x,1/2+z
1/2-x,1/2-y,1/2+z
1/2+y,1/2-x,1/2+z
1/2+x,1/2-y,1/2-z
1/2-x,1/2+y,1/2-z
1/2+y,1/2+x,1/2-z
1/2-y,1/2-x,1/2-z
1/2-x,1/2-y,1/2-z
1/2+y,1/2-x,1/2-z
1/2+x,1/2+y,1/2-z
1/2-y,1/2+x,1/2-z
1/2-x,1/2+y,1/2+z
1/2+x,1/2-y,1/2+z
1/2-y,1/2-x,1/2+z
1/2+y,1/2+x,1/2+z
loop_
_atom_site_type_symbol
_atom_site_label
_atom_site_fract_x
_atom_site_fract_y
_atom_site_fract_z
Si Si1 0.289578 0.390093 0.576838
Si Si2 0.065953 0.431603 0.915982
Si Si3 0.830184 0.931551 0.221300
Si Si4 0.742027 0.157658 0.710713
Si Si5 0.840254 0.667179 0.418538
O O1 0.291003 0.417753 0.500000
O O2 0.333405 0.333405 0.576127
O O3 0.312049 0.429139 0.640280
O O4 0.223881 0.364175 0.589310
O O5 0.074451 0.500000 0.894525
O O6 0.119128 0.389179 0.895131
O O7 0.000000 0.411660 0.893329
O O8 0.065401 0.430899 0.000000
O O9 0.887477 0.887477 0.230813
O O10 0.773642 0.901442 0.260311
O O11 0.841085 0.000000 0.241745
O O12 0.792173 0.207828 0.720924
O O13 0.683440 0.183440 0.750000
O O14 0.723569 0.154389 0.630906
O O15 0.847786 0.680749 0.500000
#
# Coordination Sequence:
#
# PCOD9571202 Si02
#       5
#    32  32  32  32  32
#     4   9  17  30  49  75 105 132 162 204 251 298
#     4   8  15  28  43  61  91 129 164 197 233 274
#     4  10  21  36  54  75 101 137 175 213 260 308
#     4  10  19  34  51  70 101 134 162 201 255 305
#     4  10  18  28  49  77 100 129 167 207 249 299
#
# _framework density 16.404664
#
# number of rings (size 3 to 8) (size 9 to 14) (size 15 to 20)
#    0.000    2.600    2.000    1.200    0.000    3.400 
#    0.000    2.000    0.000    0.000    0.000    4.200 
#    0.000    0.000    0.000    4.400    0.000    0.000 
#
# Total GULP energy -445432.938220 kJ/mol
# GULP energy per Si atom -5567.911728 kJ/mol
# Density = 1.636733 g / cm^3
# Si number density = 16.404664 Si / 1000 Ang^3
#
#
#
# Elastic Constant Matrix: (Units=GPa)
#
#
# Indices 1 2 3 4 5 6 
#
# 1 62.5779 29.5317 20.0063 0.0000 0.0000 0.0000
# 2 29.5317 62.5779 20.0063 0.0000 0.0000 0.0000
# 3 20.0063 20.0063 42.8004 0.0000 0.0000 0.0000
# 4 0.0000 0.0000 0.0000 15.2008 0.0000 0.0000
# 5 0.0000 0.0000 0.0000 0.0000 15.2008 0.0000
# 6 0.0000 0.0000 0.0000 0.0000 0.0000 -9.0412
#
#
#
# Elastic Compliance Matrix: (Units=1/GPa)
#
#
# Indices 1 2 3 4 5 6 
#
# 1 0.021942 -0.008319 -0.006368 0.000000 0.000000 0.000000
# 2 -0.008319 0.021942 -0.006368 0.000000 0.000000 0.000000
# 3 -0.006368 -0.006368 0.029317 0.000000 0.000000 0.000000
# 4 0.000000 0.000000 0.000000 0.065786 0.000000 0.000000
# 5 0.000000 0.000000 0.000000 0.000000 0.065786 0.000000
# 6 0.000000 0.000000 0.000000 0.000000 0.000000 -0.110605
#
#
# Mechanical properties :
#
#
# Convention : Reuss Voigt Hill
#
# Bulk Modulus (GPa) = 32.16274 34.11609 33.13942
# Shear Modulus (GPa) = 34.09695 10.83288 22.46492
#
# Velocity S-wave (km/s) = 4.56399 2.57252 3.70459
# Velocity P-wave (km/s) = 6.88635 5.44661 6.20836
#
# Compressibility (1/GPa) = 0.03109187
#
# Stress axis : x y z
#
# Youngs Moduli (GPa) = 45.57532 45.57532 34.10966
#
# Poissons Ratio (x) = 0.37914 0.21720
# Poissons Ratio (y) = 0.37914 0.21720
# Poissons Ratio (z) = 0.29021 0.29021
#
# Static dielectric constant tensor:
#      x y z
#    x 1.550050 0.000000 0.000000 
#    y 0.000000 1.550050 0.000000 
#    z 0.000000 0.000000 1.578900 
# 
# From -- ./inp_files/8392.got.cif
#   From: 2010.05.17/outbox.cif.g08.bks.cpg/sg139_5_cif.got.tgz:8392.got - 2010.05.20 13:14:44.
