data_PCOD9571346
_publ_section_title
;
Structure prediction by ZEFSAII (Michael W. Deem and Ramdas Pophale) SiO2 
 PCOD9571346
Probable space group: I 4/M M M
;
_chemical_formula_sum "Si O2"
_cell_formula_units_Z 224
_cell_length_a 22.970710
_cell_length_b 22.970710
_cell_length_c 25.932001
_cell_angle_alpha 90.000000
_cell_angle_beta 90.000000
_cell_angle_gamma 90.000000
_cell_volume 13683.111554
_symmetry_space_group_name_H-M "I 4/M M M"
_symmetry_group_IT_number 139
_symmetry_cell_setting 'tetragonal'
loop_
_space_group_symop_operation_xyz
x,y,z
-y,x,z
-x,-y,z
y,-x,z
x,-y,-z
-x,y,-z
y,x,-z
-y,-x,-z
-x,-y,-z
y,-x,-z
x,y,-z
-y,x,-z
-x,y,z
x,-y,z
-y,-x,z
y,x,z
1/2+x,1/2+y,1/2+z
1/2-y,1/2+x,1/2+z
1/2-x,1/2-y,1/2+z
1/2+y,1/2-x,1/2+z
1/2+x,1/2-y,1/2-z
1/2-x,1/2+y,1/2-z
1/2+y,1/2+x,1/2-z
1/2-y,1/2-x,1/2-z
1/2-x,1/2-y,1/2-z
1/2+y,1/2-x,1/2-z
1/2+x,1/2+y,1/2-z
1/2-y,1/2+x,1/2-z
1/2-x,1/2+y,1/2+z
1/2+x,1/2-y,1/2+z
1/2-y,1/2-x,1/2+z
1/2+y,1/2+x,1/2+z
loop_
_atom_site_type_symbol
_atom_site_label
_atom_site_fract_x
_atom_site_fract_y
_atom_site_fract_z
Si Si1 0.830084 0.739619 0.561170
Si Si2 0.933174 0.369130 0.060846
Si Si3 0.431455 0.162692 0.770343
Si Si4 0.156878 0.933951 0.938601
Si Si5 0.235835 0.632233 0.607350
Si Si6 0.934286 0.673114 0.393168
Si Si7 0.657471 0.249859 0.272253
O O1 0.839755 0.740146 0.500000
O O2 0.799536 0.799536 0.577083
O O3 0.785204 0.687811 0.574814
O O4 0.888516 0.722021 0.590140
O O5 0.916074 0.313416 0.095336
O O6 0.885707 0.416972 0.076490
O O7 0.000000 0.386464 0.069344
O O8 0.926521 0.354491 0.000000
O O9 0.500000 0.157793 0.755293
O O10 0.390293 0.109708 0.750000
O O11 0.428479 0.161372 0.832363
O O12 0.402238 0.223927 0.751923
O O13 0.093634 0.906367 0.930317
O O14 0.203878 0.893699 0.911425
O O15 0.161324 0.000000 0.920693
O O16 0.168502 0.932605 0.000000
O O17 0.240226 0.650653 0.666607
O O18 0.000000 0.689943 0.404890
O O19 0.685772 0.314229 0.263100
O O20 0.705441 0.205441 0.250000
#
# Coordination Sequence:
#
# PCOD9571346 Si02
#       7
#    32  32  32  32  32  32  32
#     4  10  19  30  48  73  97 122 152 186 229 282
#     4  10  20  32  48  71  98 131 168 200 231 271
#     4  10  21  35  51  71  95 126 164 202 243 289
#     4  10  20  32  46  65  91 124 161 200 240 281
#     4  11  19  30  49  71  95 122 153 195 244 284
#     4  10  21  35  50  69  95 128 162 196 236 280
#     4  10  20  33  50  71  94 121 154 194 242 290
#
# _framework density 16.370546000000001
#
# number of rings (size 3 to 8) (size 9 to 14) (size 15 to 20)
#    0.000    1.857    0.000    7.714    0.000    8.571 
#    0.000    2.857    0.000    0.000    0.000    0.000 
#    0.000    0.571    0.000    4.714    0.000    2.286 
#
# Total GULP energy -624508.521905 kJ/mol
# GULP energy per Si atom -5575.968946 kJ/mol
# Density = 1.633329 g / cm^3
# Si number density = 16.370546 Si / 1000 Ang^3
#
#
#
# Elastic Constant Matrix: (Units=GPa)
#
#
# Indices 1 2 3 4 5 6 
#
# 1 70.5813 93.9697 34.7241 0.0000 0.0000 0.0000
# 2 93.9697 70.5813 34.7235 0.0000 0.0000 0.0000
# 3 34.7241 34.7235 48.3417 0.0000 0.0000 0.0000
# 4 0.0000 0.0000 0.0000 -433.6530 0.0005 0.0000
# 5 0.0000 0.0000 0.0000 0.0005 -432.9812 0.0000
# 6 0.0000 0.0000 0.0000 0.0000 0.0000 11.1636
#
#
#
# Elastic Compliance Matrix: (Units=1/GPa)
#
#
# Indices 1 2 3 4 5 6 
#
# 1 -0.017018 0.025739 -0.006264 0.000000 0.000000 0.000000
# 2 0.025739 -0.017018 -0.006265 0.000000 0.000000 0.000000
# 3 -0.006264 -0.006265 0.029685 0.000000 0.000000 0.000000
# 4 0.000000 0.000000 0.000000 -0.002306 0.000000 0.000000
# 5 0.000000 0.000000 0.000000 0.000000 -0.002310 0.000000
# 6 0.000000 0.000000 0.000000 0.000000 0.000000 0.089577
#
#
# Mechanical properties :
#
#
# Convention : Reuss Voigt Hill
#
# Bulk Modulus (GPa) = 45.31002 57.37100 51.34051
# Shear Modulus (GPa) = 81.23735 -169.35498 -44.05881
#
# Velocity S-wave (km/s) = 7.05208 -10.18212 -5.19345
# Velocity P-wave (km/s) = 9.69778 10.15445 2.12907
#
# Compressibility (1/GPa) = 0.02207017
#
# Stress axis : x y z
#
# Youngs Moduli (GPa) = -58.76210 -58.76300 33.68676
#
# Poissons Ratio (x) = 1.51247 0.21101
# Poissons Ratio (y) = 1.51245 0.21103
# Poissons Ratio (z) = -0.36808 -0.36812
#
# Static dielectric constant tensor:
#      x y z
#    x 1.569810 0.000000 0.000000 
#    y 0.000000 1.569810 0.000000 
#    z 0.000000 0.000000 1.545770 
# 
# From -- ./inp_files/12209.got.cif
#   From: 2010.05.17/outbox.cif.g08.bks.cpg/sg139_7_cif.got.tgz:12209.got - 2010.05.20 13:14:44.
