data_PCOD9571944
_publ_section_title
;
Structure prediction by ZEFSAII (Michael W. Deem and Ramdas Pophale) SiO2 
 PCOD9571944
Probable space group: I 4/M M M
;
_chemical_formula_sum "Si O2"
_cell_formula_units_Z 120
_cell_length_a 19.344992
_cell_length_b 19.344992
_cell_length_c 15.286413
_cell_angle_alpha 90.000000
_cell_angle_beta 90.000000
_cell_angle_gamma 90.000000
_cell_volume 5720.614701
_symmetry_space_group_name_H-M "I 4/M M M"
_symmetry_group_IT_number 139
_symmetry_cell_setting 'tetragonal'
loop_
_space_group_symop_operation_xyz
x,y,z
-y,x,z
-x,-y,z
y,-x,z
x,-y,-z
-x,y,-z
y,x,-z
-y,-x,-z
-x,-y,-z
y,-x,-z
x,y,-z
-y,x,-z
-x,y,z
x,-y,z
-y,-x,z
y,x,z
1/2+x,1/2+y,1/2+z
1/2-y,1/2+x,1/2+z
1/2-x,1/2-y,1/2+z
1/2+y,1/2-x,1/2+z
1/2+x,1/2-y,1/2-z
1/2-x,1/2+y,1/2-z
1/2+y,1/2+x,1/2-z
1/2-y,1/2-x,1/2-z
1/2-x,1/2-y,1/2-z
1/2+y,1/2-x,1/2-z
1/2+x,1/2+y,1/2-z
1/2-y,1/2+x,1/2-z
1/2-x,1/2+y,1/2+z
1/2+x,1/2-y,1/2+z
1/2-y,1/2-x,1/2+z
1/2+y,1/2+x,1/2+z
loop_
_atom_site_type_symbol
_atom_site_label
_atom_site_fract_x
_atom_site_fract_y
_atom_site_fract_z
Si Si1 0.191043 0.080788 0.347241
Si Si2 0.232387 0.077436 0.143514
Si Si3 0.624858 0.375143 0.500000
Si Si4 0.923071 0.576930 0.250000
Si Si5 0.635410 0.834443 0.901243
O O1 0.119044 0.119044 0.364819
O O2 0.207054 0.084455 0.243117
O O3 0.252907 0.123508 0.392223
O O4 0.192325 0.000000 0.372739
O O5 0.288242 0.136624 0.120741
O O6 0.262886 0.000000 0.134129
O O7 0.170122 0.085685 0.076459
O O8 0.915608 0.500000 0.286059
O O9 0.869117 0.588401 0.172810
O O10 0.618379 0.855766 0.000000
#
# Coordination Sequence:
#
# PCOD9571944 Si02
#       5
#    32  32   8  16  32
#     4  11  25  45  69  97 134 178 226 281 344 410
#     4  11  23  40  65 100 142 185 226 280 343 402
#     4  12  22  36  66 105 140 182 233 272 336 406
#     4  11  24  42  63  92 138 186 225 276 345 414
#     4  12  25  41  70 100 135 174 230 285 342 404
#
# _framework density 20.976766000000001
#
# number of rings (size 3 to 8) (size 9 to 14) (size 15 to 20)
#    0.000    0.667    5.333    2.000    1.867    5.600 
#    0.000    1.333    0.000    3.200    0.000    1.867 
#    0.000    0.000    0.000    0.000    0.000    0.000 
#
# Total GULP energy -334355.111318 kJ/mol
# GULP energy per Si atom -5572.585189 kJ/mol
# Density = 2.092902 g / cm^3
# Si number density = 20.976766 Si / 1000 Ang^3
#
#
#
# Elastic Constant Matrix: (Units=GPa)
#
#
# Indices 1 2 3 4 5 6 
#
# 1 74.3807 75.3269 4.2263 0.0000 0.0000 0.0000
# 2 75.3269 74.3792 4.2267 0.0000 0.0000 0.0000
# 3 4.2263 4.2267 52.7455 0.0000 0.0000 0.0000
# 4 0.0000 0.0000 0.0000 -22.4262 0.0000 0.0000
# 5 0.0000 0.0000 0.0000 0.0000 -22.4333 0.0000
# 6 0.0000 0.0000 0.0000 0.0000 0.0000 34.3149
#
#
#
# Elastic Compliance Matrix: (Units=1/GPa)
#
#
# Indices 1 2 3 4 5 6 
#
# 1 -0.524661 0.531377 -0.000542 0.000000 0.000000 0.000000
# 2 0.531377 -0.524673 -0.000533 0.000000 0.000000 0.000000
# 3 -0.000542 -0.000533 0.019045 0.000000 0.000000 0.000000
# 4 0.000000 0.000000 0.000000 -0.044591 0.000000 0.000000
# 5 0.000000 0.000000 0.000000 0.000000 -0.044577 0.000000
# 6 0.000000 0.000000 0.000000 0.000000 0.000000 0.029142
#
#
# Mechanical properties :
#
#
# Convention : Reuss Voigt Hill
#
# Bulk Modulus (GPa) = 32.98741 41.00723 36.99732
# Shear Modulus (GPa) = -2.33556 5.73945 1.70194
#
# Velocity S-wave (km/s) = -1.05632 1.65591 0.90173
# Velocity P-wave (km/s) = 3.77784 4.82155 4.33125
#
# Compressibility (1/GPa) = 0.03031460
#
# Stress axis : x y z
#
# Youngs Moduli (GPa) = -1.90599 -1.90595 52.50683
#
# Poissons Ratio (x) = 1.01278 0.02845
# Poissons Ratio (y) = 1.01280 0.02801
# Poissons Ratio (z) = -0.00103 -0.00102
#
# Static dielectric constant tensor:
#      x y z
#    x 1.760410 0.000000 0.000000 
#    y 0.000000 1.760420 0.000000 
#    z 0.000000 0.000000 1.725180 
# 
# From -- ./inp_files/5334.got.cif
#   From: 2010.05.17/outbox.cif.g08.bks.cpg/sg139_3_cif.got.tgz:5334.got - 2010.05.20 13:14:44.
