data_PCOD9571219
_publ_section_title
;
Structure prediction by ZEFSAII (Michael W. Deem and Ramdas Pophale) SiO2 
 PCOD9571219
Probable space group: I 4/M M M
;
_chemical_formula_sum "Si O2"
_cell_formula_units_Z 112
_cell_length_a 27.889597
_cell_length_b 27.889597
_cell_length_c 8.753674
_cell_angle_alpha 90.000000
_cell_angle_beta 90.000000
_cell_angle_gamma 90.000000
_cell_volume 6808.866928
_symmetry_space_group_name_H-M "I 4/M M M"
_symmetry_group_IT_number 139
_symmetry_cell_setting 'tetragonal'
loop_
_space_group_symop_operation_xyz
x,y,z
-y,x,z
-x,-y,z
y,-x,z
x,-y,-z
-x,y,-z
y,x,-z
-y,-x,-z
-x,-y,-z
y,-x,-z
x,y,-z
-y,x,-z
-x,y,z
x,-y,z
-y,-x,z
y,x,z
1/2+x,1/2+y,1/2+z
1/2-y,1/2+x,1/2+z
1/2-x,1/2-y,1/2+z
1/2+y,1/2-x,1/2+z
1/2+x,1/2-y,1/2-z
1/2-x,1/2+y,1/2-z
1/2+y,1/2+x,1/2-z
1/2-y,1/2-x,1/2-z
1/2-x,1/2-y,1/2-z
1/2+y,1/2-x,1/2-z
1/2+x,1/2+y,1/2-z
1/2-y,1/2+x,1/2-z
1/2-x,1/2+y,1/2+z
1/2+x,1/2-y,1/2+z
1/2-y,1/2-x,1/2+z
1/2+y,1/2+x,1/2+z
loop_
_atom_site_type_symbol
_atom_site_label
_atom_site_fract_x
_atom_site_fract_y
_atom_site_fract_z
Si Si1 0.357625 0.782788 0.680928
Si Si2 0.944694 0.865899 0.184037
Si Si3 0.943458 0.760118 0.321420
Si Si4 0.712012 0.712012 0.182594
O O1 0.351225 0.782955 0.500000
O O2 0.326563 0.826563 0.750000
O O3 0.412481 0.779014 0.730647
O O4 0.336559 0.733162 0.750857
O O5 0.906029 0.906029 0.231513
O O6 0.935780 0.814026 0.258076
O O7 0.000000 0.879842 0.220003
O O8 0.941438 0.860810 0.000000
O O9 0.930220 0.758509 0.500000
O O10 0.000000 0.750720 0.306724
O O11 0.750000 0.750000 0.250000
O O12 0.711909 0.711909 0.000000
#
# Coordination Sequence:
#
# PCOD9571219 Si02
#       4
#    32  32  32  16
#     4  11  21  34  52  74 101 130 164 203 246 295
#     4   9  18  32  49  69  93 123 163 210 259 308
#     4  10  21  36  52  71  98 132 168 206 250 299
#     4  10  18  30  46  68  98 128 161 198 241 288
#
# _framework density 16.44914
#
# number of rings (size 3 to 8) (size 9 to 14) (size 15 to 20)
#    0.000    2.000    0.000    6.429    2.000    2.571 
#    0.000    1.429    0.000    0.000    0.000    4.000 
#    0.000    0.571    0.000    6.000    0.000    2.571 
#
# Total GULP energy -312328.896029 kJ/mol
# GULP energy per Si atom -5577.301715 kJ/mol
# Density = 1.641170 g / cm^3
# Si number density = 16.449140 Si / 1000 Ang^3
#
#
#
# Elastic Constant Matrix: (Units=GPa)
#
#
# Indices 1 2 3 4 5 6 
#
# 1 67.5188 45.3798 45.2394 0.0000 0.0000 0.0000
# 2 45.3798 67.5188 45.2394 0.0000 0.0000 0.0000
# 3 45.2394 45.2394 123.0562 0.0000 0.0000 0.0000
# 4 0.0000 0.0000 0.0000 22.8387 0.0000 0.0000
# 5 0.0000 0.0000 0.0000 0.0000 22.8387 0.0000
# 6 0.0000 0.0000 0.0000 0.0000 0.0000 32.1527
#
#
#
# Elastic Compliance Matrix: (Units=1/GPa)
#
#
# Indices 1 2 3 4 5 6 
#
# 1 0.028863 -0.016306 -0.004616 0.000000 0.000000 0.000000
# 2 -0.016306 0.028863 -0.004616 0.000000 0.000000 0.000000
# 3 -0.004616 -0.004616 0.011521 0.000000 0.000000 0.000000
# 4 0.000000 0.000000 0.000000 0.043785 0.000000 0.000000
# 5 0.000000 0.000000 0.000000 0.000000 0.043785 0.000000
# 6 0.000000 0.000000 0.000000 0.000000 0.000000 0.031102
#
#
# Mechanical properties :
#
#
# Convention : Reuss Voigt Hill
#
# Bulk Modulus (GPa) = 55.03779 58.86789 56.95284
# Shear Modulus (GPa) = 20.40370 23.71501 22.05935
#
# Velocity S-wave (km/s) = 3.52577 3.80111 3.66603
# Velocity P-wave (km/s) = 7.07861 7.42497 7.25386
#
# Compressibility (1/GPa) = 0.01816933
#
# Stress axis : x y z
#
# Youngs Moduli (GPa) = 34.64617 34.64617 86.80051
#
# Poissons Ratio (x) = 0.56494 0.40071
# Poissons Ratio (y) = 0.56494 0.40071
# Poissons Ratio (z) = 0.15994 0.15994
#
# Static dielectric constant tensor:
#      x y z
#    x 1.561690 0.000000 0.000000 
#    y 0.000000 1.561690 0.000000 
#    z 0.000000 0.000000 1.564740 
# 
# From -- ./inp_files/1677.got.cif
#   From: 2010.05.17/outbox.cif.g08.bks.cpg/sg139_1_cif.got.tgz:1677.got - 2010.05.20 13:14:44.
