data_PCOD9571308
_publ_section_title
;
Structure prediction by ZEFSAII (Michael W. Deem and Ramdas Pophale) SiO2 
 PCOD9571308
Probable space group: I 4/M M M
;
_chemical_formula_sum "Si O2"
_cell_formula_units_Z 128
_cell_length_a 34.416563
_cell_length_b 34.416563
_cell_length_c 7.969509
_cell_angle_alpha 90.000000
_cell_angle_beta 90.000000
_cell_angle_gamma 90.000000
_cell_volume 9439.881886
_symmetry_space_group_name_H-M "I 4/M M M"
_symmetry_group_IT_number 139
_symmetry_cell_setting 'tetragonal'
loop_
_space_group_symop_operation_xyz
x,y,z
-y,x,z
-x,-y,z
y,-x,z
x,-y,-z
-x,y,-z
y,x,-z
-y,-x,-z
-x,-y,-z
y,-x,-z
x,y,-z
-y,x,-z
-x,y,z
x,-y,z
-y,-x,z
y,x,z
1/2+x,1/2+y,1/2+z
1/2-y,1/2+x,1/2+z
1/2-x,1/2-y,1/2+z
1/2+y,1/2-x,1/2+z
1/2+x,1/2-y,1/2-z
1/2-x,1/2+y,1/2-z
1/2+y,1/2+x,1/2-z
1/2-y,1/2-x,1/2-z
1/2-x,1/2-y,1/2-z
1/2+y,1/2-x,1/2-z
1/2+x,1/2+y,1/2-z
1/2-y,1/2+x,1/2-z
1/2-x,1/2+y,1/2+z
1/2+x,1/2-y,1/2+z
1/2-y,1/2-x,1/2+z
1/2+y,1/2+x,1/2+z
loop_
_atom_site_type_symbol
_atom_site_label
_atom_site_fract_x
_atom_site_fract_y
_atom_site_fract_z
Si Si1 0.607756 0.955277 0.200785
Si Si2 0.545932 0.610263 0.193607
Si Si3 0.047049 0.165611 0.000000
Si Si4 0.452470 0.754642 0.500000
Si Si5 0.952786 0.693523 0.313808
O O1 0.572989 0.927012 0.250000
O O2 0.648796 0.942139 0.278364
O O3 0.600336 0.000000 0.253926
O O4 0.612380 0.955273 0.000000
O O5 0.500000 0.602011 0.216531
O O6 0.571950 0.571950 0.216019
O O7 0.557917 0.641838 0.332646
O O8 0.551016 0.623649 0.000000
O O9 0.060711 0.210048 0.000000
O O10 0.000000 0.167174 0.000000
O O11 0.500000 0.754628 0.500000
O O12 0.439853 0.778156 0.334707
O O13 0.940164 0.705328 0.500000
O O14 0.000000 0.694082 0.310542
#
# Coordination Sequence:
#
# PCOD9571308 Si02
#       5
#    32  32  16  16  32
#     4  10  19  30  42  56  77 102 133 173 209 245
#     4   9  17  28  41  58  82 113 149 184 214 243
#     4   9  17  27  40  57  79 103 134 177 219 252
#     4   9  16  27  41  58  76  97 127 166 209 252
#     4   9  16  27  42  57  74  96 124 161 203 245
#
# _framework density 13.559492000000001
#
# number of rings (size 3 to 8) (size 9 to 14) (size 15 to 20)
#    0.000    2.750    1.250    1.125    0.000    3.000 
#    0.000    7.500    0.000    2.250    0.000    0.000 
#    0.000    0.000    0.000    0.000    0.000    5.000 
#
# Total GULP energy -356342.318242 kJ/mol
# GULP energy per Si atom -5567.848723 kJ/mol
# Density = 1.352863 g / cm^3
# Si number density = 13.559492 Si / 1000 Ang^3
#
#
#
# Elastic Constant Matrix: (Units=GPa)
#
#
# Indices 1 2 3 4 5 6 
#
# 1 62.5905 33.7064 48.5351 0.0000 0.0000 0.0000
# 2 33.7064 62.5855 48.5331 0.0000 0.0000 0.0000
# 3 48.5351 48.5331 115.2044 0.0000 0.0000 0.0000
# 4 0.0000 0.0000 0.0000 11.6410 0.0000 0.0000
# 5 0.0000 0.0000 0.0000 0.0000 11.6407 0.0000
# 6 0.0000 0.0000 0.0000 0.0000 0.0000 -0.1373
#
#
#
# Elastic Compliance Matrix: (Units=1/GPa)
#
#
# Indices 1 2 3 4 5 6 
#
# 1 0.026336 -0.008287 -0.007604 0.000000 0.000000 0.000000
# 2 -0.008287 0.026338 -0.007604 0.000000 0.000000 0.000000
# 3 -0.007604 -0.007604 0.015087 0.000000 0.000000 0.000000
# 4 0.000000 0.000000 0.000000 0.085903 0.000000 0.000000
# 5 0.000000 0.000000 0.000000 0.000000 0.085905 0.000000
# 6 0.000000 0.000000 0.000000 0.000000 0.000000 -7.284398
#
#
# Mechanical properties :
#
#
# Convention : Reuss Voigt Hill
#
# Bulk Modulus (GPa) = 48.14494 55.76996 51.95745
# Shear Modulus (GPa) = -0.71521 11.93595 5.61037
#
# Velocity S-wave (km/s) = -0.72705 2.97015 2.03631
# Velocity P-wave (km/s) = 5.90582 7.27884 6.62798
#
# Compressibility (1/GPa) = 0.02077061
#
# Stress axis : x y z
#
# Youngs Moduli (GPa) = 37.97070 37.96769 66.28031
#
# Poissons Ratio (x) = 0.31463 0.50401
# Poissons Ratio (y) = 0.31466 0.50403
# Poissons Ratio (z) = 0.28874 0.28872
#
# Static dielectric constant tensor:
#      x y z
#    x 1.421270 0.000000 0.000000 
#    y 0.000000 1.421270 0.000000 
#    z 0.000000 0.000000 1.479500 
# 
# From -- ./inp_files/1795.got.cif
#   From: 2010.05.17/outbox.cif.g08.bks.cpg/sg139_1_cif.got.tgz:1795.got - 2010.05.20 13:14:44.
