data_PCOD9571792
_publ_section_title
;
Structure prediction by ZEFSAII (Michael W. Deem and Ramdas Pophale) SiO2 
 PCOD9571792
Probable space group: I 4/M M M
;
_chemical_formula_sum "Si O2"
_cell_formula_units_Z 176
_cell_length_a 25.277197
_cell_length_b 25.277197
_cell_length_c 14.091943
_cell_angle_alpha 90.000000
_cell_angle_beta 90.000000
_cell_angle_gamma 90.000000
_cell_volume 9003.859390
_symmetry_space_group_name_H-M "I 4/M M M"
_symmetry_group_IT_number 139
_symmetry_cell_setting 'tetragonal'
loop_
_space_group_symop_operation_xyz
x,y,z
-y,x,z
-x,-y,z
y,-x,z
x,-y,-z
-x,y,-z
y,x,-z
-y,-x,-z
-x,-y,-z
y,-x,-z
x,y,-z
-y,x,-z
-x,y,z
x,-y,z
-y,-x,z
y,x,z
1/2+x,1/2+y,1/2+z
1/2-y,1/2+x,1/2+z
1/2-x,1/2-y,1/2+z
1/2+y,1/2-x,1/2+z
1/2+x,1/2-y,1/2-z
1/2-x,1/2+y,1/2-z
1/2+y,1/2+x,1/2-z
1/2-y,1/2-x,1/2-z
1/2-x,1/2-y,1/2-z
1/2+y,1/2-x,1/2-z
1/2+x,1/2+y,1/2-z
1/2-y,1/2+x,1/2-z
1/2-x,1/2+y,1/2+z
1/2+x,1/2-y,1/2+z
1/2-y,1/2-x,1/2+z
1/2+y,1/2+x,1/2+z
loop_
_atom_site_type_symbol
_atom_site_label
_atom_site_fract_x
_atom_site_fract_y
_atom_site_fract_z
Si Si1 0.258752 0.062545 0.386924
Si Si2 0.938779 0.500000 0.884466
Si Si3 0.797947 0.560897 0.614343
Si Si4 0.594731 0.678971 0.608976
Si Si5 0.354681 0.440077 0.804543
Si Si6 0.398114 0.871622 0.883857
O O1 0.253689 0.068627 0.500000
O O2 0.203090 0.077466 0.340782
O O3 0.310704 0.094066 0.355022
O O4 0.267894 0.000000 0.368637
O O5 0.906639 0.551648 0.854500
O O6 0.000000 0.500000 0.855683
O O7 0.938807 0.500000 0.000000
O O8 0.803787 0.557292 0.500000
O O9 0.799191 0.500000 0.649948
O O10 0.740924 0.587385 0.630105
O O11 0.845642 0.597893 0.647728
O O12 0.576841 0.670599 0.500000
O O13 0.653637 0.653637 0.615416
O O14 0.562148 0.649098 0.690052
O O15 0.363651 0.500000 0.836796
O O16 0.399893 0.399893 0.835976
O O17 0.398143 0.870795 0.000000
#
# Coordination Sequence:
#
# PCOD9571792 Si02
#       6
#    32  16  32  32  32  32
#     4   9  17  32  52  72 100 140 183 220 254 300
#     4   9  14  20  36  66 104 138 172 220 270 313
#     4   9  16  26  44  72 105 138 173 213 257 309
#     4   9  18  34  55  77 103 134 167 207 256 313
#     4  10  21  36  56  81 105 131 168 212 266 328
#     4   9  15  25  42  68 101 139 179 219 263 305
#
# _framework density 19.547173999999998
#
# number of rings (size 3 to 8) (size 9 to 14) (size 15 to 20)
#    0.000    2.818    0.909    1.091    0.000    3.818 
#    0.000    1.818    0.000    5.455    0.000    5.091 
#    0.000    0.000    0.000    0.000    0.000    0.182 
#
# Total GULP energy -490986.036680 kJ/mol
# GULP energy per Si atom -5579.386780 kJ/mol
# Density = 1.950268 g / cm^3
# Si number density = 19.547174 Si / 1000 Ang^3
#
#
#
# Elastic Constant Matrix: (Units=GPa)
#
#
# Indices 1 2 3 4 5 6 
#
# 1 135.0684 103.6395 19.8988 0.0000 0.0000 0.0000
# 2 103.6395 135.0684 19.8988 0.0000 0.0000 0.0000
# 3 19.8988 19.8988 62.7373 0.0000 0.0000 0.0000
# 4 0.0000 0.0000 0.0000 7.0300 0.0000 0.0000
# 5 0.0000 0.0000 0.0000 0.0000 7.0300 0.0000
# 6 0.0000 0.0000 0.0000 0.0000 0.0000 32.5717
#
#
#
# Elastic Compliance Matrix: (Units=1/GPa)
#
#
# Indices 1 2 3 4 5 6 
#
# 1 0.018120 -0.013697 -0.001403 0.000000 0.000000 0.000000
# 2 -0.013697 0.018120 -0.001403 0.000000 0.000000 0.000000
# 3 -0.001403 -0.001403 0.016829 0.000000 0.000000 0.000000
# 4 0.000000 0.000000 0.000000 0.142248 0.000000 0.000000
# 5 0.000000 0.000000 0.000000 0.000000 0.142248 0.000000
# 6 0.000000 0.000000 0.000000 0.000000 0.000000 0.030701
#
#
# Mechanical properties :
#
#
# Convention : Reuss Voigt Hill
#
# Bulk Modulus (GPa) = 49.84044 68.86089 59.35067
# Shear Modulus (GPa) = 12.25603 21.95547 17.10575
#
# Velocity S-wave (km/s) = 2.50671 3.35506 2.96142
# Velocity P-wave (km/s) = 5.82503 7.09317 6.49015
#
# Compressibility (1/GPa) = 0.02006403
#
# Stress axis : x y z
#
# Youngs Moduli (GPa) = 55.18617 55.18617 59.41975
#
# Poissons Ratio (x) = 0.75591 0.08336
# Poissons Ratio (y) = 0.75591 0.08336
# Poissons Ratio (z) = 0.07742 0.07742
#
# Static dielectric constant tensor:
#      x y z
#    x 1.657680 0.000000 0.000000 
#    y 0.000000 1.657680 0.000000 
#    z 0.000000 0.000000 1.758330 
# 
# From -- ./inp_files/6103.got.cif
#   From: 2010.05.17/outbox.cif.g08.bks.cpg/sg139_4_cif.got.tgz:6103.got - 2010.05.20 13:14:44.
