data_PCOD9571144
_publ_section_title
;
Structure prediction by ZEFSAII (Michael W. Deem and Ramdas Pophale) SiO2 
 PCOD9571144
Probable space group: I 4/M M M
;
_chemical_formula_sum "Si O2"
_cell_formula_units_Z 192
_cell_length_a 29.696250
_cell_length_b 29.696250
_cell_length_c 14.232057
_cell_angle_alpha 90.000000
_cell_angle_beta 90.000000
_cell_angle_gamma 90.000000
_cell_volume 12550.785169
_symmetry_space_group_name_H-M "I 4/M M M"
_symmetry_group_IT_number 139
_symmetry_cell_setting 'tetragonal'
loop_
_space_group_symop_operation_xyz
x,y,z
-y,x,z
-x,-y,z
y,-x,z
x,-y,-z
-x,y,-z
y,x,-z
-y,-x,-z
-x,-y,-z
y,-x,-z
x,y,-z
-y,x,-z
-x,y,z
x,-y,z
-y,-x,z
y,x,z
1/2+x,1/2+y,1/2+z
1/2-y,1/2+x,1/2+z
1/2-x,1/2-y,1/2+z
1/2+y,1/2-x,1/2+z
1/2+x,1/2-y,1/2-z
1/2-x,1/2+y,1/2-z
1/2+y,1/2+x,1/2-z
1/2-y,1/2-x,1/2-z
1/2-x,1/2-y,1/2-z
1/2+y,1/2-x,1/2-z
1/2+x,1/2+y,1/2-z
1/2-y,1/2+x,1/2-z
1/2-x,1/2+y,1/2+z
1/2+x,1/2-y,1/2+z
1/2-y,1/2-x,1/2+z
1/2+y,1/2+x,1/2+z
loop_
_atom_site_type_symbol
_atom_site_label
_atom_site_fract_x
_atom_site_fract_y
_atom_site_fract_z
Si Si1 0.863554 0.788106 0.687143
Si Si2 0.889795 0.624395 0.894647
Si Si3 0.157486 0.446856 0.222583
Si Si4 0.052104 0.750154 0.609531
Si Si5 0.803173 0.317850 0.859659
Si Si6 0.347562 0.726664 0.600173
O O1 0.832505 0.832505 0.682417
O O2 0.912040 0.787908 0.638599
O O3 0.836386 0.747271 0.636068
O O4 0.870471 0.774510 0.797431
O O5 0.878351 0.576490 0.847431
O O6 0.921165 0.651563 0.821659
O O7 0.841516 0.649500 0.898675
O O8 0.907984 0.621322 0.000000
O O9 0.150348 0.500000 0.232548
O O10 0.206486 0.439783 0.175293
O O11 0.058547 0.737553 0.500000
O O12 0.000000 0.763628 0.621136
O O13 0.814135 0.314135 0.750000
O O14 0.812627 0.268232 0.897506
O O15 0.373178 0.730653 0.500000
O O16 0.318704 0.681297 0.597690
#
# Coordination Sequence:
#
# PCOD9571144 Si02
#       6
#    32  32  32  32  32  32
#     4  10  19  30  46  69  97 125 158 198 233 270
#     4  11  20  32  51  71  90 116 151 194 242 292
#     4  10  20  35  51  70  94 120 154 196 237 284
#     4  10  20  34  50  66  91 129 166 197 235 284
#     4  10  16  27  41  62  93 123 151 186 228 269
#     4   9  17  27  40  61  92 129 158 180 219 275
#
# _framework density 15.297848
#
# number of rings (size 3 to 8) (size 9 to 14) (size 15 to 20)
#    0.000    2.000    3.333    2.500    0.000    4.333 
#    0.000    0.000    0.000    5.500    0.000    4.667 
#    0.000    0.333    0.000    1.833    0.000    0.000 
#
# Total GULP energy -534619.705380 kJ/mol
# GULP energy per Si atom -5568.955264 kJ/mol
# Density = 1.526303 g / cm^3
# Si number density = 15.297848 Si / 1000 Ang^3
#
#
#
# Elastic Constant Matrix: (Units=GPa)
#
#
# Indices 1 2 3 4 5 6 
#
# 1 65.6331 34.5712 35.3992 0.0000 0.0000 0.0000
# 2 34.5712 65.6331 35.3992 0.0000 0.0000 0.0000
# 3 35.3992 35.3992 118.5181 0.0000 0.0000 0.0000
# 4 0.0000 0.0000 0.0000 16.6323 0.0000 0.0000
# 5 0.0000 0.0000 0.0000 0.0000 16.6323 0.0000
# 6 0.0000 0.0000 0.0000 0.0000 0.0000 16.0050
#
#
#
# Elastic Compliance Matrix: (Units=1/GPa)
#
#
# Indices 1 2 3 4 5 6 
#
# 1 0.022421 -0.009772 -0.003778 0.000000 0.000000 0.000000
# 2 -0.009772 0.022421 -0.003778 0.000000 0.000000 0.000000
# 3 -0.003778 -0.003778 0.010694 0.000000 0.000000 0.000000
# 4 0.000000 0.000000 0.000000 0.060124 0.000000 0.000000
# 5 0.000000 0.000000 0.000000 0.000000 0.060124 0.000000
# 6 0.000000 0.000000 0.000000 0.000000 0.000000 0.062481
#
#
# Mechanical properties :
#
#
# Convention : Reuss Voigt Hill
#
# Bulk Modulus (GPa) = 47.89224 51.16926 49.53075
# Shear Modulus (GPa) = 17.86466 19.48158 18.67312
#
# Velocity S-wave (km/s) = 3.42100 3.57246 3.49755
# Velocity P-wave (km/s) = 6.85411 7.10900 6.98272
#
# Compressibility (1/GPa) = 0.02088021
#
# Stress axis : x y z
#
# Youngs Moduli (GPa) = 44.60032 44.60032 93.50716
#
# Poissons Ratio (x) = 0.43585 0.35327
# Poissons Ratio (y) = 0.43585 0.35327
# Poissons Ratio (z) = 0.16850 0.16850
#
# Static dielectric constant tensor:
#      x y z
#    x 1.507980 0.000000 0.000000 
#    y 0.000000 1.507980 0.000000 
#    z 0.000000 0.000000 1.586990 
# 
# From -- ./inp_files/6688.got.cif
#   From: 2010.05.17/outbox.cif.g08.bks.cpg/sg139_4_cif.got.tgz:6688.got - 2010.05.20 13:14:44.
