data_PCOD9571300
_publ_section_title
;
Structure prediction by ZEFSAII (Michael W. Deem and Ramdas Pophale) SiO2 
 PCOD9571300
Probable space group: I 4/M M M
;
_chemical_formula_sum "Si O2"
_cell_formula_units_Z 160
_cell_length_a 17.602781
_cell_length_b 17.602781
_cell_length_c 33.029863
_cell_angle_alpha 90.000000
_cell_angle_beta 90.000000
_cell_angle_gamma 90.000000
_cell_volume 10234.563951
_symmetry_space_group_name_H-M "I 4/M M M"
_symmetry_group_IT_number 139
_symmetry_cell_setting 'tetragonal'
loop_
_space_group_symop_operation_xyz
x,y,z
-y,x,z
-x,-y,z
y,-x,z
x,-y,-z
-x,y,-z
y,x,-z
-y,-x,-z
-x,-y,-z
y,-x,-z
x,y,-z
-y,x,-z
-x,y,z
x,-y,z
-y,-x,z
y,x,z
1/2+x,1/2+y,1/2+z
1/2-y,1/2+x,1/2+z
1/2-x,1/2-y,1/2+z
1/2+y,1/2-x,1/2+z
1/2+x,1/2-y,1/2-z
1/2-x,1/2+y,1/2-z
1/2+y,1/2+x,1/2-z
1/2-y,1/2-x,1/2-z
1/2-x,1/2-y,1/2-z
1/2+y,1/2-x,1/2-z
1/2+x,1/2+y,1/2-z
1/2-y,1/2+x,1/2-z
1/2-x,1/2+y,1/2+z
1/2+x,1/2-y,1/2+z
1/2-y,1/2-x,1/2+z
1/2+y,1/2+x,1/2+z
loop_
_atom_site_type_symbol
_atom_site_label
_atom_site_fract_x
_atom_site_fract_y
_atom_site_fract_z
Si Si1 0.803339 0.326260 0.613301
Si Si2 0.912750 0.789402 0.176487
Si Si3 0.587748 0.787858 0.238924
Si Si4 0.911288 0.214797 0.951839
Si Si5 0.910460 0.216122 0.349143
O O1 0.741892 0.258109 0.613657
O O2 0.781162 0.379336 0.651205
O O3 0.784011 0.375062 0.573598
O O4 0.882109 0.283189 0.620788
O O5 0.861584 0.861584 0.166242
O O6 0.906539 0.771041 0.223964
O O7 0.000000 0.801297 0.165962
O O8 0.500000 0.814160 0.237245
O O9 0.644719 0.855282 0.250000
O O10 0.605268 0.748125 0.196198
O O11 0.859749 0.140252 0.942703
O O12 0.000000 0.203889 0.941591
O O13 0.905898 0.228115 0.000000
O O14 0.858317 0.141684 0.355297
O O15 0.000000 0.201080 0.352886
#
# Coordination Sequence:
#
# PCOD9571300 Si02
#       5
#    32  32  32  32  32
#     4   9  17  30  48  67  91 123 161 195 225 273
#     4  10  19  29  44  65  90 123 159 196 235 273
#     4  10  19  31  47  67  93 125 161 198 235 278
#     4   9  17  29  47  72 101 132 164 198 235 274
#     4  10  20  33  51  73  95 121 153 192 239 288
#
# _framework density 15.633298999999999
#
# number of rings (size 3 to 8) (size 9 to 14) (size 15 to 20)
#    0.000    2.400    2.000    1.200    0.000    1.600 
#    0.000    1.000    0.000   10.200    0.000    1.400 
#    0.000    0.000    0.000    7.800    0.000    0.000 
#
# Total GULP energy -445603.426423 kJ/mol
# GULP energy per Si atom -5570.042830 kJ/mol
# Density = 1.559772 g / cm^3
# Si number density = 15.633299 Si / 1000 Ang^3
#
#
#
# Elastic Constant Matrix: (Units=GPa)
#
#
# Indices 1 2 3 4 5 6 
#
# 1 86.8686 68.3121 26.4701 0.0000 0.0000 0.0000
# 2 68.3121 86.8661 26.4704 0.0000 0.0000 0.0000
# 3 26.4701 26.4704 62.0531 0.0000 0.0000 0.0000
# 4 0.0000 0.0000 0.0000 20.2762 0.0000 0.0000
# 5 0.0000 0.0000 0.0000 0.0000 20.2760 0.0000
# 6 0.0000 0.0000 0.0000 0.0000 0.0000 15.2127
#
#
#
# Elastic Compliance Matrix: (Units=1/GPa)
#
#
# Indices 1 2 3 4 5 6 
#
# 1 0.030717 -0.023176 -0.003217 0.000000 0.000000 0.000000
# 2 -0.023176 0.030718 -0.003217 0.000000 0.000000 0.000000
# 3 -0.003217 -0.003217 0.018860 0.000000 0.000000 0.000000
# 4 0.000000 0.000000 0.000000 0.049319 0.000000 0.000000
# 5 0.000000 0.000000 0.000000 0.000000 0.049319 0.000000
# 6 0.000000 0.000000 0.000000 0.000000 0.000000 0.065734
#
#
# Mechanical properties :
#
#
# Convention : Reuss Voigt Hill
#
# Bulk Modulus (GPa) = 47.44980 53.14368 50.29674
# Shear Modulus (GPa) = 16.08172 18.78866 17.43519
#
# Velocity S-wave (km/s) = 3.21079 3.47051 3.34317
# Velocity P-wave (km/s) = 6.64554 7.08004 6.86623
#
# Compressibility (1/GPa) = 0.02107490
#
# Stress axis : x y z
#
# Youngs Moduli (GPa) = 32.55548 32.55430 53.02254
#
# Poissons Ratio (x) = 0.75447 0.17056
# Poissons Ratio (y) = 0.75449 0.17060
# Poissons Ratio (z) = 0.10472 0.10474
#
# Static dielectric constant tensor:
#      x y z
#    x 1.514770 0.000000 0.000000 
#    y 0.000000 1.514770 0.000000 
#    z 0.000000 0.000000 1.538340 
# 
# From -- ./inp_files/14045.got.cif
#   From: 2010.05.17/outbox.cif.g08.bks.cpg/sg139_8_cif.got.tgz:14045.got - 2010.05.20 13:14:44.
