data_PCOD9571398
_publ_section_title
;
Structure prediction by ZEFSAII (Michael W. Deem and Ramdas Pophale) SiO2 
 PCOD9571398
Probable space group: I 4/M M M
;
_chemical_formula_sum "Si O2"
_cell_formula_units_Z 88
_cell_length_a 27.484443
_cell_length_b 27.484443
_cell_length_c 8.319012
_cell_angle_alpha 90.000000
_cell_angle_beta 90.000000
_cell_angle_gamma 90.000000
_cell_volume 6284.136801
_symmetry_space_group_name_H-M "I 4/M M M"
_symmetry_group_IT_number 139
_symmetry_cell_setting 'tetragonal'
loop_
_space_group_symop_operation_xyz
x,y,z
-y,x,z
-x,-y,z
y,-x,z
x,-y,-z
-x,y,-z
y,x,-z
-y,-x,-z
-x,-y,-z
y,-x,-z
x,y,-z
-y,x,-z
-x,y,z
x,-y,z
-y,-x,z
y,x,z
1/2+x,1/2+y,1/2+z
1/2-y,1/2+x,1/2+z
1/2-x,1/2-y,1/2+z
1/2+y,1/2-x,1/2+z
1/2+x,1/2-y,1/2-z
1/2-x,1/2+y,1/2-z
1/2+y,1/2+x,1/2-z
1/2-y,1/2-x,1/2-z
1/2-x,1/2-y,1/2-z
1/2+y,1/2-x,1/2-z
1/2+x,1/2+y,1/2-z
1/2-y,1/2+x,1/2-z
1/2-x,1/2+y,1/2+z
1/2+x,1/2-y,1/2+z
1/2-y,1/2-x,1/2+z
1/2+y,1/2+x,1/2+z
loop_
_atom_site_type_symbol
_atom_site_label
_atom_site_fract_x
_atom_site_fract_y
_atom_site_fract_z
Si Si1 0.098660 0.819812 0.188658
Si Si2 0.147043 0.000000 0.681376
Si Si3 0.671556 0.244962 0.184468
Si Si4 0.918971 0.000000 0.000000
O O1 0.135590 0.864411 0.230341
O O2 0.049824 0.823268 0.291786
O O3 0.128258 0.770139 0.217992
O O4 0.086783 0.824538 0.000000
O O5 0.110226 0.000000 0.832577
O O6 0.126305 0.000000 0.500000
O O7 0.714801 0.285200 0.188863
O O8 0.695772 0.195772 0.250000
O O9 0.656818 0.238874 0.000000
O O10 0.952676 0.047325 0.000000
#
# Coordination Sequence:
#
# PCOD9571398 Si02
#       4
#    32  16  32   8
#     4  10  19  32  48  64  85 112 142 182 226 267
#     4  12  23  35  51  68  86 112 148 187 233 283
#     4   9  16  26  41  63  87 110 137 169 210 260
#     4  11  24  40  52  64  84 108 144 196 242 279
#
# _framework density 14.003515
#
# number of rings (size 3 to 8) (size 9 to 14) (size 15 to 20)
#    0.000    1.909    1.818    3.273    0.000    8.727 
#    0.000    0.909    0.000    0.000    0.000    0.000 
#    0.000    0.000    0.000    0.000    0.000    0.909 
#
# Total GULP energy -245240.733336 kJ/mol
# GULP energy per Si atom -5573.653030 kJ/mol
# Density = 1.397164 g / cm^3
# Si number density = 14.003515 Si / 1000 Ang^3
#
#
#
# Elastic Constant Matrix: (Units=GPa)
#
#
# Indices 1 2 3 4 5 6 
#
# 1 49.9017 38.0658 27.8706 0.0000 0.0000 0.0000
# 2 38.0658 49.9012 27.8706 0.0000 0.0000 0.0000
# 3 27.8706 27.8706 83.9184 0.0000 0.0000 0.0000
# 4 0.0000 0.0000 0.0000 18.2040 0.0000 0.0000
# 5 0.0000 0.0000 0.0000 0.0000 18.2048 0.0000
# 6 0.0000 0.0000 0.0000 0.0000 0.0000 38.1639
#
#
#
# Elastic Compliance Matrix: (Units=1/GPa)
#
#
# Indices 1 2 3 4 5 6 
#
# 1 0.049444 -0.035046 -0.004782 0.000000 0.000000 0.000000
# 2 -0.035046 0.049445 -0.004782 0.000000 0.000000 0.000000
# 3 -0.004782 -0.004782 0.015093 0.000000 0.000000 0.000000
# 4 0.000000 0.000000 0.000000 0.054933 0.000000 0.000000
# 5 0.000000 0.000000 0.000000 0.000000 0.054931 0.000000
# 6 0.000000 0.000000 0.000000 0.000000 0.000000 0.026203
#
#
# Mechanical properties :
#
#
# Convention : Reuss Voigt Hill
#
# Bulk Modulus (GPa) = 40.38570 41.25948 40.82259
# Shear Modulus (GPa) = 14.38762 20.90882 17.64822
#
# Velocity S-wave (km/s) = 3.20883 3.86827 3.55388
# Velocity P-wave (km/s) = 6.52925 7.03413 6.78639
#
# Compressibility (1/GPa) = 0.02476124
#
# Stress axis : x y z
#
# Youngs Moduli (GPa) = 20.22491 20.22466 66.25789
#
# Poissons Ratio (x) = 0.70880 0.31682
# Poissons Ratio (y) = 0.70881 0.31683
# Poissons Ratio (z) = 0.09671 0.09671
#
# Static dielectric constant tensor:
#      x y z
#    x 1.463410 0.000000 0.000000 
#    y 0.000000 1.463410 0.000000 
#    z 0.000000 0.000000 1.487210 
# 
# From -- ./inp_files/1272.got.cif
#   From: 2010.05.17/outbox.cif.g08.bks.cpg/sg139_1_cif.got.tgz:1272.got - 2010.05.20 13:14:44.
