data_PCOD9571938
_publ_section_title
;
Structure prediction by ZEFSAII (Michael W. Deem and Ramdas Pophale) SiO2 
 PCOD9571938
Probable space group: I 4/M M M
;
_chemical_formula_sum "Si O2"
_cell_formula_units_Z 128
_cell_length_a 21.121934
_cell_length_b 21.121934
_cell_length_c 14.771826
_cell_angle_alpha 90.000000
_cell_angle_beta 90.000000
_cell_angle_gamma 90.000000
_cell_volume 6590.244781
_symmetry_space_group_name_H-M "I 4/M M M"
_symmetry_group_IT_number 139
_symmetry_cell_setting 'tetragonal'
loop_
_space_group_symop_operation_xyz
x,y,z
-y,x,z
-x,-y,z
y,-x,z
x,-y,-z
-x,y,-z
y,x,-z
-y,-x,-z
-x,-y,-z
y,-x,-z
x,y,-z
-y,x,-z
-x,y,z
x,-y,z
-y,-x,z
y,x,z
1/2+x,1/2+y,1/2+z
1/2-y,1/2+x,1/2+z
1/2-x,1/2-y,1/2+z
1/2+y,1/2-x,1/2+z
1/2+x,1/2-y,1/2-z
1/2-x,1/2+y,1/2-z
1/2+y,1/2+x,1/2-z
1/2-y,1/2-x,1/2-z
1/2-x,1/2-y,1/2-z
1/2+y,1/2-x,1/2-z
1/2+x,1/2+y,1/2-z
1/2-y,1/2+x,1/2-z
1/2-x,1/2+y,1/2+z
1/2+x,1/2-y,1/2+z
1/2-y,1/2-x,1/2+z
1/2+y,1/2+x,1/2+z
loop_
_atom_site_type_symbol
_atom_site_label
_atom_site_fract_x
_atom_site_fract_y
_atom_site_fract_z
Si Si1 0.633555 0.868661 0.353254
Si Si2 0.000000 0.106150 0.897472
Si Si3 0.000000 0.793156 0.263564
Si Si4 0.696686 0.000000 0.100931
Si Si5 0.500000 0.073966 0.890669
Si Si6 0.276186 0.381502 0.101922
O O1 0.647946 0.852055 0.250000
O O2 0.568971 0.837822 0.392701
O O3 0.612519 0.941096 0.355196
O O4 0.702006 0.861837 0.398966
O O5 0.000000 0.148825 0.807801
O O6 0.061133 0.061133 0.893838
O O7 0.000000 0.134989 0.000000
O O8 0.937817 0.788494 0.326636
O O9 0.000000 0.736414 0.192093
O O10 0.725324 0.000000 0.000000
O O11 0.500000 0.000000 0.863118
O O12 0.500000 0.074617 0.000000
O O13 0.321830 0.321830 0.121920
O O14 0.291481 0.404076 0.000000
#
# Coordination Sequence:
#
# PCOD9571938 Si02
#       6
#    32  16  16  16  16  32
#     4  12  23  42  61  91 127 169 215 264 321 386
#     4   9  19  38  65  96 128 161 200 256 333 411
#     4  12  22  42  63  96 126 164 214 273 324 385
#     4  12  24  40  62  91 128 166 210 264 319 383
#     4  11  22  34  58  91 124 165 210 260 316 376
#     4  11  25  44  67  93 127 175 224 272 331 396
#
# _framework density 19.422646
#
# number of rings (size 3 to 8) (size 9 to 14) (size 15 to 20)
#    0.000    0.750    3.750    5.625    0.000    0.500 
#    0.000    0.000    0.000    4.500    0.000    5.250 
#    0.000    0.000    0.000    0.000    0.000    0.000 
#
# Total GULP energy -356698.177028 kJ/mol
# GULP energy per Si atom -5573.409016 kJ/mol
# Density = 1.937844 g / cm^3
# Si number density = 19.422646 Si / 1000 Ang^3
#
#
#
# Elastic Constant Matrix: (Units=GPa)
#
#
# Indices 1 2 3 4 5 6 
#
# 1 132.1699 70.6918 57.1301 0.0000 0.0000 0.0000
# 2 70.6918 132.1704 57.1304 0.0000 0.0000 0.0000
# 3 57.1301 57.1304 155.0064 0.0000 0.0000 0.0000
# 4 0.0000 0.0000 0.0000 -46.3754 0.0000 0.0000
# 5 0.0000 0.0000 0.0000 0.0000 -46.3650 0.0000
# 6 0.0000 0.0000 0.0000 0.0000 0.0000 18.4123
#
#
#
# Elastic Compliance Matrix: (Units=1/GPa)
#
#
# Indices 1 2 3 4 5 6 
#
# 1 0.011243 -0.005023 -0.002293 0.000000 0.000000 0.000000
# 2 -0.005023 0.011243 -0.002293 0.000000 0.000000 0.000000
# 3 -0.002293 -0.002293 0.008141 0.000000 0.000000 0.000000
# 4 0.000000 0.000000 0.000000 -0.021563 0.000000 0.000000
# 5 0.000000 0.000000 0.000000 0.000000 -0.021568 0.000000
# 6 0.000000 0.000000 0.000000 0.000000 0.000000 0.054312
#
#
# Mechanical properties :
#
#
# Convention : Reuss Voigt Hill
#
# Bulk Modulus (GPa) = 87.62738 87.69460 87.66099
# Shear Modulus (GPa) = 77.12612 0.76067 38.94339
#
# Velocity S-wave (km/s) = 6.30837 0.62649 4.48264
# Velocity P-wave (km/s) = 9.91336 6.76550 8.48666
#
# Compressibility (1/GPa) = 0.01141196
#
# Stress axis : x y z
#
# Youngs Moduli (GPa) = 88.94106 88.94132 122.82818
#
# Poissons Ratio (x) = 0.44671 0.28162
# Poissons Ratio (y) = 0.44671 0.28162
# Poissons Ratio (z) = 0.20392 0.20393
#
# Static dielectric constant tensor:
#      x y z
#    x 1.717880 0.000000 0.000000 
#    y 0.000000 1.717880 0.000000 
#    z 0.000000 0.000000 1.386210 
# 
# From -- ./inp_files/5504.got.cif
#   From: 2010.05.17/outbox.cif.g08.bks.cpg/sg139_3_cif.got.tgz:5504.got - 2010.05.20 13:14:44.
