data_PCOD9571057
_publ_section_title
;
Structure prediction by ZEFSAII (Michael W. Deem and Ramdas Pophale) SiO2 
 PCOD9571057
Probable space group: P 42/N C M
;
_chemical_formula_sum "Si O2"
_cell_formula_units_Z 60
_cell_length_a 10.559998
_cell_length_b 10.559998
_cell_length_c 23.050434
_cell_angle_alpha 90.000000
_cell_angle_beta 90.000000
_cell_angle_gamma 90.000000
_cell_volume 2570.435903
_symmetry_space_group_name_H-M "P 42/N C M"
_symmetry_group_IT_number 138
_space_group.IT_coordinate_system_code '2'
_symmetry_cell_setting 'tetragonal'
loop_
_space_group_symop_operation_xyz
x,y,z
1/2-y,x,1/2+z
1/2-x,1/2-y,z
y,1/2-x,1/2+z
1/2+x,-y,1/2-z
-x,1/2+y,1/2-z
1/2+y,1/2+x,-z
-y,-x,-z
-x,-y,-z
1/2+y,-x,1/2-z
1/2+x,1/2+y,-z
-y,1/2+x,1/2-z
1/2-x,y,1/2+z
x,1/2-y,1/2+z
1/2-y,1/2-x,z
y,x,z
loop_
_atom_site_type_symbol
_atom_site_label
_atom_site_fract_x
_atom_site_fract_y
_atom_site_fract_z
Si Si1 0.948773 0.551228 0.558611
Si Si2 0.108066 0.108066 0.336679
Si Si3 0.902109 0.216805 0.112648
Si Si4 0.269000 0.956609 0.740609
Si Si5 0.250000 0.250000 0.435049
Si Si6 0.959594 0.540407 0.933757
O O1 0.896677 0.428579 0.592160
O O2 0.846339 0.653662 0.537675
O O3 0.000000 0.500000 0.500000
O O4 0.167276 0.167276 0.392657
O O5 0.050549 0.212046 0.293479
O O6 0.013515 0.013515 0.370905
O O7 0.750000 0.250000 0.121321
O O8 0.982603 0.222050 0.172589
O O9 0.979868 0.315872 0.071586
O O10 0.384290 0.860716 0.750781
O O11 0.000000 0.500000 0.000000
#
# Coordination Sequence:
#
# PCOD9571057 Si02
#       6
#     8   8  16  16   4   8
#     4  12  31  49  76 110 152 204 268 334 390 480
#     4  12  25  44  76 112 144 199 254 318 397 480
#     4  12  26  49  76 113 154 207 263 331 406 471
#     4  11  20  41  71 103 146 185 247 318 391 461
#     4  12  28  50  74 108 150 194 264 318 404 478
#     4  12  28  45  79 109 156 211 264 312 394 498
#
# _framework density 23.342343
#
# number of rings (size 3 to 8) (size 9 to 14) (size 15 to 20)
#    0.000    0.267    5.333    4.000    7.467    2.667 
#    0.000    0.000    0.000    0.000    0.000    0.000 
#    0.000    0.000    0.000    0.000    0.000    0.000 
#
# Total GULP energy -334117.738503 kJ/mol
# GULP energy per Si atom -5568.628975 kJ/mol
# Density = 2.328921 g / cm^3
# Si number density = 23.342343 Si / 1000 Ang^3
#
#
#
# Elastic Constant Matrix: (Units=GPa)
#
#
# Indices 1 2 3 4 5 6 
#
# 1 66.9209 64.0201 21.1523 0.0000 0.0000 0.0000
# 2 64.0201 66.9209 21.1523 0.0000 0.0000 0.0000
# 3 21.1523 21.1523 138.9819 0.0000 0.0000 0.0000
# 4 0.0000 0.0000 0.0000 47.1440 0.0000 0.0000
# 5 0.0000 0.0000 0.0000 0.0000 47.1440 0.0000
# 6 0.0000 0.0000 0.0000 0.0000 0.0000 56.2417
#
#
#
# Elastic Compliance Matrix: (Units=1/GPa)
#
#
# Indices 1 2 3 4 5 6 
#
# 1 0.176383 -0.168351 -0.001222 0.000000 0.000000 0.000000
# 2 -0.168351 0.176383 -0.001222 0.000000 0.000000 0.000000
# 3 -0.001222 -0.001222 0.007567 0.000000 0.000000 0.000000
# 4 0.000000 0.000000 0.000000 0.021212 0.000000 0.000000
# 5 0.000000 0.000000 0.000000 0.000000 0.021212 0.000000
# 6 0.000000 0.000000 0.000000 0.000000 0.000000 0.017780
#
#
# Mechanical properties :
#
#
# Convention : Reuss Voigt Hill
#
# Bulk Modulus (GPa) = 53.35746 53.94145 53.64945
# Shear Modulus (GPa) = 6.50723 41.20588 23.85656
#
# Velocity S-wave (km/s) = 1.67146 4.20609 3.20039
# Velocity P-wave (km/s) = 5.16075 6.83719 6.05725
#
# Compressibility (1/GPa) = 0.01874152
#
# Stress axis : x y z
#
# Youngs Moduli (GPa) = 5.66948 5.66948 132.14804
#
# Poissons Ratio (x) = 0.95446 0.16154
# Poissons Ratio (y) = 0.95446 0.16154
# Poissons Ratio (z) = 0.00693 0.00693
#
# Static dielectric constant tensor:
#      x y z
#    x 1.875470 0.000000 0.000000 
#    y 0.000000 1.875470 0.000000 
#    z 0.000000 0.000000 1.865870 
# 
# From -- ./inp_files/6824.got.cif
#   From: 2010.05.17/outbox.cif.g08.bks.cpg/sg138_4_cif.got.tgz:6824.got - 2010.05.20 13:08:53.
