data_PCOD9571639
_publ_section_title
;
Structure prediction by ZEFSAII (Michael W. Deem and Ramdas Pophale) SiO2 
 PCOD9571639
Probable space group: I 4/M M M
;
_chemical_formula_sum "Si O2"
_cell_formula_units_Z 144
_cell_length_a 28.257299
_cell_length_b 28.257299
_cell_length_c 11.071770
_cell_angle_alpha 90.000000
_cell_angle_beta 90.000000
_cell_angle_gamma 90.000000
_cell_volume 8840.530961
_symmetry_space_group_name_H-M "I 4/M M M"
_symmetry_group_IT_number 139
_symmetry_cell_setting 'tetragonal'
loop_
_space_group_symop_operation_xyz
x,y,z
-y,x,z
-x,-y,z
y,-x,z
x,-y,-z
-x,y,-z
y,x,-z
-y,-x,-z
-x,-y,-z
y,-x,-z
x,y,-z
-y,x,-z
-x,y,z
x,-y,z
-y,-x,z
y,x,z
1/2+x,1/2+y,1/2+z
1/2-y,1/2+x,1/2+z
1/2-x,1/2-y,1/2+z
1/2+y,1/2-x,1/2+z
1/2+x,1/2-y,1/2-z
1/2-x,1/2+y,1/2-z
1/2+y,1/2+x,1/2-z
1/2-y,1/2-x,1/2-z
1/2-x,1/2-y,1/2-z
1/2+y,1/2-x,1/2-z
1/2+x,1/2+y,1/2-z
1/2-y,1/2+x,1/2-z
1/2-x,1/2+y,1/2+z
1/2+x,1/2-y,1/2+z
1/2-y,1/2-x,1/2+z
1/2+y,1/2+x,1/2+z
loop_
_atom_site_type_symbol
_atom_site_label
_atom_site_fract_x
_atom_site_fract_y
_atom_site_fract_z
Si Si1 0.722467 0.855056 0.252061
Si Si2 0.835333 0.052683 0.000000
Si Si3 0.225495 0.225495 0.365453
Si Si4 0.445024 0.261724 0.144089
Si Si5 0.054701 0.868586 0.730490
Si Si6 0.854540 0.225295 0.000000
O O1 0.672476 0.827525 0.250000
O O2 0.758275 0.828111 0.344581
O O3 0.725923 0.909385 0.290185
O O4 0.744240 0.848164 0.119709
O O5 0.864695 0.056995 0.876499
O O6 0.796397 0.093136 0.000000
O O7 0.813965 0.000000 0.000000
O O8 0.240240 0.240240 0.500000
O O9 0.250000 0.250000 0.250000
O O10 0.500000 0.254040 0.177295
O O11 0.433543 0.315927 0.182559
O O12 0.440637 0.257463 0.000000
O O13 0.091978 0.908023 0.689372
O O14 0.000000 0.878919 0.696597
O O15 0.818447 0.181554 0.000000
#
# Coordination Sequence:
#
# PCOD9571639 Si02
#       6
#    32  16  16  32  32  16
#     4  11  24  34  54  77 110 135 176 216 265 312
#     4  10  20  34  51  71  97 127 172 218 265 317
#     4  10  22  34  50  74 110 142 177 216 261 315
#     4  10  22  39  55  73 102 140 179 215 260 318
#     4  10  20  34  51  72  95 127 169 222 274 323
#     4  12  22  34  50  76 103 144 172 214 269 331
#
# _framework density 16.288615
#
# number of rings (size 3 to 8) (size 9 to 14) (size 15 to 20)
#    0.000    1.556    3.333    1.667    9.333    0.667 
#    0.000    0.000    0.000    2.000    0.000    3.111 
#    0.000    0.444    0.000    2.444    0.000    0.000 
#
# Total GULP energy -401752.348850 kJ/mol
# GULP energy per Si atom -5579.893734 kJ/mol
# Density = 1.625154 g / cm^3
# Si number density = 16.288615 Si / 1000 Ang^3
#
#
#
# Elastic Constant Matrix: (Units=GPa)
#
#
# Indices 1 2 3 4 5 6 
#
# 1 100.0121 69.9368 28.4558 0.0000 0.0000 0.0000
# 2 69.9368 100.0115 28.4566 0.0000 0.0000 0.0000
# 3 28.4558 28.4566 80.8471 0.0000 0.0000 0.0000
# 4 0.0000 0.0000 0.0000 15.3609 0.0000 0.0000
# 5 0.0000 0.0000 0.0000 0.0000 15.3609 0.0000
# 6 0.0000 0.0000 0.0000 0.0000 0.0000 33.6994
#
#
#
# Elastic Compliance Matrix: (Units=1/GPa)
#
#
# Indices 1 2 3 4 5 6 
#
# 1 0.019960 -0.013290 -0.002348 0.000000 0.000000 0.000000
# 2 -0.013290 0.019960 -0.002348 0.000000 0.000000 0.000000
# 3 -0.002348 -0.002348 0.014022 0.000000 0.000000 0.000000
# 4 0.000000 0.000000 0.000000 0.065100 0.000000 0.000000
# 5 0.000000 0.000000 0.000000 0.000000 0.065100 0.000000
# 6 0.000000 0.000000 0.000000 0.000000 0.000000 0.029674
#
#
# Mechanical properties :
#
#
# Convention : Reuss Voigt Hill
#
# Bulk Modulus (GPa) = 55.64435 59.39656 57.52046
# Shear Modulus (GPa) = 19.54818 23.15235 21.35027
#
# Velocity S-wave (km/s) = 3.46802 3.77421 3.62435
# Velocity P-wave (km/s) = 7.09027 7.45233 7.27355
#
# Compressibility (1/GPa) = 0.01797128
#
# Stress axis : x y z
#
# Youngs Moduli (GPa) = 50.09987 50.09915 71.31771
#
# Poissons Ratio (x) = 0.66581 0.16742
# Poissons Ratio (y) = 0.66582 0.16746
# Poissons Ratio (z) = 0.11761 0.11763
#
# Static dielectric constant tensor:
#      x y z
#    x 1.567740 0.000000 0.000000 
#    y 0.000000 1.567750 0.000000 
#    z 0.000000 0.000000 1.578310 
# 
# From -- ./inp_files/3789.got.cif
#   From: 2010.05.17/outbox.cif.g08.bks.cpg/sg139_2_cif.got.tgz:3789.got - 2010.05.20 13:14:44.
