data_PCOD9571693
_publ_section_title
;
Structure prediction by ZEFSAII (Michael W. Deem and Ramdas Pophale) SiO2 
 PCOD9571693
Probable space group: I 4/M M M
;
_chemical_formula_sum "Si O2"
_cell_formula_units_Z 104
_cell_length_a 28.808857
_cell_length_b 28.808857
_cell_length_c 7.761584
_cell_angle_alpha 90.000000
_cell_angle_beta 90.000000
_cell_angle_gamma 90.000000
_cell_volume 6441.728516
_symmetry_space_group_name_H-M "I 4/M M M"
_symmetry_group_IT_number 139
_symmetry_cell_setting 'tetragonal'
loop_
_space_group_symop_operation_xyz
x,y,z
-y,x,z
-x,-y,z
y,-x,z
x,-y,-z
-x,y,-z
y,x,-z
-y,-x,-z
-x,-y,-z
y,-x,-z
x,y,-z
-y,x,-z
-x,y,z
x,-y,z
-y,-x,z
y,x,z
1/2+x,1/2+y,1/2+z
1/2-y,1/2+x,1/2+z
1/2-x,1/2-y,1/2+z
1/2+y,1/2-x,1/2+z
1/2+x,1/2-y,1/2-z
1/2-x,1/2+y,1/2-z
1/2+y,1/2+x,1/2-z
1/2-y,1/2-x,1/2-z
1/2-x,1/2-y,1/2-z
1/2+y,1/2-x,1/2-z
1/2+x,1/2+y,1/2-z
1/2-y,1/2+x,1/2-z
1/2-x,1/2+y,1/2+z
1/2+x,1/2-y,1/2+z
1/2-y,1/2-x,1/2+z
1/2+y,1/2+x,1/2+z
loop_
_atom_site_type_symbol
_atom_site_label
_atom_site_fract_x
_atom_site_fract_y
_atom_site_fract_z
Si Si1 0.765884 0.429286 0.808165
Si Si2 0.370588 0.946845 0.794034
Si Si3 0.250008 0.325223 0.706081
Si Si4 0.256919 0.500000 0.500000
O O1 0.821881 0.432962 0.790315
O O2 0.751625 0.375848 0.786121
O O3 0.746033 0.459900 0.652921
O O4 0.752743 0.445042 0.000000
O O5 0.411341 0.911341 0.750000
O O6 0.381931 0.000000 0.744663
O O7 0.362892 0.946262 0.000000
O O8 0.252437 0.329882 0.500000
O O9 0.293110 0.293110 0.764008
O O10 0.203779 0.296222 0.750000
#
# Coordination Sequence:
#
# PCOD9571693 Si02
#       4
#    32  32  32   8
#     4  12  22  37  58  76 103 137 172 224 273 322
#     4  11  22  37  51  69  95 123 167 219 267 322
#     4  10  20  35  54  80 112 142 179 228 281 340
#     4  12  22  40  54  78 105 130 186 215 266 324
#
# _framework density 16.144736000000002
#
# number of rings (size 3 to 8) (size 9 to 14) (size 15 to 20)
#    0.000    0.923    4.615    3.231    0.000    4.000 
#    0.000    1.538    0.000    0.000    0.000    0.000 
#    0.000    0.000    0.000    0.000    0.000    6.154 
#
# Total GULP energy -289482.576493 kJ/mol
# GULP energy per Si atom -5566.972625 kJ/mol
# Density = 1.610799 g / cm^3
# Si number density = 16.144736 Si / 1000 Ang^3
#
#
#
# Elastic Constant Matrix: (Units=GPa)
#
#
# Indices 1 2 3 4 5 6 
#
# 1 65.9226 17.2260 28.7593 0.0000 0.0000 0.0000
# 2 17.2260 65.9346 28.7630 0.0000 0.0000 0.0000
# 3 28.7593 28.7630 131.3330 0.0000 0.0000 0.0000
# 4 0.0000 0.0000 0.0000 15.7526 0.0000 0.0000
# 5 0.0000 0.0000 0.0000 0.0000 15.7539 0.0000
# 6 0.0000 0.0000 0.0000 0.0000 0.0000 -299.7198
#
#
#
# Elastic Compliance Matrix: (Units=1/GPa)
#
#
# Indices 1 2 3 4 5 6 
#
# 1 0.017354 -0.003180 -0.003104 0.000000 0.000000 0.000000
# 2 -0.003180 0.017351 -0.003104 0.000000 0.000000 0.000000
# 3 -0.003104 -0.003104 0.008974 0.000000 0.000000 0.000000
# 4 0.000000 0.000000 0.000000 0.063481 0.000000 0.000000
# 5 0.000000 0.000000 0.000000 0.000000 0.063476 0.000000
# 6 0.000000 0.000000 0.000000 0.000000 0.000000 -0.003336
#
#
# Mechanical properties :
#
#
# Convention : Reuss Voigt Hill
#
# Bulk Modulus (GPa) = 40.15380 45.85407 43.00393
# Shear Modulus (GPa) = 25.72319 -41.07986 -7.67833
#
# Velocity S-wave (km/s) = 3.99593 -5.04975 -2.18318
# Velocity P-wave (km/s) = 6.79817 2.35296 4.50991
#
# Compressibility (1/GPa) = 0.02490424
#
# Stress axis : x y z
#
# Youngs Moduli (GPa) = 57.62258 57.63255 111.43753
#
# Poissons Ratio (x) = 0.18327 0.34588
# Poissons Ratio (y) = 0.18324 0.34587
# Poissons Ratio (z) = 0.17885 0.17888
#
# Static dielectric constant tensor:
#      x y z
#    x 1.528770 0.000000 0.000000 
#    y 0.000000 1.528780 0.000000 
#    z 0.000000 0.000000 1.583520 
# 
# From -- ./inp_files/1375.got.cif
#   From: 2010.05.17/outbox.cif.g08.bks.cpg/sg139_1_cif.got.tgz:1375.got - 2010.05.20 13:14:44.
