data_PCOD9571305
_publ_section_title
;
Structure prediction by ZEFSAII (Michael W. Deem and Ramdas Pophale) SiO2 
 PCOD9571305
Probable space group: I 4/M M M
;
_chemical_formula_sum "Si O2"
_cell_formula_units_Z 160
_cell_length_a 18.550936
_cell_length_b 18.550936
_cell_length_c 26.874702
_cell_angle_alpha 90.000000
_cell_angle_beta 90.000000
_cell_angle_gamma 90.000000
_cell_volume 9248.585409
_symmetry_space_group_name_H-M "I 4/M M M"
_symmetry_group_IT_number 139
_symmetry_cell_setting 'tetragonal'
loop_
_space_group_symop_operation_xyz
x,y,z
-y,x,z
-x,-y,z
y,-x,z
x,-y,-z
-x,y,-z
y,x,-z
-y,-x,-z
-x,-y,-z
y,-x,-z
x,y,-z
-y,x,-z
-x,y,z
x,-y,z
-y,-x,z
y,x,z
1/2+x,1/2+y,1/2+z
1/2-y,1/2+x,1/2+z
1/2-x,1/2-y,1/2+z
1/2+y,1/2-x,1/2+z
1/2+x,1/2-y,1/2-z
1/2-x,1/2+y,1/2-z
1/2+y,1/2+x,1/2-z
1/2-y,1/2-x,1/2-z
1/2-x,1/2-y,1/2-z
1/2+y,1/2-x,1/2-z
1/2+x,1/2+y,1/2-z
1/2-y,1/2+x,1/2-z
1/2-x,1/2+y,1/2+z
1/2+x,1/2-y,1/2+z
1/2-y,1/2-x,1/2+z
1/2+y,1/2+x,1/2+z
loop_
_atom_site_type_symbol
_atom_site_label
_atom_site_fract_x
_atom_site_fract_y
_atom_site_fract_z
Si Si1 0.798941 0.083313 0.157117
Si Si2 0.085931 0.359659 0.197260
Si Si3 0.356918 0.759812 0.556471
Si Si4 0.803028 0.920687 0.442559
Si Si5 0.850774 0.419017 0.096714
O O1 0.862416 0.137585 0.171137
O O2 0.724619 0.100155 0.185941
O O3 0.779343 0.097325 0.099099
O O4 0.817487 0.000000 0.164947
O O5 0.116890 0.383110 0.250000
O O6 0.119588 0.404757 0.151736
O O7 0.000000 0.370207 0.196645
O O8 0.378642 0.743958 0.500000
O O9 0.275412 0.724589 0.561985
O O10 0.366701 0.845571 0.565919
O O11 0.776502 0.910749 0.500000
O O12 0.859727 0.859727 0.431640
O O13 0.735645 0.919531 0.406214
O O14 0.836790 0.000000 0.440696
O O15 0.873903 0.500000 0.079321
#
# Coordination Sequence:
#
# PCOD9571305 Si02
#       5
#    32  32  32  32  32
#     4   9  19  35  54  78 104 128 159 197 237 285
#     4  10  21  37  56  76  98 126 161 202 246 290
#     4   9  17  30  48  68  95 133 169 201 240 285
#     4   9  17  29  46  69  98 132 169 208 248 291
#     4  10  19  29  45  71  98 125 162 205 247 295
#
# _framework density 17.299942999999999
#
# number of rings (size 3 to 8) (size 9 to 14) (size 15 to 20)
#    0.000    2.600    0.000    1.800    0.000    6.200 
#    0.000    1.000    0.000    1.800    0.000   14.000 
#    0.000    6.400    0.000    0.000    0.000    0.000 
#
# Total GULP energy -445421.375748 kJ/mol
# GULP energy per Si atom -5567.767197 kJ/mol
# Density = 1.726057 g / cm^3
# Si number density = 17.299943 Si / 1000 Ang^3
#
#
#
# Elastic Constant Matrix: (Units=GPa)
#
#
# Indices 1 2 3 4 5 6 
#
# 1 80.8795 57.9356 33.8650 0.0000 0.0000 0.0000
# 2 57.9356 80.8793 33.8632 0.0000 0.0000 0.0000
# 3 33.8650 33.8632 83.5876 0.0000 0.0000 0.0000
# 4 0.0000 0.0000 0.0000 16.3094 0.0000 0.0000
# 5 0.0000 0.0000 0.0000 0.0000 16.3083 0.0000
# 6 0.0000 0.0000 0.0000 0.0000 0.0000 9.3067
#
#
#
# Elastic Compliance Matrix: (Units=1/GPa)
#
#
# Indices 1 2 3 4 5 6 
#
# 1 0.026282 -0.017303 -0.003638 0.000000 0.000000 0.000000
# 2 -0.017303 0.026281 -0.003637 0.000000 0.000000 0.000000
# 3 -0.003638 -0.003637 0.014911 0.000000 0.000000 0.000000
# 4 0.000000 0.000000 0.000000 0.061314 0.000000 0.000000
# 5 0.000000 0.000000 0.000000 0.000000 0.061319 0.000000
# 6 0.000000 0.000000 0.000000 0.000000 0.000000 0.107450
#
#
# Mechanical properties :
#
#
# Convention : Reuss Voigt Hill
#
# Bulk Modulus (GPa) = 54.59126 55.18598 54.88862
# Shear Modulus (GPa) = 14.17159 16.36372 15.26766
#
# Velocity S-wave (km/s) = 2.86522 3.07886 2.97396
# Velocity P-wave (km/s) = 6.52459 6.67892 6.60220
#
# Compressibility (1/GPa) = 0.01831795
#
# Stress axis : x y z
#
# Youngs Moduli (GPa) = 38.04903 38.04975 67.06517
#
# Poissons Ratio (x) = 0.65838 0.24399
# Poissons Ratio (y) = 0.65836 0.24391
# Poissons Ratio (z) = 0.13843 0.13839
#
# Static dielectric constant tensor:
#      x y z
#    x 1.603140 0.000000 0.000000 
#    y 0.000000 1.603140 0.000000 
#    z 0.000000 0.000000 1.569290 
# 
# From -- ./inp_files/12945.got.cif
#   From: 2010.05.17/outbox.cif.g08.bks.cpg/sg139_7_cif.got.tgz:12945.got - 2010.05.20 13:14:44.
