data_PCOD9571111
_publ_section_title
;
Structure prediction by ZEFSAII (Michael W. Deem and Ramdas Pophale) SiO2 
 PCOD9571111
Probable space group: P 42/N C M
;
_chemical_formula_sum "Si O2"
_cell_formula_units_Z 44
_cell_length_a 9.684038
_cell_length_b 9.684038
_cell_length_c 23.172759
_cell_angle_alpha 90.000000
_cell_angle_beta 90.000000
_cell_angle_gamma 90.000000
_cell_volume 2173.155057
_symmetry_space_group_name_H-M "P 42/N C M"
_symmetry_group_IT_number 138
_space_group.IT_coordinate_system_code '2'
_symmetry_cell_setting 'tetragonal'
loop_
_space_group_symop_operation_xyz
x,y,z
1/2-y,x,1/2+z
1/2-x,1/2-y,z
y,1/2-x,1/2+z
1/2+x,-y,1/2-z
-x,1/2+y,1/2-z
1/2+y,1/2+x,-z
-y,-x,-z
-x,-y,-z
1/2+y,-x,1/2-z
1/2+x,1/2+y,-z
-y,1/2+x,1/2-z
1/2-x,y,1/2+z
x,1/2-y,1/2+z
1/2-y,1/2-x,z
y,x,z
loop_
_atom_site_type_symbol
_atom_site_label
_atom_site_fract_x
_atom_site_fract_y
_atom_site_fract_z
Si Si1 0.471178 0.471178 0.066260
Si Si2 0.633832 0.866169 0.737357
Si Si3 0.095257 0.731023 0.648213
Si Si4 0.464534 0.035467 0.141868
Si Si5 0.750000 0.750000 0.910054
O O1 0.604817 0.418165 0.102833
O O2 0.354851 0.354851 0.061228
O O3 0.500000 0.500000 0.000000
O O4 0.750000 0.750000 0.753660
O O5 0.517229 0.795017 0.697829
O O6 0.555310 0.944691 0.789107
O O7 0.250000 0.750000 0.671615
O O8 0.065641 0.880814 0.621675
O O9 0.353354 0.146647 0.122104
#
# Coordination Sequence:
#
# PCOD9571111 Si02
#       5
#     8   8  16   8   4
#     4  11  27  49  73 100 132 175 235 294 350 403
#     4  11  25  40  65 102 144 186 228 269 332 416
#     4  11  25  43  66 100 140 178 233 283 335 410
#     4  12  25  41  67 100 146 184 225 272 345 401
#     4  12  24  48  70 104 138 176 228 300 318 420
#
# _framework density 20.247059
#
# number of rings (size 3 to 8) (size 9 to 14) (size 15 to 20)
#    0.000    0.727    6.364    0.000    5.091    2.182 
#    0.000    1.818    0.000    0.000    0.000    0.000 
#    0.000    0.000    0.000    0.000    0.000    0.000 
#
# Total GULP energy -245460.541415 kJ/mol
# GULP energy per Si atom -5578.648669 kJ/mol
# Density = 2.020098 g / cm^3
# Si number density = 20.247059 Si / 1000 Ang^3
#
#
#
# Elastic Constant Matrix: (Units=GPa)
#
#
# Indices 1 2 3 4 5 6 
#
# 1 158.0833 60.5172 32.1540 0.0000 0.0000 0.0000
# 2 60.5172 158.0833 32.1540 0.0000 0.0000 0.0000
# 3 32.1540 32.1540 71.2076 0.0000 0.0000 0.0000
# 4 0.0000 0.0000 0.0000 -4.2544 0.0000 0.0000
# 5 0.0000 0.0000 0.0000 0.0000 -4.2544 0.0000
# 6 0.0000 0.0000 0.0000 0.0000 0.0000 54.1391
#
#
#
# Elastic Compliance Matrix: (Units=1/GPa)
#
#
# Indices 1 2 3 4 5 6 
#
# 1 0.007762 -0.002487 -0.002382 0.000000 0.000000 0.000000
# 2 -0.002487 0.007762 -0.002382 0.000000 0.000000 0.000000
# 3 -0.002382 -0.002382 0.016195 0.000000 0.000000 0.000000
# 4 0.000000 0.000000 0.000000 -0.235051 0.000000 0.000000
# 5 0.000000 0.000000 0.000000 0.000000 -0.235051 0.000000
# 6 0.000000 0.000000 0.000000 0.000000 0.000000 0.018471
#
#
# Mechanical properties :
#
#
# Convention : Reuss Voigt Hill
#
# Bulk Modulus (GPa) = 58.08206 70.78050 64.43128
# Shear Modulus (GPa) = -12.51033 26.62933 7.05950
#
# Velocity S-wave (km/s) = -2.48842 3.63053 1.86929
# Velocity P-wave (km/s) = 4.52688 7.25318 6.04571
#
# Compressibility (1/GPa) = 0.01721702
#
# Stress axis : x y z
#
# Youngs Moduli (GPa) = 128.82636 128.82636 61.74856
#
# Poissons Ratio (x) = 0.32040 0.14709
# Poissons Ratio (y) = 0.32040 0.14709
# Poissons Ratio (z) = 0.30687 0.30687
#
# Static dielectric constant tensor:
#      x y z
#    x 1.748190 0.000000 0.000000 
#    y 0.000000 1.748190 0.000000 
#    z 0.000000 0.000000 1.692230 
# 
# From -- ./inp_files/7712.got.cif
#   From: 2010.05.17/outbox.cif.g08.bks.cpg/sg138_4_cif.got.tgz:7712.got - 2010.05.20 13:08:53.
