data_PCOD9571608
_publ_section_title
;
Structure prediction by ZEFSAII (Michael W. Deem and Ramdas Pophale) SiO2 
 PCOD9571608
Probable space group: I 4/M M M
;
_chemical_formula_sum "Si O2"
_cell_formula_units_Z 176
_cell_length_a 18.107952
_cell_length_b 18.107952
_cell_length_c 31.485896
_cell_angle_alpha 90.000000
_cell_angle_beta 90.000000
_cell_angle_gamma 90.000000
_cell_volume 10324.159985
_symmetry_space_group_name_H-M "I 4/M M M"
_symmetry_group_IT_number 139
_symmetry_cell_setting 'tetragonal'
loop_
_space_group_symop_operation_xyz
x,y,z
-y,x,z
-x,-y,z
y,-x,z
x,-y,-z
-x,y,-z
y,x,-z
-y,-x,-z
-x,-y,-z
y,-x,-z
x,y,-z
-y,x,-z
-x,y,z
x,-y,z
-y,-x,z
y,x,z
1/2+x,1/2+y,1/2+z
1/2-y,1/2+x,1/2+z
1/2-x,1/2-y,1/2+z
1/2+y,1/2-x,1/2+z
1/2+x,1/2-y,1/2-z
1/2-x,1/2+y,1/2-z
1/2+y,1/2+x,1/2-z
1/2-y,1/2-x,1/2-z
1/2-x,1/2-y,1/2-z
1/2+y,1/2-x,1/2-z
1/2+x,1/2+y,1/2-z
1/2-y,1/2+x,1/2-z
1/2-x,1/2+y,1/2+z
1/2+x,1/2-y,1/2+z
1/2-y,1/2-x,1/2+z
1/2+y,1/2+x,1/2+z
loop_
_atom_site_type_symbol
_atom_site_label
_atom_site_fract_x
_atom_site_fract_y
_atom_site_fract_z
Si Si1 0.089191 0.666045 0.545710
Si Si2 0.711007 0.410547 0.596066
Si Si3 0.088623 0.349851 0.292088
Si Si4 0.088792 0.500000 0.563208
Si Si5 0.325254 0.797733 0.870004
Si Si6 0.000000 0.585704 0.156860
Si Si7 0.296792 0.412832 0.500000
O O1 0.111965 0.698482 0.500000
O O2 0.108912 0.578850 0.544770
O O3 0.124050 0.698923 0.588096
O O4 0.000000 0.670651 0.548909
O O5 0.705992 0.500000 0.600709
O O6 0.632869 0.367132 0.602872
O O7 0.770617 0.369299 0.625948
O O8 0.733000 0.391581 0.546699
O O9 0.137618 0.362383 0.250000
O O10 0.125389 0.297621 0.327421
O O11 0.095862 0.428652 0.315306
O O12 0.000000 0.336633 0.284475
O O13 0.121423 0.500000 0.610824
O O14 0.000000 0.500000 0.560391
O O15 0.272242 0.727759 0.871234
O O16 0.000000 0.500000 0.144918
O O17 0.296984 0.500000 0.500000
O O18 0.378636 0.378636 0.500000
#
# Coordination Sequence:
#
# PCOD9571608 Si02
#       7
#    32  32  32  16  32  16  16
#     4  10  20  33  51  75 103 138 183 226 262 306
#     4   9  19  32  46  65  90 128 177 223 264 303
#     4  11  21  35  58  83 104 130 170 216 261 314
#     4   9  15  28  47  74 108 132 164 217 268 306
#     4  11  24  36  49  73 109 146 175 210 263 326
#     4   9  16  27  48  79 104 124 159 211 258 307
#     4   8  14  27  42  58  81 111 159 213 254 294
#
# _framework density 17.047393
#
# number of rings (size 3 to 8) (size 9 to 14) (size 15 to 20)
#    0.000    2.182    2.727    0.818    3.818    2.091 
#    0.000    1.818    0.000    0.000    0.000    0.000 
#    0.000    5.818    0.000    8.364    0.000    0.000 
#
# Total GULP energy -489875.102124 kJ/mol
# GULP energy per Si atom -5566.762524 kJ/mol
# Density = 1.700859 g / cm^3
# Si number density = 17.047393 Si / 1000 Ang^3
#
#
#
# Elastic Constant Matrix: (Units=GPa)
#
#
# Indices 1 2 3 4 5 6 
#
# 1 81.7947 13.2402 32.1955 0.0000 0.0000 0.0000
# 2 13.2402 81.7945 32.1951 0.0000 0.0000 0.0000
# 3 32.1955 32.1951 118.3544 0.0000 0.0000 0.0000
# 4 0.0000 0.0000 0.0000 -0.4010 0.0000 0.0000
# 5 0.0000 0.0000 0.0000 0.0000 -0.4025 0.0000
# 6 0.0000 0.0000 0.0000 0.0000 0.0000 22.9720
#
#
#
# Elastic Compliance Matrix: (Units=1/GPa)
#
#
# Indices 1 2 3 4 5 6 
#
# 1 0.013744 -0.000843 -0.003509 0.000000 0.000000 0.000000
# 2 -0.000843 0.013743 -0.003509 0.000000 0.000000 0.000000
# 3 -0.003509 -0.003509 0.010358 0.000000 0.000000 0.000000
# 4 0.000000 0.000000 0.000000 -2.493685 0.000000 0.000000
# 5 0.000000 0.000000 0.000000 0.000000 -2.484181 0.000000
# 6 0.000000 0.000000 0.000000 0.000000 0.000000 0.043531
#
#
# Mechanical properties :
#
#
# Convention : Reuss Voigt Hill
#
# Bulk Modulus (GPa) = 45.20399 48.57835 46.89117
# Shear Modulus (GPa) = -1.02598 18.05454 8.51428
#
# Velocity S-wave (km/s) = -0.77662 3.25788 2.23726
# Velocity P-wave (km/s) = 5.07642 6.53526 5.85148
#
# Compressibility (1/GPa) = 0.02212194
#
# Stress axis : x y z
#
# Youngs Moduli (GPa) = 72.76165 72.76167 96.54062
#
# Poissons Ratio (x) = 0.06137 0.33878
# Poissons Ratio (y) = 0.06137 0.33877
# Poissons Ratio (z) = 0.25533 0.25533
#
# Static dielectric constant tensor:
#      x y z
#    x 1.590110 0.000000 0.000000 
#    y 0.000000 1.590110 0.000000 
#    z 0.000000 0.000000 1.653860 
# 
# From -- ./inp_files/14293.got.cif
#   From: 2010.05.17/outbox.cif.g08.bks.cpg/sg139_8_cif.got.tgz:14293.got - 2010.05.20 13:14:44.
