data_PCOD9571122
_publ_section_title
;
Structure prediction by ZEFSAII (Michael W. Deem and Ramdas Pophale) SiO2 
 PCOD9571122
Probable space group: P 42/N C M
;
_chemical_formula_sum "Si O2"
_cell_formula_units_Z 56
_cell_length_a 14.726027
_cell_length_b 14.726027
_cell_length_c 11.620314
_cell_angle_alpha 90.000000
_cell_angle_beta 90.000000
_cell_angle_gamma 90.000000
_cell_volume 2519.933316
_symmetry_space_group_name_H-M "P 42/N C M"
_symmetry_group_IT_number 138
_space_group.IT_coordinate_system_code '2'
_symmetry_cell_setting 'tetragonal'
loop_
_space_group_symop_operation_xyz
x,y,z
1/2-y,x,1/2+z
1/2-x,1/2-y,z
y,1/2-x,1/2+z
1/2+x,-y,1/2-z
-x,1/2+y,1/2-z
1/2+y,1/2+x,-z
-y,-x,-z
-x,-y,-z
1/2+y,-x,1/2-z
1/2+x,1/2+y,-z
-y,1/2+x,1/2-z
1/2-x,y,1/2+z
x,1/2-y,1/2+z
1/2-y,1/2-x,z
y,x,z
loop_
_atom_site_type_symbol
_atom_site_label
_atom_site_fract_x
_atom_site_fract_y
_atom_site_fract_z
Si Si1 0.108324 0.608324 0.000000
Si Si2 0.324934 0.175067 0.071229
Si Si3 0.411553 0.411553 0.216990
Si Si4 0.047285 0.047285 0.675689
Si Si5 0.928383 0.571618 0.543157
Si Si6 0.262181 0.020282 0.893354
O O1 0.202086 0.577289 0.940318
O O2 0.032713 0.591048 0.902485
O O3 0.250000 0.250000 0.103002
O O4 0.375115 0.124886 0.176450
O O5 0.284973 0.096806 0.988476
O O6 0.488737 0.488737 0.234221
O O7 0.394499 0.394499 0.083487
O O8 0.449220 0.321921 0.283105
O O9 0.845882 0.526133 0.613409
O O10 0.000000 0.500000 0.500000
#
# Coordination Sequence:
#
# PCOD9571122 Si02
#       6
#     8   8   8   8   8  16
#     4   7  12  28  57  80 108 156 213 253 276 378
#     4   9  13  26  58  89 122 142 196 273 314 383
#     4   9  20  41  62  82 126 174 219 252 323 413
#     4   7  12  25  51  86 111 154 199 247 302 375
#     4  12  25  42  57  99 142 161 203 297 344 354
#     4   9  18  37  59  89 126 164 214 254 323 399
#
# _framework density 22.222811
#
# number of rings (size 3 to 8) (size 9 to 14) (size 15 to 20)
#    0.000    3.143    1.429    3.429    0.000    0.000 
#   15.429    5.000    0.000    0.000    0.000    0.000 
#    0.000    0.000    0.000    0.000    0.000    0.000 
#
# Total GULP energy -312052.542482 kJ/mol
# GULP energy per Si atom -5572.366830 kJ/mol
# Density = 2.217223 g / cm^3
# Si number density = 22.222811 Si / 1000 Ang^3
#
#
#
# Elastic Constant Matrix: (Units=GPa)
#
#
# Indices 1 2 3 4 5 6 
#
# 1 113.5711 63.0820 9.1375 0.0000 0.0000 0.0000
# 2 63.0820 113.5711 9.1375 0.0000 0.0000 0.0000
# 3 9.1375 9.1375 95.0736 0.0000 0.0000 0.0000
# 4 0.0000 0.0000 0.0000 23.7701 0.0000 0.0000
# 5 0.0000 0.0000 0.0000 0.0000 23.7701 0.0000
# 6 0.0000 0.0000 0.0000 0.0000 0.0000 50.3894
#
#
#
# Elastic Compliance Matrix: (Units=1/GPa)
#
#
# Indices 1 2 3 4 5 6 
#
# 1 0.012762 -0.007044 -0.000550 0.000000 0.000000 0.000000
# 2 -0.007044 0.012762 -0.000550 0.000000 0.000000 0.000000
# 3 -0.000550 -0.000550 0.010624 0.000000 0.000000 0.000000
# 4 0.000000 0.000000 0.000000 0.042070 0.000000 0.000000
# 5 0.000000 0.000000 0.000000 0.000000 0.042070 0.000000
# 6 0.000000 0.000000 0.000000 0.000000 0.000000 0.019845
#
#
# Mechanical properties :
#
#
# Convention : Reuss Voigt Hill
#
# Bulk Modulus (GPa) = 50.34990 53.88112 52.11551
# Shear Modulus (GPa) = 30.66738 35.64315 33.15527
#
# Velocity S-wave (km/s) = 3.71886 4.00922 3.86676
# Velocity P-wave (km/s) = 6.41451 6.76241 6.59076
#
# Compressibility (1/GPa) = 0.01986101
#
# Stress axis : x y z
#
# Youngs Moduli (GPa) = 78.35789 78.35789 94.12835
#
# Poissons Ratio (x) = 0.55198 0.05173
# Poissons Ratio (y) = 0.55198 0.05173
# Poissons Ratio (z) = 0.04306 0.04306
#
# Static dielectric constant tensor:
#      x y z
#    x 1.843880 0.000000 0.000000 
#    y 0.000000 1.843880 0.000000 
#    z 0.000000 0.000000 1.929640 
# 
# From -- ./inp_files/2580.got.cif
#   From: 2010.05.17/outbox.cif.g08.bks.cpg/sg138_2_cif.got.tgz:2580.got - 2010.05.20 13:08:53.
