data_PCOD9571484
_publ_section_title
;
Structure prediction by ZEFSAII (Michael W. Deem and Ramdas Pophale) SiO2 
 PCOD9571484
Probable space group: I 4/M M M
;
_chemical_formula_sum "Si O2"
_cell_formula_units_Z 104
_cell_length_a 17.232596
_cell_length_b 17.232596
_cell_length_c 19.949920
_cell_angle_alpha 90.000000
_cell_angle_beta 90.000000
_cell_angle_gamma 90.000000
_cell_volume 5924.375423
_symmetry_space_group_name_H-M "I 4/M M M"
_symmetry_group_IT_number 139
_symmetry_cell_setting 'tetragonal'
loop_
_space_group_symop_operation_xyz
x,y,z
-y,x,z
-x,-y,z
y,-x,z
x,-y,-z
-x,y,-z
y,x,-z
-y,-x,-z
-x,-y,-z
y,-x,-z
x,y,-z
-y,x,-z
-x,y,z
x,-y,z
-y,-x,z
y,x,z
1/2+x,1/2+y,1/2+z
1/2-y,1/2+x,1/2+z
1/2-x,1/2-y,1/2+z
1/2+y,1/2-x,1/2+z
1/2+x,1/2-y,1/2-z
1/2-x,1/2+y,1/2-z
1/2+y,1/2+x,1/2-z
1/2-y,1/2-x,1/2-z
1/2-x,1/2-y,1/2-z
1/2+y,1/2-x,1/2-z
1/2+x,1/2+y,1/2-z
1/2-y,1/2+x,1/2-z
1/2-x,1/2+y,1/2+z
1/2+x,1/2-y,1/2+z
1/2-y,1/2-x,1/2+z
1/2+y,1/2+x,1/2+z
loop_
_atom_site_type_symbol
_atom_site_label
_atom_site_fract_x
_atom_site_fract_y
_atom_site_fract_z
Si Si1 0.822381 0.585378 0.919945
Si Si2 0.129277 0.000000 0.000000
Si Si3 0.631564 0.000000 0.919916
Si Si4 0.161095 0.161095 0.788018
Si Si5 0.782390 0.217611 0.648814
Si Si6 0.000000 0.207170 0.146051
O O1 0.797744 0.500000 0.895079
O O2 0.769911 0.654244 0.890244
O O3 0.915785 0.592390 0.908699
O O4 0.812553 0.587981 0.000000
O O5 0.173933 0.000000 0.929851
O O6 0.075220 0.924781 0.000000
O O7 0.701985 0.000000 0.868154
O O8 0.652841 0.000000 0.000000
O O9 0.173738 0.173738 0.709216
O O10 0.220888 0.220888 0.822137
O O11 0.075732 0.181256 0.814053
#
# Coordination Sequence:
#
# PCOD9571484 Si02
#       6
#    32   8  16  16  16  16
#     4  10  21  38  63  92 121 153 197 250 302 354
#     4  11  22  34  54  86 123 156 194 238 291 362
#     4  10  19  33  60  94 124 152 187 242 303 354
#     4  11  26  38  59  85 119 162 205 241 286 362
#     4  11  23  42  59  86 116 161 204 246 296 349
#     4  12  21  39  58  88 122 159 198 240 294 355
#
# _framework density 17.554593000000001
#
# number of rings (size 3 to 8) (size 9 to 14) (size 15 to 20)
#    0.000    1.308    5.385    0.923    2.154    2.154 
#    2.769    0.000    0.000    0.462    0.000    2.154 
#    0.000    0.000    0.000    0.000    0.000    0.000 
#
# Total GULP energy -289829.551970 kJ/mol
# GULP energy per Si atom -5573.645230 kJ/mol
# Density = 1.751464 g / cm^3
# Si number density = 17.554593 Si / 1000 Ang^3
#
#
#
# Elastic Constant Matrix: (Units=GPa)
#
#
# Indices 1 2 3 4 5 6 
#
# 1 128.5989 51.2627 49.0915 0.0000 0.0000 0.0000
# 2 51.2627 128.5992 49.0913 0.0000 0.0000 0.0000
# 3 49.0915 49.0913 71.6981 0.0000 0.0000 0.0000
# 4 0.0000 0.0000 0.0000 -15.6826 0.0000 0.0000
# 5 0.0000 0.0000 0.0000 0.0000 -15.6414 0.0000
# 6 0.0000 0.0000 0.0000 0.0000 0.0000 25.2013
#
#
#
# Elastic Compliance Matrix: (Units=1/GPa)
#
#
# Indices 1 2 3 4 5 6 
#
# 1 0.010904 -0.002026 -0.006079 0.000000 0.000000 0.000000
# 2 -0.002026 0.010904 -0.006079 0.000000 0.000000 0.000000
# 3 -0.006079 -0.006079 0.022272 0.000000 0.000000 0.000000
# 4 0.000000 0.000000 0.000000 -0.063765 0.000000 0.000000
# 5 0.000000 0.000000 0.000000 0.000000 -0.063933 0.000000
# 6 0.000000 0.000000 0.000000 0.000000 0.000000 0.039680
#
#
# Mechanical properties :
#
#
# Convention : Reuss Voigt Hill
#
# Bulk Modulus (GPa) = 63.64307 69.75416 66.69861
# Shear Modulus (GPa) = -483.94183 10.73884 -236.60149
#
# Velocity S-wave (km/s) = -16.62157 2.47602 -11.62209
# Velocity P-wave (km/s) = 18.22185 6.92792 11.91721
#
# Compressibility (1/GPa) = 0.01571263
#
# Stress axis : x y z
#
# Youngs Moduli (GPa) = 91.70640 91.70696 44.90011
#
# Poissons Ratio (x) = 0.18582 0.27294
# Poissons Ratio (y) = 0.18582 0.27294
# Poissons Ratio (z) = 0.55747 0.55747
#
# Static dielectric constant tensor:
#      x y z
#    x 1.596000 0.000000 0.000000 
#    y 0.000000 1.596000 0.000000 
#    z 0.000000 0.000000 1.582540 
# 
# From -- ./inp_files/7488.got.cif
#   From: 2010.05.17/outbox.cif.g08.bks.cpg/sg139_4_cif.got.tgz:7488.got - 2010.05.20 13:14:44.
