data_PCOD9571653
_publ_section_title
;
Structure prediction by ZEFSAII (Michael W. Deem and Ramdas Pophale) SiO2 
 PCOD9571653
Probable space group: I 4/M M M
;
_chemical_formula_sum "Si O2"
_cell_formula_units_Z 184
_cell_length_a 23.094342
_cell_length_b 23.094342
_cell_length_c 20.514692
_cell_angle_alpha 90.000000
_cell_angle_beta 90.000000
_cell_angle_gamma 90.000000
_cell_volume 10941.482923
_symmetry_space_group_name_H-M "I 4/M M M"
_symmetry_group_IT_number 139
_symmetry_cell_setting 'tetragonal'
loop_
_space_group_symop_operation_xyz
x,y,z
-y,x,z
-x,-y,z
y,-x,z
x,-y,-z
-x,y,-z
y,x,-z
-y,-x,-z
-x,-y,-z
y,-x,-z
x,y,-z
-y,x,-z
-x,y,z
x,-y,z
-y,-x,z
y,x,z
1/2+x,1/2+y,1/2+z
1/2-y,1/2+x,1/2+z
1/2-x,1/2-y,1/2+z
1/2+y,1/2-x,1/2+z
1/2+x,1/2-y,1/2-z
1/2-x,1/2+y,1/2-z
1/2+y,1/2+x,1/2-z
1/2-y,1/2-x,1/2-z
1/2-x,1/2-y,1/2-z
1/2+y,1/2-x,1/2-z
1/2+x,1/2+y,1/2-z
1/2-y,1/2+x,1/2-z
1/2-x,1/2+y,1/2+z
1/2+x,1/2-y,1/2+z
1/2-y,1/2-x,1/2+z
1/2+y,1/2+x,1/2+z
loop_
_atom_site_type_symbol
_atom_site_label
_atom_site_fract_x
_atom_site_fract_y
_atom_site_fract_z
Si Si1 0.768221 0.231780 0.131625
Si Si2 0.935166 0.652628 0.423828
Si Si3 0.679848 0.320153 0.500000
Si Si4 0.435294 0.164724 0.612991
Si Si5 0.568376 0.727712 0.154545
Si Si6 0.434791 0.741999 0.500000
Si Si7 0.718493 0.129022 0.777154
Si Si8 0.826773 0.173228 0.579911
O O1 0.822186 0.255471 0.174150
O O2 0.719414 0.280587 0.113271
O O3 0.791468 0.208533 0.063249
O O4 0.925588 0.666962 0.500000
O O5 0.885866 0.609573 0.400657
O O6 0.932743 0.710147 0.381124
O O7 0.000000 0.627640 0.417959
O O8 0.612527 0.306921 0.500000
O O9 0.500000 0.142311 0.605285
O O10 0.426387 0.215829 0.561194
O O11 0.424409 0.193896 0.682157
O O12 0.500000 0.710171 0.162735
O O13 0.603882 0.738783 0.221952
O O14 0.609518 0.689120 0.107851
O O15 0.500000 0.719846 0.500000
O O16 0.663023 0.163023 0.750000
O O17 0.823448 0.176553 0.500000
#
# Coordination Sequence:
#
# PCOD9571653 Si02
#       8
#    16  32   8  32  32  16  32  16
#     4  12  22  34  59  94 117 147 188 236 310 361
#     4  10  20  34  53  75 104 147 195 239 289 344
#     4  12  22  38  62  81 122 148 174 241 290 346
#     4  11  21  34  52  75 108 147 191 235 276 329
#     4  11  24  40  58  83 118 159 196 242 301 363
#     4  10  22  38  57  83 111 145 184 227 279 340
#     4  12  21  35  56  80 117 151 188 230 287 355
#     4  12  23  37  62  91 125 153 195 259 307 371
#
# _framework density 16.816734
#
# number of rings (size 3 to 8) (size 9 to 14) (size 15 to 20)
#    0.000    0.870    6.522    1.826    0.000    1.391 
#    0.000    0.870    0.000    0.391    0.000    0.609 
#    0.000    0.000    0.000    0.000    0.000    0.000 
#
# Total GULP energy -513115.681773 kJ/mol
# GULP energy per Si atom -5577.344367 kJ/mol
# Density = 1.677846 g / cm^3
# Si number density = 16.816734 Si / 1000 Ang^3
#
#
#
# Elastic Constant Matrix: (Units=GPa)
#
#
# Indices 1 2 3 4 5 6 
#
# 1 83.9227 53.0153 30.5093 0.0000 0.0000 0.0000
# 2 53.0153 83.9234 30.5093 0.0000 0.0000 0.0000
# 3 30.5093 30.5093 102.7259 0.0000 0.0000 0.0000
# 4 0.0000 0.0000 0.0000 31.6019 0.0000 0.0000
# 5 0.0000 0.0000 0.0000 0.0000 31.6050 0.0000
# 6 0.0000 0.0000 0.0000 0.0000 0.0000 26.8318
#
#
#
# Elastic Compliance Matrix: (Units=1/GPa)
#
#
# Indices 1 2 3 4 5 6 
#
# 1 0.020385 -0.011969 -0.002500 0.000000 0.000000 0.000000
# 2 -0.011969 0.020385 -0.002500 0.000000 0.000000 0.000000
# 3 -0.002500 -0.002500 0.011219 0.000000 0.000000 0.000000
# 4 0.000000 0.000000 0.000000 0.031644 0.000000 0.000000
# 5 0.000000 0.000000 0.000000 0.000000 0.031641 0.000000
# 6 0.000000 0.000000 0.000000 0.000000 0.000000 0.037269
#
#
# Mechanical properties :
#
#
# Convention : Reuss Voigt Hill
#
# Bulk Modulus (GPa) = 55.39058 55.40441 55.39750
# Shear Modulus (GPa) = 25.97429 28.44361 27.20895
#
# Velocity S-wave (km/s) = 3.93434 4.11711 4.02676
# Velocity P-wave (km/s) = 7.32448 7.45777 7.39142
#
# Compressibility (1/GPa) = 0.01805361
#
# Stress axis : x y z
#
# Youngs Moduli (GPa) = 49.05455 49.05502 89.13121
#
# Poissons Ratio (x) = 0.58714 0.22280
# Poissons Ratio (y) = 0.58713 0.22279
# Poissons Ratio (z) = 0.12262 0.12262
#
# Static dielectric constant tensor:
#      x y z
#    x 1.561800 0.000000 0.000000 
#    y 0.000000 1.561800 0.000000 
#    z 0.000000 0.000000 1.627570 
# 
# From -- ./inp_files/8748.got.cif
#   From: 2010.05.17/outbox.cif.g08.bks.cpg/sg139_5_cif.got.tgz:8748.got - 2010.05.20 13:14:44.
