data_PCOD9571397
_publ_section_title
;
Structure prediction by ZEFSAII (Michael W. Deem and Ramdas Pophale) SiO2 
 PCOD9571397
Probable space group: I 4/M M M
;
_chemical_formula_sum "Si O2"
_cell_formula_units_Z 160
_cell_length_a 30.628603
_cell_length_b 30.628603
_cell_length_c 8.936048
_cell_angle_alpha 90.000000
_cell_angle_beta 90.000000
_cell_angle_gamma 90.000000
_cell_volume 8383.007800
_symmetry_space_group_name_H-M "I 4/M M M"
_symmetry_group_IT_number 139
_symmetry_cell_setting 'tetragonal'
loop_
_space_group_symop_operation_xyz
x,y,z
-y,x,z
-x,-y,z
y,-x,z
x,-y,-z
-x,y,-z
y,x,-z
-y,-x,-z
-x,-y,-z
y,-x,-z
x,y,-z
-y,x,-z
-x,y,z
x,-y,z
-y,-x,z
y,x,z
1/2+x,1/2+y,1/2+z
1/2-y,1/2+x,1/2+z
1/2-x,1/2-y,1/2+z
1/2+y,1/2-x,1/2+z
1/2+x,1/2-y,1/2-z
1/2-x,1/2+y,1/2-z
1/2+y,1/2+x,1/2-z
1/2-y,1/2-x,1/2-z
1/2-x,1/2-y,1/2-z
1/2+y,1/2-x,1/2-z
1/2+x,1/2+y,1/2-z
1/2-y,1/2+x,1/2-z
1/2-x,1/2+y,1/2+z
1/2+x,1/2-y,1/2+z
1/2-y,1/2-x,1/2+z
1/2+y,1/2+x,1/2+z
loop_
_atom_site_type_symbol
_atom_site_label
_atom_site_fract_x
_atom_site_fract_y
_atom_site_fract_z
Si Si1 0.798626 0.909682 0.180451
Si Si2 0.834979 0.500000 0.835043
Si Si3 0.267649 0.500000 0.168501
Si Si4 0.227631 0.660684 0.320196
Si Si5 0.653082 0.909987 0.823119
Si Si6 0.117985 0.050674 0.320284
O O1 0.773350 0.864181 0.223802
O O2 0.847182 0.917262 0.242577
O O3 0.777615 0.954745 0.245255
O O4 0.797356 0.911043 0.000000
O O5 0.783402 0.500000 0.852222
O O6 0.844410 0.457383 0.742405
O O7 0.855521 0.500000 0.000000
O O8 0.287928 0.500000 0.000000
O O9 0.229281 0.667713 0.500000
O O10 0.204759 0.704759 0.250000
O O11 0.193623 0.621660 0.283834
O O12 0.611743 0.888258 0.750000
O O13 0.650831 0.910517 0.000000
O O14 0.123975 0.052628 0.500000
O O15 0.070154 0.070154 0.287864
O O16 0.123798 0.000000 0.273577
#
# Coordination Sequence:
#
# PCOD9571397 Si02
#       6
#    32  16  16  32  32  32
#     4  11  21  35  56  84 118 154 193 240 294 349
#     4  11  21  31  47  72 100 134 174 219 275 337
#     4  11  21  31  49  79 111 147 189 233 285 342
#     4   9  19  32  49  76 111 149 188 230 281 338
#     4  10  19  32  47  67  97 132 172 219 274 333
#     4  10  22  40  62  90 122 158 200 243 293 354
#
# _framework density 19.086228999999999
#
# number of rings (size 3 to 8) (size 9 to 14) (size 15 to 20)
#    0.000    1.800    3.000    1.800    0.000    3.800 
#    0.000    1.000    0.000    0.900    0.000    3.500 
#    0.000    0.000    0.000    0.000    0.000    0.000 
#
# Total GULP energy -445373.334249 kJ/mol
# GULP energy per Si atom -5567.166678 kJ/mol
# Density = 1.904279 g / cm^3
# Si number density = 19.086229 Si / 1000 Ang^3
#
#
#
# Elastic Constant Matrix: (Units=GPa)
#
#
# Indices 1 2 3 4 5 6 
#
# 1 74.9821 62.0038 24.1689 0.0000 0.0000 0.0000
# 2 62.0038 74.9817 24.1652 0.0000 0.0000 0.0000
# 3 24.1689 24.1652 34.8076 0.0000 0.0000 0.0000
# 4 0.0000 0.0000 0.0000 17.2573 0.0000 0.0000
# 5 0.0000 0.0000 0.0000 0.0000 17.2588 0.0000
# 6 0.0000 0.0000 0.0000 0.0000 0.0000 59.0066
#
#
#
# Elastic Compliance Matrix: (Units=1/GPa)
#
#
# Indices 1 2 3 4 5 6 
#
# 1 0.043362 -0.033692 -0.006718 0.000000 0.000000 0.000000
# 2 -0.033692 0.043359 -0.006708 0.000000 0.000000 0.000000
# 3 -0.006718 -0.006708 0.038051 0.000000 0.000000 0.000000
# 4 0.000000 0.000000 0.000000 0.057947 0.000000 0.000000
# 5 0.000000 0.000000 0.000000 0.000000 0.057941 0.000000
# 6 0.000000 0.000000 0.000000 0.000000 0.000000 0.016947
#
#
# Mechanical properties :
#
#
# Convention : Reuss Voigt Hill
#
# Bulk Modulus (GPa) = 32.74776 45.04967 38.89872
# Shear Modulus (GPa) = 13.81131 23.66677 18.73904
#
# Velocity S-wave (km/s) = 2.69295 3.52517 3.13678
# Velocity P-wave (km/s) = 5.18308 6.34221 5.79172
#
# Compressibility (1/GPa) = 0.03053644
#
# Stress axis : x y z
#
# Youngs Moduli (GPa) = 23.06147 23.06334 26.28048
#
# Poissons Ratio (x) = 0.77705 0.17656
# Poissons Ratio (y) = 0.77699 0.17628
# Poissons Ratio (z) = 0.15493 0.15470
#
# Static dielectric constant tensor:
#      x y z
#    x 1.634560 0.000000 0.000000 
#    y 0.000000 1.634590 0.000000 
#    z 0.000000 0.000000 1.686780 
# 
# From -- ./inp_files/2232.got.cif
#   From: 2010.05.17/outbox.cif.g08.bks.cpg/sg139_2_cif.got.tgz:2232.got - 2010.05.20 13:14:44.
