data_PCOD9571513
_publ_section_title
;
Structure prediction by ZEFSAII (Michael W. Deem and Ramdas Pophale) SiO2 
 PCOD9571513
Probable space group: I 4/M M M
;
_chemical_formula_sum "Si O2"
_cell_formula_units_Z 192
_cell_length_a 21.392972
_cell_length_b 21.392972
_cell_length_c 24.454090
_cell_angle_alpha 90.000000
_cell_angle_beta 90.000000
_cell_angle_gamma 90.000000
_cell_volume 11191.640513
_symmetry_space_group_name_H-M "I 4/M M M"
_symmetry_group_IT_number 139
_symmetry_cell_setting 'tetragonal'
loop_
_space_group_symop_operation_xyz
x,y,z
-y,x,z
-x,-y,z
y,-x,z
x,-y,-z
-x,y,-z
y,x,-z
-y,-x,-z
-x,-y,-z
y,-x,-z
x,y,-z
-y,x,-z
-x,y,z
x,-y,z
-y,-x,z
y,x,z
1/2+x,1/2+y,1/2+z
1/2-y,1/2+x,1/2+z
1/2-x,1/2-y,1/2+z
1/2+y,1/2-x,1/2+z
1/2+x,1/2-y,1/2-z
1/2-x,1/2+y,1/2-z
1/2+y,1/2+x,1/2-z
1/2-y,1/2-x,1/2-z
1/2-x,1/2-y,1/2-z
1/2+y,1/2-x,1/2-z
1/2+x,1/2+y,1/2-z
1/2-y,1/2+x,1/2-z
1/2-x,1/2+y,1/2+z
1/2+x,1/2-y,1/2+z
1/2-y,1/2-x,1/2+z
1/2+y,1/2+x,1/2+z
loop_
_atom_site_type_symbol
_atom_site_label
_atom_site_fract_x
_atom_site_fract_y
_atom_site_fract_z
Si Si1 0.073726 0.176333 0.309600
Si Si2 0.927253 0.679702 0.500000
Si Si3 0.351634 0.754219 0.725222
Si Si4 0.684691 0.129743 0.881938
Si Si5 0.075226 0.428030 0.814117
Si Si6 0.640867 0.739454 0.910217
Si Si7 0.075145 0.329396 0.000000
O O1 0.113058 0.113058 0.298839
O O2 0.096963 0.228439 0.266828
O O3 0.098416 0.203292 0.367077
O O4 0.000000 0.167178 0.308740
O O5 0.902244 0.720758 0.449972
O O6 0.895451 0.611730 0.500000
O O7 0.000000 0.673593 0.500000
O O8 0.299774 0.700227 0.719213
O O9 0.313544 0.813544 0.750000
O O10 0.383942 0.768551 0.667502
O O11 0.618275 0.105792 0.857874
O O12 0.682232 0.205172 0.884008
O O13 0.698555 0.100552 0.941824
O O14 0.094898 0.500000 0.822957
O O15 0.087821 0.412180 0.750000
O O16 0.000000 0.424934 0.820085
O O17 0.688612 0.688612 0.934775
O O18 0.000000 0.332029 0.000000
#
# Coordination Sequence:
#
# PCOD9571513 Si02
#       7
#    32  16  32  32  32  32  16
#     4  10  21  35  54  80 109 141 175 218 271 328
#     4  10  21  36  56  77  97 135 185 222 261 314
#     4  10  19  35  56  82 110 133 167 219 277 326
#     4  11  20  34  53  75  99 143 180 220 264 314
#     4   9  19  33  47  69 102 137 177 223 265 306
#     4  10  20  35  53  76 106 134 170 220 272 318
#     4  10  24  38  48  71 110 146 184 221 258 308
#
# _framework density 17.155662
#
# number of rings (size 3 to 8) (size 9 to 14) (size 15 to 20)
#    0.000    2.000    1.667    2.750    0.000    5.000 
#    0.000    1.250    0.000    0.000    0.000    0.000 
#    0.000    6.000    0.000    0.000    0.000   13.333 
#
# Total GULP energy -535120.781952 kJ/mol
# GULP energy per Si atom -5574.174812 kJ/mol
# Density = 1.711662 g / cm^3
# Si number density = 17.155662 Si / 1000 Ang^3
#
#
#
# Elastic Constant Matrix: (Units=GPa)
#
#
# Indices 1 2 3 4 5 6 
#
# 1 63.6375 41.9256 20.5578 0.0000 0.0000 0.0000
# 2 41.9256 63.6379 20.5579 0.0000 0.0000 0.0000
# 3 20.5578 20.5579 85.2235 0.0000 0.0000 0.0000
# 4 0.0000 0.0000 0.0000 133.4783 0.0000 0.0000
# 5 0.0000 0.0000 0.0000 0.0000 133.4669 0.0000
# 6 0.0000 0.0000 0.0000 0.0000 0.0000 14.8011
#
#
#
# Elastic Compliance Matrix: (Units=1/GPa)
#
#
# Indices 1 2 3 4 5 6 
#
# 1 0.028256 -0.017801 -0.002522 0.000000 0.000000 0.000000
# 2 -0.017801 0.028256 -0.002522 0.000000 0.000000 0.000000
# 3 -0.002522 -0.002522 0.012951 0.000000 0.000000 0.000000
# 4 0.000000 0.000000 0.000000 0.007492 0.000000 0.000000
# 5 0.000000 0.000000 0.000000 0.000000 0.007492 0.000000
# 6 0.000000 0.000000 0.000000 0.000000 0.000000 0.067562
#
#
# Mechanical properties :
#
#
# Convention : Reuss Voigt Hill
#
# Bulk Modulus (GPa) = 42.06456 42.06462 42.06459
# Shear Modulus (GPa) = 24.31615 64.97977 44.64796
#
# Velocity S-wave (km/s) = 3.76890 6.16107 5.10702
# Velocity P-wave (km/s) = 6.59637 8.67089 7.70378
#
# Compressibility (1/GPa) = 0.02377298
#
# Stress axis : x y z
#
# Youngs Moduli (GPa) = 35.39021 35.39038 77.21644
#
# Poissons Ratio (x) = 0.62999 0.19474
# Poissons Ratio (y) = 0.62998 0.19474
# Poissons Ratio (z) = 0.08926 0.08926
#
# Static dielectric constant tensor:
#      x y z
#    x 1.576890 0.000000 0.000000 
#    y 0.000000 1.576890 0.000000 
#    z 0.000000 0.000000 1.664380 
# 
# From -- ./inp_files/13353.got.cif
#   From: 2010.05.17/outbox.cif.g08.bks.cpg/sg139_7_cif.got.tgz:13353.got - 2010.05.20 13:14:44.
