data_PCOD9571929
_publ_section_title
;
Structure prediction by ZEFSAII (Michael W. Deem and Ramdas Pophale) SiO2 
 PCOD9571929
Probable space group: I 4/M M M
;
_chemical_formula_sum "Si O2"
_cell_formula_units_Z 96
_cell_length_a 23.544199
_cell_length_b 23.544199
_cell_length_c 8.368924
_cell_angle_alpha 90.000000
_cell_angle_beta 90.000000
_cell_angle_gamma 90.000000
_cell_volume 4639.139838
_symmetry_space_group_name_H-M "I 4/M M M"
_symmetry_group_IT_number 139
_symmetry_cell_setting 'tetragonal'
loop_
_space_group_symop_operation_xyz
x,y,z
-y,x,z
-x,-y,z
y,-x,z
x,-y,-z
-x,y,-z
y,x,-z
-y,-x,-z
-x,-y,-z
y,-x,-z
x,y,-z
-y,x,-z
-x,y,z
x,-y,z
-y,-x,z
y,x,z
1/2+x,1/2+y,1/2+z
1/2-y,1/2+x,1/2+z
1/2-x,1/2-y,1/2+z
1/2+y,1/2-x,1/2+z
1/2+x,1/2-y,1/2-z
1/2-x,1/2+y,1/2-z
1/2+y,1/2+x,1/2-z
1/2-y,1/2-x,1/2-z
1/2-x,1/2-y,1/2-z
1/2+y,1/2-x,1/2-z
1/2+x,1/2+y,1/2-z
1/2-y,1/2+x,1/2-z
1/2-x,1/2+y,1/2+z
1/2+x,1/2-y,1/2+z
1/2-y,1/2-x,1/2+z
1/2+y,1/2+x,1/2+z
loop_
_atom_site_type_symbol
_atom_site_label
_atom_site_fract_x
_atom_site_fract_y
_atom_site_fract_z
Si Si1 0.340000 0.660001 0.190600
Si Si2 0.125835 0.716841 0.188796
Si Si3 0.500000 0.210018 0.819296
Si Si4 0.933941 0.066060 0.694579
Si Si5 0.000000 0.410581 0.806317
O O1 0.275892 0.649155 0.244835
O O2 0.387085 0.612916 0.248936
O O3 0.342790 0.657211 0.000000
O O4 0.162244 0.662244 0.250000
O O5 0.059486 0.722217 0.234786
O O6 0.130689 0.714730 0.000000
O O7 0.500000 0.142781 0.807376
O O8 0.500000 0.232568 0.000000
O O9 0.933318 0.066683 0.500000
O O10 0.000000 0.078743 0.742001
O O11 0.946373 0.446373 0.750000
O O12 0.000000 0.400215 0.000000
#
# Coordination Sequence:
#
# PCOD9571929 Si02
#       5
#    16  32  16  16  16
#     4  11  23  40  68 101 135 178 226 276 334 398
#     4  12  26  46  68  96 133 176 224 278 337 399
#     4  12  25  43  66  94 126 165 214 269 328 394
#     4   8  16  33  60  97 138 178 221 271 325 389
#     4  11  21  36  57  86 122 163 207 255 314 377
#
# _framework density 20.693493
#
# number of rings (size 3 to 8) (size 9 to 14) (size 15 to 20)
#    0.000    1.000    0.000    9.000    2.333    0.000 
#    0.000    0.000    0.000    0.000    0.000    4.667 
#    0.000    0.000    0.000    0.000    0.000    0.000 
#
# Total GULP energy -267715.791547 kJ/mol
# GULP energy per Si atom -5577.412324 kJ/mol
# Density = 2.064639 g / cm^3
# Si number density = 20.693493 Si / 1000 Ang^3
#
#
#
# Elastic Constant Matrix: (Units=GPa)
#
#
# Indices 1 2 3 4 5 6 
#
# 1 113.9187 58.7549 27.7132 0.0000 0.0000 0.0000
# 2 58.7549 113.9194 27.7141 0.0000 0.0000 0.0000
# 3 27.7132 27.7141 122.2752 0.0000 0.0000 0.0000
# 4 0.0000 0.0000 0.0000 26.0941 0.0000 0.0000
# 5 0.0000 0.0000 0.0000 0.0000 26.0941 0.0000
# 6 0.0000 0.0000 0.0000 0.0000 0.0000 -53.8329
#
#
#
# Elastic Compliance Matrix: (Units=1/GPa)
#
#
# Indices 1 2 3 4 5 6 
#
# 1 0.012187 -0.005941 -0.001416 0.000000 0.000000 0.000000
# 2 -0.005941 0.012187 -0.001416 0.000000 0.000000 0.000000
# 3 -0.001416 -0.001416 0.008820 0.000000 0.000000 0.000000
# 4 0.000000 0.000000 0.000000 0.038323 0.000000 0.000000
# 5 0.000000 0.000000 0.000000 0.000000 0.038323 0.000000
# 6 0.000000 0.000000 0.000000 0.000000 0.000000 -0.018576
#
#
# Mechanical properties :
#
#
# Convention : Reuss Voigt Hill
#
# Bulk Modulus (GPa) = 63.90203 64.27530 64.08867
# Shear Modulus (GPa) = 43.85051 15.39980 29.62516
#
# Velocity S-wave (km/s) = 4.60831 2.73094 3.78778
# Velocity P-wave (km/s) = 7.69822 6.40875 7.08289
#
# Compressibility (1/GPa) = 0.01564895
#
# Stress axis : x y z
#
# Youngs Moduli (GPa) = 82.05664 82.05695 113.37933
#
# Poissons Ratio (x) = 0.48750 0.16049
# Poissons Ratio (y) = 0.48750 0.16050
# Poissons Ratio (z) = 0.11615 0.11616
#
# Static dielectric constant tensor:
#      x y z
#    x 1.890970 0.000000 0.000000 
#    y 0.000000 1.890950 0.000000 
#    z 0.000000 0.000000 1.742500 
# 
# From -- ./inp_files/1172.got.cif
#   From: 2010.05.17/outbox.cif.g08.bks.cpg/sg139_1_cif.got.tgz:1172.got - 2010.05.20 13:14:44.
