data_PCOD9571011
_publ_section_title
;
Structure prediction by ZEFSAII (Michael W. Deem and Ramdas Pophale) SiO2 
 PCOD9571011
Probable space group: P 42/N C M
;
_chemical_formula_sum "Si O2"
_cell_formula_units_Z 64
_cell_length_a 9.206992
_cell_length_b 9.206992
_cell_length_c 28.358184
_cell_angle_alpha 90.000000
_cell_angle_beta 90.000000
_cell_angle_gamma 90.000000
_cell_volume 2403.886440
_symmetry_space_group_name_H-M "P 42/N C M"
_symmetry_group_IT_number 138
_space_group.IT_coordinate_system_code '2'
_symmetry_cell_setting 'tetragonal'
loop_
_space_group_symop_operation_xyz
x,y,z
1/2-y,x,1/2+z
1/2-x,1/2-y,z
y,1/2-x,1/2+z
1/2+x,-y,1/2-z
-x,1/2+y,1/2-z
1/2+y,1/2+x,-z
-y,-x,-z
-x,-y,-z
1/2+y,-x,1/2-z
1/2+x,1/2+y,-z
-y,1/2+x,1/2-z
1/2-x,y,1/2+z
x,1/2-y,1/2+z
1/2-y,1/2-x,z
y,x,z
loop_
_atom_site_type_symbol
_atom_site_label
_atom_site_fract_x
_atom_site_fract_y
_atom_site_fract_z
Si Si1 0.258683 0.008431 0.079875
Si Si2 0.689812 0.058709 0.627470
Si Si3 0.252059 0.492307 0.975750
Si Si4 0.701902 0.465740 0.231542
O O1 0.407867 0.092134 0.087767
O O2 0.135439 0.135439 0.077462
O O3 0.205522 0.903410 0.121032
O O4 0.247958 0.934400 0.027704
O O5 0.761738 0.040702 0.677968
O O6 0.573899 0.926102 0.627580
O O7 0.771161 0.047919 0.577432
O O8 0.124970 0.375031 0.983140
O O9 0.401819 0.401819 0.972953
O O10 0.836147 0.417479 0.263840
O O11 0.616076 0.616076 0.240543
#
# Coordination Sequence:
#
# PCOD9571011 Si02
#       4
#    16  16  16  16
#     4   8  13  21  36  65 106 144 177 219 272 334
#     4   9  16  27  46  71 102 144 188 229 282 346
#     4   8  13  21  36  65 106 144 177 219 272 334
#     4  10  23  42  62  87 118 153 200 256 309 360
#
# _framework density 26.623556000000001
#
# number of rings (size 3 to 8) (size 9 to 14) (size 15 to 20)
#    0.000    3.250    0.000    2.250    0.000    5.500 
#    0.000    5.000    0.000    0.000    0.000   14.000 
#    0.000   24.000    0.000    2.000    0.000    0.000 
#
# Total GULP energy -357882.070523 kJ/mol
# GULP energy per Si atom -5591.907352 kJ/mol
# Density = 2.656296 g / cm^3
# Si number density = 26.623556 Si / 1000 Ang^3
#
#
#
# Elastic Constant Matrix: (Units=GPa)
#
#
# Indices 1 2 3 4 5 6 
#
# 1 63.9966 8.8428 8.6919 0.0000 0.0000 0.0000
# 2 8.8428 63.9966 8.6919 0.0000 0.0000 0.0000
# 3 8.6919 8.6919 122.3284 0.0000 0.0000 0.0000
# 4 0.0000 0.0000 0.0000 19.1445 0.0000 0.0000
# 5 0.0000 0.0000 0.0000 0.0000 19.1445 0.0000
# 6 0.0000 0.0000 0.0000 0.0000 0.0000 45.1770
#
#
#
# Elastic Compliance Matrix: (Units=1/GPa)
#
#
# Indices 1 2 3 4 5 6 
#
# 1 0.016048 -0.002083 -0.000992 0.000000 0.000000 0.000000
# 2 -0.002083 0.016048 -0.000992 0.000000 0.000000 0.000000
# 3 -0.000992 -0.000992 0.008316 0.000000 0.000000 0.000000
# 4 0.000000 0.000000 0.000000 0.052234 0.000000 0.000000
# 5 0.000000 0.000000 0.000000 0.000000 0.052234 0.000000
# 6 0.000000 0.000000 0.000000 0.000000 0.000000 0.022135
#
#
# Mechanical properties :
#
#
# Convention : Reuss Voigt Hill
#
# Bulk Modulus (GPa) = 30.98105 33.64165 32.31135
# Shear Modulus (GPa) = 26.89470 31.63287 29.26379
#
# Velocity S-wave (km/s) = 3.18179 3.45070 3.31897
# Velocity P-wave (km/s) = 5.01601 5.34228 5.18171
#
# Compressibility (1/GPa) = 0.03227780
#
# Stress axis : x y z
#
# Youngs Moduli (GPa) = 62.31157 62.31157 120.25396
#
# Poissons Ratio (x) = 0.12978 0.11933
# Poissons Ratio (y) = 0.12978 0.11933
# Poissons Ratio (z) = 0.06183 0.06183
#
# Static dielectric constant tensor:
#      x y z
#    x 2.140180 0.000000 0.000000 
#    y 0.000000 2.140180 0.000000 
#    z 0.000000 0.000000 1.975240 
# 
# From -- ./inp_files/7310.got.cif
#   From: 2010.05.17/outbox.cif.g08.bks.cpg/sg138_4_cif.got.tgz:7310.got - 2010.05.20 13:08:53.
