data_PCOD9571801
_publ_section_title
;
Structure prediction by ZEFSAII (Michael W. Deem and Ramdas Pophale) SiO2 
 PCOD9571801
Probable space group: I 4/M M M
;
_chemical_formula_sum "Si O2"
_cell_formula_units_Z 160
_cell_length_a 24.123755
_cell_length_b 24.123755
_cell_length_c 14.062452
_cell_angle_alpha 90.000000
_cell_angle_beta 90.000000
_cell_angle_gamma 90.000000
_cell_volume 8183.722063
_symmetry_space_group_name_H-M "I 4/M M M"
_symmetry_group_IT_number 139
_symmetry_cell_setting 'tetragonal'
loop_
_space_group_symop_operation_xyz
x,y,z
-y,x,z
-x,-y,z
y,-x,z
x,-y,-z
-x,y,-z
y,x,-z
-y,-x,-z
-x,-y,-z
y,-x,-z
x,y,-z
-y,x,-z
-x,y,z
x,-y,z
-y,-x,z
y,x,z
1/2+x,1/2+y,1/2+z
1/2-y,1/2+x,1/2+z
1/2-x,1/2-y,1/2+z
1/2+y,1/2-x,1/2+z
1/2+x,1/2-y,1/2-z
1/2-x,1/2+y,1/2-z
1/2+y,1/2+x,1/2-z
1/2-y,1/2-x,1/2-z
1/2-x,1/2-y,1/2-z
1/2+y,1/2-x,1/2-z
1/2+x,1/2+y,1/2-z
1/2-y,1/2+x,1/2-z
1/2-x,1/2+y,1/2+z
1/2+x,1/2-y,1/2+z
1/2-y,1/2-x,1/2+z
1/2+y,1/2+x,1/2+z
loop_
_atom_site_type_symbol
_atom_site_label
_atom_site_fract_x
_atom_site_fract_y
_atom_site_fract_z
Si Si1 0.847809 0.060974 0.389546
Si Si2 0.561777 0.645050 0.386409
Si Si3 0.612802 0.237650 0.389739
Si Si4 0.729399 0.182292 0.386409
Si Si5 0.771306 0.437884 0.800567
O O1 0.828491 0.067005 0.500000
O O2 0.890461 0.109540 0.370783
O O3 0.794607 0.062402 0.322548
O O4 0.873976 0.000000 0.382460
O O5 0.556520 0.637165 0.500000
O O6 0.500000 0.656024 0.350242
O O7 0.590677 0.590677 0.345294
O O8 0.602393 0.697044 0.378418
O O9 0.600821 0.223063 0.500000
O O10 0.675642 0.220452 0.367911
O O11 0.571779 0.213770 0.309857
O O12 0.735912 0.177967 0.500000
O O13 0.784868 0.215133 0.351111
O O14 0.714092 0.120846 0.349748
O O15 0.790407 0.500000 0.831287
#
# Coordination Sequence:
#
# PCOD9571801 Si02
#       5
#    32  32  32  32  32
#     4   9  18  32  49  70  97 131 174 222 269 317
#     4   9  17  29  45  66  96 135 177 220 261 300
#     4  10  21  37  55  76 105 143 187 231 272 318
#     4  10  21  37  58  83 110 143 185 233 285 339
#     4  11  22  34  52  78 108 142 175 213 270 335
#
# _framework density 19.551006000000001
#
# number of rings (size 3 to 8) (size 9 to 14) (size 15 to 20)
#    0.000    2.200    0.000    3.000    0.000   10.800 
#    0.000    2.000    0.000    0.000    0.000    2.800 
#    0.000   13.600    0.000   45.400    0.000    0.000 
#
# Total GULP energy -445797.508620 kJ/mol
# GULP energy per Si atom -5572.468858 kJ/mol
# Density = 1.950651 g / cm^3
# Si number density = 19.551006 Si / 1000 Ang^3
#
#
#
# Elastic Constant Matrix: (Units=GPa)
#
#
# Indices 1 2 3 4 5 6 
#
# 1 93.9419 69.8708 18.4773 0.0000 0.0000 0.0000
# 2 69.8708 93.9419 18.4773 0.0000 0.0000 0.0000
# 3 18.4773 18.4773 89.0789 0.0000 0.0000 0.0000
# 4 0.0000 0.0000 0.0000 17.1568 0.0000 0.0000
# 5 0.0000 0.0000 0.0000 0.0000 17.1568 0.0000
# 6 0.0000 0.0000 0.0000 0.0000 0.0000 14.8059
#
#
#
# Elastic Compliance Matrix: (Units=1/GPa)
#
#
# Indices 1 2 3 4 5 6 
#
# 1 0.023974 -0.017570 -0.001328 0.000000 0.000000 0.000000
# 2 -0.017570 0.023974 -0.001328 0.000000 0.000000 0.000000
# 3 -0.001328 -0.001328 0.011777 0.000000 0.000000 0.000000
# 4 0.000000 0.000000 0.000000 0.058286 0.000000 0.000000
# 5 0.000000 0.000000 0.000000 0.000000 0.058286 0.000000
# 6 0.000000 0.000000 0.000000 0.000000 0.000000 0.067541
#
#
# Mechanical properties :
#
#
# Convention : Reuss Voigt Hill
#
# Bulk Modulus (GPa) = 51.88898 54.51258 53.20078
# Shear Modulus (GPa) = 17.19902 21.16640 19.18271
#
# Velocity S-wave (km/s) = 2.96919 3.29390 3.13575
# Velocity P-wave (km/s) = 6.19296 6.51223 6.35460
#
# Compressibility (1/GPa) = 0.01927192
#
# Stress axis : x y z
#
# Youngs Moduli (GPa) = 41.71204 41.71204 84.91059
#
# Poissons Ratio (x) = 0.73287 0.11280
# Poissons Ratio (y) = 0.73287 0.11280
# Poissons Ratio (z) = 0.05541 0.05541
#
# Static dielectric constant tensor:
#      x y z
#    x 1.685190 0.000000 0.000000 
#    y 0.000000 1.685190 0.000000 
#    z 0.000000 0.000000 1.798770 
# 
# From -- ./inp_files/5910.got.cif
#   From: 2010.05.17/outbox.cif.g08.bks.cpg/sg139_3_cif.got.tgz:5910.got - 2010.05.20 13:14:44.
