data_PCOD9571819
_publ_section_title
;
Structure prediction by ZEFSAII (Michael W. Deem and Ramdas Pophale) SiO2 
 PCOD9571819
Probable space group: I 4/M M M
;
_chemical_formula_sum "Si O2"
_cell_formula_units_Z 192
_cell_length_a 27.050826
_cell_length_b 27.050826
_cell_length_c 14.513237
_cell_angle_alpha 90.000000
_cell_angle_beta 90.000000
_cell_angle_gamma 90.000000
_cell_volume 10620.020353
_symmetry_space_group_name_H-M "I 4/M M M"
_symmetry_group_IT_number 139
_symmetry_cell_setting 'tetragonal'
loop_
_space_group_symop_operation_xyz
x,y,z
-y,x,z
-x,-y,z
y,-x,z
x,-y,-z
-x,y,-z
y,x,-z
-y,-x,-z
-x,-y,-z
y,-x,-z
x,y,-z
-y,x,-z
-x,y,z
x,-y,z
-y,-x,z
y,x,z
1/2+x,1/2+y,1/2+z
1/2-y,1/2+x,1/2+z
1/2-x,1/2-y,1/2+z
1/2+y,1/2-x,1/2+z
1/2+x,1/2-y,1/2-z
1/2-x,1/2+y,1/2-z
1/2+y,1/2+x,1/2-z
1/2-y,1/2-x,1/2-z
1/2-x,1/2-y,1/2-z
1/2+y,1/2-x,1/2-z
1/2+x,1/2+y,1/2-z
1/2-y,1/2+x,1/2-z
1/2-x,1/2+y,1/2+z
1/2+x,1/2-y,1/2+z
1/2-y,1/2-x,1/2+z
1/2+y,1/2+x,1/2+z
loop_
_atom_site_type_symbol
_atom_site_label
_atom_site_fract_x
_atom_site_fract_y
_atom_site_fract_z
Si Si1 0.810866 0.106683 0.500000
Si Si2 0.376218 0.942390 0.812659
Si Si3 0.381057 0.199629 0.785352
Si Si4 0.697098 0.615159 0.682245
Si Si5 0.159132 0.401831 0.500000
Si Si6 0.364976 0.203189 0.000000
Si Si7 0.058010 0.860392 0.334444
Si Si8 0.058551 0.232678 0.000000
O O1 0.855430 0.144571 0.500000
O O2 0.762175 0.140355 0.500000
O O3 0.819557 0.072633 0.588774
O O4 0.418784 0.918784 0.750000
O O5 0.325023 0.928962 0.761241
O O6 0.382388 0.000000 0.825982
O O7 0.372251 0.914983 0.910180
O O8 0.335789 0.164212 0.750000
O O9 0.373576 0.254192 0.743904
O O10 0.387166 0.197560 0.896071
O O11 0.664668 0.664668 0.666611
O O12 0.662655 0.577758 0.739784
O O13 0.712997 0.587579 0.589391
O O14 0.172720 0.343349 0.500000
O O15 0.208100 0.434546 0.500000
O O16 0.090198 0.909803 0.352673
O O17 0.000000 0.869790 0.335074
O O18 0.000000 0.220676 0.000000
#
# Coordination Sequence:
#
# PCOD9571819 Si02
#       8
#    16  32  32  32  16  16  32  16
#     4  10  21  37  59  86 120 162 199 240 303 370
#     4  11  23  41  64  89 122 159 204 261 318 375
#     4  11  22  39  61  90 125 165 210 252 305 375
#     4  11  23  39  59  91 128 160 206 260 311 374
#     4  12  22  39  63  93 123 158 208 262 301 367
#     4  12  20  39  62  89 129 161 197 249 303 369
#     4  10  21  38  59  86 121 159 206 259 309 368
#     4  12  23  39  65  90 121 166 214 259 314 366
#
# _framework density 18.079060999999999
#
# number of rings (size 3 to 8) (size 9 to 14) (size 15 to 20)
#    0.000    1.000    6.667    1.750    0.000    1.333 
#    0.000    4.167    0.000    2.500    0.000    0.000 
#    0.000    6.000    0.000    0.000    0.000    0.000 
#
# Total GULP energy -534792.596869 kJ/mol
# GULP energy per Si atom -5570.756217 kJ/mol
# Density = 1.803791 g / cm^3
# Si number density = 18.079061 Si / 1000 Ang^3
#
#
#
# Elastic Constant Matrix: (Units=GPa)
#
#
# Indices 1 2 3 4 5 6 
#
# 1 111.3244 29.6196 27.3771 0.0000 0.0000 0.0000
# 2 29.6196 111.3309 27.3782 0.0000 0.0000 0.0000
# 3 27.3771 27.3782 143.9105 0.0000 0.0000 0.0000
# 4 0.0000 0.0000 0.0000 17.2016 0.0000 0.0000
# 5 0.0000 0.0000 0.0000 0.0000 17.2021 0.0000
# 6 0.0000 0.0000 0.0000 0.0000 0.0000 19.1080
#
#
#
# Elastic Compliance Matrix: (Units=1/GPa)
#
#
# Indices 1 2 3 4 5 6 
#
# 1 0.009950 -0.002289 -0.001457 0.000000 0.000000 0.000000
# 2 -0.002289 0.009950 -0.001457 0.000000 0.000000 0.000000
# 3 -0.001457 -0.001457 0.007503 0.000000 0.000000 0.000000
# 4 0.000000 0.000000 0.000000 0.058134 0.000000 0.000000
# 5 0.000000 0.000000 0.000000 0.000000 0.058133 0.000000
# 6 0.000000 0.000000 0.000000 0.000000 0.000000 0.052334
#
#
# Mechanical properties :
#
#
# Convention : Reuss Voigt Hill
#
# Bulk Modulus (GPa) = 58.83873 59.47951 59.15912
# Shear Modulus (GPa) = 23.57641 29.51506 26.54574
#
# Velocity S-wave (km/s) = 3.61511 4.04487 3.83602
# Velocity P-wave (km/s) = 7.07399 7.40174 7.23972
#
# Compressibility (1/GPa) = 0.01699561
#
# Stress axis : x y z
#
# Youngs Moduli (GPa) = 100.50094 100.50675 133.27478
#
# Poissons Ratio (x) = 0.23004 0.19424
# Poissons Ratio (y) = 0.23003 0.19424
# Poissons Ratio (z) = 0.14648 0.14648
#
# Static dielectric constant tensor:
#      x y z
#    x 1.607330 0.000000 0.000000 
#    y 0.000000 1.607330 0.000000 
#    z 0.000000 0.000000 1.659810 
# 
# From -- ./inp_files/6564.got.cif
#   From: 2010.05.17/outbox.cif.g08.bks.cpg/sg139_4_cif.got.tgz:6564.got - 2010.05.20 13:14:44.
