data_PCOD9571713
_publ_section_title
;
Structure prediction by ZEFSAII (Michael W. Deem and Ramdas Pophale) SiO2 
 PCOD9571713
Probable space group: I 4/M M M
;
_chemical_formula_sum "Si O2"
_cell_formula_units_Z 144
_cell_length_a 18.270396
_cell_length_b 18.270396
_cell_length_c 23.012640
_cell_angle_alpha 90.000000
_cell_angle_beta 90.000000
_cell_angle_gamma 90.000000
_cell_volume 7681.788835
_symmetry_space_group_name_H-M "I 4/M M M"
_symmetry_group_IT_number 139
_symmetry_cell_setting 'tetragonal'
loop_
_space_group_symop_operation_xyz
x,y,z
-y,x,z
-x,-y,z
y,-x,z
x,-y,-z
-x,y,-z
y,x,-z
-y,-x,-z
-x,-y,-z
y,-x,-z
x,y,-z
-y,x,-z
-x,y,z
x,-y,z
-y,-x,z
y,x,z
1/2+x,1/2+y,1/2+z
1/2-y,1/2+x,1/2+z
1/2-x,1/2-y,1/2+z
1/2+y,1/2-x,1/2+z
1/2+x,1/2-y,1/2-z
1/2-x,1/2+y,1/2-z
1/2+y,1/2+x,1/2-z
1/2-y,1/2-x,1/2-z
1/2-x,1/2-y,1/2-z
1/2+y,1/2-x,1/2-z
1/2+x,1/2+y,1/2-z
1/2-y,1/2+x,1/2-z
1/2-x,1/2+y,1/2+z
1/2+x,1/2-y,1/2+z
1/2-y,1/2-x,1/2+z
1/2+y,1/2+x,1/2+z
loop_
_atom_site_type_symbol
_atom_site_label
_atom_site_fract_x
_atom_site_fract_y
_atom_site_fract_z
Si Si1 0.919631 0.343997 0.298594
Si Si2 0.079631 0.195928 0.225071
Si Si3 0.910744 0.787286 0.500000
Si Si4 0.301053 0.179333 0.595675
Si Si5 0.085006 0.203609 0.914838
O O1 0.904636 0.404636 0.250000
O O2 0.916453 0.270176 0.260586
O O3 0.861056 0.335659 0.349235
O O4 0.000000 0.352470 0.324478
O O5 0.143461 0.143461 0.244685
O O6 0.085648 0.207425 0.155860
O O7 0.000000 0.161822 0.235617
O O8 0.864666 0.864666 0.500000
O O9 0.879165 0.740460 0.445279
O O10 0.000000 0.794298 0.500000
O O11 0.239785 0.239785 0.612926
O O12 0.365730 0.227196 0.566378
O O13 0.130046 0.130046 0.930617
O O14 0.000000 0.204005 0.932655
#
# Coordination Sequence:
#
# PCOD9571713 Si02
#       5
#    32  32  16  32  32
#     4  11  21  32  49  74 104 140 180 225 277 331
#     4   9  17  28  44  69 100 132 168 208 255 315
#     4  10  22  41  63  89 116 146 188 234 284 334
#     4  10  20  35  58  81 108 146 188 234 278 331
#     4   9  17  30  50  77 108 143 180 221 271 325
#
# _framework density 18.745633999999999
#
# number of rings (size 3 to 8) (size 9 to 14) (size 15 to 20)
#    0.000    2.222    2.222    1.333    0.000    1.667 
#    0.000    2.778    0.000    2.667    0.000    3.111 
#    0.000    4.444    0.000    0.000    0.000    0.000 
#
# Total GULP energy -401312.406260 kJ/mol
# GULP energy per Si atom -5573.783420 kJ/mol
# Density = 1.870297 g / cm^3
# Si number density = 18.745634 Si / 1000 Ang^3
#
#
#
# Elastic Constant Matrix: (Units=GPa)
#
#
# Indices 1 2 3 4 5 6 
#
# 1 127.4174 64.4333 23.1464 0.0000 0.0000 0.0000
# 2 64.4333 127.4174 23.1464 0.0000 0.0000 0.0000
# 3 23.1464 23.1464 64.5295 0.0000 0.0000 0.0000
# 4 0.0000 0.0000 0.0000 8.2957 0.0000 0.0000
# 5 0.0000 0.0000 0.0000 0.0000 8.2957 0.0000
# 6 0.0000 0.0000 0.0000 0.0000 0.0000 13.3859
#
#
#
# Elastic Compliance Matrix: (Units=1/GPa)
#
#
# Indices 1 2 3 4 5 6 
#
# 1 0.010792 -0.005085 -0.002047 0.000000 0.000000 0.000000
# 2 -0.005085 0.010792 -0.002047 0.000000 0.000000 0.000000
# 3 -0.002047 -0.002047 0.016965 0.000000 0.000000 0.000000
# 4 0.000000 0.000000 0.000000 0.120544 0.000000 0.000000
# 5 0.000000 0.000000 0.000000 0.000000 0.120544 0.000000
# 6 0.000000 0.000000 0.000000 0.000000 0.000000 0.074706
#
#
# Mechanical properties :
#
#
# Convention : Reuss Voigt Hill
#
# Bulk Modulus (GPa) = 49.52838 60.09073 54.80956
# Shear Modulus (GPa) = 13.17765 19.90468 16.54117
#
# Velocity S-wave (km/s) = 2.65424 3.26211 2.97375
# Velocity P-wave (km/s) = 5.98932 6.80543 6.41038
#
# Compressibility (1/GPa) = 0.02019044
#
# Stress axis : x y z
#
# Youngs Moduli (GPa) = 92.66422 92.66422 58.94440
#
# Poissons Ratio (x) = 0.47123 0.12065
# Poissons Ratio (y) = 0.47123 0.12065
# Poissons Ratio (z) = 0.18967 0.18967
#
# Static dielectric constant tensor:
#      x y z
#    x 1.651260 0.000000 0.000000 
#    y 0.000000 1.651260 0.000000 
#    z 0.000000 0.000000 1.655220 
# 
# From -- ./inp_files/11463.got.cif
#   From: 2010.05.17/outbox.cif.g08.bks.cpg/sg139_6_cif.got.tgz:11463.got - 2010.05.20 13:14:44.
