data_PCOD9571383
_publ_section_title
;
Structure prediction by ZEFSAII (Michael W. Deem and Ramdas Pophale) SiO2 
 PCOD9571383
Probable space group: I 4/M M M
;
_chemical_formula_sum "Si O2"
_cell_formula_units_Z 176
_cell_length_a 17.865188
_cell_length_b 17.865188
_cell_length_c 33.722776
_cell_angle_alpha 90.000000
_cell_angle_beta 90.000000
_cell_angle_gamma 90.000000
_cell_volume 10763.127855
_symmetry_space_group_name_H-M "I 4/M M M"
_symmetry_group_IT_number 139
_symmetry_cell_setting 'tetragonal'
loop_
_space_group_symop_operation_xyz
x,y,z
-y,x,z
-x,-y,z
y,-x,z
x,-y,-z
-x,y,-z
y,x,-z
-y,-x,-z
-x,-y,-z
y,-x,-z
x,y,-z
-y,x,-z
-x,y,z
x,-y,z
-y,-x,z
y,x,z
1/2+x,1/2+y,1/2+z
1/2-y,1/2+x,1/2+z
1/2-x,1/2-y,1/2+z
1/2+y,1/2-x,1/2+z
1/2+x,1/2-y,1/2-z
1/2-x,1/2+y,1/2-z
1/2+y,1/2+x,1/2-z
1/2-y,1/2-x,1/2-z
1/2-x,1/2-y,1/2-z
1/2+y,1/2-x,1/2-z
1/2+x,1/2+y,1/2-z
1/2-y,1/2+x,1/2-z
1/2-x,1/2+y,1/2+z
1/2+x,1/2-y,1/2+z
1/2-y,1/2-x,1/2+z
1/2+y,1/2+x,1/2+z
loop_
_atom_site_type_symbol
_atom_site_label
_atom_site_fract_x
_atom_site_fract_y
_atom_site_fract_z
Si Si1 0.414334 0.709600 0.177414
Si Si2 0.086077 0.372518 0.705951
Si Si3 0.712758 0.912618 0.591163
Si Si4 0.088951 0.088951 0.044177
Si Si5 0.086774 0.319302 0.869168
Si Si6 0.817556 0.817556 0.894068
Si Si7 0.717893 0.282108 0.046204
O O1 0.500000 0.683982 0.182329
O O2 0.354700 0.645301 0.184721
O O3 0.402245 0.782925 0.204329
O O4 0.405996 0.741007 0.132499
O O5 0.098037 0.401964 0.750000
O O6 0.141363 0.407742 0.673713
O O7 0.000000 0.386103 0.693269
O O8 0.633227 0.873254 0.600905
O O9 0.758331 0.865905 0.558600
O O10 0.703987 0.000000 0.582030
O O11 0.130353 0.130353 0.079251
O O12 0.000000 0.101591 0.046637
O O13 0.113817 0.113817 0.000000
O O14 0.132225 0.241182 0.869701
O O15 0.000000 0.309533 0.880215
O O16 0.768872 0.768872 0.925085
O O17 0.730882 0.269119 0.000000
#
# Coordination Sequence:
#
# PCOD9571383 Si02
#       7
#    32  32  32  16  32  16  16
#     4   9  17  31  50  73 100 131 166 203 248 297
#     4  10  21  34  52  77 103 130 163 212 264 305
#     4   9  18  32  50  72 100 130 165 210 254 298
#     4   9  17  30  51  77 101 128 163 207 261 306
#     4  10  20  33  52  76 100 133 173 207 250 307
#     4  10  20  34  49  71 105 133 168 210 246 297
#     4  10  19  31  50  72  96 132 170 204 252 305
#
# _framework density 16.352124
#
# number of rings (size 3 to 8) (size 9 to 14) (size 15 to 20)
#    0.000    2.455    0.909    3.273    3.818    3.273 
#    0.000    0.000    0.000    5.182    0.000    5.727 
#    0.000    0.000    0.000    0.000    0.000    0.000 
#
# Total GULP energy -490559.516006 kJ/mol
# GULP energy per Si atom -5574.539955 kJ/mol
# Density = 1.631491 g / cm^3
# Si number density = 16.352124 Si / 1000 Ang^3
#
#
#
# Elastic Constant Matrix: (Units=GPa)
#
#
# Indices 1 2 3 4 5 6 
#
# 1 94.2300 74.1867 25.9291 0.0000 0.0000 0.0000
# 2 74.1867 94.2301 25.9284 0.0000 0.0000 0.0000
# 3 25.9291 25.9284 55.8349 0.0000 0.0000 0.0000
# 4 0.0000 0.0000 0.0000 21.2986 0.0000 0.0000
# 5 0.0000 0.0000 0.0000 0.0000 21.2983 0.0000
# 6 0.0000 0.0000 0.0000 0.0000 0.0000 22.8036
#
#
#
# Elastic Compliance Matrix: (Units=1/GPa)
#
#
# Indices 1 2 3 4 5 6 
#
# 1 0.028410 -0.021482 -0.003218 0.000000 0.000000 0.000000
# 2 -0.021482 0.028410 -0.003217 0.000000 0.000000 0.000000
# 3 -0.003218 -0.003217 0.020898 0.000000 0.000000 0.000000
# 4 0.000000 0.000000 0.000000 0.046951 0.000000 0.000000
# 5 0.000000 0.000000 0.000000 0.000000 0.046952 0.000000
# 6 0.000000 0.000000 0.000000 0.000000 0.000000 0.043853
#
#
# Mechanical properties :
#
#
# Convention : Reuss Voigt Hill
#
# Bulk Modulus (GPa) = 45.69294 55.15373 50.42334
# Shear Modulus (GPa) = 17.94670 20.96350 19.45510
#
# Velocity S-wave (km/s) = 3.31647 3.58439 3.45303
# Velocity P-wave (km/s) = 6.53216 7.13670 6.84111
#
# Compressibility (1/GPa) = 0.02188522
#
# Stress axis : x y z
#
# Youngs Moduli (GPa) = 35.19860 35.19892 47.85114
#
# Poissons Ratio (x) = 0.75614 0.15397
# Poissons Ratio (y) = 0.75613 0.15394
# Poissons Ratio (z) = 0.11326 0.11324
#
# Static dielectric constant tensor:
#      x y z
#    x 1.554930 0.000000 0.000000 
#    y 0.000000 1.554930 0.000000 
#    z 0.000000 0.000000 1.527080 
# 
# From -- ./inp_files/14318.got.cif
#   From: 2010.05.17/outbox.cif.g08.bks.cpg/sg139_8_cif.got.tgz:14318.got - 2010.05.20 13:14:44.
