data_PCOD9571478
_publ_section_title
;
Structure prediction by ZEFSAII (Michael W. Deem and Ramdas Pophale) SiO2 
 PCOD9571478
Probable space group: I 4/M M M
;
_chemical_formula_sum "Si O2"
_cell_formula_units_Z 164
_cell_length_a 22.130951
_cell_length_b 22.130951
_cell_length_c 18.742337
_cell_angle_alpha 90.000000
_cell_angle_beta 90.000000
_cell_angle_gamma 90.000000
_cell_volume 9179.602927
_symmetry_space_group_name_H-M "I 4/M M M"
_symmetry_group_IT_number 139
_symmetry_cell_setting 'tetragonal'
loop_
_space_group_symop_operation_xyz
x,y,z
-y,x,z
-x,-y,z
y,-x,z
x,-y,-z
-x,y,-z
y,x,-z
-y,-x,-z
-x,-y,-z
y,-x,-z
x,y,-z
-y,x,-z
-x,y,z
x,-y,z
-y,-x,z
y,x,z
1/2+x,1/2+y,1/2+z
1/2-y,1/2+x,1/2+z
1/2-x,1/2-y,1/2+z
1/2+y,1/2-x,1/2+z
1/2+x,1/2-y,1/2-z
1/2-x,1/2+y,1/2-z
1/2+y,1/2+x,1/2-z
1/2-y,1/2-x,1/2-z
1/2-x,1/2-y,1/2-z
1/2+y,1/2-x,1/2-z
1/2+x,1/2+y,1/2-z
1/2-y,1/2+x,1/2-z
1/2-x,1/2+y,1/2+z
1/2+x,1/2-y,1/2+z
1/2-y,1/2-x,1/2+z
1/2+y,1/2+x,1/2+z
loop_
_atom_site_type_symbol
_atom_site_label
_atom_site_fract_x
_atom_site_fract_y
_atom_site_fract_z
Si Si1 0.733249 0.070623 0.916361
Si Si2 0.500000 0.500000 0.865957
Si Si3 0.569939 0.329555 0.704878
Si Si4 0.930361 0.500000 0.913099
Si Si5 0.884042 0.648286 0.585971
Si Si6 0.070313 0.228441 0.357410
Si Si7 0.596688 0.596688 0.082984
O O1 0.789943 0.081234 0.865436
O O2 0.677875 0.113952 0.896825
O O3 0.715025 0.000000 0.907835
O O4 0.747662 0.079536 0.000000
O O5 0.553097 0.446904 0.871817
O O6 0.500000 0.349161 0.705192
O O7 0.614326 0.385675 0.708978
O O8 0.578876 0.287965 0.774519
O O9 0.893684 0.559634 0.891104
O O10 0.000000 0.500000 0.888896
O O11 0.931794 0.500000 0.000000
O O12 0.887288 0.654024 0.500000
O O13 0.890544 0.714572 0.618820
O O14 0.083993 0.166642 0.399621
O O15 0.000000 0.244182 0.369848
O O16 0.583579 0.583579 0.000000
#
# Coordination Sequence:
#
# PCOD9571478 Si02
#       7
#    32   4  32  16  32  32  16
#     4   9  19  38  63  87 113 147 188 235 288 351
#     4  12  25  36  56  84 108 160 209 242 297 344
#     4  10  22  41  62  86 112 145 187 235 295 352
#     4   9  16  27  50  85 118 147 191 245 287 327
#     4  10  19  33  55  84 117 156 195 235 283 331
#     4  11  22  37  54  81 117 155 191 238 291 339
#     4  12  23  36  54  77 112 154 202 246 283 338
#
# _framework density 17.865696
#
# number of rings (size 3 to 8) (size 9 to 14) (size 15 to 20)
#    0.000    1.854    2.927    1.610    0.000    4.488 
#    1.756    0.976    0.000    0.000    0.000    2.732 
#    0.000    0.000    0.000    0.000    0.000    0.000 
#
# Total GULP energy -457305.920875 kJ/mol
# GULP energy per Si atom -5576.901474 kJ/mol
# Density = 1.782503 g / cm^3
# Si number density = 17.865696 Si / 1000 Ang^3
#
#
#
# Elastic Constant Matrix: (Units=GPa)
#
#
# Indices 1 2 3 4 5 6 
#
# 1 95.4404 53.9545 26.4300 0.0000 0.0000 0.0000
# 2 53.9545 95.4404 26.4300 0.0000 0.0000 0.0000
# 3 26.4300 26.4300 33.0237 0.0000 0.0000 0.0000
# 4 0.0000 0.0000 0.0000 16.3597 0.0000 0.0000
# 5 0.0000 0.0000 0.0000 0.0000 16.3597 0.0000
# 6 0.0000 0.0000 0.0000 0.0000 0.0000 21.1305
#
#
#
# Elastic Compliance Matrix: (Units=1/GPa)
#
#
# Indices 1 2 3 4 5 6 
#
# 1 0.016721 -0.007383 -0.007474 0.000000 0.000000 0.000000
# 2 -0.007383 0.016721 -0.007474 0.000000 0.000000 0.000000
# 3 -0.007474 -0.007474 0.042244 0.000000 0.000000 0.000000
# 4 0.000000 0.000000 0.000000 0.061126 0.000000 0.000000
# 5 0.000000 0.000000 0.000000 0.000000 0.061126 0.000000
# 6 0.000000 0.000000 0.000000 0.000000 0.000000 0.047325
#
#
# Mechanical properties :
#
#
# Convention : Reuss Voigt Hill
#
# Bulk Modulus (GPa) = 32.23125 48.61486 40.42305
# Shear Modulus (GPa) = 16.65191 18.57597 17.61394
#
# Velocity S-wave (km/s) = 3.05628 3.22802 3.14332
# Velocity P-wave (km/s) = 5.52580 6.41591 5.98742
#
# Compressibility (1/GPa) = 0.03102579
#
# Stress axis : x y z
#
# Youngs Moduli (GPa) = 59.80401 59.80401 23.67205
#
# Poissons Ratio (x) = 0.44155 0.17691
# Poissons Ratio (y) = 0.44155 0.17691
# Poissons Ratio (z) = 0.44695 0.44695
#
# Static dielectric constant tensor:
#      x y z
#    x 1.590440 0.000000 0.000000 
#    y 0.000000 1.590440 0.000000 
#    z 0.000000 0.000000 1.618630 
# 
# From -- ./inp_files/10394.got.cif
#   From: 2010.05.17/outbox.cif.g08.bks.cpg/sg139_6_cif.got.tgz:10394.got - 2010.05.20 13:14:44.
