data_PCOD9571032
_publ_section_title
;
Structure prediction by ZEFSAII (Michael W. Deem and Ramdas Pophale) SiO2 
 PCOD9571032
Probable space group: P 42/N C M
;
_chemical_formula_sum "Si O2"
_cell_formula_units_Z 88
_cell_length_a 12.340718
_cell_length_b 12.340718
_cell_length_c 27.084105
_cell_angle_alpha 90.000000
_cell_angle_beta 90.000000
_cell_angle_gamma 90.000000
_cell_volume 4124.728290
_symmetry_space_group_name_H-M "P 42/N C M"
_symmetry_group_IT_number 138
_space_group.IT_coordinate_system_code '2'
_symmetry_cell_setting 'tetragonal'
loop_
_space_group_symop_operation_xyz
x,y,z
1/2-y,x,1/2+z
1/2-x,1/2-y,z
y,1/2-x,1/2+z
1/2+x,-y,1/2-z
-x,1/2+y,1/2-z
1/2+y,1/2+x,-z
-y,-x,-z
-x,-y,-z
1/2+y,-x,1/2-z
1/2+x,1/2+y,-z
-y,1/2+x,1/2-z
1/2-x,y,1/2+z
x,1/2-y,1/2+z
1/2-y,1/2-x,z
y,x,z
loop_
_atom_site_type_symbol
_atom_site_label
_atom_site_fract_x
_atom_site_fract_y
_atom_site_fract_z
Si Si1 0.088992 0.839530 0.298362
Si Si2 0.664034 0.664034 0.648266
Si Si3 0.585552 0.914449 0.979019
Si Si4 0.973099 0.295043 0.303943
Si Si5 0.010284 0.674710 0.474721
Si Si6 0.637310 0.463557 0.861505
Si Si7 0.999650 0.500351 0.879233
O O1 0.026356 0.859218 0.247418
O O2 0.213631 0.873175 0.293457
O O3 0.058716 0.722166 0.318477
O O4 0.055837 0.914266 0.343884
O O5 0.750000 0.750000 0.626638
O O6 0.728265 0.580044 0.683202
O O7 0.591717 0.591717 0.610037
O O8 0.541655 0.791699 0.990693
O O9 0.564412 0.935589 0.920974
O O10 0.500000 0.000000 0.000000
O O11 0.949560 0.369165 0.351245
O O12 0.116643 0.616643 0.500000
O O13 0.040310 0.683600 0.416614
O O14 0.914184 0.585817 0.479773
O O15 0.577674 0.577674 0.855480
#
# Coordination Sequence:
#
# PCOD9571032 Si02
#       7
#    16   8   8  16  16  16   8
#     4  11  22  38  61  91 131 175 218 268 331 393
#     4  10  24  42  59  89 135 177 223 280 329 390
#     4  12  25  47  72 108 141 178 227 292 361 424
#     4  11  23  38  62  91 132 181 226 272 333 400
#     4  10  24  49  76 104 138 181 234 292 356 426
#     4  11  23  39  66  96 129 171 226 275 330 407
#     4  10  24  43  64  95 135 167 222 280 337 412
#
# _framework density 21.334738999999999
#
# number of rings (size 3 to 8) (size 9 to 14) (size 15 to 20)
#    0.000    1.273    3.636    1.364    3.818    3.273 
#    3.273    3.182    0.000    0.000    0.000    0.000 
#    0.000    0.000    0.000    0.000    0.000    0.000 
#
# Total GULP energy -490354.529937 kJ/mol
# GULP energy per Si atom -5572.210567 kJ/mol
# Density = 2.128618 g / cm^3
# Si number density = 21.334739 Si / 1000 Ang^3
#
#
#
# Elastic Constant Matrix: (Units=GPa)
#
#
# Indices 1 2 3 4 5 6 
#
# 1 115.2673 39.0225 23.2016 0.0000 0.0000 0.0000
# 2 39.0225 115.2673 23.2016 0.0000 0.0000 0.0000
# 3 23.2016 23.2016 45.4407 0.0000 0.0000 0.0000
# 4 0.0000 0.0000 0.0000 40.8586 0.0000 0.0000
# 5 0.0000 0.0000 0.0000 0.0000 40.8586 0.0000
# 6 0.0000 0.0000 0.0000 0.0000 0.0000 46.5573
#
#
#
# Elastic Compliance Matrix: (Units=1/GPa)
#
#
# Indices 1 2 3 4 5 6 
#
# 1 0.010386 -0.002729 -0.003910 0.000000 0.000000 0.000000
# 2 -0.002729 0.010386 -0.003910 0.000000 0.000000 0.000000
# 3 -0.003910 -0.003910 0.025999 0.000000 0.000000 0.000000
# 4 0.000000 0.000000 0.000000 0.024475 0.000000 0.000000
# 5 0.000000 0.000000 0.000000 0.000000 0.024475 0.000000
# 6 0.000000 0.000000 0.000000 0.000000 0.000000 0.021479
#
#
# Mechanical properties :
#
#
# Convention : Reuss Voigt Hill
#
# Bulk Modulus (GPa) = 38.94871 49.64743 44.29807
# Shear Modulus (GPa) = 34.04706 38.35824 36.20265
#
# Velocity S-wave (km/s) = 3.99914 4.24479 4.12380
# Velocity P-wave (km/s) = 6.29443 6.88081 6.59414
#
# Compressibility (1/GPa) = 0.02567479
#
# Stress axis : x y z
#
# Youngs Moduli (GPa) = 96.27976 96.27976 38.46276
#
# Poissons Ratio (x) = 0.26277 0.15038
# Poissons Ratio (y) = 0.26277 0.15038
# Poissons Ratio (z) = 0.37642 0.37642
#
# Static dielectric constant tensor:
#      x y z
#    x 1.793370 0.000000 0.000000 
#    y 0.000000 1.793370 0.000000 
#    z 0.000000 0.000000 1.810170 
# 
# From -- ./inp_files/8129.got.cif
#   From: 2010.05.17/outbox.cif.g08.bks.cpg/sg138_5_cif.got.tgz:8129.got - 2010.05.20 13:08:53.
