data_PCOD9571800
_publ_section_title
;
Structure prediction by ZEFSAII (Michael W. Deem and Ramdas Pophale) SiO2 
 PCOD9571800
Probable space group: I 4/M M M
;
_chemical_formula_sum "Si O2"
_cell_formula_units_Z 168
_cell_length_a 25.292540
_cell_length_b 25.292540
_cell_length_c 15.197460
_cell_angle_alpha 90.000000
_cell_angle_beta 90.000000
_cell_angle_gamma 90.000000
_cell_volume 9722.006341
_symmetry_space_group_name_H-M "I 4/M M M"
_symmetry_group_IT_number 139
_symmetry_cell_setting 'tetragonal'
loop_
_space_group_symop_operation_xyz
x,y,z
-y,x,z
-x,-y,z
y,-x,z
x,-y,-z
-x,y,-z
y,x,-z
-y,-x,-z
-x,-y,-z
y,-x,-z
x,y,-z
-y,x,-z
-x,y,z
x,-y,z
-y,-x,z
y,x,z
1/2+x,1/2+y,1/2+z
1/2-y,1/2+x,1/2+z
1/2-x,1/2-y,1/2+z
1/2+y,1/2-x,1/2+z
1/2+x,1/2-y,1/2-z
1/2-x,1/2+y,1/2-z
1/2+y,1/2+x,1/2-z
1/2-y,1/2-x,1/2-z
1/2-x,1/2-y,1/2-z
1/2+y,1/2-x,1/2-z
1/2+x,1/2+y,1/2-z
1/2-y,1/2+x,1/2-z
1/2-x,1/2+y,1/2+z
1/2+x,1/2-y,1/2+z
1/2-y,1/2-x,1/2+z
1/2+y,1/2+x,1/2+z
loop_
_atom_site_type_symbol
_atom_site_label
_atom_site_fract_x
_atom_site_fract_y
_atom_site_fract_z
Si Si1 0.000000 0.756068 0.752444
Si Si2 0.895971 0.190216 0.817489
Si Si3 0.247344 0.752657 0.500000
Si Si4 0.666082 0.000000 0.393346
Si Si5 0.290270 0.179533 0.157767
Si Si6 0.938078 0.143981 0.000000
Si Si7 0.110462 0.611739 0.605582
Si Si8 0.500000 0.838494 0.393990
O O1 0.946911 0.791779 0.760773
O O2 0.000000 0.719380 0.665263
O O3 0.000000 0.714855 0.835511
O O4 0.856803 0.143198 0.783470
O O5 0.861020 0.241700 0.836965
O O6 0.916817 0.171515 0.912394
O O7 0.281890 0.782420 0.576751
O O8 0.632173 0.052271 0.370590
O O9 0.675955 0.000000 0.500000
O O10 0.291419 0.208582 0.250000
O O11 0.345152 0.148863 0.146685
O O12 0.914877 0.085124 0.000000
O O13 0.000000 0.145477 0.000000
O O14 0.114300 0.616028 0.500000
O O15 0.126943 0.551832 0.627059
O O16 0.500000 0.826356 0.500000
#
# Coordination Sequence:
#
# PCOD9571800 Si02
#       8
#    16  32   8  16  32  16  32  16
#     4  12  22  38  64  84 117 163 194 246 291 354
#     4  11  23  36  58  88 120 154 195 237 291 351
#     4  12  24  38  54  84 114 150 187 248 317 344
#     4  10  24  43  60  80 113 160 205 251 304 346
#     4  12  23  38  57  82 116 151 194 244 302 358
#     4  10  21  36  57  87 125 159 187 223 274 353
#     4  10  21  39  59  83 118 155 198 249 293 353
#     4  10  22  33  58  94 117 149 197 241 291 356
#
# _framework density 17.280383
#
# number of rings (size 3 to 8) (size 9 to 14) (size 15 to 20)
#    0.000    1.143    4.762    2.000    2.667    0.476 
#    0.000    1.905    0.000    2.000    0.000    0.000 
#    0.000    0.000    0.000    0.857    0.000    0.000 
#
# Total GULP energy -467924.379050 kJ/mol
# GULP energy per Si atom -5570.528322 kJ/mol
# Density = 1.724105 g / cm^3
# Si number density = 17.280383 Si / 1000 Ang^3
#
#
#
# Elastic Constant Matrix: (Units=GPa)
#
#
# Indices 1 2 3 4 5 6 
#
# 1 116.6375 85.6576 42.9412 0.0000 0.0000 0.0000
# 2 85.6576 116.6404 42.9403 0.0000 0.0000 0.0000
# 3 42.9412 42.9403 91.2501 0.0000 0.0000 0.0000
# 4 0.0000 0.0000 0.0000 19.3788 0.0000 0.0000
# 5 0.0000 0.0000 0.0000 0.0000 19.3840 0.0000
# 6 0.0000 0.0000 0.0000 0.0000 0.0000 35.5231
#
#
#
# Elastic Compliance Matrix: (Units=1/GPa)
#
#
# Indices 1 2 3 4 5 6 
#
# 1 0.019228 -0.013050 -0.002907 0.000000 0.000000 0.000000
# 2 -0.013050 0.019227 -0.002907 0.000000 0.000000 0.000000
# 3 -0.002907 -0.002907 0.013695 0.000000 0.000000 0.000000
# 4 0.000000 0.000000 0.000000 0.051603 0.000000 0.000000
# 5 0.000000 0.000000 0.000000 0.000000 0.051589 0.000000
# 6 0.000000 0.000000 0.000000 0.000000 0.000000 0.028151
#
#
# Mechanical properties :
#
#
# Convention : Reuss Voigt Hill
#
# Bulk Modulus (GPa) = 69.34001 74.17846 71.75924
# Shear Modulus (GPa) = 22.12121 25.05643 23.58882
#
# Velocity S-wave (km/s) = 3.58178 3.81201 3.69868
# Velocity P-wave (km/s) = 7.57093 7.89904 7.73673
#
# Compressibility (1/GPa) = 0.01442169
#
# Stress axis : x y z
#
# Youngs Moduli (GPa) = 52.00808 52.01005 73.02033
#
# Poissons Ratio (x) = 0.67874 0.21229
# Poissons Ratio (y) = 0.67871 0.21224
# Poissons Ratio (z) = 0.15120 0.15117
#
# Static dielectric constant tensor:
#      x y z
#    x 1.576710 0.000000 0.000000 
#    y 0.000000 1.576700 0.000000 
#    z 0.000000 0.000000 1.571510 
# 
# From -- ./inp_files/6220.got.cif
#   From: 2010.05.17/outbox.cif.g08.bks.cpg/sg139_4_cif.got.tgz:6220.got - 2010.05.20 13:14:44.
