data_PCOD9571869
_publ_section_title
;
Structure prediction by ZEFSAII (Michael W. Deem and Ramdas Pophale) SiO2 
 PCOD9571869
Probable space group: I 4/M M M
;
_chemical_formula_sum "Si O2"
_cell_formula_units_Z 176
_cell_length_a 18.746250
_cell_length_b 18.746250
_cell_length_c 25.870375
_cell_angle_alpha 90.000000
_cell_angle_beta 90.000000
_cell_angle_gamma 90.000000
_cell_volume 9091.416053
_symmetry_space_group_name_H-M "I 4/M M M"
_symmetry_group_IT_number 139
_symmetry_cell_setting 'tetragonal'
loop_
_space_group_symop_operation_xyz
x,y,z
-y,x,z
-x,-y,z
y,-x,z
x,-y,-z
-x,y,-z
y,x,-z
-y,-x,-z
-x,-y,-z
y,-x,-z
x,y,-z
-y,x,-z
-x,y,z
x,-y,z
-y,-x,z
y,x,z
1/2+x,1/2+y,1/2+z
1/2-y,1/2+x,1/2+z
1/2-x,1/2-y,1/2+z
1/2+y,1/2-x,1/2+z
1/2+x,1/2-y,1/2-z
1/2-x,1/2+y,1/2-z
1/2+y,1/2+x,1/2-z
1/2-y,1/2-x,1/2-z
1/2-x,1/2-y,1/2-z
1/2+y,1/2-x,1/2-z
1/2+x,1/2+y,1/2-z
1/2-y,1/2+x,1/2-z
1/2-x,1/2+y,1/2+z
1/2+x,1/2-y,1/2+z
1/2-y,1/2-x,1/2+z
1/2+y,1/2+x,1/2+z
loop_
_atom_site_type_symbol
_atom_site_label
_atom_site_fract_x
_atom_site_fract_y
_atom_site_fract_z
Si Si1 0.150235 0.646799 0.403588
Si Si2 0.804073 0.195928 0.437522
Si Si3 0.080424 0.350856 0.794674
Si Si4 0.198549 0.918765 0.911658
Si Si5 0.920951 0.808087 0.214375
Si Si6 0.081143 0.500000 0.061371
Si Si7 0.080652 0.919349 0.437106
O O1 0.170894 0.727299 0.417398
O O2 0.145011 0.633857 0.342228
O O3 0.219306 0.601704 0.423591
O O4 0.073445 0.621197 0.424053
O O5 0.801374 0.198627 0.500000
O O6 0.862105 0.137896 0.420451
O O7 0.092609 0.407392 0.750000
O O8 0.089366 0.273155 0.769042
O O9 0.000000 0.354230 0.815948
O O10 0.141262 0.858739 0.929501
O O11 0.194202 0.918534 0.848651
O O12 0.182656 0.000000 0.928668
O O13 0.860423 0.860423 0.233264
O O14 0.000000 0.832555 0.229025
O O15 0.000000 0.500000 0.083388
O O16 0.075905 0.500000 0.000000
O O17 0.080773 0.919228 0.500000
O O18 0.000000 0.902100 0.420786
#
# Coordination Sequence:
#
# PCOD9571869 Si02
#       7
#    32  16  32  32  32  16  16
#     4  11  22  40  59  89 124 164 206 258 318 381
#     4  11  23  38  62  93 126 164 209 257 314 384
#     4  10  22  38  59  85 116 158 206 258 318 378
#     4   9  16  30  52  79 113 152 194 243 302 360
#     4   8  15  28  47  75 109 144 184 234 289 354
#     4  11  24  40  62  90 123 165 207 259 326 386
#     4   8  16  33  58  87 117 149 187 238 300 362
#
# _framework density 19.358920999999999
#
# number of rings (size 3 to 8) (size 9 to 14) (size 15 to 20)
#    0.000    2.364    0.909    3.545    3.818    0.909 
#    0.000    1.818    0.000    0.000    0.000    0.000 
#    0.000    0.727    0.000    0.000    0.000    0.000 
#
# Total GULP energy -490650.691602 kJ/mol
# GULP energy per Si atom -5575.576041 kJ/mol
# Density = 1.931486 g / cm^3
# Si number density = 19.358921 Si / 1000 Ang^3
#
#
#
# Elastic Constant Matrix: (Units=GPa)
#
#
# Indices 1 2 3 4 5 6 
#
# 1 130.0508 96.8007 24.9315 0.0000 0.0000 0.0000
# 2 96.8007 130.0485 24.9303 0.0000 0.0000 0.0000
# 3 24.9315 24.9303 34.1428 0.0000 0.0000 0.0000
# 4 0.0000 0.0000 0.0000 20.0597 0.0000 0.0000
# 5 0.0000 0.0000 0.0000 0.0000 20.0596 0.0000
# 6 0.0000 0.0000 0.0000 0.0000 0.0000 39.6392
#
#
#
# Elastic Compliance Matrix: (Units=1/GPa)
#
#
# Indices 1 2 3 4 5 6 
#
# 1 0.017664 -0.012413 -0.003835 0.000000 0.000000 0.000000
# 2 -0.012413 0.017664 -0.003834 0.000000 0.000000 0.000000
# 3 -0.003835 -0.003834 0.034888 0.000000 0.000000 0.000000
# 4 0.000000 0.000000 0.000000 0.049851 0.000000 0.000000
# 5 0.000000 0.000000 0.000000 0.000000 0.049851 0.000000
# 6 0.000000 0.000000 0.000000 0.000000 0.000000 0.025228
#
#
# Mechanical properties :
#
#
# Convention : Reuss Voigt Hill
#
# Bulk Modulus (GPa) = 33.27428 65.28523 49.27975
# Shear Modulus (GPa) = 20.38109 25.79033 23.08571
#
# Velocity S-wave (km/s) = 3.24821 3.65392 3.45702
# Velocity P-wave (km/s) = 5.59403 7.18319 6.43784
#
# Compressibility (1/GPa) = 0.03005325
#
# Stress axis : x y z
#
# Youngs Moduli (GPa) = 56.61386 56.61367 28.66297
#
# Poissons Ratio (x) = 0.70272 0.10992
# Poissons Ratio (y) = 0.70272 0.10988
# Poissons Ratio (z) = 0.21710 0.21704
#
# Static dielectric constant tensor:
#      x y z
#    x 1.674550 0.000000 0.000000 
#    y 0.000000 1.674550 0.000000 
#    z 0.000000 0.000000 1.677120 
# 
# From -- ./inp_files/14299.got.cif
#   From: 2010.05.17/outbox.cif.g08.bks.cpg/sg139_8_cif.got.tgz:14299.got - 2010.05.20 13:14:44.
