data_PCOD9571051
_publ_section_title
;
Structure prediction by ZEFSAII (Michael W. Deem and Ramdas Pophale) SiO2 
 PCOD9571051
Probable space group: P 42/N C M
;
_chemical_formula_sum "Si O2"
_cell_formula_units_Z 80
_cell_length_a 11.669207
_cell_length_b 11.669207
_cell_length_c 27.661395
_cell_angle_alpha 90.000000
_cell_angle_beta 90.000000
_cell_angle_gamma 90.000000
_cell_volume 3766.663001
_symmetry_space_group_name_H-M "P 42/N C M"
_symmetry_group_IT_number 138
_space_group.IT_coordinate_system_code '2'
_symmetry_cell_setting 'tetragonal'
loop_
_space_group_symop_operation_xyz
x,y,z
1/2-y,x,1/2+z
1/2-x,1/2-y,z
y,1/2-x,1/2+z
1/2+x,-y,1/2-z
-x,1/2+y,1/2-z
1/2+y,1/2+x,-z
-y,-x,-z
-x,-y,-z
1/2+y,-x,1/2-z
1/2+x,1/2+y,-z
-y,1/2+x,1/2-z
1/2-x,y,1/2+z
x,1/2-y,1/2+z
1/2-y,1/2-x,z
y,x,z
loop_
_atom_site_type_symbol
_atom_site_label
_atom_site_fract_x
_atom_site_fract_y
_atom_site_fract_z
Si Si1 0.880782 0.428139 0.635530
Si Si2 0.831856 0.029089 0.961166
Si Si3 0.842578 0.657423 0.968384
Si Si4 0.018561 0.827241 0.692970
Si Si5 0.841304 0.658697 0.853033
Si Si6 0.744511 0.455595 0.291735
O O1 0.906483 0.343161 0.590579
O O2 0.752172 0.470689 0.645848
O O3 0.914517 0.363048 0.684932
O O4 0.963572 0.536429 0.628580
O O5 0.712144 0.968983 0.977416
O O6 0.883252 0.116749 0.000000
O O7 0.921735 0.921735 0.957671
O O8 0.750000 0.750000 0.988343
O O9 0.839076 0.660925 0.910272
O O10 0.978838 0.759838 0.741176
O O11 0.147312 0.859368 0.709853
O O12 0.936195 0.936195 0.686017
O O13 0.750000 0.750000 0.835010
O O14 0.805389 0.539114 0.832108
#
# Coordination Sequence:
#
# PCOD9571051 Si02
#       6
#    16  16   8  16   8  16
#     4  11  23  40  62  90 123 158 204 260 310 368
#     4   9  18  35  59  89 123 158 202 262 324 377
#     4   9  16  30  56  91 119 146 198 262 316 368
#     4  12  26  41  57  85 124 167 206 246 314 383
#     4  11  20  34  62  91 116 150 203 266 303 346
#     4  12  23  40  59  86 118 162 209 251 303 366
#
# _framework density 21.238959999999999
#
# number of rings (size 3 to 8) (size 9 to 14) (size 15 to 20)
#    0.000    1.200    5.000    2.400    1.400    0.400 
#    1.800    0.000    0.000    2.400    0.000    2.800 
#    0.000    0.000    0.000    0.000    0.000    0.000 
#
# Total GULP energy -445993.569325 kJ/mol
# GULP energy per Si atom -5574.919617 kJ/mol
# Density = 2.119062 g / cm^3
# Si number density = 21.238960 Si / 1000 Ang^3
#
#
#
# Elastic Constant Matrix: (Units=GPa)
#
#
# Indices 1 2 3 4 5 6 
#
# 1 76.2074 27.2430 17.4204 0.0000 0.0000 0.0000
# 2 27.2430 76.2077 17.4206 0.0000 0.0000 0.0000
# 3 17.4204 17.4206 64.4339 0.0000 0.0000 0.0000
# 4 0.0000 0.0000 0.0000 -0.1364 0.0000 0.0000
# 5 0.0000 0.0000 0.0000 0.0000 -0.1391 0.0000
# 6 0.0000 0.0000 0.0000 0.0000 0.0000 38.2006
#
#
#
# Elastic Compliance Matrix: (Units=1/GPa)
#
#
# Indices 1 2 3 4 5 6 
#
# 1 0.015529 -0.004894 -0.002875 0.000000 0.000000 0.000000
# 2 -0.004894 0.015529 -0.002875 0.000000 0.000000 0.000000
# 3 -0.002875 -0.002875 0.017075 0.000000 0.000000 0.000000
# 4 0.000000 0.000000 0.000000 -7.329892 0.000000 0.000000
# 5 0.000000 0.000000 0.000000 0.000000 -7.189821 0.000000
# 6 0.000000 0.000000 0.000000 0.000000 0.000000 0.026178
#
#
# Mechanical properties :
#
#
# Convention : Reuss Voigt Hill
#
# Bulk Modulus (GPa) = 37.25349 37.89076 37.57213
# Shear Modulus (GPa) = -0.34686 17.90267 8.77791
#
# Velocity S-wave (km/s) = -0.40456 2.90645 2.03517
# Velocity P-wave (km/s) = 4.16654 5.39835 4.82194
#
# Compressibility (1/GPa) = 0.02684312
#
# Stress axis : x y z
#
# Youngs Moduli (GPa) = 64.39604 64.39627 58.56684
#
# Poissons Ratio (x) = 0.31516 0.16839
# Poissons Ratio (y) = 0.31516 0.16840
# Poissons Ratio (z) = 0.18515 0.18516
#
# Static dielectric constant tensor:
#      x y z
#    x 1.879250 0.000000 0.000000 
#    y 0.000000 1.879250 0.000000 
#    z 0.000000 0.000000 1.774030 
# 
# From -- ./inp_files/7963.got.cif
#   From: 2010.05.17/outbox.cif.g08.bks.cpg/sg138_4_cif.got.tgz:7963.got - 2010.05.20 13:08:53.
