data_PCOD9571389
_publ_section_title
;
Structure prediction by ZEFSAII (Michael W. Deem and Ramdas Pophale) SiO2 
 PCOD9571389
Probable space group: I 4/M M M
;
_chemical_formula_sum "Si O2"
_cell_formula_units_Z 240
_cell_length_a 20.033999
_cell_length_b 20.033999
_cell_length_c 34.248444
_cell_angle_alpha 90.000000
_cell_angle_beta 90.000000
_cell_angle_gamma 90.000000
_cell_volume 13745.993703
_symmetry_space_group_name_H-M "I 4/M M M"
_symmetry_group_IT_number 139
_symmetry_cell_setting 'tetragonal'
loop_
_space_group_symop_operation_xyz
x,y,z
-y,x,z
-x,-y,z
y,-x,z
x,-y,-z
-x,y,-z
y,x,-z
-y,-x,-z
-x,-y,-z
y,-x,-z
x,y,-z
-y,x,-z
-x,y,z
x,-y,z
-y,-x,z
y,x,z
1/2+x,1/2+y,1/2+z
1/2-y,1/2+x,1/2+z
1/2-x,1/2-y,1/2+z
1/2+y,1/2-x,1/2+z
1/2+x,1/2-y,1/2-z
1/2-x,1/2+y,1/2-z
1/2+y,1/2+x,1/2-z
1/2-y,1/2-x,1/2-z
1/2-x,1/2-y,1/2-z
1/2+y,1/2-x,1/2-z
1/2+x,1/2+y,1/2-z
1/2-y,1/2+x,1/2-z
1/2-x,1/2+y,1/2+z
1/2+x,1/2-y,1/2+z
1/2-y,1/2-x,1/2+z
1/2+y,1/2+x,1/2+z
loop_
_atom_site_type_symbol
_atom_site_label
_atom_site_fract_x
_atom_site_fract_y
_atom_site_fract_z
Si Si1 0.311008 0.422043 0.797807
Si Si2 0.753096 0.867050 0.542425
Si Si3 0.423292 0.310459 0.882197
Si Si4 0.690859 0.421094 0.287654
Si Si5 0.850865 0.261565 0.069808
Si Si6 0.923756 0.418531 0.705926
Si Si7 0.694327 0.080127 0.149438
Si Si8 0.577526 0.310967 0.500000
O O1 0.328070 0.500000 0.797515
O O2 0.377138 0.377138 0.797956
O O3 0.277081 0.409136 0.839728
O O4 0.278165 0.408936 0.755776
O O5 0.751026 0.900927 0.500000
O O6 0.815478 0.815478 0.541824
O O7 0.763866 0.911128 0.580669
O O8 0.688945 0.820859 0.548629
O O9 0.500000 0.332684 0.882488
O O10 0.372909 0.372909 0.885158
O O11 0.673252 0.500000 0.290007
O O12 0.626906 0.373095 0.291761
O O13 0.744817 0.407158 0.320747
O O14 0.795895 0.204106 0.079176
O O15 0.884246 0.289422 0.108885
O O16 0.901868 0.230192 0.038684
O O17 0.925215 0.500000 0.705947
O O18 0.900993 0.400993 0.750000
O O19 0.872751 0.398029 0.672167
O O20 0.000000 0.394824 0.699975
O O21 0.690152 0.000000 0.143363
O O22 0.500000 0.326222 0.500000
O O23 0.623332 0.376669 0.500000
#
# Coordination Sequence:
#
# PCOD9571389 Si02
#       8
#    32  32  32  32  32  32  32  16
#     4   8  14  25  40  60  90 129 171 211 250 292
#     4   9  17  32  51  67  87 120 164 210 251 293
#     4   9  17  29  47  71  99 132 169 212 261 310
#     4   9  17  29  45  67 100 140 178 214 249 292
#     4  10  19  34  54  75 101 133 171 209 245 296
#     4   8  15  31  53  73  95 125 164 209 256 311
#     4  10  19  31  50  76 102 129 163 207 258 308
#     4  10  20  35  58  86 113 141 170 206 252 302
#
# _framework density 17.459633
#
# number of rings (size 3 to 8) (size 9 to 14) (size 15 to 20)
#    0.000    2.933    0.667    1.200    0.000    0.733 
#    2.400    3.333    0.000    0.800    0.000    3.733 
#    0.000    3.200    0.000    0.000    0.000    0.000 
#
# Total GULP energy -668052.723922 kJ/mol
# GULP energy per Si atom -5567.106033 kJ/mol
# Density = 1.741989 g / cm^3
# Si number density = 17.459633 Si / 1000 Ang^3
#
#
#
# Elastic Constant Matrix: (Units=GPa)
#
#
# Indices 1 2 3 4 5 6 
#
# 1 36.0178 28.4261 37.2415 0.0000 0.0000 0.0000
# 2 28.4261 36.0164 37.2426 0.0000 0.0000 0.0000
# 3 37.2415 37.2426 143.7993 0.0000 0.0000 0.0000
# 4 0.0000 0.0000 0.0000 24.3410 0.0000 0.0000
# 5 0.0000 0.0000 0.0000 0.0000 24.3413 0.0000
# 6 0.0000 0.0000 0.0000 0.0000 0.0000 7.8186
#
#
#
# Elastic Compliance Matrix: (Units=1/GPa)
#
#
# Indices 1 2 3 4 5 6 
#
# 1 0.076938 -0.054794 -0.005735 0.000000 0.000000 0.000000
# 2 -0.054794 0.076944 -0.005737 0.000000 0.000000 0.000000
# 3 -0.005735 -0.005737 0.009925 0.000000 0.000000 0.000000
# 4 0.000000 0.000000 0.000000 0.041083 0.000000 0.000000
# 5 0.000000 0.000000 0.000000 0.000000 0.041082 0.000000
# 6 0.000000 0.000000 0.000000 0.000000 0.000000 0.127901
#
#
# Mechanical properties :
#
#
# Convention : Reuss Voigt Hill
#
# Bulk Modulus (GPa) = 31.97334 46.85042 39.41188
# Shear Modulus (GPa) = 9.67439 18.82840 14.25140
#
# Velocity S-wave (km/s) = 2.35649 3.28746 2.86011
# Velocity P-wave (km/s) = 5.07509 6.42664 5.79043
#
# Compressibility (1/GPa) = 0.03127605
#
# Stress axis : x y z
#
# Youngs Moduli (GPa) = 12.99753 12.99654 100.75454
#
# Poissons Ratio (x) = 0.71213 0.57778
# Poissons Ratio (y) = 0.71218 0.57803
# Poissons Ratio (z) = 0.07453 0.07456
#
# Static dielectric constant tensor:
#      x y z
#    x 1.579970 0.000000 0.000000 
#    y 0.000000 1.579970 0.000000 
#    z 0.000000 0.000000 1.631620 
# 
# From -- ./inp_files/14613.got.cif
#   From: 2010.05.17/outbox.cif.g08.bks.cpg/sg139_8_cif.got.tgz:14613.got - 2010.05.20 13:14:44.
