data_PCOD9571025
_publ_section_title
;
Structure prediction by ZEFSAII (Michael W. Deem and Ramdas Pophale) SiO2 
 PCOD9571025
Probable space group: P 42/N C M
;
_chemical_formula_sum "Si O2"
_cell_formula_units_Z 72
_cell_length_a 16.432958
_cell_length_b 16.432958
_cell_length_c 11.290281
_cell_angle_alpha 90.000000
_cell_angle_beta 90.000000
_cell_angle_gamma 90.000000
_cell_volume 3048.851288
_symmetry_space_group_name_H-M "P 42/N C M"
_symmetry_group_IT_number 138
_space_group.IT_coordinate_system_code '2'
_symmetry_cell_setting 'tetragonal'
loop_
_space_group_symop_operation_xyz
x,y,z
1/2-y,x,1/2+z
1/2-x,1/2-y,z
y,1/2-x,1/2+z
1/2+x,-y,1/2-z
-x,1/2+y,1/2-z
1/2+y,1/2+x,-z
-y,-x,-z
-x,-y,-z
1/2+y,-x,1/2-z
1/2+x,1/2+y,-z
-y,1/2+x,1/2-z
1/2-x,y,1/2+z
x,1/2-y,1/2+z
1/2-y,1/2-x,z
y,x,z
loop_
_atom_site_type_symbol
_atom_site_label
_atom_site_fract_x
_atom_site_fract_y
_atom_site_fract_z
Si Si1 0.430516 0.298579 0.228210
Si Si2 0.889207 0.389207 0.500000
Si Si3 0.701489 0.564229 0.517843
Si Si4 0.703279 0.099313 0.931789
Si Si5 0.430880 0.560642 0.757268
O O1 0.346901 0.346901 0.220155
O O2 0.428782 0.253282 0.355500
O O3 0.434892 0.248810 0.106878
O O4 0.501500 0.366833 0.239480
O O5 0.900188 0.300564 0.559697
O O6 0.951096 0.404133 0.393430
O O7 0.632266 0.632266 0.516790
O O8 0.667734 0.472964 0.513507
O O9 0.651947 0.086829 0.811519
O O10 0.679954 0.179954 0.000000
O O11 0.480101 0.480101 0.713495
#
# Coordination Sequence:
#
# PCOD9571025 Si02
#       5
#    16   8  16  16  16
#     4  10  23  45  71 103 145 189 247 315 382 461
#     4  12  28  46  74 110 152 190 248 320 384 454
#     4  11  24  44  71 104 143 193 249 314 379 458
#     4  12  26  45  67 105 147 196 241 302 378 461
#     4  11  25  47  76 106 145 195 252 310 380 460
#
# _framework density 23.615451
#
# number of rings (size 3 to 8) (size 9 to 14) (size 15 to 20)
#    0.000    0.889    4.444    1.333    6.222    2.222 
#    0.000    2.222    0.000    0.000    0.000    0.000 
#    0.000    0.000    0.000    0.000    0.000    0.000 
#
# Total GULP energy -401432.622365 kJ/mol
# GULP energy per Si atom -5575.453088 kJ/mol
# Density = 2.356170 g / cm^3
# Si number density = 23.615451 Si / 1000 Ang^3
#
#
#
# Elastic Constant Matrix: (Units=GPa)
#
#
# Indices 1 2 3 4 5 6 
#
# 1 80.1041 31.1967 33.4623 0.0000 0.0000 0.0000
# 2 31.1967 80.1041 33.4623 0.0000 0.0000 0.0000
# 3 33.4623 33.4623 152.3715 0.0000 0.0000 0.0000
# 4 0.0000 0.0000 0.0000 27.0020 0.0000 0.0000
# 5 0.0000 0.0000 0.0000 0.0000 27.0020 0.0000
# 6 0.0000 0.0000 0.0000 0.0000 0.0000 35.6138
#
#
#
# Elastic Compliance Matrix: (Units=1/GPa)
#
#
# Indices 1 2 3 4 5 6 
#
# 1 0.015399 -0.005048 -0.002273 0.000000 0.000000 0.000000
# 2 -0.005048 0.015399 -0.002273 0.000000 0.000000 0.000000
# 3 -0.002273 -0.002273 0.007561 0.000000 0.000000 0.000000
# 4 0.000000 0.000000 0.000000 0.037034 0.000000 0.000000
# 5 0.000000 0.000000 0.000000 0.000000 0.037034 0.000000
# 6 0.000000 0.000000 0.000000 0.000000 0.000000 0.028079
#
#
# Mechanical properties :
#
#
# Convention : Reuss Voigt Hill
#
# Bulk Modulus (GPa) = 52.16126 56.53582 54.34854
# Shear Modulus (GPa) = 30.10481 32.22076 31.16279
#
# Velocity S-wave (km/s) = 3.57430 3.69778 3.63656
# Velocity P-wave (km/s) = 6.25858 6.49797 6.37940
#
# Compressibility (1/GPa) = 0.01917132
#
# Stress axis : x y z
#
# Youngs Moduli (GPa) = 64.93846 64.93846 132.25079
#
# Poissons Ratio (x) = 0.32778 0.30065
# Poissons Ratio (y) = 0.32778 0.30065
# Poissons Ratio (z) = 0.14763 0.14763
#
# Static dielectric constant tensor:
#      x y z
#    x 1.982340 0.000000 0.000000 
#    y 0.000000 1.982340 0.000000 
#    z 0.000000 0.000000 1.965580 
# 
# From -- ./inp_files/2810.got.cif
#   From: 2010.05.17/outbox.cif.g08.bks.cpg/sg138_2_cif.got.tgz:2810.got - 2010.05.20 13:08:53.
