data_PCOD9571734
_publ_section_title
;
Structure prediction by ZEFSAII (Michael W. Deem and Ramdas Pophale) SiO2 
 PCOD9571734
Probable space group: I 4/M M M
;
_chemical_formula_sum "Si O2"
_cell_formula_units_Z 160
_cell_length_a 20.719461
_cell_length_b 20.719461
_cell_length_c 20.882425
_cell_angle_alpha 90.000000
_cell_angle_beta 90.000000
_cell_angle_gamma 90.000000
_cell_volume 8964.742862
_symmetry_space_group_name_H-M "I 4/M M M"
_symmetry_group_IT_number 139
_symmetry_cell_setting 'tetragonal'
loop_
_space_group_symop_operation_xyz
x,y,z
-y,x,z
-x,-y,z
y,-x,z
x,-y,-z
-x,y,-z
y,x,-z
-y,-x,-z
-x,-y,-z
y,-x,-z
x,y,-z
-y,x,-z
-x,y,z
x,-y,z
-y,-x,z
y,x,z
1/2+x,1/2+y,1/2+z
1/2-y,1/2+x,1/2+z
1/2-x,1/2-y,1/2+z
1/2+y,1/2-x,1/2+z
1/2+x,1/2-y,1/2-z
1/2-x,1/2+y,1/2-z
1/2+y,1/2+x,1/2-z
1/2-y,1/2-x,1/2-z
1/2-x,1/2-y,1/2-z
1/2+y,1/2-x,1/2-z
1/2+x,1/2+y,1/2-z
1/2-y,1/2+x,1/2-z
1/2-x,1/2+y,1/2+z
1/2+x,1/2-y,1/2+z
1/2-y,1/2-x,1/2+z
1/2+y,1/2+x,1/2+z
loop_
_atom_site_type_symbol
_atom_site_label
_atom_site_fract_x
_atom_site_fract_y
_atom_site_fract_z
Si Si1 0.421979 0.929931 0.075696
Si Si2 0.874611 0.764682 0.000000
Si Si3 0.233911 0.658132 0.000000
Si Si4 0.205846 0.423786 0.878515
Si Si5 0.750907 0.858133 0.253691
Si Si6 0.313822 0.424037 0.631658
O O1 0.500000 0.932844 0.079797
O O2 0.402295 0.869424 0.118051
O O3 0.395749 0.000000 0.094780
O O4 0.408493 0.920062 0.000000
O O5 0.914575 0.775734 0.935302
O O6 0.821593 0.821593 0.000000
O O7 0.832064 0.700088 0.000000
O O8 0.236999 0.614501 0.937124
O O9 0.291009 0.708991 0.000000
O O10 0.208349 0.500000 0.890565
O O11 0.237707 0.406241 0.811724
O O12 0.810908 0.810908 0.268765
O O13 0.688979 0.811022 0.250000
O O14 0.769690 0.894946 0.188586
O O15 0.327998 0.500000 0.641210
O O16 0.378465 0.378465 0.629540
#
# Coordination Sequence:
#
# PCOD9571734 Si02
#       6
#    32  16  16  32  32  32
#     4   8  14  27  46  68  99 137 172 207 251 303
#     4   9  19  36  57  78 105 141 180 220 264 325
#     4  11  21  34  52  76 107 143 183 224 268 311
#     4  11  20  33  54  80 108 140 182 227 266 315
#     4  10  21  38  57  76 105 145 185 227 277 325
#     4  10  20  36  58  84 113 143 177 223 280 342
#
# _framework density 17.847695999999999
#
# number of rings (size 3 to 8) (size 9 to 14) (size 15 to 20)
#    0.000    2.200    1.000    3.600    0.000    3.400 
#    0.000    6.000    0.000    1.800    0.000    0.000 
#    0.000   15.200    0.000    0.000    0.000    0.000 
#
# Total GULP energy -446275.547004 kJ/mol
# GULP energy per Si atom -5578.444338 kJ/mol
# Density = 1.780707 g / cm^3
# Si number density = 17.847696 Si / 1000 Ang^3
#
#
#
# Elastic Constant Matrix: (Units=GPa)
#
#
# Indices 1 2 3 4 5 6 
#
# 1 103.4016 45.8612 58.7416 0.0000 0.0000 0.0000
# 2 45.8612 103.4015 58.7409 0.0000 0.0000 0.0000
# 3 58.7416 58.7409 124.4892 0.0000 0.0000 0.0000
# 4 0.0000 0.0000 0.0000 -323.1944 0.0002 0.0000
# 5 0.0000 0.0000 0.0000 0.0002 -327.2379 0.0000
# 6 0.0000 0.0000 0.0000 0.0000 0.0000 19.7654
#
#
#
# Elastic Compliance Matrix: (Units=1/GPa)
#
#
# Indices 1 2 3 4 5 6 
#
# 1 0.014019 -0.003361 -0.005029 0.000000 0.000000 0.000000
# 2 -0.003361 0.014018 -0.005029 0.000000 0.000000 0.000000
# 3 -0.005029 -0.005029 0.012779 0.000000 0.000000 0.000000
# 4 0.000000 0.000000 0.000000 -0.003094 0.000000 0.000000
# 5 0.000000 0.000000 0.000000 0.000000 -0.003056 0.000000
# 6 0.000000 0.000000 0.000000 0.000000 0.000000 0.050593
#
#
# Mechanical properties :
#
#
# Convention : Reuss Voigt Hill
#
# Bulk Modulus (GPa) = 71.53849 73.10884 72.32366
# Shear Modulus (GPa) = 42.82439 -114.93681 -36.05621
#
# Velocity S-wave (km/s) = 4.90372 -8.03358 -4.49956
# Velocity P-wave (km/s) = 8.49892 6.70819 3.68998
#
# Compressibility (1/GPa) = 0.01397849
#
# Stress axis : x y z
#
# Youngs Moduli (GPa) = 71.33419 71.33479 78.25481
#
# Poissons Ratio (x) = 0.23973 0.39355
# Poissons Ratio (y) = 0.23973 0.39354
# Poissons Ratio (z) = 0.35874 0.35874
#
# Static dielectric constant tensor:
#      x y z
#    x 1.617290 0.000000 0.000000 
#    y 0.000000 1.617290 0.000000 
#    z 0.000000 0.000000 1.590500 
# 
# From -- ./inp_files/8429.got.cif
#   From: 2010.05.17/outbox.cif.g08.bks.cpg/sg139_5_cif.got.tgz:8429.got - 2010.05.20 13:14:44.
