data_PCOD9571846
_publ_section_title
;
Structure prediction by ZEFSAII (Michael W. Deem and Ramdas Pophale) SiO2 
 PCOD9571846
Probable space group: I 4/M M M
;
_chemical_formula_sum "Si O2"
_cell_formula_units_Z 136
_cell_length_a 17.996370
_cell_length_b 17.996370
_cell_length_c 21.203716
_cell_angle_alpha 90.000000
_cell_angle_beta 90.000000
_cell_angle_gamma 90.000000
_cell_volume 6867.233362
_symmetry_space_group_name_H-M "I 4/M M M"
_symmetry_group_IT_number 139
_symmetry_cell_setting 'tetragonal'
loop_
_space_group_symop_operation_xyz
x,y,z
-y,x,z
-x,-y,z
y,-x,z
x,-y,-z
-x,y,-z
y,x,-z
-y,-x,-z
-x,-y,-z
y,-x,-z
x,y,-z
-y,x,-z
-x,y,z
x,-y,z
-y,-x,z
y,x,z
1/2+x,1/2+y,1/2+z
1/2-y,1/2+x,1/2+z
1/2-x,1/2-y,1/2+z
1/2+y,1/2-x,1/2+z
1/2+x,1/2-y,1/2-z
1/2-x,1/2+y,1/2-z
1/2+y,1/2+x,1/2-z
1/2-y,1/2-x,1/2-z
1/2-x,1/2-y,1/2-z
1/2+y,1/2-x,1/2-z
1/2+x,1/2+y,1/2-z
1/2-y,1/2+x,1/2-z
1/2-x,1/2+y,1/2+z
1/2+x,1/2-y,1/2+z
1/2-y,1/2-x,1/2+z
1/2+y,1/2+x,1/2+z
loop_
_atom_site_type_symbol
_atom_site_label
_atom_site_fract_x
_atom_site_fract_y
_atom_site_fract_z
Si Si1 0.915307 0.206615 0.307464
Si Si2 0.644717 0.846823 0.124579
Si Si3 0.087843 0.500000 0.573242
Si Si4 0.628957 0.500000 0.000000
Si Si5 0.751848 0.369315 0.000000
Si Si6 0.584615 0.700148 0.655628
O O1 0.855407 0.144594 0.331120
O O2 0.888525 0.289820 0.323995
O O3 0.917897 0.199732 0.231927
O O4 0.000000 0.193455 0.331965
O O5 0.610022 0.927653 0.113344
O O6 0.731009 0.863850 0.136429
O O7 0.629261 0.802877 0.060870
O O8 0.118421 0.500000 0.500000
O O9 0.000000 0.500000 0.566846
O O10 0.565424 0.565424 0.000000
O O11 0.694651 0.563977 0.000000
O O12 0.706887 0.293114 0.000000
O O13 0.500000 0.708467 0.632568
O O14 0.624261 0.624261 0.634971
#
# Coordination Sequence:
#
# PCOD9571846 Si02
#       6
#    32  32  16   8  16  32
#     4  10  22  39  62  90 122 161 201 247 303 362
#     4  12  22  40  61  87 121 156 203 250 303 362
#     4  11  24  40  60  85 115 157 199 249 306 359
#     4   9  22  44  62  85 126 172 216 255 298 360
#     4  11  24  37  60  90 117 160 201 245 301 358
#     4  10  21  39  63  89 120 158 201 251 306 364
#
# _framework density 19.804190999999999
#
# number of rings (size 3 to 8) (size 9 to 14) (size 15 to 20)
#    0.000    1.353    2.353    3.529    3.294    2.353 
#    0.000    2.353    0.000    0.000    0.000    0.000 
#    0.000    3.765    0.000    0.000    0.000    0.000 
#
# Total GULP energy -378559.842681 kJ/mol
# GULP energy per Si atom -5567.056510 kJ/mol
# Density = 1.975912 g / cm^3
# Si number density = 19.804191 Si / 1000 Ang^3
#
#
#
# Elastic Constant Matrix: (Units=GPa)
#
#
# Indices 1 2 3 4 5 6 
#
# 1 160.3369 79.8155 14.1773 0.0000 0.0000 0.0000
# 2 79.8155 160.3384 14.1775 0.0000 0.0000 0.0000
# 3 14.1773 14.1775 15.2154 0.0000 0.0000 0.0000
# 4 0.0000 0.0000 0.0000 67.1295 0.0000 0.0000
# 5 0.0000 0.0000 0.0000 0.0000 67.1089 0.0000
# 6 0.0000 0.0000 0.0000 0.0000 0.0000 37.2136
#
#
#
# Elastic Compliance Matrix: (Units=1/GPa)
#
#
# Indices 1 2 3 4 5 6 
#
# 1 0.008549 -0.003870 -0.004360 0.000000 0.000000 0.000000
# 2 -0.003870 0.008549 -0.004360 0.000000 0.000000 0.000000
# 3 -0.004360 -0.004360 0.073847 0.000000 0.000000 0.000000
# 4 0.000000 0.000000 0.000000 0.014897 0.000000 0.000000
# 5 0.000000 0.000000 0.000000 0.000000 0.014901 0.000000
# 6 0.000000 0.000000 0.000000 0.000000 0.000000 0.026872
#
#
# Mechanical properties :
#
#
# Convention : Reuss Voigt Hill
#
# Bulk Modulus (GPa) = 15.20528 61.35904 38.28216
# Shear Modulus (GPa) = 25.67850 49.47175 37.57512
#
# Velocity S-wave (km/s) = 3.60477 5.00347 4.36056
# Velocity P-wave (km/s) = 5.00203 8.02681 6.68767
#
# Compressibility (1/GPa) = 0.06576661
#
# Stress axis : x y z
#
# Youngs Moduli (GPa) = 116.97445 116.97534 13.54144
#
# Poissons Ratio (x) = 0.45271 0.05903
# Poissons Ratio (y) = 0.45270 0.05904
# Poissons Ratio (z) = 0.50995 0.50997
#
# Static dielectric constant tensor:
#      x y z
#    x 1.708210 0.000000 0.000000 
#    y 0.000000 1.708210 0.000000 
#    z 0.000000 0.000000 1.675550 
# 
# From -- ./inp_files/9966.got.cif
#   From: 2010.05.17/outbox.cif.g08.bks.cpg/sg139_5_cif.got.tgz:9966.got - 2010.05.20 13:14:44.
