data_PCOD9571139
_publ_section_title
;
Structure prediction by ZEFSAII (Michael W. Deem and Ramdas Pophale) SiO2 
 PCOD9571139
Probable space group: P 42/N C M
;
_chemical_formula_sum "Si O2"
_cell_formula_units_Z 96
_cell_length_a 15.000000
_cell_length_b 15.000000
_cell_length_c 21.000000
_cell_angle_alpha 90.000000
_cell_angle_beta 90.000000
_cell_angle_gamma 90.000000
_cell_volume 4725.000000
_symmetry_space_group_name_H-M "P 42/N C M"
_symmetry_group_IT_number 138
_space_group.IT_coordinate_system_code '2'
_symmetry_cell_setting 'tetragonal'
loop_
_space_group_symop_operation_xyz
x,y,z
1/2-y,x,1/2+z
1/2-x,1/2-y,z
y,1/2-x,1/2+z
1/2+x,-y,1/2-z
-x,1/2+y,1/2-z
1/2+y,1/2+x,-z
-y,-x,-z
-x,-y,-z
1/2+y,-x,1/2-z
1/2+x,1/2+y,-z
-y,1/2+x,1/2-z
1/2-x,y,1/2+z
x,1/2-y,1/2+z
1/2-y,1/2-x,z
y,x,z
loop_
_atom_site_type_symbol
_atom_site_label
_atom_site_fract_x
_atom_site_fract_y
_atom_site_fract_z
Si Si1 0.252208 0.107517 0.315758
Si Si2 0.796225 0.464543 0.580676
Si Si3 0.050851 0.834074 0.890581
Si Si4 0.027595 0.883693 0.746032
Si Si5 0.679599 0.176589 0.847775
Si Si6 0.747541 0.898799 0.471085
O O1 0.327260 0.172740 0.286715
O O2 0.176118 0.176118 0.343484
O O3 0.299772 0.042154 0.365914
O O4 0.196692 0.040992 0.270946
O O5 0.889465 0.409533 0.572162
O O6 0.727793 0.389490 0.606193
O O7 0.753929 0.519930 0.522066
O O8 0.045958 0.876254 0.820414
O O9 0.107705 0.742784 0.884715
O O10 0.953310 0.800378 0.913170
O O11 0.118079 0.869008 0.706007
O O12 0.974942 0.974942 0.730383
O O13 0.750000 0.250000 0.822417
O O14 0.676091 0.823910 0.492258
O O15 0.840911 0.840911 0.461992
#
# Coordination Sequence:
#
# PCOD9571139 Si02
#       6
#    16  16  16  16  16  16
#     4   9  18  34  57  86 119 156 202 260 319 374
#     4  10  21  39  63  91 116 156 212 262 308 370
#     4  11  24  39  61  92 126 163 206 258 319 377
#     4  10  22  37  57  90 127 164 211 257 309 381
#     4   9  22  39  64  91 124 165 203 255 319 377
#     4  11  25  44  64  87 123 168 210 261 324 380
#
# _framework density 20.317460000000001
#
# number of rings (size 3 to 8) (size 9 to 14) (size 15 to 20)
#    0.000    2.000    0.000    2.000    7.000    7.333 
#    0.000    5.000    0.000    0.000    0.000    0.000 
#    0.000    0.000    0.000    0.000    0.000    0.000 
#
# Total GULP energy -535097.162763 kJ/mol
# GULP energy per Si atom -5573.928779 kJ/mol
# Density = 2.027122 g / cm^3
# Si number density = 20.317460 Si / 1000 Ang^3
#
#
#
# Elastic Constant Matrix: (Units=GPa)
#
#
# Indices 1 2 3 4 5 6 
#
# 1 129.0490 55.6628 28.1039 0.0000 0.0000 0.0000
# 2 55.6628 129.0490 28.1039 0.0000 0.0000 0.0000
# 3 28.1039 28.1039 64.4979 0.0000 0.0000 0.0000
# 4 0.0000 0.0000 0.0000 17.2435 0.0000 0.0000
# 5 0.0000 0.0000 0.0000 0.0000 17.2435 0.0000
# 6 0.0000 0.0000 0.0000 0.0000 0.0000 45.2976
#
#
#
# Elastic Compliance Matrix: (Units=1/GPa)
#
#
# Indices 1 2 3 4 5 6 
#
# 1 0.009934 -0.003693 -0.002720 0.000000 0.000000 0.000000
# 2 -0.003693 0.009934 -0.002720 0.000000 0.000000 0.000000
# 3 -0.002720 -0.002720 0.017874 0.000000 0.000000 0.000000
# 4 0.000000 0.000000 0.000000 0.057993 0.000000 0.000000
# 5 0.000000 0.000000 0.000000 0.000000 0.057993 0.000000
# 6 0.000000 0.000000 0.000000 0.000000 0.000000 0.022076
#
#
# Mechanical properties :
#
#
# Convention : Reuss Voigt Hill
#
# Bulk Modulus (GPa) = 51.33770 60.70414 56.02092
# Shear Modulus (GPa) = 24.93010 30.00526 27.46768
#
# Velocity S-wave (km/s) = 3.50670 3.84711 3.68084
# Velocity P-wave (km/s) = 6.45899 7.04815 6.75999
#
# Compressibility (1/GPa) = 0.01947886
#
# Stress axis : x y z
#
# Youngs Moduli (GPa) = 100.66455 100.66455 55.94586
#
# Poissons Ratio (x) = 0.37171 0.15215
# Poissons Ratio (y) = 0.37171 0.15215
# Poissons Ratio (z) = 0.27377 0.27377
#
# Static dielectric constant tensor:
#      x y z
#    x 1.725340 0.000000 0.000000 
#    y 0.000000 1.725340 0.000000 
#    z 0.000000 0.000000 1.798940 
# 
# From -- ./inp_files/6212.got.cif
#   From: 2010.05.17/outbox.ucp.g08.bks.cvg/sg138_4_cif.got.tgz:6212.got - 2010.06.11 11:41:40.
