data_PCOD9571694
_publ_section_title
;
Structure prediction by ZEFSAII (Michael W. Deem and Ramdas Pophale) SiO2 
 PCOD9571694
Probable space group: I 4/M M M
;
_chemical_formula_sum "Si O2"
_cell_formula_units_Z 176
_cell_length_a 26.723270
_cell_length_b 26.723270
_cell_length_c 13.486557
_cell_angle_alpha 90.000000
_cell_angle_beta 90.000000
_cell_angle_gamma 90.000000
_cell_volume 9631.197561
_symmetry_space_group_name_H-M "I 4/M M M"
_symmetry_group_IT_number 139
_symmetry_cell_setting 'tetragonal'
loop_
_space_group_symop_operation_xyz
x,y,z
-y,x,z
-x,-y,z
y,-x,z
x,-y,-z
-x,y,-z
y,x,-z
-y,-x,-z
-x,-y,-z
y,-x,-z
x,y,-z
-y,x,-z
-x,y,z
x,-y,z
-y,-x,z
y,x,z
1/2+x,1/2+y,1/2+z
1/2-y,1/2+x,1/2+z
1/2-x,1/2-y,1/2+z
1/2+y,1/2-x,1/2+z
1/2+x,1/2-y,1/2-z
1/2-x,1/2+y,1/2-z
1/2+y,1/2+x,1/2-z
1/2-y,1/2-x,1/2-z
1/2-x,1/2-y,1/2-z
1/2+y,1/2-x,1/2-z
1/2+x,1/2+y,1/2-z
1/2-y,1/2+x,1/2-z
1/2-x,1/2+y,1/2+z
1/2+x,1/2-y,1/2+z
1/2-y,1/2-x,1/2+z
1/2+y,1/2+x,1/2+z
loop_
_atom_site_type_symbol
_atom_site_label
_atom_site_fract_x
_atom_site_fract_y
_atom_site_fract_z
Si Si1 0.058633 0.662011 0.612042
Si Si2 0.885428 0.305795 0.213732
Si Si3 0.358388 0.558702 0.000000
Si Si4 0.798819 0.882936 0.115024
Si Si5 0.559054 0.356961 0.781371
Si Si6 0.104237 0.556996 0.618890
O O1 0.078285 0.665787 0.500000
O O2 0.084444 0.701219 0.684298
O O3 0.069306 0.604547 0.647695
O O4 0.000000 0.669821 0.611520
O O5 0.837703 0.337703 0.250000
O O6 0.872356 0.256874 0.153242
O O7 0.922590 0.341321 0.150083
O O8 0.334069 0.568913 0.107870
O O9 0.370082 0.500000 0.000000
O O10 0.408421 0.591580 0.000000
O O11 0.834068 0.834068 0.121507
O O12 0.822164 0.922810 0.191578
O O13 0.798693 0.899399 0.000000
O O14 0.500000 0.366971 0.773550
O O15 0.592790 0.407211 0.775384
O O16 0.100614 0.554306 0.500000
O O17 0.094484 0.500000 0.655022
#
# Coordination Sequence:
#
# PCOD9571694 Si02
#       6
#    32  32  16  32  32  32
#     4   9  18  32  48  71 107 145 179 216 257 306
#     4  10  20  35  55  75 100 131 172 222 276 326
#     4   8  14  27  48  74 108 144 176 212 249 295
#     4  10  22  40  60  80 104 135 174 224 278 331
#     4   9  18  33  54  82 115 149 183 219 262 314
#     4   9  17  29  48  75 104 137 178 220 261 307
#
# _framework density 18.273947
#
# number of rings (size 3 to 8) (size 9 to 14) (size 15 to 20)
#    0.000    2.727    0.000    1.091    0.000    3.545 
#    1.636    3.636    0.000    3.273    0.000    2.545 
#    0.000    0.000    0.000    0.000    0.000    0.000 
#
# Total GULP energy -489874.266784 kJ/mol
# GULP energy per Si atom -5566.753032 kJ/mol
# Density = 1.823235 g / cm^3
# Si number density = 18.273947 Si / 1000 Ang^3
#
#
#
# Elastic Constant Matrix: (Units=GPa)
#
#
# Indices 1 2 3 4 5 6 
#
# 1 56.3086 7.1765 40.2722 0.0000 0.0000 0.0000
# 2 7.1765 56.3091 40.2726 0.0000 0.0000 0.0000
# 3 40.2722 40.2726 131.6646 0.0000 0.0000 0.0000
# 4 0.0000 0.0000 0.0000 29.1932 0.0000 0.0000
# 5 0.0000 0.0000 0.0000 0.0000 29.1930 0.0000
# 6 0.0000 0.0000 0.0000 0.0000 0.0000 3.3192
#
#
#
# Elastic Compliance Matrix: (Units=1/GPa)
#
#
# Indices 1 2 3 4 5 6 
#
# 1 0.023047 0.002694 -0.007873 0.000000 0.000000 0.000000
# 2 0.002694 0.023047 -0.007873 0.000000 0.000000 0.000000
# 3 -0.007873 -0.007873 0.012411 0.000000 0.000000 0.000000
# 4 0.000000 0.000000 0.000000 0.034255 0.000000 0.000000
# 5 0.000000 0.000000 0.000000 0.000000 0.034255 0.000000
# 6 0.000000 0.000000 0.000000 0.000000 0.000000 0.301273
#
#
# Mechanical properties :
#
#
# Convention : Reuss Voigt Hill
#
# Bulk Modulus (GPa) = 30.86466 46.63610 38.75038
# Shear Modulus (GPa) = 10.74822 22.77849 16.76335
#
# Velocity S-wave (km/s) = 2.42786 3.53441 3.03204
# Velocity P-wave (km/s) = 4.97855 6.49862 5.78870
#
# Compressibility (1/GPa) = 0.03239952
#
# Stress axis : x y z
#
# Youngs Moduli (GPa) = 43.38959 43.38985 80.57048
#
# Poissons Ratio (x) = -0.11688 0.63436
# Poissons Ratio (y) = -0.11688 0.63436
# Poissons Ratio (z) = 0.34162 0.34162
#
# Static dielectric constant tensor:
#      x y z
#    x 1.614030 0.000000 0.000000 
#    y 0.000000 1.614030 0.000000 
#    z 0.000000 0.000000 1.701670 
# 
# From -- ./inp_files/6377.got.cif
#   From: 2010.05.17/outbox.cif.g08.bks.cpg/sg139_4_cif.got.tgz:6377.got - 2010.05.20 13:14:44.
