data_PCOD9571891
_publ_section_title
;
Structure prediction by ZEFSAII (Michael W. Deem and Ramdas Pophale) SiO2 
 PCOD9571891
Probable space group: I 4/M M M
;
_chemical_formula_sum "Si O2"
_cell_formula_units_Z 160
_cell_length_a 30.538299
_cell_length_b 30.538299
_cell_length_c 8.212338
_cell_angle_alpha 90.000000
_cell_angle_beta 90.000000
_cell_angle_gamma 90.000000
_cell_volume 7658.725455
_symmetry_space_group_name_H-M "I 4/M M M"
_symmetry_group_IT_number 139
_symmetry_cell_setting 'tetragonal'
loop_
_space_group_symop_operation_xyz
x,y,z
-y,x,z
-x,-y,z
y,-x,z
x,-y,-z
-x,y,-z
y,x,-z
-y,-x,-z
-x,-y,-z
y,-x,-z
x,y,-z
-y,x,-z
-x,y,z
x,-y,z
-y,-x,z
y,x,z
1/2+x,1/2+y,1/2+z
1/2-y,1/2+x,1/2+z
1/2-x,1/2-y,1/2+z
1/2+y,1/2-x,1/2+z
1/2+x,1/2-y,1/2-z
1/2-x,1/2+y,1/2-z
1/2+y,1/2+x,1/2-z
1/2-y,1/2-x,1/2-z
1/2-x,1/2-y,1/2-z
1/2+y,1/2-x,1/2-z
1/2+x,1/2+y,1/2-z
1/2-y,1/2+x,1/2-z
1/2-x,1/2+y,1/2+z
1/2+x,1/2-y,1/2+z
1/2-y,1/2-x,1/2+z
1/2+y,1/2+x,1/2+z
loop_
_atom_site_type_symbol
_atom_site_label
_atom_site_fract_x
_atom_site_fract_y
_atom_site_fract_z
Si Si1 0.151710 0.284212 0.312447
Si Si2 0.793875 0.793875 0.190285
Si Si3 0.862404 0.862404 0.308881
Si Si4 0.950815 0.378845 0.694137
Si Si5 0.951783 0.819229 0.803019
Si Si6 0.938616 0.278797 0.184801
O O1 0.137769 0.286171 0.500000
O O2 0.170208 0.329793 0.250000
O O3 0.187850 0.247593 0.285784
O O4 0.113028 0.272151 0.193759
O O5 0.830995 0.830995 0.204673
O O6 0.784752 0.784752 0.000000
O O7 0.854122 0.854122 0.500000
O O8 0.847309 0.911939 0.269132
O O9 0.950552 0.381189 0.500000
O O10 0.911533 0.411533 0.750000
O O11 0.946289 0.326851 0.738153
O O12 0.000000 0.392294 0.753196
O O13 0.953175 0.768215 0.743886
O O14 0.000000 0.838129 0.769171
O O15 0.945996 0.817236 0.000000
O O16 0.953838 0.281627 0.000000
#
# Coordination Sequence:
#
# PCOD9571891 Si02
#       6
#    32  16  16  32  32  32
#     4  12  24  38  56  83 120 166 213 258 308 365
#     4  12  23  39  58  82 118 163 211 260 305 359
#     4  12  24  39  63  95 131 170 208 258 314 370
#     4  11  25  44  66  92 123 160 205 261 322 384
#     4  10  22  41  67  96 128 169 212 256 308 369
#     4  11  22  39  64  93 126 164 206 256 309 370
#
# _framework density 20.891204999999999
#
# number of rings (size 3 to 8) (size 9 to 14) (size 15 to 20)
#    0.000    0.800    2.000    6.300    0.000    3.800 
#    0.000    1.000    0.000    0.300    0.000    2.100 
#    0.000    0.000    0.000    0.000    0.000    0.000 
#
# Total GULP energy -446494.855854 kJ/mol
# GULP energy per Si atom -5581.185698 kJ/mol
# Density = 2.084366 g / cm^3
# Si number density = 20.891205 Si / 1000 Ang^3
#
#
#
# Elastic Constant Matrix: (Units=GPa)
#
#
# Indices 1 2 3 4 5 6 
#
# 1 4.5203 178.1385 18.0102 0.0000 0.0000 0.0000
# 2 178.1385 4.4275 18.0265 0.0000 0.0000 0.0000
# 3 18.0102 18.0265 79.6195 0.0000 0.0000 0.0000
# 4 0.0000 0.0000 0.0000 -2.5254 0.0000 0.0000
# 5 0.0000 0.0000 0.0000 0.0000 -2.5243 0.0000
# 6 0.0000 0.0000 0.0000 0.0000 0.0000 11.8607
#
#
#
# Elastic Compliance Matrix: (Units=1/GPa)
#
#
# Indices 1 2 3 4 5 6 
#
# 1 -0.000011 0.005745 -0.001298 0.000000 0.000000 0.000000
# 2 0.005745 -0.000015 -0.001296 0.000000 0.000000 0.000000
# 3 -0.001298 -0.001296 0.013147 0.000000 0.000000 0.000000
# 4 0.000000 0.000000 0.000000 -0.395977 0.000000 0.000000
# 5 0.000000 0.000000 0.000000 0.000000 -0.396148 0.000000
# 6 0.000000 0.000000 0.000000 0.000000 0.000000 0.084312
#
#
# Mechanical properties :
#
#
# Convention : Reuss Voigt Hill
#
# Bulk Modulus (GPa) = 51.48748 57.43529 54.46138
# Shear Modulus (GPa) = -7.19921 -7.01166 -7.10544
#
# Velocity S-wave (km/s) = -1.85837 -1.83400 -1.84622
# Velocity P-wave (km/s) = 4.48267 4.80286 4.64553
#
# Compressibility (1/GPa) = 0.01942220
#
# Stress axis : x y z
#
# Youngs Moduli (GPa) = -87522.07996 -67887.02299 76.06380
#
# Poissons Ratio (x) = 390.02101 0.09874
# Poissons Ratio (y) = 502.82732 0.09860
# Poissons Ratio (z) = -113.61784 -87.99774
#
# Static dielectric constant tensor:
#      x y z
#    x -2.413840 0.000000 0.000000 
#    y 0.000000 -2.390650 0.000000 
#    z 0.000000 0.000000 1.722140 
# 
# From -- ./inp_files/2225.got.cif
#   From: 2010.05.17/outbox.cif.g08.bks.cpg/sg139_2_cif.got.tgz:2225.got - 2010.05.20 13:14:44.
