data_PCOD9571109
_publ_section_title
;
Structure prediction by ZEFSAII (Michael W. Deem and Ramdas Pophale) SiO2 
 PCOD9571109
Probable space group: P 42/N C M
;
_chemical_formula_sum "Si O2"
_cell_formula_units_Z 40
_cell_length_a 13.948709
_cell_length_b 13.948709
_cell_length_c 8.386906
_cell_angle_alpha 90.000000
_cell_angle_beta 90.000000
_cell_angle_gamma 90.000000
_cell_volume 1631.810802
_symmetry_space_group_name_H-M "P 42/N C M"
_symmetry_group_IT_number 138
_space_group.IT_coordinate_system_code '2'
_symmetry_cell_setting 'tetragonal'
loop_
_space_group_symop_operation_xyz
x,y,z
1/2-y,x,1/2+z
1/2-x,1/2-y,z
y,1/2-x,1/2+z
1/2+x,-y,1/2-z
-x,1/2+y,1/2-z
1/2+y,1/2+x,-z
-y,-x,-z
-x,-y,-z
1/2+y,-x,1/2-z
1/2+x,1/2+y,-z
-y,1/2+x,1/2-z
1/2-x,y,1/2+z
x,1/2-y,1/2+z
1/2-y,1/2-x,z
y,x,z
loop_
_atom_site_type_symbol
_atom_site_label
_atom_site_fract_x
_atom_site_fract_y
_atom_site_fract_z
Si Si1 0.824763 0.824763 0.203701
Si Si2 0.002631 0.497369 0.189049
Si Si3 0.639311 0.860690 0.365272
Si Si4 0.162553 0.628035 0.312377
O O1 0.750000 0.750000 0.116596
O O2 0.749508 0.880975 0.313870
O O3 0.872753 0.872753 0.052929
O O4 0.105034 0.537265 0.245850
O O5 0.928541 0.571459 0.266732
O O6 0.000000 0.500000 0.000000
O O7 0.142112 0.642112 0.500000
O O8 0.125306 0.723913 0.221639
#
# Coordination Sequence:
#
# PCOD9571109 Si02
#       4
#     8   8   8  16
#     4   8  14  34  54  83 118 168 203 243 325 387
#     4  12  26  42  65 103 135 173 229 287 335 404
#     4   9  18  33  56  87 126 163 208 260 320 393
#     4  11  24  48  74 100 136 186 233 287 350 418
#
# _framework density 24.512646
#
# number of rings (size 3 to 8) (size 9 to 14) (size 15 to 20)
#    1.200    0.400    2.000    5.400    0.000    6.400 
#    0.000    8.000    0.000    0.000    0.000    0.000 
#    0.000    0.000    0.000    0.000    0.000    0.000 
#
# Total GULP energy -223697.155977 kJ/mol
# GULP energy per Si atom -5592.428899 kJ/mol
# Density = 2.445685 g / cm^3
# Si number density = 24.512646 Si / 1000 Ang^3
#
#
#
# Elastic Constant Matrix: (Units=GPa)
#
#
# Indices 1 2 3 4 5 6 
#
# 1 81.0530 107.4591 50.1190 0.0000 0.0000 0.0000
# 2 107.4591 81.0530 50.1190 0.0000 0.0000 0.0000
# 3 50.1190 50.1190 197.8830 0.0000 0.0000 0.0000
# 4 0.0000 0.0000 0.0000 41.3311 0.0000 0.0000
# 5 0.0000 0.0000 0.0000 0.0000 41.3311 0.0000
# 6 0.0000 0.0000 0.0000 0.0000 0.0000 65.6001
#
#
#
# Elastic Compliance Matrix: (Units=1/GPa)
#
#
# Indices 1 2 3 4 5 6 
#
# 1 -0.015870 0.022000 -0.001553 0.000000 0.000000 0.000000
# 2 0.022000 -0.015870 -0.001553 0.000000 0.000000 0.000000
# 3 -0.001553 -0.001553 0.005840 0.000000 0.000000 0.000000
# 4 0.000000 0.000000 0.000000 0.024195 0.000000 0.000000
# 5 0.000000 0.000000 0.000000 0.000000 0.024195 0.000000
# 6 0.000000 0.000000 0.000000 0.000000 0.000000 0.015244
#
#
# Mechanical properties :
#
#
# Convention : Reuss Voigt Hill
#
# Bulk Modulus (GPa) = 84.10455 86.15366 85.12910
# Shear Modulus (GPa) = 1279.58168 39.80527 659.69347
#
# Velocity S-wave (km/s) = 22.87230 4.03409 16.42279
# Velocity P-wave (km/s) = 27.05380 7.54463 19.85988
#
# Compressibility (1/GPa) = 0.01188996
#
# Stress axis : x y z
#
# Youngs Moduli (GPa) = -63.01260 -63.01260 171.23316
#
# Poissons Ratio (x) = 1.38629 0.26587
# Poissons Ratio (y) = 1.38629 0.26587
# Poissons Ratio (z) = -0.09784 -0.09784
#
# Static dielectric constant tensor:
#      x y z
#    x 2.015650 0.000000 0.000000 
#    y 0.000000 2.015650 0.000000 
#    z 0.000000 0.000000 2.019040 
# 
# From -- ./inp_files/897.got.cif
#   From: 2010.05.17/outbox.cif.g08.bks.cpg/sg138_1_cif.got.tgz:897.got - 2010.05.20 13:08:53.
