data_PCOD9571064
_publ_section_title
;
Structure prediction by ZEFSAII (Michael W. Deem and Ramdas Pophale) SiO2 
 PCOD9571064
Probable space group: P 42/N C M
;
_chemical_formula_sum "Si O2"
_cell_formula_units_Z 112
_cell_length_a 24.832417
_cell_length_b 24.832417
_cell_length_c 10.876895
_cell_angle_alpha 90.000000
_cell_angle_beta 90.000000
_cell_angle_gamma 90.000000
_cell_volume 6707.225708
_symmetry_space_group_name_H-M "P 42/N C M"
_symmetry_group_IT_number 138
_space_group.IT_coordinate_system_code '2'
_symmetry_cell_setting 'tetragonal'
loop_
_space_group_symop_operation_xyz
x,y,z
1/2-y,x,1/2+z
1/2-x,1/2-y,z
y,1/2-x,1/2+z
1/2+x,-y,1/2-z
-x,1/2+y,1/2-z
1/2+y,1/2+x,-z
-y,-x,-z
-x,-y,-z
1/2+y,-x,1/2-z
1/2+x,1/2+y,-z
-y,1/2+x,1/2-z
1/2-x,y,1/2+z
x,1/2-y,1/2+z
1/2-y,1/2-x,z
y,x,z
loop_
_atom_site_type_symbol
_atom_site_label
_atom_site_fract_x
_atom_site_fract_y
_atom_site_fract_z
Si Si1 0.659972 0.234603 0.921193
Si Si2 0.958539 0.229850 0.982398
Si Si3 0.945129 0.116460 0.086700
Si Si4 0.901352 0.508551 0.891841
Si Si5 0.472433 0.704427 0.282344
Si Si6 0.352803 0.663422 0.223234
Si Si7 0.991559 0.081358 0.337613
O O1 0.643281 0.187379 0.827188
O O2 0.676974 0.288166 0.848147
O O3 0.706202 0.206202 0.000000
O O4 0.604878 0.253707 0.985625
O O5 0.964280 0.166435 0.006640
O O6 0.983262 0.260730 0.096925
O O7 0.980302 0.237092 0.844204
O O8 0.885793 0.132029 0.136555
O O9 0.980566 0.109376 0.208365
O O10 0.935472 0.064529 0.000000
O O11 0.937613 0.562387 0.884624
O O12 0.850549 0.505395 0.802442
O O13 0.941312 0.459355 0.857817
O O14 0.885566 0.497794 0.035235
O O15 0.409020 0.686900 0.275049
O O16 0.043947 0.043947 0.329524
#
# Coordination Sequence:
#
# PCOD9571064 Si02
#       7
#    16  16  16  16  16  16  16
#     4  11  23  38  45  58  82 120 174 219 271 318
#     4  11  24  37  51  72  96 132 179 210 268 325
#     4  12  20  35  49  66 102 130 167 224 263 315
#     4   9  18  34  55  79  99 124 168 214 265 327
#     4  11  21  37  54  77  97 132 171 213 267 317
#     4  11  23  35  46  65  85 125 170 226 279 309
#     4   9  19  32  53  79  98 125 165 212 271 326
#
# _framework density 16.698409999999999
#
# number of rings (size 3 to 8) (size 9 to 14) (size 15 to 20)
#    0.000    1.429    5.714    2.571    4.000    0.571 
#    2.571    0.714    0.000    0.000    0.000    0.000 
#    0.000    0.000    0.000    0.000    0.000    5.714 
#
# Total GULP energy -624973.544087 kJ/mol
# GULP energy per Si atom -5580.120929 kJ/mol
# Density = 1.666040 g / cm^3
# Si number density = 16.698410 Si / 1000 Ang^3
#
#
#
# Elastic Constant Matrix: (Units=GPa)
#
#
# Indices 1 2 3 4 5 6 
#
# 1 19.6704 14.1638 24.4140 0.0000 0.0000 0.0000
# 2 14.1638 19.6703 24.4133 0.0000 0.0000 0.0000
# 3 24.4140 24.4133 97.1770 0.0000 0.0000 0.0000
# 4 0.0000 0.0000 0.0000 25.2268 0.0000 0.0000
# 5 0.0000 0.0000 0.0000 0.0000 25.2266 0.0000
# 6 0.0000 0.0000 0.0000 0.0000 0.0000 16.9414
#
#
#
# Elastic Compliance Matrix: (Units=1/GPa)
#
#
# Indices 1 2 3 4 5 6 
#
# 1 0.113984 -0.067617 -0.011650 0.000000 0.000000 0.000000
# 2 -0.067617 0.113983 -0.011648 0.000000 0.000000 0.000000
# 3 -0.011650 -0.011648 0.016143 0.000000 0.000000 0.000000
# 4 0.000000 0.000000 0.000000 0.039640 0.000000 0.000000
# 5 0.000000 0.000000 0.000000 0.000000 0.039641 0.000000
# 6 0.000000 0.000000 0.000000 0.000000 0.000000 0.059027
#
#
# Mechanical properties :
#
#
# Convention : Reuss Voigt Hill
#
# Bulk Modulus (GPa) = 16.05599 29.16665 22.61132
# Shear Modulus (GPa) = 8.54690 18.38074 13.46382
#
# Velocity S-wave (km/s) = 2.26484 3.32135 2.84261
# Velocity P-wave (km/s) = 4.05900 5.67566 4.93400
#
# Compressibility (1/GPa) = 0.06228206
#
# Stress axis : x y z
#
# Youngs Moduli (GPa) = 8.77314 8.77327 61.94477
#
# Poissons Ratio (x) = 0.59322 0.72163
# Poissons Ratio (y) = 0.59321 0.72151
# Poissons Ratio (z) = 0.10220 0.10219
#
# Static dielectric constant tensor:
#      x y z
#    x 1.558740 0.000000 0.000000 
#    y 0.000000 1.558740 0.000000 
#    z 0.000000 0.000000 1.658930 
# 
# From -- ./inp_files/3309.got.cif
#   From: 2010.05.17/outbox.cif.g08.bks.cpg/sg138_2_cif.got.tgz:3309.got - 2010.05.20 13:08:53.
