data_PCOD9571369
_publ_section_title
;
Structure prediction by ZEFSAII (Michael W. Deem and Ramdas Pophale) SiO2 
 PCOD9571369
Probable space group: I 4/M M M
;
_chemical_formula_sum "Si O2"
_cell_formula_units_Z 168
_cell_length_a 24.458026
_cell_length_b 24.458026
_cell_length_c 14.256546
_cell_angle_alpha 90.000000
_cell_angle_beta 90.000000
_cell_angle_gamma 90.000000
_cell_volume 8528.195045
_symmetry_space_group_name_H-M "I 4/M M M"
_symmetry_group_IT_number 139
_symmetry_cell_setting 'tetragonal'
loop_
_space_group_symop_operation_xyz
x,y,z
-y,x,z
-x,-y,z
y,-x,z
x,-y,-z
-x,y,-z
y,x,-z
-y,-x,-z
-x,-y,-z
y,-x,-z
x,y,-z
-y,x,-z
-x,y,z
x,-y,z
-y,-x,z
y,x,z
1/2+x,1/2+y,1/2+z
1/2-y,1/2+x,1/2+z
1/2-x,1/2-y,1/2+z
1/2+y,1/2-x,1/2+z
1/2+x,1/2-y,1/2-z
1/2-x,1/2+y,1/2-z
1/2+y,1/2+x,1/2-z
1/2-y,1/2-x,1/2-z
1/2-x,1/2-y,1/2-z
1/2+y,1/2-x,1/2-z
1/2+x,1/2+y,1/2-z
1/2-y,1/2+x,1/2-z
1/2-x,1/2+y,1/2+z
1/2+x,1/2-y,1/2+z
1/2-y,1/2-x,1/2+z
1/2+y,1/2+x,1/2+z
loop_
_atom_site_type_symbol
_atom_site_label
_atom_site_fract_x
_atom_site_fract_y
_atom_site_fract_z
Si Si1 0.500000 0.672386 0.681047
Si Si2 0.299724 0.936349 0.386526
Si Si3 0.360830 0.892424 0.104636
Si Si4 0.500000 0.201193 0.614285
Si Si5 0.108531 0.195369 0.279398
Si Si6 0.182766 0.733923 0.155147
Si Si7 0.906869 0.000000 0.000000
O O1 0.500000 0.736526 0.649783
O O2 0.554103 0.665623 0.743909
O O3 0.500000 0.632293 0.591670
O O4 0.299510 0.931633 0.500000
O O5 0.356366 0.909093 0.351232
O O6 0.246123 0.906881 0.345815
O O7 0.297035 0.000000 0.361601
O O8 0.312655 0.847551 0.099510
O O9 0.332301 0.946262 0.145400
O O10 0.379193 0.908477 0.000000
O O11 0.500000 0.204168 0.500000
O O12 0.152832 0.152832 0.319581
O O13 0.137374 0.223013 0.189154
O O14 0.232492 0.767509 0.110852
O O15 0.206585 0.706585 0.250000
O O16 0.946953 0.053048 0.000000
#
# Coordination Sequence:
#
# PCOD9571369 Si02
#       7
#    16  32  32  16  32  32   8
#     4  12  21  38  61  87 117 154 192 234 283 341
#     4  10  21  38  58  81 111 149 194 242 294 348
#     4  10  20  34  53  77 108 150 194 235 286 348
#     4  10  20  35  53  79 113 150 191 236 283 340
#     4  11  22  35  57  86 113 147 190 235 288 348
#     4  10  19  31  48  76 111 140 175 227 285 345
#     4  11  26  46  64  86 122 164 203 244 282 328
#
# _framework density 19.699361
#
# number of rings (size 3 to 8) (size 9 to 14) (size 15 to 20)
#    0.000    1.571    5.238    0.571    0.000    0.762 
#    0.000    2.381    0.000    2.857    0.000    0.000 
#    0.000    1.524    0.000    0.000    0.000    0.095 
#
# Total GULP energy -468660.916561 kJ/mol
# GULP energy per Si atom -5579.296626 kJ/mol
# Density = 1.965452 g / cm^3
# Si number density = 19.699361 Si / 1000 Ang^3
#
#
#
# Elastic Constant Matrix: (Units=GPa)
#
#
# Indices 1 2 3 4 5 6 
#
# 1 114.0989 72.4469 20.9477 0.0000 0.0000 0.0000
# 2 72.4469 114.0986 20.9476 0.0000 0.0000 0.0000
# 3 20.9477 20.9476 48.3057 0.0000 0.0000 0.0000
# 4 0.0000 0.0000 0.0000 7.8003 0.0000 0.0000
# 5 0.0000 0.0000 0.0000 0.0000 7.7996 0.0000
# 6 0.0000 0.0000 0.0000 0.0000 0.0000 32.0202
#
#
#
# Elastic Compliance Matrix: (Units=1/GPa)
#
#
# Indices 1 2 3 4 5 6 
#
# 1 0.014974 -0.009035 -0.002575 0.000000 0.000000 0.000000
# 2 -0.009035 0.014974 -0.002575 0.000000 0.000000 0.000000
# 3 -0.002575 -0.002575 0.022935 0.000000 0.000000 0.000000
# 4 0.000000 0.000000 0.000000 0.128201 0.000000 0.000000
# 5 0.000000 0.000000 0.000000 0.000000 0.128212 0.000000
# 6 0.000000 0.000000 0.000000 0.000000 0.000000 0.031230
#
#
# Mechanical properties :
#
#
# Convention : Reuss Voigt Hill
#
# Bulk Modulus (GPa) = 40.79727 56.13195 48.46461
# Shear Modulus (GPa) = 13.26023 20.33475 16.79749
#
# Velocity S-wave (km/s) = 2.59729 3.21636 2.92326
# Velocity P-wave (km/s) = 5.45431 6.50764 6.00412
#
# Compressibility (1/GPa) = 0.02451144
#
# Stress axis : x y z
#
# Youngs Moduli (GPa) = 66.78358 66.78337 43.60113
#
# Poissons Ratio (x) = 0.60337 0.11229
# Poissons Ratio (y) = 0.60337 0.11229
# Poissons Ratio (z) = 0.17200 0.17200
#
# Static dielectric constant tensor:
#      x y z
#    x 1.703320 0.000000 0.000000 
#    y 0.000000 1.703320 0.000000 
#    z 0.000000 0.000000 1.752070 
# 
# From -- ./inp_files/6155.got.cif
#   From: 2010.05.17/outbox.cif.g08.bks.cpg/sg139_4_cif.got.tgz:6155.got - 2010.05.20 13:14:44.
