data_PCOD9571663
_publ_section_title
;
Structure prediction by ZEFSAII (Michael W. Deem and Ramdas Pophale) SiO2 
 PCOD9571663
Probable space group: I 4/M M M
;
_chemical_formula_sum "Si O2"
_cell_formula_units_Z 240
_cell_length_a 30.136523
_cell_length_b 30.136523
_cell_length_c 14.460106
_cell_angle_alpha 90.000000
_cell_angle_beta 90.000000
_cell_angle_gamma 90.000000
_cell_volume 13132.813138
_symmetry_space_group_name_H-M "I 4/M M M"
_symmetry_group_IT_number 139
_symmetry_cell_setting 'tetragonal'
loop_
_space_group_symop_operation_xyz
x,y,z
-y,x,z
-x,-y,z
y,-x,z
x,-y,-z
-x,y,-z
y,x,-z
-y,-x,-z
-x,-y,-z
y,-x,-z
x,y,-z
-y,x,-z
-x,y,z
x,-y,z
-y,-x,z
y,x,z
1/2+x,1/2+y,1/2+z
1/2-y,1/2+x,1/2+z
1/2-x,1/2-y,1/2+z
1/2+y,1/2-x,1/2+z
1/2+x,1/2-y,1/2-z
1/2-x,1/2+y,1/2-z
1/2+y,1/2+x,1/2-z
1/2-y,1/2-x,1/2-z
1/2-x,1/2-y,1/2-z
1/2+y,1/2-x,1/2-z
1/2+x,1/2+y,1/2-z
1/2-y,1/2+x,1/2-z
1/2-x,1/2+y,1/2+z
1/2+x,1/2-y,1/2+z
1/2-y,1/2-x,1/2+z
1/2+y,1/2+x,1/2+z
loop_
_atom_site_type_symbol
_atom_site_label
_atom_site_fract_x
_atom_site_fract_y
_atom_site_fract_z
Si Si1 0.447740 0.870151 0.391407
Si Si2 0.607060 0.210862 0.691342
Si Si3 0.625687 0.228418 0.898614
Si Si4 0.904006 0.169797 0.604469
Si Si5 0.789275 0.053029 0.893302
Si Si6 0.948664 0.448664 0.250000
Si Si7 0.448168 0.374058 0.722833
Si Si8 0.792738 0.723425 0.142070
O O1 0.439576 0.876591 0.500000
O O2 0.500000 0.857796 0.380460
O O3 0.416701 0.831546 0.352264
O O4 0.440186 0.914764 0.333169
O O5 0.613392 0.204366 0.802107
O O6 0.577013 0.253585 0.670743
O O7 0.654066 0.220751 0.641182
O O8 0.608199 0.278610 0.887415
O O9 0.679061 0.227313 0.901660
O O10 0.609856 0.211580 0.000000
O O11 0.920657 0.161987 0.500000
O O12 0.859168 0.140833 0.615782
O O13 0.937191 0.152095 0.682074
O O14 0.838763 0.062699 0.857705
O O15 0.783101 0.000000 0.886792
O O16 0.782819 0.066145 0.000000
O O17 0.943070 0.500000 0.220818
O O18 0.500000 0.385403 0.718420
O O19 0.416506 0.416506 0.717997
O O20 0.767983 0.767983 0.109368
O O21 0.781765 0.718236 0.250000
#
# Coordination Sequence:
#
# PCOD9571663 Si02
#       8
#    32  32  32  32  32  16  32  32
#     4  10  22  40  63  89 119 157 196 235 288 352
#     4  11  21  36  58  87 117 154 197 241 283 335
#     4  10  20  34  53  80 115 155 192 231 281 334
#     4   9  17  32  56  82 108 144 188 228 274 340
#     4  10  21  38  59  81 108 144 186 235 288 340
#     4   9  20  40  66  96 125 152 192 246 293 336
#     4  10  21  37  57  82 111 143 184 237 295 356
#     4   9  20  35  51  76 112 153 194 236 278 324
#
# _framework density 18.274836000000001
#
# number of rings (size 3 to 8) (size 9 to 14) (size 15 to 20)
#    0.000    2.200    1.333    1.200    2.800    4.933 
#    0.000    1.333    0.000    2.400    0.000    3.733 
#    0.000    0.000    0.000    0.000    0.000    0.000 
#
# Total GULP energy -669176.240821 kJ/mol
# GULP energy per Si atom -5576.468674 kJ/mol
# Density = 1.823324 g / cm^3
# Si number density = 18.274836 Si / 1000 Ang^3
#
#
#
# Elastic Constant Matrix: (Units=GPa)
#
#
# Indices 1 2 3 4 5 6 
#
# 1 84.8208 69.2903 48.4134 0.0000 0.0000 0.0000
# 2 69.2903 84.8207 48.4135 0.0000 0.0000 0.0000
# 3 48.4134 48.4135 119.2839 0.0000 0.0000 0.0000
# 4 0.0000 0.0000 0.0000 1.9213 0.0000 0.0000
# 5 0.0000 0.0000 0.0000 0.0000 1.9224 0.0000
# 6 0.0000 0.0000 0.0000 0.0000 0.0000 18.1782
#
#
#
# Elastic Compliance Matrix: (Units=1/GPa)
#
#
# Indices 1 2 3 4 5 6 
#
# 1 0.036550 -0.027840 -0.003535 0.000000 0.000000 0.000000
# 2 -0.027840 0.036550 -0.003535 0.000000 0.000000 0.000000
# 3 -0.003535 -0.003535 0.011253 0.000000 0.000000 0.000000
# 4 0.000000 0.000000 0.000000 0.520471 0.000000 0.000000
# 5 0.000000 0.000000 0.000000 0.000000 0.520182 0.000000
# 6 0.000000 0.000000 0.000000 0.000000 0.000000 0.055011
#
#
# Mechanical properties :
#
#
# Convention : Reuss Voigt Hill
#
# Bulk Modulus (GPa) = 68.81166 69.01776 68.91471
# Shear Modulus (GPa) = 3.98508 12.59161 8.28834
#
# Velocity S-wave (km/s) = 1.47830 2.62775 2.13195
# Velocity P-wave (km/s) = 6.37568 6.85969 6.62211
#
# Compressibility (1/GPa) = 0.01453242
#
# Stress axis : x y z
#
# Youngs Moduli (GPa) = 27.36003 27.35996 88.86605
#
# Poissons Ratio (x) = 0.76170 0.31414
# Poissons Ratio (y) = 0.76170 0.31415
# Poissons Ratio (z) = 0.09672 0.09672
#
# Static dielectric constant tensor:
#      x y z
#    x 1.615060 0.000000 0.000000 
#    y 0.000000 1.615060 0.000000 
#    z 0.000000 0.000000 1.665310 
# 
# From -- ./inp_files/6785.got.cif
#   From: 2010.05.17/outbox.cif.g08.bks.cpg/sg139_4_cif.got.tgz:6785.got - 2010.05.20 13:14:44.
