data_PCOD9571465
_publ_section_title
;
Structure prediction by ZEFSAII (Michael W. Deem and Ramdas Pophale) SiO2 
 PCOD9571465
Probable space group: I 4/M M M
;
_chemical_formula_sum "Si O2"
_cell_formula_units_Z 176
_cell_length_a 18.790878
_cell_length_b 18.790878
_cell_length_c 27.656927
_cell_angle_alpha 90.000000
_cell_angle_beta 90.000000
_cell_angle_gamma 90.000000
_cell_volume 9765.580608
_symmetry_space_group_name_H-M "I 4/M M M"
_symmetry_group_IT_number 139
_symmetry_cell_setting 'tetragonal'
loop_
_space_group_symop_operation_xyz
x,y,z
-y,x,z
-x,-y,z
y,-x,z
x,-y,-z
-x,y,-z
y,x,-z
-y,-x,-z
-x,-y,-z
y,-x,-z
x,y,-z
-y,x,-z
-x,y,z
x,-y,z
-y,-x,z
y,x,z
1/2+x,1/2+y,1/2+z
1/2-y,1/2+x,1/2+z
1/2-x,1/2-y,1/2+z
1/2+y,1/2-x,1/2+z
1/2+x,1/2-y,1/2-z
1/2-x,1/2+y,1/2-z
1/2+y,1/2+x,1/2-z
1/2-y,1/2-x,1/2-z
1/2-x,1/2-y,1/2-z
1/2+y,1/2-x,1/2-z
1/2+x,1/2+y,1/2-z
1/2-y,1/2+x,1/2-z
1/2-x,1/2+y,1/2+z
1/2+x,1/2-y,1/2+z
1/2-y,1/2-x,1/2+z
1/2+y,1/2+x,1/2+z
loop_
_atom_site_type_symbol
_atom_site_label
_atom_site_fract_x
_atom_site_fract_y
_atom_site_fract_z
Si Si1 0.581049 0.783331 0.943492
Si Si2 0.801906 0.081923 0.649984
Si Si3 0.695166 0.583791 0.500000
Si Si4 0.774108 0.342372 0.589236
Si Si5 0.303372 0.917291 0.267595
Si Si6 0.917008 0.201562 0.822867
O O1 0.500000 0.811797 0.938763
O O2 0.585160 0.717244 0.906672
O O3 0.644044 0.834173 0.925377
O O4 0.592649 0.766056 0.000000
O O5 0.864906 0.135095 0.661961
O O6 0.731328 0.101539 0.680682
O O7 0.818605 0.000000 0.662624
O O8 0.696131 0.500000 0.500000
O O9 0.616333 0.616333 0.500000
O O10 0.734755 0.615192 0.453351
O O11 0.735061 0.264940 0.592037
O O12 0.756245 0.383571 0.638327
O O13 0.365331 0.865331 0.250000
O O14 0.238992 0.911646 0.229170
O O15 0.326550 0.000000 0.268823
O O16 0.869134 0.130867 0.825019
O O17 0.000000 0.188198 0.833458
#
# Coordination Sequence:
#
# PCOD9571465 Si02
#       6
#    32  32  16  32  32  32
#     4  10  20  34  54  80 108 138 178 231 279 323
#     4  10  21  35  53  79 110 144 182 225 273 325
#     4  10  20  33  51  75 103 135 172 214 260 312
#     4  10  19  33  54  78 104 139 180 220 265 318
#     4  10  21  37  56  81 112 144 181 225 269 319
#     4  10  21  36  56  82 111 144 182 224 270 319
#
# _framework density 18.022483000000001
#
# number of rings (size 3 to 8) (size 9 to 14) (size 15 to 20)
#    0.000    2.000    0.909    2.727    0.000    4.636 
#    0.000    0.000    0.000   10.364    0.000    2.545 
#    0.000    0.000    0.000    0.000    0.000    0.000 
#
# Total GULP energy -490959.069283 kJ/mol
# GULP energy per Si atom -5579.080333 kJ/mol
# Density = 1.798146 g / cm^3
# Si number density = 18.022483 Si / 1000 Ang^3
#
#
#
# Elastic Constant Matrix: (Units=GPa)
#
#
# Indices 1 2 3 4 5 6 
#
# 1 112.5487 68.0185 29.2889 0.0000 0.0000 0.0000
# 2 68.0185 112.5487 29.2889 0.0000 0.0000 0.0000
# 3 29.2889 29.2889 98.3504 0.0000 0.0000 0.0000
# 4 0.0000 0.0000 0.0000 20.8234 0.0000 0.0000
# 5 0.0000 0.0000 0.0000 0.0000 20.8234 0.0000
# 6 0.0000 0.0000 0.0000 0.0000 0.0000 13.6639
#
#
#
# Elastic Compliance Matrix: (Units=1/GPa)
#
#
# Indices 1 2 3 4 5 6 
#
# 1 0.014294 -0.008163 -0.001826 0.000000 0.000000 0.000000
# 2 -0.008163 0.014294 -0.001826 0.000000 0.000000 0.000000
# 3 -0.001826 -0.001826 0.011255 0.000000 0.000000 0.000000
# 4 0.000000 0.000000 0.000000 0.048023 0.000000 0.000000
# 5 0.000000 0.000000 0.000000 0.000000 0.048023 0.000000
# 6 0.000000 0.000000 0.000000 0.000000 0.000000 0.073185
#
#
# Mechanical properties :
#
#
# Convention : Reuss Voigt Hill
#
# Bulk Modulus (GPa) = 61.67784 64.07113 62.87448
# Shear Modulus (GPa) = 20.99900 24.18558 22.59229
#
# Velocity S-wave (km/s) = 3.41714 3.66726 3.54441
# Velocity P-wave (km/s) = 7.06160 7.31844 7.19117
#
# Compressibility (1/GPa) = 0.01621328
#
# Stress axis : x y z
#
# Youngs Moduli (GPa) = 69.96182 69.96182 88.84878
#
# Poissons Ratio (x) = 0.57111 0.16220
# Poissons Ratio (y) = 0.57111 0.16220
# Poissons Ratio (z) = 0.12772 0.12772
#
# Static dielectric constant tensor:
#      x y z
#    x 1.600350 0.000000 0.000000 
#    y 0.000000 1.600350 0.000000 
#    z 0.000000 0.000000 1.651460 
# 
# From -- ./inp_files/13134.got.cif
#   From: 2010.05.17/outbox.cif.g08.bks.cpg/sg139_7_cif.got.tgz:13134.got - 2010.05.20 13:14:44.
