data_PCOD9571354
_publ_section_title
;
Structure prediction by ZEFSAII (Michael W. Deem and Ramdas Pophale) SiO2 
 PCOD9571354
Probable space group: I 4/M M M
;
_chemical_formula_sum "Si O2"
_cell_formula_units_Z 128
_cell_length_a 29.306581
_cell_length_b 29.306581
_cell_length_c 7.234116
_cell_angle_alpha 90.000000
_cell_angle_beta 90.000000
_cell_angle_gamma 90.000000
_cell_volume 6213.206370
_symmetry_space_group_name_H-M "I 4/M M M"
_symmetry_group_IT_number 139
_symmetry_cell_setting 'tetragonal'
loop_
_space_group_symop_operation_xyz
x,y,z
-y,x,z
-x,-y,z
y,-x,z
x,-y,-z
-x,y,-z
y,x,-z
-y,-x,-z
-x,-y,-z
y,-x,-z
x,y,-z
-y,x,-z
-x,y,z
x,-y,z
-y,-x,z
y,x,z
1/2+x,1/2+y,1/2+z
1/2-y,1/2+x,1/2+z
1/2-x,1/2-y,1/2+z
1/2+y,1/2-x,1/2+z
1/2+x,1/2-y,1/2-z
1/2-x,1/2+y,1/2-z
1/2+y,1/2+x,1/2-z
1/2-y,1/2-x,1/2-z
1/2-x,1/2-y,1/2-z
1/2+y,1/2-x,1/2-z
1/2+x,1/2+y,1/2-z
1/2-y,1/2+x,1/2-z
1/2-x,1/2+y,1/2+z
1/2+x,1/2-y,1/2+z
1/2-y,1/2-x,1/2+z
1/2+y,1/2+x,1/2+z
loop_
_atom_site_type_symbol
_atom_site_label
_atom_site_fract_x
_atom_site_fract_y
_atom_site_fract_z
Si Si1 0.806154 0.500000 0.276163
Si Si2 0.239447 0.167517 0.222869
Si Si3 0.799808 0.000000 0.225168
Si Si4 0.176579 0.395949 0.280897
Si Si5 0.661715 0.593549 0.723455
O O1 0.811780 0.500000 0.500000
O O2 0.752957 0.500000 0.226946
O O3 0.822539 0.551060 0.214581
O O4 0.215276 0.215276 0.287674
O O5 0.285670 0.141671 0.289099
O O6 0.201270 0.129653 0.264033
O O7 0.244050 0.172673 0.000000
O O8 0.824448 0.044826 0.292068
O O9 0.800580 0.000000 0.000000
O O10 0.186185 0.399101 0.500000
O O11 0.128066 0.371934 0.250000
O O12 0.660239 0.591279 0.500000
O O13 0.614486 0.614486 0.787939
#
# Coordination Sequence:
#
# PCOD9571354 Si02
#       5
#    16  32  16  32  32
#     4   9  16  28  45  64  83 107 141 178 209 246
#     4   8  13  22  37  59  87 114 139 169 205 247
#     4   9  12  18  34  52  72 103 141 178 211 242
#     4  10  19  31  47  67  90 115 143 176 216 255
#     4   8  12  17  28  49  75 102 135 175 213 245
#
# _framework density 20.601279000000002
#
# number of rings (size 3 to 8) (size 9 to 14) (size 15 to 20)
#    0.000    3.250    2.500    1.500    0.000    0.500 
#    0.000    0.625    0.000    0.750    0.000    5.250 
#    0.000    0.000    0.000    0.000    0.000    0.000 
#
# Total GULP energy -356276.213782 kJ/mol
# GULP energy per Si atom -5566.815840 kJ/mol
# Density = 2.055439 g / cm^3
# Si number density = 20.601279 Si / 1000 Ang^3
#
#
#
# Elastic Constant Matrix: (Units=GPa)
#
#
# Indices 1 2 3 4 5 6 
#
# 1 152.7636 129.8965 2.5836 0.0000 0.0000 0.0000
# 2 129.8965 152.7544 2.5867 0.0000 0.0000 0.0000
# 3 2.5836 2.5867 93.2211 0.0000 0.0000 0.0000
# 4 0.0000 0.0000 0.0000 -29.4455 0.0000 0.0000
# 5 0.0000 0.0000 0.0000 0.0000 -29.4387 0.0000
# 6 0.0000 0.0000 0.0000 0.0000 0.0000 31.6829
#
#
#
# Elastic Compliance Matrix: (Units=1/GPa)
#
#
# Indices 1 2 3 4 5 6 
#
# 1 0.023639 -0.020100 -0.000097 0.000000 0.000000 0.000000
# 2 -0.020100 0.023640 -0.000099 0.000000 0.000000 0.000000
# 3 -0.000097 -0.000099 0.010733 0.000000 0.000000 0.000000
# 4 0.000000 0.000000 0.000000 -0.033961 0.000000 0.000000
# 5 0.000000 0.000000 0.000000 0.000000 -0.033969 0.000000
# 6 0.000000 0.000000 0.000000 0.000000 0.000000 0.031563
#
#
# Mechanical properties :
#
#
# Convention : Reuss Voigt Hill
#
# Bulk Modulus (GPa) = 57.40749 74.31919 65.86334
# Shear Modulus (GPa) = 73.48201 12.13791 42.80996
#
# Velocity S-wave (km/s) = 5.97880 2.42994 4.56348
# Velocity P-wave (km/s) = 8.69413 6.63522 7.73350
#
# Compressibility (1/GPa) = 0.01741933
#
# Stress axis : x y z
#
# Youngs Moduli (GPa) = 42.30305 42.30045 93.17382
#
# Poissons Ratio (x) = 0.85024 0.00908
# Poissons Ratio (y) = 0.85029 0.00922
# Poissons Ratio (z) = 0.00412 0.00418
#
# Static dielectric constant tensor:
#      x y z
#    x 1.730920 0.000000 0.000000 
#    y 0.000000 1.730920 0.000000 
#    z 0.000000 0.000000 2.076730 
# 
# From -- ./inp_files/3458.got.cif
#   From: 2010.05.17/outbox.cif.g08.bks.cpg/sg139_2_cif.got.tgz:3458.got - 2010.05.20 13:14:44.
