data_PCOD9571416
_publ_section_title
;
Structure prediction by ZEFSAII (Michael W. Deem and Ramdas Pophale) SiO2 
 PCOD9571416
Probable space group: I 4/M M M
;
_chemical_formula_sum "Si O2"
_cell_formula_units_Z 160
_cell_length_a 24.015750
_cell_length_b 24.015750
_cell_length_c 16.464993
_cell_angle_alpha 90.000000
_cell_angle_beta 90.000000
_cell_angle_gamma 90.000000
_cell_volume 9496.287587
_symmetry_space_group_name_H-M "I 4/M M M"
_symmetry_group_IT_number 139
_symmetry_cell_setting 'tetragonal'
loop_
_space_group_symop_operation_xyz
x,y,z
-y,x,z
-x,-y,z
y,-x,z
x,-y,-z
-x,y,-z
y,x,-z
-y,-x,-z
-x,-y,-z
y,-x,-z
x,y,-z
-y,x,-z
-x,y,z
x,-y,z
-y,-x,z
y,x,z
1/2+x,1/2+y,1/2+z
1/2-y,1/2+x,1/2+z
1/2-x,1/2-y,1/2+z
1/2+y,1/2-x,1/2+z
1/2+x,1/2-y,1/2-z
1/2-x,1/2+y,1/2-z
1/2+y,1/2+x,1/2-z
1/2-y,1/2-x,1/2-z
1/2-x,1/2-y,1/2-z
1/2+y,1/2-x,1/2-z
1/2+x,1/2+y,1/2-z
1/2-y,1/2+x,1/2-z
1/2-x,1/2+y,1/2+z
1/2+x,1/2-y,1/2+z
1/2-y,1/2-x,1/2+z
1/2+y,1/2+x,1/2+z
loop_
_atom_site_type_symbol
_atom_site_label
_atom_site_fract_x
_atom_site_fract_y
_atom_site_fract_z
Si Si1 0.934785 0.742983 0.217780
Si Si2 0.624412 0.164015 0.590148
Si Si3 0.563358 0.343894 0.592290
Si Si4 0.436167 0.065553 0.346433
Si Si5 0.763253 0.672564 0.823155
O O1 0.912359 0.694357 0.158801
O O2 0.930064 0.797346 0.160697
O O3 0.890113 0.747070 0.290638
O O4 0.000000 0.734955 0.239858
O O5 0.610077 0.183273 0.500000
O O6 0.607555 0.100062 0.602290
O O7 0.689614 0.172470 0.607806
O O8 0.571219 0.321417 0.500000
O O9 0.500000 0.364947 0.596615
O O10 0.607481 0.392520 0.604047
O O11 0.500000 0.083029 0.364192
O O12 0.426092 0.073909 0.250000
O O13 0.432439 0.000000 0.361432
O O14 0.707581 0.707581 0.842452
O O15 0.794034 0.705967 0.750000
#
# Coordination Sequence:
#
# PCOD9571416 Si02
#       5
#    32  32  32  32  32
#     4  10  19  32  51  71  92 120 156 200 245 285
#     4  11  22  32  46  70  97 124 155 195 243 293
#     4   9  17  28  43  66  95 124 152 182 221 273
#     4   9  18  33  51  69  93 128 166 200 235 280
#     4   9  19  35  51  67  90 124 166 205 241 287
#
# _framework density 16.848689
#
# number of rings (size 3 to 8) (size 9 to 14) (size 15 to 20)
#    0.000    2.400    0.000    4.200    0.000    6.600 
#    0.000    2.000    0.000    0.000    0.000    0.000 
#    0.000    0.000    0.000    0.000    0.000    0.000 
#
# Total GULP energy -445986.898833 kJ/mol
# GULP energy per Si atom -5574.836235 kJ/mol
# Density = 1.681034 g / cm^3
# Si number density = 16.848689 Si / 1000 Ang^3
#
#
#
# Elastic Constant Matrix: (Units=GPa)
#
#
# Indices 1 2 3 4 5 6 
#
# 1 78.0103 46.4642 16.3998 0.0000 0.0000 0.0000
# 2 46.4642 78.0100 16.3995 0.0000 0.0000 0.0000
# 3 16.3998 16.3995 9.8202 0.0000 0.0000 0.0000
# 4 0.0000 0.0000 0.0000 12.3629 0.0000 0.0000
# 5 0.0000 0.0000 0.0000 0.0000 12.3630 0.0000
# 6 0.0000 0.0000 0.0000 0.0000 0.0000 28.0806
#
#
#
# Elastic Compliance Matrix: (Units=1/GPa)
#
#
# Indices 1 2 3 4 5 6 
#
# 1 0.023024 -0.008676 -0.023960 0.000000 0.000000 0.000000
# 2 -0.008676 0.023023 -0.023959 0.000000 0.000000 0.000000
# 3 -0.023960 -0.023959 0.181857 0.000000 0.000000 0.000000
# 4 0.000000 0.000000 0.000000 0.080887 0.000000 0.000000
# 5 0.000000 0.000000 0.000000 0.000000 0.080887 0.000000
# 6 0.000000 0.000000 0.000000 0.000000 0.000000 0.035612
#
#
# Mechanical properties :
#
#
# Convention : Reuss Voigt Hill
#
# Bulk Modulus (GPa) = 8.71749 36.04084 22.37917
# Shear Modulus (GPa) = 8.66974 16.33310 12.50142
#
# Velocity S-wave (km/s) = 2.27086 3.11690 2.72689
# Velocity P-wave (km/s) = 3.47289 5.86436 4.81932
#
# Compressibility (1/GPa) = 0.11471187
#
# Stress axis : x y z
#
# Youngs Moduli (GPa) = 43.43365 43.43395 5.49883
#
# Poissons Ratio (x) = 0.37685 0.13175
# Poissons Ratio (y) = 0.37684 0.13175
# Poissons Ratio (z) = 1.04069 1.04065
#
# Static dielectric constant tensor:
#      x y z
#    x 1.581260 0.000000 0.000000 
#    y 0.000000 1.581260 0.000000 
#    z 0.000000 0.000000 1.561880 
# 
# From -- ./inp_files/5918.got.cif
#   From: 2010.05.17/outbox.cif.g08.bks.cpg/sg139_3_cif.got.tgz:5918.got - 2010.05.20 13:14:44.
