data_PCOD9571136
_publ_section_title
;
Structure prediction by ZEFSAII (Michael W. Deem and Ramdas Pophale) SiO2 
 PCOD9571136
Probable space group: P 42/N C M
;
_chemical_formula_sum "Si O2"
_cell_formula_units_Z 96
_cell_length_a 24.000000
_cell_length_b 24.000000
_cell_length_c 9.000000
_cell_angle_alpha 90.000000
_cell_angle_beta 90.000000
_cell_angle_gamma 90.000000
_cell_volume 5184.000000
_symmetry_space_group_name_H-M "P 42/N C M"
_symmetry_group_IT_number 138
_space_group.IT_coordinate_system_code '2'
_symmetry_cell_setting 'tetragonal'
loop_
_space_group_symop_operation_xyz
x,y,z
1/2-y,x,1/2+z
1/2-x,1/2-y,z
y,1/2-x,1/2+z
1/2+x,-y,1/2-z
-x,1/2+y,1/2-z
1/2+y,1/2+x,-z
-y,-x,-z
-x,-y,-z
1/2+y,-x,1/2-z
1/2+x,1/2+y,-z
-y,1/2+x,1/2-z
1/2-x,y,1/2+z
x,1/2-y,1/2+z
1/2-y,1/2-x,z
y,x,z
loop_
_atom_site_type_symbol
_atom_site_label
_atom_site_fract_x
_atom_site_fract_y
_atom_site_fract_z
Si Si1 0.697627 0.010724 0.529548
Si Si2 0.005566 0.691801 0.195406
Si Si3 0.986680 0.426268 0.867476
Si Si4 0.983827 0.426044 0.360362
Si Si5 0.286309 0.637143 0.903070
Si Si6 0.163700 0.633680 0.846843
O O1 0.751209 0.988553 0.617434
O O2 0.691330 0.986227 0.365153
O O3 0.638231 0.004778 0.609655
O O4 0.711924 0.076723 0.520457
O O5 0.991368 0.635410 0.107158
O O6 0.072615 0.683371 0.203623
O O7 0.936079 0.432956 0.752428
O O8 0.038260 0.461741 0.804259
O O9 0.960594 0.460594 0.000000
O O10 0.957593 0.457593 0.500000
O O11 0.039515 0.460486 0.315230
O O12 0.224838 0.659039 0.876436
O O13 0.323186 0.631619 0.755622
O O14 0.319734 0.680267 0.000000
O O15 0.130401 0.630401 0.000000
#
# Coordination Sequence:
#
# PCOD9571136 Si02
#       6
#    16  16  16  16  16  16
#     4  11  23  35  52  72 101 132 167 206 257 315
#     4  11  23  36  51  73 100 135 166 206 256 316
#     4  10  21  36  57  83 108 137 175 221 269 314
#     4  10  19  35  59  80 101 135 177 220 262 309
#     4  11  21  35  45  60  84 119 161 207 252 294
#     4  11  23  32  47  62  83 119 162 208 255 294
#
# _framework density 18.518519000000001
#
# number of rings (size 3 to 8) (size 9 to 14) (size 15 to 20)
#    0.000    1.333    3.333    3.000    9.333    2.000 
#    0.000    0.000    0.000    0.000    0.000    0.000 
#    0.000    0.667    0.000    3.000    0.000    0.000 
#
# Total GULP energy -534418.556196 kJ/mol
# GULP energy per Si atom -5566.859960 kJ/mol
# Density = 1.847637 g / cm^3
# Si number density = 18.518519 Si / 1000 Ang^3
#
#
#
# Elastic Constant Matrix: (Units=GPa)
#
#
# Indices 1 2 3 4 5 6 
#
# 1 -60.1540 151.2527 5.2069 0.0000 0.0000 0.0000
# 2 151.2527 -60.1654 5.2548 0.0000 0.0000 0.0000
# 3 5.2069 5.2548 48.7648 0.0000 0.0000 0.0000
# 4 0.0000 0.0000 0.0000 17.6987 0.0000 0.0000
# 5 0.0000 0.0000 0.0000 0.0000 17.6984 0.0000
# 6 0.0000 0.0000 0.0000 0.0000 0.0000 -3.0703
#
#
#
# Elastic Compliance Matrix: (Units=1/GPa)
#
#
# Indices 1 2 3 4 5 6 
#
# 1 0.003193 0.007922 -0.001195 0.000000 0.000000 0.000000
# 2 0.007922 0.003192 -0.001190 0.000000 0.000000 0.000000
# 3 -0.001195 -0.001190 0.020762 0.000000 0.000000 0.000000
# 4 0.000000 0.000000 0.000000 0.056501 0.000000 0.000000
# 5 0.000000 0.000000 0.000000 0.000000 0.056502 0.000000
# 6 0.000000 0.000000 0.000000 0.000000 0.000000 -0.325701
#
#
# Mechanical properties :
#
#
# Convention : Reuss Voigt Hill
#
# Bulk Modulus (GPa) = 26.16237 27.98603 27.07420
# Shear Modulus (GPa) = -27.19089 -9.08592 -18.13841
#
# Velocity S-wave (km/s) = -3.83601 -2.21744 -3.13305
# Velocity P-wave (km/s) = 2.33701 2.93073 1.25052
#
# Compressibility (1/GPa) = 0.03822283
#
# Stress axis : x y z
#
# Youngs Moduli (GPa) = 313.19676 313.30859 48.16402
#
# Poissons Ratio (x) = -2.48216 0.05754
# Poissons Ratio (y) = -2.48127 0.05731
# Poissons Ratio (z) = 0.37415 0.37279
#
# Static dielectric constant tensor:
#      x y z
#    x 2.361980 0.000000 0.000000 
#    y 0.000000 2.353970 0.000000 
#    z 0.000000 0.000000 1.691900 
# 
# From -- ./inp_files/1725.got.cif
#   From: 2010.05.17/outbox.ucp.g08.bks.cvg/sg138_1_cif.got.tgz:1725.got - 2010.06.11 11:41:40.
