data_PCOD9571318
_publ_section_title
;
Structure prediction by ZEFSAII (Michael W. Deem and Ramdas Pophale) SiO2 
 PCOD9571318
Probable space group: I 4/M M M
;
_chemical_formula_sum "Si O2"
_cell_formula_units_Z 112
_cell_length_a 14.356107
_cell_length_b 14.356107
_cell_length_c 36.283619
_cell_angle_alpha 90.000000
_cell_angle_beta 90.000000
_cell_angle_gamma 90.000000
_cell_volume 7477.974349
_symmetry_space_group_name_H-M "I 4/M M M"
_symmetry_group_IT_number 139
_symmetry_cell_setting 'tetragonal'
loop_
_space_group_symop_operation_xyz
x,y,z
-y,x,z
-x,-y,z
y,-x,z
x,-y,-z
-x,y,-z
y,x,-z
-y,-x,-z
-x,-y,-z
y,-x,-z
x,y,-z
-y,x,-z
-x,y,z
x,-y,z
-y,-x,z
y,x,z
1/2+x,1/2+y,1/2+z
1/2-y,1/2+x,1/2+z
1/2-x,1/2-y,1/2+z
1/2+y,1/2-x,1/2+z
1/2+x,1/2-y,1/2-z
1/2-x,1/2+y,1/2-z
1/2+y,1/2+x,1/2-z
1/2-y,1/2-x,1/2-z
1/2-x,1/2-y,1/2-z
1/2+y,1/2-x,1/2-z
1/2+x,1/2+y,1/2-z
1/2-y,1/2+x,1/2-z
1/2-x,1/2+y,1/2+z
1/2+x,1/2-y,1/2+z
1/2-y,1/2-x,1/2+z
1/2+y,1/2+x,1/2+z
loop_
_atom_site_type_symbol
_atom_site_label
_atom_site_fract_x
_atom_site_fract_y
_atom_site_fract_z
Si Si1 0.605788 0.887091 0.890339
Si Si2 0.391787 0.891787 0.250000
Si Si3 0.610688 0.764782 0.321517
Si Si4 0.609648 0.763574 0.542697
O O1 0.500000 0.852053 0.887860
O O2 0.670018 0.860336 0.855851
O O3 0.657060 0.862232 0.928375
O O4 0.601102 0.000000 0.889423
O O5 0.500000 0.881084 0.238150
O O6 0.375016 0.823514 0.284100
O O7 0.500000 0.745322 0.324857
O O8 0.672391 0.672391 0.321271
O O9 0.620994 0.792700 0.500000
O O10 0.500000 0.742754 0.548383
O O11 0.672877 0.672877 0.548759
#
# Coordination Sequence:
#
# PCOD9571318 Si02
#       4
#    32  16  32  32
#     4   9  17  29  44  61  82 110 144 181 220 257
#     4   9  17  30  48  68  89 115 148 184 220 253
#     4  10  19  30  45  65  90 118 146 177 213 256
#     4   9  17  28  42  62  89 119 148 177 210 253
#
# _framework density 14.977319
#
# number of rings (size 3 to 8) (size 9 to 14) (size 15 to 20)
#    0.000    2.714    0.000    2.143    0.000    4.571 
#    0.000    4.286    0.000    5.143    0.000    0.000 
#    0.000   25.143    0.000   12.571    0.000    1.143 
#
# Total GULP energy -311942.484295 kJ/mol
# GULP energy per Si atom -5570.401505 kJ/mol
# Density = 1.494323 g / cm^3
# Si number density = 14.977319 Si / 1000 Ang^3
#
#
#
# Elastic Constant Matrix: (Units=GPa)
#
#
# Indices 1 2 3 4 5 6 
#
# 1 81.0742 56.5140 60.5816 0.0000 0.0000 0.0000
# 2 56.5140 81.0742 60.5816 0.0000 0.0000 0.0000
# 3 60.5816 60.5816 96.5826 0.0000 0.0000 0.0000
# 4 0.0000 0.0000 0.0000 19.2032 0.0000 0.0000
# 5 0.0000 0.0000 0.0000 0.0000 19.2032 0.0000
# 6 0.0000 0.0000 0.0000 0.0000 0.0000 17.4185
#
#
#
# Elastic Compliance Matrix: (Units=1/GPa)
#
#
# Indices 1 2 3 4 5 6 
#
# 1 0.028477 -0.012240 -0.010185 0.000000 0.000000 0.000000
# 2 -0.012240 0.028477 -0.010185 0.000000 0.000000 0.000000
# 3 -0.010185 -0.010185 0.023130 0.000000 0.000000 0.000000
# 4 0.000000 0.000000 0.000000 0.052075 0.000000 0.000000
# 5 0.000000 0.000000 0.000000 0.000000 0.052075 0.000000
# 6 0.000000 0.000000 0.000000 0.000000 0.000000 0.057410
#
#
# Mechanical properties :
#
#
# Convention : Reuss Voigt Hill
#
# Bulk Modulus (GPa) = 67.26866 68.23172 67.75019
# Shear Modulus (GPa) = 16.03507 16.56855 16.30181
#
# Velocity S-wave (km/s) = 3.27559 3.32963 3.30272
# Velocity P-wave (km/s) = 7.70176 7.77416 7.73805
#
# Compressibility (1/GPa) = 0.01486576
#
# Stress axis : x y z
#
# Youngs Moduli (GPa) = 35.11653 35.11653 43.23304
#
# Poissons Ratio (x) = 0.42982 0.44031
# Poissons Ratio (y) = 0.42982 0.44031
# Poissons Ratio (z) = 0.35765 0.35765
#
# Static dielectric constant tensor:
#      x y z
#    x 1.477870 0.000000 0.000000 
#    y 0.000000 1.477870 0.000000 
#    z 0.000000 0.000000 1.506830 
# 
# From -- ./inp_files/13726.got.cif
#   From: 2010.05.17/outbox.cif.g08.bks.cpg/sg139_7_cif.got.tgz:13726.got - 2010.05.20 13:14:44.
