data_PCOD9571038
_publ_section_title
;
Structure prediction by ZEFSAII (Michael W. Deem and Ramdas Pophale) SiO2 
 PCOD9571038
Probable space group: P 42/N C M
;
_chemical_formula_sum "Si O2"
_cell_formula_units_Z 48
_cell_length_a 12.143910
_cell_length_b 12.143910
_cell_length_c 14.544155
_cell_angle_alpha 90.000000
_cell_angle_beta 90.000000
_cell_angle_gamma 90.000000
_cell_volume 2144.892715
_symmetry_space_group_name_H-M "P 42/N C M"
_symmetry_group_IT_number 138
_space_group.IT_coordinate_system_code '2'
_symmetry_cell_setting 'tetragonal'
loop_
_space_group_symop_operation_xyz
x,y,z
1/2-y,x,1/2+z
1/2-x,1/2-y,z
y,1/2-x,1/2+z
1/2+x,-y,1/2-z
-x,1/2+y,1/2-z
1/2+y,1/2+x,-z
-y,-x,-z
-x,-y,-z
1/2+y,-x,1/2-z
1/2+x,1/2+y,-z
-y,1/2+x,1/2-z
1/2-x,y,1/2+z
x,1/2-y,1/2+z
1/2-y,1/2-x,z
y,x,z
loop_
_atom_site_type_symbol
_atom_site_label
_atom_site_fract_x
_atom_site_fract_y
_atom_site_fract_z
Si Si1 0.227389 0.619780 0.387104
Si Si2 0.932736 0.753169 0.464696
Si Si3 0.513962 0.163873 0.710501
O O1 0.250000 0.750000 0.101378
O O2 0.100920 0.605379 0.356891
O O3 0.251415 0.541552 0.473122
O O4 0.856837 0.643164 0.476847
O O5 0.855729 0.855729 0.489509
O O6 0.077648 0.795207 0.700669
O O7 0.964190 0.756982 0.356745
O O8 0.417033 0.082968 0.738381
#
# Coordination Sequence:
#
# PCOD9571038 Si02
#       3
#    16  16  16
#     4  12  23  44  66 100 139 178 223 275 338 408
#     4  10  24  45  71 103 135 176 229 281 338 402
#     4  11  23  43  68  96 133 179 226 278 335 395
#
# _framework density 22.378738999999999
#
# number of rings (size 3 to 8) (size 9 to 14) (size 15 to 20)
#    0.000    1.000    3.333    3.000    0.000    9.333 
#    0.000    5.000    0.000    0.000    0.000    0.000 
#    0.000    0.000    0.000    0.000    0.000    0.000 
#
# Total GULP energy -268593.214598 kJ/mol
# GULP energy per Si atom -5595.691971 kJ/mol
# Density = 2.232780 g / cm^3
# Si number density = 22.378739 Si / 1000 Ang^3
#
#
#
# Elastic Constant Matrix: (Units=GPa)
#
#
# Indices 1 2 3 4 5 6 
#
# 1 107.7710 44.1471 71.9408 0.0000 0.0000 0.0000
# 2 44.1471 107.7710 71.9408 0.0000 0.0000 0.0000
# 3 71.9408 71.9408 148.0414 0.0000 0.0000 0.0000
# 4 0.0000 0.0000 0.0000 38.8076 0.0000 0.0000
# 5 0.0000 0.0000 0.0000 0.0000 38.8076 0.0000
# 6 0.0000 0.0000 0.0000 0.0000 0.0000 24.6270
#
#
#
# Elastic Compliance Matrix: (Units=1/GPa)
#
#
# Indices 1 2 3 4 5 6 
#
# 1 0.013956 -0.001761 -0.005926 0.000000 0.000000 0.000000
# 2 -0.001761 0.013956 -0.005926 0.000000 0.000000 0.000000
# 3 -0.005926 -0.005926 0.012515 0.000000 0.000000 0.000000
# 4 0.000000 0.000000 0.000000 0.025768 0.000000 0.000000
# 5 0.000000 0.000000 0.000000 0.000000 0.025768 0.000000
# 6 0.000000 0.000000 0.000000 0.000000 0.000000 0.040606
#
#
# Mechanical properties :
#
#
# Convention : Reuss Voigt Hill
#
# Bulk Modulus (GPa) = 75.75752 82.18232 78.96992
# Shear Modulus (GPa) = 30.45125 32.15209 31.30167
#
# Velocity S-wave (km/s) = 3.69280 3.79453 3.74401
# Velocity P-wave (km/s) = 7.21861 7.48338 7.35219
#
# Compressibility (1/GPa) = 0.01320001
#
# Stress axis : x y z
#
# Youngs Moduli (GPa) = 71.65204 71.65204 79.90618
#
# Poissons Ratio (x) = 0.12618 0.47355
# Poissons Ratio (y) = 0.12618 0.47355
# Poissons Ratio (z) = 0.42463 0.42463
#
# Static dielectric constant tensor:
#      x y z
#    x 1.832580 0.000000 0.000000 
#    y 0.000000 1.832580 0.000000 
#    z 0.000000 0.000000 1.820870 
# 
# From -- ./inp_files/2291.got.cif
#   From: 2010.05.17/outbox.cif.g08.bks.cpg/sg138_2_cif.got.tgz:2291.got - 2010.05.20 13:08:53.
