data_PCOD9571733
_publ_section_title
;
Structure prediction by ZEFSAII (Michael W. Deem and Ramdas Pophale) SiO2 
 PCOD9571733
Probable space group: I 4/M M M
;
_chemical_formula_sum "Si O2"
_cell_formula_units_Z 160
_cell_length_a 30.926380
_cell_length_b 30.926380
_cell_length_c 9.826229
_cell_angle_alpha 90.000000
_cell_angle_beta 90.000000
_cell_angle_gamma 90.000000
_cell_volume 9398.208094
_symmetry_space_group_name_H-M "I 4/M M M"
_symmetry_group_IT_number 139
_symmetry_cell_setting 'tetragonal'
loop_
_space_group_symop_operation_xyz
x,y,z
-y,x,z
-x,-y,z
y,-x,z
x,-y,-z
-x,y,-z
y,x,-z
-y,-x,-z
-x,-y,-z
y,-x,-z
x,y,-z
-y,x,-z
-x,y,z
x,-y,z
-y,-x,z
y,x,z
1/2+x,1/2+y,1/2+z
1/2-y,1/2+x,1/2+z
1/2-x,1/2-y,1/2+z
1/2+y,1/2-x,1/2+z
1/2+x,1/2-y,1/2-z
1/2-x,1/2+y,1/2-z
1/2+y,1/2+x,1/2-z
1/2-y,1/2-x,1/2-z
1/2-x,1/2-y,1/2-z
1/2+y,1/2-x,1/2-z
1/2+x,1/2+y,1/2-z
1/2-y,1/2+x,1/2-z
1/2-x,1/2+y,1/2+z
1/2+x,1/2-y,1/2+z
1/2-y,1/2-x,1/2+z
1/2+y,1/2+x,1/2+z
loop_
_atom_site_type_symbol
_atom_site_label
_atom_site_fract_x
_atom_site_fract_y
_atom_site_fract_z
Si Si1 0.161226 0.227098 0.838617
Si Si2 0.449550 0.624954 0.500000
Si Si3 0.051692 0.880650 0.500000
Si Si4 0.681016 0.121901 0.163833
Si Si5 0.450290 0.223958 0.157355
Si Si6 0.318650 0.576502 0.758539
O O1 0.207957 0.207957 0.804888
O O2 0.152951 0.277264 0.813180
O O3 0.125198 0.198144 0.764431
O O4 0.153586 0.220935 0.000000
O O5 0.500000 0.610685 0.500000
O O6 0.415103 0.584898 0.500000
O O7 0.440644 0.656624 0.373409
O O8 0.071763 0.928238 0.500000
O O9 0.069923 0.853801 0.626061
O O10 0.000000 0.880518 0.500000
O O11 0.641787 0.141787 0.250000
O O12 0.696676 0.077788 0.235818
O O13 0.673765 0.118380 0.000000
O O14 0.500000 0.210273 0.159806
O O15 0.447717 0.274333 0.201142
O O16 0.434257 0.220407 0.000000
#
# Coordination Sequence:
#
# PCOD9571733 Si02
#       6
#    32  16  16  32  32  32
#     4   9  17  32  53  75  99 131 174 219 259 310
#     4  12  24  37  54  72  95 129 169 219 280 346
#     4  12  24  37  52  70  95 127 167 217 276 342
#     4  10  21  35  53  78 113 153 185 220 264 316
#     4  10  20  36  58  83 110 139 178 228 274 319
#     4  11  21  36  55  78 102 129 166 219 283 337
#
# _framework density 17.024521
#
# number of rings (size 3 to 8) (size 9 to 14) (size 15 to 20)
#    0.000    1.600    2.000    4.200    1.400    1.000 
#    0.000    0.000    0.000    2.400    0.000    0.000 
#    0.000    0.400    0.000    4.200    0.000    1.800 
#
# Total GULP energy -446104.958451 kJ/mol
# GULP energy per Si atom -5576.311981 kJ/mol
# Density = 1.698577 g / cm^3
# Si number density = 17.024521 Si / 1000 Ang^3
#
#
#
# Elastic Constant Matrix: (Units=GPa)
#
#
# Indices 1 2 3 4 5 6 
#
# 1 47.8878 42.4677 37.5215 0.0000 0.0000 0.0000
# 2 42.4677 47.8810 37.5188 0.0000 0.0000 0.0000
# 3 37.5215 37.5188 128.4070 0.0000 0.0000 0.0000
# 4 0.0000 0.0000 0.0000 7.7913 0.0000 0.0000
# 5 0.0000 0.0000 0.0000 0.0000 7.7905 0.0000
# 6 0.0000 0.0000 0.0000 0.0000 0.0000 18.9746
#
#
#
# Elastic Compliance Matrix: (Units=1/GPa)
#
#
# Indices 1 2 3 4 5 6 
#
# 1 0.099608 -0.085000 -0.004270 0.000000 0.000000 0.000000
# 2 -0.085000 0.099622 -0.004270 0.000000 0.000000 0.000000
# 3 -0.004270 -0.004270 0.010283 0.000000 0.000000 0.000000
# 4 0.000000 0.000000 0.000000 0.128349 0.000000 0.000000
# 5 0.000000 0.000000 0.000000 0.000000 0.128361 0.000000
# 6 0.000000 0.000000 0.000000 0.000000 0.000000 0.052702
#
#
# Mechanical properties :
#
#
# Convention : Reuss Voigt Hill
#
# Bulk Modulus (GPa) = 44.58127 51.02132 47.80129
# Shear Modulus (GPa) = 7.00786 14.02247 10.51516
#
# Velocity S-wave (km/s) = 2.03108 2.87307 2.48795
# Velocity P-wave (km/s) = 5.63416 6.40628 6.03258
#
# Compressibility (1/GPa) = 0.02243095
#
# Stress axis : x y z
#
# Youngs Moduli (GPa) = 10.03937 10.03796 97.24539
#
# Poissons Ratio (x) = 0.85323 0.41525
# Poissons Ratio (y) = 0.85335 0.41528
# Poissons Ratio (z) = 0.04287 0.04287
#
# Static dielectric constant tensor:
#      x y z
#    x 1.569440 0.000000 0.000000 
#    y 0.000000 1.569450 0.000000 
#    z 0.000000 0.000000 1.541330 
# 
# From -- ./inp_files/2249.got.cif
#   From: 2010.05.17/outbox.cif.g08.bks.cpg/sg139_2_cif.got.tgz:2249.got - 2010.05.20 13:14:44.
