data_PCOD9571209
_publ_section_title
;
Structure prediction by ZEFSAII (Michael W. Deem and Ramdas Pophale) SiO2 
 PCOD9571209
Probable space group: I 4/M M M
;
_chemical_formula_sum "Si O2"
_cell_formula_units_Z 176
_cell_length_a 23.379556
_cell_length_b 23.379556
_cell_length_c 15.694876
_cell_angle_alpha 90.000000
_cell_angle_beta 90.000000
_cell_angle_gamma 90.000000
_cell_volume 8578.876331
_symmetry_space_group_name_H-M "I 4/M M M"
_symmetry_group_IT_number 139
_symmetry_cell_setting 'tetragonal'
loop_
_space_group_symop_operation_xyz
x,y,z
-y,x,z
-x,-y,z
y,-x,z
x,-y,-z
-x,y,-z
y,x,-z
-y,-x,-z
-x,-y,-z
y,-x,-z
x,y,-z
-y,x,-z
-x,y,z
x,-y,z
-y,-x,z
y,x,z
1/2+x,1/2+y,1/2+z
1/2-y,1/2+x,1/2+z
1/2-x,1/2-y,1/2+z
1/2+y,1/2-x,1/2+z
1/2+x,1/2-y,1/2-z
1/2-x,1/2+y,1/2-z
1/2+y,1/2+x,1/2-z
1/2-y,1/2-x,1/2-z
1/2-x,1/2-y,1/2-z
1/2+y,1/2-x,1/2-z
1/2+x,1/2+y,1/2-z
1/2-y,1/2+x,1/2-z
1/2-x,1/2+y,1/2+z
1/2+x,1/2-y,1/2+z
1/2-y,1/2-x,1/2+z
1/2+y,1/2+x,1/2+z
loop_
_atom_site_type_symbol
_atom_site_label
_atom_site_fract_x
_atom_site_fract_y
_atom_site_fract_z
Si Si1 0.932323 0.158061 0.674098
Si Si2 0.167207 0.564293 0.103475
Si Si3 0.149574 0.237781 0.596970
Si Si4 0.569115 0.735584 0.336408
Si Si5 0.338723 0.568786 0.500000
Si Si6 0.857600 0.433088 0.397593
O O1 0.903343 0.096657 0.686473
O O2 0.900428 0.189900 0.597498
O O3 0.915964 0.198849 0.753753
O O4 0.000000 0.155671 0.665300
O O5 0.180045 0.500000 0.136067
O O6 0.208171 0.615641 0.134201
O O7 0.103800 0.586455 0.122433
O O8 0.173433 0.561784 0.000000
O O9 0.165120 0.253040 0.500000
O O10 0.205014 0.205014 0.635456
O O11 0.500000 0.739003 0.337640
O O12 0.585823 0.698204 0.417965
O O13 0.588453 0.800906 0.348637
O O14 0.345973 0.500000 0.500000
O O15 0.398445 0.601556 0.500000
O O16 0.846346 0.427590 0.500000
O O17 0.866001 0.500000 0.379860
#
# Coordination Sequence:
#
# PCOD9571209 Si02
#       6
#    32  32  32  32  16  32
#     4  10  20  33  51  74  99 129 167 211 260 314
#     4   9  17  29  49  77 106 135 169 209 256 309
#     4   9  18  34  54  74  99 131 166 204 249 305
#     4   9  17  31  48  67  94 130 169 205 245 296
#     4  10  18  29  46  66  93 129 167 211 258 302
#     4   9  16  29  50  73 101 137 175 215 255 297
#
# _framework density 20.515506999999999
#
# number of rings (size 3 to 8) (size 9 to 14) (size 15 to 20)
#    0.000    2.727    0.909    1.091    0.000    1.727 
#    0.000    4.545    0.000    5.455    0.000    2.545 
#    0.000    4.364    0.000    0.182    0.000    0.000 
#
# Total GULP energy -490186.015131 kJ/mol
# GULP energy per Si atom -5570.295626 kJ/mol
# Density = 2.046881 g / cm^3
# Si number density = 20.515507 Si / 1000 Ang^3
#
#
#
# Elastic Constant Matrix: (Units=GPa)
#
#
# Indices 1 2 3 4 5 6 
#
# 1 79.3249 37.1079 -3.7700 0.0000 0.0000 0.0000
# 2 37.1079 79.3273 -3.7695 0.0000 0.0000 0.0000
# 3 -3.7700 -3.7695 40.5971 0.0000 0.0000 0.0000
# 4 0.0000 0.0000 0.0000 9.6430 0.0000 0.0000
# 5 0.0000 0.0000 0.0000 0.0000 9.6443 0.0000
# 6 0.0000 0.0000 0.0000 0.0000 0.0000 34.0112
#
#
#
# Elastic Compliance Matrix: (Units=1/GPa)
#
#
# Indices 1 2 3 4 5 6 
#
# 1 0.016164 -0.007523 0.000803 0.000000 0.000000 0.000000
# 2 -0.007523 0.016163 0.000802 0.000000 0.000000 0.000000
# 3 0.000803 0.000802 0.024781 0.000000 0.000000 0.000000
# 4 0.000000 0.000000 0.000000 0.103702 0.000000 0.000000
# 5 0.000000 0.000000 0.000000 0.000000 0.103688 0.000000
# 6 0.000000 0.000000 0.000000 0.000000 0.000000 0.029402
#
#
# Mechanical properties :
#
#
# Convention : Reuss Voigt Hill
#
# Bulk Modulus (GPa) = 22.08885 28.70955 25.39920
# Shear Modulus (GPa) = 15.58467 21.97176 18.77822
#
# Velocity S-wave (km/s) = 2.75917 3.27614 3.02870
# Velocity P-wave (km/s) = 4.57613 5.32308 4.96368
#
# Compressibility (1/GPa) = 0.04527172
#
# Stress axis : x y z
#
# Youngs Moduli (GPa) = 61.86685 61.86887 40.35297
#
# Poissons Ratio (x) = 0.46544 -0.03238
# Poissons Ratio (y) = 0.46542 -0.03237
# Poissons Ratio (z) = -0.04965 -0.04963
#
# Static dielectric constant tensor:
#      x y z
#    x 1.735570 0.000000 0.000000 
#    y 0.000000 1.735560 0.000000 
#    z 0.000000 0.000000 1.784970 
# 
# From -- ./inp_files/6105.got.cif
#   From: 2010.05.17/outbox.cif.g08.bks.cpg/sg139_4_cif.got.tgz:6105.got - 2010.05.20 13:14:44.
