data_PCOD9571818
_publ_section_title
;
Structure prediction by ZEFSAII (Michael W. Deem and Ramdas Pophale) SiO2 
 PCOD9571818
Probable space group: I 4/M M M
;
_chemical_formula_sum "Si O2"
_cell_formula_units_Z 136
_cell_length_a 17.775475
_cell_length_b 17.775475
_cell_length_c 21.149004
_cell_angle_alpha 90.000000
_cell_angle_beta 90.000000
_cell_angle_gamma 90.000000
_cell_volume 6682.398164
_symmetry_space_group_name_H-M "I 4/M M M"
_symmetry_group_IT_number 139
_symmetry_cell_setting 'tetragonal'
loop_
_space_group_symop_operation_xyz
x,y,z
-y,x,z
-x,-y,z
y,-x,z
x,-y,-z
-x,y,-z
y,x,-z
-y,-x,-z
-x,-y,-z
y,-x,-z
x,y,-z
-y,x,-z
-x,y,z
x,-y,z
-y,-x,z
y,x,z
1/2+x,1/2+y,1/2+z
1/2-y,1/2+x,1/2+z
1/2-x,1/2-y,1/2+z
1/2+y,1/2-x,1/2+z
1/2+x,1/2-y,1/2-z
1/2-x,1/2+y,1/2-z
1/2+y,1/2+x,1/2-z
1/2-y,1/2-x,1/2-z
1/2-x,1/2-y,1/2-z
1/2+y,1/2-x,1/2-z
1/2+x,1/2+y,1/2-z
1/2-y,1/2+x,1/2-z
1/2-x,1/2+y,1/2+z
1/2+x,1/2-y,1/2+z
1/2-y,1/2-x,1/2+z
1/2+y,1/2+x,1/2+z
loop_
_atom_site_type_symbol
_atom_site_label
_atom_site_fract_x
_atom_site_fract_y
_atom_site_fract_z
Si Si1 0.284500 0.088822 0.252294
Si Si2 0.377431 0.083452 0.073179
Si Si3 0.186867 0.186867 0.500000
Si Si4 0.584164 0.242676 0.889472
Si Si5 0.586586 0.709479 0.616727
O O1 0.355374 0.144627 0.250000
O O2 0.239433 0.104674 0.317145
O O3 0.235044 0.099714 0.189351
O O4 0.305357 0.000000 0.253490
O O5 0.414903 0.151942 0.108701
O O6 0.287220 0.094277 0.078152
O O7 0.393780 0.000000 0.098686
O O8 0.399993 0.085727 0.000000
O O9 0.230610 0.139096 0.444058
O O10 0.500000 0.270955 0.902744
O O11 0.500000 0.683653 0.610219
O O12 0.646955 0.646955 0.598122
#
# Coordination Sequence:
#
# PCOD9571818 Si02
#       5
#    32  32   8  32  32
#     4  10  21  37  58  88 122 155 196 244 305 378
#     4  10  21  37  58  87 122 156 193 241 299 366
#     4  12  26  40  60  87 120 156 211 272 300 348
#     4  11  24  40  61  88 118 159 208 253 308 372
#     4  10  22  38  58  84 117 155 199 245 297 358
#
# _framework density 20.351974999999999
#
# number of rings (size 3 to 8) (size 9 to 14) (size 15 to 20)
#    0.000    1.647    3.529    0.353    3.294    1.882 
#    0.000    3.529    0.000    2.824    0.000    3.294 
#    0.000    0.000    0.000    0.000    0.000    0.000 
#
# Total GULP energy -378708.871035 kJ/mol
# GULP energy per Si atom -5569.248103 kJ/mol
# Density = 2.030565 g / cm^3
# Si number density = 20.351975 Si / 1000 Ang^3
#
#
#
# Elastic Constant Matrix: (Units=GPa)
#
#
# Indices 1 2 3 4 5 6 
#
# 1 43.1458 43.6865 -7.3036 0.0000 0.0000 0.0000
# 2 43.6865 43.1462 -7.3050 0.0000 0.0000 0.0000
# 3 -7.3036 -7.3050 78.2847 0.0000 0.0000 0.0000
# 4 0.0000 0.0000 0.0000 27.2074 0.0000 0.0000
# 5 0.0000 0.0000 0.0000 0.0000 27.2077 0.0000
# 6 0.0000 0.0000 0.0000 0.0000 0.0000 10.7459
#
#
#
# Elastic Compliance Matrix: (Units=1/GPa)
#
#
# Indices 1 2 3 4 5 6 
#
# 1 -0.919311 0.931010 0.001108 0.000000 0.000000 0.000000
# 2 0.931010 -0.919309 0.001075 0.000000 0.000000 0.000000
# 3 0.001108 0.001075 0.012978 0.000000 0.000000 0.000000
# 4 0.000000 0.000000 0.000000 0.036755 0.000000 0.000000
# 5 0.000000 0.000000 0.000000 0.000000 0.036754 0.000000
# 6 0.000000 0.000000 0.000000 0.000000 0.000000 0.093058
#
#
# Mechanical properties :
#
#
# Convention : Reuss Voigt Hill
#
# Bulk Modulus (GPa) = 24.54322 24.74805 24.64564
# Shear Modulus (GPa) = -1.42374 22.06547 10.32087
#
# Velocity S-wave (km/s) = -0.83730 3.29628 2.25437
# Velocity P-wave (km/s) = 3.33928 5.16466 4.34882
#
# Compressibility (1/GPa) = 0.04074445
#
# Stress axis : x y z
#
# Youngs Moduli (GPa) = -1.08777 -1.08777 77.05583
#
# Poissons Ratio (x) = 1.01273 -0.08537
# Poissons Ratio (y) = 1.01273 -0.08287
# Poissons Ratio (z) = 0.00121 0.00117
#
# Static dielectric constant tensor:
#      x y z
#    x 1.725510 0.000000 0.000000 
#    y 0.000000 1.725510 0.000000 
#    z 0.000000 0.000000 1.738980 
# 
# From -- ./inp_files/9953.got.cif
#   From: 2010.05.17/outbox.cif.g08.bks.cpg/sg139_5_cif.got.tgz:9953.got - 2010.05.20 13:14:44.
