data_PCOD9571303
_publ_section_title
;
Structure prediction by ZEFSAII (Michael W. Deem and Ramdas Pophale) SiO2 
 PCOD9571303
Probable space group: I 4/M M M
;
_chemical_formula_sum "Si O2"
_cell_formula_units_Z 192
_cell_length_a 22.063222
_cell_length_b 22.063222
_cell_length_c 24.323809
_cell_angle_alpha 90.000000
_cell_angle_beta 90.000000
_cell_angle_gamma 90.000000
_cell_volume 11840.483972
_symmetry_space_group_name_H-M "I 4/M M M"
_symmetry_group_IT_number 139
_symmetry_cell_setting 'tetragonal'
loop_
_space_group_symop_operation_xyz
x,y,z
-y,x,z
-x,-y,z
y,-x,z
x,-y,-z
-x,y,-z
y,x,-z
-y,-x,-z
-x,-y,-z
y,-x,-z
x,y,-z
-y,x,-z
-x,y,z
x,-y,z
-y,-x,z
y,x,z
1/2+x,1/2+y,1/2+z
1/2-y,1/2+x,1/2+z
1/2-x,1/2-y,1/2+z
1/2+y,1/2-x,1/2+z
1/2+x,1/2-y,1/2-z
1/2-x,1/2+y,1/2-z
1/2+y,1/2+x,1/2-z
1/2-y,1/2-x,1/2-z
1/2-x,1/2-y,1/2-z
1/2+y,1/2-x,1/2-z
1/2+x,1/2+y,1/2-z
1/2-y,1/2+x,1/2-z
1/2-x,1/2+y,1/2+z
1/2+x,1/2-y,1/2+z
1/2-y,1/2-x,1/2+z
1/2+y,1/2+x,1/2+z
loop_
_atom_site_type_symbol
_atom_site_label
_atom_site_fract_x
_atom_site_fract_y
_atom_site_fract_z
Si Si1 0.069926 0.169482 0.270769
Si Si2 0.897708 0.801295 0.500000
Si Si3 0.343370 0.759018 0.717016
Si Si4 0.660188 0.154439 0.883830
Si Si5 0.072689 0.429048 0.814220
Si Si6 0.566907 0.735862 0.881694
Si Si7 0.195505 0.296567 0.000000
O O1 0.112855 0.112855 0.257242
O O2 0.095972 0.229765 0.241159
O O3 0.075071 0.184916 0.335499
O O4 0.000000 0.159072 0.257113
O O5 0.866237 0.866237 0.500000
O O6 0.931641 0.790254 0.443078
O O7 0.844599 0.750777 0.500000
O O8 0.293673 0.706328 0.722036
O O9 0.315802 0.815802 0.750000
O O10 0.348176 0.781800 0.655366
O O11 0.614303 0.104008 0.859145
O O12 0.621239 0.216226 0.876291
O O13 0.685891 0.156824 0.945813
O O14 0.089295 0.500000 0.822253
O O15 0.086890 0.413111 0.750000
O O16 0.000000 0.424640 0.819080
O O17 0.500000 0.763701 0.872038
O O18 0.230775 0.230775 0.000000
#
# Coordination Sequence:
#
# PCOD9571303 Si02
#       7
#    32  16  32  32  32  32  16
#     4  10  21  35  51  74 101 131 169 214 262 314
#     4   9  17  29  45  62  89 132 171 209 258 301
#     4  10  19  31  49  73 100 127 161 208 260 312
#     4  11  19  32  51  74  99 140 171 209 262 317
#     4   9  19  34  51  73 103 139 180 223 263 308
#     4  10  19  29  45  70 100 130 172 218 256 304
#     4   9  20  33  48  71  99 129 168 212 261 322
#
# _framework density 16.215553
#
# number of rings (size 3 to 8) (size 9 to 14) (size 15 to 20)
#    0.000    2.167    1.667    2.750    0.000    2.167 
#    0.000    1.667    0.000    1.000    0.000    0.000 
#    0.000    6.000    0.000    0.000    0.000    7.667 
#
# Total GULP energy -534605.160147 kJ/mol
# GULP energy per Si atom -5568.803752 kJ/mol
# Density = 1.617865 g / cm^3
# Si number density = 16.215553 Si / 1000 Ang^3
#
#
#
# Elastic Constant Matrix: (Units=GPa)
#
#
# Indices 1 2 3 4 5 6 
#
# 1 64.3149 42.1737 33.0476 0.0000 0.0000 0.0000
# 2 42.1737 64.3153 33.0476 0.0000 0.0000 0.0000
# 3 33.0476 33.0476 106.3342 0.0000 0.0000 0.0000
# 4 0.0000 0.0000 0.0000 15.3729 0.0000 0.0000
# 5 0.0000 0.0000 0.0000 0.0000 15.3729 0.0000
# 6 0.0000 0.0000 0.0000 0.0000 0.0000 20.4899
#
#
#
# Elastic Compliance Matrix: (Units=1/GPa)
#
#
# Indices 1 2 3 4 5 6 
#
# 1 0.028400 -0.016765 -0.003616 0.000000 0.000000 0.000000
# 2 -0.016765 0.028400 -0.003616 0.000000 0.000000 0.000000
# 3 -0.003616 -0.003616 0.011652 0.000000 0.000000 0.000000
# 4 0.000000 0.000000 0.000000 0.065050 0.000000 0.000000
# 5 0.000000 0.000000 0.000000 0.000000 0.065049 0.000000
# 6 0.000000 0.000000 0.000000 0.000000 0.000000 0.048804
#
#
# Mechanical properties :
#
#
# Convention : Reuss Voigt Hill
#
# Bulk Modulus (GPa) = 48.88094 50.16691 49.52393
# Shear Modulus (GPa) = 16.54711 18.69352 17.62031
#
# Velocity S-wave (km/s) = 3.19791 3.39900 3.29998
# Velocity P-wave (km/s) = 6.62159 6.81241 6.71768
#
# Compressibility (1/GPa) = 0.02045787
#
# Stress axis : x y z
#
# Youngs Moduli (GPa) = 35.21152 35.21177 85.82233
#
# Poissons Ratio (x) = 0.59031 0.31034
# Poissons Ratio (y) = 0.59031 0.31034
# Poissons Ratio (z) = 0.12733 0.12733
#
# Static dielectric constant tensor:
#      x y z
#    x 1.551460 0.000000 0.000000 
#    y 0.000000 1.551460 0.000000 
#    z 0.000000 0.000000 1.559550 
# 
# From -- ./inp_files/13352.got.cif
#   From: 2010.05.17/outbox.cif.g08.bks.cpg/sg139_7_cif.got.tgz:13352.got - 2010.05.20 13:14:44.
