data_PCOD9571204
_publ_section_title
;
Structure prediction by ZEFSAII (Michael W. Deem and Ramdas Pophale) SiO2 
 PCOD9571204
Probable space group: I 4/M M M
;
_chemical_formula_sum "Si O2"
_cell_formula_units_Z 144
_cell_length_a 22.945439
_cell_length_b 22.945439
_cell_length_c 17.962011
_cell_angle_alpha 90.000000
_cell_angle_beta 90.000000
_cell_angle_gamma 90.000000
_cell_volume 9456.876127
_symmetry_space_group_name_H-M "I 4/M M M"
_symmetry_group_IT_number 139
_symmetry_cell_setting 'tetragonal'
loop_
_space_group_symop_operation_xyz
x,y,z
-y,x,z
-x,-y,z
y,-x,z
x,-y,-z
-x,y,-z
y,x,-z
-y,-x,-z
-x,-y,-z
y,-x,-z
x,y,-z
-y,x,-z
-x,y,z
x,-y,z
-y,-x,z
y,x,z
1/2+x,1/2+y,1/2+z
1/2-y,1/2+x,1/2+z
1/2-x,1/2-y,1/2+z
1/2+y,1/2-x,1/2+z
1/2+x,1/2-y,1/2-z
1/2-x,1/2+y,1/2-z
1/2+y,1/2+x,1/2-z
1/2-y,1/2-x,1/2-z
1/2-x,1/2-y,1/2-z
1/2+y,1/2-x,1/2-z
1/2+x,1/2+y,1/2-z
1/2-y,1/2+x,1/2-z
1/2-x,1/2+y,1/2+z
1/2+x,1/2-y,1/2+z
1/2-y,1/2-x,1/2+z
1/2+y,1/2+x,1/2+z
loop_
_atom_site_type_symbol
_atom_site_label
_atom_site_fract_x
_atom_site_fract_y
_atom_site_fract_z
Si Si1 0.188387 0.284784 0.088652
Si Si2 0.565986 0.270122 0.585868
Si Si3 0.161938 0.066749 0.232964
Si Si4 0.431607 0.332311 0.000000
Si Si5 0.225297 0.874138 0.641164
O O1 0.227640 0.227640 0.109339
O O2 0.120479 0.272110 0.100756
O O3 0.213850 0.341357 0.129453
O O4 0.197751 0.293522 0.000000
O O5 0.572304 0.289932 0.500000
O O6 0.500000 0.245607 0.593495
O O7 0.570645 0.320892 0.646542
O O8 0.106481 0.106481 0.249343
O O9 0.214873 0.091669 0.282577
O O10 0.151365 0.000000 0.252792
O O11 0.414558 0.294112 0.927634
O O12 0.500000 0.346842 0.000000
O O13 0.389368 0.389368 0.000000
O O14 0.178809 0.821192 0.640074
#
# Coordination Sequence:
#
# PCOD9571204 Si02
#       5
#    32  32  32  16  32
#     4   9  15  26  46  68  90 116 147 182 227 279
#     4   9  18  31  46  65  90 118 148 184 227 275
#     4  10  20  32  45  63  89 121 157 194 227 261
#     4  10  18  29  44  62  89 123 155 187 220 256
#     4   9  17  29  44  64  88 115 149 189 228 267
#
# _framework density 15.227015
#
# number of rings (size 3 to 8) (size 9 to 14) (size 15 to 20)
#    0.000    2.667    1.111    1.333    0.000    2.556 
#    0.000    3.333    0.000    4.000    0.000    3.111 
#    0.000    4.444    0.000    9.778    0.000    0.444 
#
# Total GULP energy -400835.855207 kJ/mol
# GULP energy per Si atom -5567.164656 kJ/mol
# Density = 1.519236 g / cm^3
# Si number density = 15.227015 Si / 1000 Ang^3
#
#
#
# Elastic Constant Matrix: (Units=GPa)
#
#
# Indices 1 2 3 4 5 6 
#
# 1 67.8836 59.0058 24.1124 0.0000 0.0000 0.0000
# 2 59.0058 67.8836 24.1124 0.0000 0.0000 0.0000
# 3 24.1124 24.1124 51.9743 0.0000 0.0000 0.0000
# 4 0.0000 0.0000 0.0000 17.7238 0.0000 0.0000
# 5 0.0000 0.0000 0.0000 0.0000 17.7238 0.0000
# 6 0.0000 0.0000 0.0000 0.0000 0.0000 16.9796
#
#
#
# Elastic Compliance Matrix: (Units=1/GPa)
#
#
# Indices 1 2 3 4 5 6 
#
# 1 0.061104 -0.051536 -0.004439 0.000000 0.000000 0.000000
# 2 -0.051536 0.061104 -0.004439 0.000000 0.000000 0.000000
# 3 -0.004439 -0.004439 0.023359 0.000000 0.000000 0.000000
# 4 0.000000 0.000000 0.000000 0.056421 0.000000 0.000000
# 5 0.000000 0.000000 0.000000 0.000000 0.056421 0.000000
# 6 0.000000 0.000000 0.000000 0.000000 0.000000 0.058894
#
#
# Mechanical properties :
#
#
# Convention : Reuss Voigt Hill
#
# Bulk Modulus (GPa) = 40.42145 44.68922 42.55533
# Shear Modulus (GPa) = 11.20127 15.85283 13.52705
#
# Velocity S-wave (km/s) = 2.71517 3.23011 2.98377
# Velocity P-wave (km/s) = 6.03598 6.58208 6.31494
#
# Compressibility (1/GPa) = 0.02473934
#
# Stress axis : x y z
#
# Youngs Moduli (GPa) = 16.36554 16.36554 42.81023
#
# Poissons Ratio (x) = 0.84342 0.19003
# Poissons Ratio (y) = 0.84342 0.19003
# Poissons Ratio (z) = 0.07264 0.07264
#
# Static dielectric constant tensor:
#      x y z
#    x 1.499250 0.000000 0.000000 
#    y 0.000000 1.499250 0.000000 
#    z 0.000000 0.000000 1.546710 
# 
# From -- ./inp_files/8209.got.cif
#   From: 2010.05.17/outbox.cif.g08.bks.cpg/sg139_5_cif.got.tgz:8209.got - 2010.05.20 13:14:44.
