data_PCOD9571380
_publ_section_title
;
Structure prediction by ZEFSAII (Michael W. Deem and Ramdas Pophale) SiO2 
 PCOD9571380
Probable space group: I 4/M M M
;
_chemical_formula_sum "Si O2"
_cell_formula_units_Z 144
_cell_length_a 23.449624
_cell_length_b 23.449624
_cell_length_c 15.858744
_cell_angle_alpha 90.000000
_cell_angle_beta 90.000000
_cell_angle_gamma 90.000000
_cell_volume 8720.483315
_symmetry_space_group_name_H-M "I 4/M M M"
_symmetry_group_IT_number 139
_symmetry_cell_setting 'tetragonal'
loop_
_space_group_symop_operation_xyz
x,y,z
-y,x,z
-x,-y,z
y,-x,z
x,-y,-z
-x,y,-z
y,x,-z
-y,-x,-z
-x,-y,-z
y,-x,-z
x,y,-z
-y,x,-z
-x,y,z
x,-y,z
-y,-x,z
y,x,z
1/2+x,1/2+y,1/2+z
1/2-y,1/2+x,1/2+z
1/2-x,1/2-y,1/2+z
1/2+y,1/2-x,1/2+z
1/2+x,1/2-y,1/2-z
1/2-x,1/2+y,1/2-z
1/2+y,1/2+x,1/2-z
1/2-y,1/2-x,1/2-z
1/2-x,1/2-y,1/2-z
1/2+y,1/2-x,1/2-z
1/2+x,1/2+y,1/2-z
1/2-y,1/2+x,1/2-z
1/2-x,1/2+y,1/2+z
1/2+x,1/2-y,1/2+z
1/2-y,1/2-x,1/2+z
1/2+y,1/2+x,1/2+z
loop_
_atom_site_type_symbol
_atom_site_label
_atom_site_fract_x
_atom_site_fract_y
_atom_site_fract_z
Si Si1 0.363982 0.269604 0.666333
Si Si2 0.338723 0.433467 0.000000
Si Si3 0.936139 0.633650 0.000000
Si Si4 0.740989 0.431902 0.837396
Si Si5 0.065168 0.228008 0.000000
Si Si6 0.141344 0.632764 0.156481
O O1 0.307101 0.307101 0.671860
O O2 0.402041 0.278065 0.750179
O O3 0.400198 0.287464 0.584115
O O4 0.350303 0.201853 0.657519
O O5 0.301394 0.423099 0.915784
O O6 0.354881 0.500000 0.000000
O O7 0.392451 0.392451 0.000000
O O8 0.902393 0.617443 0.916383
O O9 0.937943 0.702874 0.000000
O O10 0.000000 0.611701 0.000000
O O11 0.748374 0.500000 0.825178
O O12 0.800411 0.400892 0.858403
O O13 0.000000 0.206706 0.000000
O O14 0.119083 0.619083 0.250000
#
# Coordination Sequence:
#
# PCOD9571380 Si02
#       6
#    32  16  16  32  16  32
#     4  10  19  31  49  76 106 132 161 201 248 293
#     4  10  21  35  51  70  90 118 156 198 245 291
#     4   9  17  32  52  73  98 130 169 207 243 289
#     4  10  20  34  51  70  96 130 165 200 242 297
#     4   9  17  30  48  72 104 139 170 196 231 288
#     4   9  19  31  48  75 102 133 166 199 246 294
#
# _framework density 16.512846
#
# number of rings (size 3 to 8) (size 9 to 14) (size 15 to 20)
#    0.000    2.444    0.000    2.333    0.000   10.333 
#    0.000    0.000    0.000    1.333    0.000    4.667 
#    0.000   16.889    0.000    0.000    0.000    0.000 
#
# Total GULP energy -401433.341711 kJ/mol
# GULP energy per Si atom -5575.463079 kJ/mol
# Density = 1.647526 g / cm^3
# Si number density = 16.512846 Si / 1000 Ang^3
#
#
#
# Elastic Constant Matrix: (Units=GPa)
#
#
# Indices 1 2 3 4 5 6 
#
# 1 67.0352 47.7269 68.3212 0.0000 0.0000 0.0000
# 2 47.7269 67.0352 68.3212 0.0000 0.0000 0.0000
# 3 68.3212 68.3212 159.5382 0.0000 0.0000 0.0000
# 4 0.0000 0.0000 0.0000 16.4299 0.0000 0.0000
# 5 0.0000 0.0000 0.0000 0.0000 16.4299 0.0000
# 6 0.0000 0.0000 0.0000 0.0000 0.0000 7.6568
#
#
#
# Elastic Compliance Matrix: (Units=1/GPa)
#
#
# Indices 1 2 3 4 5 6 
#
# 1 0.034785 -0.017006 -0.007614 0.000000 0.000000 0.000000
# 2 -0.017006 0.034785 -0.007614 0.000000 0.000000 0.000000
# 3 -0.007614 -0.007614 0.012789 0.000000 0.000000 0.000000
# 4 0.000000 0.000000 0.000000 0.060865 0.000000 0.000000
# 5 0.000000 0.000000 0.000000 0.000000 0.060865 0.000000
# 6 0.000000 0.000000 0.000000 0.000000 0.000000 0.130602
#
#
# Mechanical properties :
#
#
# Convention : Reuss Voigt Hill
#
# Bulk Modulus (GPa) = 55.89010 73.59413 64.74212
# Shear Modulus (GPa) = 12.34194 15.38593 13.86393
#
# Velocity S-wave (km/s) = 2.73685 3.05578 2.90070
# Velocity P-wave (km/s) = 6.62624 7.55744 7.10711
#
# Compressibility (1/GPa) = 0.01789226
#
# Stress axis : x y z
#
# Youngs Moduli (GPa) = 28.74785 28.74785 78.19093
#
# Poissons Ratio (x) = 0.48889 0.59533
# Poissons Ratio (y) = 0.48889 0.59533
# Poissons Ratio (z) = 0.21888 0.21888
#
# Static dielectric constant tensor:
#      x y z
#    x 1.534650 0.000000 0.000000 
#    y 0.000000 1.534650 0.000000 
#    z 0.000000 0.000000 1.564430 
# 
# From -- ./inp_files/8284.got.cif
#   From: 2010.05.17/outbox.cif.g08.bks.cpg/sg139_5_cif.got.tgz:8284.got - 2010.05.20 13:14:44.
