data_PCOD9571796
_publ_section_title
;
Structure prediction by ZEFSAII (Michael W. Deem and Ramdas Pophale) SiO2 
 PCOD9571796
Probable space group: I 4/M M M
;
_chemical_formula_sum "Si O2"
_cell_formula_units_Z 160
_cell_length_a 20.994096
_cell_length_b 20.994096
_cell_length_c 18.676198
_cell_angle_alpha 90.000000
_cell_angle_beta 90.000000
_cell_angle_gamma 90.000000
_cell_volume 8231.572870
_symmetry_space_group_name_H-M "I 4/M M M"
_symmetry_group_IT_number 139
_symmetry_cell_setting 'tetragonal'
loop_
_space_group_symop_operation_xyz
x,y,z
-y,x,z
-x,-y,z
y,-x,z
x,-y,-z
-x,y,-z
y,x,-z
-y,-x,-z
-x,-y,-z
y,-x,-z
x,y,-z
-y,x,-z
-x,y,z
x,-y,z
-y,-x,z
y,x,z
1/2+x,1/2+y,1/2+z
1/2-y,1/2+x,1/2+z
1/2-x,1/2-y,1/2+z
1/2+y,1/2-x,1/2+z
1/2+x,1/2-y,1/2-z
1/2-x,1/2+y,1/2-z
1/2+y,1/2+x,1/2-z
1/2-y,1/2-x,1/2-z
1/2-x,1/2-y,1/2-z
1/2+y,1/2-x,1/2-z
1/2+x,1/2+y,1/2-z
1/2-y,1/2+x,1/2-z
1/2-x,1/2+y,1/2+z
1/2+x,1/2-y,1/2+z
1/2-y,1/2-x,1/2+z
1/2+y,1/2+x,1/2+z
loop_
_atom_site_type_symbol
_atom_site_label
_atom_site_fract_x
_atom_site_fract_y
_atom_site_fract_z
Si Si1 0.269954 0.424720 0.806417
Si Si2 0.740983 0.740983 0.580009
Si Si3 0.380518 0.074617 0.325415
Si Si4 0.823438 0.927480 0.848289
Si Si5 0.652301 0.347700 0.080493
Si Si6 0.111806 0.697914 0.915016
O O1 0.273334 0.500000 0.805923
O O2 0.194884 0.410478 0.814210
O O3 0.298566 0.404878 0.729956
O O4 0.312885 0.400237 0.871514
O O5 0.720042 0.720042 0.500000
O O6 0.794017 0.794017 0.573280
O O7 0.680298 0.775438 0.612957
O O8 0.415654 0.084347 0.250000
O O9 0.404684 0.131038 0.377563
O O10 0.386547 0.000000 0.348473
O O11 0.876755 0.876755 0.873171
O O12 0.759678 0.929669 0.896354
O O13 0.848852 0.000000 0.843052
O O14 0.632802 0.367199 0.000000
O O15 0.115212 0.686931 0.000000
#
# Coordination Sequence:
#
# PCOD9571796 Si02
#       6
#    32  16  32  32  16  32
#     4  10  21  36  56  86 121 162 209 254 307 371
#     4   9  18  31  51  85 118 151 195 243 302 369
#     4  11  23  39  61  90 127 167 208 253 305 370
#     4  11  23  40  64  92 124 162 208 259 315 377
#     4  11  20  33  57  90 125 159 203 261 315 365
#     4  11  22  38  62  93 128 162 203 258 316 373
#
# _framework density 19.437353999999999
#
# number of rings (size 3 to 8) (size 9 to 14) (size 15 to 20)
#    0.000    1.400    6.000    0.000    0.000    1.600 
#    0.000    5.000    0.000    0.300    0.000    4.900 
#    0.000    0.000    0.000    0.000    0.000    0.000 
#
# Total GULP energy -445708.812958 kJ/mol
# GULP energy per Si atom -5571.360162 kJ/mol
# Density = 1.939311 g / cm^3
# Si number density = 19.437354 Si / 1000 Ang^3
#
#
#
# Elastic Constant Matrix: (Units=GPa)
#
#
# Indices 1 2 3 4 5 6 
#
# 1 17.1923 105.3104 28.1725 0.0000 0.0000 0.0000
# 2 105.3104 17.1941 28.1729 0.0000 0.0000 0.0000
# 3 28.1725 28.1729 75.5448 0.0000 0.0000 0.0000
# 4 0.0000 0.0000 0.0000 17.0990 0.0000 0.0000
# 5 0.0000 0.0000 0.0000 0.0000 17.0981 0.0000
# 6 0.0000 0.0000 0.0000 0.0000 0.0000 10.1612
#
#
#
# Elastic Compliance Matrix: (Units=1/GPa)
#
#
# Indices 1 2 3 4 5 6 
#
# 1 -0.000748 0.010601 -0.003674 0.000000 0.000000 0.000000
# 2 0.010601 -0.000748 -0.003674 0.000000 0.000000 0.000000
# 3 -0.003674 -0.003674 0.015978 0.000000 0.000000 0.000000
# 4 0.000000 0.000000 0.000000 0.058483 0.000000 0.000000
# 5 0.000000 0.000000 0.000000 0.000000 0.058486 0.000000
# 6 0.000000 0.000000 0.000000 0.000000 0.000000 0.098414
#
#
# Mechanical properties :
#
#
# Convention : Reuss Voigt Hill
#
# Bulk Modulus (GPa) = 47.65069 48.13810 47.89439
# Shear Modulus (GPa) = 21.70542 5.42334 13.56438
#
# Velocity S-wave (km/s) = 3.34531 1.67219 2.64455
# Velocity P-wave (km/s) = 6.28408 5.34302 5.83256
#
# Compressibility (1/GPa) = 0.02098606
#
# Stress axis : x y z
#
# Youngs Moduli (GPa) = -1337.26270 -1337.57312 62.58679
#
# Poissons Ratio (x) = 14.17937 0.22997
# Poissons Ratio (y) = 14.17608 0.22997
# Poissons Ratio (z) = -4.91376 -4.91491
#
# Static dielectric constant tensor:
#      x y z
#    x 1.717550 0.000000 0.000000 
#    y 0.000000 1.717540 0.000000 
#    z 0.000000 0.000000 1.743770 
# 
# From -- ./inp_files/8471.got.cif
#   From: 2010.05.17/outbox.cif.g08.bks.cpg/sg139_5_cif.got.tgz:8471.got - 2010.05.20 13:14:44.
