data_PCOD9571145
_publ_section_title
;
Structure prediction by ZEFSAII (Michael W. Deem and Ramdas Pophale) SiO2 
 PCOD9571145
Probable space group: I 4/M M M
;
_chemical_formula_sum "Si O2"
_cell_formula_units_Z 112
_cell_length_a 29.161226
_cell_length_b 29.161226
_cell_length_c 9.869747
_cell_angle_alpha 90.000000
_cell_angle_beta 90.000000
_cell_angle_gamma 90.000000
_cell_volume 8393.006850
_symmetry_space_group_name_H-M "I 4/M M M"
_symmetry_group_IT_number 139
_symmetry_cell_setting 'tetragonal'
loop_
_space_group_symop_operation_xyz
x,y,z
-y,x,z
-x,-y,z
y,-x,z
x,-y,-z
-x,y,-z
y,x,-z
-y,-x,-z
-x,-y,-z
y,-x,-z
x,y,-z
-y,x,-z
-x,y,z
x,-y,z
-y,-x,z
y,x,z
1/2+x,1/2+y,1/2+z
1/2-y,1/2+x,1/2+z
1/2-x,1/2-y,1/2+z
1/2+y,1/2-x,1/2+z
1/2+x,1/2-y,1/2-z
1/2-x,1/2+y,1/2-z
1/2+y,1/2+x,1/2-z
1/2-y,1/2-x,1/2-z
1/2-x,1/2-y,1/2-z
1/2+y,1/2-x,1/2-z
1/2+x,1/2+y,1/2-z
1/2-y,1/2+x,1/2-z
1/2-x,1/2+y,1/2+z
1/2+x,1/2-y,1/2+z
1/2-y,1/2-x,1/2+z
1/2+y,1/2+x,1/2+z
loop_
_atom_site_type_symbol
_atom_site_label
_atom_site_fract_x
_atom_site_fract_y
_atom_site_fract_z
Si Si1 0.052907 0.380568 0.500000
Si Si2 0.118522 0.381479 0.750000
Si Si3 0.230463 0.551256 0.000000
Si Si4 0.770370 0.154816 0.000000
Si Si5 0.766765 0.307057 0.000000
Si Si6 0.726358 0.119000 0.736343
O O1 0.083927 0.392884 0.628890
O O2 0.050601 0.325109 0.500000
O O3 0.000000 0.397210 0.500000
O O4 0.112583 0.326935 0.781317
O O5 0.242228 0.578249 0.862866
O O6 0.248268 0.500000 0.000000
O O7 0.758935 0.126811 0.864147
O O8 0.819032 0.180969 0.000000
O O9 0.731806 0.194756 0.000000
O O10 0.772919 0.337569 0.865952
O O11 0.717950 0.282051 0.000000
#
# Coordination Sequence:
#
# PCOD9571145 Si02
#       6
#    16  16  16  16  16  32
#     4   9  18  30  45  61  72  87 110 150 196 241
#     4  10  16  28  45  57  74  92 122 150 186 244
#     4   8  17  31  44  56  73  97 131 166 197 231
#     4  11  18  24  35  59  87 107 129 155 188 232
#     4  10  17  25  36  55  83 112 135 151 178 229
#     4  10  17  26  41  59  78 104 129 157 197 227
#
# _framework density 13.344443
#
# number of rings (size 3 to 8) (size 9 to 14) (size 15 to 20)
#    0.000    2.286    2.857    2.571    0.000    2.286 
#    0.000    1.429    0.000    8.143    0.000    0.000 
#    0.000    0.000    0.000    0.000    0.000    0.000 
#
# Total GULP energy -311825.514800 kJ/mol
# GULP energy per Si atom -5568.312764 kJ/mol
# Density = 1.331407 g / cm^3
# Si number density = 13.344443 Si / 1000 Ang^3
#
#
#
# Elastic Constant Matrix: (Units=GPa)
#
#
# Indices 1 2 3 4 5 6 
#
# 1 59.2034 30.6119 48.2453 0.0000 0.0000 0.0000
# 2 30.6119 59.2020 48.2456 0.0000 0.0000 0.0000
# 3 48.2453 48.2456 126.0156 0.0000 0.0000 0.0000
# 4 0.0000 0.0000 0.0000 4.0807 0.0000 0.0000
# 5 0.0000 0.0000 0.0000 0.0000 4.0860 0.0000
# 6 0.0000 0.0000 0.0000 0.0000 0.0000 8.1069
#
#
#
# Elastic Compliance Matrix: (Units=1/GPa)
#
#
# Indices 1 2 3 4 5 6 
#
# 1 0.026944 -0.008031 -0.007241 0.000000 0.000000 0.000000
# 2 -0.008031 0.026945 -0.007241 0.000000 0.000000 0.000000
# 3 -0.007241 -0.007241 0.013480 0.000000 0.000000 0.000000
# 4 0.000000 0.000000 0.000000 0.245058 0.000000 0.000000
# 5 0.000000 0.000000 0.000000 0.000000 0.244738 0.000000
# 6 0.000000 0.000000 0.000000 0.000000 0.000000 0.123351
#
#
# Mechanical properties :
#
#
# Convention : Reuss Voigt Hill
#
# Bulk Modulus (GPa) = 44.75760 55.40297 50.08028
# Shear Modulus (GPa) = 6.82136 11.07593 8.94864
#
# Velocity S-wave (km/s) = 2.26337 2.88410 2.59238
# Velocity P-wave (km/s) = 6.35952 7.25937 6.82430
#
# Compressibility (1/GPa) = 0.02234258
#
# Stress axis : x y z
#
# Youngs Moduli (GPa) = 37.11363 37.11211 74.18379
#
# Poissons Ratio (x) = 0.29807 0.53715
# Poissons Ratio (y) = 0.29808 0.53719
# Poissons Ratio (z) = 0.26873 0.26874
#
# Static dielectric constant tensor:
#      x y z
#    x 1.432460 0.000000 0.000000 
#    y 0.000000 1.432460 0.000000 
#    z 0.000000 0.000000 1.453310 
# 
# From -- ./inp_files/1753.got.cif
#   From: 2010.05.17/outbox.cif.g08.bks.cpg/sg139_1_cif.got.tgz:1753.got - 2010.05.20 13:14:44.
