data_PCOD9571362
_publ_section_title
;
Structure prediction by ZEFSAII (Michael W. Deem and Ramdas Pophale) SiO2 
 PCOD9571362
Probable space group: I 4/M M M
;
_chemical_formula_sum "Si O2"
_cell_formula_units_Z 128
_cell_length_a 16.244967
_cell_length_b 16.244967
_cell_length_c 27.451455
_cell_angle_alpha 90.000000
_cell_angle_beta 90.000000
_cell_angle_gamma 90.000000
_cell_volume 7244.410228
_symmetry_space_group_name_H-M "I 4/M M M"
_symmetry_group_IT_number 139
_symmetry_cell_setting 'tetragonal'
loop_
_space_group_symop_operation_xyz
x,y,z
-y,x,z
-x,-y,z
y,-x,z
x,-y,-z
-x,y,-z
y,x,-z
-y,-x,-z
-x,-y,-z
y,-x,-z
x,y,-z
-y,x,-z
-x,y,z
x,-y,z
-y,-x,z
y,x,z
1/2+x,1/2+y,1/2+z
1/2-y,1/2+x,1/2+z
1/2-x,1/2-y,1/2+z
1/2+y,1/2-x,1/2+z
1/2+x,1/2-y,1/2-z
1/2-x,1/2+y,1/2-z
1/2+y,1/2+x,1/2-z
1/2-y,1/2-x,1/2-z
1/2-x,1/2-y,1/2-z
1/2+y,1/2-x,1/2-z
1/2+x,1/2+y,1/2-z
1/2-y,1/2+x,1/2-z
1/2-x,1/2+y,1/2+z
1/2+x,1/2-y,1/2+z
1/2-y,1/2-x,1/2+z
1/2+y,1/2+x,1/2+z
loop_
_atom_site_type_symbol
_atom_site_label
_atom_site_fract_x
_atom_site_fract_y
_atom_site_fract_z
Si Si1 0.227681 0.908417 0.164218
Si Si2 0.137367 0.407776 0.139765
Si Si3 0.227095 0.908011 0.443314
Si Si4 0.590853 0.276683 0.780445
O O1 0.165640 0.834361 0.149004
O O2 0.319498 0.906738 0.141887
O O3 0.238222 0.899910 0.222832
O O4 0.191856 0.000000 0.155276
O O5 0.097525 0.500000 0.139272
O O6 0.196385 0.404105 0.092817
O O7 0.194805 0.406209 0.187819
O O8 0.251085 0.897121 0.500000
O O9 0.160475 0.839526 0.430647
O O10 0.191204 0.000000 0.438622
O O11 0.500000 0.313874 0.788063
O O12 0.662140 0.337861 0.796614
#
# Coordination Sequence:
#
# PCOD9571362 Si02
#       4
#    32  32  32  32
#     4  10  20  33  50  71  95 125 160 198 240 284
#     4  10  19  31  48  69  95 126 158 193 234 280
#     4   9  17  28  43  65  93 126 163 200 237 278
#     4   9  17  28  43  65  93 126 162 198 236 278
#
# _framework density 17.668794999999999
#
# number of rings (size 3 to 8) (size 9 to 14) (size 15 to 20)
#    0.000    2.500    0.000    3.000    0.000    3.250 
#    0.000    3.750    0.000    9.750    0.000    3.500 
#    0.000    0.000    0.000    5.250    0.000    0.250 
#
# Total GULP energy -356282.988638 kJ/mol
# GULP energy per Si atom -5566.921697 kJ/mol
# Density = 1.762858 g / cm^3
# Si number density = 17.668795 Si / 1000 Ang^3
#
#
#
# Elastic Constant Matrix: (Units=GPa)
#
#
# Indices 1 2 3 4 5 6 
#
# 1 86.4991 53.1398 18.3335 0.0000 0.0000 0.0000
# 2 53.1398 86.4991 18.3335 0.0000 0.0000 0.0000
# 3 18.3335 18.3335 26.7837 0.0000 0.0000 0.0000
# 4 0.0000 0.0000 0.0000 13.9463 0.0000 0.0000
# 5 0.0000 0.0000 0.0000 0.0000 13.9463 0.0000
# 6 0.0000 0.0000 0.0000 0.0000 0.0000 2.2391
#
#
#
# Elastic Compliance Matrix: (Units=1/GPa)
#
#
# Indices 1 2 3 4 5 6 
#
# 1 0.019354 -0.010623 -0.005976 0.000000 0.000000 0.000000
# 2 -0.010623 0.019354 -0.005976 0.000000 0.000000 0.000000
# 3 -0.005976 -0.005976 0.045517 0.000000 0.000000 0.000000
# 4 0.000000 0.000000 0.000000 0.071704 0.000000 0.000000
# 5 0.000000 0.000000 0.000000 0.000000 0.071704 0.000000
# 6 0.000000 0.000000 0.000000 0.000000 0.000000 0.446600
#
#
# Mechanical properties :
#
#
# Convention : Reuss Voigt Hill
#
# Bulk Modulus (GPa) = 25.59234 42.15504 33.87369
# Shear Modulus (GPa) = 6.82680 13.35801 10.09240
#
# Velocity S-wave (km/s) = 1.96778 2.75257 2.39257
# Velocity P-wave (km/s) = 4.43608 5.83202 5.18128
#
# Compressibility (1/GPa) = 0.03907419
#
# Stress axis : x y z
#
# Youngs Moduli (GPa) = 51.66996 51.66996 21.96961
#
# Poissons Ratio (x) = 0.54889 0.13129
# Poissons Ratio (y) = 0.54889 0.13129
# Poissons Ratio (z) = 0.30878 0.30878
#
# Static dielectric constant tensor:
#      x y z
#    x 1.622150 0.000000 0.000000 
#    y 0.000000 1.622150 0.000000 
#    z 0.000000 0.000000 1.584960 
# 
# From -- ./inp_files/11318.got.cif
#   From: 2010.05.17/outbox.cif.g08.bks.cpg/sg139_6_cif.got.tgz:11318.got - 2010.05.20 13:14:44.
