data_PCOD9571173
_publ_section_title
;
Structure prediction by ZEFSAII (Michael W. Deem and Ramdas Pophale) SiO2 
 PCOD9571173
Probable space group: I 4/M M M
;
_chemical_formula_sum "Si O2"
_cell_formula_units_Z 104
_cell_length_a 18.486340
_cell_length_b 18.486340
_cell_length_c 16.568369
_cell_angle_alpha 90.000000
_cell_angle_beta 90.000000
_cell_angle_gamma 90.000000
_cell_volume 5662.153397
_symmetry_space_group_name_H-M "I 4/M M M"
_symmetry_group_IT_number 139
_symmetry_cell_setting 'tetragonal'
loop_
_space_group_symop_operation_xyz
x,y,z
-y,x,z
-x,-y,z
y,-x,z
x,-y,-z
-x,y,-z
y,x,-z
-y,-x,-z
-x,-y,-z
y,-x,-z
x,y,-z
-y,x,-z
-x,y,z
x,-y,z
-y,-x,z
y,x,z
1/2+x,1/2+y,1/2+z
1/2-y,1/2+x,1/2+z
1/2-x,1/2-y,1/2+z
1/2+y,1/2-x,1/2+z
1/2+x,1/2-y,1/2-z
1/2-x,1/2+y,1/2-z
1/2+y,1/2+x,1/2-z
1/2-y,1/2-x,1/2-z
1/2-x,1/2-y,1/2-z
1/2+y,1/2-x,1/2-z
1/2+x,1/2+y,1/2-z
1/2-y,1/2+x,1/2-z
1/2-x,1/2+y,1/2+z
1/2+x,1/2-y,1/2+z
1/2-y,1/2-x,1/2+z
1/2+y,1/2+x,1/2+z
loop_
_atom_site_type_symbol
_atom_site_label
_atom_site_fract_x
_atom_site_fract_y
_atom_site_fract_z
Si Si1 0.147898 0.321162 0.663955
Si Si2 0.693228 0.083615 0.500000
Si Si3 0.352398 0.647603 0.825237
Si Si4 0.148445 0.148445 0.500000
Si Si5 0.194325 0.194325 0.094091
Si Si6 0.084760 0.084760 0.837112
O O1 0.139567 0.360434 0.750000
O O2 0.102141 0.344227 0.585355
O O3 0.135611 0.234643 0.678344
O O4 0.231234 0.328629 0.636649
O O5 0.766056 0.132126 0.500000
O O6 0.714177 0.000000 0.500000
O O7 0.378605 0.621396 0.913579
O O8 0.391980 0.608021 0.753065
O O9 0.133996 0.133996 0.106257
O O10 0.207087 0.207087 0.000000
O O11 0.000000 0.098579 0.849139
#
# Coordination Sequence:
#
# PCOD9571173 Si02
#       6
#    32  16  16   8  16  16
#     4  10  17  32  56  83 108 146 194 244 288 328
#     4  10  20  32  54  91 124 145 183 241 287 333
#     4   9  16  30  52  73 105 150 193 238 274 317
#     4   8  18  30  46  73 112 158 184 211 266 328
#     4  11  19  36  60  75 102 147 199 249 285 329
#     4  11  24  38  51  75 115 158 195 235 280 331
#
# _framework density 18.367571000000002
#
# number of rings (size 3 to 8) (size 9 to 14) (size 15 to 20)
#    0.000    2.000    4.615    1.846    2.154    5.538 
#    0.000    0.769    0.000    1.154    0.000    0.000 
#    0.000    9.231    0.000    0.000    0.000    0.000 
#
# Total GULP energy -289767.016490 kJ/mol
# GULP energy per Si atom -5572.442625 kJ/mol
# Density = 1.832577 g / cm^3
# Si number density = 18.367571 Si / 1000 Ang^3
#
#
#
# Elastic Constant Matrix: (Units=GPa)
#
#
# Indices 1 2 3 4 5 6 
#
# 1 45.5894 50.9860 18.6421 0.0000 0.0000 0.0000
# 2 50.9860 45.5885 18.6411 0.0000 0.0000 0.0000
# 3 18.6421 18.6411 158.4405 0.0000 0.0000 0.0000
# 4 0.0000 0.0000 0.0000 13.6513 0.0000 0.0000
# 5 0.0000 0.0000 0.0000 0.0000 13.6514 0.0000
# 6 0.0000 0.0000 0.0000 0.0000 0.0000 18.4375
#
#
#
# Elastic Compliance Matrix: (Units=1/GPa)
#
#
# Indices 1 2 3 4 5 6 
#
# 1 -0.087220 0.098068 -0.001276 0.000000 0.000000 0.000000
# 2 0.098068 -0.087221 -0.001277 0.000000 0.000000 0.000000
# 3 -0.001276 -0.001277 0.006612 0.000000 0.000000 0.000000
# 4 0.000000 0.000000 0.000000 0.073253 0.000000 0.000000
# 5 0.000000 0.000000 0.000000 0.000000 0.073252 0.000000
# 6 0.000000 0.000000 0.000000 0.000000 0.000000 0.054237
#
#
# Mechanical properties :
#
#
# Convention : Reuss Voigt Hill
#
# Bulk Modulus (GPa) = 43.10067 47.35076 45.22571
# Shear Modulus (GPa) = -33.24826 19.90467 -6.67179
#
# Velocity S-wave (km/s) = -4.25921 3.29551 -1.90795
# Velocity P-wave (km/s) = 0.81933 6.34949 4.45223
#
# Compressibility (1/GPa) = 0.02320150
#
# Stress axis : x y z
#
# Youngs Moduli (GPa) = -11.46526 -11.46509 151.24386
#
# Poissons Ratio (x) = 1.12436 0.19294
# Poissons Ratio (y) = 1.12438 0.19311
# Poissons Ratio (z) = -0.01463 -0.01464
#
# Static dielectric constant tensor:
#      x y z
#    x 1.609620 0.000000 0.000000 
#    y 0.000000 1.609620 0.000000 
#    z 0.000000 0.000000 1.710750 
# 
# From -- ./inp_files/7524.got.cif
#   From: 2010.05.17/outbox.cif.g08.bks.cpg/sg139_4_cif.got.tgz:7524.got - 2010.05.20 13:14:44.
