data_PCOD9571904
_publ_section_title
;
Structure prediction by ZEFSAII (Michael W. Deem and Ramdas Pophale) SiO2 
 PCOD9571904
Probable space group: I 4/M M M
;
_chemical_formula_sum "Si O2"
_cell_formula_units_Z 160
_cell_length_a 20.352739
_cell_length_b 20.352739
_cell_length_c 18.164284
_cell_angle_alpha 90.000000
_cell_angle_beta 90.000000
_cell_angle_gamma 90.000000
_cell_volume 7524.263742
_symmetry_space_group_name_H-M "I 4/M M M"
_symmetry_group_IT_number 139
_symmetry_cell_setting 'tetragonal'
loop_
_space_group_symop_operation_xyz
x,y,z
-y,x,z
-x,-y,z
y,-x,z
x,-y,-z
-x,y,-z
y,x,-z
-y,-x,-z
-x,-y,-z
y,-x,-z
x,y,-z
-y,x,-z
-x,y,z
x,-y,z
-y,-x,z
y,x,z
1/2+x,1/2+y,1/2+z
1/2-y,1/2+x,1/2+z
1/2-x,1/2-y,1/2+z
1/2+y,1/2-x,1/2+z
1/2+x,1/2-y,1/2-z
1/2-x,1/2+y,1/2-z
1/2+y,1/2+x,1/2-z
1/2-y,1/2-x,1/2-z
1/2-x,1/2-y,1/2-z
1/2+y,1/2-x,1/2-z
1/2+x,1/2+y,1/2-z
1/2-y,1/2+x,1/2-z
1/2-x,1/2+y,1/2+z
1/2+x,1/2-y,1/2+z
1/2-y,1/2-x,1/2+z
1/2+y,1/2+x,1/2+z
loop_
_atom_site_type_symbol
_atom_site_label
_atom_site_fract_x
_atom_site_fract_y
_atom_site_fract_z
Si Si1 0.246851 0.246851 0.660892
Si Si2 0.308977 0.500000 0.133686
Si Si3 0.000000 0.659106 0.587270
Si Si4 0.606125 0.074294 0.831010
Si Si5 0.644962 0.355039 0.086154
Si Si6 0.894952 0.000000 0.237657
Si Si7 0.731525 0.110956 0.086642
Si Si8 0.500000 0.658689 0.418046
O O1 0.250000 0.250000 0.750000
O O2 0.192897 0.192897 0.634005
O O3 0.318442 0.232736 0.626011
O O4 0.231984 0.500000 0.119341
O O5 0.338692 0.568070 0.101596
O O6 0.326489 0.500000 0.220218
O O7 0.938253 0.619021 0.617164
O O8 0.000000 0.662977 0.500000
O O9 0.605459 0.105459 0.750000
O O10 0.676341 0.072547 0.868839
O O11 0.580665 0.000000 0.824220
O O12 0.658327 0.341674 0.000000
O O13 0.936714 0.936714 0.260861
O O14 0.888698 0.000000 0.150666
O O15 0.796638 0.065860 0.089075
O O16 0.715619 0.119086 0.000000
O O17 0.500000 0.629826 0.500000
#
# Coordination Sequence:
#
# PCOD9571904 Si02
#       8
#    16  16  16  32  16  16  32  16
#     4  12  28  46  73 111 146 195 244 305 374 440
#     4  12  27  47  76 110 143 191 242 296 368 432
#     4  12  27  43  68 101 141 187 241 303 357 421
#     4  12  25  44  68 101 141 189 245 299 364 435
#     4  12  26  49  76 108 150 189 241 299 364 439
#     4  11  26  48  74 106 147 188 232 293 358 432
#     4  11  24  45  71 101 144 192 243 300 364 434
#     4  10  25  43  72 107 140 190 244 295 358 429
#
# _framework density 21.26454
#
# number of rings (size 3 to 8) (size 9 to 14) (size 15 to 20)
#    0.000    0.500    3.000    4.500    7.000    2.200 
#    0.000    1.000    0.000    0.000    0.000    0.000 
#    0.000    0.000    0.000    0.000    0.000    0.000 
#
# Total GULP energy -447392.636898 kJ/mol
# GULP energy per Si atom -5592.407961 kJ/mol
# Density = 2.121614 g / cm^3
# Si number density = 21.264540 Si / 1000 Ang^3
#
#
#
# Elastic Constant Matrix: (Units=GPa)
#
#
# Indices 1 2 3 4 5 6 
#
# 1 107.9085 17.7709 43.7231 0.0000 0.0000 0.0000
# 2 17.7709 107.9088 43.7233 0.0000 0.0000 0.0000
# 3 43.7231 43.7233 173.4520 0.0000 0.0000 0.0000
# 4 0.0000 0.0000 0.0000 39.0295 0.0000 0.0000
# 5 0.0000 0.0000 0.0000 0.0000 39.0296 0.0000
# 6 0.0000 0.0000 0.0000 0.0000 0.0000 17.5589
#
#
#
# Elastic Compliance Matrix: (Units=1/GPa)
#
#
# Indices 1 2 3 4 5 6 
#
# 1 0.010372 -0.000723 -0.002432 0.000000 0.000000 0.000000
# 2 -0.000723 0.010372 -0.002432 0.000000 0.000000 0.000000
# 3 -0.002432 -0.002432 0.006992 0.000000 0.000000 0.000000
# 4 0.000000 0.000000 0.000000 0.025622 0.000000 0.000000
# 5 0.000000 0.000000 0.000000 0.000000 0.025622 0.000000
# 6 0.000000 0.000000 0.000000 0.000000 0.000000 0.056951
#
#
# Mechanical properties :
#
#
# Convention : Reuss Voigt Hill
#
# Bulk Modulus (GPa) = 60.38459 66.63378 63.50919
# Shear Modulus (GPa) = 32.76034 38.06041 35.41038
#
# Velocity S-wave (km/s) = 3.92932 4.23526 4.08515
# Velocity P-wave (km/s) = 7.00318 7.43775 7.22374
#
# Compressibility (1/GPa) = 0.01656052
#
# Stress axis : x y z
#
# Youngs Moduli (GPa) = 96.41676 96.41702 143.02990
#
# Poissons Ratio (x) = 0.06966 0.34789
# Poissons Ratio (y) = 0.06966 0.34789
# Poissons Ratio (z) = 0.23452 0.23452
#
# Static dielectric constant tensor:
#      x y z
#    x 1.846040 0.000000 0.000000 
#    y 0.000000 1.846040 0.000000 
#    z 0.000000 0.000000 1.726030 
# 
# From -- ./inp_files/8540.got.cif
#   From: 2010.05.17/outbox.cif.g08.bks.cpg/sg139_5_cif.got.tgz:8540.got - 2010.05.20 13:14:44.
