data_PCOD9571453
_publ_section_title
;
Structure prediction by ZEFSAII (Michael W. Deem and Ramdas Pophale) SiO2 
 PCOD9571453
Probable space group: I 4/M M M
;
_chemical_formula_sum "Si O2"
_cell_formula_units_Z 240
_cell_length_a 20.933649
_cell_length_b 20.933649
_cell_length_c 29.961692
_cell_angle_alpha 90.000000
_cell_angle_beta 90.000000
_cell_angle_gamma 90.000000
_cell_volume 13129.742572
_symmetry_space_group_name_H-M "I 4/M M M"
_symmetry_group_IT_number 139
_symmetry_cell_setting 'tetragonal'
loop_
_space_group_symop_operation_xyz
x,y,z
-y,x,z
-x,-y,z
y,-x,z
x,-y,-z
-x,y,-z
y,x,-z
-y,-x,-z
-x,-y,-z
y,-x,-z
x,y,-z
-y,x,-z
-x,y,z
x,-y,z
-y,-x,z
y,x,z
1/2+x,1/2+y,1/2+z
1/2-y,1/2+x,1/2+z
1/2-x,1/2-y,1/2+z
1/2+y,1/2-x,1/2+z
1/2+x,1/2-y,1/2-z
1/2-x,1/2+y,1/2-z
1/2+y,1/2+x,1/2-z
1/2-y,1/2-x,1/2-z
1/2-x,1/2-y,1/2-z
1/2+y,1/2-x,1/2-z
1/2+x,1/2+y,1/2-z
1/2-y,1/2+x,1/2-z
1/2-x,1/2+y,1/2+z
1/2+x,1/2-y,1/2+z
1/2-y,1/2-x,1/2+z
1/2+y,1/2+x,1/2+z
loop_
_atom_site_type_symbol
_atom_site_label
_atom_site_fract_x
_atom_site_fract_y
_atom_site_fract_z
Si Si1 0.684147 0.575668 0.231552
Si Si2 0.746313 0.847468 0.926278
Si Si3 0.624009 0.232183 0.048958
Si Si4 0.427515 0.826520 0.732293
Si Si5 0.670529 0.932702 0.128635
Si Si6 0.814428 0.075240 0.000000
Si Si7 0.405691 0.927011 0.550039
Si Si8 0.177438 0.075134 0.373468
O O1 0.665619 0.500000 0.238068
O O2 0.627016 0.627016 0.241938
O O3 0.751075 0.585894 0.258101
O O4 0.698573 0.583124 0.178291
O O5 0.807345 0.807345 0.915625
O O6 0.693433 0.801470 0.948341
O O7 0.715182 0.874339 0.882332
O O8 0.769763 0.903765 0.958530
O O9 0.577197 0.171229 0.051405
O O10 0.610071 0.277371 0.090604
O O11 0.617186 0.263041 0.000000
O O12 0.500000 0.837828 0.750730
O O13 0.372106 0.872106 0.750000
O O14 0.430530 0.845168 0.680178
O O15 0.614522 0.928660 0.091792
O O16 0.704701 0.000000 0.120800
O O17 0.876811 0.123190 0.000000
O O18 0.829649 0.000000 0.000000
O O19 0.423846 0.903025 0.500000
O O20 0.426079 0.000000 0.553704
O O21 0.108438 0.108438 0.376535
O O22 0.176219 0.000000 0.383354
#
# Coordination Sequence:
#
# PCOD9571453 Si02
#       8
#    32  32  32  32  32  16  32  32
#     4   9  20  39  62  89 118 148 188 240 300 363
#     4  10  20  34  53  79 108 141 181 225 277 337
#     4  10  19  33  52  77 110 144 183 233 279 331
#     4  10  23  41  58  82 116 156 202 247 292 346
#     4  10  22  37  54  79 109 145 185 229 284 338
#     4  10  20  35  56  82 113 151 190 230 278 330
#     4   9  19  34  53  80 111 145 187 231 277 330
#     4  10  21  35  54  80 109 146 188 233 287 345
#
# _framework density 18.279109999999999
#
# number of rings (size 3 to 8) (size 9 to 14) (size 15 to 20)
#    0.000    2.267    0.667    1.200    4.667    3.933 
#    0.000    3.333    0.000    0.000    0.000    0.933 
#    0.000    3.200    0.000    0.000    0.000    0.000 
#
# Total GULP energy -668090.940460 kJ/mol
# GULP energy per Si atom -5567.424504 kJ/mol
# Density = 1.823751 g / cm^3
# Si number density = 18.279110 Si / 1000 Ang^3
#
#
#
# Elastic Constant Matrix: (Units=GPa)
#
#
# Indices 1 2 3 4 5 6 
#
# 1 84.3952 44.6734 37.5072 0.0000 0.0000 0.0000
# 2 44.6734 84.3929 37.5071 0.0000 0.0000 0.0000
# 3 37.5072 37.5071 88.0797 0.0000 0.0000 0.0000
# 4 0.0000 0.0000 0.0000 224.8038 0.0000 0.0000
# 5 0.0000 0.0000 0.0000 0.0000 226.1036 0.0000
# 6 0.0000 0.0000 0.0000 0.0000 0.0000 2.9424
#
#
#
# Elastic Compliance Matrix: (Units=1/GPa)
#
#
# Indices 1 2 3 4 5 6 
#
# 1 0.017736 -0.007440 -0.004384 0.000000 0.000000 0.000000
# 2 -0.007440 0.017736 -0.004385 0.000000 0.000000 0.000000
# 3 -0.004384 -0.004385 0.015087 0.000000 0.000000 0.000000
# 4 0.000000 0.000000 0.000000 0.004448 0.000000 0.000000
# 5 0.000000 0.000000 0.000000 0.000000 0.004423 0.000000
# 6 0.000000 0.000000 0.000000 0.000000 0.000000 0.339864
#
#
# Mechanical properties :
#
#
# Convention : Reuss Voigt Hill
#
# Bulk Modulus (GPa) = 55.12081 55.13815 55.12948
# Shear Modulus (GPa) = 11.42181 99.91531 55.66856
#
# Velocity S-wave (km/s) = 2.50242 7.40132 5.52457
# Velocity P-wave (km/s) = 6.21048 10.16216 8.42139
#
# Compressibility (1/GPa) = 0.01814197
#
# Stress axis : x y z
#
# Youngs Moduli (GPa) = 56.38350 56.38169 66.28045
#
# Poissons Ratio (x) = 0.41947 0.29059
# Poissons Ratio (y) = 0.41948 0.29061
# Poissons Ratio (z) = 0.24720 0.24721
#
# Static dielectric constant tensor:
#      x y z
#    x 1.645580 0.000000 0.000000 
#    y 0.000000 1.645580 0.000000 
#    z 0.000000 0.000000 1.670900 
# 
# From -- ./inp_files/13409.got.cif
#   From: 2010.05.17/outbox.cif.g08.bks.cpg/sg139_7_cif.got.tgz:13409.got - 2010.05.20 13:14:44.
