data_PCOD9571534
_publ_section_title
;
Structure prediction by ZEFSAII (Michael W. Deem and Ramdas Pophale) SiO2 
 PCOD9571534
Probable space group: I 4/M M M
;
_chemical_formula_sum "Si O2"
_cell_formula_units_Z 184
_cell_length_a 25.804815
_cell_length_b 25.804815
_cell_length_c 17.152664
_cell_angle_alpha 90.000000
_cell_angle_beta 90.000000
_cell_angle_gamma 90.000000
_cell_volume 11421.761311
_symmetry_space_group_name_H-M "I 4/M M M"
_symmetry_group_IT_number 139
_symmetry_cell_setting 'tetragonal'
loop_
_space_group_symop_operation_xyz
x,y,z
-y,x,z
-x,-y,z
y,-x,z
x,-y,-z
-x,y,-z
y,x,-z
-y,-x,-z
-x,-y,-z
y,-x,-z
x,y,-z
-y,x,-z
-x,y,z
x,-y,z
-y,-x,z
y,x,z
1/2+x,1/2+y,1/2+z
1/2-y,1/2+x,1/2+z
1/2-x,1/2-y,1/2+z
1/2+y,1/2-x,1/2+z
1/2+x,1/2-y,1/2-z
1/2-x,1/2+y,1/2-z
1/2+y,1/2+x,1/2-z
1/2-y,1/2-x,1/2-z
1/2-x,1/2-y,1/2-z
1/2+y,1/2-x,1/2-z
1/2+x,1/2+y,1/2-z
1/2-y,1/2+x,1/2-z
1/2-x,1/2+y,1/2+z
1/2+x,1/2-y,1/2+z
1/2-y,1/2-x,1/2+z
1/2+y,1/2+x,1/2+z
loop_
_atom_site_type_symbol
_atom_site_label
_atom_site_fract_x
_atom_site_fract_y
_atom_site_fract_z
Si Si1 0.091730 0.255084 0.831629
Si Si2 0.279818 0.805310 0.088563
Si Si3 0.716285 0.060207 0.411948
Si Si4 0.000000 0.911443 0.000000
Si Si5 0.559248 0.145322 0.235713
Si Si6 0.144696 0.229390 0.670910
Si Si7 0.000000 0.807355 0.911071
O O1 0.134839 0.271155 0.894213
O O2 0.065974 0.307131 0.796474
O O3 0.123563 0.231747 0.758461
O O4 0.049933 0.215278 0.866189
O O5 0.225932 0.774069 0.095723
O O6 0.318561 0.778543 0.149906
O O7 0.298803 0.796712 0.000000
O O8 0.699750 0.070984 0.500000
O O9 0.671088 0.068915 0.348981
O O10 0.763460 0.096350 0.386251
O O11 0.730771 0.000000 0.405844
O O12 0.949630 0.949630 0.000000
O O13 0.000000 0.869768 0.072351
O O14 0.500000 0.126734 0.239036
O O15 0.600748 0.100748 0.250000
O O16 0.179320 0.179320 0.657089
O O17 0.000000 0.785812 0.000000
#
# Coordination Sequence:
#
# PCOD9571534 Si02
#       7
#    32  32  32   8  32  32  16
#     4  11  19  35  52  77 107 140 180 221 273 322
#     4  10  20  32  49  76 112 148 181 213 260 331
#     4   9  18  33  53  72  97 136 179 217 257 318
#     4   9  22  44  64  84 112 148 189 224 264 322
#     4  10  20  34  54  75 102 138 181 227 277 326
#     4  10  20  31  49  77 109 142 173 215 267 324
#     4  10  23  38  60  82 108 139 182 230 270 316
#
# _framework density 16.109598999999999
#
# number of rings (size 3 to 8) (size 9 to 14) (size 15 to 20)
#    0.261    1.783    0.870    4.174    1.217    4.000 
#    0.000    0.870    0.000    0.000    0.000    2.435 
#    0.000    0.348    0.000    1.913    0.000    0.000 
#
# Total GULP energy -512753.448522 kJ/mol
# GULP energy per Si atom -5573.407049 kJ/mol
# Density = 1.607293 g / cm^3
# Si number density = 16.109599 Si / 1000 Ang^3
#
#
#
# Elastic Constant Matrix: (Units=GPa)
#
#
# Indices 1 2 3 4 5 6 
#
# 1 105.1559 68.6952 46.2671 0.0000 0.0000 0.0000
# 2 68.6952 105.1559 46.2671 0.0000 0.0000 0.0000
# 3 46.2671 46.2671 87.2266 0.0000 0.0000 0.0000
# 4 0.0000 0.0000 0.0000 20.4193 0.0000 0.0000
# 5 0.0000 0.0000 0.0000 0.0000 20.4193 0.0000
# 6 0.0000 0.0000 0.0000 0.0000 0.0000 25.5361
#
#
#
# Elastic Compliance Matrix: (Units=1/GPa)
#
#
# Indices 1 2 3 4 5 6 
#
# 1 0.017721 -0.009706 -0.004251 0.000000 0.000000 0.000000
# 2 -0.009706 0.017721 -0.004251 0.000000 0.000000 0.000000
# 3 -0.004251 -0.004251 0.015974 0.000000 0.000000 0.000000
# 4 0.000000 0.000000 0.000000 0.048973 0.000000 0.000000
# 5 0.000000 0.000000 0.000000 0.000000 0.048973 0.000000
# 6 0.000000 0.000000 0.000000 0.000000 0.000000 0.039160
#
#
# Mechanical properties :
#
#
# Convention : Reuss Voigt Hill
#
# Bulk Modulus (GPa) = 66.67132 68.88859 67.77995
# Shear Modulus (GPa) = 21.74486 22.36221 22.05353
#
# Velocity S-wave (km/s) = 3.67796 3.72980 3.70397
# Velocity P-wave (km/s) = 7.71443 7.83606 7.77548
#
# Compressibility (1/GPa) = 0.01499895
#
# Stress axis : x y z
#
# Youngs Moduli (GPa) = 56.43074 56.43074 62.60044
#
# Poissons Ratio (x) = 0.54772 0.26613
# Poissons Ratio (y) = 0.54772 0.26613
# Poissons Ratio (z) = 0.23990 0.23990
#
# Static dielectric constant tensor:
#      x y z
#    x 1.539790 0.000000 0.000000 
#    y 0.000000 1.539790 0.000000 
#    z 0.000000 0.000000 1.561580 
# 
# From -- ./inp_files/8927.got.cif
#   From: 2010.05.17/outbox.cif.g08.bks.cpg/sg139_5_cif.got.tgz:8927.got - 2010.05.20 13:14:44.
