data_PCOD9571905
_publ_section_title
;
Structure prediction by ZEFSAII (Michael W. Deem and Ramdas Pophale) SiO2 
 PCOD9571905
Probable space group: I 4/M M M
;
_chemical_formula_sum "Si O2"
_cell_formula_units_Z 160
_cell_length_a 19.039362
_cell_length_b 19.039362
_cell_length_c 26.197504
_cell_angle_alpha 90.000000
_cell_angle_beta 90.000000
_cell_angle_gamma 90.000000
_cell_volume 9496.524607
_symmetry_space_group_name_H-M "I 4/M M M"
_symmetry_group_IT_number 139
_symmetry_cell_setting 'tetragonal'
loop_
_space_group_symop_operation_xyz
x,y,z
-y,x,z
-x,-y,z
y,-x,z
x,-y,-z
-x,y,-z
y,x,-z
-y,-x,-z
-x,-y,-z
y,-x,-z
x,y,-z
-y,x,-z
-x,y,z
x,-y,z
-y,-x,z
y,x,z
1/2+x,1/2+y,1/2+z
1/2-y,1/2+x,1/2+z
1/2-x,1/2-y,1/2+z
1/2+y,1/2-x,1/2+z
1/2+x,1/2-y,1/2-z
1/2-x,1/2+y,1/2-z
1/2+y,1/2+x,1/2-z
1/2-y,1/2-x,1/2-z
1/2-x,1/2-y,1/2-z
1/2+y,1/2-x,1/2-z
1/2+x,1/2+y,1/2-z
1/2-y,1/2+x,1/2-z
1/2-x,1/2+y,1/2+z
1/2+x,1/2-y,1/2+z
1/2-y,1/2-x,1/2+z
1/2+y,1/2+x,1/2+z
loop_
_atom_site_type_symbol
_atom_site_label
_atom_site_fract_x
_atom_site_fract_y
_atom_site_fract_z
Si Si1 0.818909 0.627903 0.585556
Si Si2 0.252686 0.421405 0.056609
Si Si3 0.000000 0.580883 0.061599
Si Si4 0.805842 0.310811 0.192893
Si Si5 0.205113 0.085866 0.000000
Si Si6 0.186770 0.078784 0.336493
O O1 0.858405 0.697834 0.565170
O O2 0.876421 0.567215 0.580165
O O3 0.803174 0.641378 0.645325
O O4 0.752998 0.607643 0.549443
O O5 0.217961 0.500000 0.059916
O O6 0.308028 0.420687 0.102050
O O7 0.282418 0.415264 0.000000
O O8 0.000000 0.500000 0.077966
O O9 0.000000 0.582666 0.000000
O O10 0.761391 0.238609 0.195404
O O11 0.829836 0.329836 0.250000
O O12 0.751190 0.372269 0.179301
O O13 0.134040 0.134040 0.000000
O O14 0.195070 0.000000 0.000000
O O15 0.115911 0.115911 0.319144
O O16 0.194321 0.000000 0.317920
#
# Coordination Sequence:
#
# PCOD9571905 Si02
#       6
#    32  32  16  32  16  32
#     4  11  18  34  54  82 107 137 179 219 264 320
#     4   9  16  27  46  74 107 139 169 203 249 300
#     4  11  20  32  54  82 120 154 172 201 255 329
#     4   9  19  36  56  77 101 135 177 222 276 322
#     4  12  24  39  56  80 110 140 183 237 289 343
#     4   9  18  31  47  70 100 134 173 212 248 296
#
# _framework density 16.848268999999998
#
# number of rings (size 3 to 8) (size 9 to 14) (size 15 to 20)
#    0.000    2.100    3.000    1.200    0.000    3.900 
#    1.800    0.000    0.000    0.000    0.000    2.800 
#    0.000    4.800    0.000    0.000    0.000    0.000 
#
# Total GULP energy -445410.708976 kJ/mol
# GULP energy per Si atom -5567.633862 kJ/mol
# Density = 1.680992 g / cm^3
# Si number density = 16.848269 Si / 1000 Ang^3
#
#
#
# Elastic Constant Matrix: (Units=GPa)
#
#
# Indices 1 2 3 4 5 6 
#
# 1 69.9565 30.9497 24.0048 0.0000 0.0000 0.0000
# 2 30.9497 69.9565 24.0048 0.0000 0.0000 0.0000
# 3 24.0048 24.0048 123.1085 0.0000 0.0000 0.0000
# 4 0.0000 0.0000 0.0000 10.6387 0.0000 0.0000
# 5 0.0000 0.0000 0.0000 0.0000 10.6387 0.0000
# 6 0.0000 0.0000 0.0000 0.0000 0.0000 3.2127
#
#
#
# Elastic Compliance Matrix: (Units=1/GPa)
#
#
# Indices 1 2 3 4 5 6 
#
# 1 0.018280 -0.007356 -0.002130 0.000000 0.000000 0.000000
# 2 -0.007356 0.018280 -0.002130 0.000000 0.000000 0.000000
# 3 -0.002130 -0.002130 0.008954 0.000000 0.000000 0.000000
# 4 0.000000 0.000000 0.000000 0.093997 0.000000 0.000000
# 5 0.000000 0.000000 0.000000 0.000000 0.093997 0.000000
# 6 0.000000 0.000000 0.000000 0.000000 0.000000 0.311262
#
#
# Mechanical properties :
#
#
# Convention : Reuss Voigt Hill
#
# Bulk Modulus (GPa) = 44.88158 46.77110 45.82634
# Shear Modulus (GPa) = 8.68917 17.16884 12.92901
#
# Velocity S-wave (km/s) = 2.27343 3.19568 2.77317
# Velocity P-wave (km/s) = 5.79550 6.43716 6.12474
#
# Compressibility (1/GPa) = 0.02228085
#
# Stress axis : x y z
#
# Youngs Moduli (GPa) = 54.70440 54.70440 111.68741
#
# Poissons Ratio (x) = 0.40243 0.23789
# Poissons Ratio (y) = 0.40243 0.23789
# Poissons Ratio (z) = 0.11652 0.11652
#
# Static dielectric constant tensor:
#      x y z
#    x 1.602580 0.000000 0.000000 
#    y 0.000000 1.602580 0.000000 
#    z 0.000000 0.000000 1.593000 
# 
# From -- ./inp_files/12988.got.cif
#   From: 2010.05.17/outbox.cif.g08.bks.cpg/sg139_7_cif.got.tgz:12988.got - 2010.05.20 13:14:44.
