data_PCOD9571965
_publ_section_title
;
Structure prediction by ZEFSAII (Michael W. Deem and Ramdas Pophale) SiO2 
 PCOD9571965
Probable space group: I 4/M M M
;
_chemical_formula_sum "Si O2"
_cell_formula_units_Z 80
_cell_length_a 21.000000
_cell_length_b 21.000000
_cell_length_c 18.000000
_cell_angle_alpha 90.000000
_cell_angle_beta 90.000000
_cell_angle_gamma 90.000000
_cell_volume 7938.000000
_symmetry_space_group_name_H-M "I 4/M M M"
_symmetry_group_IT_number 139
_symmetry_cell_setting 'tetragonal'
loop_
_space_group_symop_operation_xyz
x,y,z
-y,x,z
-x,-y,z
y,-x,z
x,-y,-z
-x,y,-z
y,x,-z
-y,-x,-z
-x,-y,-z
y,-x,-z
x,y,-z
-y,x,-z
-x,y,z
x,-y,z
-y,-x,z
y,x,z
1/2+x,1/2+y,1/2+z
1/2-y,1/2+x,1/2+z
1/2-x,1/2-y,1/2+z
1/2+y,1/2-x,1/2+z
1/2+x,1/2-y,1/2-z
1/2-x,1/2+y,1/2-z
1/2+y,1/2+x,1/2-z
1/2-y,1/2-x,1/2-z
1/2-x,1/2-y,1/2-z
1/2+y,1/2-x,1/2-z
1/2+x,1/2+y,1/2-z
1/2-y,1/2+x,1/2-z
1/2-x,1/2+y,1/2+z
1/2+x,1/2-y,1/2+z
1/2-y,1/2-x,1/2+z
1/2+y,1/2+x,1/2+z
loop_
_atom_site_type_symbol
_atom_site_label
_atom_site_fract_x
_atom_site_fract_y
_atom_site_fract_z
Si Si1 0.674848 0.574394 0.230713
Si Si2 0.500000 0.072696 0.590724
Si Si3 0.266903 0.426617 0.080007
Si Si4 0.365465 0.874697 0.587728
Si Si5 0.924544 0.178539 0.000000
Si Si6 0.636885 0.258316 0.644772
O O1 0.661729 0.500000 0.229162
O O2 0.613311 0.613311 0.256456
O O3 0.696623 0.598620 0.150526
O O4 0.731291 0.589988 0.287034
O O5 0.500000 0.073248 0.500000
O O6 0.565389 0.104729 0.614777
O O7 0.500000 0.000000 0.614529
O O8 0.286294 0.500000 0.075010
O O9 0.191184 0.424739 0.093176
O O10 0.278885 0.395279 0.000000
O O11 0.371793 0.859568 0.500000
O O12 0.343525 0.813092 0.631190
O O13 0.899421 0.215885 0.071998
O O14 0.889623 0.110377 0.000000
O O15 0.000000 0.174097 0.000000
O O16 0.698213 0.301788 0.656863
#
# Coordination Sequence:
#
# PCOD9571965 Si02
#       6
#    32  16  32  32  16  32
#     4  10  22  39  59  83 110 142 181 230 283 339
#     4   9  18  30  48  82 116 144 193 243 275 326
#     4   9  19  37  58  81 110 144 183 226 279 337
#     4  10  19  31  55  82 110 152 188 229 279 327
#     4  10  20  33  52  74 106 142 180 232 275 329
#     4  10  21  35  52  79 110 143 186 230 272 328
#
# _framework density 10.078105000000001
#
# number of rings (size 3 to 8) (size 9 to 14) (size 15 to 20)
#    0.000    2.300    1.000    1.200    2.800    4.700 
#    0.000    4.000    0.000    3.600    0.000    2.800 
#    0.000    0.000    0.000    0.000    0.000    0.000 
#
# Total GULP energy -445581.232943 kJ/mol
# GULP energy per Si atom -5569.765412 kJ/mol
# Density = 1.005517 g / cm^3
# Si number density = 10.078105 Si / 1000 Ang^3
#
#
#
# Elastic Constant Matrix: (Units=GPa)
#
#
# Indices 1 2 3 4 5 6 
#
# 1 56.2574 13.0406 14.2842 0.0000 0.0000 0.0000
# 2 13.0406 56.2574 14.2842 0.0000 0.0000 0.0000
# 3 14.2842 14.2842 62.5563 0.0000 0.0000 0.0000
# 4 0.0000 0.0000 0.0000 9.1445 0.0000 0.0000
# 5 0.0000 0.0000 0.0000 0.0000 9.1445 0.0000
# 6 0.0000 0.0000 0.0000 0.0000 0.0000 10.1617
#
#
#
# Elastic Compliance Matrix: (Units=1/GPa)
#
#
# Indices 1 2 3 4 5 6 
#
# 1 0.019535 -0.003605 -0.003637 0.000000 0.000000 0.000000
# 2 -0.003605 0.019535 -0.003637 0.000000 0.000000 0.000000
# 3 -0.003637 -0.003637 0.017647 0.000000 0.000000 0.000000
# 4 0.000000 0.000000 0.000000 0.109356 0.000000 0.000000
# 5 0.000000 0.000000 0.000000 0.000000 0.109356 0.000000
# 6 0.000000 0.000000 0.000000 0.000000 0.000000 0.098409
#
#
# Mechanical properties :
#
#
# Convention : Reuss Voigt Hill
#
# Bulk Modulus (GPa) = 28.60670 28.69880 28.65275
# Shear Modulus (GPa) = 12.27754 14.58759 13.43256
#
# Velocity S-wave (km/s) = 2.47071 2.69314 2.58432
# Velocity P-wave (km/s) = 4.72890 4.89283 4.81156
#
# Compressibility (1/GPa) = 0.03495684
#
# Stress axis : x y z
#
# Youngs Moduli (GPa) = 51.19127 51.19127 56.66759
#
# Poissons Ratio (x) = 0.18452 0.20613
# Poissons Ratio (y) = 0.18452 0.20613
# Poissons Ratio (z) = 0.18621 0.18621
#
# Static dielectric constant tensor:
#      x y z
#    x 1.651210 0.000000 0.000000 
#    y 0.000000 1.651210 0.000000 
#    z 0.000000 0.000000 1.745950 
# 
# From -- ./inp_files/8439.got.cif
#   From: 2010.05.17/outbox.ucp.g08.bks.cvg/sg139_5_cif.got.tgz:8439.got - 2010.06.11 11:42:03.
