data_PCOD9571091
_publ_section_title
;
Structure prediction by ZEFSAII (Michael W. Deem and Ramdas Pophale) SiO2 
 PCOD9571091
Probable space group: P 42/N C M
;
_chemical_formula_sum "Si O2"
_cell_formula_units_Z 84
_cell_length_a 11.053428
_cell_length_b 11.053428
_cell_length_c 33.987602
_cell_angle_alpha 90.000000
_cell_angle_beta 90.000000
_cell_angle_gamma 90.000000
_cell_volume 4152.546433
_symmetry_space_group_name_H-M "P 42/N C M"
_symmetry_group_IT_number 138
_space_group.IT_coordinate_system_code '2'
_symmetry_cell_setting 'tetragonal'
loop_
_space_group_symop_operation_xyz
x,y,z
1/2-y,x,1/2+z
1/2-x,1/2-y,z
y,1/2-x,1/2+z
1/2+x,-y,1/2-z
-x,1/2+y,1/2-z
1/2+y,1/2+x,-z
-y,-x,-z
-x,-y,-z
1/2+y,-x,1/2-z
1/2+x,1/2+y,-z
-y,1/2+x,1/2-z
1/2-x,y,1/2+z
x,1/2-y,1/2+z
1/2-y,1/2-x,z
y,x,z
loop_
_atom_site_type_symbol
_atom_site_label
_atom_site_fract_x
_atom_site_fract_y
_atom_site_fract_z
Si Si1 0.114625 0.592019 0.190363
Si Si2 0.239603 0.965866 0.955716
Si Si3 0.250000 0.250000 0.438698
Si Si4 0.499704 0.691386 0.959430
Si Si5 0.932311 0.366268 0.101921
Si Si6 0.953446 0.748974 0.742897
O O1 0.160808 0.609320 0.146158
O O2 0.213877 0.538177 0.220270
O O3 0.013598 0.486403 0.188440
O O4 0.043682 0.706600 0.208557
O O5 0.106644 0.906865 0.954936
O O6 0.322945 0.884718 0.928163
O O7 0.248538 0.100911 0.939795
O O8 0.271323 0.970452 0.002168
O O9 0.622640 0.622640 0.969616
O O10 0.510423 0.762874 0.918970
O O11 0.012560 0.487441 0.102557
O O12 0.866820 0.633181 0.733601
O O13 0.860292 0.860292 0.751118
#
# Coordination Sequence:
#
# PCOD9571091 Si02
#       6
#    16  16   4  16  16  16
#     4   9  20  40  60  91 122 150 201 251 299 369
#     4  11  22  42  61  87 120 163 212 263 305 355
#     4  12  20  38  74  88 108 164 230 260 296 372
#     4  11  23  41  60  86 127 168 209 258 310 365
#     4  11  24  38  61  92 128 161 202 261 311 366
#     4   9  18  38  65  85 115 159 195 244 313 373
#
# _framework density 20.228549999999998
#
# number of rings (size 3 to 8) (size 9 to 14) (size 15 to 20)
#    0.000    1.714    2.857    1.714    1.333    3.810 
#    8.571    1.905    0.000    0.000    0.000    0.000 
#    0.000    0.000    0.000    0.000    0.000    0.000 
#
# Total GULP energy -467704.566379 kJ/mol
# GULP energy per Si atom -5567.911505 kJ/mol
# Density = 2.018251 g / cm^3
# Si number density = 20.228550 Si / 1000 Ang^3
#
#
#
# Elastic Constant Matrix: (Units=GPa)
#
#
# Indices 1 2 3 4 5 6 
#
# 1 59.7864 7.7534 33.5974 0.0000 0.0000 0.0000
# 2 7.7534 59.7864 33.5974 0.0000 0.0000 0.0000
# 3 33.5974 33.5974 159.4110 0.0000 0.0000 0.0000
# 4 0.0000 0.0000 0.0000 19.7930 0.0000 0.0000
# 5 0.0000 0.0000 0.0000 0.0000 19.7930 0.0000
# 6 0.0000 0.0000 0.0000 0.0000 0.0000 22.1916
#
#
#
# Elastic Compliance Matrix: (Units=1/GPa)
#
#
# Indices 1 2 3 4 5 6 
#
# 1 0.018976 -0.000242 -0.003948 0.000000 0.000000 0.000000
# 2 -0.000242 0.018976 -0.003948 0.000000 0.000000 0.000000
# 3 -0.003948 -0.003948 0.007937 0.000000 0.000000 0.000000
# 4 0.000000 0.000000 0.000000 0.050523 0.000000 0.000000
# 5 0.000000 0.000000 0.000000 0.000000 0.050523 0.000000
# 6 0.000000 0.000000 0.000000 0.000000 0.000000 0.045062
#
#
# Mechanical properties :
#
#
# Convention : Reuss Voigt Hill
#
# Bulk Modulus (GPa) = 33.76966 47.65333 40.71150
# Shear Modulus (GPa) = 22.92035 25.95792 24.43914
#
# Velocity S-wave (km/s) = 3.36976 3.58611 3.47962
# Velocity P-wave (km/s) = 5.64541 6.38400 6.02604
#
# Compressibility (1/GPa) = 0.02961238
#
# Stress axis : x y z
#
# Youngs Moduli (GPa) = 52.69685 52.69685 125.98532
#
# Poissons Ratio (x) = 0.01276 0.49745
# Poissons Ratio (y) = 0.01276 0.49745
# Poissons Ratio (z) = 0.20807 0.20807
#
# Static dielectric constant tensor:
#      x y z
#    x 1.740620 0.000000 0.000000 
#    y 0.000000 1.740620 0.000000 
#    z 0.000000 0.000000 1.706920 
# 
# From -- ./inp_files/8042.got.cif
#   From: 2010.05.17/outbox.cif.g08.bks.cpg/sg138_5_cif.got.tgz:8042.got - 2010.05.20 13:08:53.
