data_PCOD9571571
_publ_section_title
;
Structure prediction by ZEFSAII (Michael W. Deem and Ramdas Pophale) SiO2 
 PCOD9571571
Probable space group: I 4/M M M
;
_chemical_formula_sum "Si O2"
_cell_formula_units_Z 160
_cell_length_a 32.162852
_cell_length_b 32.162852
_cell_length_c 9.179592
_cell_angle_alpha 90.000000
_cell_angle_beta 90.000000
_cell_angle_gamma 90.000000
_cell_volume 9495.820213
_symmetry_space_group_name_H-M "I 4/M M M"
_symmetry_group_IT_number 139
_symmetry_cell_setting 'tetragonal'
loop_
_space_group_symop_operation_xyz
x,y,z
-y,x,z
-x,-y,z
y,-x,z
x,-y,-z
-x,y,-z
y,x,-z
-y,-x,-z
-x,-y,-z
y,-x,-z
x,y,-z
-y,x,-z
-x,y,z
x,-y,z
-y,-x,z
y,x,z
1/2+x,1/2+y,1/2+z
1/2-y,1/2+x,1/2+z
1/2-x,1/2-y,1/2+z
1/2+y,1/2-x,1/2+z
1/2+x,1/2-y,1/2-z
1/2-x,1/2+y,1/2-z
1/2+y,1/2+x,1/2-z
1/2-y,1/2-x,1/2-z
1/2-x,1/2-y,1/2-z
1/2+y,1/2-x,1/2-z
1/2+x,1/2+y,1/2-z
1/2-y,1/2+x,1/2-z
1/2-x,1/2+y,1/2+z
1/2+x,1/2-y,1/2+z
1/2-y,1/2-x,1/2+z
1/2+y,1/2+x,1/2+z
loop_
_atom_site_type_symbol
_atom_site_label
_atom_site_fract_x
_atom_site_fract_y
_atom_site_fract_z
Si Si1 0.268124 0.949891 0.170112
Si Si2 0.180328 0.819673 0.830288
Si Si3 0.378723 0.378723 0.829202
Si Si4 0.166818 0.606497 0.831256
Si Si5 0.548363 0.682090 0.171665
Si Si6 0.821891 0.263490 0.332983
O O1 0.308295 0.930115 0.249176
O O2 0.223580 0.937532 0.241732
O O3 0.270210 0.000000 0.180574
O O4 0.268328 0.937736 0.000000
O O5 0.146679 0.853322 0.789363
O O6 0.222618 0.833914 0.753275
O O7 0.186425 0.813576 0.000000
O O8 0.360165 0.425010 0.808549
O O9 0.368277 0.368277 0.000000
O O10 0.126966 0.626966 0.750000
O O11 0.201811 0.642595 0.831653
O O12 0.157229 0.596289 0.000000
O O13 0.500000 0.674851 0.207991
O O14 0.551273 0.692839 0.000000
O O15 0.812587 0.253853 0.500000
O O16 0.783126 0.283126 0.250000
#
# Coordination Sequence:
#
# PCOD9571571 Si02
#       6
#    32  16  16  32  32  32
#     4  10  20  33  50  73 101 131 164 204 247 290
#     4  12  23  31  42  62  88 117 151 191 232 275
#     4  10  20  33  49  69  92 118 151 193 240 291
#     4  10  20  33  50  70  94 126 162 200 241 286
#     4   9  18  33  52  72  95 125 160 198 243 296
#     4  10  20  33  46  61  85 119 157 194 232 273
#
# _framework density 16.849519000000001
#
# number of rings (size 3 to 8) (size 9 to 14) (size 15 to 20)
#    0.000    2.000    0.000    4.200    0.000    9.200 
#    0.000    0.000    0.000    0.300    0.000    2.100 
#    0.000    0.400    0.000   10.100    0.000    8.000 
#
# Total GULP energy -445937.978538 kJ/mol
# GULP energy per Si atom -5574.224732 kJ/mol
# Density = 1.681117 g / cm^3
# Si number density = 16.849519 Si / 1000 Ang^3
#
#
#
# Elastic Constant Matrix: (Units=GPa)
#
#
# Indices 1 2 3 4 5 6 
#
# 1 66.2179 27.1552 40.8544 0.0000 0.0000 0.0000
# 2 27.1552 66.2177 40.8542 0.0000 0.0000 0.0000
# 3 40.8544 40.8542 118.2067 0.0000 0.0000 0.0000
# 4 0.0000 0.0000 0.0000 22.3561 0.0000 0.0000
# 5 0.0000 0.0000 0.0000 0.0000 22.3563 0.0000
# 6 0.0000 0.0000 0.0000 0.0000 0.0000 31.9177
#
#
#
# Elastic Compliance Matrix: (Units=1/GPa)
#
#
# Indices 1 2 3 4 5 6 
#
# 1 0.020477 -0.005123 -0.005306 0.000000 0.000000 0.000000
# 2 -0.005123 0.020477 -0.005306 0.000000 0.000000 0.000000
# 3 -0.005306 -0.005306 0.012128 0.000000 0.000000 0.000000
# 4 0.000000 0.000000 0.000000 0.044731 0.000000 0.000000
# 5 0.000000 0.000000 0.000000 0.000000 0.044730 0.000000
# 6 0.000000 0.000000 0.000000 0.000000 0.000000 0.031331
#
#
# Mechanical properties :
#
#
# Convention : Reuss Voigt Hill
#
# Bulk Modulus (GPa) = 46.27760 52.04110 49.15935
# Shear Modulus (GPa) = 23.52421 24.77792 24.15106
#
# Velocity S-wave (km/s) = 3.74054 3.83892 3.79005
# Velocity P-wave (km/s) = 6.79562 7.11355 6.95640
#
# Compressibility (1/GPa) = 0.02160873
#
# Stress axis : x y z
#
# Youngs Moduli (GPa) = 48.83643 48.83627 82.45598
#
# Poissons Ratio (x) = 0.25021 0.43754
# Poissons Ratio (y) = 0.25021 0.43754
# Poissons Ratio (z) = 0.25914 0.25914
#
# Static dielectric constant tensor:
#      x y z
#    x 1.588160 0.000000 0.000000 
#    y 0.000000 1.588160 0.000000 
#    z 0.000000 0.000000 1.571260 
# 
# From -- ./inp_files/2218.got.cif
#   From: 2010.05.17/outbox.cif.g08.bks.cpg/sg139_2_cif.got.tgz:2218.got - 2010.05.20 13:14:44.
