data_PCOD9571280
_publ_section_title
;
Structure prediction by ZEFSAII (Michael W. Deem and Ramdas Pophale) SiO2 
 PCOD9571280
Probable space group: I 4/M M M
;
_chemical_formula_sum "Si O2"
_cell_formula_units_Z 160
_cell_length_a 32.260990
_cell_length_b 32.260990
_cell_length_c 7.971968
_cell_angle_alpha 90.000000
_cell_angle_beta 90.000000
_cell_angle_gamma 90.000000
_cell_volume 8296.996900
_symmetry_space_group_name_H-M "I 4/M M M"
_symmetry_group_IT_number 139
_symmetry_cell_setting 'tetragonal'
loop_
_space_group_symop_operation_xyz
x,y,z
-y,x,z
-x,-y,z
y,-x,z
x,-y,-z
-x,y,-z
y,x,-z
-y,-x,-z
-x,-y,-z
y,-x,-z
x,y,-z
-y,x,-z
-x,y,z
x,-y,z
-y,-x,z
y,x,z
1/2+x,1/2+y,1/2+z
1/2-y,1/2+x,1/2+z
1/2-x,1/2-y,1/2+z
1/2+y,1/2-x,1/2+z
1/2+x,1/2-y,1/2-z
1/2-x,1/2+y,1/2-z
1/2+y,1/2+x,1/2-z
1/2-y,1/2-x,1/2-z
1/2-x,1/2-y,1/2-z
1/2+y,1/2-x,1/2-z
1/2+x,1/2+y,1/2-z
1/2-y,1/2+x,1/2-z
1/2-x,1/2+y,1/2+z
1/2+x,1/2-y,1/2+z
1/2-y,1/2-x,1/2+z
1/2+y,1/2+x,1/2+z
loop_
_atom_site_type_symbol
_atom_site_label
_atom_site_fract_x
_atom_site_fract_y
_atom_site_fract_z
Si Si1 0.000000 0.123878 0.704291
Si Si2 0.151198 0.151198 0.699828
Si Si3 0.771938 0.905897 0.195752
Si Si4 0.500000 0.283066 0.693282
Si Si5 0.547020 0.886920 0.202182
Si Si6 0.386036 0.819747 0.201176
Si Si7 0.914564 0.085437 0.295983
O O1 0.000000 0.167578 0.794141
O O2 0.040194 0.098690 0.752929
O O3 0.000000 0.130558 0.500000
O O4 0.151107 0.151107 0.500000
O O5 0.129472 0.195313 0.745093
O O6 0.118257 0.118257 0.769336
O O7 0.772468 0.953788 0.268152
O O8 0.725784 0.889211 0.224408
O O9 0.780954 0.911361 0.000000
O O10 0.500000 0.267720 0.500000
O O11 0.500000 0.885450 0.265236
O O12 0.571399 0.928602 0.250000
O O13 0.575516 0.848568 0.260618
O O14 0.545870 0.884887 0.000000
O O15 0.344802 0.844802 0.250000
O O16 0.388039 0.816670 0.000000
O O17 0.913027 0.086974 0.500000
#
# Coordination Sequence:
#
# PCOD9571280 Si02
#       7
#    16  16  32  16  32  32  16
#     4  10  18  33  52  76 108 146 190 237 285 338
#     4  11  21  37  59  86 113 146 191 236 289 346
#     4  11  23  39  59  87 119 152 190 235 287 342
#     4  10  22  36  53  83 117 150 187 233 286 338
#     4   9  19  35  54  80 114 152 194 237 283 332
#     4  10  21  39  62  86 116 153 191 236 286 340
#     4   9  18  30  51  77 106 143 186 235 284 334
#
# _framework density 19.284085000000001
#
# number of rings (size 3 to 8) (size 9 to 14) (size 15 to 20)
#    0.000    2.000    2.000    1.500    1.400    2.400 
#    0.000    3.000    0.000    0.000    0.000    0.700 
#    0.000    0.000    0.000    0.000    0.000    0.000 
#
# Total GULP energy -445767.815049 kJ/mol
# GULP energy per Si atom -5572.097688 kJ/mol
# Density = 1.924019 g / cm^3
# Si number density = 19.284085 Si / 1000 Ang^3
#
#
#
# Elastic Constant Matrix: (Units=GPa)
#
#
# Indices 1 2 3 4 5 6 
#
# 1 165.4427 78.6958 2.2330 0.0000 0.0000 0.0000
# 2 78.6958 165.4405 2.2333 0.0000 0.0000 0.0000
# 3 2.2330 2.2333 27.7747 0.0000 0.0000 0.0000
# 4 0.0000 0.0000 0.0000 21.5447 0.0000 0.0000
# 5 0.0000 0.0000 0.0000 0.0000 21.5456 0.0000
# 6 0.0000 0.0000 0.0000 0.0000 0.0000 18.8065
#
#
#
# Elastic Compliance Matrix: (Units=1/GPa)
#
#
# Indices 1 2 3 4 5 6 
#
# 1 0.007815 -0.003713 -0.000330 0.000000 0.000000 0.000000
# 2 -0.003713 0.007815 -0.000330 0.000000 0.000000 0.000000
# 3 -0.000330 -0.000330 0.036057 0.000000 0.000000 0.000000
# 4 0.000000 0.000000 0.000000 0.046415 0.000000 0.000000
# 5 0.000000 0.000000 0.000000 0.000000 0.046413 0.000000
# 6 0.000000 0.000000 0.000000 0.000000 0.000000 0.053173
#
#
# Mechanical properties :
#
#
# Convention : Reuss Voigt Hill
#
# Bulk Modulus (GPa) = 23.28725 58.33133 40.80929
# Shear Modulus (GPa) = 22.65030 30.74575 26.69802
#
# Velocity S-wave (km/s) = 3.43090 3.99727 3.72487
# Velocity P-wave (km/s) = 5.27228 7.18459 6.30140
#
# Compressibility (1/GPa) = 0.04294196
#
# Stress axis : x y z
#
# Youngs Moduli (GPa) = 127.95980 127.95806 27.73384
#
# Poissons Ratio (x) = 0.47510 0.00915
# Poissons Ratio (y) = 0.47510 0.00915
# Poissons Ratio (z) = 0.04219 0.04221
#
# Static dielectric constant tensor:
#      x y z
#    x 1.664250 0.000000 0.000000 
#    y 0.000000 1.664250 0.000000 
#    z 0.000000 0.000000 1.699340 
# 
# From -- ./inp_files/2310.got.cif
#   From: 2010.05.17/outbox.cif.g08.bks.cpg/sg139_2_cif.got.tgz:2310.got - 2010.05.20 13:14:44.
