data_PCOD9571321
_publ_section_title
;
Structure prediction by ZEFSAII (Michael W. Deem and Ramdas Pophale) SiO2 
 PCOD9571321
Probable space group: I 4/M M M
;
_chemical_formula_sum "Si O2"
_cell_formula_units_Z 96
_cell_length_a 32.545682
_cell_length_b 32.545682
_cell_length_c 5.431869
_cell_angle_alpha 90.000000
_cell_angle_beta 90.000000
_cell_angle_gamma 90.000000
_cell_volume 5753.551978
_symmetry_space_group_name_H-M "I 4/M M M"
_symmetry_group_IT_number 139
_symmetry_cell_setting 'tetragonal'
loop_
_space_group_symop_operation_xyz
x,y,z
-y,x,z
-x,-y,z
y,-x,z
x,-y,-z
-x,y,-z
y,x,-z
-y,-x,-z
-x,-y,-z
y,-x,-z
x,y,-z
-y,x,-z
-x,y,z
x,-y,z
-y,-x,z
y,x,z
1/2+x,1/2+y,1/2+z
1/2-y,1/2+x,1/2+z
1/2-x,1/2-y,1/2+z
1/2+y,1/2-x,1/2+z
1/2+x,1/2-y,1/2-z
1/2-x,1/2+y,1/2-z
1/2+y,1/2+x,1/2-z
1/2-y,1/2-x,1/2-z
1/2-x,1/2-y,1/2-z
1/2+y,1/2-x,1/2-z
1/2+x,1/2+y,1/2-z
1/2-y,1/2+x,1/2-z
1/2-x,1/2+y,1/2+z
1/2+x,1/2-y,1/2+z
1/2-y,1/2-x,1/2+z
1/2+y,1/2+x,1/2+z
loop_
_atom_site_type_symbol
_atom_site_label
_atom_site_fract_x
_atom_site_fract_y
_atom_site_fract_z
Si Si1 0.736094 0.368827 0.500000
Si Si2 0.181444 0.450884 0.000000
Si Si3 0.450577 0.769234 0.500000
Si Si4 0.760548 0.175313 0.500000
Si Si5 0.839873 0.670493 0.000000
Si Si6 0.913413 0.450449 0.000000
O O1 0.731824 0.418067 0.500000
O O2 0.723261 0.347553 0.245016
O O3 0.784934 0.359367 0.500000
O O4 0.205466 0.440259 0.749350
O O5 0.180390 0.500000 0.000000
O O6 0.134432 0.437870 0.000000
O O7 0.500000 0.760637 0.500000
O O8 0.778756 0.221245 0.500000
O O9 0.710465 0.175067 0.500000
O O10 0.851337 0.648664 0.750000
O O11 0.934058 0.434058 0.750000
O O12 0.915726 0.500000 0.000000
#
# Coordination Sequence:
#
# PCOD9571321 Si02
#       6
#    16  16  16  16  16  16
#     4  10  19  30  45  67  89 112 149 185 213 262
#     4   9  19  35  52  66  83 109 139 170 214 275
#     4  10  19  34  53  68  86 114 145 185 231 260
#     4  10  19  31  46  64  91 124 150 177 221 268
#     4   8  16  27  39  57  81 108 137 169 204 244
#     4  11  22  36  51  69  88 106 133 165 207 270
#
# _framework density 16.685345000000002
#
# number of rings (size 3 to 8) (size 9 to 14) (size 15 to 20)
#    0.000    2.333    0.000    3.000    0.000    9.667 
#    0.000   15.000    0.000    0.000    0.000    0.000 
#    0.000    0.000    0.000    0.000    0.000    0.000 
#
# Total GULP energy -267636.628913 kJ/mol
# GULP energy per Si atom -5575.763102 kJ/mol
# Density = 1.664737 g / cm^3
# Si number density = 16.685345 Si / 1000 Ang^3
#
#
#
# Elastic Constant Matrix: (Units=GPa)
#
#
# Indices 1 2 3 4 5 6 
#
# 1 51.6843 26.1841 21.3376 0.0000 0.0000 0.0000
# 2 26.1841 51.6768 21.3348 0.0000 0.0000 0.0000
# 3 21.3376 21.3348 155.7884 0.0000 0.0000 0.0000
# 4 0.0000 0.0000 0.0000 11.8362 0.0000 0.0000
# 5 0.0000 0.0000 0.0000 0.0000 11.8366 0.0000
# 6 0.0000 0.0000 0.0000 0.0000 0.0000 13.3083
#
#
#
# Elastic Compliance Matrix: (Units=1/GPa)
#
#
# Indices 1 2 3 4 5 6 
#
# 1 0.026551 -0.012668 -0.001902 0.000000 0.000000 0.000000
# 2 -0.012668 0.026555 -0.001902 0.000000 0.000000 0.000000
# 3 -0.001902 -0.001902 0.006940 0.000000 0.000000 0.000000
# 4 0.000000 0.000000 0.000000 0.084486 0.000000 0.000000
# 5 0.000000 0.000000 0.000000 0.000000 0.084484 0.000000
# 6 0.000000 0.000000 0.000000 0.000000 0.000000 0.075141
#
#
# Mechanical properties :
#
#
# Convention : Reuss Voigt Hill
#
# Bulk Modulus (GPa) = 36.89599 44.09584 40.49592
# Shear Modulus (GPa) = 14.44525 20.08241 17.26383
#
# Velocity S-wave (km/s) = 2.94555 3.47305 3.22012
# Velocity P-wave (km/s) = 5.80768 6.52442 6.17645
#
# Compressibility (1/GPa) = 0.02710322
#
# Stress axis : x y z
#
# Youngs Moduli (GPa) = 37.66307 37.65785 144.09542
#
# Poissons Ratio (x) = 0.47705 0.27403
# Poissons Ratio (y) = 0.47712 0.27400
# Poissons Ratio (z) = 0.07163 0.07161
#
# Static dielectric constant tensor:
#      x y z
#    x 1.580920 0.000000 0.000000 
#    y 0.000000 1.580920 0.000000 
#    z 0.000000 0.000000 1.555960 
# 
# From -- ./inp_files/225.got.cif
#   From: 2010.05.17/outbox.cif.g08.bks.cpg/sg139_1_cif.got.tgz:225.got - 2010.05.20 13:14:44.
