data_PCOD9571947
_publ_section_title
;
Structure prediction by ZEFSAII (Michael W. Deem and Ramdas Pophale) SiO2 
 PCOD9571947
Probable space group: I 4/M M M
;
_chemical_formula_sum "Si O2"
_cell_formula_units_Z 176
_cell_length_a 24.201561
_cell_length_b 24.201561
_cell_length_c 14.293386
_cell_angle_alpha 90.000000
_cell_angle_beta 90.000000
_cell_angle_gamma 90.000000
_cell_volume 8371.858511
_symmetry_space_group_name_H-M "I 4/M M M"
_symmetry_group_IT_number 139
_symmetry_cell_setting 'tetragonal'
loop_
_space_group_symop_operation_xyz
x,y,z
-y,x,z
-x,-y,z
y,-x,z
x,-y,-z
-x,y,-z
y,x,-z
-y,-x,-z
-x,-y,-z
y,-x,-z
x,y,-z
-y,x,-z
-x,y,z
x,-y,z
-y,-x,z
y,x,z
1/2+x,1/2+y,1/2+z
1/2-y,1/2+x,1/2+z
1/2-x,1/2-y,1/2+z
1/2+y,1/2-x,1/2+z
1/2+x,1/2-y,1/2-z
1/2-x,1/2+y,1/2-z
1/2+y,1/2+x,1/2-z
1/2-y,1/2-x,1/2-z
1/2-x,1/2-y,1/2-z
1/2+y,1/2-x,1/2-z
1/2+x,1/2+y,1/2-z
1/2-y,1/2+x,1/2-z
1/2-x,1/2+y,1/2+z
1/2+x,1/2-y,1/2+z
1/2-y,1/2-x,1/2+z
1/2+y,1/2+x,1/2+z
loop_
_atom_site_type_symbol
_atom_site_label
_atom_site_fract_x
_atom_site_fract_y
_atom_site_fract_z
Si Si1 0.652220 0.564936 0.000000
Si Si2 0.736139 0.354181 0.500000
Si Si3 0.151763 0.937734 0.297484
Si Si4 0.565357 0.062470 0.112382
Si Si5 0.438965 0.755815 0.332569
Si Si6 0.177706 0.381130 0.822259
Si Si7 0.262196 0.829654 0.500000
O O1 0.676177 0.580428 0.100955
O O2 0.652572 0.500000 0.000000
O O3 0.591625 0.591625 0.000000
O O4 0.674997 0.325004 0.500000
O O5 0.751299 0.392328 0.588886
O O6 0.778446 0.304026 0.500000
O O7 0.103484 0.896517 0.273798
O O8 0.196954 0.938198 0.218352
O O9 0.130425 0.000000 0.308582
O O10 0.500000 0.068674 0.135294
O O11 0.599244 0.116255 0.145837
O O12 0.582347 0.000000 0.143898
O O13 0.569633 0.062397 0.000000
O O14 0.500000 0.767121 0.372210
O O15 0.427038 0.796690 0.246128
O O16 0.169727 0.330274 0.750000
O O17 0.216839 0.364174 0.908576
O O18 0.200404 0.799597 0.500000
#
# Coordination Sequence:
#
# PCOD9571947 Si02
#       7
#    16  16  32  32  32  32  16
#     4   8  14  26  45  72 110 151 192 239 290 356
#     4  11  23  45  70  92 124 171 226 287 341 389
#     4   9  18  33  54  84 121 163 212 263 323 393
#     4   9  19  38  65  96 134 178 219 265 326 399
#     4  11  24  41  65  98 132 170 215 269 338 409
#     4  12  24  43  65  96 129 170 219 276 340 406
#     4  11  26  46  66  91 124 167 226 286 337 393
#
# _framework density 21.022811000000001
#
# number of rings (size 3 to 8) (size 9 to 14) (size 15 to 20)
#    0.000    1.818    2.727    1.909    0.000    4.273 
#    0.000    4.545    0.000    0.000    0.000    0.000 
#    0.000    6.545    0.000    0.000    0.000    0.000 
#
# Total GULP energy -490495.609620 kJ/mol
# GULP energy per Si atom -5573.813746 kJ/mol
# Density = 2.097496 g / cm^3
# Si number density = 21.022811 Si / 1000 Ang^3
#
#
#
# Elastic Constant Matrix: (Units=GPa)
#
#
# Indices 1 2 3 4 5 6 
#
# 1 108.9589 59.4472 34.7591 0.0000 0.0000 0.0000
# 2 59.4472 108.9588 34.7584 0.0000 0.0000 0.0000
# 3 34.7591 34.7584 104.1828 0.0000 0.0000 0.0000
# 4 0.0000 0.0000 0.0000 -11.5874 0.0000 0.0000
# 5 0.0000 0.0000 0.0000 0.0000 -11.5746 0.0000
# 6 0.0000 0.0000 0.0000 0.0000 0.0000 29.6216
#
#
#
# Elastic Compliance Matrix: (Units=1/GPa)
#
#
# Indices 1 2 3 4 5 6 
#
# 1 0.013542 -0.006655 -0.002298 0.000000 0.000000 0.000000
# 2 -0.006655 0.013542 -0.002297 0.000000 0.000000 0.000000
# 3 -0.002298 -0.002297 0.011132 0.000000 0.000000 0.000000
# 4 0.000000 0.000000 0.000000 -0.086300 0.000000 0.000000
# 5 0.000000 0.000000 0.000000 0.000000 -0.086396 0.000000
# 6 0.000000 0.000000 0.000000 0.000000 0.000000 0.033759
#
#
# Mechanical properties :
#
#
# Convention : Reuss Voigt Hill
#
# Bulk Modulus (GPa) = 63.63627 64.44778 64.04203
# Shear Modulus (GPa) = -68.50887 14.16764 -27.17062
#
# Velocity S-wave (km/s) = -5.71477 2.59881 -3.59895
# Velocity P-wave (km/s) = 3.63442 6.30299 3.64134
#
# Compressibility (1/GPa) = 0.01571431
#
# Stress axis : x y z
#
# Youngs Moduli (GPa) = 73.84493 73.84524 89.83447
#
# Poissons Ratio (x) = 0.49147 0.20641
# Poissons Ratio (y) = 0.49147 0.20639
# Poissons Ratio (z) = 0.16967 0.16966
#
# Static dielectric constant tensor:
#      x y z
#    x 1.786510 0.000000 0.000000 
#    y 0.000000 1.786510 0.000000 
#    z 0.000000 0.000000 1.757100 
# 
# From -- ./inp_files/6171.got.cif
#   From: 2010.05.17/outbox.cif.g08.bks.cpg/sg139_4_cif.got.tgz:6171.got - 2010.05.20 13:14:44.
