data_PCOD9571024
_publ_section_title
;
Structure prediction by ZEFSAII (Michael W. Deem and Ramdas Pophale) SiO2 
 PCOD9571024
Probable space group: P 42/N C M
;
_chemical_formula_sum "Si O2"
_cell_formula_units_Z 112
_cell_length_a 13.753276
_cell_length_b 13.753276
_cell_length_c 26.770804
_cell_angle_alpha 90.000000
_cell_angle_beta 90.000000
_cell_angle_gamma 90.000000
_cell_volume 5063.767200
_symmetry_space_group_name_H-M "P 42/N C M"
_symmetry_group_IT_number 138
_space_group.IT_coordinate_system_code '2'
_symmetry_cell_setting 'tetragonal'
loop_
_space_group_symop_operation_xyz
x,y,z
1/2-y,x,1/2+z
1/2-x,1/2-y,z
y,1/2-x,1/2+z
1/2+x,-y,1/2-z
-x,1/2+y,1/2-z
1/2+y,1/2+x,-z
-y,-x,-z
-x,-y,-z
1/2+y,-x,1/2-z
1/2+x,1/2+y,-z
-y,1/2+x,1/2-z
1/2-x,y,1/2+z
x,1/2-y,1/2+z
1/2-y,1/2-x,z
y,x,z
loop_
_atom_site_type_symbol
_atom_site_label
_atom_site_fract_x
_atom_site_fract_y
_atom_site_fract_z
Si Si1 0.814037 0.476282 0.016103
Si Si2 0.455659 0.878643 0.251934
Si Si3 0.221659 0.929169 0.824222
Si Si4 0.338233 0.819807 0.570847
Si Si5 0.907056 0.758418 0.313477
Si Si6 0.400091 0.248633 0.892963
Si Si7 0.711601 0.546068 0.925066
O O1 0.716237 0.416771 0.030657
O O2 0.814934 0.538406 0.067206
O O3 0.902785 0.402785 0.000000
O O4 0.788501 0.545717 0.970056
O O5 0.423426 0.828206 0.200423
O O6 0.363166 0.907428 0.285039
O O7 0.509564 0.789545 0.280553
O O8 0.532857 0.967144 0.246944
O O9 0.212579 0.862483 0.872740
O O10 0.208391 0.033940 0.849693
O O11 0.250000 0.750000 0.557028
O O12 0.326950 0.935130 0.574211
O O13 0.820893 0.679108 0.310878
O O14 0.861145 0.861145 0.297320
O O15 0.936890 0.760951 0.371457
O O16 0.325076 0.174925 0.868458
O O17 0.335395 0.335395 0.917177
O O18 0.625715 0.625715 0.930984
#
# Coordination Sequence:
#
# PCOD9571024 Si02
#       7
#    16  16  16  16  16  16  16
#     4  11  23  39  64  97 135 178 222 271 334 404
#     4  11  24  43  67 102 136 172 227 280 337 407
#     4  11  25  41  70  95 134 176 225 279 341 400
#     4  11  23  40  62  90 133 173 216 267 333 399
#     4   9  20  40  64  94 132 169 210 266 331 392
#     4  10  23  45  70  98 135 182 233 282 337 402
#     4  11  22  38  65  97 129 172 224 277 329 393
#
# _framework density 22.117922
#
# number of rings (size 3 to 8) (size 9 to 14) (size 15 to 20)
#    0.000    1.429    2.857    1.714    2.000    5.429 
#    0.000    2.857    0.000    0.000    0.000    0.000 
#    0.000    0.000    0.000    0.000    0.000    0.000 
#
# Total GULP energy -624699.485509 kJ/mol
# GULP energy per Si atom -5577.673978 kJ/mol
# Density = 2.206758 g / cm^3
# Si number density = 22.117922 Si / 1000 Ang^3
#
#
#
# Elastic Constant Matrix: (Units=GPa)
#
#
# Indices 1 2 3 4 5 6 
#
# 1 60.9989 70.4541 27.6847 0.0000 0.0000 0.0000
# 2 70.4541 60.9989 27.6847 0.0000 0.0000 0.0000
# 3 27.6847 27.6847 102.2800 0.0000 0.0000 0.0000
# 4 0.0000 0.0000 0.0000 -463.2498 0.0000 0.0000
# 5 0.0000 0.0000 0.0000 0.0000 -463.2498 0.0000
# 6 0.0000 0.0000 0.0000 0.0000 0.0000 33.1873
#
#
#
# Elastic Compliance Matrix: (Units=1/GPa)
#
#
# Indices 1 2 3 4 5 6 
#
# 1 -0.048588 0.057174 -0.002324 0.000000 0.000000 0.000000
# 2 0.057174 -0.048588 -0.002324 0.000000 0.000000 0.000000
# 3 -0.002324 -0.002324 0.011035 0.000000 0.000000 0.000000
# 4 0.000000 0.000000 0.000000 -0.002159 0.000000 0.000000
# 5 0.000000 0.000000 0.000000 0.000000 -0.002159 0.000000
# 6 0.000000 0.000000 0.000000 0.000000 0.000000 0.030132
#
#
# Mechanical properties :
#
#
# Convention : Reuss Voigt Hill
#
# Bulk Modulus (GPa) = 52.87832 52.88051 52.87942
# Shear Modulus (GPa) = -31.43191 -172.09885 -101.76538
#
# Velocity S-wave (km/s) = -3.77385 -8.83055 -6.79045
# Velocity P-wave (km/s) = 2.22938 8.94489 6.12540
#
# Compressibility (1/GPa) = 0.01891134
#
# Stress axis : x y z
#
# Youngs Moduli (GPa) = -20.58126 -20.58126 90.61892
#
# Poissons Ratio (x) = 1.17672 0.21061
# Poissons Ratio (y) = 1.17672 0.21061
# Poissons Ratio (z) = -0.04783 -0.04783
#
# Static dielectric constant tensor:
#      x y z
#    x 1.897890 0.000000 0.000000 
#    y 0.000000 1.897890 0.000000 
#    z 0.000000 0.000000 1.816600 
# 
# From -- ./inp_files/7086.got.cif
#   From: 2010.05.17/outbox.cif.g08.bks.cpg/sg138_4_cif.got.tgz:7086.got - 2010.05.20 13:08:53.
