data_PCOD9571871
_publ_section_title
;
Structure prediction by ZEFSAII (Michael W. Deem and Ramdas Pophale) SiO2 
 PCOD9571871
Probable space group: I 4/M M M
;
_chemical_formula_sum "Si O2"
_cell_formula_units_Z 128
_cell_length_a 20.737843
_cell_length_b 20.737843
_cell_length_c 14.749505
_cell_angle_alpha 90.000000
_cell_angle_beta 90.000000
_cell_angle_gamma 90.000000
_cell_volume 6343.144573
_symmetry_space_group_name_H-M "I 4/M M M"
_symmetry_group_IT_number 139
_symmetry_cell_setting 'tetragonal'
loop_
_space_group_symop_operation_xyz
x,y,z
-y,x,z
-x,-y,z
y,-x,z
x,-y,-z
-x,y,-z
y,x,-z
-y,-x,-z
-x,-y,-z
y,-x,-z
x,y,-z
-y,x,-z
-x,y,z
x,-y,z
-y,-x,z
y,x,z
1/2+x,1/2+y,1/2+z
1/2-y,1/2+x,1/2+z
1/2-x,1/2-y,1/2+z
1/2+y,1/2-x,1/2+z
1/2+x,1/2-y,1/2-z
1/2-x,1/2+y,1/2-z
1/2+y,1/2+x,1/2-z
1/2-y,1/2-x,1/2-z
1/2-x,1/2-y,1/2-z
1/2+y,1/2-x,1/2-z
1/2+x,1/2+y,1/2-z
1/2-y,1/2+x,1/2-z
1/2-x,1/2+y,1/2+z
1/2+x,1/2-y,1/2+z
1/2-y,1/2-x,1/2+z
1/2+y,1/2+x,1/2+z
loop_
_atom_site_type_symbol
_atom_site_label
_atom_site_fract_x
_atom_site_fract_y
_atom_site_fract_z
Si Si1 0.074314 0.245132 0.500000
Si Si2 0.069609 0.571578 0.641441
Si Si3 0.574374 0.317427 0.801322
Si Si4 0.793145 0.696424 0.500000
Si Si5 0.707116 0.869518 0.822559
O O1 0.082841 0.206391 0.594365
O O2 0.129226 0.299516 0.500000
O O3 0.000000 0.267211 0.500000
O O4 0.070343 0.500000 0.602107
O O5 0.065632 0.565632 0.750000
O O6 0.141292 0.599827 0.636215
O O7 0.000000 0.602663 0.614363
O O8 0.500000 0.338702 0.791464
O O9 0.626714 0.373286 0.783043
O O10 0.586686 0.256718 0.733617
O O11 0.770251 0.770251 0.500000
O O12 0.764912 0.663200 0.411254
O O13 0.683297 0.816704 0.750000
#
# Coordination Sequence:
#
# PCOD9571871 Si02
#       5
#    16  32  32  16  32
#     4  10  22  38  61  92 127 162 203 254 311 382
#     4   8  15  30  52  78 112 151 189 230 279 341
#     4  11  23  41  64  92 126 165 212 266 324 381
#     4  12  24  38  57  86 123 158 197 244 305 372
#     4  11  22  36  61  89 120 159 203 254 308 369
#
# _framework density 20.179265999999998
#
# number of rings (size 3 to 8) (size 9 to 14) (size 15 to 20)
#    0.000    1.750    2.500    3.375    0.000    3.250 
#    0.000    2.500    0.000    3.750    0.000    0.875 
#    0.000    8.000    0.000    0.000    0.000    0.000 
#
# Total GULP energy -356326.970763 kJ/mol
# GULP energy per Si atom -5567.608918 kJ/mol
# Density = 2.013334 g / cm^3
# Si number density = 20.179266 Si / 1000 Ang^3
#
#
#
# Elastic Constant Matrix: (Units=GPa)
#
#
# Indices 1 2 3 4 5 6 
#
# 1 102.4367 61.5372 50.4882 0.0000 0.0000 0.0000
# 2 61.5372 102.4392 50.4875 0.0000 0.0000 0.0000
# 3 50.4882 50.4875 87.0881 0.0000 0.0000 0.0000
# 4 0.0000 0.0000 0.0000 5.7946 0.0000 0.0000
# 5 0.0000 0.0000 0.0000 0.0000 5.7940 0.0000
# 6 0.0000 0.0000 0.0000 0.0000 0.0000 580.8602
#
#
#
# Elastic Compliance Matrix: (Units=1/GPa)
#
#
# Indices 1 2 3 4 5 6 
#
# 1 0.016967 -0.007483 -0.005499 0.000000 0.000000 0.000000
# 2 -0.007483 0.016967 -0.005498 0.000000 0.000000 0.000000
# 3 -0.005499 -0.005498 0.017858 0.000000 0.000000 0.000000
# 4 0.000000 0.000000 0.000000 0.172575 0.000000 0.000000
# 5 0.000000 0.000000 0.000000 0.000000 0.172593 0.000000
# 6 0.000000 0.000000 0.000000 0.000000 0.000000 0.001722
#
#
# Mechanical properties :
#
#
# Convention : Reuss Voigt Hill
#
# Bulk Modulus (GPa) = 67.41733 68.55442 67.98588
# Shear Modulus (GPa) = 11.34857 127.11983 69.23420
#
# Velocity S-wave (km/s) = 2.37404 7.94557 5.86379
# Velocity P-wave (km/s) = 6.40285 10.87302 8.92242
#
# Compressibility (1/GPa) = 0.01483298
#
# Stress axis : x y z
#
# Youngs Moduli (GPa) = 58.93687 58.93958 55.99778
#
# Poissons Ratio (x) = 0.44102 0.30792
# Poissons Ratio (y) = 0.44100 0.30788
# Poissons Ratio (z) = 0.32408 0.32405
#
# Static dielectric constant tensor:
#      x y z
#    x 1.771940 0.000000 0.000000 
#    y 0.000000 1.771940 0.000000 
#    z 0.000000 0.000000 1.713310 
# 
# From -- ./inp_files/5472.got.cif
#   From: 2010.05.17/outbox.cif.g08.bks.cpg/sg139_3_cif.got.tgz:5472.got - 2010.05.20 13:14:44.
