data_PCOD9571236
_publ_section_title
;
Structure prediction by ZEFSAII (Michael W. Deem and Ramdas Pophale) SiO2 
 PCOD9571236
Probable space group: I 4/M M M
;
_chemical_formula_sum "Si O2"
_cell_formula_units_Z 160
_cell_length_a 22.287987
_cell_length_b 22.287987
_cell_length_c 16.814937
_cell_angle_alpha 90.000000
_cell_angle_beta 90.000000
_cell_angle_gamma 90.000000
_cell_volume 8352.893344
_symmetry_space_group_name_H-M "I 4/M M M"
_symmetry_group_IT_number 139
_symmetry_cell_setting 'tetragonal'
loop_
_space_group_symop_operation_xyz
x,y,z
-y,x,z
-x,-y,z
y,-x,z
x,-y,-z
-x,y,-z
y,x,-z
-y,-x,-z
-x,-y,-z
y,-x,-z
x,y,-z
-y,x,-z
-x,y,z
x,-y,z
-y,-x,z
y,x,z
1/2+x,1/2+y,1/2+z
1/2-y,1/2+x,1/2+z
1/2-x,1/2-y,1/2+z
1/2+y,1/2-x,1/2+z
1/2+x,1/2-y,1/2-z
1/2-x,1/2+y,1/2-z
1/2+y,1/2+x,1/2-z
1/2-y,1/2-x,1/2-z
1/2-x,1/2-y,1/2-z
1/2+y,1/2-x,1/2-z
1/2+x,1/2+y,1/2-z
1/2-y,1/2+x,1/2-z
1/2-x,1/2+y,1/2+z
1/2+x,1/2-y,1/2+z
1/2-y,1/2-x,1/2+z
1/2+y,1/2+x,1/2+z
loop_
_atom_site_type_symbol
_atom_site_label
_atom_site_fract_x
_atom_site_fract_y
_atom_site_fract_z
Si Si1 0.124398 0.398546 0.333804
Si Si2 0.069580 0.288572 0.406615
Si Si3 0.933432 0.358551 0.000000
Si Si4 0.167433 0.069968 0.322022
Si Si5 0.236225 0.859833 0.000000
Si Si6 0.070937 0.235146 0.841788
O O1 0.091216 0.408785 0.250000
O O2 0.113580 0.328873 0.354376
O O3 0.105348 0.428523 0.417524
O O4 0.194330 0.415476 0.326013
O O5 0.076842 0.300404 0.500000
O O6 0.079093 0.219345 0.386901
O O7 0.000000 0.302666 0.384589
O O8 0.880786 0.307329 0.000000
O O9 0.000000 0.329312 0.000000
O O10 0.111427 0.111427 0.337021
O O11 0.197557 0.084895 0.236879
O O12 0.151538 0.000000 0.320978
O O13 0.215261 0.891603 0.918707
O O14 0.207688 0.792313 0.000000
O O15 0.000000 0.229703 0.857320
#
# Coordination Sequence:
#
# PCOD9571236 Si02
#       6
#    32  32  16  32  16  32
#     4  11  19  33  60  86 114 152 201 240 284 348
#     4  10  21  38  58  81 112 152 191 234 286 345
#     4  10  22  38  57  84 120 154 193 240 291 346
#     4  10  21  38  60  85 114 147 187 234 285 343
#     4  10  18  30  50  75 109 147 188 230 272 329
#     4  10  20  35  55  80 113 153 193 234 287 343
#
# _framework density 19.15504
#
# number of rings (size 3 to 8) (size 9 to 14) (size 15 to 20)
#    0.000    1.800    3.000    3.300    0.000    1.400 
#    0.000    6.000    0.000    3.000    0.000    8.400 
#    0.000   16.200    0.000    0.000    0.000    0.000 
#
# Total GULP energy -445734.003389 kJ/mol
# GULP energy per Si atom -5571.675042 kJ/mol
# Density = 1.911144 g / cm^3
# Si number density = 19.155040 Si / 1000 Ang^3
#
#
#
# Elastic Constant Matrix: (Units=GPa)
#
#
# Indices 1 2 3 4 5 6 
#
# 1 30.9093 30.4189 8.4333 0.0000 0.0000 0.0000
# 2 30.4189 30.9105 8.4332 0.0000 0.0000 0.0000
# 3 8.4333 8.4332 100.7740 0.0000 0.0000 0.0000
# 4 0.0000 0.0000 0.0000 16.2282 0.0000 0.0000
# 5 0.0000 0.0000 0.0000 0.0000 16.2276 0.0000
# 6 0.0000 0.0000 0.0000 0.0000 0.0000 8.9520
#
#
#
# Elastic Compliance Matrix: (Units=1/GPa)
#
#
# Indices 1 2 3 4 5 6 
#
# 1 1.026584 -1.009873 -0.001399 0.000000 0.000000 0.000000
# 2 -1.009873 1.026541 -0.001394 0.000000 0.000000 0.000000
# 3 -0.001399 -0.001394 0.010157 0.000000 0.000000 0.000000
# 4 0.000000 0.000000 0.000000 0.061621 0.000000 0.000000
# 5 0.000000 0.000000 0.000000 0.000000 0.061623 0.000000
# 6 0.000000 0.000000 0.000000 0.000000 0.000000 0.111706
#
#
# Mechanical properties :
#
#
# Convention : Reuss Voigt Hill
#
# Bulk Modulus (GPa) = 26.35073 28.57383 27.46228
# Shear Modulus (GPa) = 1.15308 15.96881 8.56094
#
# Velocity S-wave (km/s) = 0.77671 2.89045 2.11636
# Velocity P-wave (km/s) = 3.81979 5.10775 4.50998
#
# Compressibility (1/GPa) = 0.03794962
#
# Stress axis : x y z
#
# Youngs Moduli (GPa) = 0.97410 0.97415 98.45476
#
# Poissons Ratio (x) = 0.98376 0.13777
# Poissons Ratio (y) = 0.98372 0.13725
# Poissons Ratio (z) = 0.00136 0.00136
#
# Static dielectric constant tensor:
#      x y z
#    x 1.659620 0.000000 0.000000 
#    y 0.000000 1.659620 0.000000 
#    z 0.000000 0.000000 1.725090 
# 
# From -- ./inp_files/8488.got.cif
#   From: 2010.05.17/outbox.cif.g08.bks.cpg/sg139_5_cif.got.tgz:8488.got - 2010.05.20 13:14:44.
