data_PCOD9571655
_publ_section_title
;
Structure prediction by ZEFSAII (Michael W. Deem and Ramdas Pophale) SiO2 
 PCOD9571655
Probable space group: I 4/M M M
;
_chemical_formula_sum "Si O2"
_cell_formula_units_Z 192
_cell_length_a 19.993121
_cell_length_b 19.993121
_cell_length_c 26.763530
_cell_angle_alpha 90.000000
_cell_angle_beta 90.000000
_cell_angle_gamma 90.000000
_cell_volume 10698.049014
_symmetry_space_group_name_H-M "I 4/M M M"
_symmetry_group_IT_number 139
_symmetry_cell_setting 'tetragonal'
loop_
_space_group_symop_operation_xyz
x,y,z
-y,x,z
-x,-y,z
y,-x,z
x,-y,-z
-x,y,-z
y,x,-z
-y,-x,-z
-x,-y,-z
y,-x,-z
x,y,-z
-y,x,-z
-x,y,z
x,-y,z
-y,-x,z
y,x,z
1/2+x,1/2+y,1/2+z
1/2-y,1/2+x,1/2+z
1/2-x,1/2-y,1/2+z
1/2+y,1/2-x,1/2+z
1/2+x,1/2-y,1/2-z
1/2-x,1/2+y,1/2-z
1/2+y,1/2+x,1/2-z
1/2-y,1/2-x,1/2-z
1/2-x,1/2-y,1/2-z
1/2+y,1/2-x,1/2-z
1/2+x,1/2+y,1/2-z
1/2-y,1/2+x,1/2-z
1/2-x,1/2+y,1/2+z
1/2+x,1/2-y,1/2+z
1/2-y,1/2-x,1/2+z
1/2+y,1/2+x,1/2+z
loop_
_atom_site_type_symbol
_atom_site_label
_atom_site_fract_x
_atom_site_fract_y
_atom_site_fract_z
Si Si1 0.819704 0.077188 0.761869
Si Si2 0.920101 0.808820 0.876364
Si Si3 0.420219 0.821902 0.441848
Si Si4 0.575597 0.684295 0.059918
Si Si5 0.578849 0.827209 0.113974
Si Si6 0.273814 0.168134 0.300913
O O1 0.894401 0.105599 0.763796
O O2 0.791288 0.090643 0.817676
O O3 0.780804 0.115820 0.719140
O O4 0.816749 0.000000 0.752120
O O5 0.871916 0.871916 0.887631
O O6 0.903185 0.744921 0.910352
O O7 0.000000 0.823958 0.882129
O O8 0.403638 0.811709 0.500000
O O9 0.500000 0.831036 0.437318
O O10 0.382301 0.886568 0.420894
O O11 0.500000 0.659684 0.069745
O O12 0.631220 0.631220 0.076278
O O13 0.583363 0.755292 0.086661
O O14 0.581784 0.693434 0.000000
O O15 0.500000 0.839853 0.124577
O O16 0.627585 0.820418 0.161682
O O17 0.232923 0.232923 0.321548
O O18 0.309232 0.190769 0.250000
#
# Coordination Sequence:
#
# PCOD9571655 Si02
#       6
#    32  32  32  32  32  32
#     4   9  17  30  49  73 103 138 172 207 247 292
#     4   9  18  33  54  81 112 144 178 216 260 315
#     4  10  22  39  57  77 102 134 173 217 267 324
#     4   9  18  32  50  75 107 140 174 211 251 298
#     4  11  22  36  56  79 103 133 172 221 271 313
#     4  10  20  34  53  77 105 136 171 210 255 311
#
# _framework density 17.947198
#
# number of rings (size 3 to 8) (size 9 to 14) (size 15 to 20)
#    0.000    2.333    0.000    2.500    0.000    4.833 
#    0.000    4.167    0.000    0.000    0.000    4.667 
#    0.000    0.000    0.000    0.000    0.000    0.000 
#
# Total GULP energy -535282.588524 kJ/mol
# GULP energy per Si atom -5575.860297 kJ/mol
# Density = 1.790635 g / cm^3
# Si number density = 17.947198 Si / 1000 Ang^3
#
#
#
# Elastic Constant Matrix: (Units=GPa)
#
#
# Indices 1 2 3 4 5 6 
#
# 1 66.2619 -5.6540 4.4643 0.0000 0.0000 0.0000
# 2 -5.6540 66.2798 4.4704 0.0000 0.0000 0.0000
# 3 4.4643 4.4704 19.6097 0.0000 0.0000 0.0000
# 4 0.0000 0.0000 0.0000 23.7684 0.0000 0.0000
# 5 0.0000 0.0000 0.0000 0.0000 23.7685 0.0000
# 6 0.0000 0.0000 0.0000 0.0000 0.0000 29.4883
#
#
#
# Elastic Compliance Matrix: (Units=1/GPa)
#
#
# Indices 1 2 3 4 5 6 
#
# 1 0.015489 0.001583 -0.003887 0.000000 0.000000 0.000000
# 2 0.001583 0.015485 -0.003891 0.000000 0.000000 0.000000
# 3 -0.003887 -0.003891 0.052767 0.000000 0.000000 0.000000
# 4 0.000000 0.000000 0.000000 0.042073 0.000000 0.000000
# 5 0.000000 0.000000 0.000000 0.000000 0.042073 0.000000
# 6 0.000000 0.000000 0.000000 0.000000 0.000000 0.033912
#
#
# Mechanical properties :
#
#
# Convention : Reuss Voigt Hill
#
# Bulk Modulus (GPa) = 14.01498 17.63473 15.82486
# Shear Modulus (GPa) = 21.01106 25.32977 23.17041
#
# Velocity S-wave (km/s) = 3.42528 3.76087 3.59699
# Velocity P-wave (km/s) = 4.84452 5.35780 5.10761
#
# Compressibility (1/GPa) = 0.07135223
#
# Stress axis : x y z
#
# Youngs Moduli (GPa) = 64.56346 64.57843 18.95126
#
# Poissons Ratio (x) = -0.10226 0.07366
# Poissons Ratio (y) = -0.10223 0.07373
# Poissons Ratio (z) = 0.25096 0.25125
#
# Static dielectric constant tensor:
#      x y z
#    x 1.611600 0.000000 0.000000 
#    y 0.000000 1.611600 0.000000 
#    z 0.000000 0.000000 1.626250 
# 
# From -- ./inp_files/11935.got.cif
#   From: 2010.05.17/outbox.cif.g08.bks.cpg/sg139_6_cif.got.tgz:11935.got - 2010.05.20 13:14:44.
