data_PCOD9571153
_publ_section_title
;
Structure prediction by ZEFSAII (Michael W. Deem and Ramdas Pophale) SiO2 
 PCOD9571153
Probable space group: I 4/M M M
;
_chemical_formula_sum "Si O2"
_cell_formula_units_Z 192
_cell_length_a 24.470720
_cell_length_b 24.470720
_cell_length_c 14.783740
_cell_angle_alpha 90.000000
_cell_angle_beta 90.000000
_cell_angle_gamma 90.000000
_cell_volume 8852.742082
_symmetry_space_group_name_H-M "I 4/M M M"
_symmetry_group_IT_number 139
_symmetry_cell_setting 'tetragonal'
loop_
_space_group_symop_operation_xyz
x,y,z
-y,x,z
-x,-y,z
y,-x,z
x,-y,-z
-x,y,-z
y,x,-z
-y,-x,-z
-x,-y,-z
y,-x,-z
x,y,-z
-y,x,-z
-x,y,z
x,-y,z
-y,-x,z
y,x,z
1/2+x,1/2+y,1/2+z
1/2-y,1/2+x,1/2+z
1/2-x,1/2-y,1/2+z
1/2+y,1/2-x,1/2+z
1/2+x,1/2-y,1/2-z
1/2-x,1/2+y,1/2-z
1/2+y,1/2+x,1/2-z
1/2-y,1/2-x,1/2-z
1/2-x,1/2-y,1/2-z
1/2+y,1/2-x,1/2-z
1/2+x,1/2+y,1/2-z
1/2-y,1/2+x,1/2-z
1/2-x,1/2+y,1/2+z
1/2+x,1/2-y,1/2+z
1/2-y,1/2-x,1/2+z
1/2+y,1/2+x,1/2+z
loop_
_atom_site_type_symbol
_atom_site_label
_atom_site_fract_x
_atom_site_fract_y
_atom_site_fract_z
Si Si1 0.343185 0.656816 0.140892
Si Si2 0.558926 0.274119 0.370506
Si Si3 0.936273 0.063728 0.105967
Si Si4 0.438012 0.271180 0.847334
Si Si5 0.820607 0.651084 0.890635
Si Si6 0.353045 0.646956 0.347652
Si Si7 0.559365 0.145972 0.603323
Si Si8 0.245453 0.245453 0.601516
O O1 0.404307 0.675785 0.119971
O O2 0.333803 0.666198 0.249170
O O3 0.301242 0.698759 0.095763
O O4 0.500000 0.298034 0.399174
O O5 0.559344 0.274596 0.261499
O O6 0.613038 0.306436 0.397573
O O7 0.559748 0.211846 0.400356
O O8 0.899222 0.100779 0.168388
O O9 0.000000 0.073692 0.120889
O O10 0.924336 0.075665 0.000000
O O11 0.500000 0.266059 0.881137
O O12 0.398167 0.220729 0.869744
O O13 0.880927 0.635220 0.856012
O O14 0.795760 0.709869 0.857685
O O15 0.823812 0.656412 0.000000
O O16 0.559262 0.124836 0.500000
O O17 0.500000 0.130466 0.644922
O O18 0.262028 0.262028 0.500000
#
# Coordination Sequence:
#
# PCOD9571153 Si02
#       8
#    16  32  16  32  32  16  32  16
#     4   8  16  29  44  66  96 125 151 186 234 281
#     4   9  18  30  43  63  89 118 153 188 228 277
#     4   9  18  30  41  56  81 115 158 206 249 283
#     4   9  17  30  48  69  94 122 153 191 230 272
#     4   9  17  29  47  70  93 119 152 189 231 279
#     4  10  17  27  44  62  85 117 151 193 237 274
#     4   9  18  32  47  63  88 121 153 187 229 278
#     4   8  14  27  46  68  95 122 149 185 229 281
#
# _framework density 21.688195
#
# number of rings (size 3 to 8) (size 9 to 14) (size 15 to 20)
#    0.000    3.083    0.000    0.750    0.000    3.000 
#    0.000    2.500    0.000    6.750    0.000    2.333 
#    0.000    4.000    0.000   13.333    0.000    0.000 
#
# Total GULP energy -534989.522310 kJ/mol
# GULP energy per Si atom -5572.807524 kJ/mol
# Density = 2.163883 g / cm^3
# Si number density = 21.688195 Si / 1000 Ang^3
#
#
#
# Elastic Constant Matrix: (Units=GPa)
#
#
# Indices 1 2 3 4 5 6 
#
# 1 125.4835 54.2665 8.6482 0.0000 0.0000 0.0000
# 2 54.2665 125.4834 8.6483 0.0000 0.0000 0.0000
# 3 8.6482 8.6483 64.5664 0.0000 0.0000 0.0000
# 4 0.0000 0.0000 0.0000 16.3843 0.0000 0.0000
# 5 0.0000 0.0000 0.0000 0.0000 16.3841 0.0000
# 6 0.0000 0.0000 0.0000 0.0000 0.0000 30.4860
#
#
#
# Elastic Compliance Matrix: (Units=1/GPa)
#
#
# Indices 1 2 3 4 5 6 
#
# 1 0.009839 -0.004203 -0.000755 0.000000 0.000000 0.000000
# 2 -0.004203 0.009839 -0.000755 0.000000 0.000000 0.000000
# 3 -0.000755 -0.000755 0.015690 0.000000 0.000000 0.000000
# 4 0.000000 0.000000 0.000000 0.061034 0.000000 0.000000
# 5 0.000000 0.000000 0.000000 0.000000 0.061035 0.000000
# 6 0.000000 0.000000 0.000000 0.000000 0.000000 0.032802
#
#
# Mechanical properties :
#
#
# Convention : Reuss Voigt Hill
#
# Bulk Modulus (GPa) = 41.76685 50.96213 46.36449
# Shear Modulus (GPa) = 23.84991 28.91558 26.38274
#
# Velocity S-wave (km/s) = 3.31973 3.65532 3.49156
# Velocity P-wave (km/s) = 5.83042 6.43147 6.13831
#
# Compressibility (1/GPa) = 0.02394243
#
# Stress axis : x y z
#
# Youngs Moduli (GPa) = 101.63894 101.63879 63.73423
#
# Poissons Ratio (x) = 0.42717 0.04811
# Poissons Ratio (y) = 0.42717 0.04811
# Poissons Ratio (z) = 0.07672 0.07673
#
# Static dielectric constant tensor:
#      x y z
#    x 1.827440 0.000000 0.000000 
#    y 0.000000 1.827440 0.000000 
#    z 0.000000 0.000000 1.811950 
# 
# From -- ./inp_files/10663.got.cif
#   From: 2010.05.17/outbox.cif.g08.bks.cpg/sg139_6_cif.got.tgz:10663.got - 2010.05.20 13:14:44.
