data_PCOD9571579
_publ_section_title
;
Structure prediction by ZEFSAII (Michael W. Deem and Ramdas Pophale) SiO2 
 PCOD9571579
Probable space group: I 4/M M M
;
_chemical_formula_sum "Si O2"
_cell_formula_units_Z 192
_cell_length_a 19.679640
_cell_length_b 19.679640
_cell_length_c 27.722653
_cell_angle_alpha 90.000000
_cell_angle_beta 90.000000
_cell_angle_gamma 90.000000
_cell_volume 10736.657226
_symmetry_space_group_name_H-M "I 4/M M M"
_symmetry_group_IT_number 139
_symmetry_cell_setting 'tetragonal'
loop_
_space_group_symop_operation_xyz
x,y,z
-y,x,z
-x,-y,z
y,-x,z
x,-y,-z
-x,y,-z
y,x,-z
-y,-x,-z
-x,-y,-z
y,-x,-z
x,y,-z
-y,x,-z
-x,y,z
x,-y,z
-y,-x,z
y,x,z
1/2+x,1/2+y,1/2+z
1/2-y,1/2+x,1/2+z
1/2-x,1/2-y,1/2+z
1/2+y,1/2-x,1/2+z
1/2+x,1/2-y,1/2-z
1/2-x,1/2+y,1/2-z
1/2+y,1/2+x,1/2-z
1/2-y,1/2-x,1/2-z
1/2-x,1/2-y,1/2-z
1/2+y,1/2-x,1/2-z
1/2+x,1/2+y,1/2-z
1/2-y,1/2+x,1/2-z
1/2-x,1/2+y,1/2+z
1/2+x,1/2-y,1/2+z
1/2-y,1/2-x,1/2+z
1/2+y,1/2+x,1/2+z
loop_
_atom_site_type_symbol
_atom_site_label
_atom_site_fract_x
_atom_site_fract_y
_atom_site_fract_z
Si Si1 0.920706 0.191049 0.182724
Si Si2 0.425909 0.688728 0.500000
Si Si3 0.145706 0.257878 0.274985
Si Si4 0.892249 0.306908 0.441929
Si Si5 0.079012 0.803882 0.634364
Si Si6 0.750812 0.636025 0.409385
Si Si7 0.421974 0.000000 0.558207
O O1 0.876519 0.123482 0.173314
O O2 0.897318 0.219604 0.234090
O O3 0.900493 0.245895 0.141912
O O4 0.000000 0.177122 0.181101
O O5 0.500000 0.657467 0.500000
O O6 0.368912 0.631089 0.500000
O O7 0.415141 0.734304 0.452775
O O8 0.213955 0.213955 0.285288
O O9 0.172702 0.327299 0.250000
O O10 0.103407 0.249886 0.324182
O O11 0.892985 0.299225 0.500000
O O12 0.916674 0.238783 0.415284
O O13 0.818159 0.323965 0.422207
O O14 0.936696 0.373599 0.429058
O O15 0.132074 0.867927 0.635061
O O16 0.000000 0.823862 0.642677
O O17 0.691186 0.691186 0.408988
O O18 0.500000 0.000000 0.576611
O O19 0.426975 0.000000 0.500000
#
# Coordination Sequence:
#
# PCOD9571579 Si02
#       7
#    32  16  32  32  32  32  16
#     4  10  20  34  53  79 112 148 189 232 277 334
#     4  10  20  33  48  73 109 145 184 228 276 338
#     4   9  18  35  57  82 111 144 187 239 291 341
#     4  11  21  38  59  83 114 149 194 243 301 359
#     4  11  23  38  60  88 121 160 202 251 302 359
#     4  10  20  34  53  79 107 139 184 237 284 331
#     4   9  20  36  54  80 113 145 179 229 292 361
#
# _framework density 17.882660999999999
#
# number of rings (size 3 to 8) (size 9 to 14) (size 15 to 20)
#    0.000    1.917    1.667    2.500    0.000    5.417 
#    0.000    0.000    0.000    6.000    0.000    1.167 
#    0.000    0.000    0.000    0.000    0.000    0.000 
#
# Total GULP energy -534945.517840 kJ/mol
# GULP energy per Si atom -5572.349144 kJ/mol
# Density = 1.784196 g / cm^3
# Si number density = 17.882661 Si / 1000 Ang^3
#
#
#
# Elastic Constant Matrix: (Units=GPa)
#
#
# Indices 1 2 3 4 5 6 
#
# 1 86.6687 25.7084 26.3550 0.0000 0.0000 0.0000
# 2 25.7084 86.6661 26.3509 0.0000 0.0000 0.0000
# 3 26.3550 26.3509 73.2152 0.0000 0.0000 0.0000
# 4 0.0000 0.0000 0.0000 9.2298 0.0000 0.0000
# 5 0.0000 0.0000 0.0000 0.0000 9.2321 0.0000
# 6 0.0000 0.0000 0.0000 0.0000 0.0000 -58.5740
#
#
#
# Elastic Compliance Matrix: (Units=1/GPa)
#
#
# Indices 1 2 3 4 5 6 
#
# 1 0.013555 -0.002849 -0.003854 0.000000 0.000000 0.000000
# 2 -0.002849 0.013555 -0.003853 0.000000 0.000000 0.000000
# 3 -0.003854 -0.003853 0.016432 0.000000 0.000000 0.000000
# 4 0.000000 0.000000 0.000000 0.108345 0.000000 0.000000
# 5 0.000000 0.000000 0.000000 0.000000 0.108318 0.000000
# 6 0.000000 0.000000 0.000000 0.000000 0.000000 -0.017072
#
#
# Mechanical properties :
#
#
# Convention : Reuss Voigt Hill
#
# Bulk Modulus (GPa) = 44.58221 44.81985 44.70103
# Shear Modulus (GPa) = 18.40108 3.18662 10.79385
#
# Velocity S-wave (km/s) = 3.21127 1.33635 2.45948
# Velocity P-wave (km/s) = 6.22368 5.24393 5.75469
#
# Compressibility (1/GPa) = 0.02243047
#
# Stress axis : x y z
#
# Youngs Moduli (GPa) = 73.77187 73.77226 60.85526
#
# Poissons Ratio (x) = 0.21019 0.23454
# Poissons Ratio (y) = 0.21019 0.23448
# Poissons Ratio (z) = 0.28432 0.28425
#
# Static dielectric constant tensor:
#      x y z
#    x 1.632570 0.000000 0.000000 
#    y 0.000000 1.632570 0.000000 
#    z 0.000000 0.000000 1.646600 
# 
# From -- ./inp_files/14372.got.cif
#   From: 2010.05.17/outbox.cif.g08.bks.cpg/sg139_8_cif.got.tgz:14372.got - 2010.05.20 13:14:44.
