data_PCOD9571028
_publ_section_title
;
Structure prediction by ZEFSAII (Michael W. Deem and Ramdas Pophale) SiO2 
 PCOD9571028
Probable space group: P 42/N C M
;
_chemical_formula_sum "Si O2"
_cell_formula_units_Z 92
_cell_length_a 27.591695
_cell_length_b 27.591695
_cell_length_c 7.537853
_cell_angle_alpha 90.000000
_cell_angle_beta 90.000000
_cell_angle_gamma 90.000000
_cell_volume 5738.579798
_symmetry_space_group_name_H-M "P 42/N C M"
_symmetry_group_IT_number 138
_space_group.IT_coordinate_system_code '2'
_symmetry_cell_setting 'tetragonal'
loop_
_space_group_symop_operation_xyz
x,y,z
1/2-y,x,1/2+z
1/2-x,1/2-y,z
y,1/2-x,1/2+z
1/2+x,-y,1/2-z
-x,1/2+y,1/2-z
1/2+y,1/2+x,-z
-y,-x,-z
-x,-y,-z
1/2+y,-x,1/2-z
1/2+x,1/2+y,-z
-y,1/2+x,1/2-z
1/2-x,y,1/2+z
x,1/2-y,1/2+z
1/2-y,1/2-x,z
y,x,z
loop_
_atom_site_type_symbol
_atom_site_label
_atom_site_fract_x
_atom_site_fract_y
_atom_site_fract_z
Si Si1 0.711626 0.594705 0.785909
Si Si2 0.974553 0.605478 0.786962
Si Si3 0.686036 0.686036 0.983226
Si Si4 0.100037 0.320279 0.106694
Si Si5 0.250000 0.250000 0.770907
Si Si6 0.951944 0.465441 0.290691
Si Si7 0.121501 0.459886 0.636360
O O1 0.695969 0.630622 0.943475
O O2 0.769404 0.592120 0.794455
O O3 0.694623 0.613408 0.593852
O O4 0.677380 0.548527 0.818066
O O5 0.937665 0.562336 0.834241
O O6 0.950900 0.650929 0.885740
O O7 0.968149 0.615675 0.575472
O O8 0.027796 0.581838 0.810613
O O9 0.714684 0.714684 0.830479
O O10 0.712256 0.712256 0.143563
O O11 0.142528 0.357473 0.172570
O O12 0.952268 0.452268 0.500000
O O13 0.902413 0.494608 0.261366
O O14 0.993086 0.506915 0.269777
O O15 0.088010 0.411991 0.678141
#
# Coordination Sequence:
#
# PCOD9571028 Si02
#       7
#    16  16   8  16   4  16  16
#     4  12  22  34  44  58  79 105 136 177 221 255
#     4   8  15  28  46  64  81 101 127 161 202 248
#     4  11  22  36  44  56  70  94 133 183 223 264
#     4  11  23  36  44  59  79 106 140 181 219 260
#     4  10  24  34  48  54  64  90 136 184 230 258
#     4   7  11  22  44  66  83  98 122 154 195 246
#     4   9  15  28  45  65  81 102 128 162 202 250
#
# _framework density 16.031841
#
# number of rings (size 3 to 8) (size 9 to 14) (size 15 to 20)
#    0.000    2.435    1.739    4.174    2.435    0.000 
#    1.565    0.870    0.000    4.174    0.000    0.000 
#    0.000    0.000    0.000    0.000    0.000    0.870 
#
# Total GULP energy -512403.062920 kJ/mol
# GULP energy per Si atom -5569.598510 kJ/mol
# Density = 1.599535 g / cm^3
# Si number density = 16.031841 Si / 1000 Ang^3
#
#
#
# Elastic Constant Matrix: (Units=GPa)
#
#
# Indices 1 2 3 4 5 6 
#
# 1 71.3108 58.7554 9.1098 0.0000 0.0000 0.0000
# 2 58.7554 71.3108 9.1098 0.0000 0.0000 0.0000
# 3 9.1098 9.1098 21.8915 0.0000 0.0000 0.0000
# 4 0.0000 0.0000 0.0000 14.9712 0.0000 0.0000
# 5 0.0000 0.0000 0.0000 0.0000 14.9712 0.0000
# 6 0.0000 0.0000 0.0000 0.0000 0.0000 34.0699
#
#
#
# Elastic Compliance Matrix: (Units=1/GPa)
#
#
# Indices 1 2 3 4 5 6 
#
# 1 0.043905 -0.035741 -0.003397 0.000000 0.000000 0.000000
# 2 -0.035741 0.043905 -0.003397 0.000000 0.000000 0.000000
# 3 -0.003397 -0.003397 0.048507 0.000000 0.000000 0.000000
# 4 0.000000 0.000000 0.000000 0.066795 0.000000 0.000000
# 5 0.000000 0.000000 0.000000 0.000000 0.066795 0.000000
# 6 0.000000 0.000000 0.000000 0.000000 0.000000 0.029351
#
#
# Mechanical properties :
#
#
# Convention : Reuss Voigt Hill
#
# Bulk Modulus (GPa) = 19.51364 35.38480 27.44922
# Shear Modulus (GPa) = 12.45599 18.63835 15.54717
#
# Velocity S-wave (km/s) = 2.79041 3.41337 3.11749
# Velocity P-wave (km/s) = 4.75185 6.13631 5.48791
#
# Compressibility (1/GPa) = 0.05124621
#
# Stress axis : x y z
#
# Youngs Moduli (GPa) = 22.77622 22.77622 20.61539
#
# Poissons Ratio (x) = 0.81405 0.07004
# Poissons Ratio (y) = 0.81405 0.07004
# Poissons Ratio (z) = 0.07738 0.07738
#
# Static dielectric constant tensor:
#      x y z
#    x 1.557740 0.000000 0.000000 
#    y 0.000000 1.557740 0.000000 
#    z 0.000000 0.000000 1.671170 
# 
# From -- ./inp_files/1867.got.cif
#   From: 2010.05.17/outbox.cif.g08.bks.cpg/sg138_1_cif.got.tgz:1867.got - 2010.05.20 13:08:53.
