data_PCOD9571246
_publ_section_title
;
Structure prediction by ZEFSAII (Michael W. Deem and Ramdas Pophale) SiO2 
 PCOD9571246
Probable space group: I 4/M M M
;
_chemical_formula_sum "Si O2"
_cell_formula_units_Z 176
_cell_length_a 27.250038
_cell_length_b 27.250038
_cell_length_c 15.222651
_cell_angle_alpha 90.000000
_cell_angle_beta 90.000000
_cell_angle_gamma 90.000000
_cell_volume 11303.801309
_symmetry_space_group_name_H-M "I 4/M M M"
_symmetry_group_IT_number 139
_symmetry_cell_setting 'tetragonal'
loop_
_space_group_symop_operation_xyz
x,y,z
-y,x,z
-x,-y,z
y,-x,z
x,-y,-z
-x,y,-z
y,x,-z
-y,-x,-z
-x,-y,-z
y,-x,-z
x,y,-z
-y,x,-z
-x,y,z
x,-y,z
-y,-x,z
y,x,z
1/2+x,1/2+y,1/2+z
1/2-y,1/2+x,1/2+z
1/2-x,1/2-y,1/2+z
1/2+y,1/2-x,1/2+z
1/2+x,1/2-y,1/2-z
1/2-x,1/2+y,1/2-z
1/2+y,1/2+x,1/2-z
1/2-y,1/2-x,1/2-z
1/2-x,1/2-y,1/2-z
1/2+y,1/2-x,1/2-z
1/2+x,1/2+y,1/2-z
1/2-y,1/2+x,1/2-z
1/2-x,1/2+y,1/2+z
1/2+x,1/2-y,1/2+z
1/2-y,1/2-x,1/2+z
1/2+y,1/2+x,1/2+z
loop_
_atom_site_type_symbol
_atom_site_label
_atom_site_fract_x
_atom_site_fract_y
_atom_site_fract_z
Si Si1 0.346063 0.267499 0.500000
Si Si2 0.944234 0.440878 0.000000
Si Si3 0.290860 0.372790 0.314782
Si Si4 0.440755 0.115566 0.174649
Si Si5 0.057072 0.135544 0.101094
Si Si6 0.296244 0.136118 0.314112
Si Si7 0.735203 0.815574 0.500000
O O1 0.322243 0.322243 0.500000
O O2 0.372447 0.261952 0.592479
O O3 0.302443 0.229340 0.500000
O O4 0.912869 0.428014 0.914932
O O5 0.948150 0.500000 0.000000
O O6 0.000000 0.421209 0.000000
O O7 0.321917 0.321917 0.305917
O O8 0.329993 0.415572 0.329876
O O9 0.252918 0.378766 0.237204
O O10 0.500000 0.122673 0.180413
O O11 0.420393 0.079607 0.250000
O O12 0.409141 0.165646 0.178046
O O13 0.083060 0.083060 0.105113
O O14 0.000000 0.133142 0.116737
O O15 0.064989 0.153736 0.000000
O O16 0.323387 0.176614 0.250000
O O17 0.278809 0.155764 0.409844
O O18 0.789484 0.789484 0.500000
#
# Coordination Sequence:
#
# PCOD9571246 Si02
#       7
#    16  16  32  32  32  32  16
#     4   9  16  27  48  69  92 125 164 204 234 277
#     4   9  17  32  56  76  88 114 156 198 244 301
#     4  10  18  31  49  70  97 135 175 204 238 296
#     4  10  21  36  53  74  99 126 160 206 257 306
#     4   9  17  29  47  72 101 133 169 209 252 300
#     4  11  22  33  49  74 102 133 165 209 257 301
#     4  11  21  33  50  73 100 129 167 211 252 296
#
# _framework density 15.569984
#
# number of rings (size 3 to 8) (size 9 to 14) (size 15 to 20)
#    0.000    2.091    2.727    1.636    0.000    2.545 
#    0.000    0.909    0.000    0.000    0.000    0.000 
#    0.000    0.000    0.000    0.000    0.000    8.364 
#
# Total GULP energy -489915.493661 kJ/mol
# GULP energy per Si atom -5567.221519 kJ/mol
# Density = 1.553455 g / cm^3
# Si number density = 15.569984 Si / 1000 Ang^3
#
#
#
# Elastic Constant Matrix: (Units=GPa)
#
#
# Indices 1 2 3 4 5 6 
#
# 1 96.2534 46.6451 55.0923 0.0000 0.0000 0.0000
# 2 46.6451 96.2537 55.0924 0.0000 0.0000 0.0000
# 3 55.0923 55.0924 133.4672 0.0000 0.0000 0.0000
# 4 0.0000 0.0000 0.0000 16.1199 0.0000 0.0000
# 5 0.0000 0.0000 0.0000 0.0000 16.1211 0.0000
# 6 0.0000 0.0000 0.0000 0.0000 0.0000 14.1812
#
#
#
# Elastic Compliance Matrix: (Units=1/GPa)
#
#
# Indices 1 2 3 4 5 6 
#
# 1 0.015212 -0.004946 -0.004237 0.000000 0.000000 0.000000
# 2 -0.004946 0.015211 -0.004237 0.000000 0.000000 0.000000
# 3 -0.004237 -0.004237 0.010991 0.000000 0.000000 0.000000
# 4 0.000000 0.000000 0.000000 0.062035 0.000000 0.000000
# 5 0.000000 0.000000 0.000000 0.000000 0.062031 0.000000
# 6 0.000000 0.000000 0.000000 0.000000 0.000000 0.070516
#
#
# Mechanical properties :
#
#
# Convention : Reuss Voigt Hill
#
# Bulk Modulus (GPa) = 68.62501 71.07041 69.84771
# Shear Modulus (GPa) = 18.67802 20.56072 19.61937
#
# Velocity S-wave (km/s) = 3.46731 3.63786 3.55361
# Velocity P-wave (km/s) = 7.75890 7.96180 7.86100
#
# Compressibility (1/GPa) = 0.01457195
#
# Stress axis : x y z
#
# Youngs Moduli (GPa) = 65.73956 65.73979 90.98718
#
# Poissons Ratio (x) = 0.32517 0.38554
# Poissons Ratio (y) = 0.32517 0.38553
# Poissons Ratio (z) = 0.27855 0.27855
#
# Static dielectric constant tensor:
#      x y z
#    x 1.521530 0.000000 0.000000 
#    y 0.000000 1.521530 0.000000 
#    z 0.000000 0.000000 1.547410 
# 
# From -- ./inp_files/4059.got.cif
#   From: 2010.05.17/outbox.cif.g08.bks.cpg/sg139_3_cif.got.tgz:4059.got - 2010.05.20 13:14:44.
