data_PCOD9571987
_publ_section_title
;
Structure prediction by ZEFSAII (Michael W. Deem and Ramdas Pophale) SiO2 
 PCOD9571987
Probable space group: I 4/M C M
;
_chemical_formula_sum "Si O2"
_cell_formula_units_Z 128
_cell_length_a 19.564523
_cell_length_b 19.564523
_cell_length_c 16.973044
_cell_angle_alpha 90.000000
_cell_angle_beta 90.000000
_cell_angle_gamma 90.000000
_cell_volume 6496.781560
_symmetry_space_group_name_H-M "I 4/M C M"
_symmetry_group_IT_number 140
_symmetry_cell_setting 'tetragonal'
loop_
_space_group_symop_operation_xyz
x,y,z
-y,x,z
-x,-y,z
y,-x,z
x,-y,1/2-z
-x,y,1/2-z
y,x,1/2-z
-y,-x,1/2-z
-x,-y,-z
y,-x,-z
x,y,-z
-y,x,-z
-x,y,1/2+z
x,-y,1/2+z
-y,-x,1/2+z
y,x,1/2+z
1/2+x,1/2+y,1/2+z
1/2-y,1/2+x,1/2+z
1/2-x,1/2-y,1/2+z
1/2+y,1/2-x,1/2+z
1/2+x,1/2-y,-z
1/2-x,1/2+y,-z
1/2+y,1/2+x,-z
1/2-y,1/2-x,-z
1/2-x,1/2-y,1/2-z
1/2+y,1/2-x,1/2-z
1/2+x,1/2+y,1/2-z
1/2-y,1/2+x,1/2-z
1/2-x,1/2+y,z
1/2+x,1/2-y,z
1/2-y,1/2-x,z
1/2+y,1/2+x,z
loop_
_atom_site_type_symbol
_atom_site_label
_atom_site_fract_x
_atom_site_fract_y
_atom_site_fract_z
Si Si1 0.986417 0.886432 0.089154
Si Si2 0.094015 0.217937 0.832181
Si Si3 0.743144 0.360235 0.000000
Si Si4 0.641279 0.258073 0.330802
Si Si5 0.254164 0.131021 0.500000
O O1 0.969156 0.832874 0.155930
O O2 0.056571 0.927048 0.095403
O O3 0.983236 0.857448 0.000000
O O4 0.166335 0.175625 0.831545
O O5 0.096817 0.252889 0.747301
O O6 0.095262 0.259079 0.914692
O O7 0.748433 0.396062 0.915452
O O8 0.671665 0.318593 0.000000
O O9 0.802903 0.302903 0.000000
O O10 0.703789 0.203789 0.328461
O O11 0.310801 0.189200 0.500000
#
# Coordination Sequence:
#
# PCOD9571987 Si02
#       5
#    32  32  16  32  16
#     4   9  18  32  45  56  74 104 148 199 234 247
#     4  10  15  24  40  60  73 100 126 155 215 264
#     4   7  12  22  34  48  71 101 115 127 166 230
#     4   9  16  25  38  59  85  99 112 144 197 263
#     4   9  14  20  34  59  85  95 109 142 196 264
#
# _framework density 19.702064
#
# number of rings (size 3 to 8) (size 9 to 14) (size 15 to 20)
#    0.000    3.000    1.250    5.250    0.000    0.000 
#    0.000    5.000    0.000    6.000    0.000    0.000 
#    0.000    0.000    0.000    0.000    0.000    0.000 
#
# Total GULP energy -356602.635119 kJ/mol
# GULP energy per Si atom -5571.916174 kJ/mol
# Density = 1.965722 g / cm^3
# Si number density = 19.702064 Si / 1000 Ang^3
#
#
#
# Elastic Constant Matrix: (Units=GPa)
#
#
# Indices 1 2 3 4 5 6 
#
# 1 12.9131 21.5578 23.1834 0.0000 0.0000 0.0000
# 2 21.5578 12.9131 23.1835 0.0000 0.0000 0.0000
# 3 23.1834 23.1835 216.5694 0.0000 0.0000 0.0000
# 4 0.0000 0.0000 0.0000 20.1776 0.0000 0.0000
# 5 0.0000 0.0000 0.0000 0.0000 20.1776 0.0000
# 6 0.0000 0.0000 0.0000 0.0000 0.0000 28.0804
#
#
#
# Elastic Compliance Matrix: (Units=1/GPa)
#
#
# Indices 1 2 3 4 5 6 
#
# 1 -0.040893 0.074783 -0.003628 0.000000 0.000000 0.000000
# 2 0.074783 -0.040893 -0.003628 0.000000 0.000000 0.000000
# 3 -0.003628 -0.003628 0.005394 0.000000 0.000000 0.000000
# 4 0.000000 0.000000 0.000000 0.049560 0.000000 0.000000
# 5 0.000000 0.000000 0.000000 0.000000 0.049560 0.000000
# 6 0.000000 0.000000 0.000000 0.000000 0.000000 0.035612
#
#
# Mechanical properties :
#
#
# Convention : Reuss Voigt Hill
#
# Bulk Modulus (GPa) = 17.04670 42.02721 29.53695
# Shear Modulus (GPa) = -87.47067 25.31851 -31.07608
#
# Velocity S-wave (km/s) = -6.67031 3.58868 -3.97583
# Velocity P-wave (km/s) = 7.11710 6.20880 2.46008
#
# Compressibility (1/GPa) = 0.05866239
#
# Stress axis : x y z
#
# Youngs Moduli (GPa) = -24.45378 -24.45378 185.38531
#
# Poissons Ratio (x) = 1.82873 0.67255
# Poissons Ratio (y) = 1.82873 0.67255
# Poissons Ratio (z) = -0.08872 -0.08871
#
# Static dielectric constant tensor:
#      x y z
#    x 1.704890 0.000000 0.000000 
#    y 0.000000 1.704890 0.000000 
#    z 0.000000 0.000000 1.803270 
# 
# From -- ./inp_files/6526.got.cif
#   From: 2010.05.17/outbox.cif.g08.bks.cpg/sg140_4_cif.got.tgz:6526.got - 2010.06.21 00:45:31.
