data_PCOD9571948
_publ_section_title
;
Structure prediction by ZEFSAII (Michael W. Deem and Ramdas Pophale) SiO2 
 PCOD9571948
Probable space group: I 4/M M M
;
_chemical_formula_sum "Si O2"
_cell_formula_units_Z 56
_cell_length_a 15.348774
_cell_length_b 15.348774
_cell_length_c 9.037031
_cell_angle_alpha 90.000000
_cell_angle_beta 90.000000
_cell_angle_gamma 90.000000
_cell_volume 2128.987713
_symmetry_space_group_name_H-M "I 4/M M M"
_symmetry_group_IT_number 139
_symmetry_cell_setting 'tetragonal'
loop_
_space_group_symop_operation_xyz
x,y,z
-y,x,z
-x,-y,z
y,-x,z
x,-y,-z
-x,y,-z
y,x,-z
-y,-x,-z
-x,-y,-z
y,-x,-z
x,y,-z
-y,x,-z
-x,y,z
x,-y,z
-y,-x,z
y,x,z
1/2+x,1/2+y,1/2+z
1/2-y,1/2+x,1/2+z
1/2-x,1/2-y,1/2+z
1/2+y,1/2-x,1/2+z
1/2+x,1/2-y,1/2-z
1/2-x,1/2+y,1/2-z
1/2+y,1/2+x,1/2-z
1/2-y,1/2-x,1/2-z
1/2-x,1/2-y,1/2-z
1/2+y,1/2-x,1/2-z
1/2+x,1/2+y,1/2-z
1/2-y,1/2+x,1/2-z
1/2-x,1/2+y,1/2+z
1/2+x,1/2-y,1/2+z
1/2-y,1/2-x,1/2+z
1/2+y,1/2+x,1/2+z
loop_
_atom_site_type_symbol
_atom_site_label
_atom_site_fract_x
_atom_site_fract_y
_atom_site_fract_z
Si Si1 0.667056 0.811824 0.500000
Si Si2 0.500000 0.646904 0.329231
Si Si3 0.596153 0.903848 0.250000
Si Si4 0.265607 0.500000 0.000000
O O1 0.731086 0.731086 0.500000
O O2 0.606726 0.823400 0.358396
O O3 0.720514 0.903409 0.500000
O O4 0.414721 0.585280 0.327866
O O5 0.500000 0.684724 0.500000
O O6 0.500000 0.689551 0.163798
O O7 0.500000 0.900971 0.179447
#
# Coordination Sequence:
#
# PCOD9571948 Si02
#       4
#    16  16  16   8
#     4  12  25  44  71 112 149 187 249 320 397 464
#     4   9  18  34  58  89 131 189 248 296 353 443
#     4  11  23  48  78 106 143 193 256 318 382 461
#     4  12  22  41  63 102 146 202 238 296 386 457
#
# _framework density 26.303583
#
# number of rings (size 3 to 8) (size 9 to 14) (size 15 to 20)
#    0.000    1.143    2.857    5.143    0.000    3.429 
#    5.143    0.000    0.000    0.000    0.000    0.000 
#    0.000    2.286    0.000    0.000    0.000    0.000 
#
# Total GULP energy -156293.190761 kJ/mol
# GULP energy per Si atom -5581.899670 kJ/mol
# Density = 2.624371 g / cm^3
# Si number density = 26.303583 Si / 1000 Ang^3
#
#
#
# Elastic Constant Matrix: (Units=GPa)
#
#
# Indices 1 2 3 4 5 6 
#
# 1 102.4033 63.0844 57.9702 0.0000 0.0000 0.0000
# 2 63.0844 102.4015 57.9695 0.0000 0.0000 0.0000
# 3 57.9702 57.9695 223.0721 0.0000 0.0000 0.0000
# 4 0.0000 0.0000 0.0000 54.7308 0.0000 0.0000
# 5 0.0000 0.0000 0.0000 0.0000 54.7321 0.0000
# 6 0.0000 0.0000 0.0000 0.0000 0.0000 -4.2374
#
#
#
# Elastic Compliance Matrix: (Units=1/GPa)
#
#
# Indices 1 2 3 4 5 6 
#
# 1 0.016411 -0.009023 -0.001920 0.000000 0.000000 0.000000
# 2 -0.009023 0.016411 -0.001920 0.000000 0.000000 0.000000
# 3 -0.001920 -0.001920 0.005481 0.000000 0.000000 0.000000
# 4 0.000000 0.000000 0.000000 0.018271 0.000000 0.000000
# 5 0.000000 0.000000 0.000000 0.000000 0.018271 0.000000
# 6 0.000000 0.000000 0.000000 0.000000 0.000000 -0.235996
#
#
# Mechanical properties :
#
#
# Convention : Reuss Voigt Hill
#
# Bulk Modulus (GPa) = 79.51111 87.32499 83.41805
# Shear Modulus (GPa) = -38.09979 37.63530 -0.23224
#
# Velocity S-wave (km/s) = -3.81000 3.78670 -0.29746
# Velocity P-wave (km/s) = 3.30743 7.23808 5.62712
#
# Compressibility (1/GPa) = 0.01257686
#
# Stress axis : x y z
#
# Youngs Moduli (GPa) = 60.93622 60.93521 182.45854
#
# Poissons Ratio (x) = 0.54981 0.35030
# Poissons Ratio (y) = 0.54982 0.35030
# Poissons Ratio (z) = 0.11699 0.11699
#
# Static dielectric constant tensor:
#      x y z
#    x 2.036890 0.000000 0.000000 
#    y 0.000000 2.036890 0.000000 
#    z 0.000000 0.000000 2.253270 
# 
# From -- ./inp_files/535.got.cif
#   From: 2010.05.17/outbox.cif.g08.bks.cpg/sg139_1_cif.got.tgz:535.got - 2010.05.20 13:14:44.
