data_PCOD9571359
_publ_section_title
;
Structure prediction by ZEFSAII (Michael W. Deem and Ramdas Pophale) SiO2 
 PCOD9571359
Probable space group: I 4/M M M
;
_chemical_formula_sum "Si O2"
_cell_formula_units_Z 192
_cell_length_a 25.979121
_cell_length_b 25.979121
_cell_length_c 17.913938
_cell_angle_alpha 90.000000
_cell_angle_beta 90.000000
_cell_angle_gamma 90.000000
_cell_volume 12090.380591
_symmetry_space_group_name_H-M "I 4/M M M"
_symmetry_group_IT_number 139
_symmetry_cell_setting 'tetragonal'
loop_
_space_group_symop_operation_xyz
x,y,z
-y,x,z
-x,-y,z
y,-x,z
x,-y,-z
-x,y,-z
y,x,-z
-y,-x,-z
-x,-y,-z
y,-x,-z
x,y,-z
-y,x,-z
-x,y,z
x,-y,z
-y,-x,z
y,x,z
1/2+x,1/2+y,1/2+z
1/2-y,1/2+x,1/2+z
1/2-x,1/2-y,1/2+z
1/2+y,1/2-x,1/2+z
1/2+x,1/2-y,1/2-z
1/2-x,1/2+y,1/2-z
1/2+y,1/2+x,1/2-z
1/2-y,1/2-x,1/2-z
1/2-x,1/2-y,1/2-z
1/2+y,1/2-x,1/2-z
1/2+x,1/2+y,1/2-z
1/2-y,1/2+x,1/2-z
1/2-x,1/2+y,1/2+z
1/2+x,1/2-y,1/2+z
1/2-y,1/2-x,1/2+z
1/2+y,1/2+x,1/2+z
loop_
_atom_site_type_symbol
_atom_site_label
_atom_site_fract_x
_atom_site_fract_y
_atom_site_fract_z
Si Si1 0.258379 0.258379 0.338802
Si Si2 0.159841 0.159841 0.910148
Si Si3 0.326962 0.089319 0.085400
Si Si4 0.366763 0.052914 0.770432
Si Si5 0.150561 0.710202 0.587826
Si Si6 0.756000 0.558085 0.808706
Si Si7 0.062028 0.214407 0.148434
O O1 0.250000 0.250000 0.250000
O O2 0.301027 0.301027 0.365306
O O3 0.203721 0.273538 0.373835
O O4 0.173416 0.101347 0.886587
O O5 0.167013 0.167013 0.000000
O O6 0.358894 0.054892 0.141569
O O7 0.347484 0.147862 0.093338
O O8 0.268100 0.082085 0.112398
O O9 0.330499 0.074270 0.000000
O O10 0.397886 0.102114 0.750000
O O11 0.311462 0.055423 0.731821
O O12 0.392642 0.000000 0.746277
O O13 0.150052 0.723088 0.500000
O O14 0.102739 0.736939 0.630392
O O15 0.745086 0.500000 0.837762
O O16 0.718400 0.569237 0.738523
O O17 0.000000 0.209100 0.134955
#
# Coordination Sequence:
#
# PCOD9571359 Si02
#       7
#    16  16  32  32  32  32  32
#     4  12  24  34  52  76 107 143 171 210 261 315
#     4  12  22  34  52  77 110 140 170 213 269 316
#     4  10  19  31  50  72  97 126 159 205 256 301
#     4  10  19  31  48  65  89 119 160 207 247 298
#     4  11  21  33  51  76 105 134 167 209 259 314
#     4   9  19  35  53  73  97 131 172 210 249 303
#     4  10  21  35  53  76 102 135 176 216 254 309
#
# _framework density 15.880393
#
# number of rings (size 3 to 8) (size 9 to 14) (size 15 to 20)
#    0.000    1.667    3.333    3.750    2.333    2.833 
#    0.000    0.000    0.000    0.750    0.000    1.750 
#    0.000    0.000    0.000    0.000    0.000    0.000 
#
# Total GULP energy -534604.268517 kJ/mol
# GULP energy per Si atom -5568.794464 kJ/mol
# Density = 1.584425 g / cm^3
# Si number density = 15.880393 Si / 1000 Ang^3
#
#
#
# Elastic Constant Matrix: (Units=GPa)
#
#
# Indices 1 2 3 4 5 6 
#
# 1 62.5288 17.9411 34.3343 0.0000 0.0000 0.0000
# 2 17.9411 62.5267 34.3343 0.0000 0.0000 0.0000
# 3 34.3343 34.3343 113.1902 0.0000 0.0000 0.0000
# 4 0.0000 0.0000 0.0000 37.0246 0.0000 0.0000
# 5 0.0000 0.0000 0.0000 0.0000 36.8862 0.0000
# 6 0.0000 0.0000 0.0000 0.0000 0.0000 -22.8634
#
#
#
# Elastic Compliance Matrix: (Units=1/GPa)
#
#
# Indices 1 2 3 4 5 6 
#
# 1 0.019597 -0.002830 -0.005086 0.000000 0.000000 0.000000
# 2 -0.002830 0.019598 -0.005086 0.000000 0.000000 0.000000
# 3 -0.005086 -0.005086 0.011920 0.000000 0.000000 0.000000
# 4 0.000000 0.000000 0.000000 0.027009 0.000000 0.000000
# 5 0.000000 0.000000 0.000000 0.000000 0.027110 0.000000
# 6 0.000000 0.000000 0.000000 0.000000 0.000000 -0.043738
#
#
# Mechanical properties :
#
#
# Convention : Reuss Voigt Hill
#
# Bulk Modulus (GPa) = 39.82371 45.71836 42.77103
# Shear Modulus (GPa) = 52.15239 20.31854 36.23547
#
# Velocity S-wave (km/s) = 5.73690 3.58085 4.78197
# Velocity P-wave (km/s) = 8.30749 6.77852 7.58165
#
# Compressibility (1/GPa) = 0.02511067
#
# Stress axis : x y z
#
# Youngs Moduli (GPa) = 51.02703 51.02503 83.89073
#
# Poissons Ratio (x) = 0.14442 0.42667
# Poissons Ratio (y) = 0.14443 0.42669
# Poissons Ratio (z) = 0.25952 0.25953
#
# Static dielectric constant tensor:
#      x y z
#    x 1.552620 0.000000 0.000000 
#    y 0.000000 1.552620 0.000000 
#    z 0.000000 0.000000 1.538590 
# 
# From -- ./inp_files/6504.got.cif
#   From: 2010.05.17/outbox.cif.g08.bks.cpg/sg139_4_cif.got.tgz:6504.got - 2010.05.20 13:14:44.
