data_PCOD9571017
_publ_section_title
;
Structure prediction by ZEFSAII (Michael W. Deem and Ramdas Pophale) SiO2 
 PCOD9571017
Probable space group: P 42/N C M
;
_chemical_formula_sum "Si O2"
_cell_formula_units_Z 64
_cell_length_a 12.991090
_cell_length_b 12.991090
_cell_length_c 20.206021
_cell_angle_alpha 90.000000
_cell_angle_beta 90.000000
_cell_angle_gamma 90.000000
_cell_volume 3410.138226
_symmetry_space_group_name_H-M "P 42/N C M"
_symmetry_group_IT_number 138
_space_group.IT_coordinate_system_code '2'
_symmetry_cell_setting 'tetragonal'
loop_
_space_group_symop_operation_xyz
x,y,z
1/2-y,x,1/2+z
1/2-x,1/2-y,z
y,1/2-x,1/2+z
1/2+x,-y,1/2-z
-x,1/2+y,1/2-z
1/2+y,1/2+x,-z
-y,-x,-z
-x,-y,-z
1/2+y,-x,1/2-z
1/2+x,1/2+y,-z
-y,1/2+x,1/2-z
1/2-x,y,1/2+z
x,1/2-y,1/2+z
1/2-y,1/2-x,z
y,x,z
loop_
_atom_site_type_symbol
_atom_site_label
_atom_site_fract_x
_atom_site_fract_y
_atom_site_fract_z
Si Si1 0.747375 0.079776 0.991078
Si Si2 0.033725 0.861615 0.724231
Si Si3 0.746721 0.921207 0.611403
Si Si4 0.241341 0.623637 0.153026
O O1 0.756612 0.057959 0.913353
O O2 0.639725 0.139725 0.000000
O O3 0.837535 0.162466 0.000000
O O4 0.755935 0.994281 0.047271
O O5 0.086464 0.818637 0.790338
O O6 0.127307 0.899074 0.678848
O O7 0.981195 0.772957 0.679058
O O8 0.949287 0.949287 0.736925
O O9 0.641554 0.858447 0.617253
O O10 0.838816 0.838816 0.602458
O O11 0.250000 0.750000 0.142717
#
# Coordination Sequence:
#
# PCOD9571017 Si02
#       4
#    16  16  16  16
#     4  11  21  37  63  93 119 158 202 253 303 360
#     4  11  23  38  62  90 119 164 206 247 310 369
#     4  10  23  43  63  88 126 166 203 249 306 367
#     4  12  21  40  63  88 125 157 203 261 301 359
#
# _framework density 18.767567
#
# number of rings (size 3 to 8) (size 9 to 14) (size 15 to 20)
#    0.000    1.000    7.500    0.000    0.000    4.000 
#    0.000    0.000    0.000    3.000    0.000    0.000 
#    0.000    0.000    0.000    0.000    0.000    0.000 
#
# Total GULP energy -357162.078019 kJ/mol
# GULP energy per Si atom -5580.657469 kJ/mol
# Density = 1.872485 g / cm^3
# Si number density = 18.767567 Si / 1000 Ang^3
#
#
#
# Elastic Constant Matrix: (Units=GPa)
#
#
# Indices 1 2 3 4 5 6 
#
# 1 54.4626 11.9014 6.5606 0.0000 0.0000 0.0000
# 2 11.9014 54.4639 6.5622 0.0000 0.0000 0.0000
# 3 6.5606 6.5622 90.8735 0.0000 0.0000 0.0000
# 4 0.0000 0.0000 0.0000 26.1484 0.0000 0.0000
# 5 0.0000 0.0000 0.0000 0.0000 26.1487 0.0000
# 6 0.0000 0.0000 0.0000 0.0000 0.0000 25.7566
#
#
#
# Elastic Compliance Matrix: (Units=1/GPa)
#
#
# Indices 1 2 3 4 5 6 
#
# 1 0.019391 -0.004104 -0.001104 0.000000 0.000000 0.000000
# 2 -0.004104 0.019391 -0.001104 0.000000 0.000000 0.000000
# 3 -0.001104 -0.001104 0.011164 0.000000 0.000000 0.000000
# 4 0.000000 0.000000 0.000000 0.038243 0.000000 0.000000
# 5 0.000000 0.000000 0.000000 0.000000 0.038243 0.000000
# 6 0.000000 0.000000 0.000000 0.000000 0.000000 0.038825
#
#
# Mechanical properties :
#
#
# Convention : Reuss Voigt Hill
#
# Bulk Modulus (GPa) = 26.79401 27.76092 27.27747
# Shear Modulus (GPa) = 26.27144 27.26247 26.76696
#
# Velocity S-wave (km/s) = 3.74549 3.81548 3.78065
# Velocity P-wave (km/s) = 5.74567 5.85104 5.79859
#
# Compressibility (1/GPa) = 0.03732177
#
# Stress axis : x y z
#
# Youngs Moduli (GPa) = 51.57014 51.57117 89.57609
#
# Poissons Ratio (x) = 0.21167 0.09885
# Poissons Ratio (y) = 0.21166 0.09889
# Poissons Ratio (z) = 0.05691 0.05693
#
# Static dielectric constant tensor:
#      x y z
#    x 1.660250 0.000000 0.000000 
#    y 0.000000 1.660250 0.000000 
#    z 0.000000 0.000000 1.694860 
# 
# From -- ./inp_files/5841.got.cif
#   From: 2010.05.17/outbox.cif.g08.bks.cpg/sg138_3_cif.got.tgz:5841.got - 2010.05.20 13:08:53.
