data_PCOD9571611
_publ_section_title
;
Structure prediction by ZEFSAII (Michael W. Deem and Ramdas Pophale) SiO2 
 PCOD9571611
Probable space group: I 4/M M M
;
_chemical_formula_sum "Si O2"
_cell_formula_units_Z 144
_cell_length_a 19.356709
_cell_length_b 19.356709
_cell_length_c 21.918377
_cell_angle_alpha 90.000000
_cell_angle_beta 90.000000
_cell_angle_gamma 90.000000
_cell_volume 8212.425349
_symmetry_space_group_name_H-M "I 4/M M M"
_symmetry_group_IT_number 139
_symmetry_cell_setting 'tetragonal'
loop_
_space_group_symop_operation_xyz
x,y,z
-y,x,z
-x,-y,z
y,-x,z
x,-y,-z
-x,y,-z
y,x,-z
-y,-x,-z
-x,-y,-z
y,-x,-z
x,y,-z
-y,x,-z
-x,y,z
x,-y,z
-y,-x,z
y,x,z
1/2+x,1/2+y,1/2+z
1/2-y,1/2+x,1/2+z
1/2-x,1/2-y,1/2+z
1/2+y,1/2-x,1/2+z
1/2+x,1/2-y,1/2-z
1/2-x,1/2+y,1/2-z
1/2+y,1/2+x,1/2-z
1/2-y,1/2-x,1/2-z
1/2-x,1/2-y,1/2-z
1/2+y,1/2-x,1/2-z
1/2+x,1/2+y,1/2-z
1/2-y,1/2+x,1/2-z
1/2-x,1/2+y,1/2+z
1/2+x,1/2-y,1/2+z
1/2-y,1/2-x,1/2+z
1/2+y,1/2+x,1/2+z
loop_
_atom_site_type_symbol
_atom_site_label
_atom_site_fract_x
_atom_site_fract_y
_atom_site_fract_z
Si Si1 0.577896 0.823045 0.137439
Si Si2 0.581791 0.211424 0.622296
Si Si3 0.684537 0.424225 0.072523
Si Si4 0.916640 0.200251 0.000000
Si Si5 0.636586 0.745536 0.749640
O O1 0.500000 0.851617 0.135016
O O2 0.638510 0.878293 0.129021
O O3 0.587247 0.764538 0.086330
O O4 0.586847 0.778125 0.199473
O O5 0.500000 0.199283 0.622551
O O6 0.598556 0.253688 0.560522
O O7 0.603458 0.253896 0.682684
O O8 0.665519 0.500000 0.097340
O O9 0.636194 0.363807 0.097001
O O10 0.675735 0.426328 0.000000
O O11 0.867502 0.132499 0.000000
O O12 0.000000 0.184980 0.000000
O O13 0.672244 0.672244 0.763769
O O14 0.698929 0.801071 0.750000
#
# Coordination Sequence:
#
# PCOD9571611 Si02
#       5
#    32  32  32  16  32
#     4  10  20  33  51  76 107 142 180 220 261 310
#     4  10  21  36  53  77 107 140 182 225 268 321
#     4   9  18  31  47  70  99 131 170 213 257 308
#     4  10  22  39  59  83 107 135 174 222 276 332
#     4   9  17  31  52  76 101 132 172 218 267 312
#
# _framework density 17.534407000000002
#
# number of rings (size 3 to 8) (size 9 to 14) (size 15 to 20)
#    0.000    2.444    0.000    2.000    1.556    3.444 
#    0.000    1.111    0.000    6.000    0.000    0.000 
#    0.000   16.000    0.000    0.000    0.000    0.000 
#
# Total GULP energy -400942.207692 kJ/mol
# GULP energy per Si atom -5568.641774 kJ/mol
# Density = 1.749450 g / cm^3
# Si number density = 17.534407 Si / 1000 Ang^3
#
#
#
# Elastic Constant Matrix: (Units=GPa)
#
#
# Indices 1 2 3 4 5 6 
#
# 1 75.5045 68.4726 38.7256 0.0000 0.0000 0.0000
# 2 68.4726 75.5076 38.7261 0.0000 0.0000 0.0000
# 3 38.7256 38.7261 98.5489 0.0000 0.0000 0.0000
# 4 0.0000 0.0000 0.0000 15.7398 0.0000 0.0000
# 5 0.0000 0.0000 0.0000 0.0000 15.7401 0.0000
# 6 0.0000 0.0000 0.0000 0.0000 0.0000 25.7615
#
#
#
# Elastic Compliance Matrix: (Units=1/GPa)
#
#
# Indices 1 2 3 4 5 6 
#
# 1 0.075495 -0.066686 -0.003461 0.000000 0.000000 0.000000
# 2 -0.066686 0.075492 -0.003461 0.000000 0.000000 0.000000
# 3 -0.003461 -0.003461 0.012867 0.000000 0.000000 0.000000
# 4 0.000000 0.000000 0.000000 0.063533 0.000000 0.000000
# 5 0.000000 0.000000 0.000000 0.000000 0.063532 0.000000
# 6 0.000000 0.000000 0.000000 0.000000 0.000000 0.038818
#
#
# Mechanical properties :
#
#
# Convention : Reuss Voigt Hill
#
# Bulk Modulus (GPa) = 60.10296 60.15660 60.12978
# Shear Modulus (GPa) = 10.36273 18.35739 14.36006
#
# Velocity S-wave (km/s) = 2.43367 3.23915 2.86486
# Velocity P-wave (km/s) = 6.49989 6.95497 6.73128
#
# Compressibility (1/GPa) = 0.01663812
#
# Stress axis : x y z
#
# Youngs Moduli (GPa) = 13.24592 13.24652 77.71677
#
# Poissons Ratio (x) = 0.88336 0.26899
# Poissons Ratio (y) = 0.88332 0.26894
# Poissons Ratio (z) = 0.04585 0.04584
#
# Static dielectric constant tensor:
#      x y z
#    x 1.606030 0.000000 0.000000 
#    y 0.000000 1.606030 0.000000 
#    z 0.000000 0.000000 1.636650 
# 
# From -- ./inp_files/8217.got.cif
#   From: 2010.05.17/outbox.cif.g08.bks.cpg/sg139_5_cif.got.tgz:8217.got - 2010.05.20 13:14:44.
