data_PCOD9571827
_publ_section_title
;
Structure prediction by ZEFSAII (Michael W. Deem and Ramdas Pophale) SiO2 
 PCOD9571827
Probable space group: I 4/M M M
;
_chemical_formula_sum "Si O2"
_cell_formula_units_Z 160
_cell_length_a 28.520589
_cell_length_b 28.520589
_cell_length_c 11.314446
_cell_angle_alpha 90.000000
_cell_angle_beta 90.000000
_cell_angle_gamma 90.000000
_cell_volume 9203.441888
_symmetry_space_group_name_H-M "I 4/M M M"
_symmetry_group_IT_number 139
_symmetry_cell_setting 'tetragonal'
loop_
_space_group_symop_operation_xyz
x,y,z
-y,x,z
-x,-y,z
y,-x,z
x,-y,-z
-x,y,-z
y,x,-z
-y,-x,-z
-x,-y,-z
y,-x,-z
x,y,-z
-y,x,-z
-x,y,z
x,-y,z
-y,-x,z
y,x,z
1/2+x,1/2+y,1/2+z
1/2-y,1/2+x,1/2+z
1/2-x,1/2-y,1/2+z
1/2+y,1/2-x,1/2+z
1/2+x,1/2-y,1/2-z
1/2-x,1/2+y,1/2-z
1/2+y,1/2+x,1/2-z
1/2-y,1/2-x,1/2-z
1/2-x,1/2-y,1/2-z
1/2+y,1/2-x,1/2-z
1/2+x,1/2+y,1/2-z
1/2-y,1/2+x,1/2-z
1/2-x,1/2+y,1/2+z
1/2+x,1/2-y,1/2+z
1/2-y,1/2-x,1/2+z
1/2+y,1/2+x,1/2+z
loop_
_atom_site_type_symbol
_atom_site_label
_atom_site_fract_x
_atom_site_fract_y
_atom_site_fract_z
Si Si1 0.798355 0.000000 0.137975
Si Si2 0.055259 0.294322 0.500000
Si Si3 0.500000 0.806702 0.358599
Si Si4 0.238515 0.837230 0.142961
Si Si5 0.676497 0.100549 0.251526
Si Si6 0.591198 0.661837 0.744281
Si Si7 0.054441 0.181880 0.500000
O O1 0.746501 0.000000 0.193223
O O2 0.826161 0.044571 0.177614
O O3 0.791199 0.000000 0.000000
O O4 0.083847 0.309786 0.383563
O O5 0.053700 0.238130 0.500000
O O6 0.000000 0.310400 0.500000
O O7 0.500000 0.807255 0.500000
O O8 0.449164 0.825657 0.318135
O O9 0.215424 0.784577 0.165278
O O10 0.286056 0.860926 0.197574
O O11 0.199818 0.871541 0.198802
O O12 0.241363 0.841562 0.000000
O O13 0.627273 0.127273 0.250000
O O14 0.611519 0.611519 0.715688
O O15 0.581032 0.666145 0.882726
O O16 0.000000 0.165891 0.500000
#
# Coordination Sequence:
#
# PCOD9571827 Si02
#       7
#    16  16  16  32  32  32  16
#     4  11  20  35  61  86 111 147 193 248 296 339
#     4  11  22  41  61  90 128 155 188 253 306 347
#     4  11  22  41  63  90 121 153 201 250 288 349
#     4  10  21  38  58  84 123 164 201 241 285 345
#     4  12  25  40  64  92 122 161 204 244 299 359
#     4  11  21  34  55  86 117 149 193 241 293 347
#     4  11  19  35  59  82 115 155 192 239 293 343
#
# _framework density 17.384799999999998
#
# number of rings (size 3 to 8) (size 9 to 14) (size 15 to 20)
#    0.000    1.000    6.000    1.500    2.800    1.600 
#    0.000    0.500    0.000    0.600    0.000    2.800 
#    0.000    0.000    0.000    0.000    0.000    0.000 
#
# Total GULP energy -445614.348210 kJ/mol
# GULP energy per Si atom -5570.179353 kJ/mol
# Density = 1.734523 g / cm^3
# Si number density = 17.384800 Si / 1000 Ang^3
#
#
#
# Elastic Constant Matrix: (Units=GPa)
#
#
# Indices 1 2 3 4 5 6 
#
# 1 105.9827 71.5203 32.9773 0.0000 0.0000 0.0000
# 2 71.5203 105.9827 32.9773 0.0000 0.0000 0.0000
# 3 32.9773 32.9773 88.0805 0.0000 0.0000 0.0000
# 4 0.0000 0.0000 0.0000 2.2420 0.0000 0.0000
# 5 0.0000 0.0000 0.0000 0.0000 2.2420 0.0000
# 6 0.0000 0.0000 0.0000 0.0000 0.0000 29.3557
#
#
#
# Elastic Compliance Matrix: (Units=1/GPa)
#
#
# Indices 1 2 3 4 5 6 
#
# 1 0.017781 -0.011236 -0.002450 0.000000 0.000000 0.000000
# 2 -0.011236 0.017781 -0.002450 0.000000 0.000000 0.000000
# 3 -0.002450 -0.002450 0.013188 0.000000 0.000000 0.000000
# 4 0.000000 0.000000 0.000000 0.446035 0.000000 0.000000
# 5 0.000000 0.000000 0.000000 0.000000 0.446035 0.000000
# 6 0.000000 0.000000 0.000000 0.000000 0.000000 0.034065
#
#
# Mechanical properties :
#
#
# Convention : Reuss Voigt Hill
#
# Bulk Modulus (GPa) = 60.69564 63.88842 62.29203
# Shear Modulus (GPa) = 4.93755 17.60600 11.27178
#
# Velocity S-wave (km/s) = 1.68710 3.18578 2.54907
# Velocity P-wave (km/s) = 6.22767 7.09660 6.67629
#
# Compressibility (1/GPa) = 0.01647565
#
# Stress axis : x y z
#
# Youngs Moduli (GPa) = 56.24112 56.24112 75.82721
#
# Poissons Ratio (x) = 0.63195 0.18578
# Poissons Ratio (y) = 0.63195 0.18578
# Poissons Ratio (z) = 0.13780 0.13780
#
# Static dielectric constant tensor:
#      x y z
#    x 1.595120 0.000000 0.000000 
#    y 0.000000 1.595120 0.000000 
#    z 0.000000 0.000000 1.616210 
# 
# From -- ./inp_files/3976.got.cif
#   From: 2010.05.17/outbox.cif.g08.bks.cpg/sg139_2_cif.got.tgz:3976.got - 2010.05.20 13:14:44.
