data_PCOD9571046
_publ_section_title
;
Structure prediction by ZEFSAII (Michael W. Deem and Ramdas Pophale) SiO2 
 PCOD9571046
Probable space group: P 42/N C M
;
_chemical_formula_sum "Si O2"
_cell_formula_units_Z 60
_cell_length_a 12.434061
_cell_length_b 12.434061
_cell_length_c 20.222076
_cell_angle_alpha 90.000000
_cell_angle_beta 90.000000
_cell_angle_gamma 90.000000
_cell_volume 3126.451713
_symmetry_space_group_name_H-M "P 42/N C M"
_symmetry_group_IT_number 138
_space_group.IT_coordinate_system_code '2'
_symmetry_cell_setting 'tetragonal'
loop_
_space_group_symop_operation_xyz
x,y,z
1/2-y,x,1/2+z
1/2-x,1/2-y,z
y,1/2-x,1/2+z
1/2+x,-y,1/2-z
-x,1/2+y,1/2-z
1/2+y,1/2+x,-z
-y,-x,-z
-x,-y,-z
1/2+y,-x,1/2-z
1/2+x,1/2+y,-z
-y,1/2+x,1/2-z
1/2-x,y,1/2+z
x,1/2-y,1/2+z
1/2-y,1/2-x,z
y,x,z
loop_
_atom_site_type_symbol
_atom_site_label
_atom_site_fract_x
_atom_site_fract_y
_atom_site_fract_z
Si Si1 0.250000 0.750000 0.000000
Si Si2 0.984504 0.984504 0.419959
Si Si3 0.383361 0.383361 0.312992
Si Si4 0.360895 0.139106 0.338513
Si Si5 0.663547 0.663547 0.006626
Si Si6 0.541096 0.958905 0.327782
Si Si7 0.030218 0.737144 0.420581
O O1 0.351891 0.741202 0.951654
O O2 0.006084 0.860314 0.401842
O O3 0.000000 0.000000 0.500000
O O4 0.062990 0.062990 0.378203
O O5 0.397882 0.254357 0.310935
O O6 0.433912 0.433912 0.247890
O O7 0.339321 0.160680 0.415429
O O8 0.450542 0.049459 0.331993
O O9 0.750000 0.750000 0.982066
O O10 0.700157 0.549450 0.979123
O O11 0.496459 0.851233 0.364473
#
# Coordination Sequence:
#
# PCOD9571046 Si02
#       7
#     4   8   8   8   8   8  16
#     4  12  24  40  64 110 136 180 210 296 344 396
#     4  12  23  42  70 105 132 175 232 290 338 401
#     4  11  27  43  70  94 134 185 232 281 338 422
#     4  11  24  46  69  91 134 176 231 276 337 420
#     4  11  19  42  68 102 123 174 219 280 336 411
#     4  11  28  46  64 102 134 193 218 285 346 419
#     4  11  25  40  69  99 145 168 227 276 351 411
#
# _framework density 19.191084
#
# number of rings (size 3 to 8) (size 9 to 14) (size 15 to 20)
#    0.000    0.800    4.000    3.200    7.467    3.200 
#    0.000    0.000    0.000    0.000    0.000    0.000 
#    0.000    0.000    0.000    0.000    0.000    0.000 
#
# Total GULP energy -335243.688461 kJ/mol
# GULP energy per Si atom -5587.394808 kJ/mol
# Density = 1.914740 g / cm^3
# Si number density = 19.191084 Si / 1000 Ang^3
#
#
#
# Elastic Constant Matrix: (Units=GPa)
#
#
# Indices 1 2 3 4 5 6 
#
# 1 147.7749 87.8674 39.0035 0.0000 0.0000 0.0000
# 2 87.8674 147.7749 39.0035 0.0000 0.0000 0.0000
# 3 39.0035 39.0035 86.6539 0.0000 0.0000 0.0000
# 4 0.0000 0.0000 0.0000 36.1035 0.0000 0.0000
# 5 0.0000 0.0000 0.0000 0.0000 36.1035 0.0000
# 6 0.0000 0.0000 0.0000 0.0000 0.0000 37.0493
#
#
#
# Elastic Compliance Matrix: (Units=1/GPa)
#
#
# Indices 1 2 3 4 5 6 
#
# 1 0.010840 -0.005853 -0.002245 0.000000 0.000000 0.000000
# 2 -0.005853 0.010840 -0.002245 0.000000 0.000000 0.000000
# 3 -0.002245 -0.002245 0.013561 0.000000 0.000000 0.000000
# 4 0.000000 0.000000 0.000000 0.027698 0.000000 0.000000
# 5 0.000000 0.000000 0.000000 0.000000 0.027698 0.000000
# 6 0.000000 0.000000 0.000000 0.000000 0.000000 0.026991
#
#
# Mechanical properties :
#
#
# Convention : Reuss Voigt Hill
#
# Bulk Modulus (GPa) = 68.70025 79.32803 74.01414
# Shear Modulus (GPa) = 34.92517 36.27321 35.59919
#
# Velocity S-wave (km/s) = 4.27061 4.35225 4.31163
# Velocity P-wave (km/s) = 7.75843 8.16589 7.96477
#
# Compressibility (1/GPa) = 0.01455599
#
# Stress axis : x y z
#
# Youngs Moduli (GPa) = 92.25445 92.25445 73.74218
#
# Poissons Ratio (x) = 0.53995 0.16552
# Poissons Ratio (y) = 0.53995 0.16552
# Poissons Ratio (z) = 0.20707 0.20707
#
# Static dielectric constant tensor:
#      x y z
#    x 1.654920 0.000000 0.000000 
#    y 0.000000 1.654920 0.000000 
#    z 0.000000 0.000000 1.651340 
# 
# From -- ./inp_files/5923.got.cif
#   From: 2010.05.17/outbox.cif.g08.bks.cpg/sg138_3_cif.got.tgz:5923.got - 2010.05.20 13:08:53.
