data_PCOD9571742
_publ_section_title
;
Structure prediction by ZEFSAII (Michael W. Deem and Ramdas Pophale) SiO2 
 PCOD9571742
Probable space group: I 4/M M M
;
_chemical_formula_sum "Si O2"
_cell_formula_units_Z 136
_cell_length_a 17.515400
_cell_length_b 17.515400
_cell_length_c 23.371443
_cell_angle_alpha 90.000000
_cell_angle_beta 90.000000
_cell_angle_gamma 90.000000
_cell_volume 7170.107169
_symmetry_space_group_name_H-M "I 4/M M M"
_symmetry_group_IT_number 139
_symmetry_cell_setting 'tetragonal'
loop_
_space_group_symop_operation_xyz
x,y,z
-y,x,z
-x,-y,z
y,-x,z
x,-y,-z
-x,y,-z
y,x,-z
-y,-x,-z
-x,-y,-z
y,-x,-z
x,y,-z
-y,x,-z
-x,y,z
x,-y,z
-y,-x,z
y,x,z
1/2+x,1/2+y,1/2+z
1/2-y,1/2+x,1/2+z
1/2-x,1/2-y,1/2+z
1/2+y,1/2-x,1/2+z
1/2+x,1/2-y,1/2-z
1/2-x,1/2+y,1/2-z
1/2+y,1/2+x,1/2-z
1/2-y,1/2-x,1/2-z
1/2-x,1/2-y,1/2-z
1/2+y,1/2-x,1/2-z
1/2+x,1/2+y,1/2-z
1/2-y,1/2+x,1/2-z
1/2-x,1/2+y,1/2+z
1/2+x,1/2-y,1/2+z
1/2-y,1/2-x,1/2+z
1/2+y,1/2+x,1/2+z
loop_
_atom_site_type_symbol
_atom_site_label
_atom_site_fract_x
_atom_site_fract_y
_atom_site_fract_z
Si Si1 0.816869 0.410096 0.569234
Si Si2 0.337474 0.662527 0.391727
Si Si3 0.090410 0.291700 0.381277
Si Si4 0.589794 0.291134 0.000000
Si Si5 0.588253 0.588253 0.500000
Si Si6 0.091667 0.908334 0.222780
Si Si7 0.800121 0.800121 0.295801
O O1 0.818912 0.398410 0.500000
O O2 0.803297 0.500000 0.578226
O O3 0.750131 0.360038 0.598576
O O4 0.891656 0.379330 0.601796
O O5 0.377114 0.622887 0.444578
O O6 0.374515 0.625486 0.336010
O O7 0.111756 0.250381 0.441327
O O8 0.146207 0.256438 0.333353
O O9 0.000000 0.280255 0.369009
O O10 0.500000 0.294580 0.000000
O O11 0.626799 0.373202 0.000000
O O12 0.500000 0.603901 0.500000
O O13 0.139957 0.860044 0.268374
O O14 0.000000 0.895768 0.226432
O O15 0.750000 0.750000 0.250000
#
# Coordination Sequence:
#
# PCOD9571742 Si02
#       7
#    32  16  32  16   8  16  16
#     4  11  22  36  58  91 129 165 201 245 303 376
#     4  12  22  36  60  87 127 163 205 258 306 369
#     4  11  23  41  65  92 125 161 202 258 318 375
#     4  10  20  36  62  95 129 159 193 247 314 383
#     4  11  20  30  50  84 124 164 200 243 312 380
#     4  11  24  42  62  86 120 162 207 253 303 363
#     4  12  25  43  67  91 119 161 214 261 307 365
#
# _framework density 18.967638000000001
#
# number of rings (size 3 to 8) (size 9 to 14) (size 15 to 20)
#    0.000    0.882    3.529    4.941    0.000    1.529 
#    0.000    2.353    0.000    0.000    0.000    0.000 
#    0.000    0.000    0.000    0.000    0.000    0.000 
#
# Total GULP energy -379296.688346 kJ/mol
# GULP energy per Si atom -5577.892476 kJ/mol
# Density = 1.892447 g / cm^3
# Si number density = 18.967638 Si / 1000 Ang^3
#
#
#
# Elastic Constant Matrix: (Units=GPa)
#
#
# Indices 1 2 3 4 5 6 
#
# 1 110.8774 29.4724 61.7858 0.0000 0.0000 0.0000
# 2 29.4724 110.9341 61.7628 0.0000 0.0000 0.0000
# 3 61.7858 61.7628 103.1398 0.0000 0.0000 0.0000
# 4 0.0000 0.0000 0.0000 51.0413 0.0000 0.0000
# 5 0.0000 0.0000 0.0000 0.0000 51.0415 0.0000
# 6 0.0000 0.0000 0.0000 0.0000 0.0000 36.0948
#
#
#
# Elastic Compliance Matrix: (Units=1/GPa)
#
#
# Indices 1 2 3 4 5 6 
#
# 1 0.013680 0.001392 -0.009029 0.000000 0.000000 0.000000
# 2 0.001392 0.013665 -0.009017 0.000000 0.000000 0.000000
# 3 -0.009029 -0.009017 0.020504 0.000000 0.000000 0.000000
# 4 0.000000 0.000000 0.000000 0.019592 0.000000 0.000000
# 5 0.000000 0.000000 0.000000 0.000000 0.019592 0.000000
# 6 0.000000 0.000000 0.000000 0.000000 0.000000 0.027705
#
#
# Mechanical properties :
#
#
# Convention : Reuss Voigt Hill
#
# Bulk Modulus (GPa) = 68.76664 70.11036 69.43850
# Shear Modulus (GPa) = 32.70300 39.09754 35.90027
#
# Velocity S-wave (km/s) = 4.15679 4.54505 4.35525
# Velocity P-wave (km/s) = 7.70532 8.03659 7.87270
#
# Compressibility (1/GPa) = 0.01454194
#
# Stress axis : x y z
#
# Youngs Moduli (GPa) = 73.09857 73.18192 48.77136
#
# Poissons Ratio (x) = -0.10190 0.44035
# Poissons Ratio (y) = -0.10178 0.43976
# Poissons Ratio (z) = 0.66000 0.65987
#
# Static dielectric constant tensor:
#      x y z
#    x 1.699050 0.000000 0.000000 
#    y 0.000000 1.699050 0.000000 
#    z 0.000000 0.000000 1.661590 
# 
# From -- ./inp_files/10010.got.cif
#   From: 2010.05.17/outbox.cif.g08.bks.cpg/sg139_6_cif.got.tgz:10010.got - 2010.05.20 13:14:44.
