data_PCOD9571833
_publ_section_title
;
Structure prediction by ZEFSAII (Michael W. Deem and Ramdas Pophale) SiO2 
 PCOD9571833
Probable space group: I 4/M M M
;
_chemical_formula_sum "Si O2"
_cell_formula_units_Z 160
_cell_length_a 22.005025
_cell_length_b 22.005025
_cell_length_c 17.376649
_cell_angle_alpha 90.000000
_cell_angle_beta 90.000000
_cell_angle_gamma 90.000000
_cell_volume 8414.140532
_symmetry_space_group_name_H-M "I 4/M M M"
_symmetry_group_IT_number 139
_symmetry_cell_setting 'tetragonal'
loop_
_space_group_symop_operation_xyz
x,y,z
-y,x,z
-x,-y,z
y,-x,z
x,-y,-z
-x,y,-z
y,x,-z
-y,-x,-z
-x,-y,-z
y,-x,-z
x,y,-z
-y,x,-z
-x,y,z
x,-y,z
-y,-x,z
y,x,z
1/2+x,1/2+y,1/2+z
1/2-y,1/2+x,1/2+z
1/2-x,1/2-y,1/2+z
1/2+y,1/2-x,1/2+z
1/2+x,1/2-y,1/2-z
1/2-x,1/2+y,1/2-z
1/2+y,1/2+x,1/2-z
1/2-y,1/2-x,1/2-z
1/2-x,1/2-y,1/2-z
1/2+y,1/2-x,1/2-z
1/2+x,1/2+y,1/2-z
1/2-y,1/2+x,1/2-z
1/2-x,1/2+y,1/2+z
1/2+x,1/2-y,1/2+z
1/2-y,1/2-x,1/2+z
1/2+y,1/2+x,1/2+z
loop_
_atom_site_type_symbol
_atom_site_label
_atom_site_fract_x
_atom_site_fract_y
_atom_site_fract_z
Si Si1 0.385999 0.289499 0.335146
Si Si2 0.072302 0.500000 0.407429
Si Si3 0.571424 0.665428 0.500000
Si Si4 0.657425 0.244806 0.908633
Si Si5 0.931403 0.836261 0.679490
Si Si6 0.646826 0.887839 0.165183
O O1 0.318148 0.318148 0.322677
O O2 0.403510 0.303929 0.422659
O O3 0.425391 0.323934 0.270850
O O4 0.398364 0.218698 0.323609
O O5 0.073936 0.500000 0.500000
O O6 0.109121 0.559183 0.377036
O O7 0.000000 0.500000 0.384604
O O8 0.500000 0.668519 0.500000
O O9 0.597360 0.597360 0.500000
O O10 0.723590 0.276411 0.894219
O O11 0.610041 0.286516 0.862825
O O12 0.647871 0.176311 0.880115
O O13 0.647395 0.247904 0.000000
O O14 0.900889 0.900889 0.663082
O O15 0.000000 0.831869 0.654101
O O16 0.619665 0.880335 0.250000
#
# Coordination Sequence:
#
# PCOD9571833 Si02
#       6
#    32  16  16  32  32  32
#     4  10  22  38  59  94 130 161 205 261 313 370
#     4  11  30  52  66  90 128 168 216 268 311 380
#     4  10  22  37  58  88 128 170 212 260 303 367
#     4  10  22  40  63  94 128 162 207 261 319 378
#     4  10  21  38  60  88 125 163 205 255 306 367
#     4  12  25  40  70  94 122 166 203 257 323 381
#
# _framework density 19.015606999999999
#
# number of rings (size 3 to 8) (size 9 to 14) (size 15 to 20)
#    0.000    1.500    2.000    1.800    7.000    2.300 
#    0.000    0.000    0.000    3.600    0.000    2.800 
#    0.000    0.000    0.000    0.000    0.000    0.000 
#
# Total GULP energy -446356.260189 kJ/mol
# GULP energy per Si atom -5579.453252 kJ/mol
# Density = 1.897233 g / cm^3
# Si number density = 19.015607 Si / 1000 Ang^3
#
#
#
# Elastic Constant Matrix: (Units=GPa)
#
#
# Indices 1 2 3 4 5 6 
#
# 1 137.5025 37.0749 26.9720 0.0000 0.0000 0.0000
# 2 37.0749 137.5025 26.9720 0.0000 0.0000 0.0000
# 3 26.9720 26.9720 93.2010 0.0000 0.0000 0.0000
# 4 0.0000 0.0000 0.0000 27.6424 0.0000 0.0000
# 5 0.0000 0.0000 0.0000 0.0000 27.6424 0.0000
# 6 0.0000 0.0000 0.0000 0.0000 0.0000 19.2470
#
#
#
# Elastic Compliance Matrix: (Units=1/GPa)
#
#
# Indices 1 2 3 4 5 6 
#
# 1 0.008124 -0.001833 -0.001820 0.000000 0.000000 0.000000
# 2 -0.001833 0.008124 -0.001820 0.000000 0.000000 0.000000
# 3 -0.001820 -0.001820 0.011783 0.000000 0.000000 0.000000
# 4 0.000000 0.000000 0.000000 0.036176 0.000000 0.000000
# 5 0.000000 0.000000 0.000000 0.000000 0.036176 0.000000
# 6 0.000000 0.000000 0.000000 0.000000 0.000000 0.051956
#
#
# Mechanical properties :
#
#
# Convention : Reuss Voigt Hill
#
# Bulk Modulus (GPa) = 58.53935 61.13818 59.83877
# Shear Modulus (GPa) = 29.58880 33.38552 31.48716
#
# Velocity S-wave (km/s) = 3.94893 4.19464 4.07364
# Velocity P-wave (km/s) = 7.18636 7.46200 7.32548
#
# Compressibility (1/GPa) = 0.01708253
#
# Stress axis : x y z
#
# Youngs Moduli (GPa) = 123.09163 123.09163 84.86679
#
# Poissons Ratio (x) = 0.22567 0.15450
# Poissons Ratio (y) = 0.22567 0.15450
# Poissons Ratio (z) = 0.22409 0.22409
#
# Static dielectric constant tensor:
#      x y z
#    x 1.659420 0.000000 0.000000 
#    y 0.000000 1.659420 0.000000 
#    z 0.000000 0.000000 1.636090 
# 
# From -- ./inp_files/8492.got.cif
#   From: 2010.05.17/outbox.cif.g08.bks.cpg/sg139_5_cif.got.tgz:8492.got - 2010.05.20 13:14:44.
