data_PCOD9571196
_publ_section_title
;
Structure prediction by ZEFSAII (Michael W. Deem and Ramdas Pophale) SiO2 
 PCOD9571196
Probable space group: I 4/M M M
;
_chemical_formula_sum "Si O2"
_cell_formula_units_Z 224
_cell_length_a 22.772957
_cell_length_b 22.772957
_cell_length_c 26.313046
_cell_angle_alpha 90.000000
_cell_angle_beta 90.000000
_cell_angle_gamma 90.000000
_cell_volume 13646.144859
_symmetry_space_group_name_H-M "I 4/M M M"
_symmetry_group_IT_number 139
_symmetry_cell_setting 'tetragonal'
loop_
_space_group_symop_operation_xyz
x,y,z
-y,x,z
-x,-y,z
y,-x,z
x,-y,-z
-x,y,-z
y,x,-z
-y,-x,-z
-x,-y,-z
y,-x,-z
x,y,-z
-y,x,-z
-x,y,z
x,-y,z
-y,-x,z
y,x,z
1/2+x,1/2+y,1/2+z
1/2-y,1/2+x,1/2+z
1/2-x,1/2-y,1/2+z
1/2+y,1/2-x,1/2+z
1/2+x,1/2-y,1/2-z
1/2-x,1/2+y,1/2-z
1/2+y,1/2+x,1/2-z
1/2-y,1/2-x,1/2-z
1/2-x,1/2-y,1/2-z
1/2+y,1/2-x,1/2-z
1/2+x,1/2+y,1/2-z
1/2-y,1/2+x,1/2-z
1/2-x,1/2+y,1/2+z
1/2+x,1/2-y,1/2+z
1/2-y,1/2-x,1/2+z
1/2+y,1/2+x,1/2+z
loop_
_atom_site_type_symbol
_atom_site_label
_atom_site_fract_x
_atom_site_fract_y
_atom_site_fract_z
Si Si1 0.569833 0.338693 0.000000
Si Si2 0.435324 0.903131 0.307492
Si Si3 0.142499 0.236819 0.298592
Si Si4 0.357921 0.105725 0.402985
Si Si5 0.177839 0.274583 0.856712
Si Si6 0.929706 0.431023 0.500000
Si Si7 0.433394 0.237480 0.702168
Si Si8 0.728631 0.567671 0.101233
O O1 0.588249 0.305559 0.051276
O O2 0.500000 0.339465 0.000000
O O3 0.597559 0.402442 0.000000
O O4 0.500000 0.924605 0.322898
O O5 0.423096 0.923096 0.250000
O O6 0.387544 0.917029 0.350458
O O7 0.436494 0.832531 0.305652
O O8 0.184171 0.184171 0.280474
O O9 0.185903 0.291211 0.312096
O O10 0.092898 0.251625 0.257936
O O11 0.110281 0.219606 0.350974
O O12 0.341011 0.174656 0.396126
O O13 0.401034 0.095889 0.449622
O O14 0.297595 0.071491 0.411069
O O15 0.227221 0.227221 0.872469
O O16 0.118895 0.243723 0.835970
O O17 0.917034 0.500000 0.500000
O O18 0.000000 0.422832 0.500000
O O19 0.500000 0.260565 0.695836
O O20 0.712742 0.500000 0.112823
#
# Coordination Sequence:
#
# PCOD9571196 Si02
#       8
#    16  32  32  32  32  16  32  32
#     4  10  21  36  52  70  90 112 142 183 232 285
#     4  10  20  32  46  66  93 126 165 208 249 284
#     4  10  18  28  45  68  94 124 158 197 240 288
#     4  10  20  35  52  71  97 131 170 210 252 293
#     4   9  18  32  50  72  96 125 162 207 257 302
#     4  11  23  37  53  72  99 141 186 216 239 283
#     4  10  18  28  44  66  94 126 157 192 239 296
#     4  10  19  31  48  67  90 119 152 194 239 284
#
# _framework density 16.414891999999998
#
# number of rings (size 3 to 8) (size 9 to 14) (size 15 to 20)
#    0.000    2.071    0.000    5.571    0.000    5.357 
#    0.000    0.357    0.000    0.000    0.000    0.000 
#    0.000   12.571    0.000    0.000    0.000    0.714 
#
# Total GULP energy -624546.109938 kJ/mol
# GULP energy per Si atom -5576.304553 kJ/mol
# Density = 1.637753 g / cm^3
# Si number density = 16.414892 Si / 1000 Ang^3
#
#
#
# Elastic Constant Matrix: (Units=GPa)
#
#
# Indices 1 2 3 4 5 6 
#
# 1 47.1654 37.1756 16.7560 0.0000 0.0000 0.0000
# 2 37.1756 47.1468 16.7489 0.0000 0.0000 0.0000
# 3 16.7560 16.7489 58.0277 0.0000 0.0000 0.0000
# 4 0.0000 0.0000 0.0000 15.7635 0.0000 0.0000
# 5 0.0000 0.0000 0.0000 0.0000 15.7643 0.0000
# 6 0.0000 0.0000 0.0000 0.0000 0.0000 7.3480
#
#
#
# Elastic Compliance Matrix: (Units=1/GPa)
#
#
# Indices 1 2 3 4 5 6 
#
# 1 0.056785 -0.043400 -0.003870 0.000000 0.000000 0.000000
# 2 -0.043400 0.056804 -0.003864 0.000000 0.000000 0.000000
# 3 -0.003870 -0.003864 0.019466 0.000000 0.000000 0.000000
# 4 0.000000 0.000000 0.000000 0.063438 0.000000 0.000000
# 5 0.000000 0.000000 0.000000 0.000000 0.063434 0.000000
# 6 0.000000 0.000000 0.000000 0.000000 0.000000 0.136091
#
#
# Mechanical properties :
#
#
# Convention : Reuss Voigt Hill
#
# Bulk Modulus (GPa) = 32.48143 32.63344 32.55744
# Shear Modulus (GPa) = 9.83190 13.21913 11.52552
#
# Velocity S-wave (km/s) = 2.45003 2.84088 2.65266
# Velocity P-wave (km/s) = 5.27582 5.53935 5.40919
#
# Compressibility (1/GPa) = 0.03078682
#
# Stress axis : x y z
#
# Youngs Moduli (GPa) = 17.61027 17.60426 51.37193
#
# Poissons Ratio (x) = 0.76403 0.19882
# Poissons Ratio (y) = 0.76429 0.19848
# Poissons Ratio (z) = 0.06816 0.06801
#
# Static dielectric constant tensor:
#      x y z
#    x 1.568150 0.000000 0.000000 
#    y 0.000000 1.568160 0.000000 
#    z 0.000000 0.000000 1.561470 
# 
# From -- ./inp_files/12255.got.cif
#   From: 2010.05.17/outbox.cif.g08.bks.cpg/sg139_7_cif.got.tgz:12255.got - 2010.05.20 13:14:44.
