data_PCOD9571915
_publ_section_title
;
Structure prediction by ZEFSAII (Michael W. Deem and Ramdas Pophale) SiO2 
 PCOD9571915
Probable space group: I 4/M M M
;
_chemical_formula_sum "Si O2"
_cell_formula_units_Z 176
_cell_length_a 18.377841
_cell_length_b 18.377841
_cell_length_c 31.002158
_cell_angle_alpha 90.000000
_cell_angle_beta 90.000000
_cell_angle_gamma 90.000000
_cell_volume 10470.825088
_symmetry_space_group_name_H-M "I 4/M M M"
_symmetry_group_IT_number 139
_symmetry_cell_setting 'tetragonal'
loop_
_space_group_symop_operation_xyz
x,y,z
-y,x,z
-x,-y,z
y,-x,z
x,-y,-z
-x,y,-z
y,x,-z
-y,-x,-z
-x,-y,-z
y,-x,-z
x,y,-z
-y,x,-z
-x,y,z
x,-y,z
-y,-x,z
y,x,z
1/2+x,1/2+y,1/2+z
1/2-y,1/2+x,1/2+z
1/2-x,1/2-y,1/2+z
1/2+y,1/2-x,1/2+z
1/2+x,1/2-y,1/2-z
1/2-x,1/2+y,1/2-z
1/2+y,1/2+x,1/2-z
1/2-y,1/2-x,1/2-z
1/2-x,1/2-y,1/2-z
1/2+y,1/2-x,1/2-z
1/2+x,1/2+y,1/2-z
1/2-y,1/2+x,1/2-z
1/2-x,1/2+y,1/2+z
1/2+x,1/2-y,1/2+z
1/2-y,1/2-x,1/2+z
1/2+y,1/2+x,1/2+z
loop_
_atom_site_type_symbol
_atom_site_label
_atom_site_fract_x
_atom_site_fract_y
_atom_site_fract_z
Si Si1 0.724724 0.000000 0.754853
Si Si2 0.913154 0.412989 0.950294
Si Si3 0.217250 0.000000 0.374284
Si Si4 0.230646 0.655764 0.708309
Si Si5 0.500000 0.380889 0.948982
Si Si6 0.584607 0.000000 0.308946
Si Si7 0.839227 0.381321 0.864380
Si Si8 0.379053 0.500000 0.204190
O O1 0.727253 0.070944 0.783743
O O2 0.649182 0.000000 0.727108
O O3 0.799474 0.000000 0.726765
O O4 0.900534 0.500000 0.944350
O O5 0.868616 0.372853 0.912853
O O6 0.000000 0.401208 0.945239
O O7 0.894089 0.395000 0.000000
O O8 0.266766 0.930297 0.364520
O O9 0.144411 0.000000 0.345891
O O10 0.193464 0.000000 0.423533
O O11 0.310572 0.689429 0.707622
O O12 0.190661 0.690661 0.750000
O O13 0.188966 0.674578 0.664442
O O14 0.570311 0.429690 0.938051
O O15 0.500000 0.370130 0.000000
O O16 0.601375 0.929771 0.338394
O O17 0.500000 0.000000 0.295928
O O18 0.429280 0.429280 0.213677
#
# Coordination Sequence:
#
# PCOD9571915 Si02
#       8
#    16  32  16  32  16  16  32  16
#     4  12  23  41  56  80 103 146 180 230 276 322
#     4   9  17  30  50  76 107 141 177 220 261 304
#     4  11  20  33  50  77 105 142 184 218 271 316
#     4  11  24  39  54  77 111 145 179 222 275 329
#     4   9  19  35  53  74  99 131 179 237 284 315
#     4  11  21  35  51  81 114 143 181 223 254 309
#     4  11  21  35  51  78 109 150 179 219 271 316
#     4  11  22  38  61  81 101 135 185 240 283 328
#
# _framework density 16.808608
#
# number of rings (size 3 to 8) (size 9 to 14) (size 15 to 20)
#    0.000    1.455    5.455    2.455    2.545    4.364 
#    3.273    0.000    0.000    0.545    0.000    0.000 
#    0.000    0.000    0.000    0.000    0.000    2.727 
#
# Total GULP energy -491147.247457 kJ/mol
# GULP energy per Si atom -5581.218721 kJ/mol
# Density = 1.677035 g / cm^3
# Si number density = 16.808608 Si / 1000 Ang^3
#
#
#
# Elastic Constant Matrix: (Units=GPa)
#
#
# Indices 1 2 3 4 5 6 
#
# 1 82.6028 32.8273 34.2036 0.0000 0.0000 0.0000
# 2 32.8273 82.6028 34.2036 0.0000 0.0000 0.0000
# 3 34.2036 34.2036 95.0836 0.0000 0.0000 0.0000
# 4 0.0000 0.0000 0.0000 7.9644 0.0000 0.0000
# 5 0.0000 0.0000 0.0000 0.0000 7.9644 0.0000
# 6 0.0000 0.0000 0.0000 0.0000 0.0000 2.4033
#
#
#
# Elastic Compliance Matrix: (Units=1/GPa)
#
#
# Indices 1 2 3 4 5 6 
#
# 1 0.015550 -0.004540 -0.003961 0.000000 0.000000 0.000000
# 2 -0.004540 0.015550 -0.003961 0.000000 0.000000 0.000000
# 3 -0.003961 -0.003961 0.013367 0.000000 0.000000 0.000000
# 4 0.000000 0.000000 0.000000 0.125559 0.000000 0.000000
# 5 0.000000 0.000000 0.000000 0.000000 0.125559 0.000000
# 6 0.000000 0.000000 0.000000 0.000000 0.000000 0.416092
#
#
# Mechanical properties :
#
#
# Convention : Reuss Voigt Hill
#
# Bulk Modulus (GPa) = 51.16479 51.41760 51.29120
# Shear Modulus (GPa) = 6.72844 14.27007 10.49925
#
# Velocity S-wave (km/s) = 2.00291 2.91688 2.50198
# Velocity P-wave (km/s) = 5.98787 6.48079 6.23920
#
# Compressibility (1/GPa) = 0.01954469
#
# Stress axis : x y z
#
# Youngs Moduli (GPa) = 64.30728 64.30728 74.81355
#
# Poissons Ratio (x) = 0.29195 0.29631
# Poissons Ratio (y) = 0.29195 0.29631
# Poissons Ratio (z) = 0.25470 0.25470
#
# Static dielectric constant tensor:
#      x y z
#    x 1.572020 0.000000 0.000000 
#    y 0.000000 1.572020 0.000000 
#    z 0.000000 0.000000 1.601110 
# 
# From -- ./inp_files/14330.got.cif
#   From: 2010.05.17/outbox.cif.g08.bks.cpg/sg139_8_cif.got.tgz:14330.got - 2010.05.20 13:14:44.
