data_PCOD9571911
_publ_section_title
;
Structure prediction by ZEFSAII (Michael W. Deem and Ramdas Pophale) SiO2 
 PCOD9571911
Probable space group: I 4/M M M
;
_chemical_formula_sum "Si O2"
_cell_formula_units_Z 72
_cell_length_a 18.971538
_cell_length_b 18.971538
_cell_length_c 10.156890
_cell_angle_alpha 90.000000
_cell_angle_beta 90.000000
_cell_angle_gamma 90.000000
_cell_volume 3655.660273
_symmetry_space_group_name_H-M "I 4/M M M"
_symmetry_group_IT_number 139
_symmetry_cell_setting 'tetragonal'
loop_
_space_group_symop_operation_xyz
x,y,z
-y,x,z
-x,-y,z
y,-x,z
x,-y,-z
-x,y,-z
y,x,-z
-y,-x,-z
-x,-y,-z
y,-x,-z
x,y,-z
-y,x,-z
-x,y,z
x,-y,z
-y,-x,z
y,x,z
1/2+x,1/2+y,1/2+z
1/2-y,1/2+x,1/2+z
1/2-x,1/2-y,1/2+z
1/2+y,1/2-x,1/2+z
1/2+x,1/2-y,1/2-z
1/2-x,1/2+y,1/2-z
1/2+y,1/2+x,1/2-z
1/2-y,1/2-x,1/2-z
1/2-x,1/2-y,1/2-z
1/2+y,1/2-x,1/2-z
1/2+x,1/2+y,1/2-z
1/2-y,1/2+x,1/2-z
1/2-x,1/2+y,1/2+z
1/2+x,1/2-y,1/2+z
1/2-y,1/2-x,1/2+z
1/2+y,1/2+x,1/2+z
loop_
_atom_site_type_symbol
_atom_site_label
_atom_site_fract_x
_atom_site_fract_y
_atom_site_fract_z
Si Si1 0.349860 0.127129 0.000000
Si Si2 0.810765 0.189236 0.282138
Si Si3 0.579607 0.263575 0.000000
Si Si4 0.079315 0.579315 0.750000
Si Si5 0.806091 0.806091 0.000000
O O1 0.361556 0.086879 0.863302
O O2 0.415415 0.180217 0.000000
O O3 0.276987 0.171670 0.000000
O O4 0.750000 0.250000 0.250000
O O5 0.875179 0.216623 0.370483
O O6 0.834379 0.165622 0.137803
O O7 0.500000 0.290283 0.000000
O O8 0.084327 0.500000 0.805374
#
# Coordination Sequence:
#
# PCOD9571911 Si02
#       5
#    16  16  16  16   8
#     4  12  21  36  57  82 113 156 213 262 319 366
#     4  11  19  41  63  85 126 172 209 258 335 395
#     4  11  22  36  62  94 123 161 219 271 309 384
#     4  11  24  39  54  78 120 167 206 251 312 388
#     4  12  22  36  64  86 112 162 216 262 322 398
#
# _framework density 19.695482999999999
#
# number of rings (size 3 to 8) (size 9 to 14) (size 15 to 20)
#    0.000    0.667    4.444    5.333    0.000    1.778 
#    0.000    3.333    0.000    5.333    0.000    0.000 
#    0.000    7.111    0.000    0.000    0.000    1.111 
#
# Total GULP energy -200527.203192 kJ/mol
# GULP energy per Si atom -5570.200089 kJ/mol
# Density = 1.965066 g / cm^3
# Si number density = 19.695483 Si / 1000 Ang^3
#
#
#
# Elastic Constant Matrix: (Units=GPa)
#
#
# Indices 1 2 3 4 5 6 
#
# 1 99.6053 36.5637 42.4727 0.0000 0.0000 0.0000
# 2 36.5637 99.6053 42.4727 0.0000 0.0000 0.0000
# 3 42.4727 42.4727 172.7872 0.0000 0.0000 0.0000
# 4 0.0000 0.0000 0.0000 -373.6040 0.0000 0.0000
# 5 0.0000 0.0000 0.0000 0.0000 -373.6040 0.0000
# 6 0.0000 0.0000 0.0000 0.0000 0.0000 28.2311
#
#
#
# Elastic Compliance Matrix: (Units=1/GPa)
#
#
# Indices 1 2 3 4 5 6 
#
# 1 0.012268 -0.003594 -0.002132 0.000000 0.000000 0.000000
# 2 -0.003594 0.012268 -0.002132 0.000000 0.000000 0.000000
# 3 -0.002132 -0.002132 0.006836 0.000000 0.000000 0.000000
# 4 0.000000 0.000000 0.000000 -0.002677 0.000000 0.000000
# 5 0.000000 0.000000 0.000000 0.000000 -0.002677 0.000000
# 6 0.000000 0.000000 0.000000 0.000000 0.000000 0.035422
#
#
# Mechanical properties :
#
#
# Convention : Reuss Voigt Hill
#
# Bulk Modulus (GPa) = 63.87762 68.33512 66.10637
# Shear Modulus (GPa) = 60.69713 -127.09614 -33.19951
#
# Velocity S-wave (km/s) = 5.55740 -8.04181 -4.11011
# Velocity P-wave (km/s) = 8.58386 7.17331 3.33363
#
# Compressibility (1/GPa) = 0.01565493
#
# Stress axis : x y z
#
# Youngs Moduli (GPa) = 81.51142 81.51142 146.29175
#
# Poissons Ratio (x) = 0.29298 0.31191
# Poissons Ratio (y) = 0.29298 0.31191
# Poissons Ratio (z) = 0.17379 0.17379
#
# Static dielectric constant tensor:
#      x y z
#    x 1.725020 0.000000 0.000000 
#    y 0.000000 1.725020 0.000000 
#    z 0.000000 0.000000 1.844290 
# 
# From -- ./inp_files/2743.got.cif
#   From: 2010.05.17/outbox.cif.g08.bks.cpg/sg139_2_cif.got.tgz:2743.got - 2010.05.20 13:14:44.
