data_PCOD9571433
_publ_section_title
;
Structure prediction by ZEFSAII (Michael W. Deem and Ramdas Pophale) SiO2 
 PCOD9571433
Probable space group: I 4/M M M
;
_chemical_formula_sum "Si O2"
_cell_formula_units_Z 144
_cell_length_a 19.180428
_cell_length_b 19.180428
_cell_length_c 22.402388
_cell_angle_alpha 90.000000
_cell_angle_beta 90.000000
_cell_angle_gamma 90.000000
_cell_volume 8241.588048
_symmetry_space_group_name_H-M "I 4/M M M"
_symmetry_group_IT_number 139
_symmetry_cell_setting 'tetragonal'
loop_
_space_group_symop_operation_xyz
x,y,z
-y,x,z
-x,-y,z
y,-x,z
x,-y,-z
-x,y,-z
y,x,-z
-y,-x,-z
-x,-y,-z
y,-x,-z
x,y,-z
-y,x,-z
-x,y,z
x,-y,z
-y,-x,z
y,x,z
1/2+x,1/2+y,1/2+z
1/2-y,1/2+x,1/2+z
1/2-x,1/2-y,1/2+z
1/2+y,1/2-x,1/2+z
1/2+x,1/2-y,1/2-z
1/2-x,1/2+y,1/2-z
1/2+y,1/2+x,1/2-z
1/2-y,1/2-x,1/2-z
1/2-x,1/2-y,1/2-z
1/2+y,1/2-x,1/2-z
1/2+x,1/2+y,1/2-z
1/2-y,1/2+x,1/2-z
1/2-x,1/2+y,1/2+z
1/2+x,1/2-y,1/2+z
1/2-y,1/2-x,1/2+z
1/2+y,1/2+x,1/2+z
loop_
_atom_site_type_symbol
_atom_site_label
_atom_site_fract_x
_atom_site_fract_y
_atom_site_fract_z
Si Si1 0.420264 0.771731 0.873761
Si Si2 0.280062 0.165724 0.836719
Si Si3 0.690771 0.580342 0.570318
Si Si4 0.417755 0.698797 0.000000
Si Si5 0.805949 0.080658 0.254343
O O1 0.500000 0.798922 0.873055
O O2 0.360604 0.823940 0.851460
O O3 0.404538 0.743216 0.939843
O O4 0.417785 0.709885 0.824823
O O5 0.240604 0.240604 0.831080
O O6 0.244253 0.125241 0.891445
O O7 0.257204 0.120521 0.779367
O O8 0.706501 0.585630 0.500000
O O9 0.692016 0.500000 0.587688
O O10 0.615523 0.615523 0.579979
O O11 0.500000 0.680246 0.000000
O O12 0.367932 0.632069 0.000000
O O13 0.874602 0.125399 0.240031
O O14 0.810375 0.000000 0.235968
#
# Coordination Sequence:
#
# PCOD9571433 Si02
#       5
#    32  32  32  16  32
#     4  10  21  35  52  76 104 135 175 222 266 308
#     4  10  19  32  53  76 101 136 175 214 258 306
#     4   9  18  31  48  74 104 134 170 209 254 310
#     4  10  20  33  50  74 103 135 170 210 258 312
#     4  10  20  34  53  79 109 140 174 211 257 314
#
# _framework density 17.472360999999999
#
# number of rings (size 3 to 8) (size 9 to 14) (size 15 to 20)
#    0.000    2.222    0.000    3.333    1.556    2.333 
#    0.000    1.111    0.000   10.667    0.000    7.778 
#    0.000    0.000    0.000    0.000    0.000    0.000 
#
# Total GULP energy -401583.387444 kJ/mol
# GULP energy per Si atom -5577.547048 kJ/mol
# Density = 1.743259 g / cm^3
# Si number density = 17.472361 Si / 1000 Ang^3
#
#
#
# Elastic Constant Matrix: (Units=GPa)
#
#
# Indices 1 2 3 4 5 6 
#
# 1 102.6473 48.6745 42.6669 0.0000 0.0000 0.0000
# 2 48.6745 102.6506 42.6672 0.0000 0.0000 0.0000
# 3 42.6669 42.6672 108.7048 0.0000 0.0000 0.0000
# 4 0.0000 0.0000 0.0000 21.2508 0.0000 0.0000
# 5 0.0000 0.0000 0.0000 0.0000 21.2508 0.0000
# 6 0.0000 0.0000 0.0000 0.0000 0.0000 15.7107
#
#
#
# Elastic Compliance Matrix: (Units=1/GPa)
#
#
# Indices 1 2 3 4 5 6 
#
# 1 0.013507 -0.005020 -0.003331 0.000000 0.000000 0.000000
# 2 -0.005020 0.013507 -0.003331 0.000000 0.000000 0.000000
# 3 -0.003331 -0.003331 0.011814 0.000000 0.000000 0.000000
# 4 0.000000 0.000000 0.000000 0.047057 0.000000 0.000000
# 5 0.000000 0.000000 0.000000 0.000000 0.047057 0.000000
# 6 0.000000 0.000000 0.000000 0.000000 0.000000 0.063651
#
#
# Mechanical properties :
#
#
# Convention : Reuss Voigt Hill
#
# Bulk Modulus (GPa) = 64.66890 64.66890 64.66890
# Shear Modulus (GPa) = 22.21113 23.64209 22.92661
#
# Velocity S-wave (km/s) = 3.56928 3.68246 3.62631
# Velocity P-wave (km/s) = 7.35383 7.42786 7.39094
#
# Compressibility (1/GPa) = 0.01546338
#
# Stress axis : x y z
#
# Youngs Moduli (GPa) = 74.03402 74.03663 84.64408
#
# Poissons Ratio (x) = 0.37168 0.28196
# Poissons Ratio (y) = 0.37167 0.28195
# Poissons Ratio (z) = 0.24662 0.24662
#
# Static dielectric constant tensor:
#      x y z
#    x 1.575970 0.000000 0.000000 
#    y 0.000000 1.575970 0.000000 
#    z 0.000000 0.000000 1.637640 
# 
# From -- ./inp_files/11495.got.cif
#   From: 2010.05.17/outbox.cif.g08.bks.cpg/sg139_6_cif.got.tgz:11495.got - 2010.05.20 13:14:44.
