data_PCOD9571388
_publ_section_title
;
Structure prediction by ZEFSAII (Michael W. Deem and Ramdas Pophale) SiO2 
 PCOD9571388
Probable space group: I 4/M M M
;
_chemical_formula_sum "Si O2"
_cell_formula_units_Z 192
_cell_length_a 31.456466
_cell_length_b 31.456466
_cell_length_c 11.116577
_cell_angle_alpha 90.000000
_cell_angle_beta 90.000000
_cell_angle_gamma 90.000000
_cell_volume 10999.955806
_symmetry_space_group_name_H-M "I 4/M M M"
_symmetry_group_IT_number 139
_symmetry_cell_setting 'tetragonal'
loop_
_space_group_symop_operation_xyz
x,y,z
-y,x,z
-x,-y,z
y,-x,z
x,-y,-z
-x,y,-z
y,x,-z
-y,-x,-z
-x,-y,-z
y,-x,-z
x,y,-z
-y,x,-z
-x,y,z
x,-y,z
-y,-x,z
y,x,z
1/2+x,1/2+y,1/2+z
1/2-y,1/2+x,1/2+z
1/2-x,1/2-y,1/2+z
1/2+y,1/2-x,1/2+z
1/2+x,1/2-y,1/2-z
1/2-x,1/2+y,1/2-z
1/2+y,1/2+x,1/2-z
1/2-y,1/2-x,1/2-z
1/2-x,1/2-y,1/2-z
1/2+y,1/2-x,1/2-z
1/2+x,1/2+y,1/2-z
1/2-y,1/2+x,1/2-z
1/2-x,1/2+y,1/2+z
1/2+x,1/2-y,1/2+z
1/2-y,1/2-x,1/2+z
1/2+y,1/2+x,1/2+z
loop_
_atom_site_type_symbol
_atom_site_label
_atom_site_fract_x
_atom_site_fract_y
_atom_site_fract_z
Si Si1 0.119805 0.950217 0.239784
Si Si2 0.828870 0.051435 0.000000
Si Si3 0.867972 0.325237 0.640802
Si Si4 0.202609 0.075191 0.359943
Si Si5 0.267224 0.332924 0.855061
Si Si6 0.789366 0.548397 0.238841
Si Si7 0.268546 0.948336 0.000000
O O1 0.079181 0.920820 0.258080
O O2 0.144470 0.936996 0.117642
O O3 0.155872 0.942401 0.339223
O O4 0.108974 0.000000 0.232433
O O5 0.780328 0.067593 0.000000
O O6 0.825903 0.000000 0.000000
O O7 0.859474 0.336934 0.500000
O O8 0.856957 0.356957 0.750000
O O9 0.841857 0.281880 0.671667
O O10 0.917343 0.311747 0.654414
O O11 0.213857 0.073039 0.500000
O O12 0.206940 0.124420 0.320651
O O13 0.238842 0.049747 0.289237
O O14 0.291352 0.291352 0.806868
O O15 0.268839 0.330872 0.000000
O O16 0.804377 0.500000 0.225884
O O17 0.792091 0.563527 0.377324
O O18 0.266660 0.000000 0.000000
#
# Coordination Sequence:
#
# PCOD9571388 Si02
#       7
#    32  16  32  32  32  32  16
#     4  11  22  34  48  64  86 118 156 203 259 321
#     4   9  17  33  50  69  91 112 146 195 258 316
#     4  10  22  36  52  77 109 149 186 221 261 300
#     4  10  19  31  50  75  99 123 156 206 264 314
#     4   8  15  30  50  71  97 130 170 213 256 305
#     4  10  19  33  56  83 109 136 170 210 259 316
#     4   9  16  29  53  82 105 129 157 202 267 317
#
# _framework density 17.454615
#
# number of rings (size 3 to 8) (size 9 to 14) (size 15 to 20)
#    0.000    2.333    1.667    2.750    1.167    3.833 
#    0.000    0.000    0.000    1.500    0.000    1.167 
#    0.000    0.333    0.000    1.500    0.000    0.000 
#
# Total GULP energy -534911.476649 kJ/mol
# GULP energy per Si atom -5571.994548 kJ/mol
# Density = 1.741489 g / cm^3
# Si number density = 17.454615 Si / 1000 Ang^3
#
#
#
# Elastic Constant Matrix: (Units=GPa)
#
#
# Indices 1 2 3 4 5 6 
#
# 1 41.3291 30.3517 16.4381 0.0000 0.0000 0.0000
# 2 30.3517 41.3291 16.4381 0.0000 0.0000 0.0000
# 3 16.4381 16.4381 74.7158 0.0000 0.0000 0.0000
# 4 0.0000 0.0000 0.0000 18.6501 0.0000 0.0000
# 5 0.0000 0.0000 0.0000 0.0000 18.6501 0.0000
# 6 0.0000 0.0000 0.0000 0.0000 0.0000 17.1296
#
#
#
# Elastic Compliance Matrix: (Units=1/GPa)
#
#
# Indices 1 2 3 4 5 6 
#
# 1 0.053306 -0.037790 -0.003414 0.000000 0.000000 0.000000
# 2 -0.037790 0.053306 -0.003414 0.000000 0.000000 0.000000
# 3 -0.003414 -0.003414 0.014886 0.000000 0.000000 0.000000
# 4 0.000000 0.000000 0.000000 0.053619 0.000000 0.000000
# 5 0.000000 0.000000 0.000000 0.000000 0.053619 0.000000
# 6 0.000000 0.000000 0.000000 0.000000 0.000000 0.058378
#
#
# Mechanical properties :
#
#
# Convention : Reuss Voigt Hill
#
# Bulk Modulus (GPa) = 30.99423 31.53663 31.26543
# Shear Modulus (GPa) = 12.91641 17.16237 15.03939
#
# Velocity S-wave (km/s) = 2.72324 3.13909 2.93853
# Velocity P-wave (km/s) = 5.26153 5.58977 5.42813
#
# Compressibility (1/GPa) = 0.03226407
#
# Stress axis : x y z
#
# Youngs Moduli (GPa) = 18.75950 18.75950 67.17651
#
# Poissons Ratio (x) = 0.70892 0.22932
# Poissons Ratio (y) = 0.70892 0.22932
# Poissons Ratio (z) = 0.06404 0.06404
#
# Static dielectric constant tensor:
#      x y z
#    x 1.599890 0.000000 0.000000 
#    y 0.000000 1.599890 0.000000 
#    z 0.000000 0.000000 1.649150 
# 
# From -- ./inp_files/4300.got.cif
#   From: 2010.05.17/outbox.cif.g08.bks.cpg/sg139_3_cif.got.tgz:4300.got - 2010.05.20 13:14:44.
