data_PCOD9571862
_publ_section_title
;
Structure prediction by ZEFSAII (Michael W. Deem and Ramdas Pophale) SiO2 
 PCOD9571862
Probable space group: I 4/M M M
;
_chemical_formula_sum "Si O2"
_cell_formula_units_Z 120
_cell_length_a 20.282683
_cell_length_b 20.282683
_cell_length_c 15.909532
_cell_angle_alpha 90.000000
_cell_angle_beta 90.000000
_cell_angle_gamma 90.000000
_cell_volume 6544.978295
_symmetry_space_group_name_H-M "I 4/M M M"
_symmetry_group_IT_number 139
_symmetry_cell_setting 'tetragonal'
loop_
_space_group_symop_operation_xyz
x,y,z
-y,x,z
-x,-y,z
y,-x,z
x,-y,-z
-x,y,-z
y,x,-z
-y,-x,-z
-x,-y,-z
y,-x,-z
x,y,-z
-y,x,-z
-x,y,z
x,-y,z
-y,-x,z
y,x,z
1/2+x,1/2+y,1/2+z
1/2-y,1/2+x,1/2+z
1/2-x,1/2-y,1/2+z
1/2+y,1/2-x,1/2+z
1/2+x,1/2-y,1/2-z
1/2-x,1/2+y,1/2-z
1/2+y,1/2+x,1/2-z
1/2-y,1/2-x,1/2-z
1/2-x,1/2-y,1/2-z
1/2+y,1/2-x,1/2-z
1/2+x,1/2+y,1/2-z
1/2-y,1/2+x,1/2-z
1/2-x,1/2+y,1/2+z
1/2+x,1/2-y,1/2+z
1/2-y,1/2-x,1/2+z
1/2+y,1/2+x,1/2+z
loop_
_atom_site_type_symbol
_atom_site_label
_atom_site_fract_x
_atom_site_fract_y
_atom_site_fract_z
Si Si1 0.500000 0.793979 0.602766
Si Si2 0.374396 0.625605 0.820818
Si Si3 0.858915 0.645512 0.099793
Si Si4 0.577019 0.422982 0.000000
Si Si5 0.235103 0.764898 0.345047
Si Si6 0.500000 0.696306 0.244653
Si Si7 0.807339 0.500000 0.102646
O O1 0.500000 0.782277 0.500000
O O2 0.567765 0.832145 0.625896
O O3 0.500000 0.731692 0.665128
O O4 0.320293 0.679708 0.842781
O O5 0.434342 0.654704 0.768193
O O6 0.396455 0.603546 0.912939
O O7 0.801881 0.699631 0.120668
O O8 0.842495 0.569853 0.124971
O O9 0.860531 0.643202 0.000000
O O10 0.590166 0.500000 0.000000
O O11 0.250000 0.750000 0.250000
O O12 0.500000 0.744542 0.163340
O O13 0.794804 0.500000 0.000000
#
# Coordination Sequence:
#
# PCOD9571862 Si02
#       7
#    16  16  32   8  16  16  16
#     4  10  24  45  65  86 121 167 222 278 320 359
#     4  12  25  38  64  96 129 172 206 251 308 394
#     4  10  22  40  62  90 123 165 210 260 317 379
#     4  11  24  40  60  96 140 170 196 242 314 399
#     4  12  23  36  59  90 123 161 212 262 314 367
#     4  12  24  41  63  92 132 168 213 254 319 368
#     4  10  22  37  61  97 131 163 201 250 318 392
#
# _framework density 18.334667
#
# number of rings (size 3 to 8) (size 9 to 14) (size 15 to 20)
#    0.000    1.133    4.000    2.000    3.733    0.800 
#    0.000    4.667    0.000    1.600    0.000    0.933 
#    0.000    0.000    0.000    0.000    0.000    0.000 
#
# Total GULP energy -334329.393474 kJ/mol
# GULP energy per Si atom -5572.156558 kJ/mol
# Density = 1.829294 g / cm^3
# Si number density = 18.334667 Si / 1000 Ang^3
#
#
#
# Elastic Constant Matrix: (Units=GPa)
#
#
# Indices 1 2 3 4 5 6 
#
# 1 160.5417 94.4857 40.1551 0.0000 0.0000 0.0000
# 2 94.4857 160.5422 40.1551 0.0000 0.0000 0.0000
# 3 40.1551 40.1551 60.3796 0.0000 0.0000 0.0000
# 4 0.0000 0.0000 0.0000 36.7544 0.0000 0.0000
# 5 0.0000 0.0000 0.0000 0.0000 36.7519 0.0000
# 6 0.0000 0.0000 0.0000 0.0000 0.0000 54.3247
#
#
#
# Elastic Compliance Matrix: (Units=1/GPa)
#
#
# Indices 1 2 3 4 5 6 
#
# 1 0.010049 -0.005089 -0.003299 0.000000 0.000000 0.000000
# 2 -0.005089 0.010049 -0.003299 0.000000 0.000000 0.000000
# 3 -0.003299 -0.003299 0.020949 0.000000 0.000000 0.000000
# 4 0.000000 0.000000 0.000000 0.027208 0.000000 0.000000
# 5 0.000000 0.000000 0.000000 0.000000 0.027209 0.000000
# 6 0.000000 0.000000 0.000000 0.000000 0.000000 0.018408
#
#
# Mechanical properties :
#
#
# Convention : Reuss Voigt Hill
#
# Bulk Modulus (GPa) = 56.57762 81.22837 68.90300
# Shear Modulus (GPa) = 34.93154 39.34405 37.13779
#
# Velocity S-wave (km/s) = 4.36962 4.63739 4.50549
# Velocity P-wave (km/s) = 7.50888 8.54829 8.04539
#
# Compressibility (1/GPa) = 0.01767483
#
# Stress axis : x y z
#
# Youngs Moduli (GPa) = 99.50978 99.51013 47.73444
#
# Poissons Ratio (x) = 0.50644 0.15745
# Poissons Ratio (y) = 0.50644 0.15745
# Poissons Ratio (z) = 0.32824 0.32824
#
# Static dielectric constant tensor:
#      x y z
#    x 1.759510 0.000000 0.000000 
#    y 0.000000 1.759500 0.000000 
#    z 0.000000 0.000000 1.598530 
# 
# From -- ./inp_files/5398.got.cif
#   From: 2010.05.17/outbox.cif.g08.bks.cpg/sg139_3_cif.got.tgz:5398.got - 2010.05.20 13:14:44.
