data_PCOD9571284
_publ_section_title
;
Structure prediction by ZEFSAII (Michael W. Deem and Ramdas Pophale) SiO2 
 PCOD9571284
Probable space group: I 4/M M M
;
_chemical_formula_sum "Si O2"
_cell_formula_units_Z 104
_cell_length_a 15.308583
_cell_length_b 15.308583
_cell_length_c 24.435953
_cell_angle_alpha 90.000000
_cell_angle_beta 90.000000
_cell_angle_gamma 90.000000
_cell_volume 5726.631892
_symmetry_space_group_name_H-M "I 4/M M M"
_symmetry_group_IT_number 139
_symmetry_cell_setting 'tetragonal'
loop_
_space_group_symop_operation_xyz
x,y,z
-y,x,z
-x,-y,z
y,-x,z
x,-y,-z
-x,y,-z
y,x,-z
-y,-x,-z
-x,-y,-z
y,-x,-z
x,y,-z
-y,x,-z
-x,y,z
x,-y,z
-y,-x,z
y,x,z
1/2+x,1/2+y,1/2+z
1/2-y,1/2+x,1/2+z
1/2-x,1/2-y,1/2+z
1/2+y,1/2-x,1/2+z
1/2+x,1/2-y,1/2-z
1/2-x,1/2+y,1/2-z
1/2+y,1/2+x,1/2-z
1/2-y,1/2-x,1/2-z
1/2-x,1/2-y,1/2-z
1/2+y,1/2-x,1/2-z
1/2+x,1/2+y,1/2-z
1/2-y,1/2+x,1/2-z
1/2-x,1/2+y,1/2+z
1/2+x,1/2-y,1/2+z
1/2-y,1/2-x,1/2+z
1/2+y,1/2+x,1/2+z
loop_
_atom_site_type_symbol
_atom_site_label
_atom_site_fract_x
_atom_site_fract_y
_atom_site_fract_z
Si Si1 0.272839 0.600731 0.000000
Si Si2 0.604195 0.395806 0.500000
Si Si3 0.261655 0.261655 0.685517
Si Si4 0.317156 0.894572 0.387643
Si Si5 0.894611 0.500000 0.562233
Si Si6 0.393396 0.606605 0.623686
O O1 0.231841 0.631729 0.943632
O O2 0.254675 0.500000 0.000000
O O3 0.373277 0.626724 0.000000
O O4 0.618737 0.500000 0.500000
O O5 0.633417 0.366584 0.560787
O O6 0.250000 0.250000 0.750000
O O7 0.286620 0.167249 0.660573
O O8 0.333711 0.333711 0.664129
O O9 0.416078 0.872681 0.402966
O O10 0.307596 0.000000 0.378579
O O11 0.858974 0.500000 0.500000
O O12 0.000000 0.500000 0.556387
O O13 0.379942 0.500000 0.629604
#
# Coordination Sequence:
#
# PCOD9571284 Si02
#       6
#    16   8  16  32  16  16
#     4  10  18  33  58  85 115 146 179 235 303 357
#     4   7  12  30  58  90 126 150 170 221 294 368
#     4  12  27  41  58  82 113 163 212 256 282 323
#     4  10  21  38  59  85 120 153 188 237 295 357
#     4   9  16  32  60  92 121 147 175 224 298 371
#     4   9  20  40  65  94 126 155 187 236 301 368
#
# _framework density 18.160764
#
# number of rings (size 3 to 8) (size 9 to 14) (size 15 to 20)
#    0.000    2.231    3.077    0.923    2.154    2.615 
#    0.000    0.000    0.000    0.462    0.000    0.000 
#    0.000    0.000    0.000    0.000    0.000    0.000 
#
# Total GULP energy -289473.510705 kJ/mol
# GULP energy per Si atom -5566.798283 kJ/mol
# Density = 1.811943 g / cm^3
# Si number density = 18.160764 Si / 1000 Ang^3
#
#
#
# Elastic Constant Matrix: (Units=GPa)
#
#
# Indices 1 2 3 4 5 6 
#
# 1 181.5591 -45.9711 66.1433 0.0000 0.0000 0.0000
# 2 -45.9711 181.5398 66.1398 0.0000 0.0000 0.0000
# 3 66.1433 66.1398 182.1474 0.0000 0.0000 0.0000
# 4 0.0000 0.0000 0.0000 -143.7646 0.0000 0.0000
# 5 0.0000 0.0000 0.0000 0.0000 -143.8867 0.0000
# 6 0.0000 0.0000 0.0000 0.0000 0.0000 31.4907
#
#
#
# Elastic Compliance Matrix: (Units=1/GPa)
#
#
# Indices 1 2 3 4 5 6 
#
# 1 0.007909 0.003514 -0.004148 0.000000 0.000000 0.000000
# 2 0.003514 0.007909 -0.004148 0.000000 0.000000 0.000000
# 3 -0.004148 -0.004148 0.008502 0.000000 0.000000 0.000000
# 4 0.000000 0.000000 0.000000 -0.006956 0.000000 0.000000
# 5 0.000000 0.000000 0.000000 0.000000 -0.006950 0.000000
# 6 0.000000 0.000000 0.000000 0.000000 0.000000 0.031755
#
#
# Mechanical properties :
#
#
# Convention : Reuss Voigt Hill
#
# Bulk Modulus (GPa) = 67.76611 79.76337 73.76474
# Shear Modulus (GPa) = 88.25663 -20.63651 33.81006
#
# Velocity S-wave (km/s) = 6.97875 -3.37460 4.31943
# Velocity P-wave (km/s) = 10.11597 5.36956 8.09830
#
# Compressibility (1/GPa) = 0.01475664
#
# Stress axis : x y z
#
# Youngs Moduli (GPa) = 126.44423 126.43083 117.61344
#
# Poissons Ratio (x) = -0.44426 0.48783
# Poissons Ratio (y) = -0.44430 0.48786
# Poissons Ratio (z) = 0.52446 0.52443
#
# Static dielectric constant tensor:
#      x y z
#    x 1.647340 0.000000 0.000000 
#    y 0.000000 1.647330 0.000000 
#    z 0.000000 0.000000 1.622090 
# 
# From -- ./inp_files/11127.got.cif
#   From: 2010.05.17/outbox.cif.g08.bks.cpg/sg139_6_cif.got.tgz:11127.got - 2010.05.20 13:14:44.
