data_PCOD9571541
_publ_section_title
;
Structure prediction by ZEFSAII (Michael W. Deem and Ramdas Pophale) SiO2 
 PCOD9571541
Probable space group: I 4/M M M
;
_chemical_formula_sum "Si O2"
_cell_formula_units_Z 144
_cell_length_a 32.720344
_cell_length_b 32.720344
_cell_length_c 7.720322
_cell_angle_alpha 90.000000
_cell_angle_beta 90.000000
_cell_angle_gamma 90.000000
_cell_volume 8265.538177
_symmetry_space_group_name_H-M "I 4/M M M"
_symmetry_group_IT_number 139
_symmetry_cell_setting 'tetragonal'
loop_
_space_group_symop_operation_xyz
x,y,z
-y,x,z
-x,-y,z
y,-x,z
x,-y,-z
-x,y,-z
y,x,-z
-y,-x,-z
-x,-y,-z
y,-x,-z
x,y,-z
-y,x,-z
-x,y,z
x,-y,z
-y,-x,z
y,x,z
1/2+x,1/2+y,1/2+z
1/2-y,1/2+x,1/2+z
1/2-x,1/2-y,1/2+z
1/2+y,1/2-x,1/2+z
1/2+x,1/2-y,1/2-z
1/2-x,1/2+y,1/2-z
1/2+y,1/2+x,1/2-z
1/2-y,1/2-x,1/2-z
1/2-x,1/2-y,1/2-z
1/2+y,1/2-x,1/2-z
1/2+x,1/2+y,1/2-z
1/2-y,1/2+x,1/2-z
1/2-x,1/2+y,1/2+z
1/2+x,1/2-y,1/2+z
1/2-y,1/2-x,1/2+z
1/2+y,1/2+x,1/2+z
loop_
_atom_site_type_symbol
_atom_site_label
_atom_site_fract_x
_atom_site_fract_y
_atom_site_fract_z
Si Si1 0.220938 0.158188 0.789388
Si Si2 0.681626 0.426383 0.796613
Si Si3 0.882101 0.951237 0.000000
Si Si4 0.371214 0.192746 0.702842
Si Si5 0.228235 0.455616 0.792142
O O1 0.200972 0.200972 0.739538
O O2 0.192089 0.121583 0.723072
O O3 0.266679 0.150708 0.721441
O O4 0.220560 0.155404 0.000000
O O5 0.645687 0.439950 0.668359
O O6 0.724848 0.446701 0.738955
O O7 0.673888 0.435830 0.000000
O O8 0.922241 0.922241 0.000000
O O9 0.890585 0.000000 0.000000
O O10 0.366528 0.196451 0.500000
O O11 0.348808 0.151193 0.750000
O O12 0.418711 0.198774 0.742804
O O13 0.215541 0.500000 0.727156
O O14 0.229420 0.456200 0.000000
#
# Coordination Sequence:
#
# PCOD9571541 Si02
#       5
#    32  32  16  32  32
#     4   9  17  31  50  73 102 136 175 215 253 298
#     4  10  20  36  58  84 108 131 163 213 271 322
#     4  12  26  41  58  78 102 132 168 214 267 329
#     4  10  20  32  46  67 100 142 178 212 251 299
#     4   9  18  33  54  79 104 130 166 215 266 314
#
# _framework density 17.421734000000001
#
# number of rings (size 3 to 8) (size 9 to 14) (size 15 to 20)
#    0.000    2.222    1.111    2.000    1.556    5.000 
#    0.000    0.000    0.000    0.000    0.000    1.556 
#    0.000    0.444    0.000    4.667    0.000    2.000 
#
# Total GULP energy -401544.988423 kJ/mol
# GULP energy per Si atom -5577.013728 kJ/mol
# Density = 1.738208 g / cm^3
# Si number density = 17.421734 Si / 1000 Ang^3
#
#
#
# Elastic Constant Matrix: (Units=GPa)
#
#
# Indices 1 2 3 4 5 6 
#
# 1 205.5568 -21.0648 22.6447 0.0000 0.0000 0.0000
# 2 -21.0648 205.4382 22.7066 0.0000 0.0000 0.0000
# 3 22.6447 22.7066 60.8571 0.0000 0.0000 0.0000
# 4 0.0000 0.0000 0.0000 12.3842 0.0000 0.0000
# 5 0.0000 0.0000 0.0000 0.0000 12.3834 0.0000
# 6 0.0000 0.0000 0.0000 0.0000 0.0000 12.0489
#
#
#
# Elastic Compliance Matrix: (Units=1/GPa)
#
#
# Indices 1 2 3 4 5 6 
#
# 1 0.005189 0.000778 -0.002221 0.000000 0.000000 0.000000
# 2 0.000778 0.005194 -0.002227 0.000000 0.000000 0.000000
# 3 -0.002221 -0.002227 0.018089 0.000000 0.000000 0.000000
# 4 0.000000 0.000000 0.000000 0.080748 0.000000 0.000000
# 5 0.000000 0.000000 0.000000 0.000000 0.080754 0.000000
# 6 0.000000 0.000000 0.000000 0.000000 0.000000 0.082995
#
#
# Mechanical properties :
#
#
# Convention : Reuss Voigt Hill
#
# Bulk Modulus (GPa) = 47.32393 57.82501 52.57447
# Shear Modulus (GPa) = 17.40017 37.20099 27.30058
#
# Velocity S-wave (km/s) = 3.16375 4.62597 3.96288
# Velocity P-wave (km/s) = 6.36934 7.86105 7.15418
#
# Compressibility (1/GPa) = 0.02113096
#
# Stress axis : x y z
#
# Youngs Moduli (GPa) = 192.70833 192.54727 55.28121
#
# Poissons Ratio (x) = -0.14972 0.12278
# Poissons Ratio (y) = -0.14984 0.12312
# Poissons Ratio (z) = 0.42801 0.42882
#
# Static dielectric constant tensor:
#      x y z
#    x 1.572140 0.000000 0.000000 
#    y 0.000000 1.572120 0.000000 
#    z 0.000000 0.000000 1.623670 
# 
# From -- ./inp_files/1981.got.cif
#   From: 2010.05.17/outbox.cif.g08.bks.cpg/sg139_1_cif.got.tgz:1981.got - 2010.05.20 13:14:44.
