data_PCOD9571192
_publ_section_title
;
Structure prediction by ZEFSAII (Michael W. Deem and Ramdas Pophale) SiO2 
 PCOD9571192
Probable space group: I 4/M M M
;
_chemical_formula_sum "Si O2"
_cell_formula_units_Z 224
_cell_length_a 23.410641
_cell_length_b 23.410641
_cell_length_c 26.758446
_cell_angle_alpha 90.000000
_cell_angle_beta 90.000000
_cell_angle_gamma 90.000000
_cell_volume 14665.183396
_symmetry_space_group_name_H-M "I 4/M M M"
_symmetry_group_IT_number 139
_symmetry_cell_setting 'tetragonal'
loop_
_space_group_symop_operation_xyz
x,y,z
-y,x,z
-x,-y,z
y,-x,z
x,-y,-z
-x,y,-z
y,x,-z
-y,-x,-z
-x,-y,-z
y,-x,-z
x,y,-z
-y,x,-z
-x,y,z
x,-y,z
-y,-x,z
y,x,z
1/2+x,1/2+y,1/2+z
1/2-y,1/2+x,1/2+z
1/2-x,1/2-y,1/2+z
1/2+y,1/2-x,1/2+z
1/2+x,1/2-y,1/2-z
1/2-x,1/2+y,1/2-z
1/2+y,1/2+x,1/2-z
1/2-y,1/2-x,1/2-z
1/2-x,1/2-y,1/2-z
1/2+y,1/2-x,1/2-z
1/2+x,1/2+y,1/2-z
1/2-y,1/2+x,1/2-z
1/2-x,1/2+y,1/2+z
1/2+x,1/2-y,1/2+z
1/2-y,1/2-x,1/2+z
1/2+y,1/2+x,1/2+z
loop_
_atom_site_type_symbol
_atom_site_label
_atom_site_fract_x
_atom_site_fract_y
_atom_site_fract_z
Si Si1 0.266341 0.169948 0.059535
Si Si2 0.349982 0.064635 0.776720
Si Si3 0.564737 0.655235 0.059951
Si Si4 0.067966 0.733398 0.136093
Si Si5 0.254567 0.564451 0.800606
Si Si6 0.566722 0.661188 0.287231
Si Si7 0.756926 0.147948 0.609375
O O1 0.210708 0.210708 0.067771
O O2 0.262165 0.110790 0.089714
O O3 0.320176 0.205523 0.081456
O O4 0.272309 0.161918 0.000000
O O5 0.395428 0.104573 0.750000
O O6 0.322154 0.082580 0.829691
O O7 0.296400 0.063024 0.739182
O O8 0.371932 0.000000 0.782519
O O9 0.500000 0.657321 0.078795
O O10 0.599659 0.599659 0.078182
O O11 0.602647 0.709532 0.074868
O O12 0.562695 0.652396 0.000000
O O13 0.075822 0.788811 0.171747
O O14 0.000000 0.730351 0.123928
O O15 0.259517 0.500000 0.821798
O O16 0.310580 0.576843 0.767345
O O17 0.242141 0.612089 0.841519
O O18 0.500000 0.644946 0.289750
O O19 0.609278 0.609278 0.295688
O O20 0.802539 0.197462 0.622281
#
# Coordination Sequence:
#
# PCOD9571192 Si02
#       7
#    32  32  32  32  32  32  32
#     4  10  20  32  47  68  91 114 145 187 232 276
#     4   9  17  29  45  66  91 115 141 174 211 255
#     4   9  17  28  41  57  79 109 145 184 222 258
#     4   9  18  32  49  67  89 119 149 180 221 269
#     4   9  17  28  43  63  87 117 149 179 210 249
#     4   9  17  29  45  66  92 121 153 185 218 259
#     4  10  18  28  43  62  86 115 144 179 224 266
#
# _framework density 15.274272
#
# number of rings (size 3 to 8) (size 9 to 14) (size 15 to 20)
#    0.000    2.714    0.000    4.286    0.000    2.429 
#    0.000    0.714    0.000    6.857    0.000    2.000 
#    0.000    0.000    0.000   31.429    0.000    0.000 
#
# Total GULP energy -623641.111344 kJ/mol
# GULP energy per Si atom -5568.224208 kJ/mol
# Density = 1.523951 g / cm^3
# Si number density = 15.274272 Si / 1000 Ang^3
#
#
#
# Elastic Constant Matrix: (Units=GPa)
#
#
# Indices 1 2 3 4 5 6 
#
# 1 85.6815 47.6629 46.0886 0.0000 0.0000 0.0000
# 2 47.6629 85.6858 46.0886 0.0000 0.0000 0.0000
# 3 46.0886 46.0886 89.5646 0.0000 0.0000 0.0000
# 4 0.0000 0.0000 0.0000 24.0559 0.0000 0.0000
# 5 0.0000 0.0000 0.0000 0.0000 24.0566 0.0000
# 6 0.0000 0.0000 0.0000 0.0000 0.0000 19.7138
#
#
#
# Elastic Compliance Matrix: (Units=1/GPa)
#
#
# Indices 1 2 3 4 5 6 
#
# 1 0.018971 -0.007331 -0.005990 0.000000 0.000000 0.000000
# 2 -0.007331 0.018970 -0.005989 0.000000 0.000000 0.000000
# 3 -0.005990 -0.005989 0.017329 0.000000 0.000000 0.000000
# 4 0.000000 0.000000 0.000000 0.041570 0.000000 0.000000
# 5 0.000000 0.000000 0.000000 0.000000 0.041569 0.000000
# 6 0.000000 0.000000 0.000000 0.000000 0.000000 0.050726
#
#
# Mechanical properties :
#
#
# Convention : Reuss Voigt Hill
#
# Bulk Modulus (GPa) = 60.05878 60.06801 60.06339
# Shear Modulus (GPa) = 21.43119 21.63806 21.53462
#
# Velocity S-wave (km/s) = 3.74985 3.76790 3.75889
# Velocity P-wave (km/s) = 7.62588 7.63813 7.63201
#
# Compressibility (1/GPa) = 0.01665035
#
# Stress axis : x y z
#
# Youngs Moduli (GPa) = 52.71149 52.71527 57.70535
#
# Poissons Ratio (x) = 0.38645 0.34565
# Poissons Ratio (y) = 0.38642 0.34561
# Poissons Ratio (z) = 0.31574 0.31572
#
# Static dielectric constant tensor:
#      x y z
#    x 1.505550 0.000000 0.000000 
#    y 0.000000 1.505550 0.000000 
#    z 0.000000 0.000000 1.511600 
# 
# From -- ./inp_files/12169.got.cif
#   From: 2010.05.17/outbox.cif.g08.bks.cpg/sg139_7_cif.got.tgz:12169.got - 2010.05.20 13:14:44.
