data_PCOD9571667
_publ_section_title
;
Structure prediction by ZEFSAII (Michael W. Deem and Ramdas Pophale) SiO2 
 PCOD9571667
Probable space group: I 4/M M M
;
_chemical_formula_sum "Si O2"
_cell_formula_units_Z 128
_cell_length_a 24.821707
_cell_length_b 24.821707
_cell_length_c 10.745970
_cell_angle_alpha 90.000000
_cell_angle_beta 90.000000
_cell_angle_gamma 90.000000
_cell_volume 6620.776286
_symmetry_space_group_name_H-M "I 4/M M M"
_symmetry_group_IT_number 139
_symmetry_cell_setting 'tetragonal'
loop_
_space_group_symop_operation_xyz
x,y,z
-y,x,z
-x,-y,z
y,-x,z
x,-y,-z
-x,y,-z
y,x,-z
-y,-x,-z
-x,-y,-z
y,-x,-z
x,y,-z
-y,x,-z
-x,y,z
x,-y,z
-y,-x,z
y,x,z
1/2+x,1/2+y,1/2+z
1/2-y,1/2+x,1/2+z
1/2-x,1/2-y,1/2+z
1/2+y,1/2-x,1/2+z
1/2+x,1/2-y,1/2-z
1/2-x,1/2+y,1/2-z
1/2+y,1/2+x,1/2-z
1/2-y,1/2-x,1/2-z
1/2-x,1/2-y,1/2-z
1/2+y,1/2-x,1/2-z
1/2+x,1/2+y,1/2-z
1/2-y,1/2+x,1/2-z
1/2-x,1/2+y,1/2+z
1/2+x,1/2-y,1/2+z
1/2-y,1/2-x,1/2+z
1/2+y,1/2+x,1/2+z
loop_
_atom_site_type_symbol
_atom_site_label
_atom_site_fract_x
_atom_site_fract_y
_atom_site_fract_z
Si Si1 0.124698 0.563211 0.859745
Si Si2 0.234807 0.322948 0.363478
Si Si3 0.762369 0.560528 0.732690
Si Si4 0.854969 0.940505 0.350481
O O1 0.109461 0.500000 0.855367
O O2 0.094529 0.594529 0.750000
O O3 0.188099 0.565941 0.828668
O O4 0.113704 0.583464 0.000000
O O5 0.213248 0.307228 0.500000
O O6 0.292771 0.292771 0.351395
O O7 0.199443 0.300558 0.250000
O O8 0.236236 0.387276 0.354385
O O9 0.767088 0.500000 0.676676
O O10 0.705430 0.563818 0.801764
O O11 0.853703 0.937551 0.500000
O O12 0.893556 0.893556 0.302951
O O13 0.875867 0.000000 0.316298
#
# Coordination Sequence:
#
# PCOD9571667 Si02
#       4
#    32  32  32  32
#     4  10  22  39  58  81 109 141 178 222 271 323
#     4  10  22  39  58  82 112 145 182 225 272 322
#     4  10  20  34  54  79 108 142 180 223 272 324
#     4   9  17  29  47  73 106 145 187 229 273 321
#
# _framework density 19.333079999999999
#
# number of rings (size 3 to 8) (size 9 to 14) (size 15 to 20)
#    0.000    2.250    0.000    2.250    0.000    9.500 
#    0.000    7.500    0.000    0.000    0.000    0.000 
#    0.000    0.000    0.000   23.250    0.000    0.500 
#
# Total GULP energy -356932.597873 kJ/mol
# GULP energy per Si atom -5577.071842 kJ/mol
# Density = 1.928908 g / cm^3
# Si number density = 19.333080 Si / 1000 Ang^3
#
#
#
# Elastic Constant Matrix: (Units=GPa)
#
#
# Indices 1 2 3 4 5 6 
#
# 1 75.5804 76.4617 56.3560 0.0000 0.0000 0.0000
# 2 76.4617 75.5614 56.3621 0.0000 0.0000 0.0000
# 3 56.3560 56.3621 118.4655 0.0000 0.0000 0.0000
# 4 0.0000 0.0000 0.0000 9.7704 0.0000 0.0000
# 5 0.0000 0.0000 0.0000 0.0000 9.7687 0.0000
# 6 0.0000 0.0000 0.0000 0.0000 0.0000 29.1581
#
#
#
# Elastic Compliance Matrix: (Units=1/GPa)
#
#
# Indices 1 2 3 4 5 6 
#
# 1 -0.556065 0.566368 -0.004931 0.000000 0.000000 0.000000
# 2 0.566368 -0.556348 -0.004738 0.000000 0.000000 0.000000
# 3 -0.004931 -0.004738 0.013041 0.000000 0.000000 0.000000
# 4 0.000000 0.000000 0.000000 0.102350 0.000000 0.000000
# 5 0.000000 0.000000 0.000000 0.000000 0.102368 0.000000
# 6 0.000000 0.000000 0.000000 0.000000 0.000000 0.034296
#
#
# Mechanical properties :
#
#
# Convention : Reuss Voigt Hill
#
# Bulk Modulus (GPa) = 71.29043 71.99633 71.64338
# Shear Modulus (GPa) = -2.53926 15.10127 6.28101
#
# Velocity S-wave (km/s) = -1.14729 2.79787 1.80441
# Velocity P-wave (km/s) = 5.93295 6.91073 6.44042
#
# Compressibility (1/GPa) = 0.01402713
#
# Stress axis : x y z
#
# Youngs Moduli (GPa) = -1.79835 -1.79744 76.68062
#
# Poissons Ratio (x) = 1.01801 0.37810
# Poissons Ratio (y) = 1.01853 0.36331
# Poissons Ratio (z) = -0.00887 -0.00852
#
# Static dielectric constant tensor:
#      x y z
#    x 1.688630 0.000000 0.000000 
#    y 0.000000 1.688630 0.000000 
#    z 0.000000 0.000000 1.671170 
# 
# From -- ./inp_files/3395.got.cif
#   From: 2010.05.17/outbox.cif.g08.bks.cpg/sg139_2_cif.got.tgz:3395.got - 2010.05.20 13:14:44.
