data_PCOD9571076
_publ_section_title
;
Structure prediction by ZEFSAII (Michael W. Deem and Ramdas Pophale) SiO2 
 PCOD9571076
Probable space group: P 42/N C M
;
_chemical_formula_sum "Si O2"
_cell_formula_units_Z 80
_cell_length_a 10.819947
_cell_length_b 10.819947
_cell_length_c 33.958908
_cell_angle_alpha 90.000000
_cell_angle_beta 90.000000
_cell_angle_gamma 90.000000
_cell_volume 3975.611913
_symmetry_space_group_name_H-M "P 42/N C M"
_symmetry_group_IT_number 138
_space_group.IT_coordinate_system_code '2'
_symmetry_cell_setting 'tetragonal'
loop_
_space_group_symop_operation_xyz
x,y,z
1/2-y,x,1/2+z
1/2-x,1/2-y,z
y,1/2-x,1/2+z
1/2+x,-y,1/2-z
-x,1/2+y,1/2-z
1/2+y,1/2+x,-z
-y,-x,-z
-x,-y,-z
1/2+y,-x,1/2-z
1/2+x,1/2+y,-z
-y,1/2+x,1/2-z
1/2-x,y,1/2+z
x,1/2-y,1/2+z
1/2-y,1/2-x,z
y,x,z
loop_
_atom_site_type_symbol
_atom_site_label
_atom_site_fract_x
_atom_site_fract_y
_atom_site_fract_z
Si Si1 0.457177 0.251673 0.258850
Si Si2 0.122298 0.588999 0.689352
Si Si3 0.007535 0.690469 0.048948
Si Si4 0.283544 0.018056 0.038450
Si Si5 0.604522 0.096367 0.397899
O O1 0.359069 0.140932 0.251462
O O2 0.373633 0.373633 0.267345
O O3 0.542281 0.277284 0.220793
O O4 0.546944 0.205857 0.293610
O O5 0.166491 0.609996 0.644847
O O6 0.024170 0.475831 0.688533
O O7 0.880278 0.619723 0.058863
O O8 0.109128 0.584654 0.041887
O O9 0.063911 0.777336 0.081848
O O10 0.988820 0.759579 0.007036
O O11 0.185892 0.980605 0.071135
O O12 0.351520 0.148481 0.044785
O O13 0.479357 0.020644 0.391475
#
# Coordination Sequence:
#
# PCOD9571076 Si02
#       5
#    16  16  16  16  16
#     4   9  18  37  60  76 104 147 182 225 282 336
#     4   9  20  37  55  80 108 140 182 219 271 344
#     4   9  19  37  57  76 107 153 196 229 269 328
#     4   9  19  37  57  76 107 153 196 229 269 328
#     4  11  22  34  53  84 118 142 174 234 291 332
#
# _framework density 20.122689000000001
#
# number of rings (size 3 to 8) (size 9 to 14) (size 15 to 20)
#    0.000    2.600    0.000    2.400    0.000    6.000 
#    7.200    6.000    0.000    0.000    0.000    0.000 
#    0.000    0.000    0.000    0.000    0.000    0.000 
#
# Total GULP energy -446248.283748 kJ/mol
# GULP energy per Si atom -5578.103547 kJ/mol
# Density = 2.007689 g / cm^3
# Si number density = 20.122689 Si / 1000 Ang^3
#
#
#
# Elastic Constant Matrix: (Units=GPa)
#
#
# Indices 1 2 3 4 5 6 
#
# 1 59.7427 -10.0789 17.2417 0.0000 0.0000 0.0000
# 2 -10.0789 59.7427 17.2417 0.0000 0.0000 0.0000
# 3 17.2417 17.2417 94.8576 0.0000 0.0000 0.0000
# 4 0.0000 0.0000 0.0000 14.8083 0.0000 0.0000
# 5 0.0000 0.0000 0.0000 0.0000 14.8083 0.0000
# 6 0.0000 0.0000 0.0000 0.0000 0.0000 21.7869
#
#
#
# Elastic Compliance Matrix: (Units=1/GPa)
#
#
# Indices 1 2 3 4 5 6 
#
# 1 0.018683 0.004361 -0.004189 0.000000 0.000000 0.000000
# 2 0.004361 0.018683 -0.004189 0.000000 0.000000 0.000000
# 3 -0.004189 -0.004189 0.012065 0.000000 0.000000 0.000000
# 4 0.000000 0.000000 0.000000 0.067530 0.000000 0.000000
# 5 0.000000 0.000000 0.000000 0.000000 0.067530 0.000000
# 6 0.000000 0.000000 0.000000 0.000000 0.000000 0.045899
#
#
# Mechanical properties :
#
#
# Convention : Reuss Voigt Hill
#
# Bulk Modulus (GPa) = 24.15575 29.23912 26.69743
# Shear Modulus (GPa) = 19.82389 22.94328 21.38359
#
# Velocity S-wave (km/s) = 3.14212 3.38030 3.26338
# Velocity P-wave (km/s) = 5.01938 5.45868 5.24363
#
# Compressibility (1/GPa) = 0.04139801
#
# Stress axis : x y z
#
# Youngs Moduli (GPa) = 53.52480 53.52480 82.88598
#
# Poissons Ratio (x) = -0.23341 0.34717
# Poissons Ratio (y) = -0.23341 0.34717
# Poissons Ratio (z) = 0.22419 0.22419
#
# Static dielectric constant tensor:
#      x y z
#    x 1.725690 0.000000 0.000000 
#    y 0.000000 1.725690 0.000000 
#    z 0.000000 0.000000 1.723270 
# 
# From -- ./inp_files/7928.got.cif
#   From: 2010.05.17/outbox.cif.g08.bks.cpg/sg138_4_cif.got.tgz:7928.got - 2010.05.20 13:08:53.
