data_PCOD9571044
_publ_section_title
;
Structure prediction by ZEFSAII (Michael W. Deem and Ramdas Pophale) SiO2 
 PCOD9571044
Probable space group: P 42/N C M
;
_chemical_formula_sum "Si O2"
_cell_formula_units_Z 64
_cell_length_a 12.494956
_cell_length_b 12.494956
_cell_length_c 20.062630
_cell_angle_alpha 90.000000
_cell_angle_beta 90.000000
_cell_angle_gamma 90.000000
_cell_volume 3132.256550
_symmetry_space_group_name_H-M "P 42/N C M"
_symmetry_group_IT_number 138
_space_group.IT_coordinate_system_code '2'
_symmetry_cell_setting 'tetragonal'
loop_
_space_group_symop_operation_xyz
x,y,z
1/2-y,x,1/2+z
1/2-x,1/2-y,z
y,1/2-x,1/2+z
1/2+x,-y,1/2-z
-x,1/2+y,1/2-z
1/2+y,1/2+x,-z
-y,-x,-z
-x,-y,-z
1/2+y,-x,1/2-z
1/2+x,1/2+y,-z
-y,1/2+x,1/2-z
1/2-x,y,1/2+z
x,1/2-y,1/2+z
1/2-y,1/2-x,z
y,x,z
loop_
_atom_site_type_symbol
_atom_site_label
_atom_site_fract_x
_atom_site_fract_y
_atom_site_fract_z
Si Si1 0.624855 0.207985 0.591686
Si Si2 0.076291 0.726869 0.767279
Si Si3 0.671328 0.991646 0.009610
Si Si4 0.023854 0.303989 0.365844
O O1 0.750000 0.250000 0.584720
O O2 0.567131 0.268647 0.653384
O O3 0.548595 0.230781 0.529063
O O4 0.634698 0.085117 0.613161
O O5 0.134706 0.837140 0.747016
O O6 0.982787 0.714235 0.713619
O O7 0.620403 0.879598 0.985193
O O8 0.701080 0.978787 0.086923
O O9 0.579739 0.079739 0.000000
O O10 0.125864 0.374136 0.382943
#
# Coordination Sequence:
#
# PCOD9571044 Si02
#       4
#    16  16  16  16
#     4  11  19  37  65  90 120 159 205 267 306 357
#     4   9  15  33  59  85 114 153 197 251 310 353
#     4  11  23  38  59  89 124 168 210 249 307 371
#     4  11  23  37  60  94 126 162 206 257 314 371
#
# _framework density 20.432555000000001
#
# number of rings (size 3 to 8) (size 9 to 14) (size 15 to 20)
#    0.000    1.500    7.500    0.750    0.000    3.500 
#    0.000    7.500    0.000    0.000    0.000    3.500 
#    0.000    0.000    0.000    0.000    0.000    0.000 
#
# Total GULP energy -356507.677760 kJ/mol
# GULP energy per Si atom -5570.432465 kJ/mol
# Density = 2.038605 g / cm^3
# Si number density = 20.432555 Si / 1000 Ang^3
#
#
#
# Elastic Constant Matrix: (Units=GPa)
#
#
# Indices 1 2 3 4 5 6 
#
# 1 25.1112 38.4023 17.8350 0.0000 0.0000 0.0000
# 2 38.4023 25.1112 17.8350 0.0000 0.0000 0.0000
# 3 17.8350 17.8350 95.4638 0.0000 0.0000 0.0000
# 4 0.0000 0.0000 0.0000 9.6456 0.0000 0.0000
# 5 0.0000 0.0000 0.0000 0.0000 9.6456 0.0000
# 6 0.0000 0.0000 0.0000 0.0000 0.0000 38.2891
#
#
#
# Elastic Compliance Matrix: (Units=1/GPa)
#
#
# Indices 1 2 3 4 5 6 
#
# 1 -0.028824 0.046414 -0.003286 0.000000 0.000000 0.000000
# 2 0.046414 -0.028824 -0.003286 0.000000 0.000000 0.000000
# 3 -0.003286 -0.003286 0.011703 0.000000 0.000000 0.000000
# 4 0.000000 0.000000 0.000000 0.103674 0.000000 0.000000
# 5 0.000000 0.000000 0.000000 0.000000 0.103674 0.000000
# 6 0.000000 0.000000 0.000000 0.000000 0.000000 0.026117
#
#
# Mechanical properties :
#
#
# Convention : Reuss Voigt Hill
#
# Bulk Modulus (GPa) = 29.63973 32.64786 31.14380
# Shear Modulus (GPa) = 41.98781 16.29035 29.13908
#
# Velocity S-wave (km/s) = 4.53807 2.82667 3.78048
# Velocity P-wave (km/s) = 6.48046 5.16396 5.85930
#
# Compressibility (1/GPa) = 0.03373850
#
# Stress axis : x y z
#
# Youngs Moduli (GPa) = -34.69315 -34.69315 85.44746
#
# Poissons Ratio (x) = 1.61026 0.28081
# Poissons Ratio (y) = 1.61026 0.28081
# Poissons Ratio (z) = -0.11401 -0.11401
#
# Static dielectric constant tensor:
#      x y z
#    x 1.738390 0.000000 0.000000 
#    y 0.000000 1.738390 0.000000 
#    z 0.000000 0.000000 1.765370 
# 
# From -- ./inp_files/5850.got.cif
#   From: 2010.05.17/outbox.cif.g08.bks.cpg/sg138_3_cif.got.tgz:5850.got - 2010.05.20 13:08:53.
