data_PCOD9571279
_publ_section_title
;
Structure prediction by ZEFSAII (Michael W. Deem and Ramdas Pophale) SiO2 
 PCOD9571279
Probable space group: I 4/M M M
;
_chemical_formula_sum "Si O2"
_cell_formula_units_Z 160
_cell_length_a 32.231500
_cell_length_b 32.231500
_cell_length_c 7.996664
_cell_angle_alpha 90.000000
_cell_angle_beta 90.000000
_cell_angle_gamma 90.000000
_cell_volume 8307.491069
_symmetry_space_group_name_H-M "I 4/M M M"
_symmetry_group_IT_number 139
_symmetry_cell_setting 'tetragonal'
loop_
_space_group_symop_operation_xyz
x,y,z
-y,x,z
-x,-y,z
y,-x,z
x,-y,-z
-x,y,-z
y,x,-z
-y,-x,-z
-x,-y,-z
y,-x,-z
x,y,-z
-y,x,-z
-x,y,z
x,-y,z
-y,-x,z
y,x,z
1/2+x,1/2+y,1/2+z
1/2-y,1/2+x,1/2+z
1/2-x,1/2-y,1/2+z
1/2+y,1/2-x,1/2+z
1/2+x,1/2-y,1/2-z
1/2-x,1/2+y,1/2-z
1/2+y,1/2+x,1/2-z
1/2-y,1/2-x,1/2-z
1/2-x,1/2-y,1/2-z
1/2+y,1/2-x,1/2-z
1/2+x,1/2+y,1/2-z
1/2-y,1/2+x,1/2-z
1/2-x,1/2+y,1/2+z
1/2+x,1/2-y,1/2+z
1/2-y,1/2-x,1/2+z
1/2+y,1/2+x,1/2+z
loop_
_atom_site_type_symbol
_atom_site_label
_atom_site_fract_x
_atom_site_fract_y
_atom_site_fract_z
Si Si1 0.087494 0.087494 0.796381
Si Si2 0.000000 0.785681 0.199362
Si Si3 0.614229 0.180841 0.700575
Si Si4 0.000000 0.878898 0.796721
Si Si5 0.952789 0.386261 0.798353
Si Si6 0.772070 0.905129 0.695274
Si Si7 0.653269 0.346732 0.806836
O O1 0.098254 0.041261 0.747934
O O2 0.118349 0.118349 0.706453
O O3 0.092170 0.092170 0.000000
O O4 0.046507 0.769870 0.244910
O O5 0.000000 0.832379 0.267662
O O6 0.000000 0.784937 0.000000
O O7 0.612042 0.184091 0.500000
O O8 0.654623 0.154623 0.750000
O O9 0.574915 0.152873 0.758948
O O10 0.612972 0.226441 0.775350
O O11 0.000000 0.876455 0.000000
O O12 0.927436 0.427436 0.750000
O O13 0.000000 0.385612 0.736029
O O14 0.953977 0.384517 0.000000
O O15 0.781995 0.907939 0.500000
O O16 0.806474 0.872098 0.766701
O O17 0.663873 0.336128 0.000000
#
# Coordination Sequence:
#
# PCOD9571279 Si02
#       7
#    16  16  32  16  32  32  16
#     4  10  18  33  52  75 107 146 189 234 284 342
#     4  11  21  35  56  87 117 148 191 239 289 341
#     4  10  21  39  62  86 116 153 190 236 288 342
#     4   9  18  30  51  78 107 143 187 236 282 335
#     4   9  19  35  54  79 112 150 188 229 275 324
#     4  11  23  39  59  87 117 150 191 236 289 348
#     4  10  22  38  56  80 113 148 182 232 291 346
#
# _framework density 19.259725
#
# number of rings (size 3 to 8) (size 9 to 14) (size 15 to 20)
#    0.000    2.000    2.000    1.500    1.400    2.400 
#    0.000    3.000    0.000    0.000    0.000    0.700 
#    0.000    0.000    0.000    0.000    0.000    0.000 
#
# Total GULP energy -445739.327935 kJ/mol
# GULP energy per Si atom -5571.741599 kJ/mol
# Density = 1.921589 g / cm^3
# Si number density = 19.259725 Si / 1000 Ang^3
#
#
#
# Elastic Constant Matrix: (Units=GPa)
#
#
# Indices 1 2 3 4 5 6 
#
# 1 151.0555 69.2018 -1.1179 0.0000 0.0000 0.0000
# 2 69.2018 151.0571 -1.1174 0.0000 0.0000 0.0000
# 3 -1.1179 -1.1174 25.7846 0.0000 0.0000 0.0000
# 4 0.0000 0.0000 0.0000 18.6273 0.0000 0.0000
# 5 0.0000 0.0000 0.0000 0.0000 18.6270 0.0000
# 6 0.0000 0.0000 0.0000 0.0000 0.0000 18.9747
#
#
#
# Elastic Compliance Matrix: (Units=1/GPa)
#
#
# Indices 1 2 3 4 5 6 
#
# 1 0.008380 -0.003837 0.000197 0.000000 0.000000 0.000000
# 2 -0.003837 0.008379 0.000197 0.000000 0.000000 0.000000
# 3 0.000197 0.000197 0.038800 0.000000 0.000000 0.000000
# 4 0.000000 0.000000 0.000000 0.053685 0.000000 0.000000
# 5 0.000000 0.000000 0.000000 0.000000 0.053686 0.000000
# 6 0.000000 0.000000 0.000000 0.000000 0.000000 0.052702
#
#
# Mechanical properties :
#
#
# Convention : Reuss Voigt Hill
#
# Bulk Modulus (GPa) = 20.54582 51.31446 35.93014
# Shear Modulus (GPa) = 20.94312 28.64118 24.79215
#
# Velocity S-wave (km/s) = 3.30116 3.86048 3.59172
# Velocity P-wave (km/s) = 5.02206 6.82439 5.99139
#
# Compressibility (1/GPa) = 0.04867170
#
# Stress axis : x y z
#
# Youngs Moduli (GPa) = 119.33873 119.34006 25.77324
#
# Poissons Ratio (x) = 0.45795 -0.00508
# Poissons Ratio (y) = 0.45794 -0.00507
# Poissons Ratio (z) = -0.02351 -0.02348
#
# Static dielectric constant tensor:
#      x y z
#    x 1.662720 0.000000 0.000000 
#    y 0.000000 1.662720 0.000000 
#    z 0.000000 0.000000 1.695940 
# 
# From -- ./inp_files/2344.got.cif
#   From: 2010.05.17/outbox.cif.g08.bks.cpg/sg139_2_cif.got.tgz:2344.got - 2010.05.20 13:14:44.
