data_PCOD9571916
_publ_section_title
;
Structure prediction by ZEFSAII (Michael W. Deem and Ramdas Pophale) SiO2 
 PCOD9571916
Probable space group: I 4/M M M
;
_chemical_formula_sum "Si O2"
_cell_formula_units_Z 160
_cell_length_a 30.190708
_cell_length_b 30.190708
_cell_length_c 9.043075
_cell_angle_alpha 90.000000
_cell_angle_beta 90.000000
_cell_angle_gamma 90.000000
_cell_volume 8242.571597
_symmetry_space_group_name_H-M "I 4/M M M"
_symmetry_group_IT_number 139
_symmetry_cell_setting 'tetragonal'
loop_
_space_group_symop_operation_xyz
x,y,z
-y,x,z
-x,-y,z
y,-x,z
x,-y,-z
-x,y,-z
y,x,-z
-y,-x,-z
-x,-y,-z
y,-x,-z
x,y,-z
-y,x,-z
-x,y,z
x,-y,z
-y,-x,z
y,x,z
1/2+x,1/2+y,1/2+z
1/2-y,1/2+x,1/2+z
1/2-x,1/2-y,1/2+z
1/2+y,1/2-x,1/2+z
1/2+x,1/2-y,1/2-z
1/2-x,1/2+y,1/2-z
1/2+y,1/2+x,1/2-z
1/2-y,1/2-x,1/2-z
1/2-x,1/2-y,1/2-z
1/2+y,1/2-x,1/2-z
1/2+x,1/2+y,1/2-z
1/2-y,1/2+x,1/2-z
1/2-x,1/2+y,1/2+z
1/2+x,1/2-y,1/2+z
1/2-y,1/2-x,1/2+z
1/2+y,1/2+x,1/2+z
loop_
_atom_site_type_symbol
_atom_site_label
_atom_site_fract_x
_atom_site_fract_y
_atom_site_fract_z
Si Si1 0.841332 0.770545 0.679962
Si Si2 0.000000 0.262826 0.830464
Si Si3 0.500000 0.343049 0.337959
Si Si4 0.913788 0.159133 0.337320
Si Si5 0.300260 0.911156 0.678855
Si Si6 0.447969 0.886578 0.323780
O O1 0.839129 0.770937 0.500000
O O2 0.794834 0.794834 0.728762
O O3 0.880894 0.803796 0.726714
O O4 0.864085 0.723479 0.720997
O O5 0.000000 0.210222 0.844036
O O6 0.954838 0.275509 0.744813
O O7 0.000000 0.281626 0.000000
O O8 0.500000 0.362308 0.500000
O O9 0.455666 0.354145 0.254327
O O10 0.927910 0.175498 0.500000
O O11 0.882938 0.117063 0.352889
O O12 0.300860 0.913485 0.500000
O O13 0.348532 0.918630 0.747103
O O14 0.441037 0.887065 0.500000
O O15 0.500000 0.877755 0.295659
O O16 0.432147 0.932147 0.250000
#
# Coordination Sequence:
#
# PCOD9571916 Si02
#       6
#    32  16  16  32  32  32
#     4   8  15  28  48  78 113 148 189 236 284 336
#     4  11  21  31  45  75 115 151 187 233 287 344
#     4  11  21  29  43  68 102 136 168 217 280 342
#     4   9  17  30  47  66  91 127 174 223 271 332
#     4  11  20  33  59  87 116 156 199 244 294 349
#     4  11  25  44  66  93 127 161 197 246 297 353
#
# _framework density 19.411417
#
# number of rings (size 3 to 8) (size 9 to 14) (size 15 to 20)
#    0.000    2.000    3.000    3.000    0.000    2.600 
#    0.000    1.000    0.000    3.300    0.000    2.100 
#    0.000    0.000    0.000    0.000    0.000    0.000 
#
# Total GULP energy -445422.538952 kJ/mol
# GULP energy per Si atom -5567.781737 kJ/mol
# Density = 1.936724 g / cm^3
# Si number density = 19.411417 Si / 1000 Ang^3
#
#
#
# Elastic Constant Matrix: (Units=GPa)
#
#
# Indices 1 2 3 4 5 6 
#
# 1 60.7380 52.2953 28.3047 0.0000 0.0000 0.0000
# 2 52.2953 60.7380 28.3047 0.0000 0.0000 0.0000
# 3 28.3047 28.3047 67.6594 0.0000 0.0000 0.0000
# 4 0.0000 0.0000 0.0000 9.9728 0.0000 0.0000
# 5 0.0000 0.0000 0.0000 0.0000 9.9728 0.0000
# 6 0.0000 0.0000 0.0000 0.0000 0.0000 0.7648
#
#
#
# Elastic Compliance Matrix: (Units=1/GPa)
#
#
# Indices 1 2 3 4 5 6 
#
# 1 0.064819 -0.053627 -0.004682 0.000000 0.000000 0.000000
# 2 -0.053627 0.064819 -0.004682 0.000000 0.000000 0.000000
# 3 -0.004682 -0.004682 0.018697 0.000000 0.000000 0.000000
# 4 0.000000 0.000000 0.000000 0.100273 0.000000 0.000000
# 5 0.000000 0.000000 0.000000 0.000000 0.100273 0.000000
# 6 0.000000 0.000000 0.000000 0.000000 0.000000 1.307498
#
#
# Mechanical properties :
#
#
# Convention : Reuss Voigt Hill
#
# Bulk Modulus (GPa) = 44.73697 45.21610 44.97653
# Shear Modulus (GPa) = 2.79359 9.49078 6.14218
#
# Velocity S-wave (km/s) = 1.20095 2.21357 1.78075
# Velocity P-wave (km/s) = 5.00198 5.46601 5.23914
#
# Compressibility (1/GPa) = 0.02235288
#
# Stress axis : x y z
#
# Youngs Moduli (GPa) = 15.42760 15.42760 53.48378
#
# Poissons Ratio (x) = 0.82734 0.25041
# Poissons Ratio (y) = 0.82734 0.25041
# Poissons Ratio (z) = 0.07223 0.07223
#
# Static dielectric constant tensor:
#      x y z
#    x 1.722440 0.000000 0.000000 
#    y 0.000000 1.722440 0.000000 
#    z 0.000000 0.000000 1.727390 
# 
# From -- ./inp_files/2247.got.cif
#   From: 2010.05.17/outbox.cif.g08.bks.cpg/sg139_2_cif.got.tgz:2247.got - 2010.05.20 13:14:44.
