data_PCOD9571783
_publ_section_title
;
Structure prediction by ZEFSAII (Michael W. Deem and Ramdas Pophale) SiO2 
 PCOD9571783
Probable space group: I 4/M M M
;
_chemical_formula_sum "Si O2"
_cell_formula_units_Z 160
_cell_length_a 21.006542
_cell_length_b 21.006542
_cell_length_c 19.503350
_cell_angle_alpha 90.000000
_cell_angle_beta 90.000000
_cell_angle_gamma 90.000000
_cell_volume 8606.337003
_symmetry_space_group_name_H-M "I 4/M M M"
_symmetry_group_IT_number 139
_symmetry_cell_setting 'tetragonal'
loop_
_space_group_symop_operation_xyz
x,y,z
-y,x,z
-x,-y,z
y,-x,z
x,-y,-z
-x,y,-z
y,x,-z
-y,-x,-z
-x,-y,-z
y,-x,-z
x,y,-z
-y,x,-z
-x,y,z
x,-y,z
-y,-x,z
y,x,z
1/2+x,1/2+y,1/2+z
1/2-y,1/2+x,1/2+z
1/2-x,1/2-y,1/2+z
1/2+y,1/2-x,1/2+z
1/2+x,1/2-y,1/2-z
1/2-x,1/2+y,1/2-z
1/2+y,1/2+x,1/2-z
1/2-y,1/2-x,1/2-z
1/2-x,1/2-y,1/2-z
1/2+y,1/2-x,1/2-z
1/2+x,1/2+y,1/2-z
1/2-y,1/2+x,1/2-z
1/2-x,1/2+y,1/2+z
1/2+x,1/2-y,1/2+z
1/2-y,1/2-x,1/2+z
1/2+y,1/2+x,1/2+z
loop_
_atom_site_type_symbol
_atom_site_label
_atom_site_fract_x
_atom_site_fract_y
_atom_site_fract_z
Si Si1 0.832514 0.272241 0.426137
Si Si2 0.176432 0.072195 0.615540
Si Si3 0.680398 0.125134 0.180035
Si Si4 0.929752 0.576094 0.579695
Si Si5 0.426244 0.319603 0.281363
O O1 0.826885 0.304637 0.500000
O O2 0.789757 0.210244 0.428962
O O3 0.902211 0.243745 0.412964
O O4 0.806107 0.311978 0.363617
O O5 0.117933 0.117933 0.595068
O O6 0.181616 0.075896 0.698352
O O7 0.164862 0.000000 0.595097
O O8 0.646009 0.146009 0.250000
O O9 0.627505 0.093131 0.130598
O O10 0.747662 0.090249 0.193448
O O11 0.920882 0.595528 0.500000
O O12 0.932717 0.500000 0.579068
O O13 0.000000 0.600095 0.602398
O O14 0.500000 0.335234 0.300801
O O15 0.373136 0.373136 0.302699
#
# Coordination Sequence:
#
# PCOD9571783 Si02
#       5
#    32  32  32  32  32
#     4  10  21  36  53  76 108 146 186 228 281 346
#     4   9  18  33  52  76 109 149 195 245 296 348
#     4  12  22  34  58  86 119 150 191 242 299 355
#     4   9  20  39  58  78 111 153 193 235 286 346
#     4  10  21  37  58  86 118 154 198 249 307 368
#
# _framework density 18.590952000000001
#
# number of rings (size 3 to 8) (size 9 to 14) (size 15 to 20)
#    0.000    2.000    2.000    2.400    0.000    4.000 
#    0.000    3.000    0.000    0.000    0.000    2.800 
#    0.000    0.000    0.000   12.400    0.000    0.800 
#
# Total GULP energy -445461.302347 kJ/mol
# GULP energy per Si atom -5568.266279 kJ/mol
# Density = 1.854864 g / cm^3
# Si number density = 18.590952 Si / 1000 Ang^3
#
#
#
# Elastic Constant Matrix: (Units=GPa)
#
#
# Indices 1 2 3 4 5 6 
#
# 1 96.2781 31.6515 27.2882 0.0000 0.0000 0.0000
# 2 31.6515 96.2781 27.2882 0.0000 0.0000 0.0000
# 3 27.2882 27.2882 80.3275 0.0000 0.0000 0.0000
# 4 0.0000 0.0000 0.0000 13.1272 0.0000 0.0000
# 5 0.0000 0.0000 0.0000 0.0000 13.1272 0.0000
# 6 0.0000 0.0000 0.0000 0.0000 0.0000 31.2159
#
#
#
# Elastic Compliance Matrix: (Units=1/GPa)
#
#
# Indices 1 2 3 4 5 6 
#
# 1 0.012308 -0.003166 -0.003106 0.000000 0.000000 0.000000
# 2 -0.003166 0.012308 -0.003106 0.000000 0.000000 0.000000
# 3 -0.003106 -0.003106 0.014559 0.000000 0.000000 0.000000
# 4 0.000000 0.000000 0.000000 0.076178 0.000000 0.000000
# 5 0.000000 0.000000 0.000000 0.000000 0.076178 0.000000
# 6 0.000000 0.000000 0.000000 0.000000 0.000000 0.032035
#
#
# Mechanical properties :
#
#
# Convention : Reuss Voigt Hill
#
# Bulk Modulus (GPa) = 48.97109 49.48216 49.22663
# Shear Modulus (GPa) = 20.07022 23.93777 22.00400
#
# Velocity S-wave (km/s) = 3.28924 3.59221 3.44406
# Velocity P-wave (km/s) = 6.38937 6.62415 6.50782
#
# Compressibility (1/GPa) = 0.02042021
#
# Stress axis : x y z
#
# Youngs Moduli (GPa) = 81.25072 81.25072 68.68598
#
# Poissons Ratio (x) = 0.25723 0.21331
# Poissons Ratio (y) = 0.25723 0.21331
# Poissons Ratio (z) = 0.25233 0.25233
#
# Static dielectric constant tensor:
#      x y z
#    x 1.727750 0.000000 0.000000 
#    y 0.000000 1.727750 0.000000 
#    z 0.000000 0.000000 1.638470 
# 
# From -- ./inp_files/8375.got.cif
#   From: 2010.05.17/outbox.cif.g08.bks.cpg/sg139_5_cif.got.tgz:8375.got - 2010.05.20 13:14:44.
