data_PCOD9571235
_publ_section_title
;
Structure prediction by ZEFSAII (Michael W. Deem and Ramdas Pophale) SiO2 
 PCOD9571235
Probable space group: I 4/M M M
;
_chemical_formula_sum "Si O2"
_cell_formula_units_Z 176
_cell_length_a 25.768566
_cell_length_b 25.768566
_cell_length_c 16.391965
_cell_angle_alpha 90.000000
_cell_angle_beta 90.000000
_cell_angle_gamma 90.000000
_cell_volume 10884.576104
_symmetry_space_group_name_H-M "I 4/M M M"
_symmetry_group_IT_number 139
_symmetry_cell_setting 'tetragonal'
loop_
_space_group_symop_operation_xyz
x,y,z
-y,x,z
-x,-y,z
y,-x,z
x,-y,-z
-x,y,-z
y,x,-z
-y,-x,-z
-x,-y,-z
y,-x,-z
x,y,-z
-y,x,-z
-x,y,z
x,-y,z
-y,-x,z
y,x,z
1/2+x,1/2+y,1/2+z
1/2-y,1/2+x,1/2+z
1/2-x,1/2-y,1/2+z
1/2+y,1/2-x,1/2+z
1/2+x,1/2-y,1/2-z
1/2-x,1/2+y,1/2-z
1/2+y,1/2+x,1/2-z
1/2-y,1/2-x,1/2-z
1/2-x,1/2-y,1/2-z
1/2+y,1/2-x,1/2-z
1/2+x,1/2+y,1/2-z
1/2-y,1/2+x,1/2-z
1/2-x,1/2+y,1/2+z
1/2+x,1/2-y,1/2+z
1/2-y,1/2-x,1/2+z
1/2+y,1/2+x,1/2+z
loop_
_atom_site_type_symbol
_atom_site_label
_atom_site_fract_x
_atom_site_fract_y
_atom_site_fract_z
Si Si1 0.796948 0.880288 0.851915
Si Si2 0.280706 0.941957 0.747726
Si Si3 0.938262 0.149758 0.000000
Si Si4 0.205531 0.284633 0.903818
Si Si5 0.893498 0.559475 0.670526
Si Si6 0.668993 0.102254 0.595357
O O1 0.845886 0.845886 0.824810
O O2 0.764619 0.905058 0.778741
O O3 0.756453 0.840682 0.893760
O O4 0.817490 0.920488 0.920093
O O5 0.333678 0.934573 0.799946
O O6 0.299369 0.934898 0.655092
O O7 0.262448 0.000000 0.761995
O O8 0.902438 0.097563 0.000000
O O9 0.000000 0.140484 0.000000
O O10 0.256902 0.256902 0.867504
O O11 0.186905 0.340441 0.873834
O O12 0.214642 0.291625 0.000000
O O13 0.900963 0.500000 0.642446
O O14 0.928716 0.571285 0.750000
O O15 0.903663 0.607198 0.609758
O O16 0.680225 0.096001 0.500000
#
# Coordination Sequence:
#
# PCOD9571235 Si02
#       6
#    32  32  16  32  32  32
#     4  10  18  30  50  74  99 129 164 200 238 281
#     4  10  20  34  49  67  95 130 163 198 247 295
#     4  10  20  33  50  76 108 140 173 205 239 281
#     4   9  16  28  46  69 100 128 149 184 234 280
#     4   9  18  32  48  67  92 121 156 199 248 300
#     4  10  20  33  49  70  95 123 164 206 242 294
#
# _framework density 16.16967
#
# number of rings (size 3 to 8) (size 9 to 14) (size 15 to 20)
#    0.000    2.364    2.727    0.545    0.000    1.727 
#    0.000    1.818    0.000    0.000    0.000    5.091 
#    0.000    0.000    0.000    0.000    0.000    0.000 
#
# Total GULP energy -490073.552304 kJ/mol
# GULP energy per Si atom -5569.017640 kJ/mol
# Density = 1.613287 g / cm^3
# Si number density = 16.169670 Si / 1000 Ang^3
#
#
#
# Elastic Constant Matrix: (Units=GPa)
#
#
# Indices 1 2 3 4 5 6 
#
# 1 47.2296 26.9049 15.7456 0.0000 0.0000 0.0000
# 2 26.9049 47.2293 15.7449 0.0000 0.0000 0.0000
# 3 15.7456 15.7449 55.7750 0.0000 0.0000 0.0000
# 4 0.0000 0.0000 0.0000 12.9024 0.0000 0.0000
# 5 0.0000 0.0000 0.0000 0.0000 12.9024 0.0000
# 6 0.0000 0.0000 0.0000 0.0000 0.0000 12.0929
#
#
#
# Elastic Compliance Matrix: (Units=1/GPa)
#
#
# Indices 1 2 3 4 5 6 
#
# 1 0.032264 -0.016937 -0.004327 0.000000 0.000000 0.000000
# 2 -0.016937 0.032264 -0.004326 0.000000 0.000000 0.000000
# 3 -0.004327 -0.004326 0.020372 0.000000 0.000000 0.000000
# 4 0.000000 0.000000 0.000000 0.077505 0.000000 0.000000
# 5 0.000000 0.000000 0.000000 0.000000 0.077505 0.000000
# 6 0.000000 0.000000 0.000000 0.000000 0.000000 0.082693
#
#
# Mechanical properties :
#
#
# Convention : Reuss Voigt Hill
#
# Bulk Modulus (GPa) = 29.65705 29.66942 29.66323
# Shear Modulus (GPa) = 12.98616 13.70210 13.34413
#
# Velocity S-wave (km/s) = 2.83701 2.91416 2.87584
# Velocity P-wave (km/s) = 5.39560 5.45085 5.42329
#
# Compressibility (1/GPa) = 0.03371880
#
# Stress axis : x y z
#
# Youngs Moduli (GPa) = 30.99404 30.99408 49.08678
#
# Poissons Ratio (x) = 0.52496 0.21240
# Poissons Ratio (y) = 0.52496 0.21237
# Poissons Ratio (z) = 0.13412 0.13410
#
# Static dielectric constant tensor:
#      x y z
#    x 1.553140 0.000000 0.000000 
#    y 0.000000 1.553140 0.000000 
#    z 0.000000 0.000000 1.541260 
# 
# From -- ./inp_files/6428.got.cif
#   From: 2010.05.17/outbox.cif.g08.bks.cpg/sg139_4_cif.got.tgz:6428.got - 2010.05.20 13:14:44.
