data_PCOD9571770
_publ_section_title
;
Structure prediction by ZEFSAII (Michael W. Deem and Ramdas Pophale) SiO2 
 PCOD9571770
Probable space group: I 4/M M M
;
_chemical_formula_sum "Si O2"
_cell_formula_units_Z 152
_cell_length_a 18.225317
_cell_length_b 18.225317
_cell_length_c 28.245001
_cell_angle_alpha 90.000000
_cell_angle_beta 90.000000
_cell_angle_gamma 90.000000
_cell_volume 9381.921099
_symmetry_space_group_name_H-M "I 4/M M M"
_symmetry_group_IT_number 139
_symmetry_cell_setting 'tetragonal'
loop_
_space_group_symop_operation_xyz
x,y,z
-y,x,z
-x,-y,z
y,-x,z
x,-y,-z
-x,y,-z
y,x,-z
-y,-x,-z
-x,-y,-z
y,-x,-z
x,y,-z
-y,x,-z
-x,y,z
x,-y,z
-y,-x,z
y,x,z
1/2+x,1/2+y,1/2+z
1/2-y,1/2+x,1/2+z
1/2-x,1/2-y,1/2+z
1/2+y,1/2-x,1/2+z
1/2+x,1/2-y,1/2-z
1/2-x,1/2+y,1/2-z
1/2+y,1/2+x,1/2-z
1/2-y,1/2-x,1/2-z
1/2-x,1/2-y,1/2-z
1/2+y,1/2-x,1/2-z
1/2+x,1/2+y,1/2-z
1/2-y,1/2+x,1/2-z
1/2-x,1/2+y,1/2+z
1/2+x,1/2-y,1/2+z
1/2-y,1/2-x,1/2+z
1/2+y,1/2+x,1/2+z
loop_
_atom_site_type_symbol
_atom_site_label
_atom_site_fract_x
_atom_site_fract_y
_atom_site_fract_z
Si Si1 0.691033 0.185589 0.805190
Si Si2 0.667367 0.087304 0.945815
Si Si3 0.317100 0.317100 0.945648
Si Si4 0.209134 0.912490 0.869761
Si Si5 0.084735 0.915266 0.500000
Si Si6 0.300308 0.914315 0.389723
O O1 0.741047 0.258954 0.810205
O O2 0.675137 0.175137 0.750000
O O3 0.740794 0.120608 0.827455
O O4 0.618419 0.192841 0.837029
O O5 0.742048 0.103349 0.916693
O O6 0.600840 0.124216 0.917557
O O7 0.659122 0.000000 0.945794
O O8 0.670543 0.113047 0.000000
O O9 0.358121 0.253849 0.917182
O O10 0.295444 0.295444 0.000000
O O11 0.378481 0.378481 0.954976
O O12 0.134414 0.865587 0.871134
O O13 0.198352 0.000000 0.865672
O O14 0.000000 0.900116 0.500000
O O15 0.279791 0.000000 0.391382
#
# Coordination Sequence:
#
# PCOD9571770 Si02
#       6
#    32  32  16  32   8  32
#     4   9  18  35  55  75  99 131 173 217 262 310
#     4   9  19  34  51  73 103 139 174 212 257 304
#     4  10  21  32  47  73 108 139 178 222 259 308
#     4   9  18  32  51  76 105 133 169 211 257 312
#     4   9  18  32  48  66  98 144 180 216 263 308
#     4  11  21  34  53  79 106 137 177 220 265 317
#
# _framework density 16.201373
#
# number of rings (size 3 to 8) (size 9 to 14) (size 15 to 20)
#    0.316    2.158    1.053    1.263    1.474    3.158 
#    0.000    1.053    0.000    0.000    0.000    5.895 
#    0.000    0.000    0.000    0.000    0.000    0.000 
#
# Total GULP energy -423169.861122 kJ/mol
# GULP energy per Si atom -5568.024488 kJ/mol
# Density = 1.616450 g / cm^3
# Si number density = 16.201373 Si / 1000 Ang^3
#
#
#
# Elastic Constant Matrix: (Units=GPa)
#
#
# Indices 1 2 3 4 5 6 
#
# 1 69.7748 34.6449 39.2047 0.0000 0.0000 0.0000
# 2 34.6449 69.7752 39.2047 0.0000 0.0000 0.0000
# 3 39.2047 39.2047 142.6636 0.0000 0.0000 0.0000
# 4 0.0000 0.0000 0.0000 20.0236 0.0000 0.0000
# 5 0.0000 0.0000 0.0000 0.0000 20.0225 0.0000
# 6 0.0000 0.0000 0.0000 0.0000 0.0000 22.3285
#
#
#
# Elastic Compliance Matrix: (Units=1/GPa)
#
#
# Indices 1 2 3 4 5 6 
#
# 1 0.020266 -0.008199 -0.003316 0.000000 0.000000 0.000000
# 2 -0.008199 0.020266 -0.003316 0.000000 0.000000 0.000000
# 3 -0.003316 -0.003316 0.008832 0.000000 0.000000 0.000000
# 4 0.000000 0.000000 0.000000 0.049941 0.000000 0.000000
# 5 0.000000 0.000000 0.000000 0.000000 0.049944 0.000000
# 6 0.000000 0.000000 0.000000 0.000000 0.000000 0.044786
#
#
# Mechanical properties :
#
#
# Convention : Reuss Voigt Hill
#
# Bulk Modulus (GPa) = 50.75769 56.48026 53.61898
# Shear Modulus (GPa) = 21.71411 23.75221 22.73316
#
# Velocity S-wave (km/s) = 3.66493 3.83307 3.74994
# Velocity P-wave (km/s) = 7.02184 7.38424 7.20532
#
# Compressibility (1/GPa) = 0.01970145
#
# Stress axis : x y z
#
# Youngs Moduli (GPa) = 49.34320 49.34351 113.22450
#
# Poissons Ratio (x) = 0.40459 0.37545
# Poissons Ratio (y) = 0.40459 0.37545
# Poissons Ratio (z) = 0.16362 0.16362
#
# Static dielectric constant tensor:
#      x y z
#    x 1.546590 0.000000 0.000000 
#    y 0.000000 1.546590 0.000000 
#    z 0.000000 0.000000 1.544630 
# 
# From -- ./inp_files/14160.got.cif
#   From: 2010.05.17/outbox.cif.g08.bks.cpg/sg139_8_cif.got.tgz:14160.got - 2010.05.20 13:14:44.
