data_PCOD9571271
_publ_section_title
;
Structure prediction by ZEFSAII (Michael W. Deem and Ramdas Pophale) SiO2 
 PCOD9571271
Probable space group: I 4/M M M
;
_chemical_formula_sum "Si O2"
_cell_formula_units_Z 224
_cell_length_a 24.890091
_cell_length_b 24.890091
_cell_length_c 22.502536
_cell_angle_alpha 90.000000
_cell_angle_beta 90.000000
_cell_angle_gamma 90.000000
_cell_volume 13940.695269
_symmetry_space_group_name_H-M "I 4/M M M"
_symmetry_group_IT_number 139
_symmetry_cell_setting 'tetragonal'
loop_
_space_group_symop_operation_xyz
x,y,z
-y,x,z
-x,-y,z
y,-x,z
x,-y,-z
-x,y,-z
y,x,-z
-y,-x,-z
-x,-y,-z
y,-x,-z
x,y,-z
-y,x,-z
-x,y,z
x,-y,z
-y,-x,z
y,x,z
1/2+x,1/2+y,1/2+z
1/2-y,1/2+x,1/2+z
1/2-x,1/2-y,1/2+z
1/2+y,1/2-x,1/2+z
1/2+x,1/2-y,1/2-z
1/2-x,1/2+y,1/2-z
1/2+y,1/2+x,1/2-z
1/2-y,1/2-x,1/2-z
1/2-x,1/2-y,1/2-z
1/2+y,1/2-x,1/2-z
1/2+x,1/2+y,1/2-z
1/2-y,1/2+x,1/2-z
1/2-x,1/2+y,1/2+z
1/2+x,1/2-y,1/2+z
1/2-y,1/2-x,1/2+z
1/2+y,1/2+x,1/2+z
loop_
_atom_site_type_symbol
_atom_site_label
_atom_site_fract_x
_atom_site_fract_y
_atom_site_fract_z
Si Si1 0.850026 0.237408 0.785254
Si Si2 0.563732 0.113792 0.192185
Si Si3 0.351259 0.561463 0.124931
Si Si4 0.694977 0.154122 0.673398
Si Si5 0.859046 0.231700 0.431066
Si Si6 0.062742 0.565071 0.065249
Si Si7 0.562545 0.651323 0.731522
O O1 0.802461 0.197539 0.804617
O O2 0.839521 0.253432 0.716387
O O3 0.843258 0.294431 0.817682
O O4 0.905061 0.204007 0.790535
O O5 0.500000 0.123660 0.191344
O O6 0.577995 0.077995 0.250000
O O7 0.600058 0.166658 0.195916
O O8 0.580538 0.088817 0.128143
O O9 0.356077 0.500000 0.106344
O O10 0.403409 0.596592 0.108967
O O11 0.300705 0.590623 0.095560
O O12 0.345734 0.563178 0.196481
O O13 0.715247 0.149287 0.606975
O O14 0.867130 0.242339 0.500000
O O15 0.807851 0.192150 0.424181
O O16 0.065246 0.500000 0.064636
O O17 0.000000 0.580100 0.067311
O O18 0.084356 0.583007 0.000000
O O19 0.500000 0.648236 0.713010
O O20 0.599064 0.599064 0.715580
#
# Coordination Sequence:
#
# PCOD9571271 Si02
#       7
#    32  32  32  32  32  32  32
#     4  10  18  32  53  70  91 124 160 198 235 284
#     4  11  22  34  48  70 100 128 161 207 260 304
#     4   9  17  29  44  64  91 123 162 203 246 294
#     4  11  20  33  47  72  91 122 160 203 250 295
#     4  10  20  34  51  68  90 121 159 203 249 299
#     4   8  15  30  50  66  83 117 162 198 233 288
#     4   9  17  29  48  73 101 133 162 194 238 286
#
# _framework density 16.068065000000001
#
# number of rings (size 3 to 8) (size 9 to 14) (size 15 to 20)
#    0.000    2.286    2.857    2.571    0.000    3.000 
#    0.000    1.429    0.000    0.000    0.000    2.000 
#    0.000    0.000    0.000    0.429    0.000    0.714 
#
# Total GULP energy -623719.828632 kJ/mol
# GULP energy per Si atom -5568.927041 kJ/mol
# Density = 1.603149 g / cm^3
# Si number density = 16.068065 Si / 1000 Ang^3
#
#
#
# Elastic Constant Matrix: (Units=GPa)
#
#
# Indices 1 2 3 4 5 6 
#
# 1 67.0056 71.5067 27.7773 0.0000 0.0000 0.0000
# 2 71.5067 67.0056 27.7773 0.0000 0.0000 0.0000
# 3 27.7773 27.7773 66.1498 0.0000 0.0000 0.0000
# 4 0.0000 0.0000 0.0000 14.7597 0.0000 0.0000
# 5 0.0000 0.0000 0.0000 0.0000 14.7597 0.0000
# 6 0.0000 0.0000 0.0000 0.0000 0.0000 12.0011
#
#
#
# Elastic Compliance Matrix: (Units=1/GPa)
#
#
# Indices 1 2 3 4 5 6 
#
# 1 -0.106743 0.115425 -0.003646 0.000000 0.000000 0.000000
# 2 0.115425 -0.106743 -0.003646 0.000000 0.000000 0.000000
# 3 -0.003646 -0.003646 0.018179 0.000000 0.000000 0.000000
# 4 0.000000 0.000000 0.000000 0.067752 0.000000 0.000000
# 5 0.000000 0.000000 0.000000 0.000000 0.067752 0.000000
# 6 0.000000 0.000000 0.000000 0.000000 0.000000 0.083325
#
#
# Mechanical properties :
#
#
# Convention : Reuss Voigt Hill
#
# Bulk Modulus (GPa) = 47.70993 50.47596 49.09295
# Shear Modulus (GPa) = -26.91685 13.17742 -6.86972
#
# Velocity S-wave (km/s) = -4.09733 2.86685 -2.06994
# Velocity P-wave (km/s) = 2.71527 6.51463 4.99065
#
# Compressibility (1/GPa) = 0.02096000
#
# Stress axis : x y z
#
# Youngs Moduli (GPa) = -9.36831 -9.36831 55.00892
#
# Poissons Ratio (x) = 1.08133 0.20054
# Poissons Ratio (y) = 1.08133 0.20054
# Poissons Ratio (z) = -0.03415 -0.03415
#
# Static dielectric constant tensor:
#      x y z
#    x 1.544750 0.000000 0.000000 
#    y 0.000000 1.544750 0.000000 
#    z 0.000000 0.000000 1.553130 
# 
# From -- ./inp_files/12206.got.cif
#   From: 2010.05.17/outbox.cif.g08.bks.cpg/sg139_7_cif.got.tgz:12206.got - 2010.05.20 13:14:44.
