data_PCOD9571213
_publ_section_title
;
Structure prediction by ZEFSAII (Michael W. Deem and Ramdas Pophale) SiO2 
 PCOD9571213
Probable space group: I 4/M M M
;
_chemical_formula_sum "Si O2"
_cell_formula_units_Z 192
_cell_length_a 23.203315
_cell_length_b 23.203315
_cell_length_c 20.806344
_cell_angle_alpha 90.000000
_cell_angle_beta 90.000000
_cell_angle_gamma 90.000000
_cell_volume 11202.007172
_symmetry_space_group_name_H-M "I 4/M M M"
_symmetry_group_IT_number 139
_symmetry_cell_setting 'tetragonal'
loop_
_space_group_symop_operation_xyz
x,y,z
-y,x,z
-x,-y,z
y,-x,z
x,-y,-z
-x,y,-z
y,x,-z
-y,-x,-z
-x,-y,-z
y,-x,-z
x,y,-z
-y,x,-z
-x,y,z
x,-y,z
-y,-x,z
y,x,z
1/2+x,1/2+y,1/2+z
1/2-y,1/2+x,1/2+z
1/2-x,1/2-y,1/2+z
1/2+y,1/2-x,1/2+z
1/2+x,1/2-y,1/2-z
1/2-x,1/2+y,1/2-z
1/2+y,1/2+x,1/2-z
1/2-y,1/2-x,1/2-z
1/2-x,1/2-y,1/2-z
1/2+y,1/2-x,1/2-z
1/2+x,1/2+y,1/2-z
1/2-y,1/2+x,1/2-z
1/2-x,1/2+y,1/2+z
1/2+x,1/2-y,1/2+z
1/2-y,1/2-x,1/2+z
1/2+y,1/2+x,1/2+z
loop_
_atom_site_type_symbol
_atom_site_label
_atom_site_fract_x
_atom_site_fract_y
_atom_site_fract_z
Si Si1 0.212671 0.880282 0.368097
Si Si2 0.432011 0.341438 0.258802
Si Si3 0.856462 0.567075 0.333056
Si Si4 0.069088 0.164231 0.500000
Si Si5 0.432818 0.827943 0.818246
Si Si6 0.736395 0.569915 0.623800
Si Si7 0.337724 0.430853 0.500000
O O1 0.183981 0.816020 0.368250
O O2 0.179092 0.914256 0.311734
O O3 0.197660 0.908997 0.436415
O O4 0.278867 0.891555 0.348070
O O5 0.500000 0.345534 0.263613
O O6 0.401460 0.401460 0.272810
O O7 0.410556 0.295547 0.311517
O O8 0.870646 0.500000 0.344745
O O9 0.831950 0.570483 0.259640
O O10 0.909952 0.609657 0.340010
O O11 0.802992 0.587123 0.376702
O O12 0.102942 0.102942 0.500000
O O13 0.000000 0.158486 0.500000
O O14 0.500000 0.816609 0.834460
O O15 0.737748 0.500000 0.626142
O O16 0.699072 0.586129 0.562480
O O17 0.345109 0.500000 0.500000
O O18 0.397758 0.397758 0.500000
#
# Coordination Sequence:
#
# PCOD9571213 Si02
#       7
#    32  32  32  16  32  32  16
#     4  10  20  34  51  74 102 137 177 213 252 305
#     4  10  18  29  47  68  94 129 168 212 260 307
#     4   9  18  32  53  80 107 136 172 215 261 316
#     4  10  20  33  51  73 100 134 174 218 262 311
#     4  10  18  32  55  80 108 140 172 211 263 316
#     4   9  17  32  50  69  97 132 169 205 253 314
#     4  10  20  33  51  75 102 138 182 226 275 324
#
# _framework density 17.139786000000001
#
# number of rings (size 3 to 8) (size 9 to 14) (size 15 to 20)
#    0.000    2.333    1.667    2.000    0.000    0.667 
#    0.000    5.833    0.000    7.000    0.000    0.000 
#    0.000    5.333    0.000    0.000    0.000    0.000 
#
# Total GULP energy -534696.188955 kJ/mol
# GULP energy per Si atom -5569.751968 kJ/mol
# Density = 1.710077 g / cm^3
# Si number density = 17.139786 Si / 1000 Ang^3
#
#
#
# Elastic Constant Matrix: (Units=GPa)
#
#
# Indices 1 2 3 4 5 6 
#
# 1 76.3303 39.4618 11.1311 0.0000 0.0000 0.0000
# 2 39.4618 76.3303 11.1311 0.0000 0.0000 0.0000
# 3 11.1311 11.1311 48.2181 0.0000 0.0000 0.0000
# 4 0.0000 0.0000 0.0000 11.7832 0.0000 0.0000
# 5 0.0000 0.0000 0.0000 0.0000 11.7832 0.0000
# 6 0.0000 0.0000 0.0000 0.0000 0.0000 23.8626
#
#
#
# Elastic Compliance Matrix: (Units=1/GPa)
#
#
# Indices 1 2 3 4 5 6 
#
# 1 0.018080 -0.009043 -0.002086 0.000000 0.000000 0.000000
# 2 -0.009043 0.018080 -0.002086 0.000000 0.000000 0.000000
# 3 -0.002086 -0.002086 0.021702 0.000000 0.000000 0.000000
# 4 0.000000 0.000000 0.000000 0.084866 0.000000 0.000000
# 5 0.000000 0.000000 0.000000 0.000000 0.084866 0.000000
# 6 0.000000 0.000000 0.000000 0.000000 0.000000 0.041907
#
#
# Mechanical properties :
#
#
# Convention : Reuss Voigt Hill
#
# Bulk Modulus (GPa) = 31.81485 36.03631 33.92558
# Shear Modulus (GPa) = 16.31796 18.76279 17.54037
#
# Velocity S-wave (km/s) = 3.08888 3.31220 3.20249
# Velocity P-wave (km/s) = 5.59677 5.97480 5.78887
#
# Compressibility (1/GPa) = 0.03143186
#
# Stress axis : x y z
#
# Youngs Moduli (GPa) = 55.30870 55.30870 46.07805
#
# Poissons Ratio (x) = 0.50016 0.09613
# Poissons Ratio (y) = 0.50016 0.09613
# Poissons Ratio (z) = 0.11539 0.11539
#
# Static dielectric constant tensor:
#      x y z
#    x 1.584870 0.000000 0.000000 
#    y 0.000000 1.584870 0.000000 
#    z 0.000000 0.000000 1.581200 
# 
# From -- ./inp_files/10627.got.cif
#   From: 2010.05.17/outbox.cif.g08.bks.cpg/sg139_6_cif.got.tgz:10627.got - 2010.05.20 13:14:44.
