data_PCOD9571061
_publ_section_title
;
Structure prediction by ZEFSAII (Michael W. Deem and Ramdas Pophale) SiO2 
 PCOD9571061
Probable space group: P 42/N C M
;
_chemical_formula_sum "Si O2"
_cell_formula_units_Z 96
_cell_length_a 24.102943
_cell_length_b 24.102943
_cell_length_c 9.944311
_cell_angle_alpha 90.000000
_cell_angle_beta 90.000000
_cell_angle_gamma 90.000000
_cell_volume 5777.165984
_symmetry_space_group_name_H-M "P 42/N C M"
_symmetry_group_IT_number 138
_space_group.IT_coordinate_system_code '2'
_symmetry_cell_setting 'tetragonal'
loop_
_space_group_symop_operation_xyz
x,y,z
1/2-y,x,1/2+z
1/2-x,1/2-y,z
y,1/2-x,1/2+z
1/2+x,-y,1/2-z
-x,1/2+y,1/2-z
1/2+y,1/2+x,-z
-y,-x,-z
-x,-y,-z
1/2+y,-x,1/2-z
1/2+x,1/2+y,-z
-y,1/2+x,1/2-z
1/2-x,y,1/2+z
x,1/2-y,1/2+z
1/2-y,1/2-x,z
y,x,z
loop_
_atom_site_type_symbol
_atom_site_label
_atom_site_fract_x
_atom_site_fract_y
_atom_site_fract_z
Si Si1 0.900398 0.808998 0.534602
Si Si2 0.335506 0.627652 0.853542
Si Si3 0.612551 0.797863 0.721259
Si Si4 0.812977 0.008717 0.181458
Si Si5 0.213999 0.979846 0.518716
Si Si6 0.362883 0.703569 0.603016
O O1 0.861809 0.861809 0.562976
O O2 0.889863 0.759562 0.640038
O O3 0.886339 0.788981 0.382356
O O4 0.966429 0.820645 0.529038
O O5 0.350529 0.563328 0.824273
O O6 0.357631 0.667784 0.737768
O O7 0.268527 0.635438 0.859648
O O8 0.356943 0.643058 0.000000
O O9 0.665043 0.834958 0.683025
O O10 0.555155 0.831182 0.690081
O O11 0.772867 0.013382 0.053924
O O12 0.779706 0.017410 0.321232
O O13 0.190827 0.920735 0.472968
O O14 0.314041 0.685960 0.500000
#
# Coordination Sequence:
#
# PCOD9571061 Si02
#       6
#    16  16  16  16  16  16
#     4   9  18  33  53  78 106 134 166 204 245 292
#     4  11  23  33  50  72 100 132 164 205 255 302
#     4   9  18  33  54  78 105 135 166 203 246 292
#     4   9  18  33  51  72  95 132 173 204 239 292
#     4   9  18  32  52  71  96 132 171 205 239 292
#     4  11  21  35  50  72  99 131 164 205 253 300
#
# _framework density 16.617144
#
# number of rings (size 3 to 8) (size 9 to 14) (size 15 to 20)
#    0.000    2.333    1.667    1.000    7.000    3.000 
#    0.000    1.667    0.000    2.000    0.000    0.000 
#    0.000    0.000    0.000    0.000    0.000    0.000 
#
# Total GULP energy -534480.243519 kJ/mol
# GULP energy per Si atom -5567.502537 kJ/mol
# Density = 1.657932 g / cm^3
# Si number density = 16.617144 Si / 1000 Ang^3
#
#
#
# Elastic Constant Matrix: (Units=GPa)
#
#
# Indices 1 2 3 4 5 6 
#
# 1 36.7481 6.1159 -7.4435 0.0000 0.0000 0.0000
# 2 6.1159 36.7500 -7.4434 0.0000 0.0000 0.0000
# 3 -7.4435 -7.4434 50.0531 0.0000 0.0000 0.0000
# 4 0.0000 0.0000 0.0000 21.3983 0.0000 0.0000
# 5 0.0000 0.0000 0.0000 0.0000 21.3989 0.0000
# 6 0.0000 0.0000 0.0000 0.0000 0.0000 -2.3235
#
#
#
# Elastic Compliance Matrix: (Units=1/GPa)
#
#
# Indices 1 2 3 4 5 6 
#
# 1 0.028623 -0.004022 0.003658 0.000000 0.000000 0.000000
# 2 -0.004022 0.028621 0.003658 0.000000 0.000000 0.000000
# 3 0.003658 0.003658 0.021067 0.000000 0.000000 0.000000
# 4 0.000000 0.000000 0.000000 0.046733 0.000000 0.000000
# 5 0.000000 0.000000 0.000000 0.000000 0.046731 0.000000
# 6 0.000000 0.000000 0.000000 0.000000 0.000000 -0.430381
#
#
# Mechanical properties :
#
#
# Convention : Reuss Voigt Hill
#
# Bulk Modulus (GPa) = 11.77870 11.77878 11.77874
# Shear Modulus (GPa) = -21.10645 16.91621 -2.09512
#
# Velocity S-wave (km/s) = -3.56780 3.19407 -1.12408
# Velocity P-wave (km/s) = 3.14143 4.55044 2.32787
#
# Compressibility (1/GPa) = 0.08489901
#
# Stress axis : x y z
#
# Youngs Moduli (GPa) = 34.93724 34.93918 47.46795
#
# Poissons Ratio (x) = 0.14054 -0.17366
# Poissons Ratio (y) = 0.14053 -0.17364
# Poissons Ratio (z) = -0.12781 -0.12781
#
# Static dielectric constant tensor:
#      x y z
#    x 1.570930 0.000000 0.000000 
#    y 0.000000 1.570930 0.000000 
#    z 0.000000 0.000000 1.558240 
# 
# From -- ./inp_files/1735.got.cif
#   From: 2010.05.17/outbox.cif.g08.bks.cpg/sg138_1_cif.got.tgz:1735.got - 2010.05.20 13:08:53.
