data_PCOD9571381
_publ_section_title
;
Structure prediction by ZEFSAII (Michael W. Deem and Ramdas Pophale) SiO2 
 PCOD9571381
Probable space group: I 4/M M M
;
_chemical_formula_sum "Si O2"
_cell_formula_units_Z 144
_cell_length_a 22.755251
_cell_length_b 22.755251
_cell_length_c 15.001523
_cell_angle_alpha 90.000000
_cell_angle_beta 90.000000
_cell_angle_gamma 90.000000
_cell_volume 7767.810333
_symmetry_space_group_name_H-M "I 4/M M M"
_symmetry_group_IT_number 139
_symmetry_cell_setting 'tetragonal'
loop_
_space_group_symop_operation_xyz
x,y,z
-y,x,z
-x,-y,z
y,-x,z
x,-y,-z
-x,y,-z
y,x,-z
-y,-x,-z
-x,-y,-z
y,-x,-z
x,y,-z
-y,x,-z
-x,y,z
x,-y,z
-y,-x,z
y,x,z
1/2+x,1/2+y,1/2+z
1/2-y,1/2+x,1/2+z
1/2-x,1/2-y,1/2+z
1/2+y,1/2-x,1/2+z
1/2+x,1/2-y,1/2-z
1/2-x,1/2+y,1/2-z
1/2+y,1/2+x,1/2-z
1/2-y,1/2-x,1/2-z
1/2-x,1/2-y,1/2-z
1/2+y,1/2-x,1/2-z
1/2+x,1/2+y,1/2-z
1/2-y,1/2+x,1/2-z
1/2-x,1/2+y,1/2+z
1/2+x,1/2-y,1/2+z
1/2-y,1/2-x,1/2+z
1/2+y,1/2+x,1/2+z
loop_
_atom_site_type_symbol
_atom_site_label
_atom_site_fract_x
_atom_site_fract_y
_atom_site_fract_z
Si Si1 0.730641 0.934867 0.770221
Si Si2 0.607512 0.869136 0.601836
Si Si3 0.931782 0.500000 0.107324
Si Si4 0.434738 0.341198 0.605957
Si Si5 0.230416 0.324924 0.159788
O O1 0.669392 0.923043 0.821221
O O2 0.778766 0.930423 0.847948
O O3 0.750285 0.887867 0.696929
O O4 0.730287 0.000000 0.732317
O O5 0.583836 0.862638 0.500000
O O6 0.673625 0.842342 0.601816
O O7 0.600738 0.938096 0.627962
O O8 0.000000 0.500000 0.140055
O O9 0.934973 0.500000 0.000000
O O10 0.428438 0.334267 0.500000
O O11 0.500000 0.365447 0.623116
O O12 0.384865 0.384865 0.638754
O O13 0.280945 0.280945 0.124354
O O14 0.205488 0.294513 0.250000
#
# Coordination Sequence:
#
# PCOD9571381 Si02
#       5
#    32  32  16  32  32
#     4  10  19  31  50  71  96 128 165 207 250 299
#     4  10  20  33  51  73  99 131 169 212 257 305
#     4   9  18  32  50  72 100 132 162 200 254 309
#     4   9  17  28  43  66  94 124 160 199 243 296
#     4   9  19  34  49  68  97 130 167 209 255 301
#
# _framework density 18.538042000000001
#
# number of rings (size 3 to 8) (size 9 to 14) (size 15 to 20)
#    0.000    2.556    0.000    2.000    1.556    3.778 
#    0.000    1.111    0.000    0.000    0.000    0.000 
#    0.000    0.000    0.000    0.000    0.000    6.222 
#
# Total GULP energy -400958.277465 kJ/mol
# GULP energy per Si atom -5568.864965 kJ/mol
# Density = 1.849585 g / cm^3
# Si number density = 18.538042 Si / 1000 Ang^3
#
#
#
# Elastic Constant Matrix: (Units=GPa)
#
#
# Indices 1 2 3 4 5 6 
#
# 1 78.7397 40.8653 0.9949 0.0000 0.0000 0.0000
# 2 40.8653 78.7429 0.9956 0.0000 0.0000 0.0000
# 3 0.9949 0.9956 24.1007 0.0000 0.0000 0.0000
# 4 0.0000 0.0000 0.0000 13.5942 0.0000 0.0000
# 5 0.0000 0.0000 0.0000 0.0000 13.5925 0.0000
# 6 0.0000 0.0000 0.0000 0.0000 0.0000 68.8790
#
#
#
# Elastic Compliance Matrix: (Units=1/GPa)
#
#
# Indices 1 2 3 4 5 6 
#
# 1 0.017385 -0.009018 -0.000345 0.000000 0.000000 0.000000
# 2 -0.009018 0.017384 -0.000346 0.000000 0.000000 0.000000
# 3 -0.000345 -0.000346 0.041521 0.000000 0.000000 0.000000
# 4 0.000000 0.000000 0.000000 0.073561 0.000000 0.000000
# 5 0.000000 0.000000 0.000000 0.000000 0.073570 0.000000
# 6 0.000000 0.000000 0.000000 0.000000 0.000000 0.014518
#
#
# Mechanical properties :
#
#
# Convention : Reuss Voigt Hill
#
# Bulk Modulus (GPa) = 17.58334 29.69945 23.64140
# Shear Modulus (GPa) = 18.09539 28.46162 23.27850
#
# Velocity S-wave (km/s) = 3.12768 3.92255 3.54745
# Velocity P-wave (km/s) = 4.74856 6.04738 5.43689
#
# Compressibility (1/GPa) = 0.05687202
#
# Stress axis : x y z
#
# Youngs Moduli (GPa) = 57.52231 57.52465 24.08415
#
# Poissons Ratio (x) = 0.51874 0.00831
# Poissons Ratio (y) = 0.51872 0.00833
# Poissons Ratio (z) = 0.01985 0.01990
#
# Static dielectric constant tensor:
#      x y z
#    x 1.672740 0.000000 0.000000 
#    y 0.000000 1.672740 0.000000 
#    z 0.000000 0.000000 1.641600 
# 
# From -- ./inp_files/8139.got.cif
#   From: 2010.05.17/outbox.cif.g08.bks.cpg/sg139_5_cif.got.tgz:8139.got - 2010.05.20 13:14:44.
