data_PCOD9571662
_publ_section_title
;
Structure prediction by ZEFSAII (Michael W. Deem and Ramdas Pophale) SiO2 
 PCOD9571662
Probable space group: I 4/M M M
;
_chemical_formula_sum "Si O2"
_cell_formula_units_Z 160
_cell_length_a 23.248755
_cell_length_b 23.248755
_cell_length_c 17.142553
_cell_angle_alpha 90.000000
_cell_angle_beta 90.000000
_cell_angle_gamma 90.000000
_cell_volume 9265.628907
_symmetry_space_group_name_H-M "I 4/M M M"
_symmetry_group_IT_number 139
_symmetry_cell_setting 'tetragonal'
loop_
_space_group_symop_operation_xyz
x,y,z
-y,x,z
-x,-y,z
y,-x,z
x,-y,-z
-x,y,-z
y,x,-z
-y,-x,-z
-x,-y,-z
y,-x,-z
x,y,-z
-y,x,-z
-x,y,z
x,-y,z
-y,-x,z
y,x,z
1/2+x,1/2+y,1/2+z
1/2-y,1/2+x,1/2+z
1/2-x,1/2-y,1/2+z
1/2+y,1/2-x,1/2+z
1/2+x,1/2-y,1/2-z
1/2-x,1/2+y,1/2-z
1/2+y,1/2+x,1/2-z
1/2-y,1/2-x,1/2-z
1/2-x,1/2-y,1/2-z
1/2+y,1/2-x,1/2-z
1/2+x,1/2+y,1/2-z
1/2-y,1/2+x,1/2-z
1/2-x,1/2+y,1/2+z
1/2+x,1/2-y,1/2+z
1/2-y,1/2-x,1/2+z
1/2+y,1/2+x,1/2+z
loop_
_atom_site_type_symbol
_atom_site_label
_atom_site_fract_x
_atom_site_fract_y
_atom_site_fract_z
Si Si1 0.635638 0.113668 0.909883
Si Si2 0.436146 0.000000 0.094189
Si Si3 0.768741 0.432658 0.304523
Si Si4 0.432183 0.769543 0.120241
Si Si5 0.569400 0.667718 0.000000
Si Si6 0.839337 0.934714 0.912465
O O1 0.687120 0.108784 0.848555
O O2 0.603343 0.174567 0.906153
O O3 0.595098 0.059748 0.886736
O O4 0.654408 0.104110 0.000000
O O5 0.500000 0.000000 0.127595
O O6 0.439504 0.000000 0.000000
O O7 0.786471 0.500000 0.316347
O O8 0.763506 0.422933 0.212684
O O9 0.708389 0.425720 0.347654
O O10 0.500000 0.781144 0.106222
O O11 0.419155 0.710751 0.073391
O O12 0.500000 0.653272 0.000000
O O13 0.612532 0.612532 0.000000
O O14 0.890468 0.890468 0.904313
O O15 0.860639 0.000000 0.906560
O O16 0.813953 0.928079 0.000000
#
# Coordination Sequence:
#
# PCOD9571662 Si02
#       6
#    32  16  32  32  16  32
#     4  11  19  32  54  80 112 155 197 239 281 325
#     4   9  18  28  46  78 112 147 192 244 283 319
#     4  10  20  34  53  79 114 151 191 233 278 329
#     4  10  21  37  58  81 112 152 188 229 285 351
#     4  10  22  43  68  93 115 143 183 233 296 360
#     4   9  18  33  54  80 110 142 177 220 274 337
#
# _framework density 17.268121000000001
#
# number of rings (size 3 to 8) (size 9 to 14) (size 15 to 20)
#    0.000    2.100    2.000    1.800    0.000    2.700 
#    0.000    2.000    0.000    2.400    0.000    5.600 
#    0.000    0.000    0.000    0.000    0.000    0.000 
#
# Total GULP energy -445924.392231 kJ/mol
# GULP energy per Si atom -5574.054903 kJ/mol
# Density = 1.722882 g / cm^3
# Si number density = 17.268121 Si / 1000 Ang^3
#
#
#
# Elastic Constant Matrix: (Units=GPa)
#
#
# Indices 1 2 3 4 5 6 
#
# 1 81.9848 66.0036 47.8833 0.0000 0.0000 0.0000
# 2 66.0036 81.9848 47.8833 0.0000 0.0000 0.0000
# 3 47.8833 47.8833 106.2040 0.0000 0.0000 0.0000
# 4 0.0000 0.0000 0.0000 -48.1672 0.0000 0.0000
# 5 0.0000 0.0000 0.0000 0.0000 -48.1672 0.0000
# 6 0.0000 0.0000 0.0000 0.0000 0.0000 30.1930
#
#
#
# Elastic Compliance Matrix: (Units=1/GPa)
#
#
# Indices 1 2 3 4 5 6 
#
# 1 0.036057 -0.026516 -0.004302 0.000000 0.000000 0.000000
# 2 -0.026516 0.036057 -0.004302 0.000000 0.000000 0.000000
# 3 -0.004302 -0.004302 0.013295 0.000000 0.000000 0.000000
# 4 0.000000 0.000000 0.000000 -0.020761 0.000000 0.000000
# 5 0.000000 0.000000 0.000000 0.000000 -0.020761 0.000000
# 6 0.000000 0.000000 0.000000 0.000000 0.000000 0.033120
#
#
# Mechanical properties :
#
#
# Convention : Reuss Voigt Hill
#
# Bulk Modulus (GPa) = 65.91925 65.96820 65.94373
# Shear Modulus (GPa) = 32.82913 -6.00140 13.41387
#
# Velocity S-wave (km/s) = 4.36494 -1.86627 2.79014
# Velocity P-wave (km/s) = 7.97875 5.80011 6.97502
#
# Compressibility (1/GPa) = 0.01517007
#
# Stress axis : x y z
#
# Youngs Moduli (GPa) = 27.73360 27.73360 75.21766
#
# Poissons Ratio (x) = 0.73539 0.32356
# Poissons Ratio (y) = 0.73539 0.32356
# Poissons Ratio (z) = 0.11930 0.11930
#
# Static dielectric constant tensor:
#      x y z
#    x 1.574620 0.000000 0.000000 
#    y 0.000000 1.574620 0.000000 
#    z 0.000000 0.000000 1.601810 
# 
# From -- ./inp_files/8432.got.cif
#   From: 2010.05.17/outbox.cif.g08.bks.cpg/sg139_5_cif.got.tgz:8432.got - 2010.05.20 13:14:44.
