data_PCOD9571214
_publ_section_title
;
Structure prediction by ZEFSAII (Michael W. Deem and Ramdas Pophale) SiO2 
 PCOD9571214
Probable space group: I 4/M M M
;
_chemical_formula_sum "Si O2"
_cell_formula_units_Z 80
_cell_length_a 15.687821
_cell_length_b 15.687821
_cell_length_c 18.874365
_cell_angle_alpha 90.000000
_cell_angle_beta 90.000000
_cell_angle_gamma 90.000000
_cell_volume 4645.127082
_symmetry_space_group_name_H-M "I 4/M M M"
_symmetry_group_IT_number 139
_symmetry_cell_setting 'tetragonal'
loop_
_space_group_symop_operation_xyz
x,y,z
-y,x,z
-x,-y,z
y,-x,z
x,-y,-z
-x,y,-z
y,x,-z
-y,-x,-z
-x,-y,-z
y,-x,-z
x,y,-z
-y,x,-z
-x,y,z
x,-y,z
-y,-x,z
y,x,z
1/2+x,1/2+y,1/2+z
1/2-y,1/2+x,1/2+z
1/2-x,1/2-y,1/2+z
1/2+y,1/2-x,1/2+z
1/2+x,1/2-y,1/2-z
1/2-x,1/2+y,1/2-z
1/2+y,1/2+x,1/2-z
1/2-y,1/2-x,1/2-z
1/2-x,1/2-y,1/2-z
1/2+y,1/2-x,1/2-z
1/2+x,1/2+y,1/2-z
1/2-y,1/2+x,1/2-z
1/2-x,1/2+y,1/2+z
1/2+x,1/2-y,1/2+z
1/2-y,1/2-x,1/2+z
1/2+y,1/2+x,1/2+z
loop_
_atom_site_type_symbol
_atom_site_label
_atom_site_fract_x
_atom_site_fract_y
_atom_site_fract_z
Si Si1 0.594419 0.734670 0.708785
Si Si2 0.096379 0.665776 0.351486
Si Si3 0.239820 0.097045 0.500000
O O1 0.500000 0.699935 0.695449
O O2 0.669034 0.669034 0.690307
O O3 0.605924 0.824635 0.668320
O O4 0.601250 0.760040 0.791824
O O5 0.107081 0.703822 0.429416
O O6 0.000000 0.629027 0.345413
O O7 0.164799 0.164799 0.500000
O O8 0.206646 0.000000 0.500000
#
# Coordination Sequence:
#
# PCOD9571214 Si02
#       3
#    32  32  16
#     4  10  19  32  50  71  98 130 163 200 239 283
#     4   9  18  32  51  73  96 125 160 198 241 286
#     4  10  18  29  47  71 100 130 158 192 237 292
#
# _framework density 17.222348
#
# number of rings (size 3 to 8) (size 9 to 14) (size 15 to 20)
#    0.000    2.400    0.000    4.800    0.000    1.400 
#    0.000    5.000    0.000   10.800    0.000    0.000 
#    0.000    4.800    0.000    0.000    0.000    0.400 
#
# Total GULP energy -222884.667507 kJ/mol
# GULP energy per Si atom -5572.116688 kJ/mol
# Density = 1.718315 g / cm^3
# Si number density = 17.222348 Si / 1000 Ang^3
#
#
#
# Elastic Constant Matrix: (Units=GPa)
#
#
# Indices 1 2 3 4 5 6 
#
# 1 81.3202 52.9709 35.4608 0.0000 0.0000 0.0000
# 2 52.9709 81.3202 35.4608 0.0000 0.0000 0.0000
# 3 35.4608 35.4608 103.7475 0.0000 0.0000 0.0000
# 4 0.0000 0.0000 0.0000 10.5170 0.0000 0.0000
# 5 0.0000 0.0000 0.0000 0.0000 10.5170 0.0000
# 6 0.0000 0.0000 0.0000 0.0000 0.0000 4.7290
#
#
#
# Elastic Compliance Matrix: (Units=1/GPa)
#
#
# Indices 1 2 3 4 5 6 
#
# 1 0.022180 -0.013094 -0.003106 0.000000 0.000000 0.000000
# 2 -0.013094 0.022180 -0.003106 0.000000 0.000000 0.000000
# 3 -0.003106 -0.003106 0.011762 0.000000 0.000000 0.000000
# 4 0.000000 0.000000 0.000000 0.095084 0.000000 0.000000
# 5 0.000000 0.000000 0.000000 0.000000 0.095084 0.000000
# 6 0.000000 0.000000 0.000000 0.000000 0.000000 0.211462
#
#
# Mechanical properties :
#
#
# Convention : Reuss Voigt Hill
#
# Bulk Modulus (GPa) = 57.10343 57.13030 57.11687
# Shear Modulus (GPa) = 9.95615 14.65229 12.30422
#
# Velocity S-wave (km/s) = 2.40697 2.91996 2.67579
# Velocity P-wave (km/s) = 6.39947 6.67926 6.54086
#
# Compressibility (1/GPa) = 0.01751208
#
# Stress axis : x y z
#
# Youngs Moduli (GPa) = 45.08473 45.08473 85.02000
#
# Poissons Ratio (x) = 0.59033 0.26406
# Poissons Ratio (y) = 0.59033 0.26406
# Poissons Ratio (z) = 0.14003 0.14003
#
# Static dielectric constant tensor:
#      x y z
#    x 1.581380 0.000000 0.000000 
#    y 0.000000 1.581380 0.000000 
#    z 0.000000 0.000000 1.573330 
# 
# From -- ./inp_files/9297.got.cif
#   From: 2010.05.17/outbox.cif.g08.bks.cpg/sg139_5_cif.got.tgz:9297.got - 2010.05.20 13:14:44.
