data_PCOD9571476
_publ_section_title
;
Structure prediction by ZEFSAII (Michael W. Deem and Ramdas Pophale) SiO2 
 PCOD9571476
Probable space group: I 4/M M M
;
_chemical_formula_sum "Si O2"
_cell_formula_units_Z 160
_cell_length_a 19.577384
_cell_length_b 19.577384
_cell_length_c 25.338019
_cell_angle_alpha 90.000000
_cell_angle_beta 90.000000
_cell_angle_gamma 90.000000
_cell_volume 9711.402989
_symmetry_space_group_name_H-M "I 4/M M M"
_symmetry_group_IT_number 139
_symmetry_cell_setting 'tetragonal'
loop_
_space_group_symop_operation_xyz
x,y,z
-y,x,z
-x,-y,z
y,-x,z
x,-y,-z
-x,y,-z
y,x,-z
-y,-x,-z
-x,-y,-z
y,-x,-z
x,y,-z
-y,x,-z
-x,y,z
x,-y,z
-y,-x,z
y,x,z
1/2+x,1/2+y,1/2+z
1/2-y,1/2+x,1/2+z
1/2-x,1/2-y,1/2+z
1/2+y,1/2-x,1/2+z
1/2+x,1/2-y,1/2-z
1/2-x,1/2+y,1/2-z
1/2+y,1/2+x,1/2-z
1/2-y,1/2-x,1/2-z
1/2-x,1/2-y,1/2-z
1/2+y,1/2-x,1/2-z
1/2+x,1/2+y,1/2-z
1/2-y,1/2+x,1/2-z
1/2-x,1/2+y,1/2+z
1/2+x,1/2-y,1/2+z
1/2-y,1/2-x,1/2+z
1/2+y,1/2+x,1/2+z
loop_
_atom_site_type_symbol
_atom_site_label
_atom_site_fract_x
_atom_site_fract_y
_atom_site_fract_z
Si Si1 0.578949 0.804700 0.396346
Si Si2 0.919392 0.807290 0.189356
Si Si3 0.744432 0.365624 0.500000
Si Si4 0.190407 0.419253 0.894680
Si Si5 0.638085 0.251432 0.000000
Si Si6 0.239050 0.648090 0.213901
O O1 0.500000 0.821289 0.389059
O O2 0.601514 0.755779 0.348465
O O3 0.590816 0.759627 0.448364
O O4 0.622532 0.873399 0.401609
O O5 0.872646 0.872646 0.177089
O O6 0.901203 0.782701 0.248204
O O7 0.000000 0.819650 0.182786
O O8 0.671669 0.328332 0.500000
O O9 0.801133 0.305084 0.500000
O O10 0.177943 0.500000 0.891359
O O11 0.237043 0.403225 0.946109
O O12 0.220552 0.390180 0.839859
O O13 0.675612 0.324389 0.000000
O O14 0.285571 0.714430 0.201329
O O15 0.176359 0.676359 0.250000
#
# Coordination Sequence:
#
# PCOD9571476 Si02
#       6
#    32  32  16  32  16  32
#     4  10  20  33  49  71 103 141 179 214 261 322
#     4  10  20  34  53  77 104 136 175 220 271 326
#     4   9  17  30  51  73  93 123 169 221 263 299
#     4  11  21  34  53  78 109 141 180 228 274 323
#     4   9  19  34  53  77 103 133 171 219 276 326
#     4  10  19  33  55  78 103 137 178 223 275 325
#
# _framework density 16.475477000000001
#
# number of rings (size 3 to 8) (size 9 to 14) (size 15 to 20)
#    0.000    2.000    2.000    2.400    0.000    2.200 
#    0.000    0.000    0.000    3.600    0.000    0.000 
#    0.000   22.400    0.000    0.000    0.000    0.000 
#
# Total GULP energy -445936.550576 kJ/mol
# GULP energy per Si atom -5574.206882 kJ/mol
# Density = 1.643798 g / cm^3
# Si number density = 16.475477 Si / 1000 Ang^3
#
#
#
# Elastic Constant Matrix: (Units=GPa)
#
#
# Indices 1 2 3 4 5 6 
#
# 1 75.0608 61.2927 39.6681 0.0000 0.0000 0.0000
# 2 61.2927 75.0605 39.6682 0.0000 0.0000 0.0000
# 3 39.6681 39.6682 120.8572 0.0000 0.0000 0.0000
# 4 0.0000 0.0000 0.0000 21.6614 0.0000 0.0000
# 5 0.0000 0.0000 0.0000 0.0000 21.6610 0.0000
# 6 0.0000 0.0000 0.0000 0.0000 0.0000 18.6590
#
#
#
# Elastic Compliance Matrix: (Units=1/GPa)
#
#
# Indices 1 2 3 4 5 6 
#
# 1 0.040849 -0.031784 -0.002975 0.000000 0.000000 0.000000
# 2 -0.031784 0.040849 -0.002975 0.000000 0.000000 0.000000
# 3 -0.002975 -0.002975 0.010227 0.000000 0.000000 0.000000
# 4 0.000000 0.000000 0.000000 0.046165 0.000000 0.000000
# 5 0.000000 0.000000 0.000000 0.000000 0.046166 0.000000
# 6 0.000000 0.000000 0.000000 0.000000 0.000000 0.053594
#
#
# Mechanical properties :
#
#
# Convention : Reuss Voigt Hill
#
# Bulk Modulus (GPa) = 60.76781 61.35963 61.06372
# Shear Modulus (GPa) = 15.68361 21.08624 18.38492
#
# Velocity S-wave (km/s) = 3.08869 3.58139 3.34413
# Velocity P-wave (km/s) = 7.04868 7.37737 7.21490
#
# Compressibility (1/GPa) = 0.01645608
#
# Stress axis : x y z
#
# Youngs Moduli (GPa) = 24.48056 24.48041 97.77658
#
# Poissons Ratio (x) = 0.77808 0.29091
# Poissons Ratio (y) = 0.77808 0.29093
# Poissons Ratio (z) = 0.07284 0.07284
#
# Static dielectric constant tensor:
#      x y z
#    x 1.542660 0.000000 0.000000 
#    y 0.000000 1.542660 0.000000 
#    z 0.000000 0.000000 1.568840 
# 
# From -- ./inp_files/12955.got.cif
#   From: 2010.05.17/outbox.cif.g08.bks.cpg/sg139_7_cif.got.tgz:12955.got - 2010.05.20 13:14:44.
