data_PCOD9571647
_publ_section_title
;
Structure prediction by ZEFSAII (Michael W. Deem and Ramdas Pophale) SiO2 
 PCOD9571647
Probable space group: I 4/M M M
;
_chemical_formula_sum "Si O2"
_cell_formula_units_Z 112
_cell_length_a 24.313751
_cell_length_b 24.313751
_cell_length_c 10.761944
_cell_angle_alpha 90.000000
_cell_angle_beta 90.000000
_cell_angle_gamma 90.000000
_cell_volume 6362.014540
_symmetry_space_group_name_H-M "I 4/M M M"
_symmetry_group_IT_number 139
_symmetry_cell_setting 'tetragonal'
loop_
_space_group_symop_operation_xyz
x,y,z
-y,x,z
-x,-y,z
y,-x,z
x,-y,-z
-x,y,-z
y,x,-z
-y,-x,-z
-x,-y,-z
y,-x,-z
x,y,-z
-y,x,-z
-x,y,z
x,-y,z
-y,-x,z
y,x,z
1/2+x,1/2+y,1/2+z
1/2-y,1/2+x,1/2+z
1/2-x,1/2-y,1/2+z
1/2+y,1/2-x,1/2+z
1/2+x,1/2-y,1/2-z
1/2-x,1/2+y,1/2-z
1/2+y,1/2+x,1/2-z
1/2-y,1/2-x,1/2-z
1/2-x,1/2-y,1/2-z
1/2+y,1/2-x,1/2-z
1/2+x,1/2+y,1/2-z
1/2-y,1/2+x,1/2-z
1/2-x,1/2+y,1/2+z
1/2+x,1/2-y,1/2+z
1/2-y,1/2-x,1/2+z
1/2+y,1/2+x,1/2+z
loop_
_atom_site_type_symbol
_atom_site_label
_atom_site_fract_x
_atom_site_fract_y
_atom_site_fract_z
Si Si1 0.729724 0.822446 0.000000
Si Si2 0.722496 0.064133 0.354255
Si Si3 0.817860 0.089754 0.000000
Si Si4 0.664430 0.164430 0.750000
Si Si5 0.562441 0.655285 0.776226
O O1 0.757809 0.882941 0.000000
O O2 0.695339 0.816361 0.125614
O O3 0.776637 0.776637 0.000000
O O4 0.709229 0.069046 0.500000
O O5 0.681644 0.101723 0.275099
O O6 0.786561 0.080983 0.335280
O O7 0.719578 0.000000 0.318774
O O8 0.831504 0.060330 0.871352
O O9 0.858877 0.141124 0.000000
O O10 0.500000 0.642178 0.818660
O O11 0.606277 0.606277 0.797903
#
# Coordination Sequence:
#
# PCOD9571647 Si02
#       5
#    16  32  16  16  32
#     4  11  22  33  52  87 122 148 186 237 289 343
#     4  10  22  39  58  83 116 149 184 230 284 345
#     4   9  17  31  48  72 106 140 177 229 285 332
#     4  12  21  38  60  87 112 154 190 228 292 351
#     4  10  20  34  52  75 106 147 193 238 283 329
#
# _framework density 17.604486999999999
#
# number of rings (size 3 to 8) (size 9 to 14) (size 15 to 20)
#    0.000    1.714    4.286    0.857    0.000    2.000 
#    0.000    0.714    0.000    3.000    0.000    6.000 
#    0.000    0.000    0.000    0.000    0.000    0.000 
#
# Total GULP energy -312166.467480 kJ/mol
# GULP energy per Si atom -5574.401205 kJ/mol
# Density = 1.756442 g / cm^3
# Si number density = 17.604487 Si / 1000 Ang^3
#
#
#
# Elastic Constant Matrix: (Units=GPa)
#
#
# Indices 1 2 3 4 5 6 
#
# 1 88.4747 59.5786 22.1220 0.0000 0.0000 0.0000
# 2 59.5786 88.4749 22.1216 0.0000 0.0000 0.0000
# 3 22.1220 22.1216 73.9996 0.0000 0.0000 0.0000
# 4 0.0000 0.0000 0.0000 14.4294 0.0000 0.0000
# 5 0.0000 0.0000 0.0000 0.0000 14.4281 0.0000
# 6 0.0000 0.0000 0.0000 0.0000 0.0000 26.8887
#
#
#
# Elastic Compliance Matrix: (Units=1/GPa)
#
#
# Indices 1 2 3 4 5 6 
#
# 1 0.021012 -0.013595 -0.002217 0.000000 0.000000 0.000000
# 2 -0.013595 0.021012 -0.002217 0.000000 0.000000 0.000000
# 3 -0.002217 -0.002217 0.014839 0.000000 0.000000 0.000000
# 4 0.000000 0.000000 0.000000 0.069303 0.000000 0.000000
# 5 0.000000 0.000000 0.000000 0.000000 0.069309 0.000000
# 6 0.000000 0.000000 0.000000 0.000000 0.000000 0.037190
#
#
# Mechanical properties :
#
#
# Convention : Reuss Voigt Hill
#
# Bulk Modulus (GPa) = 48.06749 50.95486 49.51118
# Shear Modulus (GPa) = 18.13840 20.95772 19.54806
#
# Velocity S-wave (km/s) = 3.21335 3.45407 3.33588
# Velocity P-wave (km/s) = 6.41334 6.70183 6.55917
#
# Compressibility (1/GPa) = 0.02080408
#
# Stress axis : x y z
#
# Youngs Moduli (GPa) = 47.59228 47.59251 67.38878
#
# Poissons Ratio (x) = 0.64701 0.14943
# Poissons Ratio (y) = 0.64701 0.14941
# Poissons Ratio (z) = 0.10553 0.10552
#
# Static dielectric constant tensor:
#      x y z
#    x 1.608950 0.000000 0.000000 
#    y 0.000000 1.608950 0.000000 
#    z 0.000000 0.000000 1.631040 
# 
# From -- ./inp_files/3333.got.cif
#   From: 2010.05.17/outbox.cif.g08.bks.cpg/sg139_2_cif.got.tgz:3333.got - 2010.05.20 13:14:44.
