data_PCOD9571884
_publ_section_title
;
Structure prediction by ZEFSAII (Michael W. Deem and Ramdas Pophale) SiO2 
 PCOD9571884
Probable space group: I 4/M M M
;
_chemical_formula_sum "Si O2"
_cell_formula_units_Z 96
_cell_length_a 24.754259
_cell_length_b 24.754259
_cell_length_c 8.427221
_cell_angle_alpha 90.000000
_cell_angle_beta 90.000000
_cell_angle_gamma 90.000000
_cell_volume 5163.976348
_symmetry_space_group_name_H-M "I 4/M M M"
_symmetry_group_IT_number 139
_symmetry_cell_setting 'tetragonal'
loop_
_space_group_symop_operation_xyz
x,y,z
-y,x,z
-x,-y,z
y,-x,z
x,-y,-z
-x,y,-z
y,x,-z
-y,-x,-z
-x,-y,-z
y,-x,-z
x,y,-z
-y,x,-z
-x,y,z
x,-y,z
-y,-x,z
y,x,z
1/2+x,1/2+y,1/2+z
1/2-y,1/2+x,1/2+z
1/2-x,1/2-y,1/2+z
1/2+y,1/2-x,1/2+z
1/2+x,1/2-y,1/2-z
1/2-x,1/2+y,1/2-z
1/2+y,1/2+x,1/2-z
1/2-y,1/2-x,1/2-z
1/2-x,1/2-y,1/2-z
1/2+y,1/2-x,1/2-z
1/2+x,1/2+y,1/2-z
1/2-y,1/2+x,1/2-z
1/2-x,1/2+y,1/2+z
1/2+x,1/2-y,1/2+z
1/2-y,1/2-x,1/2+z
1/2+y,1/2+x,1/2+z
loop_
_atom_site_type_symbol
_atom_site_label
_atom_site_fract_x
_atom_site_fract_y
_atom_site_fract_z
Si Si1 0.193720 0.806281 0.680604
Si Si2 0.112815 0.887186 0.817483
Si Si3 0.145777 0.000000 0.313790
Si Si4 0.264904 0.000000 0.807058
Si Si5 0.205210 0.623230 0.688826
O O1 0.207372 0.792629 0.500000
O O2 0.148224 0.851777 0.698561
O O3 0.162982 0.754004 0.753018
O O4 0.051647 0.875481 0.777952
O O5 0.126539 0.873462 0.000000
O O6 0.131327 0.000000 0.500000
O O7 0.209710 0.000000 0.290265
O O8 0.290222 0.940725 0.768370
O O9 0.255754 0.000000 0.000000
O O10 0.207022 0.625385 0.500000
O O11 0.150450 0.650450 0.750000
#
# Coordination Sequence:
#
# PCOD9571884 Si02
#       5
#    16  16  16  16  32
#     4  12  23  37  59  91 124 158 201 251 300 355
#     4  12  24  40  60  84 119 162 205 250 306 358
#     4  12  24  39  61  88 117 155 209 257 297 350
#     4  10  22  40  63  86 119 162 199 239 301 368
#     4  11  23  40  62  90 123 160 201 247 302 363
#
# _framework density 18.590325
#
# number of rings (size 3 to 8) (size 9 to 14) (size 15 to 20)
#    0.000    0.667    3.333    6.000    0.000    1.667 
#    0.000    1.667    0.000    0.500    0.000    3.500 
#    0.000    0.000    0.000    0.000    0.000    0.000 
#
# Total GULP energy -267814.674326 kJ/mol
# GULP energy per Si atom -5579.472382 kJ/mol
# Density = 1.854801 g / cm^3
# Si number density = 18.590325 Si / 1000 Ang^3
#
#
#
# Elastic Constant Matrix: (Units=GPa)
#
#
# Indices 1 2 3 4 5 6 
#
# 1 230.0010 -36.6940 27.0280 0.0000 0.0000 0.0000
# 2 -36.6940 230.0129 27.0327 0.0000 0.0000 0.0000
# 3 27.0280 27.0327 61.8677 0.0000 0.0000 0.0000
# 4 0.0000 0.0000 0.0000 26.9521 0.0000 0.0000
# 5 0.0000 0.0000 0.0000 0.0000 26.9521 0.0000
# 6 0.0000 0.0000 0.0000 0.0000 0.0000 52.9348
#
#
#
# Elastic Compliance Matrix: (Units=1/GPa)
#
#
# Indices 1 2 3 4 5 6 
#
# 1 0.004821 0.001072 -0.002575 0.000000 0.000000 0.000000
# 2 0.001072 0.004821 -0.002575 0.000000 0.000000 0.000000
# 3 -0.002575 -0.002575 0.018413 0.000000 0.000000 0.000000
# 4 0.000000 0.000000 0.000000 0.037103 0.000000 0.000000
# 5 0.000000 0.000000 0.000000 0.000000 0.037103 0.000000
# 6 0.000000 0.000000 0.000000 0.000000 0.000000 0.018891
#
#
# Mechanical properties :
#
#
# Convention : Reuss Voigt Hill
#
# Bulk Modulus (GPa) = 50.24987 61.84610 56.04799
# Shear Modulus (GPa) = 36.78052 55.00211 45.89131
#
# Velocity S-wave (km/s) = 4.45283 5.44524 4.97385
# Velocity P-wave (km/s) = 7.31613 8.53665 7.94984
#
# Compressibility (1/GPa) = 0.01990055
#
# Stress axis : x y z
#
# Youngs Moduli (GPa) = 207.41147 207.41885 54.30859
#
# Poissons Ratio (x) = -0.22230 0.13982
# Poissons Ratio (y) = -0.22229 0.13983
# Poissons Ratio (z) = 0.53399 0.53406
#
# Static dielectric constant tensor:
#      x y z
#    x 1.647880 0.000000 0.000000 
#    y 0.000000 1.647880 0.000000 
#    z 0.000000 0.000000 1.632830 
# 
# From -- ./inp_files/1169.got.cif
#   From: 2010.05.17/outbox.cif.g08.bks.cpg/sg139_1_cif.got.tgz:1169.got - 2010.05.20 13:14:44.
