data_PCOD9571519
_publ_section_title
;
Structure prediction by ZEFSAII (Michael W. Deem and Ramdas Pophale) SiO2 
 PCOD9571519
Probable space group: I 4/M M M
;
_chemical_formula_sum "Si O2"
_cell_formula_units_Z 160
_cell_length_a 28.662086
_cell_length_b 28.662086
_cell_length_c 10.629694
_cell_angle_alpha 90.000000
_cell_angle_beta 90.000000
_cell_angle_gamma 90.000000
_cell_volume 8732.454915
_symmetry_space_group_name_H-M "I 4/M M M"
_symmetry_group_IT_number 139
_symmetry_cell_setting 'tetragonal'
loop_
_space_group_symop_operation_xyz
x,y,z
-y,x,z
-x,-y,z
y,-x,z
x,-y,-z
-x,y,-z
y,x,-z
-y,-x,-z
-x,-y,-z
y,-x,-z
x,y,-z
-y,x,-z
-x,y,z
x,-y,z
-y,-x,z
y,x,z
1/2+x,1/2+y,1/2+z
1/2-y,1/2+x,1/2+z
1/2-x,1/2-y,1/2+z
1/2+y,1/2-x,1/2+z
1/2+x,1/2-y,1/2-z
1/2-x,1/2+y,1/2-z
1/2+y,1/2+x,1/2-z
1/2-y,1/2-x,1/2-z
1/2-x,1/2-y,1/2-z
1/2+y,1/2-x,1/2-z
1/2+x,1/2+y,1/2-z
1/2-y,1/2+x,1/2-z
1/2-x,1/2+y,1/2+z
1/2+x,1/2-y,1/2+z
1/2-y,1/2-x,1/2+z
1/2+y,1/2+x,1/2+z
loop_
_atom_site_type_symbol
_atom_site_label
_atom_site_fract_x
_atom_site_fract_y
_atom_site_fract_z
Si Si1 0.239742 0.687274 0.639484
Si Si2 0.556589 0.369001 0.500000
Si Si3 0.056704 0.131575 0.500000
Si Si4 0.682523 0.554256 0.249801
Si Si5 0.114581 0.555628 0.351599
Si Si6 0.223316 0.577227 0.643592
O O1 0.222784 0.701736 0.500000
O O2 0.292206 0.707795 0.650450
O O3 0.210746 0.710746 0.750000
O O4 0.233331 0.632313 0.646039
O O5 0.500000 0.371719 0.500000
O O6 0.580677 0.419324 0.500000
O O7 0.573234 0.340812 0.376880
O O8 0.081530 0.081530 0.500000
O O9 0.073061 0.160258 0.377352
O O10 0.000000 0.127803 0.500000
O O11 0.670034 0.500000 0.249297
O O12 0.738129 0.557103 0.263238
O O13 0.105339 0.567950 0.500000
O O14 0.106983 0.500000 0.338868
O O15 0.083850 0.583850 0.250000
O O16 0.169483 0.566318 0.328190
O O17 0.231935 0.560018 0.500000
#
# Coordination Sequence:
#
# PCOD9571519 Si02
#       6
#    32  16  16  32  32  32
#     4   9  18  32  49  72 105 143 183 227 272 320
#     4  10  20  33  54  80 107 145 188 236 292 346
#     4  10  22  39  56  78 111 149 192 244 300 354
#     4  10  20  36  55  78 109 143 181 233 288 337
#     4  10  22  40  63  91 123 159 200 245 296 356
#     4  10  19  35  59  86 112 152 193 233 280 349
#
# _framework density 18.322454
#
# number of rings (size 3 to 8) (size 9 to 14) (size 15 to 20)
#    0.000    2.200    1.000    1.800    0.000    3.200 
#    3.600    1.000    0.000    3.600    0.000    0.000 
#    0.000    0.000    0.000    0.000    0.000    0.000 
#
# Total GULP energy -445736.951273 kJ/mol
# GULP energy per Si atom -5571.711891 kJ/mol
# Density = 1.828075 g / cm^3
# Si number density = 18.322454 Si / 1000 Ang^3
#
#
#
# Elastic Constant Matrix: (Units=GPa)
#
#
# Indices 1 2 3 4 5 6 
#
# 1 76.1126 29.3854 54.9979 0.0000 0.0000 0.0000
# 2 29.3854 76.1089 54.9972 0.0000 0.0000 0.0000
# 3 54.9979 54.9972 142.1183 0.0000 0.0000 0.0000
# 4 0.0000 0.0000 0.0000 14.2256 0.0000 0.0000
# 5 0.0000 0.0000 0.0000 0.0000 14.2315 0.0000
# 6 0.0000 0.0000 0.0000 0.0000 0.0000 24.0180
#
#
#
# Elastic Compliance Matrix: (Units=1/GPa)
#
#
# Indices 1 2 3 4 5 6 
#
# 1 0.018646 -0.002755 -0.006149 0.000000 0.000000 0.000000
# 2 -0.002755 0.018647 -0.006150 0.000000 0.000000 0.000000
# 3 -0.006149 -0.006150 0.011796 0.000000 0.000000 0.000000
# 4 0.000000 0.000000 0.000000 0.070296 0.000000 0.000000
# 5 0.000000 0.000000 0.000000 0.000000 0.070267 0.000000
# 6 0.000000 0.000000 0.000000 0.000000 0.000000 0.041635
#
#
# Mechanical properties :
#
#
# Convention : Reuss Voigt Hill
#
# Bulk Modulus (GPa) = 52.68847 63.67788 58.18317
# Shear Modulus (GPa) = 18.67614 20.82565 19.75089
#
# Velocity S-wave (km/s) = 3.19612 3.37504 3.28679
# Velocity P-wave (km/s) = 6.51451 7.07229 6.79912
#
# Compressibility (1/GPa) = 0.01897948
#
# Stress axis : x y z
#
# Youngs Moduli (GPa) = 53.63179 53.62870 84.77542
#
# Poissons Ratio (x) = 0.14777 0.52131
# Poissons Ratio (y) = 0.14778 0.52134
# Poissons Ratio (z) = 0.32980 0.32980
#
# Static dielectric constant tensor:
#      x y z
#    x 1.629290 0.000000 0.000000 
#    y 0.000000 1.629290 0.000000 
#    z 0.000000 0.000000 1.656530 
# 
# From -- ./inp_files/3916.got.cif
#   From: 2010.05.17/outbox.cif.g08.bks.cpg/sg139_2_cif.got.tgz:3916.got - 2010.05.20 13:14:44.
