data_PCOD9571813
_publ_section_title
;
Structure prediction by ZEFSAII (Michael W. Deem and Ramdas Pophale) SiO2 
 PCOD9571813
Probable space group: I 4/M M M
;
_chemical_formula_sum "Si O2"
_cell_formula_units_Z 160
_cell_length_a 23.754352
_cell_length_b 23.754352
_cell_length_c 15.339051
_cell_angle_alpha 90.000000
_cell_angle_beta 90.000000
_cell_angle_gamma 90.000000
_cell_volume 8655.354634
_symmetry_space_group_name_H-M "I 4/M M M"
_symmetry_group_IT_number 139
_symmetry_cell_setting 'tetragonal'
loop_
_space_group_symop_operation_xyz
x,y,z
-y,x,z
-x,-y,z
y,-x,z
x,-y,-z
-x,y,-z
y,x,-z
-y,-x,-z
-x,-y,-z
y,-x,-z
x,y,-z
-y,x,-z
-x,y,z
x,-y,z
-y,-x,z
y,x,z
1/2+x,1/2+y,1/2+z
1/2-y,1/2+x,1/2+z
1/2-x,1/2-y,1/2+z
1/2+y,1/2-x,1/2+z
1/2+x,1/2-y,1/2-z
1/2-x,1/2+y,1/2-z
1/2+y,1/2+x,1/2-z
1/2-y,1/2-x,1/2-z
1/2-x,1/2-y,1/2-z
1/2+y,1/2-x,1/2-z
1/2+x,1/2+y,1/2-z
1/2-y,1/2+x,1/2-z
1/2-x,1/2+y,1/2+z
1/2+x,1/2-y,1/2+z
1/2-y,1/2-x,1/2+z
1/2+y,1/2+x,1/2+z
loop_
_atom_site_type_symbol
_atom_site_label
_atom_site_fract_x
_atom_site_fract_y
_atom_site_fract_z
Si Si1 0.772994 0.867758 0.097370
Si Si2 0.647464 0.840305 0.145770
Si Si3 0.261470 0.564614 0.101440
Si Si4 0.563948 0.936592 0.356343
Si Si5 0.159734 0.934370 0.763018
O O1 0.814995 0.814995 0.106947
O O2 0.709766 0.845647 0.108234
O O3 0.792516 0.912318 0.169809
O O4 0.780236 0.891219 0.000000
O O5 0.654593 0.845408 0.250000
O O6 0.611683 0.785002 0.123021
O O7 0.609770 0.892497 0.113739
O O8 0.239820 0.500000 0.116074
O O9 0.313442 0.571947 0.166967
O O10 0.277013 0.569089 0.000000
O O11 0.500000 0.925688 0.384110
O O12 0.564109 0.935892 0.250000
O O13 0.579696 0.000000 0.383093
O O14 0.105651 0.894349 0.773191
O O15 0.147295 0.000000 0.778065
#
# Coordination Sequence:
#
# PCOD9571813 Si02
#       5
#    32  32  32  32  32
#     4  10  22  39  57  81 115 151 187 231 284 340
#     4  11  19  31  55  85 112 151 199 242 281 332
#     4  10  21  37  57  84 120 159 197 238 284 336
#     4   8  15  27  44  71 107 145 185 230 276 318
#     4  10  22  41  64  89 116 146 183 231 289 351
#
# _framework density 18.485665999999998
#
# number of rings (size 3 to 8) (size 9 to 14) (size 15 to 20)
#    0.000    2.200    2.000    1.800    0.000    3.800 
#    0.000    0.000    0.000    1.800    0.000   12.600 
#    0.000    0.000    0.000    0.000    0.000    0.000 
#
# Total GULP energy -446438.723078 kJ/mol
# GULP energy per Si atom -5580.484038 kJ/mol
# Density = 1.844359 g / cm^3
# Si number density = 18.485666 Si / 1000 Ang^3
#
#
#
# Elastic Constant Matrix: (Units=GPa)
#
#
# Indices 1 2 3 4 5 6 
#
# 1 88.4177 40.3263 29.6272 0.0000 0.0000 0.0000
# 2 40.3263 88.4179 29.6270 0.0000 0.0000 0.0000
# 3 29.6272 29.6270 87.9391 0.0000 0.0000 0.0000
# 4 0.0000 0.0000 0.0000 14.7792 0.0000 0.0000
# 5 0.0000 0.0000 0.0000 0.0000 14.7793 0.0000
# 6 0.0000 0.0000 0.0000 0.0000 0.0000 17.0969
#
#
#
# Elastic Compliance Matrix: (Units=1/GPa)
#
#
# Indices 1 2 3 4 5 6 
#
# 1 0.014993 -0.005800 -0.003097 0.000000 0.000000 0.000000
# 2 -0.005800 0.014993 -0.003097 0.000000 0.000000 0.000000
# 3 -0.003097 -0.003097 0.013458 0.000000 0.000000 0.000000
# 4 0.000000 0.000000 0.000000 0.067663 0.000000 0.000000
# 5 0.000000 0.000000 0.000000 0.000000 0.067662 0.000000
# 6 0.000000 0.000000 0.000000 0.000000 0.000000 0.058490
#
#
# Mechanical properties :
#
#
# Convention : Reuss Voigt Hill
#
# Bulk Modulus (GPa) = 51.39923 51.54841 51.47382
# Shear Modulus (GPa) = 18.67522 20.34402 19.50962
#
# Velocity S-wave (km/s) = 3.18190 3.32102 3.25220
# Velocity P-wave (km/s) = 6.43153 6.53083 6.48137
#
# Compressibility (1/GPa) = 0.01945555
#
# Stress axis : x y z
#
# Youngs Moduli (GPa) = 66.69654 66.69688 74.30333
#
# Poissons Ratio (x) = 0.38687 0.23013
# Poissons Ratio (y) = 0.38687 0.23012
# Poissons Ratio (z) = 0.20657 0.20656
#
# Static dielectric constant tensor:
#      x y z
#    x 1.615380 0.000000 0.000000 
#    y 0.000000 1.615380 0.000000 
#    z 0.000000 0.000000 1.669880 
# 
# From -- ./inp_files/5923.got.cif
#   From: 2010.05.17/outbox.cif.g08.bks.cpg/sg139_3_cif.got.tgz:5923.got - 2010.05.20 13:14:44.
