data_PCOD9571086
_publ_section_title
;
Structure prediction by ZEFSAII (Michael W. Deem and Ramdas Pophale) SiO2 
 PCOD9571086
Probable space group: P 42/N C M
;
_chemical_formula_sum "Si O2"
_cell_formula_units_Z 80
_cell_length_a 11.717234
_cell_length_b 11.717234
_cell_length_c 27.707985
_cell_angle_alpha 90.000000
_cell_angle_beta 90.000000
_cell_angle_gamma 90.000000
_cell_volume 3804.128250
_symmetry_space_group_name_H-M "P 42/N C M"
_symmetry_group_IT_number 138
_space_group.IT_coordinate_system_code '2'
_symmetry_cell_setting 'tetragonal'
loop_
_space_group_symop_operation_xyz
x,y,z
1/2-y,x,1/2+z
1/2-x,1/2-y,z
y,1/2-x,1/2+z
1/2+x,-y,1/2-z
-x,1/2+y,1/2-z
1/2+y,1/2+x,-z
-y,-x,-z
-x,-y,-z
1/2+y,-x,1/2-z
1/2+x,1/2+y,-z
-y,1/2+x,1/2-z
1/2-x,y,1/2+z
x,1/2-y,1/2+z
1/2-y,1/2-x,z
y,x,z
loop_
_atom_site_type_symbol
_atom_site_label
_atom_site_fract_x
_atom_site_fract_y
_atom_site_fract_z
Si Si1 0.736725 0.052941 0.416821
Si Si2 0.594434 0.594434 0.484023
Si Si3 0.265452 0.905918 0.778420
Si Si4 0.157251 0.342750 0.759684
Si Si5 0.343909 0.156092 0.644712
Si Si6 0.841634 0.841634 0.589550
Si Si7 0.908871 0.247525 0.888175
O O1 0.628591 0.141148 0.422633
O O2 0.831298 0.143552 0.400430
O O3 0.804029 0.973626 0.455820
O O4 0.694791 0.963710 0.377125
O O5 0.500000 0.500000 0.500000
O O6 0.647188 0.647188 0.531989
O O7 0.372173 0.827399 0.762154
O O8 0.218385 0.883839 0.832097
O O9 0.304519 0.034797 0.777497
O O10 0.250000 0.250000 0.773945
O O11 0.151195 0.348806 0.701913
O O12 0.250000 0.250000 0.630430
O O13 0.750000 0.750000 0.604547
O O14 0.963570 0.794433 0.606805
#
# Coordination Sequence:
#
# PCOD9571086 Si02
#       7
#    16   8  16   8   8   8  16
#     4  11  23  43  71 101 130 176 226 287 343 426
#     4  12  24  48  72 101 137 174 233 283 366 418
#     4  11  23  43  68  98 136 178 227 284 332 408
#     4  11  25  39  61  98 132 177 227 279 338 398
#     4  11  22  39  67  99 134 170 223 286 345 401
#     4  12  29  48  68 100 141 186 231 293 343 424
#     4  11  24  45  70  96 138 186 227 275 354 410
#
# _framework density 21.029785
#
# number of rings (size 3 to 8) (size 9 to 14) (size 15 to 20)
#    0.000    0.800    3.000    5.400    4.200    2.400 
#    0.000    1.000    0.000    0.000    0.000    0.000 
#    0.000    0.000    0.000    0.000    0.000    0.000 
#
# Total GULP energy -446499.187575 kJ/mol
# GULP energy per Si atom -5581.239845 kJ/mol
# Density = 2.098192 g / cm^3
# Si number density = 21.029785 Si / 1000 Ang^3
#
#
#
# Elastic Constant Matrix: (Units=GPa)
#
#
# Indices 1 2 3 4 5 6 
#
# 1 113.3531 66.3950 29.8806 0.0000 0.0000 0.0000
# 2 66.3950 113.3531 29.8806 0.0000 0.0000 0.0000
# 3 29.8806 29.8806 89.0472 0.0000 0.0000 0.0000
# 4 0.0000 0.0000 0.0000 -40.4250 0.0000 0.0000
# 5 0.0000 0.0000 0.0000 0.0000 -40.4250 0.0000
# 6 0.0000 0.0000 0.0000 0.0000 0.0000 18.1042
#
#
#
# Elastic Compliance Matrix: (Units=1/GPa)
#
#
# Indices 1 2 3 4 5 6 
#
# 1 0.013779 -0.007517 -0.002101 0.000000 0.000000 0.000000
# 2 -0.007517 0.013779 -0.002101 0.000000 0.000000 0.000000
# 3 -0.002101 -0.002101 0.012640 0.000000 0.000000 0.000000
# 4 0.000000 0.000000 0.000000 -0.024737 0.000000 0.000000
# 5 0.000000 0.000000 0.000000 0.000000 -0.024737 0.000000
# 6 0.000000 0.000000 0.000000 0.000000 0.000000 0.055236
#
#
# Mechanical properties :
#
#
# Convention : Reuss Voigt Hill
#
# Bulk Modulus (GPa) = 59.66919 63.11843 61.39381
# Shear Modulus (GPa) = 66.68067 0.09064 33.38566
#
# Velocity S-wave (km/s) = 5.63707 0.20783 3.98872
# Velocity P-wave (km/s) = 8.41451 5.48968 7.10424
#
# Compressibility (1/GPa) = 0.01675907
#
# Stress axis : x y z
#
# Youngs Moduli (GPa) = 72.57541 72.57541 79.11276
#
# Poissons Ratio (x) = 0.54554 0.16624
# Poissons Ratio (y) = 0.54554 0.16624
# Poissons Ratio (z) = 0.15250 0.15250
#
# Static dielectric constant tensor:
#      x y z
#    x 1.794080 0.000000 0.000000 
#    y 0.000000 1.794080 0.000000 
#    z 0.000000 0.000000 1.755400 
# 
# From -- ./inp_files/7993.got.cif
#   From: 2010.05.17/outbox.cif.g08.bks.cpg/sg138_4_cif.got.tgz:7993.got - 2010.05.20 13:08:53.
