data_PCOD9571691
_publ_section_title
;
Structure prediction by ZEFSAII (Michael W. Deem and Ramdas Pophale) SiO2 
 PCOD9571691
Probable space group: I 4/M M M
;
_chemical_formula_sum "Si O2"
_cell_formula_units_Z 160
_cell_length_a 23.450162
_cell_length_b 23.450162
_cell_length_c 13.643720
_cell_angle_alpha 90.000000
_cell_angle_beta 90.000000
_cell_angle_gamma 90.000000
_cell_volume 7502.819400
_symmetry_space_group_name_H-M "I 4/M M M"
_symmetry_group_IT_number 139
_symmetry_cell_setting 'tetragonal'
loop_
_space_group_symop_operation_xyz
x,y,z
-y,x,z
-x,-y,z
y,-x,z
x,-y,-z
-x,y,-z
y,x,-z
-y,-x,-z
-x,-y,-z
y,-x,-z
x,y,-z
-y,x,-z
-x,y,z
x,-y,z
-y,-x,z
y,x,z
1/2+x,1/2+y,1/2+z
1/2-y,1/2+x,1/2+z
1/2-x,1/2-y,1/2+z
1/2+y,1/2-x,1/2+z
1/2+x,1/2-y,1/2-z
1/2-x,1/2+y,1/2-z
1/2+y,1/2+x,1/2-z
1/2-y,1/2-x,1/2-z
1/2-x,1/2-y,1/2-z
1/2+y,1/2-x,1/2-z
1/2+x,1/2+y,1/2-z
1/2-y,1/2+x,1/2-z
1/2-x,1/2+y,1/2+z
1/2+x,1/2-y,1/2+z
1/2-y,1/2-x,1/2+z
1/2+y,1/2+x,1/2+z
loop_
_atom_site_type_symbol
_atom_site_label
_atom_site_fract_x
_atom_site_fract_y
_atom_site_fract_z
Si Si1 0.564771 0.343357 0.617990
Si Si2 0.683890 0.065817 0.319322
Si Si3 0.938404 0.565538 0.132921
Si Si4 0.104821 0.713191 0.115398
Si Si5 0.676474 0.765996 0.116866
O O1 0.562094 0.350895 0.500000
O O2 0.500000 0.349464 0.655969
O O3 0.609879 0.390122 0.655737
O O4 0.586440 0.278723 0.630794
O O5 0.627431 0.084352 0.381320
O O6 0.677980 0.072440 0.200802
O O7 0.731125 0.112215 0.344990
O O8 0.695681 0.000000 0.340594
O O9 0.938546 0.500000 0.099105
O O10 0.939421 0.560580 0.250000
O O11 0.000000 0.590323 0.102347
O O12 0.172170 0.705217 0.134962
O O13 0.092864 0.699117 0.000000
O O14 0.715623 0.715623 0.157336
O O15 0.674162 0.760140 0.000000
#
# Coordination Sequence:
#
# PCOD9571691 Si02
#       5
#    32  32  32  32  32
#     4   9  17  29  46  69  99 135 172 212 259 312
#     4  11  22  35  57  86 112 145 187 230 283 342
#     4   8  14  26  45  69  99 136 176 218 265 318
#     4  10  20  35  54  78 110 146 186 230 277 335
#     4  10  22  40  60  82 110 146 191 243 293 337
#
# _framework density 21.325316000000001
#
# number of rings (size 3 to 8) (size 9 to 14) (size 15 to 20)
#    0.000    2.400    0.000    3.600    0.000    6.600 
#    0.000    2.000    0.000    4.800    0.000    5.600 
#    0.000    0.400    0.000    2.200    0.000    0.000 
#
# Total GULP energy -446169.768119 kJ/mol
# GULP energy per Si atom -5577.122101 kJ/mol
# Density = 2.127678 g / cm^3
# Si number density = 21.325316 Si / 1000 Ang^3
#
#
#
# Elastic Constant Matrix: (Units=GPa)
#
#
# Indices 1 2 3 4 5 6 
#
# 1 135.7390 92.2249 25.5251 0.0000 0.0000 0.0000
# 2 92.2249 135.7394 25.5253 0.0000 0.0000 0.0000
# 3 25.5251 25.5253 80.8689 0.0000 0.0000 0.0000
# 4 0.0000 0.0000 0.0000 55.5506 0.0000 0.0000
# 5 0.0000 0.0000 0.0000 0.0000 55.5475 0.0000
# 6 0.0000 0.0000 0.0000 0.0000 0.0000 37.8599
#
#
#
# Elastic Compliance Matrix: (Units=1/GPa)
#
#
# Indices 1 2 3 4 5 6 
#
# 1 0.013851 -0.009130 -0.001490 0.000000 0.000000 0.000000
# 2 -0.009130 0.013851 -0.001490 0.000000 0.000000 0.000000
# 3 -0.001490 -0.001490 0.013306 0.000000 0.000000 0.000000
# 4 0.000000 0.000000 0.000000 0.018002 0.000000 0.000000
# 5 0.000000 0.000000 0.000000 0.000000 0.018003 0.000000
# 6 0.000000 0.000000 0.000000 0.000000 0.000000 0.026413
#
#
# Mechanical properties :
#
#
# Convention : Reuss Voigt Hill
#
# Bulk Modulus (GPa) = 59.56910 70.98869 65.27890
# Shear Modulus (GPa) = 37.52603 43.72975 40.62789
#
# Velocity S-wave (km/s) = 4.19942 4.53327 4.36954
# Velocity P-wave (km/s) = 7.17688 7.79496 7.49230
#
# Compressibility (1/GPa) = 0.01678723
#
# Stress axis : x y z
#
# Youngs Moduli (GPa) = 72.19880 72.19897 75.15277
#
# Poissons Ratio (x) = 0.65920 0.11197
# Poissons Ratio (y) = 0.65920 0.11197
# Poissons Ratio (z) = 0.10757 0.10757
#
# Static dielectric constant tensor:
#      x y z
#    x 1.822870 0.000000 0.000000 
#    y 0.000000 1.822870 0.000000 
#    z 0.000000 0.000000 1.843000 
# 
# From -- ./inp_files/5941.got.cif
#   From: 2010.05.17/outbox.cif.g08.bks.cpg/sg139_3_cif.got.tgz:5941.got - 2010.05.20 13:14:44.
