data_PCOD9571824
_publ_section_title
;
Structure prediction by ZEFSAII (Michael W. Deem and Ramdas Pophale) SiO2 
 PCOD9571824
Probable space group: I 4/M M M
;
_chemical_formula_sum "Si O2"
_cell_formula_units_Z 96
_cell_length_a 24.595059
_cell_length_b 24.595059
_cell_length_c 8.047576
_cell_angle_alpha 90.000000
_cell_angle_beta 90.000000
_cell_angle_gamma 90.000000
_cell_volume 4868.114945
_symmetry_space_group_name_H-M "I 4/M M M"
_symmetry_group_IT_number 139
_symmetry_cell_setting 'tetragonal'
loop_
_space_group_symop_operation_xyz
x,y,z
-y,x,z
-x,-y,z
y,-x,z
x,-y,-z
-x,y,-z
y,x,-z
-y,-x,-z
-x,-y,-z
y,-x,-z
x,y,-z
-y,x,-z
-x,y,z
x,-y,z
-y,-x,z
y,x,z
1/2+x,1/2+y,1/2+z
1/2-y,1/2+x,1/2+z
1/2-x,1/2-y,1/2+z
1/2+y,1/2-x,1/2+z
1/2+x,1/2-y,1/2-z
1/2-x,1/2+y,1/2-z
1/2+y,1/2+x,1/2-z
1/2-y,1/2-x,1/2-z
1/2-x,1/2-y,1/2-z
1/2+y,1/2-x,1/2-z
1/2+x,1/2+y,1/2-z
1/2-y,1/2+x,1/2-z
1/2-x,1/2+y,1/2+z
1/2+x,1/2-y,1/2+z
1/2-y,1/2-x,1/2+z
1/2+y,1/2+x,1/2+z
loop_
_atom_site_type_symbol
_atom_site_label
_atom_site_fract_x
_atom_site_fract_y
_atom_site_fract_z
Si Si1 0.120104 0.295011 0.300106
Si Si2 0.263445 0.000000 0.194196
Si Si3 0.500000 0.355036 0.189384
Si Si4 0.615166 0.615166 0.684544
Si Si5 0.195608 0.804393 0.312937
O O1 0.116953 0.289422 0.500000
O O2 0.149105 0.350896 0.250000
O O3 0.162293 0.247133 0.238829
O O4 0.058597 0.291025 0.230950
O O5 0.209892 0.000000 0.306528
O O6 0.248114 0.000000 0.000000
O O7 0.552809 0.373716 0.285249
O O8 0.500000 0.374991 0.000000
O O9 0.632189 0.632189 0.500000
O O10 0.649599 0.649599 0.814345
O O11 0.212080 0.787921 0.500000
#
# Coordination Sequence:
#
# PCOD9571824 Si02
#       5
#    32  16  16  16  16
#     4  11  23  40  63  93 128 166 207 253 309 368
#     4  12  24  40  63  92 123 162 208 253 305 367
#     4  12  24  41  61  84 119 163 209 255 312 367
#     4  12  24  38  60  88 118 157 211 262 306 358
#     4  10  21  37  60  89 127 167 202 247 310 365
#
# _framework density 19.720158999999999
#
# number of rings (size 3 to 8) (size 9 to 14) (size 15 to 20)
#    0.000    0.667    3.333    6.000    0.000    1.667 
#    0.000    1.667    0.000    0.500    0.000    3.500 
#    0.000    0.000    0.000    0.000    0.000    0.000 
#
# Total GULP energy -267944.845971 kJ/mol
# GULP energy per Si atom -5582.184291 kJ/mol
# Density = 1.967527 g / cm^3
# Si number density = 19.720159 Si / 1000 Ang^3
#
#
#
# Elastic Constant Matrix: (Units=GPa)
#
#
# Indices 1 2 3 4 5 6 
#
# 1 -47.6125 233.2048 3.0836 0.0000 0.0000 0.0000
# 2 233.2048 -47.6724 3.0810 0.0000 0.0000 0.0000
# 3 3.0836 3.0810 87.8171 0.0000 0.0000 0.0000
# 4 0.0000 0.0000 0.0000 20.3562 0.0000 0.0000
# 5 0.0000 0.0000 0.0000 0.0000 20.3571 0.0000
# 6 0.0000 0.0000 0.0000 0.0000 0.0000 24.2179
#
#
#
# Elastic Compliance Matrix: (Units=1/GPa)
#
#
# Indices 1 2 3 4 5 6 
#
# 1 0.000918 0.004478 -0.000189 0.000000 0.000000 0.000000
# 2 0.004478 0.000917 -0.000189 0.000000 0.000000 0.000000
# 3 -0.000189 -0.000189 0.011401 0.000000 0.000000 0.000000
# 4 0.000000 0.000000 0.000000 0.049125 0.000000 0.000000
# 5 0.000000 0.000000 0.000000 0.000000 0.049123 0.000000
# 6 0.000000 0.000000 0.000000 0.000000 0.000000 0.041292
#
#
# Mechanical properties :
#
#
# Convention : Reuss Voigt Hill
#
# Bulk Modulus (GPa) = 46.65543 52.36347 49.50945
# Shear Modulus (GPa) = 32.95521 -3.46958 14.74282
#
# Velocity S-wave (km/s) = 4.09240 -1.32787 2.73720
# Velocity P-wave (km/s) = 6.78531 4.92544 5.92876
#
# Compressibility (1/GPa) = 0.02143373
#
# Stress axis : x y z
#
# Youngs Moduli (GPa) = 1089.43915 1090.80110 87.71472
#
# Poissons Ratio (x) = -4.88459 0.01661
# Poissons Ratio (y) = -4.87849 0.01661
# Poissons Ratio (z) = 0.20628 0.20660
#
# Static dielectric constant tensor:
#      x y z
#    x 1.672270 0.000000 0.000000 
#    y 0.000000 1.672270 0.000000 
#    z 0.000000 0.000000 1.699380 
# 
# From -- ./inp_files/1170.got.cif
#   From: 2010.05.17/outbox.cif.g08.bks.cpg/sg139_1_cif.got.tgz:1170.got - 2010.05.20 13:14:44.
