data_PCOD9571228
_publ_section_title
;
Structure prediction by ZEFSAII (Michael W. Deem and Ramdas Pophale) SiO2 
 PCOD9571228
Probable space group: I 4/M M M
;
_chemical_formula_sum "Si O2"
_cell_formula_units_Z 176
_cell_length_a 26.726217
_cell_length_b 26.726217
_cell_length_c 15.262692
_cell_angle_alpha 90.000000
_cell_angle_beta 90.000000
_cell_angle_gamma 90.000000
_cell_volume 10901.998573
_symmetry_space_group_name_H-M "I 4/M M M"
_symmetry_group_IT_number 139
_symmetry_cell_setting 'tetragonal'
loop_
_space_group_symop_operation_xyz
x,y,z
-y,x,z
-x,-y,z
y,-x,z
x,-y,-z
-x,y,-z
y,x,-z
-y,-x,-z
-x,-y,-z
y,-x,-z
x,y,-z
-y,x,-z
-x,y,z
x,-y,z
-y,-x,z
y,x,z
1/2+x,1/2+y,1/2+z
1/2-y,1/2+x,1/2+z
1/2-x,1/2-y,1/2+z
1/2+y,1/2-x,1/2+z
1/2+x,1/2-y,1/2-z
1/2-x,1/2+y,1/2-z
1/2+y,1/2+x,1/2-z
1/2-y,1/2-x,1/2-z
1/2-x,1/2-y,1/2-z
1/2+y,1/2-x,1/2-z
1/2+x,1/2+y,1/2-z
1/2-y,1/2+x,1/2-z
1/2-x,1/2+y,1/2+z
1/2+x,1/2-y,1/2+z
1/2-y,1/2-x,1/2+z
1/2+y,1/2+x,1/2+z
loop_
_atom_site_type_symbol
_atom_site_label
_atom_site_fract_x
_atom_site_fract_y
_atom_site_fract_z
Si Si1 0.800444 0.278255 0.146977
Si Si2 0.557044 0.771375 0.239152
Si Si3 0.854465 0.060348 0.000000
Si Si4 0.555927 0.847258 0.397956
Si Si5 0.195301 0.114684 0.163240
Si Si6 0.662487 0.114057 0.401605
O O1 0.749982 0.250019 0.117184
O O2 0.791938 0.291938 0.250000
O O3 0.845096 0.238099 0.136061
O O4 0.816446 0.329309 0.101716
O O5 0.500000 0.763531 0.214721
O O6 0.558884 0.800897 0.331930
O O7 0.584738 0.719626 0.257149
O O8 0.583550 0.806376 0.168787
O O9 0.822634 0.078833 0.084571
O O10 0.905896 0.094105 0.000000
O O11 0.861734 0.000000 0.000000
O O12 0.560742 0.831798 0.500000
O O13 0.500000 0.869430 0.387256
O O14 0.603464 0.882257 0.379242
O O15 0.147903 0.147903 0.189472
O O16 0.667667 0.094185 0.500000
#
# Coordination Sequence:
#
# PCOD9571228 Si02
#       6
#    32  32  16  32  32  32
#     4  10  18  30  49  71 100 131 163 207 259 308
#     4  11  21  33  51  73  99 135 172 213 264 306
#     4  10  22  37  54  80 112 144 181 223 267 319
#     4   9  18  31  49  72  95 123 166 217 263 307
#     4  10  20  33  50  75 105 134 167 212 260 305
#     4  11  21  33  48  69 102 135 174 213 251 314
#
# _framework density 16.143829
#
# number of rings (size 3 to 8) (size 9 to 14) (size 15 to 20)
#    0.000    1.818    3.636    1.091    2.545    0.818 
#    0.000    0.000    0.000    0.545    0.000    5.091 
#    0.000    0.000    0.000    0.000    0.000    0.000 
#
# Total GULP energy -490604.631785 kJ/mol
# GULP energy per Si atom -5575.052634 kJ/mol
# Density = 1.610709 g / cm^3
# Si number density = 16.143829 Si / 1000 Ang^3
#
#
#
# Elastic Constant Matrix: (Units=GPa)
#
#
# Indices 1 2 3 4 5 6 
#
# 1 99.9362 46.3277 41.9506 0.0000 0.0000 0.0000
# 2 46.3277 99.9351 41.9504 0.0000 0.0000 0.0000
# 3 41.9506 41.9504 56.5517 0.0000 0.0000 0.0000
# 4 0.0000 0.0000 0.0000 18.6100 0.0000 0.0000
# 5 0.0000 0.0000 0.0000 0.0000 18.6097 0.0000
# 6 0.0000 0.0000 0.0000 0.0000 0.0000 9.2635
#
#
#
# Elastic Compliance Matrix: (Units=1/GPa)
#
#
# Indices 1 2 3 4 5 6 
#
# 1 0.015277 -0.003376 -0.008828 0.000000 0.000000 0.000000
# 2 -0.003376 0.015278 -0.008828 0.000000 0.000000 0.000000
# 3 -0.008828 -0.008828 0.030781 0.000000 0.000000 0.000000
# 4 0.000000 0.000000 0.000000 0.053735 0.000000 0.000000
# 5 0.000000 0.000000 0.000000 0.000000 0.053735 0.000000
# 6 0.000000 0.000000 0.000000 0.000000 0.000000 0.107951
#
#
# Mechanical properties :
#
#
# Convention : Reuss Voigt Hill
#
# Bulk Modulus (GPa) = 51.89500 57.43115 54.66307
# Shear Modulus (GPa) = 15.37297 17.70961 16.54129
#
# Velocity S-wave (km/s) = 3.08920 3.31568 3.20444
# Velocity P-wave (km/s) = 6.70369 7.09297 6.90107
#
# Compressibility (1/GPa) = 0.01926968
#
# Stress axis : x y z
#
# Youngs Moduli (GPa) = 65.45579 65.45504 32.48772
#
# Poissons Ratio (x) = 0.22100 0.28681
# Poissons Ratio (y) = 0.22100 0.28682
# Poissons Ratio (z) = 0.57787 0.57787
#
# Static dielectric constant tensor:
#      x y z
#    x 1.555550 0.000000 0.000000 
#    y 0.000000 1.555550 0.000000 
#    z 0.000000 0.000000 1.553040 
# 
# From -- ./inp_files/6374.got.cif
#   From: 2010.05.17/outbox.cif.g08.bks.cpg/sg139_4_cif.got.tgz:6374.got - 2010.05.20 13:14:44.
