data_PCOD9571626
_publ_section_title
;
Structure prediction by ZEFSAII (Michael W. Deem and Ramdas Pophale) SiO2 
 PCOD9571626
Probable space group: I 4/M M M
;
_chemical_formula_sum "Si O2"
_cell_formula_units_Z 176
_cell_length_a 18.696090
_cell_length_b 18.696090
_cell_length_c 27.287580
_cell_angle_alpha 90.000000
_cell_angle_beta 90.000000
_cell_angle_gamma 90.000000
_cell_volume 9538.203895
_symmetry_space_group_name_H-M "I 4/M M M"
_symmetry_group_IT_number 139
_symmetry_cell_setting 'tetragonal'
loop_
_space_group_symop_operation_xyz
x,y,z
-y,x,z
-x,-y,z
y,-x,z
x,-y,-z
-x,y,-z
y,x,-z
-y,-x,-z
-x,-y,-z
y,-x,-z
x,y,-z
-y,x,-z
-x,y,z
x,-y,z
-y,-x,z
y,x,z
1/2+x,1/2+y,1/2+z
1/2-y,1/2+x,1/2+z
1/2-x,1/2-y,1/2+z
1/2+y,1/2-x,1/2+z
1/2+x,1/2-y,1/2-z
1/2-x,1/2+y,1/2-z
1/2+y,1/2+x,1/2-z
1/2-y,1/2-x,1/2-z
1/2-x,1/2-y,1/2-z
1/2+y,1/2-x,1/2-z
1/2+x,1/2+y,1/2-z
1/2-y,1/2+x,1/2-z
1/2-x,1/2+y,1/2+z
1/2+x,1/2-y,1/2+z
1/2-y,1/2-x,1/2+z
1/2+y,1/2+x,1/2+z
loop_
_atom_site_type_symbol
_atom_site_label
_atom_site_fract_x
_atom_site_fract_y
_atom_site_fract_z
Si Si1 0.081575 0.721166 0.408046
Si Si2 0.180102 0.180102 0.870246
Si Si3 0.080683 0.416557 0.351917
Si Si4 0.584850 0.584850 0.442599
Si Si5 0.915345 0.723899 0.798176
Si Si6 0.271888 0.271888 0.053787
Si Si7 0.702380 0.582805 0.802703
O O1 0.092886 0.636921 0.397231
O O2 0.144311 0.754636 0.439853
O O3 0.088097 0.756655 0.354123
O O4 0.000000 0.732234 0.425515
O O5 0.131740 0.131740 0.905984
O O6 0.130723 0.228912 0.835591
O O7 0.230155 0.230155 0.903622
O O8 0.084202 0.500000 0.366071
O O9 0.141229 0.403902 0.311667
O O10 0.000000 0.401536 0.333459
O O11 0.500000 0.597606 0.434848
O O12 0.600244 0.600244 0.500000
O O13 0.897882 0.746968 0.742975
O O14 0.000000 0.738090 0.805628
O O15 0.248002 0.248002 0.000000
O O16 0.680433 0.500000 0.796596
O O17 0.635413 0.635413 0.802773
#
# Coordination Sequence:
#
# PCOD9571626 Si02
#       7
#    32  16  32  16  32  16  32
#     4  10  21  40  62  85 116 151 188 236 295 352
#     4  12  20  35  54  82 115 152 183 238 288 335
#     4   9  18  35  57  81 115 156 193 228 272 331
#     4   9  19  36  56  77 105 147 195 237 281 334
#     4  10  20  33  53  85 120 154 190 227 271 333
#     4  12  25  40  61  89 112 144 198 248 304 358
#     4  10  20  35  56  84 118 156 195 230 276 346
#
# _framework density 18.452110999999999
#
# number of rings (size 3 to 8) (size 9 to 14) (size 15 to 20)
#    0.000    1.909    3.636    1.091    0.000    1.273 
#    0.000    4.545    0.000    9.545    0.000    3.182 
#    0.000    0.000    0.000    0.000    0.000    0.000 
#
# Total GULP energy -491367.563737 kJ/mol
# GULP energy per Si atom -5583.722315 kJ/mol
# Density = 1.841011 g / cm^3
# Si number density = 18.452111 Si / 1000 Ang^3
#
#
#
# Elastic Constant Matrix: (Units=GPa)
#
#
# Indices 1 2 3 4 5 6 
#
# 1 77.9996 53.2887 21.8532 0.0000 0.0000 0.0000
# 2 53.2887 77.9995 21.8532 0.0000 0.0000 0.0000
# 3 21.8532 21.8532 54.9171 0.0000 0.0000 0.0000
# 4 0.0000 0.0000 0.0000 17.7744 0.0000 0.0000
# 5 0.0000 0.0000 0.0000 0.0000 17.7744 0.0000
# 6 0.0000 0.0000 0.0000 0.0000 0.0000 31.7709
#
#
#
# Elastic Compliance Matrix: (Units=1/GPa)
#
#
# Indices 1 2 3 4 5 6 
#
# 1 0.024624 -0.015844 -0.003494 0.000000 0.000000 0.000000
# 2 -0.015844 0.024624 -0.003494 0.000000 0.000000 0.000000
# 3 -0.003494 -0.003494 0.020990 0.000000 0.000000 0.000000
# 4 0.000000 0.000000 0.000000 0.056261 0.000000 0.000000
# 5 0.000000 0.000000 0.000000 0.000000 0.056261 0.000000
# 6 0.000000 0.000000 0.000000 0.000000 0.000000 0.031475
#
#
# Mechanical properties :
#
#
# Convention : Reuss Voigt Hill
#
# Bulk Modulus (GPa) = 40.69263 44.98963 42.84113
# Shear Modulus (GPa) = 18.65048 21.05867 19.85458
#
# Velocity S-wave (km/s) = 3.18268 3.38192 3.28381
# Velocity P-wave (km/s) = 5.96715 6.29957 6.13561
#
# Compressibility (1/GPa) = 0.02457447
#
# Stress axis : x y z
#
# Youngs Moduli (GPa) = 40.61074 40.61074 47.64208
#
# Poissons Ratio (x) = 0.64344 0.16645
# Poissons Ratio (y) = 0.64344 0.16645
# Poissons Ratio (z) = 0.14189 0.14189
#
# Static dielectric constant tensor:
#      x y z
#    x 1.636480 0.000000 0.000000 
#    y 0.000000 1.636480 0.000000 
#    z 0.000000 0.000000 1.605820 
# 
# From -- ./inp_files/13165.got.cif
#   From: 2010.05.17/outbox.cif.g08.bks.cpg/sg139_7_cif.got.tgz:13165.got - 2010.05.20 13:14:44.
