data_PCOD9571566
_publ_section_title
;
Structure prediction by ZEFSAII (Michael W. Deem and Ramdas Pophale) SiO2 
 PCOD9571566
Probable space group: I 4/M M M
;
_chemical_formula_sum "Si O2"
_cell_formula_units_Z 136
_cell_length_a 17.952446
_cell_length_b 17.952446
_cell_length_c 23.943629
_cell_angle_alpha 90.000000
_cell_angle_beta 90.000000
_cell_angle_gamma 90.000000
_cell_volume 7716.799790
_symmetry_space_group_name_H-M "I 4/M M M"
_symmetry_group_IT_number 139
_symmetry_cell_setting 'tetragonal'
loop_
_space_group_symop_operation_xyz
x,y,z
-y,x,z
-x,-y,z
y,-x,z
x,-y,-z
-x,y,-z
y,x,-z
-y,-x,-z
-x,-y,-z
y,-x,-z
x,y,-z
-y,x,-z
-x,y,z
x,-y,z
-y,-x,z
y,x,z
1/2+x,1/2+y,1/2+z
1/2-y,1/2+x,1/2+z
1/2-x,1/2-y,1/2+z
1/2+y,1/2-x,1/2+z
1/2+x,1/2-y,1/2-z
1/2-x,1/2+y,1/2-z
1/2+y,1/2+x,1/2-z
1/2-y,1/2-x,1/2-z
1/2-x,1/2-y,1/2-z
1/2+y,1/2-x,1/2-z
1/2+x,1/2+y,1/2-z
1/2-y,1/2+x,1/2-z
1/2-x,1/2+y,1/2+z
1/2+x,1/2-y,1/2+z
1/2-y,1/2-x,1/2+z
1/2+y,1/2+x,1/2+z
loop_
_atom_site_type_symbol
_atom_site_label
_atom_site_fract_x
_atom_site_fract_y
_atom_site_fract_z
Si Si1 0.500000 0.376185 0.623659
Si Si2 0.914836 0.500000 0.322690
Si Si3 0.139090 0.262838 0.289192
Si Si4 0.500000 0.312128 0.500000
Si Si5 0.850911 0.414376 0.105210
Si Si6 0.500000 0.746923 0.282163
Si Si7 0.086961 0.667005 0.000000
O O1 0.572417 0.427584 0.635935
O O2 0.500000 0.357176 0.557588
O O3 0.500000 0.299984 0.660222
O O4 0.911269 0.427336 0.360423
O O5 0.837961 0.500000 0.287496
O O6 0.000000 0.500000 0.301310
O O7 0.205430 0.205430 0.296940
O O8 0.170642 0.329359 0.250000
O O9 0.111537 0.290990 0.349214
O O10 0.072313 0.227692 0.253833
O O11 0.570393 0.255135 0.500000
O O12 0.837191 0.500000 0.087636
O O13 0.867192 0.361327 0.053116
O O14 0.000000 0.635847 0.000000
#
# Coordination Sequence:
#
# PCOD9571566 Si02
#       7
#    16  16  32   8  32  16  16
#     4  11  24  42  66  92 119 163 221 272 313 357
#     4  10  20  32  54  85 117 151 193 233 280 366
#     4  11  24  38  56  84 119 155 198 252 307 367
#     4  10  22  39  59  88 132 168 196 246 305 368
#     4  11  20  36  56  85 117 154 193 243 299 356
#     4  12  21  42  60  84 114 163 208 255 312 360
#     4  10  21  36  57  88 120 156 198 232 285 369
#
# _framework density 17.623887
#
# number of rings (size 3 to 8) (size 9 to 14) (size 15 to 20)
#    0.353    0.824    4.706    2.824    0.000    0.941 
#    2.118    1.765    0.000    0.000    0.000    0.000 
#    0.000    0.000    0.000    2.235    0.000    0.000 
#
# Total GULP energy -379088.381592 kJ/mol
# GULP energy per Si atom -5574.829141 kJ/mol
# Density = 1.758377 g / cm^3
# Si number density = 17.623887 Si / 1000 Ang^3
#
#
#
# Elastic Constant Matrix: (Units=GPa)
#
#
# Indices 1 2 3 4 5 6 
#
# 1 60.7248 19.0408 21.3331 0.0000 0.0000 0.0000
# 2 19.0408 60.7246 21.3328 0.0000 0.0000 0.0000
# 3 21.3331 21.3328 91.7098 0.0000 0.0000 0.0000
# 4 0.0000 0.0000 0.0000 25.7163 0.0000 0.0000
# 5 0.0000 0.0000 0.0000 0.0000 25.7168 0.0000
# 6 0.0000 0.0000 0.0000 0.0000 0.0000 17.2269
#
#
#
# Elastic Compliance Matrix: (Units=1/GPa)
#
#
# Indices 1 2 3 4 5 6 
#
# 1 0.019154 -0.004836 -0.003331 0.000000 0.000000 0.000000
# 2 -0.004836 0.019154 -0.003331 0.000000 0.000000 0.000000
# 3 -0.003331 -0.003331 0.012453 0.000000 0.000000 0.000000
# 4 0.000000 0.000000 0.000000 0.038886 0.000000 0.000000
# 5 0.000000 0.000000 0.000000 0.000000 0.038885 0.000000
# 6 0.000000 0.000000 0.000000 0.000000 0.000000 0.058049
#
#
# Mechanical properties :
#
#
# Convention : Reuss Voigt Hill
#
# Bulk Modulus (GPa) = 36.01333 37.39696 36.70514
# Shear Modulus (GPa) = 22.84861 23.82883 23.33872
#
# Velocity S-wave (km/s) = 3.60454 3.68105 3.64299
# Velocity P-wave (km/s) = 6.14836 6.27155 6.21026
#
# Compressibility (1/GPa) = 0.02776750
#
# Stress axis : x y z
#
# Youngs Moduli (GPa) = 52.20794 52.20791 80.29902
#
# Poissons Ratio (x) = 0.25247 0.26745
# Poissons Ratio (y) = 0.25247 0.26744
# Poissons Ratio (z) = 0.17389 0.17388
#
# Static dielectric constant tensor:
#      x y z
#    x 1.607920 0.000000 0.000000 
#    y 0.000000 1.607920 0.000000 
#    z 0.000000 0.000000 1.604430 
# 
# From -- ./inp_files/11562.got.cif
#   From: 2010.05.17/outbox.cif.g08.bks.cpg/sg139_6_cif.got.tgz:11562.got - 2010.05.20 13:14:44.
