data_PCOD9571524
_publ_section_title
;
Structure prediction by ZEFSAII (Michael W. Deem and Ramdas Pophale) SiO2 
 PCOD9571524
Probable space group: I 4/M M M
;
_chemical_formula_sum "Si O2"
_cell_formula_units_Z 176
_cell_length_a 26.710678
_cell_length_b 26.710678
_cell_length_c 14.170552
_cell_angle_alpha 90.000000
_cell_angle_beta 90.000000
_cell_angle_gamma 90.000000
_cell_volume 10110.126553
_symmetry_space_group_name_H-M "I 4/M M M"
_symmetry_group_IT_number 139
_symmetry_cell_setting 'tetragonal'
loop_
_space_group_symop_operation_xyz
x,y,z
-y,x,z
-x,-y,z
y,-x,z
x,-y,-z
-x,y,-z
y,x,-z
-y,-x,-z
-x,-y,-z
y,-x,-z
x,y,-z
-y,x,-z
-x,y,z
x,-y,z
-y,-x,z
y,x,z
1/2+x,1/2+y,1/2+z
1/2-y,1/2+x,1/2+z
1/2-x,1/2-y,1/2+z
1/2+y,1/2-x,1/2+z
1/2+x,1/2-y,1/2-z
1/2-x,1/2+y,1/2-z
1/2+y,1/2+x,1/2-z
1/2-y,1/2-x,1/2-z
1/2-x,1/2-y,1/2-z
1/2+y,1/2-x,1/2-z
1/2+x,1/2+y,1/2-z
1/2-y,1/2+x,1/2-z
1/2-x,1/2+y,1/2+z
1/2+x,1/2-y,1/2+z
1/2-y,1/2-x,1/2+z
1/2+y,1/2+x,1/2+z
loop_
_atom_site_type_symbol
_atom_site_label
_atom_site_fract_x
_atom_site_fract_y
_atom_site_fract_z
Si Si1 0.306047 0.306047 0.115495
Si Si2 0.367156 0.115620 0.358419
Si Si3 0.306384 0.500000 0.111818
Si Si4 0.731739 0.882714 0.106985
Si Si5 0.225871 0.774130 0.887993
Si Si6 0.580628 0.500000 0.885122
Si Si7 0.748195 0.904846 0.315886
Si Si8 0.439907 0.059681 0.000000
O O1 0.265349 0.265349 0.149989
O O2 0.357747 0.283527 0.155754
O O3 0.309282 0.309282 0.000000
O O4 0.382938 0.117062 0.250000
O O5 0.371986 0.172463 0.394906
O O6 0.307965 0.101823 0.359142
O O7 0.406861 0.081357 0.413579
O O8 0.363006 0.500000 0.150773
O O9 0.275586 0.547881 0.142101
O O10 0.311233 0.500000 0.000000
O O11 0.759265 0.830631 0.130821
O O12 0.742215 0.913181 0.202652
O O13 0.746127 0.899452 0.000000
O O14 0.231366 0.768635 0.000000
O O15 0.548692 0.548692 0.856553
O O16 0.581186 0.500000 0.000000
O O17 0.500000 0.060164 0.000000
O O18 0.424506 0.000000 0.000000
#
# Coordination Sequence:
#
# PCOD9571524 Si02
#       8
#    16  32  16  32  16  16  32  16
#     4  11  21  33  56  88 126 158 193 230 287 346
#     4  10  22  39  60  85 114 145 188 235 296 351
#     4  11  25  38  54  85 123 156 196 232 299 351
#     4  10  19  37  57  83 116 154 194 235 279 346
#     4   9  17  29  55  84 115 151 189 223 274 344
#     4   8  16  35  60  81 109 156 202 236 272 327
#     4  11  24  36  56  88 120 159 194 236 292 355
#     4  11  26  44  64  83 102 142 194 243 298 344
#
# _framework density 17.408287999999999
#
# number of rings (size 3 to 8) (size 9 to 14) (size 15 to 20)
#    0.000    1.818    2.727    1.364    5.091    1.455 
#    4.909    1.364    0.000    0.000    0.000    0.000 
#    0.000    0.000    0.000    4.000    0.000    0.364 
#
# Total GULP energy -490259.619034 kJ/mol
# GULP energy per Si atom -5571.132034 kJ/mol
# Density = 1.736867 g / cm^3
# Si number density = 17.408288 Si / 1000 Ang^3
#
#
#
# Elastic Constant Matrix: (Units=GPa)
#
#
# Indices 1 2 3 4 5 6 
#
# 1 67.6260 96.4958 37.3701 0.0000 0.0000 0.0000
# 2 96.4958 67.6296 37.3700 0.0000 0.0000 0.0000
# 3 37.3701 37.3700 108.2525 0.0000 0.0000 0.0000
# 4 0.0000 0.0000 0.0000 23.5081 0.0000 0.0000
# 5 0.0000 0.0000 0.0000 0.0000 23.5082 0.0000
# 6 0.0000 0.0000 0.0000 0.0000 0.0000 54.3887
#
#
#
# Elastic Compliance Matrix: (Units=1/GPa)
#
#
# Indices 1 2 3 4 5 6 
#
# 1 -0.013706 0.020935 -0.002496 0.000000 0.000000 0.000000
# 2 0.020935 -0.013705 -0.002496 0.000000 0.000000 0.000000
# 3 -0.002496 -0.002496 0.010961 0.000000 0.000000 0.000000
# 4 0.000000 0.000000 0.000000 0.042539 0.000000 0.000000
# 5 0.000000 0.000000 0.000000 0.000000 0.042538 0.000000
# 6 0.000000 0.000000 0.000000 0.000000 0.000000 0.018386
#
#
# Mechanical properties :
#
#
# Convention : Reuss Voigt Hill
#
# Bulk Modulus (GPa) = 64.77981 65.10888 64.94434
# Shear Modulus (GPa) = 82.95827 25.09915 54.02871
#
# Velocity S-wave (km/s) = 6.91071 3.80121 5.57706
# Velocity P-wave (km/s) = 10.04839 7.53312 8.88026
#
# Compressibility (1/GPa) = 0.01543691
#
# Stress axis : x y z
#
# Youngs Moduli (GPa) = -72.96088 -72.96586 91.23457
#
# Poissons Ratio (x) = 1.52754 0.22768
# Poissons Ratio (y) = 1.52744 0.22771
# Poissons Ratio (z) = -0.18208 -0.18211
#
# Static dielectric constant tensor:
#      x y z
#    x 1.642810 0.000000 0.000000 
#    y 0.000000 1.642840 0.000000 
#    z 0.000000 0.000000 1.651610 
# 
# From -- ./inp_files/6480.got.cif
#   From: 2010.05.17/outbox.cif.g08.bks.cpg/sg139_4_cif.got.tgz:6480.got - 2010.05.20 13:14:44.
