data_PCOD9571133
_publ_section_title
;
Structure prediction by ZEFSAII (Michael W. Deem and Ramdas Pophale) SiO2 
 PCOD9571133
Probable space group: P 42/N C M
;
_chemical_formula_sum "Si O2"
_cell_formula_units_Z 80
_cell_length_a 10.085400
_cell_length_b 10.085400
_cell_length_c 31.754799
_cell_angle_alpha 90.000000
_cell_angle_beta 90.000000
_cell_angle_gamma 90.000000
_cell_volume 3229.948690
_symmetry_space_group_name_H-M "P 42/N C M"
_symmetry_group_IT_number 138
_space_group.IT_coordinate_system_code '2'
_symmetry_cell_setting 'tetragonal'
loop_
_space_group_symop_operation_xyz
x,y,z
1/2-y,x,1/2+z
1/2-x,1/2-y,z
y,1/2-x,1/2+z
1/2+x,-y,1/2-z
-x,1/2+y,1/2-z
1/2+y,1/2+x,-z
-y,-x,-z
-x,-y,-z
1/2+y,-x,1/2-z
1/2+x,1/2+y,-z
-y,1/2+x,1/2-z
1/2-x,y,1/2+z
x,1/2-y,1/2+z
1/2-y,1/2-x,z
y,x,z
loop_
_atom_site_type_symbol
_atom_site_label
_atom_site_fract_x
_atom_site_fract_y
_atom_site_fract_z
Si Si1 0.044745 0.257067 0.416039
Si Si2 0.327524 0.947101 0.097561
Si Si3 0.255981 0.030136 0.277418
Si Si4 0.436976 0.664936 0.311868
Si Si5 0.965949 0.246350 0.507097
O O1 0.100047 0.399953 0.401517
O O2 0.148842 0.148842 0.398318
O O3 0.898377 0.197502 0.408411
O O4 0.057402 0.255701 0.466794
O O5 0.262734 0.947801 0.143458
O O6 0.247703 0.995221 0.056593
O O7 0.449132 0.050869 0.098717
O O8 0.396453 0.103548 0.285598
O O9 0.146094 0.146094 0.278759
O O10 0.202024 0.914285 0.307569
O O11 0.255580 0.967656 0.230508
O O12 0.551524 0.551524 0.311941
O O13 0.861389 0.361389 0.500000
O O14 0.893265 0.106736 0.500000
#
# Coordination Sequence:
#
# PCOD9571133 Si02
#       5
#    16  16  16  16  16
#     4   9  17  29  46  68  93 123 160 200 244 293
#     4   9  17  31  52  74  97 127 168 214 250 292
#     4   9  18  34  54  76 107 140 170 214 265 315
#     4   9  18  33  54  79 102 132 175 213 258 317
#     4   9  17  30  46  65  93 127 158 194 241 293
#
# _framework density 24.768196
#
# number of rings (size 3 to 8) (size 9 to 14) (size 15 to 20)
#    0.000    3.000    0.000    0.600    0.000    4.000 
#    0.000   13.000    0.000    6.000    0.000    0.000 
#    0.000    0.000    0.000    0.000    0.000    0.000 
#
# Total GULP energy -446084.633927 kJ/mol
# GULP energy per Si atom -5576.057924 kJ/mol
# Density = 2.471182 g / cm^3
# Si number density = 24.768196 Si / 1000 Ang^3
#
#
#
# Elastic Constant Matrix: (Units=GPa)
#
#
# Indices 1 2 3 4 5 6 
#
# 1 29.7855 20.6109 -5.8496 0.0000 0.0000 0.0000
# 2 20.6109 29.7858 -5.8496 0.0000 0.0000 0.0000
# 3 -5.8496 -5.8496 133.9606 0.0000 0.0000 0.0000
# 4 0.0000 0.0000 0.0000 -16.9626 0.0000 0.0000
# 5 0.0000 0.0000 0.0000 0.0000 -16.9592 0.0000
# 6 0.0000 0.0000 0.0000 0.0000 0.0000 23.1948
#
#
#
# Elastic Compliance Matrix: (Units=1/GPa)
#
#
# Indices 1 2 3 4 5 6 
#
# 1 0.064521 -0.044475 0.000875 0.000000 0.000000 0.000000
# 2 -0.044475 0.064520 0.000875 0.000000 0.000000 0.000000
# 3 0.000875 0.000875 0.007541 0.000000 0.000000 0.000000
# 4 0.000000 0.000000 0.000000 -0.058953 0.000000 0.000000
# 5 0.000000 0.000000 0.000000 0.000000 -0.058965 0.000000
# 6 0.000000 0.000000 0.000000 0.000000 0.000000 0.043113
#
#
# Mechanical properties :
#
#
# Convention : Reuss Voigt Hill
#
# Bulk Modulus (GPa) = 19.55635 23.48393 21.52014
# Shear Modulus (GPa) = 30.43766 10.16261 20.30013
#
# Velocity S-wave (km/s) = 3.50937 2.02781 2.86598
# Velocity P-wave (km/s) = 4.93293 3.87101 4.43388
#
# Compressibility (1/GPa) = 0.05113430
#
# Stress axis : x y z
#
# Youngs Moduli (GPa) = 15.49885 15.49903 132.60265
#
# Poissons Ratio (x) = 0.68931 -0.11607
# Poissons Ratio (y) = 0.68931 -0.11607
# Poissons Ratio (z) = -0.01357 -0.01357
#
# Static dielectric constant tensor:
#      x y z
#    x 1.989080 0.000000 0.000000 
#    y 0.000000 1.989080 0.000000 
#    z 0.000000 0.000000 1.988340 
# 
# From -- ./inp_files/7914.got.cif
#   From: 2010.05.17/outbox.cif.g08.bks.cpg/sg138_4_cif.got.tgz:7914.got - 2010.05.20 13:08:53.
