data_PCOD9571563
_publ_section_title
;
Structure prediction by ZEFSAII (Michael W. Deem and Ramdas Pophale) SiO2 
 PCOD9571563
Probable space group: I 4/M M M
;
_chemical_formula_sum "Si O2"
_cell_formula_units_Z 112
_cell_length_a 19.591211
_cell_length_b 19.591211
_cell_length_c 15.081099
_cell_angle_alpha 90.000000
_cell_angle_beta 90.000000
_cell_angle_gamma 90.000000
_cell_volume 5788.360284
_symmetry_space_group_name_H-M "I 4/M M M"
_symmetry_group_IT_number 139
_symmetry_cell_setting 'tetragonal'
loop_
_space_group_symop_operation_xyz
x,y,z
-y,x,z
-x,-y,z
y,-x,z
x,-y,-z
-x,y,-z
y,x,-z
-y,-x,-z
-x,-y,-z
y,-x,-z
x,y,-z
-y,x,-z
-x,y,z
x,-y,z
-y,-x,z
y,x,z
1/2+x,1/2+y,1/2+z
1/2-y,1/2+x,1/2+z
1/2-x,1/2-y,1/2+z
1/2+y,1/2-x,1/2+z
1/2+x,1/2-y,1/2-z
1/2-x,1/2+y,1/2-z
1/2+y,1/2+x,1/2-z
1/2-y,1/2-x,1/2-z
1/2-x,1/2-y,1/2-z
1/2+y,1/2-x,1/2-z
1/2+x,1/2+y,1/2-z
1/2-y,1/2+x,1/2-z
1/2-x,1/2+y,1/2+z
1/2+x,1/2-y,1/2+z
1/2-y,1/2-x,1/2+z
1/2+y,1/2+x,1/2+z
loop_
_atom_site_type_symbol
_atom_site_label
_atom_site_fract_x
_atom_site_fract_y
_atom_site_fract_z
Si Si1 0.753039 0.921409 0.403496
Si Si2 0.500000 0.077876 0.393751
Si Si3 0.419703 0.690476 0.704794
Si Si4 0.368520 0.166956 0.650474
O O1 0.789085 0.917178 0.500000
O O2 0.793296 0.912088 0.311123
O O3 0.693294 0.865300 0.404384
O O4 0.725112 0.000000 0.397938
O O5 0.500000 0.075395 0.500000
O O6 0.565829 0.120010 0.364596
O O7 0.500000 0.000000 0.360430
O O8 0.500000 0.684572 0.687471
O O9 0.376604 0.623397 0.685199
O O10 0.389626 0.753975 0.647973
O O11 0.344021 0.155979 0.750000
#
# Coordination Sequence:
#
# PCOD9571563 Si02
#       4
#    32  16  32  32
#     4   9  18  33  53  81 118 151 178 216 272 340
#     4  11  22  32  50  82 115 149 185 222 266 326
#     4  10  21  38  57  79 106 142 190 243 291 335
#     4  10  20  32  52  78 111 148 185 225 269 333
#
# _framework density 19.349176
#
# number of rings (size 3 to 8) (size 9 to 14) (size 15 to 20)
#    0.000    2.143    1.429    1.714    4.000    8.286 
#    0.000    0.000    0.000    2.571    0.000    4.000 
#    0.000    1.143    0.000    0.000    0.000    0.000 
#
# Total GULP energy -312034.220161 kJ/mol
# GULP energy per Si atom -5572.039646 kJ/mol
# Density = 1.930514 g / cm^3
# Si number density = 19.349176 Si / 1000 Ang^3
#
#
#
# Elastic Constant Matrix: (Units=GPa)
#
#
# Indices 1 2 3 4 5 6 
#
# 1 86.0324 72.2272 3.6832 0.0000 0.0000 0.0000
# 2 72.2272 86.0334 3.6821 0.0000 0.0000 0.0000
# 3 3.6832 3.6821 34.3803 0.0000 0.0000 0.0000
# 4 0.0000 0.0000 0.0000 11.1991 0.0000 0.0000
# 5 0.0000 0.0000 0.0000 0.0000 11.1994 0.0000
# 6 0.0000 0.0000 0.0000 0.0000 0.0000 32.5165
#
#
#
# Elastic Compliance Matrix: (Units=1/GPa)
#
#
# Indices 1 2 3 4 5 6 
#
# 1 0.039392 -0.033042 -0.000681 0.000000 0.000000 0.000000
# 2 -0.033042 0.039392 -0.000679 0.000000 0.000000 0.000000
# 3 -0.000681 -0.000679 0.029232 0.000000 0.000000 0.000000
# 4 0.000000 0.000000 0.000000 0.089293 0.000000 0.000000
# 5 0.000000 0.000000 0.000000 0.000000 0.089290 0.000000
# 6 0.000000 0.000000 0.000000 0.000000 0.000000 0.030754
#
#
# Mechanical properties :
#
#
# Convention : Reuss Voigt Hill
#
# Bulk Modulus (GPa) = 25.50241 40.62567 33.06404
# Shear Modulus (GPa) = 12.52416 19.43991 15.98203
#
# Velocity S-wave (km/s) = 2.54691 3.17312 2.87710
# Velocity P-wave (km/s) = 4.67522 5.87083 5.30680
#
# Compressibility (1/GPa) = 0.03921198
#
# Stress axis : x y z
#
# Youngs Moduli (GPa) = 25.38564 25.38601 34.20896
#
# Poissons Ratio (x) = 0.83880 0.02331
# Poissons Ratio (y) = 0.83878 0.02323
# Poissons Ratio (z) = 0.01730 0.01724
#
# Static dielectric constant tensor:
#      x y z
#    x 1.663460 0.000000 0.000000 
#    y 0.000000 1.663460 0.000000 
#    z 0.000000 0.000000 1.700350 
# 
# From -- ./inp_files/7556.got.cif
#   From: 2010.05.17/outbox.cif.g08.bks.cpg/sg139_4_cif.got.tgz:7556.got - 2010.05.20 13:14:44.
