data_PCOD9571538
_publ_section_title
;
Structure prediction by ZEFSAII (Michael W. Deem and Ramdas Pophale) SiO2 
 PCOD9571538
Probable space group: I 4/M M M
;
_chemical_formula_sum "Si O2"
_cell_formula_units_Z 160
_cell_length_a 18.763603
_cell_length_b 18.763603
_cell_length_c 23.262505
_cell_angle_alpha 90.000000
_cell_angle_beta 90.000000
_cell_angle_gamma 90.000000
_cell_volume 8190.095213
_symmetry_space_group_name_H-M "I 4/M M M"
_symmetry_group_IT_number 139
_symmetry_cell_setting 'tetragonal'
loop_
_space_group_symop_operation_xyz
x,y,z
-y,x,z
-x,-y,z
y,-x,z
x,-y,-z
-x,y,-z
y,x,-z
-y,-x,-z
-x,-y,-z
y,-x,-z
x,y,-z
-y,x,-z
-x,y,z
x,-y,z
-y,-x,z
y,x,z
1/2+x,1/2+y,1/2+z
1/2-y,1/2+x,1/2+z
1/2-x,1/2-y,1/2+z
1/2+y,1/2-x,1/2+z
1/2+x,1/2-y,1/2-z
1/2-x,1/2+y,1/2-z
1/2+y,1/2+x,1/2-z
1/2-y,1/2-x,1/2-z
1/2-x,1/2-y,1/2-z
1/2+y,1/2-x,1/2-z
1/2+x,1/2+y,1/2-z
1/2-y,1/2+x,1/2-z
1/2-x,1/2+y,1/2+z
1/2+x,1/2-y,1/2+z
1/2-y,1/2-x,1/2+z
1/2+y,1/2+x,1/2+z
loop_
_atom_site_type_symbol
_atom_site_label
_atom_site_fract_x
_atom_site_fract_y
_atom_site_fract_z
Si Si1 0.078926 0.653615 0.294421
Si Si2 0.694443 0.581113 0.569111
Si Si3 0.807187 0.309916 0.889505
Si Si4 0.805391 0.081894 0.585771
Si Si5 0.078079 0.809727 0.726260
O O1 0.090709 0.590709 0.250000
O O2 0.140605 0.658323 0.341075
O O3 0.085326 0.727285 0.258418
O O4 0.000000 0.653163 0.320642
O O5 0.689468 0.577153 0.500000
O O6 0.699777 0.500000 0.591301
O O7 0.624724 0.624724 0.589979
O O8 0.762043 0.631410 0.582774
O O9 0.746167 0.253834 0.868120
O O10 0.761514 0.366500 0.927609
O O11 0.876827 0.123174 0.567120
O O12 0.808436 0.080295 0.656099
O O13 0.799723 0.000000 0.567071
O O14 0.140886 0.859115 0.747838
O O15 0.000000 0.836300 0.743230
#
# Coordination Sequence:
#
# PCOD9571538 Si02
#       5
#    32  32  32  32  32
#     4  10  20  32  46  65  90 123 165 210 251 289
#     4   9  18  33  54  80 106 129 155 189 232 287
#     4   9  17  30  50  73  97 128 162 197 240 290
#     4   8  13  22  38  61  89 121 156 194 238 285
#     4   8  14  24  38  58  83 110 142 182 229 281
#
# _framework density 19.535792000000001
#
# number of rings (size 3 to 8) (size 9 to 14) (size 15 to 20)
#    0.000    3.200    0.000    3.600    0.000    3.200 
#    0.000    3.000    0.000    4.200    0.000    5.600 
#    0.000    3.200    0.000    8.200    0.000    6.400 
#
# Total GULP energy -445441.524502 kJ/mol
# GULP energy per Si atom -5568.019056 kJ/mol
# Density = 1.949133 g / cm^3
# Si number density = 19.535792 Si / 1000 Ang^3
#
#
#
# Elastic Constant Matrix: (Units=GPa)
#
#
# Indices 1 2 3 4 5 6 
#
# 1 135.9225 68.9200 17.1819 0.0000 0.0000 0.0000
# 2 68.9200 135.9225 17.1819 0.0000 0.0000 0.0000
# 3 17.1819 17.1819 25.2059 0.0000 0.0000 0.0000
# 4 0.0000 0.0000 0.0000 2.5594 0.0000 0.0000
# 5 0.0000 0.0000 0.0000 0.0000 2.5594 0.0000
# 6 0.0000 0.0000 0.0000 0.0000 0.0000 16.0815
#
#
#
# Elastic Compliance Matrix: (Units=1/GPa)
#
#
# Indices 1 2 3 4 5 6 
#
# 1 0.010218 -0.004706 -0.003757 0.000000 0.000000 0.000000
# 2 -0.004706 0.010218 -0.003757 0.000000 0.000000 0.000000
# 3 -0.003757 -0.003757 0.044796 0.000000 0.000000 0.000000
# 4 0.000000 0.000000 0.000000 0.390723 0.000000 0.000000
# 5 0.000000 0.000000 0.000000 0.000000 0.390723 0.000000
# 6 0.000000 0.000000 0.000000 0.000000 0.000000 0.062183
#
#
# Mechanical properties :
#
#
# Convention : Reuss Voigt Hill
#
# Bulk Modulus (GPa) = 24.51552 55.95760 40.23656
# Shear Modulus (GPa) = 5.28038 17.15785 11.21912
#
# Velocity S-wave (km/s) = 1.64584 2.96679 2.39902
# Velocity P-wave (km/s) = 4.02343 6.35937 5.32117
#
# Compressibility (1/GPa) = 0.04079049
#
# Stress axis : x y z
#
# Youngs Moduli (GPa) = 97.86199 97.86199 22.32349
#
# Poissons Ratio (x) = 0.46057 0.08388
# Poissons Ratio (y) = 0.46057 0.08388
# Poissons Ratio (z) = 0.36771 0.36771
#
# Static dielectric constant tensor:
#      x y z
#    x 1.694330 0.000000 0.000000 
#    y 0.000000 1.694330 0.000000 
#    z 0.000000 0.000000 1.728430 
# 
# From -- ./inp_files/14039.got.cif
#   From: 2010.05.17/outbox.cif.g08.bks.cpg/sg139_8_cif.got.tgz:14039.got - 2010.05.20 13:14:44.
