data_PCOD9571220
_publ_section_title
;
Structure prediction by ZEFSAII (Michael W. Deem and Ramdas Pophale) SiO2 
 PCOD9571220
Probable space group: I 4/M M M
;
_chemical_formula_sum "Si O2"
_cell_formula_units_Z 192
_cell_length_a 19.130957
_cell_length_b 19.130957
_cell_length_c 32.454248
_cell_angle_alpha 90.000000
_cell_angle_beta 90.000000
_cell_angle_gamma 90.000000
_cell_volume 11878.044326
_symmetry_space_group_name_H-M "I 4/M M M"
_symmetry_group_IT_number 139
_symmetry_cell_setting 'tetragonal'
loop_
_space_group_symop_operation_xyz
x,y,z
-y,x,z
-x,-y,z
y,-x,z
x,-y,-z
-x,y,-z
y,x,-z
-y,-x,-z
-x,-y,-z
y,-x,-z
x,y,-z
-y,x,-z
-x,y,z
x,-y,z
-y,-x,z
y,x,z
1/2+x,1/2+y,1/2+z
1/2-y,1/2+x,1/2+z
1/2-x,1/2-y,1/2+z
1/2+y,1/2-x,1/2+z
1/2+x,1/2-y,1/2-z
1/2-x,1/2+y,1/2-z
1/2+y,1/2+x,1/2-z
1/2-y,1/2-x,1/2-z
1/2-x,1/2-y,1/2-z
1/2+y,1/2-x,1/2-z
1/2+x,1/2+y,1/2-z
1/2-y,1/2+x,1/2-z
1/2-x,1/2+y,1/2+z
1/2+x,1/2-y,1/2+z
1/2-y,1/2-x,1/2+z
1/2+y,1/2+x,1/2+z
loop_
_atom_site_type_symbol
_atom_site_label
_atom_site_fract_x
_atom_site_fract_y
_atom_site_fract_z
Si Si1 0.081632 0.802658 0.951491
Si Si2 0.801148 0.917637 0.634840
Si Si3 0.654849 0.084345 0.084888
Si Si4 0.582965 0.082965 0.750000
Si Si5 0.302247 0.417406 0.956397
Si Si6 0.083664 0.652266 0.335649
Si Si7 0.420089 0.085459 0.000000
O O1 0.132532 0.867468 0.944208
O O2 0.099953 0.736234 0.923528
O O3 0.000000 0.820330 0.945127
O O4 0.088271 0.782050 0.000000
O O5 0.866201 0.866201 0.641752
O O6 0.771201 0.902947 0.588444
O O7 0.735583 0.905468 0.664199
O O8 0.820847 0.000000 0.636548
O O9 0.623343 0.117957 0.125829
O O10 0.647752 0.000000 0.087880
O O11 0.615367 0.106860 0.042897
O O12 0.500000 0.094499 0.745301
O O13 0.619970 0.105513 0.707926
O O14 0.314493 0.500000 0.957287
O O15 0.374456 0.374456 0.956137
O O16 0.266095 0.398423 0.000000
O O17 0.000000 0.639917 0.341271
O O18 0.500000 0.109317 0.000000
O O19 0.418485 0.000000 0.000000
#
# Coordination Sequence:
#
# PCOD9571220 Si02
#       7
#    32  32  32  16  32  32  16
#     4   9  17  30  47  68  97 132 171 213 252 291
#     4   9  18  32  48  68  95 126 163 206 247 287
#     4  10  18  30  47  69  98 130 162 197 239 290
#     4   9  18  34  55  76  96 120 153 192 238 293
#     4   8  13  22  36  54  79 112 149 189 230 269
#     4  10  20  33  50  73  99 127 160 202 246 290
#     4   9  16  26  41  62  91 127 163 192 221 270
#
# _framework density 16.164276999999998
#
# number of rings (size 3 to 8) (size 9 to 14) (size 15 to 20)
#    0.000    2.833    0.833    1.000    0.000    2.833 
#    1.500    3.750    0.000    0.000    0.000    0.000 
#    0.000    0.000    0.000    8.667    0.000    0.333 
#
# Total GULP energy -534631.640799 kJ/mol
# GULP energy per Si atom -5569.079592 kJ/mol
# Density = 1.612749 g / cm^3
# Si number density = 16.164277 Si / 1000 Ang^3
#
#
#
# Elastic Constant Matrix: (Units=GPa)
#
#
# Indices 1 2 3 4 5 6 
#
# 1 63.6086 52.9745 57.0068 0.0000 0.0000 0.0000
# 2 52.9745 63.6086 57.0068 0.0000 0.0000 0.0000
# 3 57.0068 57.0068 120.6256 0.0000 0.0000 0.0000
# 4 0.0000 0.0000 0.0000 20.1191 0.0000 0.0000
# 5 0.0000 0.0000 0.0000 0.0000 20.1191 0.0000
# 6 0.0000 0.0000 0.0000 0.0000 0.0000 16.4732
#
#
#
# Elastic Compliance Matrix: (Units=1/GPa)
#
#
# Indices 1 2 3 4 5 6 
#
# 1 0.054993 -0.039044 -0.007537 0.000000 0.000000 0.000000
# 2 -0.039044 0.054993 -0.007537 0.000000 0.000000 0.000000
# 3 -0.007537 -0.007537 0.015414 0.000000 0.000000 0.000000
# 4 0.000000 0.000000 0.000000 0.049704 0.000000 0.000000
# 5 0.000000 0.000000 0.000000 0.000000 0.049704 0.000000
# 6 0.000000 0.000000 0.000000 0.000000 0.000000 0.060705
#
#
# Mechanical properties :
#
#
# Convention : Reuss Voigt Hill
#
# Bulk Modulus (GPa) = 58.26614 64.64655 61.45634
# Shear Modulus (GPa) = 12.51654 16.73259 14.62457
#
# Velocity S-wave (km/s) = 2.78570 3.22088 3.01116
# Velocity P-wave (km/s) = 6.81699 7.34250 7.08462
#
# Compressibility (1/GPa) = 0.01716263
#
# Stress axis : x y z
#
# Youngs Moduli (GPa) = 18.18412 18.18412 64.87532
#
# Poissons Ratio (x) = 0.70999 0.48898
# Poissons Ratio (y) = 0.70999 0.48898
# Poissons Ratio (z) = 0.13706 0.13706
#
# Static dielectric constant tensor:
#      x y z
#    x 1.543620 0.000000 0.000000 
#    y 0.000000 1.543620 0.000000 
#    z 0.000000 0.000000 1.550290 
# 
# From -- ./inp_files/13347.got.cif
#   From: 2010.05.17/outbox.cif.g08.bks.cpg/sg139_7_cif.got.tgz:13347.got - 2010.05.20 13:14:44.
