data_PCOD9571413
_publ_section_title
;
Structure prediction by ZEFSAII (Michael W. Deem and Ramdas Pophale) SiO2 
 PCOD9571413
Probable space group: I 4/M M M
;
_chemical_formula_sum "Si O2"
_cell_formula_units_Z 104
_cell_length_a 13.778915
_cell_length_b 13.778915
_cell_length_c 34.687432
_cell_angle_alpha 90.000000
_cell_angle_beta 90.000000
_cell_angle_gamma 90.000000
_cell_volume 6585.703759
_symmetry_space_group_name_H-M "I 4/M M M"
_symmetry_group_IT_number 139
_symmetry_cell_setting 'tetragonal'
loop_
_space_group_symop_operation_xyz
x,y,z
-y,x,z
-x,-y,z
y,-x,z
x,-y,-z
-x,y,-z
y,x,-z
-y,-x,-z
-x,-y,-z
y,-x,-z
x,y,-z
-y,x,-z
-x,y,z
x,-y,z
-y,-x,z
y,x,z
1/2+x,1/2+y,1/2+z
1/2-y,1/2+x,1/2+z
1/2-x,1/2-y,1/2+z
1/2+y,1/2-x,1/2+z
1/2+x,1/2-y,1/2-z
1/2-x,1/2+y,1/2-z
1/2+y,1/2+x,1/2-z
1/2-y,1/2-x,1/2-z
1/2-x,1/2-y,1/2-z
1/2+y,1/2-x,1/2-z
1/2+x,1/2+y,1/2-z
1/2-y,1/2+x,1/2-z
1/2-x,1/2+y,1/2+z
1/2+x,1/2-y,1/2+z
1/2-y,1/2-x,1/2+z
1/2+y,1/2+x,1/2+z
loop_
_atom_site_type_symbol
_atom_site_label
_atom_site_fract_x
_atom_site_fract_y
_atom_site_fract_z
Si Si1 0.114159 0.385842 0.750000
Si Si2 0.387780 0.884540 0.093054
Si Si3 0.275328 0.114661 0.828946
Si Si4 0.254827 0.745174 0.043780
Si Si5 0.113045 0.886956 0.500000
O O1 0.127623 0.500000 0.759082
O O2 0.137014 0.322812 0.787554
O O3 0.500000 0.853269 0.087063
O O4 0.353534 0.868622 0.137102
O O5 0.309431 0.829906 0.066551
O O6 0.384061 0.000000 0.085730
O O7 0.182932 0.182932 0.835472
O O8 0.250464 0.000000 0.829776
O O9 0.225339 0.774662 0.000000
O O10 0.336592 0.663409 0.036289
O O11 0.000000 0.868005 0.500000
#
# Coordination Sequence:
#
# PCOD9571413 Si02
#       5
#    16  32  32  16   8
#     4   9  17  30  50  76 103 129 164 208 250 296
#     4  10  20  35  55  78 104 135 173 215 256 302
#     4  10  19  32  50  75 103 135 171 208 252 299
#     4  10  21  34  52  76 103 132 166 214 268 309
#     4   9  18  32  50  74 102 131 164 202 258 325
#
# _framework density 15.791783000000001
#
# number of rings (size 3 to 8) (size 9 to 14) (size 15 to 20)
#    0.462    1.769    1.538    2.308    0.000    4.615 
#    0.000    1.538    0.000    0.462    0.000    1.077 
#    0.000    0.000    0.000    0.000    0.000    0.000 
#
# Total GULP energy -289577.446065 kJ/mol
# GULP energy per Si atom -5568.797040 kJ/mol
# Density = 1.575584 g / cm^3
# Si number density = 15.791783 Si / 1000 Ang^3
#
#
#
# Elastic Constant Matrix: (Units=GPa)
#
#
# Indices 1 2 3 4 5 6 
#
# 1 63.1346 38.9126 38.3120 0.0000 0.0000 0.0000
# 2 38.9126 63.1355 38.3119 0.0000 0.0000 0.0000
# 3 38.3120 38.3119 95.4249 0.0000 0.0000 0.0000
# 4 0.0000 0.0000 0.0000 24.4778 0.0000 0.0000
# 5 0.0000 0.0000 0.0000 0.0000 24.4785 0.0000
# 6 0.0000 0.0000 0.0000 0.0000 0.0000 31.6075
#
#
#
# Elastic Compliance Matrix: (Units=1/GPa)
#
#
# Indices 1 2 3 4 5 6 
#
# 1 0.027656 -0.013628 -0.005632 0.000000 0.000000 0.000000
# 2 -0.013628 0.027656 -0.005632 0.000000 0.000000 0.000000
# 3 -0.005632 -0.005632 0.015002 0.000000 0.000000 0.000000
# 4 0.000000 0.000000 0.000000 0.040853 0.000000 0.000000
# 5 0.000000 0.000000 0.000000 0.000000 0.040852 0.000000
# 6 0.000000 0.000000 0.000000 0.000000 0.000000 0.031638
#
#
# Mechanical properties :
#
#
# Convention : Reuss Voigt Hill
#
# Bulk Modulus (GPa) = 48.70959 50.30756 49.50858
# Shear Modulus (GPa) = 20.80856 23.19000 21.99928
#
# Velocity S-wave (km/s) = 3.63393 3.83624 3.73645
# Velocity P-wave (km/s) = 6.96557 7.17971 7.07345
#
# Compressibility (1/GPa) = 0.02052984
#
# Stress axis : x y z
#
# Youngs Moduli (GPa) = 36.15792 36.15866 66.65790
#
# Poissons Ratio (x) = 0.49276 0.37544
# Poissons Ratio (y) = 0.49275 0.37542
# Poissons Ratio (z) = 0.20365 0.20365
#
# Static dielectric constant tensor:
#      x y z
#    x 1.508220 0.000000 0.000000 
#    y 0.000000 1.508220 0.000000 
#    z 0.000000 0.000000 1.537390 
# 
# From -- ./inp_files/13773.got.cif
#   From: 2010.05.17/outbox.cif.g08.bks.cpg/sg139_7_cif.got.tgz:13773.got - 2010.05.20 13:14:44.
