data_PCOD9571737
_publ_section_title
;
Structure prediction by ZEFSAII (Michael W. Deem and Ramdas Pophale) SiO2 
 PCOD9571737
Probable space group: I 4/M M M
;
_chemical_formula_sum "Si O2"
_cell_formula_units_Z 96
_cell_length_a 13.881068
_cell_length_b 13.881068
_cell_length_c 27.436133
_cell_angle_alpha 90.000000
_cell_angle_beta 90.000000
_cell_angle_gamma 90.000000
_cell_volume 5286.505190
_symmetry_space_group_name_H-M "I 4/M M M"
_symmetry_group_IT_number 139
_symmetry_cell_setting 'tetragonal'
loop_
_space_group_symop_operation_xyz
x,y,z
-y,x,z
-x,-y,z
y,-x,z
x,-y,-z
-x,y,-z
y,x,-z
-y,-x,-z
-x,-y,-z
y,-x,-z
x,y,-z
-y,x,-z
-x,y,z
x,-y,z
-y,-x,z
y,x,z
1/2+x,1/2+y,1/2+z
1/2-y,1/2+x,1/2+z
1/2-x,1/2-y,1/2+z
1/2+y,1/2-x,1/2+z
1/2+x,1/2-y,1/2-z
1/2-x,1/2+y,1/2-z
1/2+y,1/2+x,1/2-z
1/2-y,1/2-x,1/2-z
1/2-x,1/2-y,1/2-z
1/2+y,1/2-x,1/2-z
1/2+x,1/2+y,1/2-z
1/2-y,1/2+x,1/2-z
1/2-x,1/2+y,1/2+z
1/2+x,1/2-y,1/2+z
1/2-y,1/2-x,1/2+z
1/2+y,1/2+x,1/2+z
loop_
_atom_site_type_symbol
_atom_site_label
_atom_site_fract_x
_atom_site_fract_y
_atom_site_fract_z
Si Si1 0.393742 0.606259 0.440874
Si Si2 0.728797 0.888646 0.790546
Si Si3 0.262405 0.262405 0.057995
Si Si4 0.885875 0.390970 0.607846
O O1 0.369251 0.500000 0.423305
O O2 0.396452 0.603548 0.500000
O O3 0.317015 0.682986 0.427390
O O4 0.825659 0.825659 0.794479
O O5 0.662068 0.837933 0.750000
O O6 0.671667 0.886162 0.841534
O O7 0.747794 0.000000 0.778179
O O8 0.205715 0.355738 0.078220
O O9 0.271355 0.271355 0.000000
O O10 0.865475 0.500000 0.585930
O O11 0.000000 0.388468 0.616294
#
# Coordination Sequence:
#
# PCOD9571737 Si02
#       4
#    16  32  16  32
#     4   8  14  25  42  65  94 128 164 206 264 332
#     4  10  20  36  60  89 120 153 186 225 277 337
#     4  11  21  34  52  76 107 145 192 240 284 331
#     4  10  21  37  57  83 114 147 187 234 285 341
#
# _framework density 18.159444000000001
#
# number of rings (size 3 to 8) (size 9 to 14) (size 15 to 20)
#    0.000    2.167    1.667    2.500    0.000    4.667 
#    0.000    1.667    0.000    0.500    0.000    1.167 
#    0.000    0.000    0.000    0.000    0.000    0.000 
#
# Total GULP energy -267340.606338 kJ/mol
# GULP energy per Si atom -5569.595965 kJ/mol
# Density = 1.811811 g / cm^3
# Si number density = 18.159444 Si / 1000 Ang^3
#
#
#
# Elastic Constant Matrix: (Units=GPa)
#
#
# Indices 1 2 3 4 5 6 
#
# 1 99.4191 86.4140 29.6158 0.0000 0.0000 0.0000
# 2 86.4140 99.4210 29.6066 0.0000 0.0000 0.0000
# 3 29.6158 29.6066 61.8729 0.0000 0.0000 0.0000
# 4 0.0000 0.0000 0.0000 18.4652 0.0000 0.0000
# 5 0.0000 0.0000 0.0000 0.0000 18.4646 0.0000
# 6 0.0000 0.0000 0.0000 0.0000 0.0000 28.3574
#
#
#
# Elastic Compliance Matrix: (Units=1/GPa)
#
#
# Indices 1 2 3 4 5 6 
#
# 1 0.041621 -0.035269 -0.003046 0.000000 0.000000 0.000000
# 2 -0.035269 0.041616 -0.003032 0.000000 0.000000 0.000000
# 3 -0.003046 -0.003032 0.019071 0.000000 0.000000 0.000000
# 4 0.000000 0.000000 0.000000 0.054156 0.000000 0.000000
# 5 0.000000 0.000000 0.000000 0.000000 0.054158 0.000000
# 6 0.000000 0.000000 0.000000 0.000000 0.000000 0.035264
#
#
# Mechanical properties :
#
#
# Convention : Reuss Voigt Hill
#
# Bulk Modulus (GPa) = 50.98198 61.33175 56.15686
# Shear Modulus (GPa) = 14.92016 20.72919 17.82468
#
# Velocity S-wave (km/s) = 2.86950 3.38229 3.13639
# Velocity P-wave (km/s) = 6.25414 7.00718 6.64134
#
# Compressibility (1/GPa) = 0.01961478
#
# Stress axis : x y z
#
# Youngs Moduli (GPa) = 24.02625 24.02927 52.43626
#
# Poissons Ratio (x) = 0.84749 0.15971
# Poissons Ratio (y) = 0.84738 0.15898
# Poissons Ratio (z) = 0.07318 0.07285
#
# Static dielectric constant tensor:
#      x y z
#    x 1.657110 0.000000 0.000000 
#    y 0.000000 1.657110 0.000000 
#    z 0.000000 0.000000 1.625790 
# 
# From -- ./inp_files/12506.got.cif
#   From: 2010.05.17/outbox.cif.g08.bks.cpg/sg139_7_cif.got.tgz:12506.got - 2010.05.20 13:14:44.
