data_PCOD9571463
_publ_section_title
;
Structure prediction by ZEFSAII (Michael W. Deem and Ramdas Pophale) SiO2 
 PCOD9571463
Probable space group: I 4/M M M
;
_chemical_formula_sum "Si O2"
_cell_formula_units_Z 192
_cell_length_a 18.984009
_cell_length_b 18.984009
_cell_length_c 30.960955
_cell_angle_alpha 90.000000
_cell_angle_beta 90.000000
_cell_angle_gamma 90.000000
_cell_volume 11158.099000
_symmetry_space_group_name_H-M "I 4/M M M"
_symmetry_group_IT_number 139
_symmetry_cell_setting 'tetragonal'
loop_
_space_group_symop_operation_xyz
x,y,z
-y,x,z
-x,-y,z
y,-x,z
x,-y,-z
-x,y,-z
y,x,-z
-y,-x,-z
-x,-y,-z
y,-x,-z
x,y,-z
-y,x,-z
-x,y,z
x,-y,z
-y,-x,z
y,x,z
1/2+x,1/2+y,1/2+z
1/2-y,1/2+x,1/2+z
1/2-x,1/2-y,1/2+z
1/2+y,1/2-x,1/2+z
1/2+x,1/2-y,1/2-z
1/2-x,1/2+y,1/2-z
1/2+y,1/2+x,1/2-z
1/2-y,1/2-x,1/2-z
1/2-x,1/2-y,1/2-z
1/2+y,1/2-x,1/2-z
1/2+x,1/2+y,1/2-z
1/2-y,1/2+x,1/2-z
1/2-x,1/2+y,1/2+z
1/2+x,1/2-y,1/2+z
1/2-y,1/2-x,1/2+z
1/2+y,1/2+x,1/2+z
loop_
_atom_site_type_symbol
_atom_site_label
_atom_site_fract_x
_atom_site_fract_y
_atom_site_fract_z
Si Si1 0.342506 0.774636 0.333230
Si Si2 0.416254 0.300163 0.586511
Si Si3 0.919419 0.803430 0.572816
Si Si4 0.416602 0.788342 0.500000
Si Si5 0.697730 0.417973 0.256602
Si Si6 0.581459 0.186727 0.000000
Si Si7 0.419783 0.771371 0.835897
O O1 0.268226 0.731775 0.333681
O O2 0.387472 0.744991 0.373194
O O3 0.382132 0.752601 0.289484
O O4 0.327678 0.857189 0.336519
O O5 0.500000 0.310944 0.589715
O O6 0.372751 0.372751 0.586290
O O7 0.400631 0.257517 0.542576
O O8 0.863924 0.863924 0.562926
O O9 0.908378 0.736877 0.541539
O O10 0.911556 0.777503 0.622022
O O11 0.000000 0.827487 0.566352
O O12 0.500000 0.802890 0.500000
O O13 0.373437 0.860442 0.500000
O O14 0.688424 0.500000 0.267104
O O15 0.625971 0.374030 0.260895
O O16 0.726756 0.412215 0.207983
O O17 0.500000 0.161944 0.000000
O O18 0.500000 0.800053 0.836987
#
# Coordination Sequence:
#
# PCOD9571463 Si02
#       7
#    32  32  32  16  32  16  32
#     4  10  19  33  54  76 101 135 172 211 254 299
#     4  10  21  36  55  80 107 136 170 208 253 305
#     4  10  20  33  50  74 103 134 169 207 248 297
#     4  10  21  36  54  78 106 134 169 210 252 304
#     4  10  20  33  51  76 104 135 171 210 254 305
#     4  10  21  36  54  76 102 134 173 216 258 298
#     4  10  20  33  51  76 103 131 169 214 256 301
#
# _framework density 17.207232999999999
#
# number of rings (size 3 to 8) (size 9 to 14) (size 15 to 20)
#    0.000    2.000    0.000    4.000    0.000    4.667 
#    0.000    0.000    0.000   12.000    0.000    4.667 
#    0.000    0.000    0.000    0.000    0.000    0.000 
#
# Total GULP energy -535961.442106 kJ/mol
# GULP energy per Si atom -5582.931689 kJ/mol
# Density = 1.716807 g / cm^3
# Si number density = 17.207233 Si / 1000 Ang^3
#
#
#
# Elastic Constant Matrix: (Units=GPa)
#
#
# Indices 1 2 3 4 5 6 
#
# 1 105.9118 69.2499 19.1209 0.0000 0.0000 0.0000
# 2 69.2499 105.9118 19.1209 0.0000 0.0000 0.0000
# 3 19.1209 19.1209 66.4683 0.0000 0.0000 0.0000
# 4 0.0000 0.0000 0.0000 13.5990 0.0000 0.0000
# 5 0.0000 0.0000 0.0000 0.0000 13.5990 0.0000
# 6 0.0000 0.0000 0.0000 0.0000 0.0000 61.1666
#
#
#
# Elastic Compliance Matrix: (Units=1/GPa)
#
#
# Indices 1 2 3 4 5 6 
#
# 1 0.016684 -0.010592 -0.001752 0.000000 0.000000 0.000000
# 2 -0.010592 0.016684 -0.001752 0.000000 0.000000 0.000000
# 3 -0.001752 -0.001752 0.016053 0.000000 0.000000 0.000000
# 4 0.000000 0.000000 0.000000 0.073535 0.000000 0.000000
# 5 0.000000 0.000000 0.000000 0.000000 0.073535 0.000000
# 6 0.000000 0.000000 0.000000 0.000000 0.000000 0.016349
#
#
# Mechanical properties :
#
#
# Convention : Reuss Voigt Hill
#
# Bulk Modulus (GPa) = 47.11050 54.80837 50.95944
# Shear Modulus (GPa) = 20.15240 29.05958 24.60599
#
# Velocity S-wave (km/s) = 3.42593 4.11396 3.78561
# Velocity P-wave (km/s) = 6.56408 7.38155 6.98478
#
# Compressibility (1/GPa) = 0.02122669
#
# Stress axis : x y z
#
# Youngs Moduli (GPa) = 59.93796 59.93796 62.29377
#
# Poissons Ratio (x) = 0.63488 0.10916
# Poissons Ratio (y) = 0.63488 0.10916
# Poissons Ratio (z) = 0.10503 0.10503
#
# Static dielectric constant tensor:
#      x y z
#    x 1.559290 0.000000 0.000000 
#    y 0.000000 1.559290 0.000000 
#    z 0.000000 0.000000 1.588520 
# 
# From -- ./inp_files/14348.got.cif
#   From: 2010.05.17/outbox.cif.g08.bks.cpg/sg139_8_cif.got.tgz:14348.got - 2010.05.20 13:14:44.
