data_PCOD9571587
_publ_section_title
;
Structure prediction by ZEFSAII (Michael W. Deem and Ramdas Pophale) SiO2 
 PCOD9571587
Probable space group: I 4/M M M
;
_chemical_formula_sum "Si O2"
_cell_formula_units_Z 176
_cell_length_a 18.540955
_cell_length_b 18.540955
_cell_length_c 27.468579
_cell_angle_alpha 90.000000
_cell_angle_beta 90.000000
_cell_angle_gamma 90.000000
_cell_volume 9442.791335
_symmetry_space_group_name_H-M "I 4/M M M"
_symmetry_group_IT_number 139
_symmetry_cell_setting 'tetragonal'
loop_
_space_group_symop_operation_xyz
x,y,z
-y,x,z
-x,-y,z
y,-x,z
x,-y,-z
-x,y,-z
y,x,-z
-y,-x,-z
-x,-y,-z
y,-x,-z
x,y,-z
-y,x,-z
-x,y,z
x,-y,z
-y,-x,z
y,x,z
1/2+x,1/2+y,1/2+z
1/2-y,1/2+x,1/2+z
1/2-x,1/2-y,1/2+z
1/2+y,1/2-x,1/2+z
1/2+x,1/2-y,1/2-z
1/2-x,1/2+y,1/2-z
1/2+y,1/2+x,1/2-z
1/2-y,1/2-x,1/2-z
1/2-x,1/2-y,1/2-z
1/2+y,1/2-x,1/2-z
1/2+x,1/2+y,1/2-z
1/2-y,1/2+x,1/2-z
1/2-x,1/2+y,1/2+z
1/2+x,1/2-y,1/2+z
1/2-y,1/2-x,1/2+z
1/2+y,1/2+x,1/2+z
loop_
_atom_site_type_symbol
_atom_site_label
_atom_site_fract_x
_atom_site_fract_y
_atom_site_fract_z
Si Si1 0.151972 0.580357 0.794526
Si Si2 0.229650 0.657622 0.348024
Si Si3 0.697249 0.580402 0.737480
Si Si4 0.337966 0.851861 0.942274
Si Si5 0.000000 0.420099 0.058594
Si Si6 0.417419 0.299784 0.058969
O O1 0.139749 0.500000 0.814345
O O2 0.097659 0.597659 0.750000
O O3 0.149099 0.647218 0.831024
O O4 0.231579 0.583358 0.770727
O O5 0.265050 0.734951 0.335167
O O6 0.275294 0.600898 0.316715
O O7 0.229191 0.649418 0.405850
O O8 0.667646 0.500000 0.738877
O O9 0.639451 0.639451 0.752796
O O10 0.379823 0.925734 0.930352
O O11 0.384780 0.779631 0.931640
O O12 0.321517 0.850676 0.000000
O O13 0.000000 0.500000 0.080104
O O14 0.000000 0.426081 0.000000
O O15 0.500000 0.306583 0.077001
O O16 0.361888 0.361888 0.076417
O O17 0.420213 0.306053 0.000000
#
# Coordination Sequence:
#
# PCOD9571587 Si02
#       6
#    32  32  32  32  16  32
#     4   9  18  33  52  75 106 137 171 207 248 302
#     4  10  20  33  52  75 103 138 174 210 254 308
#     4   9  18  33  54  77 102 130 162 207 256 309
#     4  10  20  33  50  71 100 136 176 222 263 304
#     4   9  18  32  48  66  92 128 167 213 267 315
#     4   9  17  29  45  65  91 124 163 208 253 295
#
# _framework density 18.638556999999999
#
# number of rings (size 3 to 8) (size 9 to 14) (size 15 to 20)
#    0.000    2.636    0.000    1.636    1.273    7.455 
#    0.000    0.909    0.000    0.000    0.000    0.000 
#    0.000    4.364    0.000    4.182    0.000    0.000 
#
# Total GULP energy -490445.027007 kJ/mol
# GULP energy per Si atom -5573.238943 kJ/mol
# Density = 1.859614 g / cm^3
# Si number density = 18.638557 Si / 1000 Ang^3
#
#
#
# Elastic Constant Matrix: (Units=GPa)
#
#
# Indices 1 2 3 4 5 6 
#
# 1 63.8934 16.6589 -6.7872 0.0000 0.0000 0.0000
# 2 16.6589 63.8934 -6.7872 0.0000 0.0000 0.0000
# 3 -6.7872 -6.7872 30.0657 0.0000 0.0000 0.0000
# 4 0.0000 0.0000 0.0000 10.0643 0.0000 0.0000
# 5 0.0000 0.0000 0.0000 0.0000 10.0643 0.0000
# 6 0.0000 0.0000 0.0000 0.0000 0.0000 7.5638
#
#
#
# Elastic Compliance Matrix: (Units=1/GPa)
#
#
# Indices 1 2 3 4 5 6 
#
# 1 0.017038 -0.004133 0.002913 0.000000 0.000000 0.000000
# 2 -0.004133 0.017038 0.002913 0.000000 0.000000 0.000000
# 3 0.002913 0.002913 0.034576 0.000000 0.000000 0.000000
# 4 0.000000 0.000000 0.000000 0.099361 0.000000 0.000000
# 5 0.000000 0.000000 0.000000 0.000000 0.099361 0.000000
# 6 0.000000 0.000000 0.000000 0.000000 0.000000 0.132209
#
#
# Mechanical properties :
#
#
# Convention : Reuss Voigt Hill
#
# Bulk Modulus (GPa) = 13.88126 18.22460 16.05293
# Shear Modulus (GPa) = 11.89885 15.85635 13.87760
#
# Velocity S-wave (km/s) = 2.52940 2.91989 2.73163
# Velocity P-wave (km/s) = 3.99928 4.60074 4.31051
#
# Compressibility (1/GPa) = 0.07203956
#
# Stress axis : x y z
#
# Youngs Moduli (GPa) = 58.69196 58.69196 28.92192
#
# Poissons Ratio (x) = 0.24257 -0.08426
# Poissons Ratio (y) = 0.24257 -0.08426
# Poissons Ratio (z) = -0.17099 -0.17099
#
# Static dielectric constant tensor:
#      x y z
#    x 1.675620 0.000000 0.000000 
#    y 0.000000 1.675620 0.000000 
#    z 0.000000 0.000000 1.663410 
# 
# From -- ./inp_files/13093.got.cif
#   From: 2010.05.17/outbox.cif.g08.bks.cpg/sg139_7_cif.got.tgz:13093.got - 2010.05.20 13:14:44.
