data_PCOD9571953
_publ_section_title
;
Structure prediction by ZEFSAII (Michael W. Deem and Ramdas Pophale) SiO2 
 PCOD9571953
Probable space group: I 4/M M M
;
_chemical_formula_sum "Si O2"
_cell_formula_units_Z 168
_cell_length_a 24.455042
_cell_length_b 24.455042
_cell_length_c 14.495057
_cell_angle_alpha 90.000000
_cell_angle_beta 90.000000
_cell_angle_gamma 90.000000
_cell_volume 8668.755492
_symmetry_space_group_name_H-M "I 4/M M M"
_symmetry_group_IT_number 139
_symmetry_cell_setting 'tetragonal'
loop_
_space_group_symop_operation_xyz
x,y,z
-y,x,z
-x,-y,z
y,-x,z
x,-y,-z
-x,y,-z
y,x,-z
-y,-x,-z
-x,-y,-z
y,-x,-z
x,y,-z
-y,x,-z
-x,y,z
x,-y,z
-y,-x,z
y,x,z
1/2+x,1/2+y,1/2+z
1/2-y,1/2+x,1/2+z
1/2-x,1/2-y,1/2+z
1/2+y,1/2-x,1/2+z
1/2+x,1/2-y,1/2-z
1/2-x,1/2+y,1/2-z
1/2+y,1/2+x,1/2-z
1/2-y,1/2-x,1/2-z
1/2-x,1/2-y,1/2-z
1/2+y,1/2-x,1/2-z
1/2+x,1/2+y,1/2-z
1/2-y,1/2+x,1/2-z
1/2-x,1/2+y,1/2+z
1/2+x,1/2-y,1/2+z
1/2-y,1/2-x,1/2+z
1/2+y,1/2+x,1/2+z
loop_
_atom_site_type_symbol
_atom_site_label
_atom_site_fract_x
_atom_site_fract_y
_atom_site_fract_z
Si Si1 0.134592 0.230932 0.000000
Si Si2 0.565298 0.939818 0.894221
Si Si3 0.435954 0.435954 0.898769
Si Si4 0.828745 0.603346 0.807483
Si Si5 0.771701 0.934610 0.189798
Si Si6 0.136388 0.863613 0.295138
Si Si7 0.327138 0.672863 0.000000
Si Si8 0.700447 0.845984 0.500000
O O1 0.094762 0.230527 0.089654
O O2 0.180122 0.180122 0.000000
O O3 0.166266 0.289354 0.000000
O O4 0.500000 0.942978 0.898957
O O5 0.578312 0.887759 0.832976
O O6 0.585138 0.000000 0.861997
O O7 0.585826 0.932126 0.000000
O O8 0.500000 0.425819 0.896795
O O9 0.409163 0.409163 0.811687
O O10 0.416587 0.416587 0.000000
O O11 0.841850 0.658151 0.750000
O O12 0.785812 0.570039 0.745939
O O13 0.808427 0.619234 0.907995
O O14 0.814088 0.894864 0.244648
O O15 0.785862 0.000000 0.184965
O O16 0.152653 0.847348 0.399428
O O17 0.334529 0.736665 0.000000
#
# Coordination Sequence:
#
# PCOD9571953 Si02
#       8
#    16  32  16  32  32  16   8  16
#     4  12  25  49  76  97 133 181 239 304 354 414
#     4   9  19  37  60  86 124 178 230 275 331 398
#     4   9  18  34  58  89 130 182 228 266 326 417
#     4  12  24  41  64  97 137 174 225 283 349 416
#     4  12  27  45  71 106 141 183 234 294 359 426
#     4  12  23  42  65 101 144 181 225 281 358 428
#     4  12  24  40  70 101 140 176 230 279 342 442
#     4  12  24  43  67  99 135 174 224 282 343 419
#
# _framework density 19.379944999999999
#
# number of rings (size 3 to 8) (size 9 to 14) (size 15 to 20)
#    0.000    0.857    6.667    2.286    0.000    1.524 
#    0.000    4.762    0.000    0.000    0.000    0.667 
#    0.000    0.000    0.000    0.000    0.000    0.000 
#
# Total GULP energy -467982.758958 kJ/mol
# GULP energy per Si atom -5571.223321 kJ/mol
# Density = 1.933583 g / cm^3
# Si number density = 19.379945 Si / 1000 Ang^3
#
#
#
# Elastic Constant Matrix: (Units=GPa)
#
#
# Indices 1 2 3 4 5 6 
#
# 1 108.8914 47.2756 65.6040 0.0000 0.0000 0.0000
# 2 47.2756 108.8905 65.6044 0.0000 0.0000 0.0000
# 3 65.6040 65.6044 163.1223 0.0000 0.0000 0.0000
# 4 0.0000 0.0000 0.0000 27.0355 0.0000 0.0000
# 5 0.0000 0.0000 0.0000 0.0000 27.0340 0.0000
# 6 0.0000 0.0000 0.0000 0.0000 0.0000 34.8862
#
#
#
# Elastic Compliance Matrix: (Units=1/GPa)
#
#
# Indices 1 2 3 4 5 6 
#
# 1 0.012950 -0.003279 -0.003890 0.000000 0.000000 0.000000
# 2 -0.003279 0.012951 -0.003890 0.000000 0.000000 0.000000
# 3 -0.003890 -0.003890 0.009259 0.000000 0.000000 0.000000
# 4 0.000000 0.000000 0.000000 0.036988 0.000000 0.000000
# 5 0.000000 0.000000 0.000000 0.000000 0.036990 0.000000
# 6 0.000000 0.000000 0.000000 0.000000 0.000000 0.028665
#
#
# Mechanical properties :
#
#
# Convention : Reuss Voigt Hill
#
# Bulk Modulus (GPa) = 76.66753 81.98580 79.32667
# Shear Modulus (GPa) = 30.43803 31.28584 30.86193
#
# Velocity S-wave (km/s) = 3.96737 4.02224 3.99490
# Velocity P-wave (km/s) = 7.78671 7.99797 7.89305
#
# Compressibility (1/GPa) = 0.01304333
#
# Stress axis : x y z
#
# Youngs Moduli (GPa) = 77.21727 77.21608 108.00286
#
# Poissons Ratio (x) = 0.25320 0.42008
# Poissons Ratio (y) = 0.25321 0.42010
# Poissons Ratio (z) = 0.30034 0.30035
#
# Static dielectric constant tensor:
#      x y z
#    x 1.678240 0.000000 0.000000 
#    y 0.000000 1.678250 0.000000 
#    z 0.000000 0.000000 1.713130 
# 
# From -- ./inp_files/6208.got.cif
#   From: 2010.05.17/outbox.cif.g08.bks.cpg/sg139_4_cif.got.tgz:6208.got - 2010.05.20 13:14:44.
