data_PCOD9571186
_publ_section_title
;
Structure prediction by ZEFSAII (Michael W. Deem and Ramdas Pophale) SiO2 
 PCOD9571186
Probable space group: I 4/M M M
;
_chemical_formula_sum "Si O2"
_cell_formula_units_Z 192
_cell_length_a 31.904944
_cell_length_b 31.904944
_cell_length_c 14.999563
_cell_angle_alpha 90.000000
_cell_angle_beta 90.000000
_cell_angle_gamma 90.000000
_cell_volume 15268.436941
_symmetry_space_group_name_H-M "I 4/M M M"
_symmetry_group_IT_number 139
_symmetry_cell_setting 'tetragonal'
loop_
_space_group_symop_operation_xyz
x,y,z
-y,x,z
-x,-y,z
y,-x,z
x,-y,-z
-x,y,-z
y,x,-z
-y,-x,-z
-x,-y,-z
y,-x,-z
x,y,-z
-y,x,-z
-x,y,z
x,-y,z
-y,-x,z
y,x,z
1/2+x,1/2+y,1/2+z
1/2-y,1/2+x,1/2+z
1/2-x,1/2-y,1/2+z
1/2+y,1/2-x,1/2+z
1/2+x,1/2-y,1/2-z
1/2-x,1/2+y,1/2-z
1/2+y,1/2+x,1/2-z
1/2-y,1/2-x,1/2-z
1/2-x,1/2-y,1/2-z
1/2+y,1/2-x,1/2-z
1/2+x,1/2+y,1/2-z
1/2-y,1/2+x,1/2-z
1/2-x,1/2+y,1/2+z
1/2+x,1/2-y,1/2+z
1/2-y,1/2-x,1/2+z
1/2+y,1/2+x,1/2+z
loop_
_atom_site_type_symbol
_atom_site_label
_atom_site_fract_x
_atom_site_fract_y
_atom_site_fract_z
Si Si1 0.759542 0.309182 0.000000
Si Si2 0.049037 0.310964 0.669736
Si Si3 0.302458 0.762016 0.663240
Si Si4 0.123046 0.685353 0.192800
Si Si5 0.118686 0.643276 0.000000
Si Si6 0.599338 0.790011 0.000000
Si Si7 0.545849 0.091302 0.824220
Si Si8 0.426929 0.048830 0.000000
O O1 0.785434 0.291393 0.083945
O O2 0.760524 0.359472 0.000000
O O3 0.714655 0.285345 0.000000
O O4 0.079805 0.307938 0.754667
O O5 0.070728 0.286771 0.587883
O O6 0.049746 0.360662 0.646078
O O7 0.000000 0.299952 0.683830
O O8 0.284561 0.715440 0.646700
O O9 0.279645 0.779645 0.750000
O O10 0.350811 0.771623 0.680619
O O11 0.152890 0.652890 0.250000
O O12 0.117133 0.667895 0.093317
O O13 0.162948 0.618808 0.000000
O O14 0.078733 0.613248 0.000000
O O15 0.500000 0.085914 0.781901
O O16 0.579810 0.079810 0.750000
O O17 0.549402 0.061982 0.909976
O O18 0.417394 0.000000 0.000000
#
# Coordination Sequence:
#
# PCOD9571186 Si02
#       8
#    16  32  32  32  16  16  32  16
#     4  10  18  27  44  71  90 104 125 152 192 253
#     4  11  22  33  47  61  75 100 138 171 199 244
#     4   9  16  25  39  62  85 104 124 147 185 244
#     4  11  18  30  46  61  80 104 127 160 207 247
#     4  12  20  30  47  61  73 103 129 148 203 262
#     4  12  17  33  50  61  83 104 127 161 202 247
#     4  11  22  34  44  54  66  83 113 155 200 249
#     4  12  23  33  43  54  68  85 114 155 191 240
#
# _framework density 12.574961
#
# number of rings (size 3 to 8) (size 9 to 14) (size 15 to 20)
#    0.000    1.167    5.000    3.500    0.000    4.833 
#    0.000    0.000    0.000    0.000    0.000    0.000 
#    0.000    0.000    0.000    0.000    0.000    0.000 
#
# Total GULP energy -535164.232197 kJ/mol
# GULP energy per Si atom -5574.627419 kJ/mol
# Density = 1.254634 g / cm^3
# Si number density = 12.574961 Si / 1000 Ang^3
#
#
#
# Elastic Constant Matrix: (Units=GPa)
#
#
# Indices 1 2 3 4 5 6 
#
# 1 58.3832 45.1981 18.2193 0.0000 0.0000 0.0000
# 2 45.1981 58.3837 18.2195 0.0000 0.0000 0.0000
# 3 18.2193 18.2195 85.4508 0.0000 0.0000 0.0000
# 4 0.0000 0.0000 0.0000 15.8738 0.0000 0.0000
# 5 0.0000 0.0000 0.0000 0.0000 15.8751 0.0000
# 6 0.0000 0.0000 0.0000 0.0000 0.0000 16.4917
#
#
#
# Elastic Compliance Matrix: (Units=1/GPa)
#
#
# Indices 1 2 3 4 5 6 
#
# 1 0.043140 -0.032703 -0.002225 0.000000 0.000000 0.000000
# 2 -0.032703 0.043139 -0.002225 0.000000 0.000000 0.000000
# 3 -0.002225 -0.002225 0.012652 0.000000 0.000000 0.000000
# 4 0.000000 0.000000 0.000000 0.062997 0.000000 0.000000
# 5 0.000000 0.000000 0.000000 0.000000 0.062992 0.000000
# 6 0.000000 0.000000 0.000000 0.000000 0.000000 0.060637
#
#
# Mechanical properties :
#
#
# Convention : Reuss Voigt Hill
#
# Bulk Modulus (GPa) = 40.61017 40.61018 40.61017
# Shear Modulus (GPa) = 13.58434 17.68682 15.63558
#
# Velocity S-wave (km/s) = 3.29031 3.75442 3.53000
# Velocity P-wave (km/s) = 6.84101 7.15254 6.99851
#
# Compressibility (1/GPa) = 0.02462437
#
# Stress axis : x y z
#
# Youngs Moduli (GPa) = 23.18046 23.18065 79.04143
#
# Poissons Ratio (x) = 0.75807 0.17589
# Poissons Ratio (y) = 0.75806 0.17590
# Poissons Ratio (z) = 0.05158 0.05159
#
# Static dielectric constant tensor:
#      x y z
#    x 1.423480 0.000000 0.000000 
#    y 0.000000 1.423480 0.000000 
#    z 0.000000 0.000000 1.431010 
# 
# From -- ./inp_files/6739.got.cif
#   From: 2010.05.17/outbox.cif.g08.bks.cpg/sg139_4_cif.got.tgz:6739.got - 2010.05.20 13:14:44.
