data_PCOD9571151
_publ_section_title
;
Structure prediction by ZEFSAII (Michael W. Deem and Ramdas Pophale) SiO2 
 PCOD9571151
Probable space group: I 4/M M M
;
_chemical_formula_sum "Si O2"
_cell_formula_units_Z 84
_cell_length_a 14.288763
_cell_length_b 14.288763
_cell_length_c 19.085077
_cell_angle_alpha 90.000000
_cell_angle_beta 90.000000
_cell_angle_gamma 90.000000
_cell_volume 3896.576278
_symmetry_space_group_name_H-M "I 4/M M M"
_symmetry_group_IT_number 139
_symmetry_cell_setting 'tetragonal'
loop_
_space_group_symop_operation_xyz
x,y,z
-y,x,z
-x,-y,z
y,-x,z
x,-y,-z
-x,y,-z
y,x,-z
-y,-x,-z
-x,-y,-z
y,-x,-z
x,y,-z
-y,x,-z
-x,y,z
x,-y,z
-y,-x,z
y,x,z
1/2+x,1/2+y,1/2+z
1/2-y,1/2+x,1/2+z
1/2-x,1/2-y,1/2+z
1/2+y,1/2-x,1/2+z
1/2+x,1/2-y,1/2-z
1/2-x,1/2+y,1/2-z
1/2+y,1/2+x,1/2-z
1/2-y,1/2-x,1/2-z
1/2-x,1/2-y,1/2-z
1/2+y,1/2-x,1/2-z
1/2+x,1/2+y,1/2-z
1/2-y,1/2+x,1/2-z
1/2-x,1/2+y,1/2+z
1/2+x,1/2-y,1/2+z
1/2-y,1/2-x,1/2+z
1/2+y,1/2+x,1/2+z
loop_
_atom_site_type_symbol
_atom_site_label
_atom_site_fract_x
_atom_site_fract_y
_atom_site_fract_z
Si Si1 0.640254 0.894045 0.081563
Si Si2 0.862115 0.137886 0.920399
Si Si3 0.260561 0.894343 0.704410
Si Si4 0.500000 0.500000 0.354247
O O1 0.752632 0.882738 0.085820
O O2 0.601435 0.811935 0.129384
O O3 0.615207 0.000000 0.104385
O O4 0.614517 0.884898 0.000000
O O5 0.919219 0.080782 0.864115
O O6 0.890735 0.109266 0.000000
O O7 0.165046 0.834955 0.701267
O O8 0.333442 0.833442 0.750000
O O9 0.247368 0.000000 0.730757
#
# Coordination Sequence:
#
# PCOD9571151 Si02
#       4
#    32  16  32   4
#     4  10  20  35  59  91 128 167 211 260 310 367
#     4  10  17  26  45  79 122 164 201 245 302 362
#     4  11  25  45  69  93 124 164 208 258 315 378
#     4  12  17  24  48  84 128 176 212 248 317 382
#
# _framework density 21.557386000000001
#
# number of rings (size 3 to 8) (size 9 to 14) (size 15 to 20)
#    0.000    1.524    3.810    2.000    0.000    3.810 
#    0.000    1.905    0.000    0.000    0.000    2.667 
#    0.000    0.000    0.000    0.000    0.000    0.000 
#
# Total GULP energy -234436.822720 kJ/mol
# GULP energy per Si atom -5581.829112 kJ/mol
# Density = 2.150832 g / cm^3
# Si number density = 21.557386 Si / 1000 Ang^3
#
#
#
# Elastic Constant Matrix: (Units=GPa)
#
#
# Indices 1 2 3 4 5 6 
#
# 1 154.7489 60.0791 27.6588 0.0000 0.0000 0.0000
# 2 60.0791 154.7486 27.6588 0.0000 0.0000 0.0000
# 3 27.6588 27.6588 53.8623 0.0000 0.0000 0.0000
# 4 0.0000 0.0000 0.0000 -34.9798 0.0000 0.0000
# 5 0.0000 0.0000 0.0000 0.0000 -34.9744 0.0000
# 6 0.0000 0.0000 0.0000 0.0000 0.0000 -47.2984
#
#
#
# Elastic Compliance Matrix: (Units=1/GPa)
#
#
# Indices 1 2 3 4 5 6 
#
# 1 0.007964 -0.002599 -0.002755 0.000000 0.000000 0.000000
# 2 -0.002599 0.007964 -0.002755 0.000000 0.000000 0.000000
# 3 -0.002755 -0.002755 0.021395 0.000000 0.000000 0.000000
# 4 0.000000 0.000000 0.000000 -0.028588 0.000000 0.000000
# 5 0.000000 0.000000 0.000000 0.000000 -0.028592 0.000000
# 6 0.000000 0.000000 0.000000 0.000000 0.000000 -0.021142
#
#
# Mechanical properties :
#
#
# Convention : Reuss Voigt Hill
#
# Bulk Modulus (GPa) = 47.38220 66.01702 56.69961
# Shear Modulus (GPa) = -281.71343 -6.91963 -144.31653
#
# Velocity S-wave (km/s) = -11.44397 -1.79355 -8.19089
# Velocity P-wave (km/s) = 12.35281 5.13821 7.94326
#
# Compressibility (1/GPa) = 0.02110497
#
# Stress axis : x y z
#
# Youngs Moduli (GPa) = 125.57130 125.57104 46.74027
#
# Poissons Ratio (x) = 0.32641 0.12875
# Poissons Ratio (y) = 0.32641 0.12875
# Poissons Ratio (z) = 0.34589 0.34589
#
# Static dielectric constant tensor:
#      x y z
#    x 1.769920 0.000000 0.000000 
#    y 0.000000 1.769920 0.000000 
#    z 0.000000 0.000000 1.855690 
# 
# From -- ./inp_files/9370.got.cif
#   From: 2010.05.17/outbox.cif.g08.bks.cpg/sg139_5_cif.got.tgz:9370.got - 2010.05.20 13:14:44.
