data_PCOD9571994
_publ_section_title
;
Structure prediction by ZEFSAII (Michael W. Deem and Ramdas Pophale) SiO2 
 PCOD9571994
Probable space group: I 4/M C M
;
_chemical_formula_sum "Si O2"
_cell_formula_units_Z 148
_cell_length_a 20.682950
_cell_length_b 20.682950
_cell_length_c 14.211932
_cell_angle_alpha 90.000000
_cell_angle_beta 90.000000
_cell_angle_gamma 90.000000
_cell_volume 6079.643098
_symmetry_space_group_name_H-M "I 4/M C M"
_symmetry_group_IT_number 140
_symmetry_cell_setting 'tetragonal'
loop_
_space_group_symop_operation_xyz
x,y,z
-y,x,z
-x,-y,z
y,-x,z
x,-y,1/2-z
-x,y,1/2-z
y,x,1/2-z
-y,-x,1/2-z
-x,-y,-z
y,-x,-z
x,y,-z
-y,x,-z
-x,y,1/2+z
x,-y,1/2+z
-y,-x,1/2+z
y,x,1/2+z
1/2+x,1/2+y,1/2+z
1/2-y,1/2+x,1/2+z
1/2-x,1/2-y,1/2+z
1/2+y,1/2-x,1/2+z
1/2+x,1/2-y,-z
1/2-x,1/2+y,-z
1/2+y,1/2+x,-z
1/2-y,1/2-x,-z
1/2-x,1/2-y,1/2-z
1/2+y,1/2-x,1/2-z
1/2+x,1/2+y,1/2-z
1/2-y,1/2+x,1/2-z
1/2-x,1/2+y,z
1/2+x,1/2-y,z
1/2-y,1/2-x,z
1/2+y,1/2+x,z
loop_
_atom_site_type_symbol
_atom_site_label
_atom_site_fract_x
_atom_site_fract_y
_atom_site_fract_z
Si Si1 0.400725 0.099276 0.652869
Si Si2 0.000000 0.500000 0.250000
Si Si3 0.146199 0.646199 0.849122
Si Si4 0.513288 0.663894 0.896464
Si Si5 0.342822 0.369223 0.115165
Si Si6 0.494297 0.190272 0.864462
Si Si7 0.754590 0.254590 0.388385
O O1 0.452513 0.047488 0.694349
O O2 0.363675 0.136326 0.736939
O O3 0.445237 0.149635 0.601439
O O4 0.163032 0.575699 0.886827
O O5 0.199586 0.699586 0.872229
O O6 0.586706 0.659552 0.859122
O O7 0.443862 0.647836 0.850584
O O8 0.502702 0.739498 0.903530
O O9 0.514803 0.631773 0.000000
O O10 0.282173 0.322037 0.145284
O O11 0.338024 0.370988 0.000000
O O12 0.500000 0.191874 0.750000
O O13 0.764103 0.264103 0.500000
#
# Coordination Sequence:
#
# PCOD9571994 Si02
#       7
#    16   4  16  32  32  32  16
#     4  10  18  29  49  77 104 137 176 220 261 307
#     4  12  12  28  48  72  94 144 180 208 250 320
#     4  10  16  28  52  73 100 137 177 206 252 321
#     4  10  20  36  55  77 103 139 180 224 271 319
#     4   9  19  33  54  79 105 137 178 221 269 318
#     4  10  19  32  52  78 110 138 176 218 261 312
#     4  10  18  31  53  80 106 137 175 220 272 326
#
# _framework density 24.343534999999999
#
# number of rings (size 3 to 8) (size 9 to 14) (size 15 to 20)
#    0.000    2.162    5.405    0.000    0.000    1.297 
#    0.000    4.865    0.000    2.595    0.000    4.919 
#    0.000    0.000    0.000    0.000    0.000    0.000 
#
# Total GULP energy -412378.620649 kJ/mol
# GULP energy per Si atom -5572.684063 kJ/mol
# Density = 2.428813 g / cm^3
# Si number density = 24.343535 Si / 1000 Ang^3
#
#
#
# Elastic Constant Matrix: (Units=GPa)
#
#
# Indices 1 2 3 4 5 6 
#
# 1 118.1376 18.0891 -22.3555 0.0000 0.0000 0.0000
# 2 18.0891 118.1376 -22.3555 0.0000 0.0000 0.0000
# 3 -22.3555 -22.3555 90.2350 0.0000 0.0000 0.0000
# 4 0.0000 0.0000 0.0000 10.0822 0.0000 0.0000
# 5 0.0000 0.0000 0.0000 0.0000 10.0822 0.0000
# 6 0.0000 0.0000 0.0000 0.0000 0.0000 27.0318
#
#
#
# Elastic Compliance Matrix: (Units=1/GPa)
#
#
# Indices 1 2 3 4 5 6 
#
# 1 0.008993 -0.001002 0.001980 0.000000 0.000000 0.000000
# 2 -0.001002 0.008993 0.001980 0.000000 0.000000 0.000000
# 3 0.001980 0.001980 0.012063 0.000000 0.000000 0.000000
# 4 0.000000 0.000000 0.000000 0.099185 0.000000 0.000000
# 5 0.000000 0.000000 0.000000 0.000000 0.099185 0.000000
# 6 0.000000 0.000000 0.000000 0.000000 0.000000 0.036993
#
#
# Mechanical properties :
#
#
# Convention : Reuss Voigt Hill
#
# Bulk Modulus (GPa) = 27.80687 30.36296 29.08492
# Shear Modulus (GPa) = 18.41719 32.98138 25.69928
#
# Velocity S-wave (km/s) = 2.75354 3.68480 3.25267
# Velocity P-wave (km/s) = 4.64293 5.53203 5.10687
#
# Compressibility (1/GPa) = 0.03596233
#
# Stress axis : x y z
#
# Youngs Moduli (GPa) = 111.20018 111.20018 82.89776
#
# Poissons Ratio (x) = 0.11146 -0.16410
# Poissons Ratio (y) = 0.11146 -0.16410
# Poissons Ratio (z) = -0.22013 -0.22013
#
# Static dielectric constant tensor:
#      x y z
#    x 0.672140 0.000000 0.000000 
#    y 0.000000 0.672140 0.000000 
#    z 0.000000 0.000000 1.990210 
# 
# From -- ./inp_files/9646.got.cif
#   From: 2010.05.17/outbox.cif.g08.bks.cpg/sg140_5_cif.got.tgz:9646.got - 2010.06.21 00:45:31.
