data_PCOD9571338
_publ_section_title
;
Structure prediction by ZEFSAII (Michael W. Deem and Ramdas Pophale) SiO2 
 PCOD9571338
Probable space group: I 4/M M M
;
_chemical_formula_sum "Si O2"
_cell_formula_units_Z 192
_cell_length_a 21.044742
_cell_length_b 21.044742
_cell_length_c 21.333898
_cell_angle_alpha 90.000000
_cell_angle_beta 90.000000
_cell_angle_gamma 90.000000
_cell_volume 9448.381618
_symmetry_space_group_name_H-M "I 4/M M M"
_symmetry_group_IT_number 139
_symmetry_cell_setting 'tetragonal'
loop_
_space_group_symop_operation_xyz
x,y,z
-y,x,z
-x,-y,z
y,-x,z
x,-y,-z
-x,y,-z
y,x,-z
-y,-x,-z
-x,-y,-z
y,-x,-z
x,y,-z
-y,x,-z
-x,y,z
x,-y,z
-y,-x,z
y,x,z
1/2+x,1/2+y,1/2+z
1/2-y,1/2+x,1/2+z
1/2-x,1/2-y,1/2+z
1/2+y,1/2-x,1/2+z
1/2+x,1/2-y,1/2-z
1/2-x,1/2+y,1/2-z
1/2+y,1/2+x,1/2-z
1/2-y,1/2-x,1/2-z
1/2-x,1/2-y,1/2-z
1/2+y,1/2-x,1/2-z
1/2+x,1/2+y,1/2-z
1/2-y,1/2+x,1/2-z
1/2-x,1/2+y,1/2+z
1/2+x,1/2-y,1/2+z
1/2-y,1/2-x,1/2+z
1/2+y,1/2+x,1/2+z
loop_
_atom_site_type_symbol
_atom_site_label
_atom_site_fract_x
_atom_site_fract_y
_atom_site_fract_z
Si Si1 0.427848 0.824366 0.113026
Si Si2 0.108303 0.293684 0.251778
Si Si3 0.926445 0.177868 0.424462
Si Si4 0.569168 0.662313 0.259986
Si Si5 0.820020 0.573241 0.391390
Si Si6 0.824615 0.927654 0.089314
O O1 0.500000 0.838507 0.091475
O O2 0.426315 0.824875 0.189079
O O3 0.412707 0.751381 0.094101
O O4 0.374418 0.875461 0.092312
O O5 0.177653 0.322347 0.250000
O O6 0.112087 0.219222 0.262266
O O7 0.077057 0.308705 0.184416
O O8 0.925395 0.175858 0.500000
O O9 0.873919 0.126082 0.402418
O O10 0.000000 0.163695 0.405462
O O11 0.500000 0.677284 0.236723
O O12 0.594499 0.594499 0.241214
O O13 0.569463 0.666203 0.335280
O O14 0.836399 0.500000 0.406996
O O15 0.750079 0.587311 0.420434
O O16 0.874142 0.874142 0.067471
O O17 0.837233 0.000000 0.067679
#
# Coordination Sequence:
#
# PCOD9571338 Si02
#       6
#    32  32  32  32  32  32
#     4  10  19  30  47  69  92 121 156 194 237 283
#     4   9  17  29  44  62  87 120 156 193 232 271
#     4   9  19  36  56  77  99 122 153 197 248 300
#     4   9  16  25  36  50  73 105 139 177 217 257
#     4   9  17  29  44  64  94 128 160 194 229 271
#     4   8  14  24  37  54  78 110 147 185 222 257
#
# _framework density 20.320938999999999
#
# number of rings (size 3 to 8) (size 9 to 14) (size 15 to 20)
#    0.000    3.000    0.000    2.500    0.000    2.500 
#    0.000    5.833    0.000    3.500    0.000    4.667 
#    0.000    0.000    0.000    0.000    0.000    0.000 
#
# Total GULP energy -534695.737899 kJ/mol
# GULP energy per Si atom -5569.747270 kJ/mol
# Density = 2.027469 g / cm^3
# Si number density = 20.320939 Si / 1000 Ang^3
#
#
#
# Elastic Constant Matrix: (Units=GPa)
#
#
# Indices 1 2 3 4 5 6 
#
# 1 114.7091 178.9258 9.3876 0.0000 0.0000 0.0000
# 2 178.9258 114.7102 9.3886 0.0000 0.0000 0.0000
# 3 9.3876 9.3886 62.2721 0.0000 0.0000 0.0000
# 4 0.0000 0.0000 0.0000 -5.8256 0.0000 0.0000
# 5 0.0000 0.0000 0.0000 0.0000 -5.8249 0.0000
# 6 0.0000 0.0000 0.0000 0.0000 0.0000 36.3135
#
#
#
# Elastic Compliance Matrix: (Units=1/GPa)
#
#
# Indices 1 2 3 4 5 6 
#
# 1 -0.006067 0.009506 -0.000519 0.000000 0.000000 0.000000
# 2 0.009506 -0.006067 -0.000518 0.000000 0.000000 0.000000
# 3 -0.000519 -0.000518 0.016215 0.000000 0.000000 0.000000
# 4 0.000000 0.000000 0.000000 -0.171655 0.000000 0.000000
# 5 0.000000 0.000000 0.000000 0.000000 -0.171676 0.000000
# 6 0.000000 0.000000 0.000000 0.000000 0.000000 0.027538
#
#
# Mechanical properties :
#
#
# Convention : Reuss Voigt Hill
#
# Bulk Modulus (GPa) = 47.57678 76.34394 61.96036
# Shear Modulus (GPa) = -15.54516 11.19855 -2.17331
#
# Velocity S-wave (km/s) = -2.76883 2.35006 -1.03528
# Velocity P-wave (km/s) = 3.63890 6.70928 5.39704
#
# Compressibility (1/GPa) = 0.02101866
#
# Stress axis : x y z
#
# Youngs Moduli (GPa) = -164.82984 -164.83110 61.67176
#
# Poissons Ratio (x) = 1.56681 0.03198
# Poissons Ratio (y) = 1.56680 0.03197
# Poissons Ratio (z) = -0.08547 -0.08543
#
# Static dielectric constant tensor:
#      x y z
#    x 1.707730 0.000000 0.000000 
#    y 0.000000 1.707730 0.000000 
#    z 0.000000 0.000000 1.787080 
# 
# From -- ./inp_files/13243.got.cif
#   From: 2010.05.17/outbox.cif.g08.bks.cpg/sg139_7_cif.got.tgz:13243.got - 2010.05.20 13:14:44.
