data_PCOD9571877
_publ_section_title
;
Structure prediction by ZEFSAII (Michael W. Deem and Ramdas Pophale) SiO2 
 PCOD9571877
Probable space group: I 4/M M M
;
_chemical_formula_sum "Si O2"
_cell_formula_units_Z 160
_cell_length_a 20.605288
_cell_length_b 20.605288
_cell_length_c 20.111737
_cell_angle_alpha 90.000000
_cell_angle_beta 90.000000
_cell_angle_gamma 90.000000
_cell_volume 8538.998931
_symmetry_space_group_name_H-M "I 4/M M M"
_symmetry_group_IT_number 139
_symmetry_cell_setting 'tetragonal'
loop_
_space_group_symop_operation_xyz
x,y,z
-y,x,z
-x,-y,z
y,-x,z
x,-y,-z
-x,y,-z
y,x,-z
-y,-x,-z
-x,-y,-z
y,-x,-z
x,y,-z
-y,x,-z
-x,y,z
x,-y,z
-y,-x,z
y,x,z
1/2+x,1/2+y,1/2+z
1/2-y,1/2+x,1/2+z
1/2-x,1/2-y,1/2+z
1/2+y,1/2-x,1/2+z
1/2+x,1/2-y,1/2-z
1/2-x,1/2+y,1/2-z
1/2+y,1/2+x,1/2-z
1/2-y,1/2-x,1/2-z
1/2-x,1/2-y,1/2-z
1/2+y,1/2-x,1/2-z
1/2+x,1/2+y,1/2-z
1/2-y,1/2+x,1/2-z
1/2-x,1/2+y,1/2+z
1/2+x,1/2-y,1/2+z
1/2-y,1/2-x,1/2+z
1/2+y,1/2+x,1/2+z
loop_
_atom_site_type_symbol
_atom_site_label
_atom_site_fract_x
_atom_site_fract_y
_atom_site_fract_z
Si Si1 0.577787 0.926292 0.822770
Si Si2 0.686733 0.887081 0.423392
Si Si3 0.862606 0.753900 0.927602
Si Si4 0.074505 0.816647 0.807796
Si Si5 0.815588 0.075142 0.345751
O O1 0.500000 0.930796 0.816726
O O2 0.599241 0.900760 0.750000
O O3 0.591875 0.875403 0.880386
O O4 0.602483 0.000000 0.834987
O O5 0.681657 0.908341 0.500000
O O6 0.682201 0.809128 0.421559
O O7 0.753487 0.911134 0.391390
O O8 0.815950 0.815950 0.929163
O O9 0.907051 0.763604 0.863195
O O10 0.896581 0.749472 0.000000
O O11 0.121844 0.878157 0.815790
O O12 0.082999 0.794230 0.731575
O O13 0.000000 0.835808 0.816671
O O14 0.873851 0.126150 0.358155
O O15 0.836508 0.000000 0.354004
#
# Coordination Sequence:
#
# PCOD9571877 Si02
#       5
#    32  32  32  32  32
#     4   9  20  38  57  79 110 149 188 226 275 335
#     4  11  23  37  57  86 115 147 190 238 287 340
#     4   9  19  35  53  76 110 148 182 224 281 340
#     4   9  19  35  55  81 112 149 194 241 291 348
#     4  10  22  39  60  87 117 152 195 244 298 353
#
# _framework density 18.737559000000001
#
# number of rings (size 3 to 8) (size 9 to 14) (size 15 to 20)
#    0.000    2.400    0.000    1.800    2.800    4.800 
#    0.000    8.000    0.000    0.000    0.000    4.200 
#    0.000    0.000    0.000    0.000    0.000    0.000 
#
# Total GULP energy -445971.908479 kJ/mol
# GULP energy per Si atom -5574.648856 kJ/mol
# Density = 1.869491 g / cm^3
# Si number density = 18.737559 Si / 1000 Ang^3
#
#
#
# Elastic Constant Matrix: (Units=GPa)
#
#
# Indices 1 2 3 4 5 6 
#
# 1 74.8164 26.5892 67.5427 0.0000 0.0000 0.0000
# 2 26.5892 74.8165 67.5428 0.0000 0.0000 0.0000
# 3 67.5427 67.5428 148.7701 0.0000 0.0000 0.0000
# 4 0.0000 0.0000 0.0000 9.7387 0.0000 0.0000
# 5 0.0000 0.0000 0.0000 0.0000 9.7399 0.0000
# 6 0.0000 0.0000 0.0000 0.0000 0.0000 16.1788
#
#
#
# Elastic Compliance Matrix: (Units=1/GPa)
#
#
# Indices 1 2 3 4 5 6 
#
# 1 0.022844 0.002109 -0.011329 0.000000 0.000000 0.000000
# 2 0.002109 0.022844 -0.011329 0.000000 0.000000 0.000000
# 3 -0.011329 -0.011329 0.017008 0.000000 0.000000 0.000000
# 4 0.000000 0.000000 0.000000 0.102683 0.000000 0.000000
# 5 0.000000 0.000000 0.000000 0.000000 0.102671 0.000000
# 6 0.000000 0.000000 0.000000 0.000000 0.000000 0.061809
#
#
# Mechanical properties :
#
#
# Convention : Reuss Voigt Hill
#
# Bulk Modulus (GPa) = 46.29851 69.08361 57.69106
# Shear Modulus (GPa) = 13.22204 16.24669 14.73437
#
# Velocity S-wave (km/s) = 2.65928 2.94779 2.80724
# Velocity P-wave (km/s) = 5.84736 6.96671 6.43143
#
# Compressibility (1/GPa) = 0.02159897
#
# Stress axis : x y z
#
# Youngs Moduli (GPa) = 43.77530 43.77528 58.79435
#
# Poissons Ratio (x) = -0.09231 0.66606
# Poissons Ratio (y) = -0.09231 0.66607
# Poissons Ratio (z) = 0.49592 0.49592
#
# Static dielectric constant tensor:
#      x y z
#    x 1.640960 0.000000 0.000000 
#    y 0.000000 1.640960 0.000000 
#    z 0.000000 0.000000 1.694310 
# 
# From -- ./inp_files/8377.got.cif
#   From: 2010.05.17/outbox.cif.g08.bks.cpg/sg139_5_cif.got.tgz:8377.got - 2010.05.20 13:14:44.
