data_PCOD9571906
_publ_section_title
;
Structure prediction by ZEFSAII (Michael W. Deem and Ramdas Pophale) SiO2 
 PCOD9571906
Probable space group: I 4/M M M
;
_chemical_formula_sum "Si O2"
_cell_formula_units_Z 192
_cell_length_a 22.057322
_cell_length_b 22.057322
_cell_length_c 25.222421
_cell_angle_alpha 90.000000
_cell_angle_beta 90.000000
_cell_angle_gamma 90.000000
_cell_volume 12271.349823
_symmetry_space_group_name_H-M "I 4/M M M"
_symmetry_group_IT_number 139
_symmetry_cell_setting 'tetragonal'
loop_
_space_group_symop_operation_xyz
x,y,z
-y,x,z
-x,-y,z
y,-x,z
x,-y,-z
-x,y,-z
y,x,-z
-y,-x,-z
-x,-y,-z
y,-x,-z
x,y,-z
-y,x,-z
-x,y,z
x,-y,z
-y,-x,z
y,x,z
1/2+x,1/2+y,1/2+z
1/2-y,1/2+x,1/2+z
1/2-x,1/2-y,1/2+z
1/2+y,1/2-x,1/2+z
1/2+x,1/2-y,1/2-z
1/2-x,1/2+y,1/2-z
1/2+y,1/2+x,1/2-z
1/2-y,1/2-x,1/2-z
1/2-x,1/2-y,1/2-z
1/2+y,1/2-x,1/2-z
1/2+x,1/2+y,1/2-z
1/2-y,1/2+x,1/2-z
1/2-x,1/2+y,1/2+z
1/2+x,1/2-y,1/2+z
1/2-y,1/2-x,1/2+z
1/2+y,1/2+x,1/2+z
loop_
_atom_site_type_symbol
_atom_site_label
_atom_site_fract_x
_atom_site_fract_y
_atom_site_fract_z
Si Si1 0.651387 0.747156 0.238055
Si Si2 0.833297 0.264021 0.438121
Si Si3 0.302616 0.069738 0.353412
Si Si4 0.231431 0.868883 0.060371
Si Si5 0.400573 0.068967 0.188677
Si Si6 0.931971 0.744304 0.168234
O O1 0.691636 0.691636 0.217110
O O2 0.698484 0.801516 0.250000
O O3 0.602022 0.772497 0.197485
O O4 0.618103 0.729130 0.292299
O O5 0.848862 0.257384 0.500000
O O6 0.795989 0.204012 0.421204
O O7 0.890337 0.280658 0.402690
O O8 0.785105 0.319142 0.434099
O O9 0.375424 0.073424 0.345266
O O10 0.284816 0.000000 0.357161
O O11 0.169343 0.830658 0.066173
O O12 0.240928 0.915664 0.107702
O O13 0.234021 0.893026 0.000000
O O14 0.416982 0.083019 0.250000
O O15 0.328126 0.070735 0.179272
O O16 0.420766 0.000000 0.176442
O O17 0.000000 0.764542 0.180910
#
# Coordination Sequence:
#
# PCOD9571906 Si02
#       6
#    32  32  32  32  32  32
#     4  11  20  32  50  70  95 127 162 202 254 302
#     4   9  18  34  53  71  94 125 161 200 249 303
#     4  12  21  32  49  72 101 128 167 208 240 285
#     4   9  17  31  51  71  93 125 163 199 241 294
#     4  11  21  33  46  64  97 138 175 207 232 268
#     4  11  19  30  47  70 101 128 160 202 240 282
#
# _framework density 15.646201
#
# number of rings (size 3 to 8) (size 9 to 14) (size 15 to 20)
#    0.000    1.500    5.000    3.000    0.000    4.500 
#    0.000    0.000    0.000    0.500    0.000    1.167 
#    0.000   27.333    0.000   14.667    0.000    0.000 
#
# Total GULP energy -535514.136147 kJ/mol
# GULP energy per Si atom -5578.272252 kJ/mol
# Density = 1.561059 g / cm^3
# Si number density = 15.646201 Si / 1000 Ang^3
#
#
#
# Elastic Constant Matrix: (Units=GPa)
#
#
# Indices 1 2 3 4 5 6 
#
# 1 57.8067 44.5544 33.1637 0.0000 0.0000 0.0000
# 2 44.5544 57.8073 33.1646 0.0000 0.0000 0.0000
# 3 33.1637 33.1646 74.6131 0.0000 0.0000 0.0000
# 4 0.0000 0.0000 0.0000 13.3954 0.0000 0.0000
# 5 0.0000 0.0000 0.0000 0.0000 13.3970 0.0000
# 6 0.0000 0.0000 0.0000 0.0000 0.0000 14.0671
#
#
#
# Elastic Compliance Matrix: (Units=1/GPa)
#
#
# Indices 1 2 3 4 5 6 
#
# 1 0.044589 -0.030868 -0.006098 0.000000 0.000000 0.000000
# 2 -0.030868 0.044589 -0.006099 0.000000 0.000000 0.000000
# 3 -0.006098 -0.006099 0.018824 0.000000 0.000000 0.000000
# 4 0.000000 0.000000 0.000000 0.074653 0.000000 0.000000
# 5 0.000000 0.000000 0.000000 0.000000 0.074644 0.000000
# 6 0.000000 0.000000 0.000000 0.000000 0.000000 0.071088
#
#
# Mechanical properties :
#
#
# Convention : Reuss Voigt Hill
#
# Bulk Modulus (GPa) = 45.72214 45.77695 45.74955
# Shear Modulus (GPa) = 11.85374 13.46151 12.65762
#
# Velocity S-wave (km/s) = 2.75546 2.93639 2.84736
# Velocity P-wave (km/s) = 6.27769 6.38886 6.33352
#
# Compressibility (1/GPa) = 0.02187124
#
# Stress axis : x y z
#
# Youngs Moduli (GPa) = 22.42705 22.42699 53.12334
#
# Poissons Ratio (x) = 0.69227 0.32397
# Poissons Ratio (y) = 0.69227 0.32402
# Poissons Ratio (z) = 0.13677 0.13679
#
# Static dielectric constant tensor:
#      x y z
#    x 1.513950 0.000000 0.000000 
#    y 0.000000 1.513950 0.000000 
#    z 0.000000 0.000000 1.538150 
# 
# From -- ./inp_files/13302.got.cif
#   From: 2010.05.17/outbox.cif.g08.bks.cpg/sg139_7_cif.got.tgz:13302.got - 2010.05.20 13:14:44.
