data_PCOD9571730
_publ_section_title
;
Structure prediction by ZEFSAII (Michael W. Deem and Ramdas Pophale) SiO2 
 PCOD9571730
Probable space group: I 4/M M M
;
_chemical_formula_sum "Si O2"
_cell_formula_units_Z 144
_cell_length_a 22.324940
_cell_length_b 22.324940
_cell_length_c 16.582441
_cell_angle_alpha 90.000000
_cell_angle_beta 90.000000
_cell_angle_gamma 90.000000
_cell_volume 8264.737446
_symmetry_space_group_name_H-M "I 4/M M M"
_symmetry_group_IT_number 139
_symmetry_cell_setting 'tetragonal'
loop_
_space_group_symop_operation_xyz
x,y,z
-y,x,z
-x,-y,z
y,-x,z
x,-y,-z
-x,y,-z
y,x,-z
-y,-x,-z
-x,-y,-z
y,-x,-z
x,y,-z
-y,x,-z
-x,y,z
x,-y,z
-y,-x,z
y,x,z
1/2+x,1/2+y,1/2+z
1/2-y,1/2+x,1/2+z
1/2-x,1/2-y,1/2+z
1/2+y,1/2-x,1/2+z
1/2+x,1/2-y,1/2-z
1/2-x,1/2+y,1/2-z
1/2+y,1/2+x,1/2-z
1/2-y,1/2-x,1/2-z
1/2-x,1/2-y,1/2-z
1/2+y,1/2-x,1/2-z
1/2+x,1/2+y,1/2-z
1/2-y,1/2+x,1/2-z
1/2-x,1/2+y,1/2+z
1/2+x,1/2-y,1/2+z
1/2-y,1/2-x,1/2+z
1/2+y,1/2+x,1/2+z
loop_
_atom_site_type_symbol
_atom_site_label
_atom_site_fract_x
_atom_site_fract_y
_atom_site_fract_z
Si Si1 0.777496 0.122040 0.822726
Si Si2 0.500000 0.140438 0.407545
Si Si3 0.168853 0.068577 0.500000
Si Si4 0.629499 0.851896 0.597608
Si Si5 0.213847 0.000000 0.091989
Si Si6 0.929137 0.258187 0.650756
O O1 0.823853 0.176148 0.828721
O O2 0.714194 0.138340 0.865040
O O3 0.802796 0.061718 0.864682
O O4 0.764339 0.103708 0.730870
O O5 0.500000 0.118692 0.500000
O O6 0.564472 0.124680 0.372205
O O7 0.500000 0.213167 0.408368
O O8 0.115614 0.115614 0.500000
O O9 0.210448 0.076677 0.578596
O O10 0.146928 0.000000 0.500000
O O11 0.627199 0.846311 0.500000
O O12 0.681207 0.896987 0.622674
O O13 0.193371 0.000000 0.000000
O O14 0.000000 0.267123 0.666939
#
# Coordination Sequence:
#
# PCOD9571730 Si02
#       6
#    32  16  16  32  16  32
#     4  11  22  37  59  88 119 152 192 238 290 343
#     4   7  14  30  53  76 109 149 190 227 270 327
#     4  10  22  39  60  83 113 153 197 245 298 354
#     4  10  20  36  57  86 119 156 194 237 284 342
#     4   9  18  36  58  83 117 155 188 226 282 345
#     4  11  22  39  59  83 119 158 194 238 296 347
#
# _framework density 17.423421999999999
#
# number of rings (size 3 to 8) (size 9 to 14) (size 15 to 20)
#    0.000    2.000    2.222    3.333    0.000    4.556 
#    0.000    0.556    0.000    2.333    0.000    0.778 
#    0.000    0.000    0.000    0.000    0.000    0.000 
#
# Total GULP energy -401643.492081 kJ/mol
# GULP energy per Si atom -5578.381834 kJ/mol
# Density = 1.738377 g / cm^3
# Si number density = 17.423422 Si / 1000 Ang^3
#
#
#
# Elastic Constant Matrix: (Units=GPa)
#
#
# Indices 1 2 3 4 5 6 
#
# 1 91.3287 73.7798 14.2248 0.0000 0.0000 0.0000
# 2 73.7798 91.3287 14.2248 0.0000 0.0000 0.0000
# 3 14.2248 14.2248 71.4808 0.0000 0.0000 0.0000
# 4 0.0000 0.0000 0.0000 13.7549 0.0000 0.0000
# 5 0.0000 0.0000 0.0000 0.0000 13.7549 0.0000
# 6 0.0000 0.0000 0.0000 0.0000 0.0000 -10.2910
#
#
#
# Elastic Compliance Matrix: (Units=1/GPa)
#
#
# Indices 1 2 3 4 5 6 
#
# 1 0.031628 -0.025356 -0.001248 0.000000 0.000000 0.000000
# 2 -0.025356 0.031628 -0.001248 0.000000 0.000000 0.000000
# 3 -0.001248 -0.001248 0.014487 0.000000 0.000000 0.000000
# 4 0.000000 0.000000 0.000000 0.072701 0.000000 0.000000
# 5 0.000000 0.000000 0.000000 0.000000 0.072701 0.000000
# 6 0.000000 0.000000 0.000000 0.000000 0.000000 -0.097172
#
#
# Mechanical properties :
#
#
# Convention : Reuss Voigt Hill
#
# Bulk Modulus (GPa) = 45.37707 50.95524 48.16615
# Shear Modulus (GPa) = 26.45192 13.57102 20.01147
#
# Velocity S-wave (km/s) = 3.90061 2.79390 3.39269
# Velocity P-wave (km/s) = 6.81077 6.30211 6.56137
#
# Compressibility (1/GPa) = 0.02203756
#
# Stress axis : x y z
#
# Youngs Moduli (GPa) = 31.61793 31.61793 69.02974
#
# Poissons Ratio (x) = 0.80170 0.08615
# Poissons Ratio (y) = 0.80170 0.08615
# Poissons Ratio (z) = 0.03946 0.03946
#
# Static dielectric constant tensor:
#      x y z
#    x 1.579170 0.000000 0.000000 
#    y 0.000000 1.579170 0.000000 
#    z 0.000000 0.000000 1.606630 
# 
# From -- ./inp_files/8247.got.cif
#   From: 2010.05.17/outbox.cif.g08.bks.cpg/sg139_5_cif.got.tgz:8247.got - 2010.05.20 13:14:44.
