data_PCOD9571072
_publ_section_title
;
Structure prediction by ZEFSAII (Michael W. Deem and Ramdas Pophale) SiO2 
 PCOD9571072
Probable space group: P 42/N C M
;
_chemical_formula_sum "Si O2"
_cell_formula_units_Z 72
_cell_length_a 11.015648
_cell_length_b 11.015648
_cell_length_c 24.974891
_cell_angle_alpha 90.000000
_cell_angle_beta 90.000000
_cell_angle_gamma 90.000000
_cell_volume 3030.565682
_symmetry_space_group_name_H-M "P 42/N C M"
_symmetry_group_IT_number 138
_space_group.IT_coordinate_system_code '2'
_symmetry_cell_setting 'tetragonal'
loop_
_space_group_symop_operation_xyz
x,y,z
1/2-y,x,1/2+z
1/2-x,1/2-y,z
y,1/2-x,1/2+z
1/2+x,-y,1/2-z
-x,1/2+y,1/2-z
1/2+y,1/2+x,-z
-y,-x,-z
-x,-y,-z
1/2+y,-x,1/2-z
1/2+x,1/2+y,-z
-y,1/2+x,1/2-z
1/2-x,y,1/2+z
x,1/2-y,1/2+z
1/2-y,1/2-x,z
y,x,z
loop_
_atom_site_type_symbol
_atom_site_label
_atom_site_fract_x
_atom_site_fract_y
_atom_site_fract_z
Si Si1 0.740315 0.048351 0.123968
Si Si2 0.045046 0.735584 0.243094
Si Si3 0.856947 0.856947 0.832147
Si Si4 0.749598 0.439867 0.401446
Si Si5 0.053015 0.247210 0.992739
O O1 0.745767 0.993101 0.182894
O O2 0.852237 0.143061 0.119411
O O3 0.617696 0.126092 0.119344
O O4 0.747348 0.971156 0.070396
O O5 0.124795 0.856859 0.254182
O O6 0.941921 0.709315 0.286073
O O7 0.929456 0.779183 0.878308
O O8 0.747220 0.442645 0.465850
O O9 0.141239 0.358762 0.006107
O O10 0.122054 0.122054 0.002992
#
# Coordination Sequence:
#
# PCOD9571072 Si02
#       5
#    16  16   8  16  16
#     4  11  23  41  68 100 131 171 227 281 331 403
#     4  11  21  41  65  97 136 169 222 281 328 404
#     4  12  22  38  72  97 127 184 215 276 343 396
#     4  11  22  43  70  97 128 174 233 270 331 408
#     4  11  26  43  64  96 138 173 218 285 341 401
#
# _framework density 23.757942
#
# number of rings (size 3 to 8) (size 9 to 14) (size 15 to 20)
#    0.000    0.889    5.556    2.667    3.111    4.444 
#    0.000    0.000    2.444    0.000    0.000    0.000 
#    0.000    0.000    0.000    0.000    0.000    0.000 
#
# Total GULP energy -400846.155252 kJ/mol
# GULP energy per Si atom -5567.307712 kJ/mol
# Density = 2.370387 g / cm^3
# Si number density = 23.757942 Si / 1000 Ang^3
#
#
#
# Elastic Constant Matrix: (Units=GPa)
#
#
# Indices 1 2 3 4 5 6 
#
# 1 20.8215 30.6666 14.6816 0.0000 0.0000 0.0000
# 2 30.6666 20.8215 14.6816 0.0000 0.0000 0.0000
# 3 14.6816 14.6816 210.4979 0.0000 0.0000 0.0000
# 4 0.0000 0.0000 0.0000 147.2379 0.0000 0.0000
# 5 0.0000 0.0000 0.0000 0.0000 147.2379 0.0000
# 6 0.0000 0.0000 0.0000 0.0000 0.0000 11.8435
#
#
#
# Elastic Compliance Matrix: (Units=1/GPa)
#
#
# Indices 1 2 3 4 5 6 
#
# 1 -0.040674 0.060900 -0.001411 0.000000 0.000000 0.000000
# 2 0.060900 -0.040674 -0.001411 0.000000 0.000000 0.000000
# 3 -0.001411 -0.001411 0.004947 0.000000 0.000000 0.000000
# 4 0.000000 0.000000 0.000000 0.006792 0.000000 0.000000
# 5 0.000000 0.000000 0.000000 0.000000 0.006792 0.000000
# 6 0.000000 0.000000 0.000000 0.000000 0.000000 0.084434
#
#
# Mechanical properties :
#
#
# Convention : Reuss Voigt Hill
#
# Bulk Modulus (GPa) = 25.15253 41.35562 33.25408
# Shear Modulus (GPa) = -61.51064 74.07130 6.28033
#
# Velocity S-wave (km/s) = -5.09380 5.58974 1.62764
# Velocity P-wave (km/s) = 4.89752 7.68798 4.19043
#
# Compressibility (1/GPa) = 0.03975743
#
# Stress axis : x y z
#
# Youngs Moduli (GPa) = -24.58599 -24.58599 202.12518
#
# Poissons Ratio (x) = 1.49729 0.28514
# Poissons Ratio (y) = 1.49729 0.28514
# Poissons Ratio (z) = -0.03468 -0.03468
#
# Static dielectric constant tensor:
#      x y z
#    x 2.016670 0.000000 0.000000 
#    y 0.000000 2.016670 0.000000 
#    z 0.000000 0.000000 1.911800 
# 
# From -- ./inp_files/7410.got.cif
#   From: 2010.05.17/outbox.cif.g08.bks.cpg/sg138_4_cif.got.tgz:7410.got - 2010.05.20 13:08:53.
