data_PCOD9571732
_publ_section_title
;
Structure prediction by ZEFSAII (Michael W. Deem and Ramdas Pophale) SiO2 
 PCOD9571732
Probable space group: I 4/M M M
;
_chemical_formula_sum "Si O2"
_cell_formula_units_Z 160
_cell_length_a 27.401238
_cell_length_b 27.401238
_cell_length_c 11.932467
_cell_angle_alpha 90.000000
_cell_angle_beta 90.000000
_cell_angle_gamma 90.000000
_cell_volume 8959.228470
_symmetry_space_group_name_H-M "I 4/M M M"
_symmetry_group_IT_number 139
_symmetry_cell_setting 'tetragonal'
loop_
_space_group_symop_operation_xyz
x,y,z
-y,x,z
-x,-y,z
y,-x,z
x,-y,-z
-x,y,-z
y,x,-z
-y,-x,-z
-x,-y,-z
y,-x,-z
x,y,-z
-y,x,-z
-x,y,z
x,-y,z
-y,-x,z
y,x,z
1/2+x,1/2+y,1/2+z
1/2-y,1/2+x,1/2+z
1/2-x,1/2-y,1/2+z
1/2+y,1/2-x,1/2+z
1/2+x,1/2-y,1/2-z
1/2-x,1/2+y,1/2-z
1/2+y,1/2+x,1/2-z
1/2-y,1/2-x,1/2-z
1/2-x,1/2-y,1/2-z
1/2+y,1/2-x,1/2-z
1/2+x,1/2+y,1/2-z
1/2-y,1/2+x,1/2-z
1/2-x,1/2+y,1/2+z
1/2+x,1/2-y,1/2+z
1/2-y,1/2-x,1/2+z
1/2+y,1/2+x,1/2+z
loop_
_atom_site_type_symbol
_atom_site_label
_atom_site_fract_x
_atom_site_fract_y
_atom_site_fract_z
Si Si1 0.362254 0.716480 0.500000
Si Si2 0.309260 0.500000 0.136255
Si Si3 0.246027 0.172461 0.244915
Si Si4 0.058449 0.297007 0.000000
Si Si5 0.727830 0.924587 0.633164
Si Si6 0.056103 0.637129 0.782019
Si Si7 0.579168 0.500000 0.136439
O O1 0.340241 0.659760 0.500000
O O2 0.341311 0.737795 0.615640
O O3 0.415692 0.743594 0.500000
O O4 0.275678 0.454661 0.171040
O O5 0.364996 0.500000 0.176531
O O6 0.311571 0.500000 0.000000
O O7 0.195468 0.195468 0.287931
O O8 0.286503 0.213498 0.250000
O O9 0.264088 0.128805 0.320005
O O10 0.071009 0.330758 0.891753
O O11 0.000000 0.290159 0.000000
O O12 0.725573 0.926772 0.500000
O O13 0.677732 0.944115 0.684528
O O14 0.094291 0.594291 0.750000
O O15 0.000000 0.619479 0.798827
O O16 0.547529 0.547529 0.169819
O O17 0.580135 0.500000 0.000000
#
# Coordination Sequence:
#
# PCOD9571732 Si02
#       7
#    16  16  32  16  32  32  16
#     4  10  20  36  58  81 111 147 186 233 281 329
#     4   9  19  34  49  77 112 143 184 227 270 329
#     4  10  22  36  53  79 110 145 185 228 275 331
#     4  10  22  40  63  90 114 148 197 244 284 338
#     4  11  22  35  56  81 112 151 187 227 284 345
#     4  11  24  41  62  86 113 148 193 241 293 351
#     4   8  14  27  50  76 105 148 194 231 271 319
#
# _framework density 17.858681000000001
#
# number of rings (size 3 to 8) (size 9 to 14) (size 15 to 20)
#    0.000    1.900    3.000    0.900    2.800    1.400 
#    0.000    2.000    0.000    1.800    0.000    0.000 
#    0.000    0.200    0.000    0.000    0.000    6.600 
#
# Total GULP energy -445359.357549 kJ/mol
# GULP energy per Si atom -5566.991969 kJ/mol
# Density = 1.781803 g / cm^3
# Si number density = 17.858681 Si / 1000 Ang^3
#
#
#
# Elastic Constant Matrix: (Units=GPa)
#
#
# Indices 1 2 3 4 5 6 
#
# 1 112.0487 65.2555 19.8448 0.0000 0.0000 0.0000
# 2 65.2555 112.0454 19.8451 0.0000 0.0000 0.0000
# 3 19.8448 19.8451 62.7542 0.0000 0.0000 0.0000
# 4 0.0000 0.0000 0.0000 13.7342 0.0000 0.0000
# 5 0.0000 0.0000 0.0000 0.0000 13.7484 0.0000
# 6 0.0000 0.0000 0.0000 0.0000 0.0000 33.8064
#
#
#
# Elastic Compliance Matrix: (Units=1/GPa)
#
#
# Indices 1 2 3 4 5 6 
#
# 1 0.013720 -0.007651 -0.001919 0.000000 0.000000 0.000000
# 2 -0.007651 0.013721 -0.001920 0.000000 0.000000 0.000000
# 3 -0.001919 -0.001920 0.017149 0.000000 0.000000 0.000000
# 4 0.000000 0.000000 0.000000 0.072811 0.000000 0.000000
# 5 0.000000 0.000000 0.000000 0.000000 0.072736 0.000000
# 6 0.000000 0.000000 0.000000 0.000000 0.000000 0.029580
#
#
# Mechanical properties :
#
#
# Convention : Reuss Voigt Hill
#
# Bulk Modulus (GPa) = 46.27301 55.19323 50.73312
# Shear Modulus (GPa) = 20.00795 24.38465 22.19630
#
# Velocity S-wave (km/s) = 3.35079 3.69917 3.52928
# Velocity P-wave (km/s) = 6.39823 7.01554 6.71398
#
# Compressibility (1/GPa) = 0.02161087
#
# Stress axis : x y z
#
# Youngs Moduli (GPa) = 72.88454 72.88216 58.31181
#
# Poissons Ratio (x) = 0.55761 0.11192
# Poissons Ratio (y) = 0.55763 0.11193
# Poissons Ratio (z) = 0.13989 0.13990
#
# Static dielectric constant tensor:
#      x y z
#    x 1.625580 0.000000 0.000000 
#    y 0.000000 1.625580 0.000000 
#    z 0.000000 0.000000 1.609010 
# 
# From -- ./inp_files/3988.got.cif
#   From: 2010.05.17/outbox.cif.g08.bks.cpg/sg139_2_cif.got.tgz:3988.got - 2010.05.20 13:14:44.
