data_PCOD9571699
_publ_section_title
;
Structure prediction by ZEFSAII (Michael W. Deem and Ramdas Pophale) SiO2 
 PCOD9571699
Probable space group: I 4/M M M
;
_chemical_formula_sum "Si O2"
_cell_formula_units_Z 160
_cell_length_a 20.545254
_cell_length_b 20.545254
_cell_length_c 21.020511
_cell_angle_alpha 90.000000
_cell_angle_beta 90.000000
_cell_angle_gamma 90.000000
_cell_volume 8872.914547
_symmetry_space_group_name_H-M "I 4/M M M"
_symmetry_group_IT_number 139
_symmetry_cell_setting 'tetragonal'
loop_
_space_group_symop_operation_xyz
x,y,z
-y,x,z
-x,-y,z
y,-x,z
x,-y,-z
-x,y,-z
y,x,-z
-y,-x,-z
-x,-y,-z
y,-x,-z
x,y,-z
-y,x,-z
-x,y,z
x,-y,z
-y,-x,z
y,x,z
1/2+x,1/2+y,1/2+z
1/2-y,1/2+x,1/2+z
1/2-x,1/2-y,1/2+z
1/2+y,1/2-x,1/2+z
1/2+x,1/2-y,1/2-z
1/2-x,1/2+y,1/2-z
1/2+y,1/2+x,1/2-z
1/2-y,1/2-x,1/2-z
1/2-x,1/2-y,1/2-z
1/2+y,1/2-x,1/2-z
1/2+x,1/2+y,1/2-z
1/2-y,1/2+x,1/2-z
1/2-x,1/2+y,1/2+z
1/2+x,1/2-y,1/2+z
1/2-y,1/2-x,1/2+z
1/2+y,1/2+x,1/2+z
loop_
_atom_site_type_symbol
_atom_site_label
_atom_site_fract_x
_atom_site_fract_y
_atom_site_fract_z
Si Si1 0.795226 0.423089 0.620256
Si Si2 0.575800 0.686913 0.133622
Si Si3 0.377535 0.266113 0.000000
Si Si4 0.748339 0.359064 0.254357
Si Si5 0.270218 0.160516 0.000000
Si Si6 0.427879 0.921300 0.176236
O O1 0.793965 0.500000 0.608106
O O2 0.761272 0.406779 0.687086
O O3 0.765613 0.383174 0.562646
O O4 0.870228 0.400819 0.630476
O O5 0.500000 0.671244 0.144759
O O6 0.623057 0.623057 0.134117
O O7 0.583712 0.721005 0.064917
O O8 0.603193 0.734605 0.188750
O O9 0.320793 0.320793 0.000000
O O10 0.339223 0.198219 0.000000
O O11 0.684841 0.315160 0.267343
O O12 0.807604 0.307604 0.250000
O O13 0.214509 0.214509 0.000000
O O14 0.500000 0.894643 0.163720
O O15 0.409689 0.909689 0.250000
O O16 0.431415 0.000000 0.171741
#
# Coordination Sequence:
#
# PCOD9571699 Si02
#       6
#    32  32  16  32  16  32
#     4  11  21  34  54  79 105 134 176 224 268 319
#     4  10  20  35  56  82 112 143 176 217 265 320
#     4   9  19  36  55  74 103 143 180 212 252 309
#     4  10  20  35  55  79 108 143 182 222 264 309
#     4  11  23  40  56  70  97 137 177 222 278 325
#     4   8  15  29  48  71 103 139 166 193 238 296
#
# _framework density 18.032406000000002
#
# number of rings (size 3 to 8) (size 9 to 14) (size 15 to 20)
#    0.000    2.200    0.000    4.200    0.000    3.400 
#    0.000    7.500    0.000    4.200    0.000    0.000 
#    0.000   15.200    0.000    0.000    0.000    0.000 
#
# Total GULP energy -446479.464650 kJ/mol
# GULP energy per Si atom -5580.993308 kJ/mol
# Density = 1.799136 g / cm^3
# Si number density = 18.032406 Si / 1000 Ang^3
#
#
#
# Elastic Constant Matrix: (Units=GPa)
#
#
# Indices 1 2 3 4 5 6 
#
# 1 86.6165 40.9077 55.5571 0.0000 0.0000 0.0000
# 2 40.9077 86.6165 55.5571 0.0000 0.0000 0.0000
# 3 55.5571 55.5571 131.5277 0.0000 0.0000 0.0000
# 4 0.0000 0.0000 0.0000 14.5721 0.0000 0.0000
# 5 0.0000 0.0000 0.0000 0.0000 14.5721 0.0000
# 6 0.0000 0.0000 0.0000 0.0000 0.0000 21.5799
#
#
#
# Elastic Compliance Matrix: (Units=1/GPa)
#
#
# Indices 1 2 3 4 5 6 
#
# 1 0.017143 -0.004735 -0.005241 0.000000 0.000000 0.000000
# 2 -0.004735 0.017143 -0.005241 0.000000 0.000000 0.000000
# 3 -0.005241 -0.005241 0.012031 0.000000 0.000000 0.000000
# 4 0.000000 0.000000 0.000000 0.068624 0.000000 0.000000
# 5 0.000000 0.000000 0.000000 0.000000 0.068624 0.000000
# 6 0.000000 0.000000 0.000000 0.000000 0.000000 0.046339
#
#
# Mechanical properties :
#
#
# Convention : Reuss Voigt Hill
#
# Bulk Modulus (GPa) = 62.96234 67.64494 65.30364
# Shear Modulus (GPa) = 18.82292 20.32741 19.57517
#
# Velocity S-wave (km/s) = 3.23435 3.36113 3.29835
# Velocity P-wave (km/s) = 6.99572 7.25654 7.12732
#
# Compressibility (1/GPa) = 0.01588251
#
# Stress axis : x y z
#
# Youngs Moduli (GPa) = 58.33264 58.33264 83.11984
#
# Poissons Ratio (x) = 0.27618 0.43566
# Poissons Ratio (y) = 0.27618 0.43566
# Poissons Ratio (z) = 0.30574 0.30574
#
# Static dielectric constant tensor:
#      x y z
#    x 1.621800 0.000000 0.000000 
#    y 0.000000 1.621800 0.000000 
#    z 0.000000 0.000000 1.599490 
# 
# From -- ./inp_files/8466.got.cif
#   From: 2010.05.17/outbox.cif.g08.bks.cpg/sg139_5_cif.got.tgz:8466.got - 2010.05.20 13:14:44.
