data_PCOD9571452
_publ_section_title
;
Structure prediction by ZEFSAII (Michael W. Deem and Ramdas Pophale) SiO2 
 PCOD9571452
Probable space group: I 4/M M M
;
_chemical_formula_sum "Si O2"
_cell_formula_units_Z 160
_cell_length_a 18.270316
_cell_length_b 18.270316
_cell_length_c 28.281989
_cell_angle_alpha 90.000000
_cell_angle_beta 90.000000
_cell_angle_gamma 90.000000
_cell_volume 9440.653691
_symmetry_space_group_name_H-M "I 4/M M M"
_symmetry_group_IT_number 139
_symmetry_cell_setting 'tetragonal'
loop_
_space_group_symop_operation_xyz
x,y,z
-y,x,z
-x,-y,z
y,-x,z
x,-y,-z
-x,y,-z
y,x,-z
-y,-x,-z
-x,-y,-z
y,-x,-z
x,y,-z
-y,x,-z
-x,y,z
x,-y,z
-y,-x,z
y,x,z
1/2+x,1/2+y,1/2+z
1/2-y,1/2+x,1/2+z
1/2-x,1/2-y,1/2+z
1/2+y,1/2-x,1/2+z
1/2+x,1/2-y,1/2-z
1/2-x,1/2+y,1/2-z
1/2+y,1/2+x,1/2-z
1/2-y,1/2-x,1/2-z
1/2-x,1/2-y,1/2-z
1/2+y,1/2-x,1/2-z
1/2+x,1/2+y,1/2-z
1/2-y,1/2+x,1/2-z
1/2-x,1/2+y,1/2+z
1/2+x,1/2-y,1/2+z
1/2-y,1/2-x,1/2+z
1/2+y,1/2+x,1/2+z
loop_
_atom_site_type_symbol
_atom_site_label
_atom_site_fract_x
_atom_site_fract_y
_atom_site_fract_z
Si Si1 0.293810 0.912972 0.388325
Si Si2 0.701973 0.582222 0.306626
Si Si3 0.187417 0.812584 0.946477
Si Si4 0.414870 0.805432 0.776679
Si Si5 0.313013 0.313013 0.944874
Si Si6 0.703526 0.084137 0.896137
O O1 0.290610 0.898729 0.331721
O O2 0.224396 0.879518 0.416222
O O3 0.364876 0.866649 0.404858
O O4 0.300410 0.000000 0.395717
O O5 0.672350 0.500000 0.312279
O O6 0.643363 0.643363 0.318673
O O7 0.731448 0.592166 0.253720
O O8 0.771900 0.587493 0.341271
O O9 0.250192 0.749809 0.945266
O O10 0.226037 0.881408 0.922110
O O11 0.169379 0.830622 0.000000
O O12 0.500000 0.829139 0.773660
O O13 0.363668 0.863668 0.750000
O O14 0.329923 0.329923 0.000000
O O15 0.690763 0.000000 0.908990
#
# Coordination Sequence:
#
# PCOD9571452 Si02
#       6
#    32  32  16  32  16  32
#     4  10  21  35  55  83 111 142 182 225 272 331
#     4  10  20  33  50  73 103 142 182 222 263 312
#     4   9  18  34  53  74 100 133 175 224 273 316
#     4  10  20  32  48  76 110 145 181 215 259 320
#     4   9  20  38  58  79 103 134 177 232 289 334
#     4  10  19  33  52  77 108 143 181 217 263 320
#
# _framework density 16.947977999999999
#
# number of rings (size 3 to 8) (size 9 to 14) (size 15 to 20)
#    0.000    2.200    3.000    0.000    1.400    2.000 
#    0.000    2.000    0.000    0.600    0.000    7.000 
#    0.000    0.000    0.000    0.000    0.000    0.000 
#
# Total GULP energy -445605.269505 kJ/mol
# GULP energy per Si atom -5570.065869 kJ/mol
# Density = 1.690940 g / cm^3
# Si number density = 16.947978 Si / 1000 Ang^3
#
#
#
# Elastic Constant Matrix: (Units=GPa)
#
#
# Indices 1 2 3 4 5 6 
#
# 1 83.1718 64.0516 36.9765 0.0000 0.0000 0.0000
# 2 64.0516 83.1716 36.9765 0.0000 0.0000 0.0000
# 3 36.9765 36.9765 94.0629 0.0000 0.0000 0.0000
# 4 0.0000 0.0000 0.0000 14.0468 0.0000 0.0000
# 5 0.0000 0.0000 0.0000 0.0000 14.0467 0.0000
# 6 0.0000 0.0000 0.0000 0.0000 0.0000 15.6468
#
#
#
# Elastic Compliance Matrix: (Units=1/GPa)
#
#
# Indices 1 2 3 4 5 6 
#
# 1 0.030382 -0.021919 -0.003327 0.000000 0.000000 0.000000
# 2 -0.021919 0.030382 -0.003327 0.000000 0.000000 0.000000
# 3 -0.003327 -0.003327 0.013247 0.000000 0.000000 0.000000
# 4 0.000000 0.000000 0.000000 0.071191 0.000000 0.000000
# 5 0.000000 0.000000 0.000000 0.000000 0.071191 0.000000
# 6 0.000000 0.000000 0.000000 0.000000 0.000000 0.063911
#
#
# Mechanical properties :
#
#
# Convention : Reuss Voigt Hill
#
# Bulk Modulus (GPa) = 59.29119 59.60171 59.44645
# Shear Modulus (GPa) = 14.57420 16.90817 15.74118
#
# Velocity S-wave (km/s) = 2.93565 3.16199 3.05092
# Velocity P-wave (km/s) = 6.82282 6.96955 6.89658
#
# Compressibility (1/GPa) = 0.01686591
#
# Stress axis : x y z
#
# Youngs Moduli (GPa) = 32.91391 32.91385 75.48896
#
# Poissons Ratio (x) = 0.72143 0.25116
# Poissons Ratio (y) = 0.72143 0.25116
# Poissons Ratio (z) = 0.10951 0.10951
#
# Static dielectric constant tensor:
#      x y z
#    x 1.565410 0.000000 0.000000 
#    y 0.000000 1.565410 0.000000 
#    z 0.000000 0.000000 1.605830 
# 
# From -- ./inp_files/12997.got.cif
#   From: 2010.05.17/outbox.cif.g08.bks.cpg/sg139_7_cif.got.tgz:12997.got - 2010.05.20 13:14:44.
