data_PCOD9571260
_publ_section_title
;
Structure prediction by ZEFSAII (Michael W. Deem and Ramdas Pophale) SiO2 
 PCOD9571260
Probable space group: I 4/M M M
;
_chemical_formula_sum "Si O2"
_cell_formula_units_Z 160
_cell_length_a 32.285464
_cell_length_b 32.285464
_cell_length_c 7.907466
_cell_angle_alpha 90.000000
_cell_angle_beta 90.000000
_cell_angle_gamma 90.000000
_cell_volume 8242.356561
_symmetry_space_group_name_H-M "I 4/M M M"
_symmetry_group_IT_number 139
_symmetry_cell_setting 'tetragonal'
loop_
_space_group_symop_operation_xyz
x,y,z
-y,x,z
-x,-y,z
y,-x,z
x,-y,-z
-x,y,-z
y,x,-z
-y,-x,-z
-x,-y,-z
y,-x,-z
x,y,-z
-y,x,-z
-x,y,z
x,-y,z
-y,-x,z
y,x,z
1/2+x,1/2+y,1/2+z
1/2-y,1/2+x,1/2+z
1/2-x,1/2-y,1/2+z
1/2+y,1/2-x,1/2+z
1/2+x,1/2-y,1/2-z
1/2-x,1/2+y,1/2-z
1/2+y,1/2+x,1/2-z
1/2-y,1/2-x,1/2-z
1/2-x,1/2-y,1/2-z
1/2+y,1/2-x,1/2-z
1/2+x,1/2+y,1/2-z
1/2-y,1/2+x,1/2-z
1/2-x,1/2+y,1/2+z
1/2+x,1/2-y,1/2+z
1/2-y,1/2-x,1/2+z
1/2+y,1/2+x,1/2+z
loop_
_atom_site_type_symbol
_atom_site_label
_atom_site_fract_x
_atom_site_fract_y
_atom_site_fract_z
Si Si1 0.658361 0.000000 0.707320
Si Si2 0.500000 0.065618 0.199070
Si Si3 0.283570 0.283570 0.703535
Si Si4 0.162199 0.406274 0.803139
Si Si5 0.128866 0.250006 0.203441
Si Si6 0.162550 0.093632 0.802456
Si Si7 0.951265 0.883280 0.500000
O O1 0.670945 0.046667 0.766044
O O2 0.663397 0.000000 0.500000
O O3 0.610975 0.000000 0.767112
O O4 0.539764 0.039764 0.250000
O O5 0.500000 0.069062 0.000000
O O6 0.287831 0.287831 0.500000
O O7 0.250000 0.250000 0.750000
O O8 0.327231 0.266868 0.768085
O O9 0.123131 0.376870 0.750000
O O10 0.205359 0.382400 0.775426
O O11 0.154318 0.412684 0.000000
O O12 0.098484 0.211244 0.236138
O O13 0.130935 0.254854 0.000000
O O14 0.137787 0.137787 0.787995
O O15 0.141397 0.063849 0.666781
O O16 0.157983 0.081212 0.000000
O O17 0.926320 0.926320 0.500000
O O18 0.000000 0.888642 0.500000
#
# Coordination Sequence:
#
# PCOD9571260 Si02
#       7
#    16  16  16  32  32  32  16
#     4   9  21  40  57  74 102 144 188 230 288 347
#     4  10  18  31  52  78 102 124 162 218 276 336
#     4  10  20  34  52  80 114 148 188 235 289 352
#     4  11  23  40  59  82 113 152 193 244 302 365
#     4  10  20  37  58  82 115 154 196 243 299 361
#     4   9  18  37  62  88 122 163 207 259 309 363
#     4  10  22  39  62  96 130 168 220 263 321 387
#
# _framework density 19.411923000000002
#
# number of rings (size 3 to 8) (size 9 to 14) (size 15 to 20)
#    0.000    2.100    1.000    2.400    1.400    2.900 
#    1.800    5.000    0.000    0.000    0.000    2.800 
#    0.000    0.000    0.000    0.000    0.000    0.000 
#
# Total GULP energy -445677.897053 kJ/mol
# GULP energy per Si atom -5570.973713 kJ/mol
# Density = 1.936774 g / cm^3
# Si number density = 19.411923 Si / 1000 Ang^3
#
#
#
# Elastic Constant Matrix: (Units=GPa)
#
#
# Indices 1 2 3 4 5 6 
#
# 1 123.5933 53.1813 26.1245 0.0000 0.0000 0.0000
# 2 53.1813 123.5922 26.1243 0.0000 0.0000 0.0000
# 3 26.1245 26.1243 45.7241 0.0000 0.0000 0.0000
# 4 0.0000 0.0000 0.0000 11.0623 0.0000 0.0000
# 5 0.0000 0.0000 0.0000 0.0000 11.0602 0.0000
# 6 0.0000 0.0000 0.0000 0.0000 0.0000 34.0916
#
#
#
# Elastic Compliance Matrix: (Units=1/GPa)
#
#
# Indices 1 2 3 4 5 6 
#
# 1 0.010504 -0.003698 -0.003889 0.000000 0.000000 0.000000
# 2 -0.003698 0.010504 -0.003889 0.000000 0.000000 0.000000
# 3 -0.003889 -0.003889 0.026314 0.000000 0.000000 0.000000
# 4 0.000000 0.000000 0.000000 0.090397 0.000000 0.000000
# 5 0.000000 0.000000 0.000000 0.000000 0.090414 0.000000
# 6 0.000000 0.000000 0.000000 0.000000 0.000000 0.029333
#
#
# Mechanical properties :
#
#
# Convention : Reuss Voigt Hill
#
# Bulk Modulus (GPa) = 41.03150 55.97442 48.50296
# Shear Modulus (GPa) = 17.32853 23.74145 20.53499
#
# Velocity S-wave (km/s) = 2.99101 3.50098 3.25600
# Velocity P-wave (km/s) = 5.75424 6.72608 6.25905
#
# Compressibility (1/GPa) = 0.02437152
#
# Stress axis : x y z
#
# Youngs Moduli (GPa) = 95.19959 95.19884 38.00258
#
# Poissons Ratio (x) = 0.35204 0.14778
# Poissons Ratio (y) = 0.35204 0.14778
# Poissons Ratio (z) = 0.37021 0.37021
#
# Static dielectric constant tensor:
#      x y z
#    x 1.684720 0.000000 0.000000 
#    y 0.000000 1.684720 0.000000 
#    z 0.000000 0.000000 1.707320 
# 
# From -- ./inp_files/2302.got.cif
#   From: 2010.05.17/outbox.cif.g08.bks.cpg/sg139_2_cif.got.tgz:2302.got - 2010.05.20 13:14:44.
