data_PCOD9571864
_publ_section_title
;
Structure prediction by ZEFSAII (Michael W. Deem and Ramdas Pophale) SiO2 
 PCOD9571864
Probable space group: I 4/M M M
;
_chemical_formula_sum "Si O2"
_cell_formula_units_Z 144
_cell_length_a 22.505945
_cell_length_b 22.505945
_cell_length_c 13.892613
_cell_angle_alpha 90.000000
_cell_angle_beta 90.000000
_cell_angle_gamma 90.000000
_cell_volume 7036.852444
_symmetry_space_group_name_H-M "I 4/M M M"
_symmetry_group_IT_number 139
_symmetry_cell_setting 'tetragonal'
loop_
_space_group_symop_operation_xyz
x,y,z
-y,x,z
-x,-y,z
y,-x,z
x,-y,-z
-x,y,-z
y,x,-z
-y,-x,-z
-x,-y,-z
y,-x,-z
x,y,-z
-y,x,-z
-x,y,z
x,-y,z
-y,-x,z
y,x,z
1/2+x,1/2+y,1/2+z
1/2-y,1/2+x,1/2+z
1/2-x,1/2-y,1/2+z
1/2+y,1/2-x,1/2+z
1/2+x,1/2-y,1/2-z
1/2-x,1/2+y,1/2-z
1/2+y,1/2+x,1/2-z
1/2-y,1/2-x,1/2-z
1/2-x,1/2-y,1/2-z
1/2+y,1/2-x,1/2-z
1/2+x,1/2+y,1/2-z
1/2-y,1/2+x,1/2-z
1/2-x,1/2+y,1/2+z
1/2+x,1/2-y,1/2+z
1/2-y,1/2-x,1/2+z
1/2+y,1/2+x,1/2+z
loop_
_atom_site_type_symbol
_atom_site_label
_atom_site_fract_x
_atom_site_fract_y
_atom_site_fract_z
Si Si1 0.430111 0.000000 0.382559
Si Si2 0.571059 0.280212 0.893846
Si Si3 0.745672 0.160593 0.113965
Si Si4 0.069742 0.161595 0.808111
Si Si5 0.354289 0.886285 0.614509
O O1 0.395449 0.059616 0.349203
O O2 0.500000 0.000000 0.358061
O O3 0.426738 0.000000 0.500000
O O4 0.500000 0.273852 0.897583
O O5 0.583276 0.321430 0.803125
O O6 0.596559 0.214747 0.876678
O O7 0.591295 0.300830 0.000000
O O8 0.780442 0.219559 0.152260
O O9 0.790586 0.106517 0.131025
O O10 0.681086 0.141631 0.152820
O O11 0.737917 0.170867 0.000000
O O12 0.097568 0.097568 0.828536
O O13 0.000000 0.165108 0.824551
O O14 0.367950 0.883186 0.500000
#
# Coordination Sequence:
#
# PCOD9571864 Si02
#       5
#    16  32  32  32  32
#     4   9  16  26  44  76 112 146 188 226 258 315
#     4   9  17  32  54  78 107 143 181 219 262 315
#     4   9  19  35  54  79 110 141 178 226 277 327
#     4  10  22  38  56  80 105 136 177 222 276 334
#     4   9  16  29  51  77 108 146 183 222 268 314
#
# _framework density 20.463695000000001
#
# number of rings (size 3 to 8) (size 9 to 14) (size 15 to 20)
#    0.000    2.778    1.111    0.000    0.000    3.778 
#    0.000    6.667    0.000    0.000    0.000    6.222 
#    0.000    0.000    0.000    0.000    0.000    0.000 
#
# Total GULP energy -401439.001174 kJ/mol
# GULP energy per Si atom -5575.541683 kJ/mol
# Density = 2.041712 g / cm^3
# Si number density = 20.463695 Si / 1000 Ang^3
#
#
#
# Elastic Constant Matrix: (Units=GPa)
#
#
# Indices 1 2 3 4 5 6 
#
# 1 246.7699 -45.8695 3.4290 0.0000 0.0000 0.0000
# 2 -45.8695 246.7699 3.4290 0.0000 0.0000 0.0000
# 3 3.4290 3.4290 32.8659 0.0000 0.0000 0.0000
# 4 0.0000 0.0000 0.0000 14.2896 0.0000 0.0000
# 5 0.0000 0.0000 0.0000 0.0000 14.2896 0.0000
# 6 0.0000 0.0000 0.0000 0.0000 0.0000 15.0254
#
#
#
# Elastic Compliance Matrix: (Units=1/GPa)
#
#
# Indices 1 2 3 4 5 6 
#
# 1 0.004206 0.000789 -0.000521 0.000000 0.000000 0.000000
# 2 0.000789 0.004206 -0.000521 0.000000 0.000000 0.000000
# 3 -0.000521 -0.000521 0.030535 0.000000 0.000000 0.000000
# 4 0.000000 0.000000 0.000000 0.069981 0.000000 0.000000
# 5 0.000000 0.000000 0.000000 0.000000 0.069981 0.000000
# 6 0.000000 0.000000 0.000000 0.000000 0.000000 0.066554
#
#
# Mechanical properties :
#
#
# Convention : Reuss Voigt Hill
#
# Bulk Modulus (GPa) = 26.01356 49.82028 37.91692
# Shear Modulus (GPa) = 19.32112 46.41541 32.86826
#
# Velocity S-wave (km/s) = 3.07606 4.76771 4.01206
# Velocity P-wave (km/s) = 5.03546 7.39639 6.32703
#
# Compressibility (1/GPa) = 0.03844149
#
# Stress axis : x y z
#
# Youngs Moduli (GPa) = 237.73986 237.73986 32.74883
#
# Poissons Ratio (x) = -0.18760 0.01707
# Poissons Ratio (y) = -0.18760 0.01707
# Poissons Ratio (z) = 0.12390 0.12390
#
# Static dielectric constant tensor:
#      x y z
#    x 1.738790 0.000000 0.000000 
#    y 0.000000 1.738790 0.000000 
#    z 0.000000 0.000000 1.842580 
# 
# From -- ./inp_files/8197.got.cif
#   From: 2010.05.17/outbox.cif.g08.bks.cpg/sg139_5_cif.got.tgz:8197.got - 2010.05.20 13:14:44.
