data_PCOD9571435
_publ_section_title
;
Structure prediction by ZEFSAII (Michael W. Deem and Ramdas Pophale) SiO2 
 PCOD9571435
Probable space group: I 4/M M M
;
_chemical_formula_sum "Si O2"
_cell_formula_units_Z 192
_cell_length_a 21.341433
_cell_length_b 21.341433
_cell_length_c 23.529675
_cell_angle_alpha 90.000000
_cell_angle_beta 90.000000
_cell_angle_gamma 90.000000
_cell_volume 10716.749598
_symmetry_space_group_name_H-M "I 4/M M M"
_symmetry_group_IT_number 139
_symmetry_cell_setting 'tetragonal'
loop_
_space_group_symop_operation_xyz
x,y,z
-y,x,z
-x,-y,z
y,-x,z
x,-y,-z
-x,y,-z
y,x,-z
-y,-x,-z
-x,-y,-z
y,-x,-z
x,y,-z
-y,x,-z
-x,y,z
x,-y,z
-y,-x,z
y,x,z
1/2+x,1/2+y,1/2+z
1/2-y,1/2+x,1/2+z
1/2-x,1/2-y,1/2+z
1/2+y,1/2-x,1/2+z
1/2+x,1/2-y,1/2-z
1/2-x,1/2+y,1/2-z
1/2+y,1/2+x,1/2-z
1/2-y,1/2-x,1/2-z
1/2-x,1/2-y,1/2-z
1/2+y,1/2-x,1/2-z
1/2+x,1/2+y,1/2-z
1/2-y,1/2+x,1/2-z
1/2-x,1/2+y,1/2+z
1/2+x,1/2-y,1/2+z
1/2-y,1/2-x,1/2+z
1/2+y,1/2+x,1/2+z
loop_
_atom_site_type_symbol
_atom_site_label
_atom_site_fract_x
_atom_site_fract_y
_atom_site_fract_z
Si Si1 0.761989 0.342887 0.436260
Si Si2 0.250847 0.150096 0.724858
Si Si3 0.289090 0.072074 0.172740
Si Si4 0.108697 0.299063 0.398083
Si Si5 0.567031 0.665965 0.067771
Si Si6 0.927789 0.569963 0.854258
O O1 0.756910 0.370331 0.500000
O O2 0.704028 0.295973 0.427324
O O3 0.769536 0.390213 0.383764
O O4 0.826551 0.304193 0.432323
O O5 0.184755 0.184755 0.716412
O O6 0.297762 0.202239 0.750000
O O7 0.252497 0.097435 0.772905
O O8 0.279643 0.125585 0.666459
O O9 0.365119 0.077915 0.181179
O O10 0.275849 0.000000 0.163461
O O11 0.071844 0.239718 0.420782
O O12 0.076861 0.367947 0.396369
O O13 0.500000 0.642656 0.090350
O O14 0.625720 0.625720 0.090175
O O15 0.566712 0.658461 0.000000
O O16 0.922163 0.500000 0.827283
O O17 0.000000 0.572410 0.877526
#
# Coordination Sequence:
#
# PCOD9571435 Si02
#       6
#    32  32  32  32  32  32
#     4  10  19  32  53  78 103 134 172 217 271 325
#     4  11  20  34  53  75 103 135 171 215 267 316
#     4  10  21  35  50  74 104 137 178 217 261 316
#     4  11  20  33  53  78 103 135 177 224 266 316
#     4  10  21  36  54  77 104 134 172 220 273 328
#     4   9  18  32  48  67  97 136 173 209 248 294
#
# _framework density 17.915880000000001
#
# number of rings (size 3 to 8) (size 9 to 14) (size 15 to 20)
#    0.000    1.833    3.333    3.000    0.000    3.167 
#    0.000    1.667    0.000    8.000    0.000   35.000 
#    0.000    5.333    0.000    7.333    0.000    0.000 
#
# Total GULP energy -534555.223431 kJ/mol
# GULP energy per Si atom -5568.283577 kJ/mol
# Density = 1.787510 g / cm^3
# Si number density = 17.915880 Si / 1000 Ang^3
#
#
#
# Elastic Constant Matrix: (Units=GPa)
#
#
# Indices 1 2 3 4 5 6 
#
# 1 90.2667 47.3749 24.1377 0.0000 0.0000 0.0000
# 2 47.3749 90.2634 24.1364 0.0000 0.0000 0.0000
# 3 24.1377 24.1364 80.3212 0.0000 0.0000 0.0000
# 4 0.0000 0.0000 0.0000 10.0337 0.0000 0.0000
# 5 0.0000 0.0000 0.0000 0.0000 10.0340 0.0000
# 6 0.0000 0.0000 0.0000 0.0000 0.0000 18.9613
#
#
#
# Elastic Compliance Matrix: (Units=1/GPa)
#
#
# Indices 1 2 3 4 5 6 
#
# 1 0.015718 -0.007597 -0.002441 0.000000 0.000000 0.000000
# 2 -0.007597 0.015719 -0.002440 0.000000 0.000000 0.000000
# 3 -0.002441 -0.002440 0.013917 0.000000 0.000000 0.000000
# 4 0.000000 0.000000 0.000000 0.099664 0.000000 0.000000
# 5 0.000000 0.000000 0.000000 0.000000 0.099661 0.000000
# 6 0.000000 0.000000 0.000000 0.000000 0.000000 0.052739
#
#
# Mechanical properties :
#
#
# Convention : Reuss Voigt Hill
#
# Bulk Modulus (GPa) = 49.02597 50.23881 49.63239
# Shear Modulus (GPa) = 15.18961 18.81930 17.00446
#
# Velocity S-wave (km/s) = 2.91491 3.24454 3.08413
# Velocity P-wave (km/s) = 6.22518 6.49141 6.35969
#
# Compressibility (1/GPa) = 0.02039735
#
# Stress axis : x y z
#
# Youngs Moduli (GPa) = 63.62094 63.61895 71.85572
#
# Poissons Ratio (x) = 0.48332 0.17537
# Poissons Ratio (y) = 0.48333 0.17536
# Poissons Ratio (z) = 0.15527 0.15526
#
# Static dielectric constant tensor:
#      x y z
#    x 1.637790 0.000000 0.000000 
#    y 0.000000 1.637790 0.000000 
#    z 0.000000 0.000000 1.668030 
# 
# From -- ./inp_files/11977.got.cif
#   From: 2010.05.17/outbox.cif.g08.bks.cpg/sg139_6_cif.got.tgz:11977.got - 2010.05.20 13:14:44.
