data_PCOD9571856
_publ_section_title
;
Structure prediction by ZEFSAII (Michael W. Deem and Ramdas Pophale) SiO2 
 PCOD9571856
Probable space group: I 4/M M M
;
_chemical_formula_sum "Si O2"
_cell_formula_units_Z 168
_cell_length_a 24.740767
_cell_length_b 24.740767
_cell_length_c 14.553647
_cell_angle_alpha 90.000000
_cell_angle_beta 90.000000
_cell_angle_gamma 90.000000
_cell_volume 8908.368127
_symmetry_space_group_name_H-M "I 4/M M M"
_symmetry_group_IT_number 139
_symmetry_cell_setting 'tetragonal'
loop_
_space_group_symop_operation_xyz
x,y,z
-y,x,z
-x,-y,z
y,-x,z
x,-y,-z
-x,y,-z
y,x,-z
-y,-x,-z
-x,-y,-z
y,-x,-z
x,y,-z
-y,x,-z
-x,y,z
x,-y,z
-y,-x,z
y,x,z
1/2+x,1/2+y,1/2+z
1/2-y,1/2+x,1/2+z
1/2-x,1/2-y,1/2+z
1/2+y,1/2-x,1/2+z
1/2+x,1/2-y,1/2-z
1/2-x,1/2+y,1/2-z
1/2+y,1/2+x,1/2-z
1/2-y,1/2-x,1/2-z
1/2-x,1/2-y,1/2-z
1/2+y,1/2-x,1/2-z
1/2+x,1/2+y,1/2-z
1/2-y,1/2+x,1/2-z
1/2-x,1/2+y,1/2+z
1/2+x,1/2-y,1/2+z
1/2-y,1/2-x,1/2+z
1/2+y,1/2+x,1/2+z
loop_
_atom_site_type_symbol
_atom_site_label
_atom_site_fract_x
_atom_site_fract_y
_atom_site_fract_z
Si Si1 0.435474 0.064527 0.250000
Si Si2 0.612345 0.301881 0.610246
Si Si3 0.847425 0.601589 0.893065
Si Si4 0.500000 0.408604 0.000000
Si Si5 0.800037 0.000000 0.790424
Si Si6 0.409445 0.500000 0.800051
Si Si7 0.287274 0.203838 0.111124
Si Si8 0.000000 0.732789 0.603526
O O1 0.500000 0.073283 0.260776
O O2 0.413716 0.099692 0.164603
O O3 0.605473 0.304250 0.500000
O O4 0.641864 0.358137 0.639164
O O5 0.555561 0.288219 0.656607
O O6 0.655979 0.255108 0.630107
O O7 0.815399 0.654220 0.856771
O O8 0.805919 0.551980 0.890090
O O9 0.862151 0.611188 0.000000
O O10 0.551563 0.448438 0.000000
O O11 0.500000 0.381628 0.098949
O O12 0.864250 0.000000 0.775493
O O13 0.771206 0.000000 0.691577
O O14 0.448354 0.448354 0.794139
O O15 0.259851 0.259851 0.144188
O O16 0.291087 0.208751 0.000000
O O17 0.000000 0.757536 0.500000
#
# Coordination Sequence:
#
# PCOD9571856 Si02
#       8
#    16  32  32   8  16  16  32  16
#     4  11  24  38  61  92 120 152 201 248 290 355
#     4   9  19  36  56  84 119 149 185 237 295 346
#     4  10  21  41  63  82 117 159 193 238 304 356
#     4   7  12  26  48  68  86 118 170 230 277 306
#     4  12  22  32  56  81 114 151 193 232 284 360
#     4   9  18  33  52  72  97 137 190 237 276 325
#     4   8  16  34  60  84 108 146 194 238 281 342
#     4  10  24  42  57  80 116 159 191 236 302 354
#
# _framework density 18.858671999999999
#
# number of rings (size 3 to 8) (size 9 to 14) (size 15 to 20)
#    0.000    2.524    0.952    2.571    3.333    0.381 
#    0.000    3.333    0.000    2.286    0.000    4.000 
#    0.000    0.000    0.000    0.000    0.000    0.000 
#
# Total GULP energy -468303.009244 kJ/mol
# GULP energy per Si atom -5575.035824 kJ/mol
# Density = 1.881575 g / cm^3
# Si number density = 18.858672 Si / 1000 Ang^3
#
#
#
# Elastic Constant Matrix: (Units=GPa)
#
#
# Indices 1 2 3 4 5 6 
#
# 1 122.5716 49.4998 40.3647 0.0000 0.0000 0.0000
# 2 49.4998 122.5708 40.3646 0.0000 0.0000 0.0000
# 3 40.3647 40.3646 73.4264 0.0000 0.0000 0.0000
# 4 0.0000 0.0000 0.0000 19.4583 0.0000 0.0000
# 5 0.0000 0.0000 0.0000 0.0000 19.4586 0.0000
# 6 0.0000 0.0000 0.0000 0.0000 0.0000 17.6343
#
#
#
# Elastic Compliance Matrix: (Units=1/GPa)
#
#
# Indices 1 2 3 4 5 6 
#
# 1 0.010758 -0.002927 -0.004305 0.000000 0.000000 0.000000
# 2 -0.002927 0.010758 -0.004305 0.000000 0.000000 0.000000
# 3 -0.004305 -0.004305 0.018352 0.000000 0.000000 0.000000
# 4 0.000000 0.000000 0.000000 0.051392 0.000000 0.000000
# 5 0.000000 0.000000 0.000000 0.000000 0.051391 0.000000
# 6 0.000000 0.000000 0.000000 0.000000 0.000000 0.056708
#
#
# Mechanical properties :
#
#
# Convention : Reuss Voigt Hill
#
# Bulk Modulus (GPa) = 59.54295 64.33633 61.93964
# Shear Modulus (GPa) = 21.92672 23.86623 22.89647
#
# Velocity S-wave (km/s) = 3.41352 3.56129 3.48819
# Velocity P-wave (km/s) = 6.86862 7.14839 7.00990
#
# Compressibility (1/GPa) = 0.01679460
#
# Stress axis : x y z
#
# Youngs Moduli (GPa) = 92.95182 92.95104 54.48877
#
# Poissons Ratio (x) = 0.27206 0.23458
# Poissons Ratio (y) = 0.27206 0.23458
# Poissons Ratio (z) = 0.40017 0.40017
#
# Static dielectric constant tensor:
#      x y z
#    x 1.639680 0.000000 0.000000 
#    y 0.000000 1.639690 0.000000 
#    z 0.000000 0.000000 1.687160 
# 
# From -- ./inp_files/6224.got.cif
#   From: 2010.05.17/outbox.cif.g08.bks.cpg/sg139_4_cif.got.tgz:6224.got - 2010.05.20 13:14:44.
