data_PCOD9571267
_publ_section_title
;
Structure prediction by ZEFSAII (Michael W. Deem and Ramdas Pophale) SiO2 
 PCOD9571267
Probable space group: I 4/M M M
;
_chemical_formula_sum "Si O2"
_cell_formula_units_Z 240
_cell_length_a 21.330655
_cell_length_b 21.330655
_cell_length_c 30.455507
_cell_angle_alpha 90.000000
_cell_angle_beta 90.000000
_cell_angle_gamma 90.000000
_cell_volume 13857.159529
_symmetry_space_group_name_H-M "I 4/M M M"
_symmetry_group_IT_number 139
_symmetry_cell_setting 'tetragonal'
loop_
_space_group_symop_operation_xyz
x,y,z
-y,x,z
-x,-y,z
y,-x,z
x,-y,-z
-x,y,-z
y,x,-z
-y,-x,-z
-x,-y,-z
y,-x,-z
x,y,-z
-y,x,-z
-x,y,z
x,-y,z
-y,-x,z
y,x,z
1/2+x,1/2+y,1/2+z
1/2-y,1/2+x,1/2+z
1/2-x,1/2-y,1/2+z
1/2+y,1/2-x,1/2+z
1/2+x,1/2-y,1/2-z
1/2-x,1/2+y,1/2-z
1/2+y,1/2+x,1/2-z
1/2-y,1/2-x,1/2-z
1/2-x,1/2-y,1/2-z
1/2+y,1/2-x,1/2-z
1/2+x,1/2+y,1/2-z
1/2-y,1/2+x,1/2-z
1/2-x,1/2+y,1/2+z
1/2+x,1/2-y,1/2+z
1/2-y,1/2-x,1/2+z
1/2+y,1/2+x,1/2+z
loop_
_atom_site_type_symbol
_atom_site_label
_atom_site_fract_x
_atom_site_fract_y
_atom_site_fract_z
Si Si1 0.569367 0.903810 0.448792
Si Si2 0.575247 0.316462 0.752560
Si Si3 0.358381 0.253463 0.327207
Si Si4 0.835388 0.429937 0.876056
Si Si5 0.847035 0.256349 0.325135
Si Si6 0.075896 0.570463 0.702409
Si Si7 0.072148 0.738832 0.081364
Si Si8 0.575339 0.675189 0.500000
O O1 0.573862 0.918480 0.500000
O O2 0.500000 0.924942 0.432945
O O3 0.626511 0.929476 0.420850
O O4 0.571746 0.829222 0.441230
O O5 0.500000 0.327974 0.756444
O O6 0.620312 0.379689 0.753159
O O7 0.591330 0.278468 0.707879
O O8 0.602389 0.270454 0.790654
O O9 0.310790 0.310790 0.334474
O O10 0.314388 0.196922 0.309540
O O11 0.388822 0.236955 0.373899
O O12 0.813314 0.500000 0.866457
O O13 0.779890 0.381661 0.868834
O O14 0.886040 0.411654 0.838633
O O15 0.799653 0.200348 0.334181
O O16 0.100577 0.500000 0.695451
O O17 0.095878 0.595878 0.750000
O O18 0.000000 0.566518 0.705869
O O19 0.000000 0.754543 0.092535
O O20 0.094282 0.787227 0.044070
O O21 0.500000 0.672025 0.500000
O O22 0.608544 0.608544 0.500000
#
# Coordination Sequence:
#
# PCOD9571267 Si02
#       8
#    32  32  32  32  32  32  32  16
#     4  10  20  35  53  75 107 142 178 218 256 305
#     4  10  21  37  56  79 107 139 177 220 266 318
#     4  10  19  33  54  78 104 135 174 220 269 316
#     4  11  21  34  53  76 102 135 177 216 259 314
#     4  10  21  37  54  74 105 138 171 213 263 315
#     4   8  15  28  44  66  99 133 164 202 246 294
#     4  10  18  32  51  74 102 135 178 222 264 317
#     4  10  20  33  52  76 105 141 183 235 286 328
#
# _framework density 17.319566999999999
#
# number of rings (size 3 to 8) (size 9 to 14) (size 15 to 20)
#    0.000    2.133    2.000    2.400    0.000    3.933 
#    0.000    2.000    0.000    0.000    0.000    1.867 
#    0.000    1.067    0.000    0.000    0.000    0.000 
#
# Total GULP energy -669116.522142 kJ/mol
# GULP energy per Si atom -5575.971018 kJ/mol
# Density = 1.728015 g / cm^3
# Si number density = 17.319567 Si / 1000 Ang^3
#
#
#
# Elastic Constant Matrix: (Units=GPa)
#
#
# Indices 1 2 3 4 5 6 
#
# 1 76.9250 37.5177 35.4900 0.0000 0.0000 0.0000
# 2 37.5177 76.9250 35.4900 0.0000 0.0000 0.0000
# 3 35.4900 35.4900 82.9195 0.0000 0.0000 0.0000
# 4 0.0000 0.0000 0.0000 21.3117 0.0000 0.0000
# 5 0.0000 0.0000 0.0000 0.0000 21.3117 0.0000
# 6 0.0000 0.0000 0.0000 0.0000 0.0000 14.5359
#
#
#
# Elastic Compliance Matrix: (Units=1/GPa)
#
#
# Indices 1 2 3 4 5 6 
#
# 1 0.018636 -0.006740 -0.005091 0.000000 0.000000 0.000000
# 2 -0.006740 0.018636 -0.005091 0.000000 0.000000 0.000000
# 3 -0.005091 -0.005091 0.016418 0.000000 0.000000 0.000000
# 4 0.000000 0.000000 0.000000 0.046923 0.000000 0.000000
# 5 0.000000 0.000000 0.000000 0.000000 0.046923 0.000000
# 6 0.000000 0.000000 0.000000 0.000000 0.000000 0.068795
#
#
# Mechanical properties :
#
#
# Convention : Reuss Voigt Hill
#
# Bulk Modulus (GPa) = 50.39303 50.41831 50.40567
# Shear Modulus (GPa) = 19.47106 19.98331 19.72718
#
# Velocity S-wave (km/s) = 3.35658 3.40045 3.37859
# Velocity P-wave (km/s) = 6.64691 6.67766 6.66230
#
# Compressibility (1/GPa) = 0.01984402
#
# Stress axis : x y z
#
# Youngs Moduli (GPa) = 53.65986 53.65986 60.90784
#
# Poissons Ratio (x) = 0.36167 0.31011
# Poissons Ratio (y) = 0.36167 0.31011
# Poissons Ratio (z) = 0.27321 0.27321
#
# Static dielectric constant tensor:
#      x y z
#    x 1.614690 0.000000 0.000000 
#    y 0.000000 1.614690 0.000000 
#    z 0.000000 0.000000 1.586310 
# 
# From -- ./inp_files/14643.got.cif
#   From: 2010.05.17/outbox.cif.g08.bks.cpg/sg139_8_cif.got.tgz:14643.got - 2010.05.20 13:14:44.
