data_PCOD9571600
_publ_section_title
;
Structure prediction by ZEFSAII (Michael W. Deem and Ramdas Pophale) SiO2 
 PCOD9571600
Probable space group: I 4/M M M
;
_chemical_formula_sum "Si O2"
_cell_formula_units_Z 192
_cell_length_a 28.853232
_cell_length_b 28.853232
_cell_length_c 13.016037
_cell_angle_alpha 90.000000
_cell_angle_beta 90.000000
_cell_angle_gamma 90.000000
_cell_volume 10835.967906
_symmetry_space_group_name_H-M "I 4/M M M"
_symmetry_group_IT_number 139
_symmetry_cell_setting 'tetragonal'
loop_
_space_group_symop_operation_xyz
x,y,z
-y,x,z
-x,-y,z
y,-x,z
x,-y,-z
-x,y,-z
y,x,-z
-y,-x,-z
-x,-y,-z
y,-x,-z
x,y,-z
-y,x,-z
-x,y,z
x,-y,z
-y,-x,z
y,x,z
1/2+x,1/2+y,1/2+z
1/2-y,1/2+x,1/2+z
1/2-x,1/2-y,1/2+z
1/2+y,1/2-x,1/2+z
1/2+x,1/2-y,1/2-z
1/2-x,1/2+y,1/2-z
1/2+y,1/2+x,1/2-z
1/2-y,1/2-x,1/2-z
1/2-x,1/2-y,1/2-z
1/2+y,1/2-x,1/2-z
1/2+x,1/2+y,1/2-z
1/2-y,1/2+x,1/2-z
1/2-x,1/2+y,1/2+z
1/2+x,1/2-y,1/2+z
1/2-y,1/2-x,1/2+z
1/2+y,1/2+x,1/2+z
loop_
_atom_site_type_symbol
_atom_site_label
_atom_site_fract_x
_atom_site_fract_y
_atom_site_fract_z
Si Si1 0.248611 0.678232 0.802825
Si Si2 0.273825 0.555498 0.500000
Si Si3 0.946290 0.806621 0.616031
Si Si4 0.889217 0.184318 0.186910
Si Si5 0.555781 0.871963 0.721030
Si Si6 0.588714 0.796310 0.114669
Si Si7 0.666426 0.943847 0.000000
O O1 0.288849 0.711152 0.850633
O O2 0.211886 0.711886 0.750000
O O3 0.274970 0.646655 0.718448
O O4 0.221861 0.641493 0.873226
O O5 0.275711 0.500000 0.500000
O O6 0.297822 0.575980 0.398964
O O7 0.220023 0.570480 0.500000
O O8 0.930311 0.818029 0.500000
O O9 0.915807 0.827114 0.707235
O O10 0.941171 0.750788 0.626611
O O11 0.000000 0.819232 0.625917
O O12 0.859019 0.140982 0.150861
O O13 0.500000 0.873297 0.726899
O O14 0.579879 0.920122 0.750000
O O15 0.574969 0.832868 0.798762
O O16 0.570505 0.858026 0.605382
O O17 0.581245 0.814992 0.000000
O O18 0.666203 0.000000 0.000000
#
# Coordination Sequence:
#
# PCOD9571600 Si02
#       7
#    32  16  32  32  32  32  16
#     4   9  18  34  51  73 109 150 188 218 256 314
#     4  11  21  35  57  78 105 143 182 224 276 323
#     4   9  17  31  52  77 106 140 178 220 270 323
#     4  10  20  33  50  76 111 144 180 221 265 315
#     4  11  24  41  60  81 107 137 179 233 289 346
#     4  10  20  33  53  83 111 141 180 227 276 326
#     4   9  20  39  60  81 102 133 175 217 263 327
#
# _framework density 17.718768000000001
#
# number of rings (size 3 to 8) (size 9 to 14) (size 15 to 20)
#    0.000    2.167    0.000    3.750    1.167    3.167 
#    1.500    3.333    0.000    1.500    0.000    0.000 
#    0.000   13.667    0.000    7.333    0.000    0.333 
#
# Total GULP energy -535592.536102 kJ/mol
# GULP energy per Si atom -5579.088918 kJ/mol
# Density = 1.767844 g / cm^3
# Si number density = 17.718768 Si / 1000 Ang^3
#
#
#
# Elastic Constant Matrix: (Units=GPa)
#
#
# Indices 1 2 3 4 5 6 
#
# 1 67.8826 39.5664 42.6376 0.0000 0.0000 0.0000
# 2 39.5664 67.8791 42.6362 0.0000 0.0000 0.0000
# 3 42.6376 42.6362 117.1895 0.0000 0.0000 0.0000
# 4 0.0000 0.0000 0.0000 14.0834 0.0000 0.0000
# 5 0.0000 0.0000 0.0000 0.0000 14.0826 0.0000
# 6 0.0000 0.0000 0.0000 0.0000 0.0000 24.2633
#
#
#
# Elastic Compliance Matrix: (Units=1/GPa)
#
#
# Indices 1 2 3 4 5 6 
#
# 1 0.024201 -0.011116 -0.004761 0.000000 0.000000 0.000000
# 2 -0.011116 0.024202 -0.004761 0.000000 0.000000 0.000000
# 3 -0.004761 -0.004761 0.011997 0.000000 0.000000 0.000000
# 4 0.000000 0.000000 0.000000 0.071006 0.000000 0.000000
# 5 0.000000 0.000000 0.000000 0.000000 0.071010 0.000000
# 6 0.000000 0.000000 0.000000 0.000000 0.000000 0.041214
#
#
# Mechanical properties :
#
#
# Convention : Reuss Voigt Hill
#
# Bulk Modulus (GPa) = 52.28834 55.84794 54.06814
# Shear Modulus (GPa) = 17.16561 19.02661 18.09611
#
# Velocity S-wave (km/s) = 3.11590 3.28046 3.19924
# Velocity P-wave (km/s) = 6.52068 6.77762 6.65039
#
# Compressibility (1/GPa) = 0.01912472
#
# Stress axis : x y z
#
# Youngs Moduli (GPa) = 41.32084 41.31898 83.35142
#
# Poissons Ratio (x) = 0.45931 0.39682
# Poissons Ratio (y) = 0.45933 0.39682
# Poissons Ratio (z) = 0.19672 0.19671
#
# Static dielectric constant tensor:
#      x y z
#    x 1.599380 0.000000 0.000000 
#    y 0.000000 1.599380 0.000000 
#    z 0.000000 0.000000 1.609380 
# 
# From -- ./inp_files/4302.got.cif
#   From: 2010.05.17/outbox.cif.g08.bks.cpg/sg139_3_cif.got.tgz:4302.got - 2010.05.20 13:14:44.
