data_PCOD9571344
_publ_section_title
;
Structure prediction by ZEFSAII (Michael W. Deem and Ramdas Pophale) SiO2 
 PCOD9571344
Probable space group: I 4/M M M
;
_chemical_formula_sum "Si O2"
_cell_formula_units_Z 144
_cell_length_a 17.438709
_cell_length_b 17.438709
_cell_length_c 27.890418
_cell_angle_alpha 90.000000
_cell_angle_beta 90.000000
_cell_angle_gamma 90.000000
_cell_volume 8481.715179
_symmetry_space_group_name_H-M "I 4/M M M"
_symmetry_group_IT_number 139
_symmetry_cell_setting 'tetragonal'
loop_
_space_group_symop_operation_xyz
x,y,z
-y,x,z
-x,-y,z
y,-x,z
x,-y,-z
-x,y,-z
y,x,-z
-y,-x,-z
-x,-y,-z
y,-x,-z
x,y,-z
-y,x,-z
-x,y,z
x,-y,z
-y,-x,z
y,x,z
1/2+x,1/2+y,1/2+z
1/2-y,1/2+x,1/2+z
1/2-x,1/2-y,1/2+z
1/2+y,1/2-x,1/2+z
1/2+x,1/2-y,1/2-z
1/2-x,1/2+y,1/2-z
1/2+y,1/2+x,1/2-z
1/2-y,1/2-x,1/2-z
1/2-x,1/2-y,1/2-z
1/2+y,1/2-x,1/2-z
1/2+x,1/2+y,1/2-z
1/2-y,1/2+x,1/2-z
1/2-x,1/2+y,1/2+z
1/2+x,1/2-y,1/2+z
1/2-y,1/2-x,1/2+z
1/2+y,1/2+x,1/2+z
loop_
_atom_site_type_symbol
_atom_site_label
_atom_site_fract_x
_atom_site_fract_y
_atom_site_fract_z
Si Si1 0.087047 0.210877 0.167038
Si Si2 0.200865 0.331596 0.590245
Si Si3 0.711878 0.088083 0.733504
Si Si4 0.723043 0.408638 0.500000
Si Si5 0.409437 0.281640 0.128356
O O1 0.139316 0.139316 0.153773
O O2 0.119734 0.283467 0.138163
O O3 0.091793 0.226624 0.223517
O O4 0.000000 0.197691 0.153123
O O5 0.262582 0.262582 0.590511
O O6 0.225477 0.384053 0.545784
O O7 0.120689 0.286889 0.593758
O O8 0.645834 0.145834 0.750000
O O9 0.750591 0.105931 0.682513
O O10 0.683797 0.000000 0.731210
O O11 0.706445 0.500000 0.500000
O O12 0.646381 0.353620 0.500000
O O13 0.500000 0.295879 0.123319
O O14 0.357047 0.357047 0.120819
#
# Coordination Sequence:
#
# PCOD9571344 Si02
#       5
#    32  32  32  16  32
#     4  10  19  30  47  71 100 135 172 210 251 297
#     4   9  18  33  53  74 100 136 176 210 247 303
#     4  10  19  31  49  73 103 138 175 213 255 306
#     4  10  20  35  57  83 110 140 174 214 258 304
#     4  10  20  34  54  79 105 135 171 213 261 311
#
# _framework density 16.977696999999999
#
# number of rings (size 3 to 8) (size 9 to 14) (size 15 to 20)
#    0.000    2.222    2.222    1.333    0.000    1.667 
#    0.000    0.556    0.000   11.333    0.000    0.000 
#    0.000    4.444    0.000    0.000    0.000    0.000 
#
# Total GULP energy -400973.181580 kJ/mol
# GULP energy per Si atom -5569.071966 kJ/mol
# Density = 1.693906 g / cm^3
# Si number density = 16.977697 Si / 1000 Ang^3
#
#
#
# Elastic Constant Matrix: (Units=GPa)
#
#
# Indices 1 2 3 4 5 6 
#
# 1 98.1987 72.5762 17.8388 0.0000 0.0000 0.0000
# 2 72.5762 98.1983 17.8388 0.0000 0.0000 0.0000
# 3 17.8388 17.8388 61.1768 0.0000 0.0000 0.0000
# 4 0.0000 0.0000 0.0000 18.6319 0.0000 0.0000
# 5 0.0000 0.0000 0.0000 0.0000 18.6320 0.0000
# 6 0.0000 0.0000 0.0000 0.0000 0.0000 14.7446
#
#
#
# Elastic Compliance Matrix: (Units=1/GPa)
#
#
# Indices 1 2 3 4 5 6 
#
# 1 0.022632 -0.016397 -0.001818 0.000000 0.000000 0.000000
# 2 -0.016397 0.022632 -0.001818 0.000000 0.000000 0.000000
# 3 -0.001818 -0.001818 0.017406 0.000000 0.000000 0.000000
# 4 0.000000 0.000000 0.000000 0.053671 0.000000 0.000000
# 5 0.000000 0.000000 0.000000 0.000000 0.053671 0.000000
# 6 0.000000 0.000000 0.000000 0.000000 0.000000 0.067822
#
#
# Mechanical properties :
#
#
# Convention : Reuss Voigt Hill
#
# Bulk Modulus (GPa) = 44.23891 52.67571 48.45731
# Shear Modulus (GPa) = 17.51709 20.35635 18.93672
#
# Velocity S-wave (km/s) = 3.21560 3.46642 3.34337
# Velocity P-wave (km/s) = 6.31668 6.86405 6.59605
#
# Compressibility (1/GPa) = 0.02260453
#
# Stress axis : x y z
#
# Youngs Moduli (GPa) = 44.18521 44.18506 57.44995
#
# Poissons Ratio (x) = 0.72448 0.10446
# Poissons Ratio (y) = 0.72448 0.10446
# Poissons Ratio (z) = 0.08034 0.08034
#
# Static dielectric constant tensor:
#      x y z
#    x 1.571790 0.000000 0.000000 
#    y 0.000000 1.571790 0.000000 
#    z 0.000000 0.000000 1.601510 
# 
# From -- ./inp_files/11447.got.cif
#   From: 2010.05.17/outbox.cif.g08.bks.cpg/sg139_6_cif.got.tgz:11447.got - 2010.05.20 13:14:44.
