data_PCOD9571391
_publ_section_title
;
Structure prediction by ZEFSAII (Michael W. Deem and Ramdas Pophale) SiO2 
 PCOD9571391
Probable space group: I 4/M M M
;
_chemical_formula_sum "Si O2"
_cell_formula_units_Z 160
_cell_length_a 18.338991
_cell_length_b 18.338991
_cell_length_c 24.477846
_cell_angle_alpha 90.000000
_cell_angle_beta 90.000000
_cell_angle_gamma 90.000000
_cell_volume 8232.354675
_symmetry_space_group_name_H-M "I 4/M M M"
_symmetry_group_IT_number 139
_symmetry_cell_setting 'tetragonal'
loop_
_space_group_symop_operation_xyz
x,y,z
-y,x,z
-x,-y,z
y,-x,z
x,-y,-z
-x,y,-z
y,x,-z
-y,-x,-z
-x,-y,-z
y,-x,-z
x,y,-z
-y,x,-z
-x,y,z
x,-y,z
-y,-x,z
y,x,z
1/2+x,1/2+y,1/2+z
1/2-y,1/2+x,1/2+z
1/2-x,1/2-y,1/2+z
1/2+y,1/2-x,1/2+z
1/2+x,1/2-y,1/2-z
1/2-x,1/2+y,1/2-z
1/2+y,1/2+x,1/2-z
1/2-y,1/2-x,1/2-z
1/2-x,1/2-y,1/2-z
1/2+y,1/2-x,1/2-z
1/2+x,1/2+y,1/2-z
1/2-y,1/2+x,1/2-z
1/2-x,1/2+y,1/2+z
1/2+x,1/2-y,1/2+z
1/2-y,1/2-x,1/2+z
1/2+y,1/2+x,1/2+z
loop_
_atom_site_type_symbol
_atom_site_label
_atom_site_fract_x
_atom_site_fract_y
_atom_site_fract_z
Si Si1 0.651819 0.770032 0.119841
Si Si2 0.295293 0.584387 0.775600
Si Si3 0.083763 0.331385 0.000000
Si Si4 0.299772 0.417925 0.580086
Si Si5 0.280962 0.915428 0.500000
Si Si6 0.916220 0.299563 0.824725
O O1 0.731886 0.731886 0.122830
O O2 0.600709 0.726221 0.161823
O O3 0.623294 0.760760 0.057626
O O4 0.655644 0.851410 0.146274
O O5 0.315894 0.500000 0.768353
O O6 0.359137 0.640864 0.761046
O O7 0.224308 0.597829 0.737365
O O8 0.098718 0.276282 0.049803
O O9 0.132175 0.402215 0.000000
O O10 0.000000 0.350429 0.000000
O O11 0.320969 0.500000 0.564855
O O12 0.360250 0.360250 0.565778
O O13 0.277759 0.416207 0.643109
O O14 0.260331 0.000000 0.500000
O O15 0.000000 0.328683 0.830581
#
# Coordination Sequence:
#
# PCOD9571391 Si02
#       6
#    32  32  16  32  16  32
#     4  11  22  38  61  85 114 154 198 243 294 353
#     4  10  21  37  58  86 118 152 193 244 299 357
#     4  10  21  36  52  71  99 143 190 229 281 343
#     4  10  19  31  50  77 110 147 190 232 274 333
#     4  12  25  38  57  84 111 141 188 249 303 347
#     4  10  20  34  56  86 118 150 192 237 282 343
#
# _framework density 19.435510000000001
#
# number of rings (size 3 to 8) (size 9 to 14) (size 15 to 20)
#    0.000    1.600    2.000    3.600    0.000    3.000 
#    0.000    0.000    0.000    7.200    0.000    5.600 
#    0.000    7.200    0.000    0.000    0.000    0.000 
#
# Total GULP energy -445712.980964 kJ/mol
# GULP energy per Si atom -5571.412262 kJ/mol
# Density = 1.939127 g / cm^3
# Si number density = 19.435510 Si / 1000 Ang^3
#
#
#
# Elastic Constant Matrix: (Units=GPa)
#
#
# Indices 1 2 3 4 5 6 
#
# 1 53.2512 22.5083 7.5413 0.0000 0.0000 0.0000
# 2 22.5083 53.2512 7.5413 0.0000 0.0000 0.0000
# 3 7.5413 7.5413 122.7455 0.0000 0.0000 0.0000
# 4 0.0000 0.0000 0.0000 25.3675 0.0000 0.0000
# 5 0.0000 0.0000 0.0000 0.0000 25.3675 0.0000
# 6 0.0000 0.0000 0.0000 0.0000 0.0000 16.7941
#
#
#
# Elastic Compliance Matrix: (Units=1/GPa)
#
#
# Indices 1 2 3 4 5 6 
#
# 1 0.022945 -0.009582 -0.000821 0.000000 0.000000 0.000000
# 2 -0.009582 0.022945 -0.000821 0.000000 0.000000 0.000000
# 3 -0.000821 -0.000821 0.008248 0.000000 0.000000 0.000000
# 4 0.000000 0.000000 0.000000 0.039420 0.000000 0.000000
# 5 0.000000 0.000000 0.000000 0.000000 0.039420 0.000000
# 6 0.000000 0.000000 0.000000 0.000000 0.000000 0.059545
#
#
# Mechanical properties :
#
#
# Convention : Reuss Voigt Hill
#
# Bulk Modulus (GPa) = 31.55570 33.82554 32.69062
# Shear Modulus (GPa) = 22.16934 26.28296 24.22615
#
# Velocity S-wave (km/s) = 3.38103 3.68137 3.53440
# Velocity P-wave (km/s) = 5.61366 5.95918 5.78900
#
# Compressibility (1/GPa) = 0.03169000
#
# Stress axis : x y z
#
# Youngs Moduli (GPa) = 43.58153 43.58153 121.24415
#
# Poissons Ratio (x) = 0.41761 0.09954
# Poissons Ratio (y) = 0.41761 0.09954
# Poissons Ratio (z) = 0.03578 0.03578
#
# Static dielectric constant tensor:
#      x y z
#    x 1.667820 0.000000 0.000000 
#    y 0.000000 1.667820 0.000000 
#    z 0.000000 0.000000 1.795630 
# 
# From -- ./inp_files/12993.got.cif
#   From: 2010.05.17/outbox.cif.g08.bks.cpg/sg139_7_cif.got.tgz:12993.got - 2010.05.20 13:14:44.
