data_PCOD9571002
_publ_section_title
;
Structure prediction by ZEFSAII (Michael W. Deem and Ramdas Pophale) SiO2 
 PCOD9571002
Probable space group: P 42/N C M
;
_chemical_formula_sum "Si O2"
_cell_formula_units_Z 88
_cell_length_a 11.638296
_cell_length_b 11.638296
_cell_length_c 32.891214
_cell_angle_alpha 90.000000
_cell_angle_beta 90.000000
_cell_angle_gamma 90.000000
_cell_volume 4455.112758
_symmetry_space_group_name_H-M "P 42/N C M"
_symmetry_group_IT_number 138
_space_group.IT_coordinate_system_code '2'
_symmetry_cell_setting 'tetragonal'
loop_
_space_group_symop_operation_xyz
x,y,z
1/2-y,x,1/2+z
1/2-x,1/2-y,z
y,1/2-x,1/2+z
1/2+x,-y,1/2-z
-x,1/2+y,1/2-z
1/2+y,1/2+x,-z
-y,-x,-z
-x,-y,-z
1/2+y,-x,1/2-z
1/2+x,1/2+y,-z
-y,1/2+x,1/2-z
1/2-x,y,1/2+z
x,1/2-y,1/2+z
1/2-y,1/2-x,z
y,x,z
loop_
_atom_site_type_symbol
_atom_site_label
_atom_site_fract_x
_atom_site_fract_y
_atom_site_fract_z
Si Si1 0.120842 0.557676 0.209214
Si Si2 0.470462 0.660966 0.963132
Si Si3 0.348232 0.151769 0.005291
Si Si4 0.457706 0.730863 0.644894
Si Si5 0.156015 0.156015 0.414008
Si Si6 0.885333 0.065167 0.801825
Si Si7 0.750000 0.250000 0.411968
O O1 0.044112 0.645680 0.183307
O O2 0.114219 0.586557 0.256940
O O3 0.249718 0.567717 0.194110
O O4 0.067662 0.432339 0.203478
O O5 0.566898 0.566898 0.947323
O O6 0.542894 0.777241 0.975468
O O7 0.360572 0.699669 0.936113
O O8 0.407193 0.592808 0.000000
O O9 0.250000 0.250000 0.005541
O O10 0.383184 0.116817 0.958973
O O11 0.561273 0.713506 0.614384
O O12 0.443440 0.856017 0.664204
O O13 0.348612 0.703531 0.617295
O O14 0.250000 0.250000 0.423088
O O15 0.939303 0.939303 0.803537
#
# Coordination Sequence:
#
# PCOD9571002 Si02
#       7
#    16  16   8  16   8  16   8
#     4  11  22  41  65  88 124 168 217 265 316 385
#     4  10  22  43  68  96 129 168 222 268 321 402
#     4   9  20  43  71  95 130 173 213 272 339 397
#     4  12  23  40  60  93 131 166 212 264 326 388
#     4  11  24  41  65  97 132 165 209 278 337 383
#     4  11  23  40  65  90 123 173 214 264 323 381
#     4  12  25  38  67  96 132 174 212 270 327 394
#
# _framework density 19.752585
#
# number of rings (size 3 to 8) (size 9 to 14) (size 15 to 20)
#    0.000    1.091    4.545    1.909    0.000    4.000 
#    0.000    2.727    0.000    0.000    0.000    0.000 
#    0.000    0.000    0.000    0.000    0.000    0.000 
#
# Total GULP energy -490537.251024 kJ/mol
# GULP energy per Si atom -5574.286943 kJ/mol
# Density = 1.970763 g / cm^3
# Si number density = 19.752585 Si / 1000 Ang^3
#
#
#
# Elastic Constant Matrix: (Units=GPa)
#
#
# Indices 1 2 3 4 5 6 
#
# 1 47.2494 60.4174 24.5134 0.0000 0.0000 0.0000
# 2 60.4174 47.2500 24.5137 0.0000 0.0000 0.0000
# 3 24.5134 24.5137 78.6602 0.0000 0.0000 0.0000
# 4 0.0000 0.0000 0.0000 8.8426 0.0000 0.0000
# 5 0.0000 0.0000 0.0000 0.0000 8.8451 0.0000
# 6 0.0000 0.0000 0.0000 0.0000 0.0000 30.9583
#
#
#
# Elastic Compliance Matrix: (Units=1/GPa)
#
#
# Indices 1 2 3 4 5 6 
#
# 1 -0.032560 0.043384 -0.003373 0.000000 0.000000 0.000000
# 2 0.043384 -0.032560 -0.003373 0.000000 0.000000 0.000000
# 3 -0.003373 -0.003373 0.014815 0.000000 0.000000 0.000000
# 4 0.000000 0.000000 0.000000 0.113089 0.000000 0.000000
# 5 0.000000 0.000000 0.000000 0.000000 0.113058 0.000000
# 6 0.000000 0.000000 0.000000 0.000000 0.000000 0.032301
#
#
# Mechanical properties :
#
#
# Convention : Reuss Voigt Hill
#
# Bulk Modulus (GPa) = 43.53408 43.56095 43.54751
# Shear Modulus (GPa) = 35.08133 13.97686 24.52910
#
# Velocity S-wave (km/s) = 4.21888 2.66295 3.52777
# Velocity P-wave (km/s) = 6.76901 5.61750 6.21996
#
# Compressibility (1/GPa) = 0.02297051
#
# Stress axis : x y z
#
# Youngs Moduli (GPa) = -30.71255 -30.71292 67.49770
#
# Poissons Ratio (x) = 1.33244 0.22768
# Poissons Ratio (y) = 1.33242 0.22767
# Poissons Ratio (z) = -0.10360 -0.10360
#
# Static dielectric constant tensor:
#      x y z
#    x 1.690750 0.000000 0.000000 
#    y 0.000000 1.690750 0.000000 
#    z 0.000000 0.000000 1.693630 
# 
# From -- ./inp_files/8139.got.cif
#   From: 2010.05.17/outbox.cif.g08.bks.cpg/sg138_5_cif.got.tgz:8139.got - 2010.05.20 13:08:53.
