data_PCOD9571935
_publ_section_title
;
Structure prediction by ZEFSAII (Michael W. Deem and Ramdas Pophale) SiO2 
 PCOD9571935
Probable space group: I 4/M M M
;
_chemical_formula_sum "Si O2"
_cell_formula_units_Z 160
_cell_length_a 23.441517
_cell_length_b 23.441517
_cell_length_c 14.073528
_cell_angle_alpha 90.000000
_cell_angle_beta 90.000000
_cell_angle_gamma 90.000000
_cell_volume 7733.470053
_symmetry_space_group_name_H-M "I 4/M M M"
_symmetry_group_IT_number 139
_symmetry_cell_setting 'tetragonal'
loop_
_space_group_symop_operation_xyz
x,y,z
-y,x,z
-x,-y,z
y,-x,z
x,-y,-z
-x,y,-z
y,x,-z
-y,-x,-z
-x,-y,-z
y,-x,-z
x,y,-z
-y,x,-z
-x,y,z
x,-y,z
-y,-x,z
y,x,z
1/2+x,1/2+y,1/2+z
1/2-y,1/2+x,1/2+z
1/2-x,1/2-y,1/2+z
1/2+y,1/2-x,1/2+z
1/2+x,1/2-y,1/2-z
1/2-x,1/2+y,1/2-z
1/2+y,1/2+x,1/2-z
1/2-y,1/2-x,1/2-z
1/2-x,1/2-y,1/2-z
1/2+y,1/2-x,1/2-z
1/2+x,1/2+y,1/2-z
1/2-y,1/2+x,1/2-z
1/2-x,1/2+y,1/2+z
1/2+x,1/2-y,1/2+z
1/2-y,1/2-x,1/2+z
1/2+y,1/2+x,1/2+z
loop_
_atom_site_type_symbol
_atom_site_label
_atom_site_fract_x
_atom_site_fract_y
_atom_site_fract_z
Si Si1 0.272222 0.817879 0.616003
Si Si2 0.406611 0.062371 0.852726
Si Si3 0.436141 0.343926 0.615823
Si Si4 0.561674 0.809676 0.109041
Si Si5 0.100979 0.281996 0.884554
O O1 0.269503 0.820061 0.500000
O O2 0.218336 0.781664 0.649602
O O3 0.280224 0.882446 0.652074
O O4 0.331752 0.786386 0.637657
O O5 0.434672 0.065329 0.750000
O O6 0.427172 0.122082 0.896850
O O7 0.338212 0.070214 0.844885
O O8 0.418686 0.000000 0.894835
O O9 0.434580 0.344410 0.500000
O O10 0.500000 0.360608 0.644976
O O11 0.387850 0.387850 0.648954
O O12 0.423544 0.278861 0.643919
O O13 0.500000 0.799304 0.153743
O O14 0.559075 0.789698 0.000000
O O15 0.095445 0.286946 0.000000
#
# Coordination Sequence:
#
# PCOD9571935 Si02
#       5
#    32  32  32  32  32
#     4   8  13  23  42  65  85 106 135 174 217 253
#     4  11  22  33  45  62  86 117 149 180 218 262
#     4   9  16  25  40  64  92 120 149 182 221 265
#     4   9  18  31  46  65  88 114 145 180 213 249
#     4   9  17  30  48  67  85 110 150 193 223 251
#
# _framework density 20.68929
#
# number of rings (size 3 to 8) (size 9 to 14) (size 15 to 20)
#    0.000    2.800    0.000    3.600    0.000    6.400 
#    0.000    2.000    0.000   15.000    0.000    0.000 
#    0.000    0.400    0.000    5.600    0.000    0.000 
#
# Total GULP energy -446543.761023 kJ/mol
# GULP energy per Si atom -5581.797013 kJ/mol
# Density = 2.064220 g / cm^3
# Si number density = 20.689290 Si / 1000 Ang^3
#
#
#
# Elastic Constant Matrix: (Units=GPa)
#
#
# Indices 1 2 3 4 5 6 
#
# 1 127.6350 76.7341 15.3383 0.0000 0.0000 0.0000
# 2 76.7341 127.6348 15.3384 0.0000 0.0000 0.0000
# 3 15.3383 15.3384 45.8467 0.0000 0.0000 0.0000
# 4 0.0000 0.0000 0.0000 15.5284 0.0000 0.0000
# 5 0.0000 0.0000 0.0000 0.0000 15.5287 0.0000
# 6 0.0000 0.0000 0.0000 0.0000 0.0000 0.0379
#
#
#
# Elastic Compliance Matrix: (Units=1/GPa)
#
#
# Indices 1 2 3 4 5 6 
#
# 1 0.012399 -0.007247 -0.001724 0.000000 0.000000 0.000000
# 2 -0.007247 0.012399 -0.001724 0.000000 0.000000 0.000000
# 3 -0.001724 -0.001724 0.022965 0.000000 0.000000 0.000000
# 4 0.000000 0.000000 0.000000 0.064398 0.000000 0.000000
# 5 0.000000 0.000000 0.000000 0.000000 0.064397 0.000000
# 6 0.000000 0.000000 0.000000 0.000000 0.000000 26.417909
#
#
# Mechanical properties :
#
#
# Convention : Reuss Voigt Hill
#
# Bulk Modulus (GPa) = 37.91555 57.32645 47.62100
# Shear Modulus (GPa) = 0.18780 19.13270 9.66025
#
# Velocity S-wave (km/s) = 0.30161 3.04429 2.16318
# Velocity P-wave (km/s) = 4.29968 6.33446 5.41353
#
# Compressibility (1/GPa) = 0.02637441
#
# Stress axis : x y z
#
# Youngs Moduli (GPa) = 80.65209 80.65196 43.54439
#
# Poissons Ratio (x) = 0.58449 0.07505
# Poissons Ratio (y) = 0.58450 0.07505
# Poissons Ratio (z) = 0.13901 0.13901
#
# Static dielectric constant tensor:
#      x y z
#    x 1.729020 0.000000 0.000000 
#    y 0.000000 1.729020 0.000000 
#    z 0.000000 0.000000 1.818580 
# 
# From -- ./inp_files/5894.got.cif
#   From: 2010.05.17/outbox.cif.g08.bks.cpg/sg139_3_cif.got.tgz:5894.got - 2010.05.20 13:14:44.
