data_PCOD9571170
_publ_section_title
;
Structure prediction by ZEFSAII (Michael W. Deem and Ramdas Pophale) SiO2 
 PCOD9571170
Probable space group: I 4/M M M
;
_chemical_formula_sum "Si O2"
_cell_formula_units_Z 104
_cell_length_a 17.218892
_cell_length_b 17.218892
_cell_length_c 19.414105
_cell_angle_alpha 90.000000
_cell_angle_beta 90.000000
_cell_angle_gamma 90.000000
_cell_volume 5756.092684
_symmetry_space_group_name_H-M "I 4/M M M"
_symmetry_group_IT_number 139
_symmetry_cell_setting 'tetragonal'
loop_
_space_group_symop_operation_xyz
x,y,z
-y,x,z
-x,-y,z
y,-x,z
x,-y,-z
-x,y,-z
y,x,-z
-y,-x,-z
-x,-y,-z
y,-x,-z
x,y,-z
-y,x,-z
-x,y,z
x,-y,z
-y,-x,z
y,x,z
1/2+x,1/2+y,1/2+z
1/2-y,1/2+x,1/2+z
1/2-x,1/2-y,1/2+z
1/2+y,1/2-x,1/2+z
1/2+x,1/2-y,1/2-z
1/2-x,1/2+y,1/2-z
1/2+y,1/2+x,1/2-z
1/2-y,1/2-x,1/2-z
1/2-x,1/2-y,1/2-z
1/2+y,1/2-x,1/2-z
1/2+x,1/2+y,1/2-z
1/2-y,1/2+x,1/2-z
1/2-x,1/2+y,1/2+z
1/2+x,1/2-y,1/2+z
1/2-y,1/2-x,1/2+z
1/2+y,1/2+x,1/2+z
loop_
_atom_site_type_symbol
_atom_site_label
_atom_site_fract_x
_atom_site_fract_y
_atom_site_fract_z
Si Si1 0.706483 0.000000 0.000000
Si Si2 0.842020 0.645453 0.849103
Si Si3 0.084429 0.500000 0.623816
Si Si4 0.168655 0.701903 0.000000
Si Si5 0.281454 0.592652 0.261175
O O1 0.651294 0.000000 0.933302
O O2 0.744830 0.915681 0.000000
O O3 0.769656 0.612534 0.806775
O O4 0.865945 0.730537 0.821005
O O5 0.919912 0.595650 0.835773
O O6 0.826955 0.651271 0.930443
O O7 0.000000 0.500000 0.590891
O O8 0.236740 0.763261 0.000000
O O9 0.286116 0.500000 0.271305
O O10 0.363657 0.636344 0.257048
#
# Coordination Sequence:
#
# PCOD9571170 Si02
#       5
#     8  32  16  16  32
#     4   8  19  28  44  73 108 134 170 212 261 326
#     4  10  20  36  55  83 110 140 182 226 275 336
#     4  10  17  30  50  78 110 137 166 209 272 333
#     4  10  18  33  55  77 104 143 179 220 277 331
#     4  11  22  38  56  79 110 146 188 231 273 320
#
# _framework density 18.067812
#
# number of rings (size 3 to 8) (size 9 to 14) (size 15 to 20)
#    0.000    1.846    1.538    4.846    0.000    0.308 
#    0.000    2.308    0.000    0.231    0.000    0.000 
#    0.000    3.692    0.000    0.000    0.000    0.000 
#
# Total GULP energy -289935.447625 kJ/mol
# GULP energy per Si atom -5575.681685 kJ/mol
# Density = 1.802669 g / cm^3
# Si number density = 18.067812 Si / 1000 Ang^3
#
#
#
# Elastic Constant Matrix: (Units=GPa)
#
#
# Indices 1 2 3 4 5 6 
#
# 1 67.6427 40.4485 5.9346 0.0000 0.0000 0.0000
# 2 40.4485 67.6445 5.9343 0.0000 0.0000 0.0000
# 3 5.9346 5.9343 106.0903 0.0000 0.0000 0.0000
# 4 0.0000 0.0000 0.0000 32.9884 0.0000 0.0000
# 5 0.0000 0.0000 0.0000 0.0000 32.9870 0.0000
# 6 0.0000 0.0000 0.0000 0.0000 0.0000 13.3401
#
#
#
# Elastic Compliance Matrix: (Units=1/GPa)
#
#
# Indices 1 2 3 4 5 6 
#
# 1 0.023040 -0.013731 -0.000521 0.000000 0.000000 0.000000
# 2 -0.013731 0.023040 -0.000521 0.000000 0.000000 0.000000
# 3 -0.000521 -0.000521 0.009484 0.000000 0.000000 0.000000
# 4 0.000000 0.000000 0.000000 0.030314 0.000000 0.000000
# 5 0.000000 0.000000 0.000000 0.000000 0.030315 0.000000
# 6 0.000000 0.000000 0.000000 0.000000 0.000000 0.074962
#
#
# Mechanical properties :
#
#
# Convention : Reuss Voigt Hill
#
# Bulk Modulus (GPa) = 38.43423 38.44582 38.44002
# Shear Modulus (GPa) = 21.79856 28.46712 25.13284
#
# Velocity S-wave (km/s) = 3.47722 3.97365 3.73370
# Velocity P-wave (km/s) = 6.11881 6.50984 6.31735
#
# Compressibility (1/GPa) = 0.02601848
#
# Stress axis : x y z
#
# Youngs Moduli (GPa) = 43.40230 43.40349 105.43872
#
# Poissons Ratio (x) = 0.59599 0.05491
# Poissons Ratio (y) = 0.59597 0.05489
# Poissons Ratio (z) = 0.02260 0.02260
#
# Static dielectric constant tensor:
#      x y z
#    x 1.630080 0.000000 0.000000 
#    y 0.000000 1.630080 0.000000 
#    z 0.000000 0.000000 1.668700 
# 
# From -- ./inp_files/9749.got.cif
#   From: 2010.05.17/outbox.cif.g08.bks.cpg/sg139_5_cif.got.tgz:9749.got - 2010.05.20 13:14:44.
