data_PCOD9571718
_publ_section_title
;
Structure prediction by ZEFSAII (Michael W. Deem and Ramdas Pophale) SiO2 
 PCOD9571718
Probable space group: I 4/M M M
;
_chemical_formula_sum "Si O2"
_cell_formula_units_Z 144
_cell_length_a 29.799127
_cell_length_b 29.799127
_cell_length_c 8.139194
_cell_angle_alpha 90.000000
_cell_angle_beta 90.000000
_cell_angle_gamma 90.000000
_cell_volume 7227.506357
_symmetry_space_group_name_H-M "I 4/M M M"
_symmetry_group_IT_number 139
_symmetry_cell_setting 'tetragonal'
loop_
_space_group_symop_operation_xyz
x,y,z
-y,x,z
-x,-y,z
y,-x,z
x,-y,-z
-x,y,-z
y,x,-z
-y,-x,-z
-x,-y,-z
y,-x,-z
x,y,-z
-y,x,-z
-x,y,z
x,-y,z
-y,-x,z
y,x,z
1/2+x,1/2+y,1/2+z
1/2-y,1/2+x,1/2+z
1/2-x,1/2-y,1/2+z
1/2+y,1/2-x,1/2+z
1/2+x,1/2-y,1/2-z
1/2-x,1/2+y,1/2-z
1/2+y,1/2+x,1/2-z
1/2-y,1/2-x,1/2-z
1/2-x,1/2-y,1/2-z
1/2+y,1/2-x,1/2-z
1/2+x,1/2+y,1/2-z
1/2-y,1/2+x,1/2-z
1/2-x,1/2+y,1/2+z
1/2+x,1/2-y,1/2+z
1/2-y,1/2-x,1/2+z
1/2+y,1/2+x,1/2+z
loop_
_atom_site_type_symbol
_atom_site_label
_atom_site_fract_x
_atom_site_fract_y
_atom_site_fract_z
Si Si1 0.747681 0.679250 0.698317
Si Si2 0.417409 0.779354 0.303917
Si Si3 0.949766 0.376776 0.694497
Si Si4 0.873634 0.054596 0.500000
Si Si5 0.551968 0.681414 0.683032
O O1 0.746148 0.676571 0.500000
O O2 0.699893 0.699893 0.753574
O O3 0.784731 0.715270 0.750000
O O4 0.764176 0.631374 0.760522
O O5 0.414483 0.786915 0.500000
O O6 0.435221 0.825635 0.231890
O O7 0.446286 0.734499 0.279234
O O8 0.952493 0.381287 0.500000
O O9 0.912274 0.412274 0.750000
O O10 0.000000 0.384766 0.764676
O O11 0.921822 0.078179 0.500000
O O12 0.846743 0.069837 0.336354
O O13 0.875950 0.000000 0.500000
O O14 0.573035 0.675099 0.500000
O O15 0.500000 0.668473 0.669557
#
# Coordination Sequence:
#
# PCOD9571718 Si02
#       5
#    32  32  32  16  32
#     4   9  18  32  48  70 104 144 183 224 273 329
#     4  10  20  35  59  87 114 150 195 245 298 364
#     4  11  25  42  62  88 118 155 199 254 315 377
#     4  10  22  39  60  88 122 162 209 261 313 371
#     4   9  19  36  58  85 118 155 193 244 310 367
#
# _framework density 19.923884999999999
#
# number of rings (size 3 to 8) (size 9 to 14) (size 15 to 20)
#    0.000    2.222    0.000    2.000    1.556    7.000 
#    0.000    3.333    0.000    0.000    0.000    3.111 
#    0.000    0.000    0.000    0.000    0.000    0.000 
#
# Total GULP energy -401349.402756 kJ/mol
# GULP energy per Si atom -5574.297260 kJ/mol
# Density = 1.987854 g / cm^3
# Si number density = 19.923885 Si / 1000 Ang^3
#
#
#
# Elastic Constant Matrix: (Units=GPa)
#
#
# Indices 1 2 3 4 5 6 
#
# 1 98.2121 25.3643 40.1991 0.0000 0.0000 0.0000
# 2 25.3643 98.2229 40.2243 0.0000 0.0000 0.0000
# 3 40.1991 40.2243 72.7332 0.0000 0.0000 0.0000
# 4 0.0000 0.0000 0.0000 7.1671 0.0000 0.0000
# 5 0.0000 0.0000 0.0000 0.0000 7.1751 0.0000
# 6 0.0000 0.0000 0.0000 0.0000 0.0000 32.6448
#
#
#
# Elastic Compliance Matrix: (Units=1/GPa)
#
#
# Indices 1 2 3 4 5 6 
#
# 1 0.013181 -0.000543 -0.006985 0.000000 0.000000 0.000000
# 2 -0.000543 0.013184 -0.006991 0.000000 0.000000 0.000000
# 3 -0.006985 -0.006991 0.021476 0.000000 0.000000 0.000000
# 4 0.000000 0.000000 0.000000 0.139527 0.000000 0.000000
# 5 0.000000 0.000000 0.000000 0.000000 0.139371 0.000000
# 6 0.000000 0.000000 0.000000 0.000000 0.000000 0.030633
#
#
# Mechanical properties :
#
#
# Convention : Reuss Voigt Hill
#
# Bulk Modulus (GPa) = 53.18358 53.41596 53.29977
# Shear Modulus (GPa) = 12.73308 20.28942 16.51125
#
# Velocity S-wave (km/s) = 2.53076 3.19462 2.88187
# Velocity P-wave (km/s) = 5.94062 6.36205 6.15494
#
# Compressibility (1/GPa) = 0.01880280
#
# Stress axis : x y z
#
# Youngs Moduli (GPa) = 75.86518 75.84811 46.56458
#
# Poissons Ratio (x) = 0.04122 0.32524
# Poissons Ratio (y) = 0.04123 0.32553
# Poissons Ratio (z) = 0.52989 0.53026
#
# Static dielectric constant tensor:
#      x y z
#    x 1.717850 0.000000 0.000000 
#    y 0.000000 1.717850 0.000000 
#    z 0.000000 0.000000 1.716160 
# 
# From -- ./inp_files/1980.got.cif
#   From: 2010.05.17/outbox.cif.g08.bks.cpg/sg139_1_cif.got.tgz:1980.got - 2010.05.20 13:14:44.
