data_PCOD9571595
_publ_section_title
;
Structure prediction by ZEFSAII (Michael W. Deem and Ramdas Pophale) SiO2 
 PCOD9571595
Probable space group: I 4/M M M
;
_chemical_formula_sum "Si O2"
_cell_formula_units_Z 96
_cell_length_a 22.914402
_cell_length_b 22.914402
_cell_length_c 8.688989
_cell_angle_alpha 90.000000
_cell_angle_beta 90.000000
_cell_angle_gamma 90.000000
_cell_volume 4562.325882
_symmetry_space_group_name_H-M "I 4/M M M"
_symmetry_group_IT_number 139
_symmetry_cell_setting 'tetragonal'
loop_
_space_group_symop_operation_xyz
x,y,z
-y,x,z
-x,-y,z
y,-x,z
x,-y,-z
-x,y,-z
y,x,-z
-y,-x,-z
-x,-y,-z
y,-x,-z
x,y,-z
-y,x,-z
-x,y,z
x,-y,z
-y,-x,z
y,x,z
1/2+x,1/2+y,1/2+z
1/2-y,1/2+x,1/2+z
1/2-x,1/2-y,1/2+z
1/2+y,1/2-x,1/2+z
1/2+x,1/2-y,1/2-z
1/2-x,1/2+y,1/2-z
1/2+y,1/2+x,1/2-z
1/2-y,1/2-x,1/2-z
1/2-x,1/2-y,1/2-z
1/2+y,1/2-x,1/2-z
1/2+x,1/2+y,1/2-z
1/2-y,1/2+x,1/2-z
1/2-x,1/2+y,1/2+z
1/2+x,1/2-y,1/2+z
1/2-y,1/2-x,1/2+z
1/2+y,1/2+x,1/2+z
loop_
_atom_site_type_symbol
_atom_site_label
_atom_site_fract_x
_atom_site_fract_y
_atom_site_fract_z
Si Si1 0.852006 0.263476 0.320467
Si Si2 0.857070 0.432881 0.323910
Si Si3 0.431931 0.660259 0.314856
O O1 0.842694 0.253502 0.500000
O O2 0.793323 0.293323 0.250000
O O3 0.899503 0.313264 0.286691
O O4 0.884997 0.207502 0.248225
O O5 0.851942 0.411503 0.500000
O O6 0.842853 0.500000 0.325293
O O7 0.919668 0.419668 0.250000
O O8 0.432809 0.667324 0.500000
O O9 0.500000 0.666705 0.262347
O O10 0.402946 0.597055 0.280233
#
# Coordination Sequence:
#
# PCOD9571595 Si02
#       3
#    32  32  32
#     4  11  22  37  60  88 119 156 198 247 303 362
#     4  10  20  33  50  73 104 144 190 241 296 355
#     4  10  22  41  65  93 126 164 206 253 305 363
#
# _framework density 21.041899000000001
#
# number of rings (size 3 to 8) (size 9 to 14) (size 15 to 20)
#    0.000    1.667    0.000    7.000    0.000    9.333 
#    0.000    3.333    0.000    0.000    0.000    2.333 
#    0.000    0.000    0.000    0.000    0.000    0.000 
#
# Total GULP energy -267475.794016 kJ/mol
# GULP energy per Si atom -5572.412375 kJ/mol
# Density = 2.099401 g / cm^3
# Si number density = 21.041899 Si / 1000 Ang^3
#
#
#
# Elastic Constant Matrix: (Units=GPa)
#
#
# Indices 1 2 3 4 5 6 
#
# 1 108.4382 94.9709 44.2142 0.0000 0.0000 0.0000
# 2 94.9709 108.4382 44.2142 0.0000 0.0000 0.0000
# 3 44.2142 44.2142 81.1963 0.0000 0.0000 0.0000
# 4 0.0000 0.0000 0.0000 5.7380 0.0000 0.0000
# 5 0.0000 0.0000 0.0000 0.0000 5.7380 0.0000
# 6 0.0000 0.0000 0.0000 0.0000 0.0000 26.9009
#
#
#
# Elastic Compliance Matrix: (Units=1/GPa)
#
#
# Indices 1 2 3 4 5 6 
#
# 1 0.040347 -0.033906 -0.003507 0.000000 0.000000 0.000000
# 2 -0.033906 0.040347 -0.003507 0.000000 0.000000 0.000000
# 3 -0.003507 -0.003507 0.016136 0.000000 0.000000 0.000000
# 4 0.000000 0.000000 0.000000 0.174275 0.000000 0.000000
# 5 0.000000 0.000000 0.000000 0.000000 0.174275 0.000000
# 6 0.000000 0.000000 0.000000 0.000000 0.000000 0.037174
#
#
# Mechanical properties :
#
#
# Convention : Reuss Voigt Hill
#
# Bulk Modulus (GPa) = 66.71932 73.87460 70.29696
# Shear Modulus (GPa) = 8.78129 15.32029 12.05079
#
# Velocity S-wave (km/s) = 2.04507 2.70123 2.39572
# Velocity P-wave (km/s) = 6.11172 6.70175 6.41352
#
# Compressibility (1/GPa) = 0.01498816
#
# Stress axis : x y z
#
# Youngs Moduli (GPa) = 24.78476 24.78476 61.97499
#
# Poissons Ratio (x) = 0.84036 0.21737
# Poissons Ratio (y) = 0.84036 0.21737
# Poissons Ratio (z) = 0.08693 0.08693
#
# Static dielectric constant tensor:
#      x y z
#    x 1.821030 0.000000 0.000000 
#    y 0.000000 1.821030 0.000000 
#    z 0.000000 0.000000 1.735110 
# 
# From -- ./inp_files/1096.got.cif
#   From: 2010.05.17/outbox.cif.g08.bks.cpg/sg139_1_cif.got.tgz:1096.got - 2010.05.20 13:14:44.
