data_PCOD9571882
_publ_section_title
;
Structure prediction by ZEFSAII (Michael W. Deem and Ramdas Pophale) SiO2 
 PCOD9571882
Probable space group: I 4/M M M
;
_chemical_formula_sum "Si O2"
_cell_formula_units_Z 176
_cell_length_a 23.441446
_cell_length_b 23.441446
_cell_length_c 16.723843
_cell_angle_alpha 90.000000
_cell_angle_beta 90.000000
_cell_angle_gamma 90.000000
_cell_volume 9189.774984
_symmetry_space_group_name_H-M "I 4/M M M"
_symmetry_group_IT_number 139
_symmetry_cell_setting 'tetragonal'
loop_
_space_group_symop_operation_xyz
x,y,z
-y,x,z
-x,-y,z
y,-x,z
x,-y,-z
-x,y,-z
y,x,-z
-y,-x,-z
-x,-y,-z
y,-x,-z
x,y,-z
-y,x,-z
-x,y,z
x,-y,z
-y,-x,z
y,x,z
1/2+x,1/2+y,1/2+z
1/2-y,1/2+x,1/2+z
1/2-x,1/2-y,1/2+z
1/2+y,1/2-x,1/2+z
1/2+x,1/2-y,1/2-z
1/2-x,1/2+y,1/2-z
1/2+y,1/2+x,1/2-z
1/2-y,1/2-x,1/2-z
1/2-x,1/2-y,1/2-z
1/2+y,1/2-x,1/2-z
1/2+x,1/2+y,1/2-z
1/2-y,1/2+x,1/2-z
1/2-x,1/2+y,1/2+z
1/2+x,1/2-y,1/2+z
1/2-y,1/2-x,1/2+z
1/2+y,1/2+x,1/2+z
loop_
_atom_site_type_symbol
_atom_site_label
_atom_site_fract_x
_atom_site_fract_y
_atom_site_fract_z
Si Si1 0.882018 0.791742 0.647774
Si Si2 0.378876 0.000000 0.097499
Si Si3 0.784446 0.118411 0.829927
Si Si4 0.339024 0.436823 0.000000
Si Si5 0.683677 0.177110 0.595161
Si Si6 0.936192 0.617357 0.597372
Si Si7 0.500000 0.745545 0.404473
O O1 0.853414 0.853414 0.657143
O O2 0.897843 0.774903 0.737137
O O3 0.927894 0.799378 0.578018
O O4 0.833830 0.748930 0.615677
O O5 0.414416 0.055130 0.122257
O O6 0.312505 0.000000 0.123288
O O7 0.377167 0.000000 0.000000
O O8 0.840095 0.159906 0.838581
O O9 0.730197 0.154907 0.860882
O O10 0.784423 0.058366 0.876224
O O11 0.363883 0.500000 0.000000
O O12 0.387837 0.387837 0.000000
O O13 0.675056 0.184788 0.500000
O O14 0.657416 0.116134 0.620523
O O15 0.938290 0.618445 0.500000
O O16 0.000000 0.630761 0.626304
O O17 0.500000 0.747133 0.500000
#
# Coordination Sequence:
#
# PCOD9571882 Si02
#       7
#    32  16  32  16  32  32  16
#     4  10  22  40  60  87 122 159 198 247 307 372
#     4   9  15  30  51  74 110 153 196 240 285 331
#     4  11  24  40  62  89 122 161 203 257 319 376
#     4  10  22  41  66  94 126 163 205 253 312 384
#     4  11  20  34  57  88 123 160 207 254 303 365
#     4   9  17  28  46  76 113 155 199 239 282 338
#     4  11  22  39  62  89 123 154 200 255 309 378
#
# _framework density 19.151720000000001
#
# number of rings (size 3 to 8) (size 9 to 14) (size 15 to 20)
#    0.000    1.818    2.727    1.909    1.273    5.545 
#    0.000    0.000    0.000    0.273    0.000    0.636 
#    0.000    0.000    0.000    0.000    0.000    0.182 
#
# Total GULP energy -490572.058935 kJ/mol
# GULP energy per Si atom -5574.682488 kJ/mol
# Density = 1.910813 g / cm^3
# Si number density = 19.151720 Si / 1000 Ang^3
#
#
#
# Elastic Constant Matrix: (Units=GPa)
#
#
# Indices 1 2 3 4 5 6 
#
# 1 84.3007 56.4012 28.6010 0.0000 0.0000 0.0000
# 2 56.4012 84.3007 28.6010 0.0000 0.0000 0.0000
# 3 28.6010 28.6010 91.4201 0.0000 0.0000 0.0000
# 4 0.0000 0.0000 0.0000 -12.4308 0.0000 0.0000
# 5 0.0000 0.0000 0.0000 0.0000 -12.4308 0.0000
# 6 0.0000 0.0000 0.0000 0.0000 0.0000 17.5866
#
#
#
# Elastic Compliance Matrix: (Units=1/GPa)
#
#
# Indices 1 2 3 4 5 6 
#
# 1 0.021993 -0.013850 -0.002548 0.000000 0.000000 0.000000
# 2 -0.013850 0.021993 -0.002548 0.000000 0.000000 0.000000
# 3 -0.002548 -0.002548 0.012533 0.000000 0.000000 0.000000
# 4 0.000000 0.000000 0.000000 -0.080445 0.000000 0.000000
# 5 0.000000 0.000000 0.000000 0.000000 -0.080445 0.000000
# 6 0.000000 0.000000 0.000000 0.000000 0.000000 0.056861
#
#
# Mechanical properties :
#
#
# Convention : Reuss Voigt Hill
#
# Bulk Modulus (GPa) = 53.68198 54.13643 53.90920
# Shear Modulus (GPa) = -1465.82029 8.30621 -728.75704
#
# Velocity S-wave (km/s) = -27.69538 2.08482 -19.52803
# Velocity P-wave (km/s) = 31.53762 5.84156 21.91458
#
# Compressibility (1/GPa) = 0.01862823
#
# Stress axis : x y z
#
# Youngs Moduli (GPa) = 45.46918 45.46918 79.79239
#
# Poissons Ratio (x) = 0.62975 0.20327
# Poissons Ratio (y) = 0.62975 0.20327
# Poissons Ratio (z) = 0.11583 0.11583
#
# Static dielectric constant tensor:
#      x y z
#    x 1.708280 0.000000 0.000000 
#    y 0.000000 1.708280 0.000000 
#    z 0.000000 0.000000 1.696410 
# 
# From -- ./inp_files/6152.got.cif
#   From: 2010.05.17/outbox.cif.g08.bks.cpg/sg139_4_cif.got.tgz:6152.got - 2010.05.20 13:14:44.
