data_PCOD9571481
_publ_section_title
;
Structure prediction by ZEFSAII (Michael W. Deem and Ramdas Pophale) SiO2 
 PCOD9571481
Probable space group: I 4/M M M
;
_chemical_formula_sum "Si O2"
_cell_formula_units_Z 160
_cell_length_a 20.525688
_cell_length_b 20.525688
_cell_length_c 19.491994
_cell_angle_alpha 90.000000
_cell_angle_beta 90.000000
_cell_angle_gamma 90.000000
_cell_volume 8212.052465
_symmetry_space_group_name_H-M "I 4/M M M"
_symmetry_group_IT_number 139
_symmetry_cell_setting 'tetragonal'
loop_
_space_group_symop_operation_xyz
x,y,z
-y,x,z
-x,-y,z
y,-x,z
x,-y,-z
-x,y,-z
y,x,-z
-y,-x,-z
-x,-y,-z
y,-x,-z
x,y,-z
-y,x,-z
-x,y,z
x,-y,z
-y,-x,z
y,x,z
1/2+x,1/2+y,1/2+z
1/2-y,1/2+x,1/2+z
1/2-x,1/2-y,1/2+z
1/2+y,1/2-x,1/2+z
1/2+x,1/2-y,1/2-z
1/2-x,1/2+y,1/2-z
1/2+y,1/2+x,1/2-z
1/2-y,1/2-x,1/2-z
1/2-x,1/2-y,1/2-z
1/2+y,1/2-x,1/2-z
1/2+x,1/2+y,1/2-z
1/2-y,1/2+x,1/2-z
1/2-x,1/2+y,1/2+z
1/2+x,1/2-y,1/2+z
1/2-y,1/2-x,1/2+z
1/2+y,1/2+x,1/2+z
loop_
_atom_site_type_symbol
_atom_site_label
_atom_site_fract_x
_atom_site_fract_y
_atom_site_fract_z
Si Si1 0.676564 0.865762 0.579425
Si Si2 0.225583 0.117548 0.923235
Si Si3 0.925958 0.074043 0.583678
Si Si4 0.173871 0.426597 0.217312
Si Si5 0.678428 0.678428 0.917484
Si Si6 0.426487 0.317662 0.722810
O O1 0.677106 0.887194 0.500000
O O2 0.630402 0.802500 0.584729
O O3 0.662890 0.919804 0.635791
O O4 0.748275 0.839826 0.599434
O O5 0.186718 0.186718 0.921558
O O6 0.199118 0.078357 0.858540
O O7 0.214006 0.090407 0.000000
O O8 0.925357 0.074644 0.500000
O O9 0.873832 0.126169 0.608325
O O10 0.000000 0.089668 0.604283
O O11 0.158368 0.500000 0.240527
O O12 0.127771 0.372229 0.250000
O O13 0.249196 0.414423 0.238352
O O14 0.675461 0.675461 0.000000
O O15 0.500000 0.339486 0.738915
O O16 0.371958 0.371958 0.736733
#
# Coordination Sequence:
#
# PCOD9571481 Si02
#       6
#    32  32  16  32  16  32
#     4  10  19  33  56  87 118 150 189 241 297 347
#     4   9  16  30  55  86 118 152 193 242 298 354
#     4   8  14  25  40  59  91 142 195 232 270 332
#     4  11  24  41  62  89 119 155 201 247 298 357
#     4   9  17  28  48  77 111 144 182 233 294 340
#     4  10  22  38  60  90 121 159 205 246 294 354
#
# _framework density 19.483557999999999
#
# number of rings (size 3 to 8) (size 9 to 14) (size 15 to 20)
#    0.000    2.300    3.000    0.300    1.400    2.400 
#    0.000    2.000    0.000    0.600    0.000    4.200 
#    0.000    0.000    0.000    0.000    0.000    0.000 
#
# Total GULP energy -446242.959383 kJ/mol
# GULP energy per Si atom -5578.036992 kJ/mol
# Density = 1.943921 g / cm^3
# Si number density = 19.483558 Si / 1000 Ang^3
#
#
#
# Elastic Constant Matrix: (Units=GPa)
#
#
# Indices 1 2 3 4 5 6 
#
# 1 77.2489 60.6221 21.0259 0.0000 0.0000 0.0000
# 2 60.6221 77.2549 21.0277 0.0000 0.0000 0.0000
# 3 21.0259 21.0277 108.1501 0.0000 0.0000 0.0000
# 4 0.0000 0.0000 0.0000 12.4609 0.0000 0.0000
# 5 0.0000 0.0000 0.0000 0.0000 12.4610 0.0000
# 6 0.0000 0.0000 0.0000 0.0000 0.0000 13.9652
#
#
#
# Elastic Compliance Matrix: (Units=1/GPa)
#
#
# Indices 1 2 3 4 5 6 
#
# 1 0.033923 -0.026211 -0.001499 0.000000 0.000000 0.000000
# 2 -0.026211 0.033920 -0.001499 0.000000 0.000000 0.000000
# 3 -0.001499 -0.001499 0.009829 0.000000 0.000000 0.000000
# 4 0.000000 0.000000 0.000000 0.080251 0.000000 0.000000
# 5 0.000000 0.000000 0.000000 0.000000 0.080250 0.000000
# 6 0.000000 0.000000 0.000000 0.000000 0.000000 0.071606
#
#
# Mechanical properties :
#
#
# Convention : Reuss Voigt Hill
#
# Bulk Modulus (GPa) = 51.93836 52.00060 51.96948
# Shear Modulus (GPa) = 13.34696 18.44265 15.89480
#
# Velocity S-wave (km/s) = 2.62016 3.07998 2.85933
# Velocity P-wave (km/s) = 5.98908 6.27661 6.13453
#
# Compressibility (1/GPa) = 0.01925359
#
# Stress axis : x y z
#
# Youngs Moduli (GPa) = 29.47861 29.48075 101.73665
#
# Poissons Ratio (x) = 0.77273 0.15248
# Poissons Ratio (y) = 0.77268 0.15253
# Poissons Ratio (z) = 0.04418 0.04420
#
# Static dielectric constant tensor:
#      x y z
#    x 1.666010 0.000000 0.000000 
#    y 0.000000 1.666000 0.000000 
#    z 0.000000 0.000000 1.717080 
# 
# From -- ./inp_files/8473.got.cif
#   From: 2010.05.17/outbox.cif.g08.bks.cpg/sg139_5_cif.got.tgz:8473.got - 2010.05.20 13:14:44.
