data_PCOD9571593
_publ_section_title
;
Structure prediction by ZEFSAII (Michael W. Deem and Ramdas Pophale) SiO2 
 PCOD9571593
Probable space group: I 4/M M M
;
_chemical_formula_sum "Si O2"
_cell_formula_units_Z 112
_cell_length_a 13.531899
_cell_length_b 13.531899
_cell_length_c 36.900270
_cell_angle_alpha 90.000000
_cell_angle_beta 90.000000
_cell_angle_gamma 90.000000
_cell_volume 6756.892961
_symmetry_space_group_name_H-M "I 4/M M M"
_symmetry_group_IT_number 139
_symmetry_cell_setting 'tetragonal'
loop_
_space_group_symop_operation_xyz
x,y,z
-y,x,z
-x,-y,z
y,-x,z
x,-y,-z
-x,y,-z
y,x,-z
-y,-x,-z
-x,-y,-z
y,-x,-z
x,y,-z
-y,x,-z
-x,y,z
x,-y,z
-y,-x,z
y,x,z
1/2+x,1/2+y,1/2+z
1/2-y,1/2+x,1/2+z
1/2-x,1/2-y,1/2+z
1/2+y,1/2-x,1/2+z
1/2+x,1/2-y,1/2-z
1/2-x,1/2+y,1/2-z
1/2+y,1/2+x,1/2-z
1/2-y,1/2-x,1/2-z
1/2-x,1/2-y,1/2-z
1/2+y,1/2-x,1/2-z
1/2+x,1/2+y,1/2-z
1/2-y,1/2+x,1/2-z
1/2-x,1/2+y,1/2+z
1/2+x,1/2-y,1/2+z
1/2-y,1/2-x,1/2+z
1/2+y,1/2+x,1/2+z
loop_
_atom_site_type_symbol
_atom_site_label
_atom_site_fract_x
_atom_site_fract_y
_atom_site_fract_z
Si Si1 0.887309 0.619704 0.357867
Si Si2 0.779050 0.381870 0.567459
Si Si3 0.617764 0.220716 0.716679
Si Si4 0.116814 0.718519 0.500000
O O1 0.891672 0.500000 0.357672
O O2 0.828397 0.646317 0.394138
O O3 0.831694 0.647655 0.321032
O O4 0.000000 0.656699 0.358558
O O5 0.768098 0.500000 0.565728
O O6 0.675546 0.324455 0.563890
O O7 0.848617 0.343089 0.535184
O O8 0.500000 0.233642 0.717118
O O9 0.676793 0.323208 0.719662
O O10 0.652622 0.152622 0.750000
O O11 0.180301 0.819700 0.500000
O O12 0.000000 0.734427 0.500000
#
# Coordination Sequence:
#
# PCOD9571593 Si02
#       4
#    32  32  32  16
#     4   9  17  30  49  71  95 126 164 205 247 289
#     4  10  20  33  50  74 103 135 171 208 248 296
#     4  10  20  33  50  73 100 131 168 208 251 301
#     4  10  21  36  54  76 100 128 165 208 254 304
#
# _framework density 16.575666999999999
#
# number of rings (size 3 to 8) (size 9 to 14) (size 15 to 20)
#    0.000    2.286    0.000    3.000    0.000    4.429 
#    0.000    0.000    0.000    7.714    0.000    0.000 
#    0.000   20.571    0.000    0.000    0.000    0.000 
#
# Total GULP energy -312332.923227 kJ/mol
# GULP energy per Si atom -5577.373629 kJ/mol
# Density = 1.653794 g / cm^3
# Si number density = 16.575667 Si / 1000 Ang^3
#
#
#
# Elastic Constant Matrix: (Units=GPa)
#
#
# Indices 1 2 3 4 5 6 
#
# 1 109.9656 60.3987 51.3667 0.0000 0.0000 0.0000
# 2 60.3987 109.9657 51.3667 0.0000 0.0000 0.0000
# 3 51.3667 51.3667 152.9044 0.0000 0.0000 0.0000
# 4 0.0000 0.0000 0.0000 23.9653 0.0000 0.0000
# 5 0.0000 0.0000 0.0000 0.0000 23.9659 0.0000
# 6 0.0000 0.0000 0.0000 0.0000 0.0000 6.6886
#
#
#
# Elastic Compliance Matrix: (Units=1/GPa)
#
#
# Indices 1 2 3 4 5 6 
#
# 1 0.013768 -0.006407 -0.002473 0.000000 0.000000 0.000000
# 2 -0.006407 0.013768 -0.002473 0.000000 0.000000 0.000000
# 3 -0.002473 -0.002473 0.008201 0.000000 0.000000 0.000000
# 4 0.000000 0.000000 0.000000 0.041727 0.000000 0.000000
# 5 0.000000 0.000000 0.000000 0.000000 0.041726 0.000000
# 6 0.000000 0.000000 0.000000 0.000000 0.000000 0.149509
#
#
# Mechanical properties :
#
#
# Convention : Reuss Voigt Hill
#
# Bulk Modulus (GPa) = 76.73401 77.67777 77.20589
# Shear Modulus (GPa) = 16.90626 24.90419 20.90523
#
# Velocity S-wave (km/s) = 3.19712 3.88036 3.55519
# Velocity P-wave (km/s) = 7.74742 8.18783 7.97066
#
# Compressibility (1/GPa) = 0.01303203
#
# Stress axis : x y z
#
# Youngs Moduli (GPa) = 72.63302 72.63306 121.92917
#
# Poissons Ratio (x) = 0.46535 0.30151
# Poissons Ratio (y) = 0.46535 0.30151
# Poissons Ratio (z) = 0.17961 0.17961
#
# Static dielectric constant tensor:
#      x y z
#    x 1.537110 0.000000 0.000000 
#    y 0.000000 1.537110 0.000000 
#    z 0.000000 0.000000 1.559200 
# 
# From -- ./inp_files/13742.got.cif
#   From: 2010.05.17/outbox.cif.g08.bks.cpg/sg139_7_cif.got.tgz:13742.got - 2010.05.20 13:14:44.
