data_PCOD9571292
_publ_section_title
;
Structure prediction by ZEFSAII (Michael W. Deem and Ramdas Pophale) SiO2 
 PCOD9571292
Probable space group: I 4/M M M
;
_chemical_formula_sum "Si O2"
_cell_formula_units_Z 128
_cell_length_a 30.181789
_cell_length_b 30.181789
_cell_length_c 9.253499
_cell_angle_alpha 90.000000
_cell_angle_beta 90.000000
_cell_angle_gamma 90.000000
_cell_volume 8429.385962
_symmetry_space_group_name_H-M "I 4/M M M"
_symmetry_group_IT_number 139
_symmetry_cell_setting 'tetragonal'
loop_
_space_group_symop_operation_xyz
x,y,z
-y,x,z
-x,-y,z
y,-x,z
x,-y,-z
-x,y,-z
y,x,-z
-y,-x,-z
-x,-y,-z
y,-x,-z
x,y,-z
-y,x,-z
-x,y,z
x,-y,z
-y,-x,z
y,x,z
1/2+x,1/2+y,1/2+z
1/2-y,1/2+x,1/2+z
1/2-x,1/2-y,1/2+z
1/2+y,1/2-x,1/2+z
1/2+x,1/2-y,1/2-z
1/2-x,1/2+y,1/2-z
1/2+y,1/2+x,1/2-z
1/2-y,1/2-x,1/2-z
1/2-x,1/2-y,1/2-z
1/2+y,1/2-x,1/2-z
1/2+x,1/2+y,1/2-z
1/2-y,1/2+x,1/2-z
1/2-x,1/2+y,1/2+z
1/2+x,1/2-y,1/2+z
1/2-y,1/2-x,1/2+z
1/2+y,1/2+x,1/2+z
loop_
_atom_site_type_symbol
_atom_site_label
_atom_site_fract_x
_atom_site_fract_y
_atom_site_fract_z
Si Si1 0.500000 0.253444 0.667800
Si Si2 0.752277 0.910748 0.666090
Si Si3 0.000000 0.645269 0.833989
Si Si4 0.086836 0.645854 0.336522
Si Si5 0.320218 0.244815 0.667908
O O1 0.500000 0.267378 0.500000
O O2 0.455157 0.267646 0.750828
O O3 0.500000 0.199380 0.667344
O O4 0.768426 0.908840 0.500000
O O5 0.698853 0.914279 0.659489
O O6 0.759607 0.865293 0.753253
O O7 0.956434 0.630491 0.749510
O O8 0.000000 0.631236 0.000000
O O9 0.087446 0.629244 0.500000
O O10 0.128976 0.628976 0.250000
O O11 0.328840 0.232867 0.500000
O O12 0.285131 0.285131 0.670612
O O13 0.295638 0.204363 0.750000
#
# Coordination Sequence:
#
# PCOD9571292 Si02
#       5
#    16  32  16  32  32
#     4   9  17  29  45  63  84 108 135 170 212 255
#     4  10  19  30  45  64  86 110 139 175 213 253
#     4   9  17  29  43  58  76  97 121 153 194 238
#     4  10  19  29  42  60  79  99 124 156 195 239
#     4  10  20  32  45  62  86 117 152 187 222 261
#
# _framework density 15.184972999999999
#
# number of rings (size 3 to 8) (size 9 to 14) (size 15 to 20)
#    0.000    2.250    0.000    3.750    0.000    9.500 
#    0.000    0.000    0.000    0.375    0.000    2.625 
#    0.000    0.000    0.000    0.000    0.000    0.625 
#
# Total GULP energy -356815.372228 kJ/mol
# GULP energy per Si atom -5575.240191 kJ/mol
# Density = 1.515041 g / cm^3
# Si number density = 15.184973 Si / 1000 Ang^3
#
#
#
# Elastic Constant Matrix: (Units=GPa)
#
#
# Indices 1 2 3 4 5 6 
#
# 1 58.4690 -0.6776 35.3003 0.0000 0.0000 0.0000
# 2 -0.6776 58.4689 35.3009 0.0000 0.0000 0.0000
# 3 35.3003 35.3009 153.9723 0.0000 0.0000 0.0000
# 4 0.0000 0.0000 0.0000 20.1088 0.0000 0.0000
# 5 0.0000 0.0000 0.0000 0.0000 20.1085 0.0000
# 6 0.0000 0.0000 0.0000 0.0000 0.0000 6.6998
#
#
#
# Elastic Compliance Matrix: (Units=1/GPa)
#
#
# Indices 1 2 3 4 5 6 
#
# 1 0.020471 0.003564 -0.005510 0.000000 0.000000 0.000000
# 2 0.003564 0.020471 -0.005511 0.000000 0.000000 0.000000
# 3 -0.005510 -0.005511 0.009021 0.000000 0.000000 0.000000
# 4 0.000000 0.000000 0.000000 0.049730 0.000000 0.000000
# 5 0.000000 0.000000 0.000000 0.000000 0.049730 0.000000
# 6 0.000000 0.000000 0.000000 0.000000 0.000000 0.149258
#
#
# Mechanical properties :
#
#
# Convention : Reuss Voigt Hill
#
# Bulk Modulus (GPa) = 28.53027 45.63971 37.08499
# Shear Modulus (GPa) = 15.37142 22.78252 19.07697
#
# Velocity S-wave (km/s) = 3.18508 3.87762 3.54829
# Velocity P-wave (km/s) = 5.68820 7.08300 6.42357
#
# Compressibility (1/GPa) = 0.03505049
#
# Stress axis : x y z
#
# Youngs Moduli (GPa) = 48.84884 48.84846 110.84709
#
# Poissons Ratio (x) = -0.17411 0.61082
# Poissons Ratio (y) = -0.17411 0.61083
# Poissons Ratio (z) = 0.26918 0.26918
#
# Static dielectric constant tensor:
#      x y z
#    x 1.502820 0.000000 0.000000 
#    y 0.000000 1.502820 0.000000 
#    z 0.000000 0.000000 1.528220 
# 
# From -- ./inp_files/1780.got.cif
#   From: 2010.05.17/outbox.cif.g08.bks.cpg/sg139_1_cif.got.tgz:1780.got - 2010.05.20 13:14:44.
