data_PCOD9571050
_publ_section_title
;
Structure prediction by ZEFSAII (Michael W. Deem and Ramdas Pophale) SiO2 
 PCOD9571050
Probable space group: P 42/N C M
;
_chemical_formula_sum "Si O2"
_cell_formula_units_Z 96
_cell_length_a 23.868574
_cell_length_b 23.868574
_cell_length_c 11.945715
_cell_angle_alpha 90.000000
_cell_angle_beta 90.000000
_cell_angle_gamma 90.000000
_cell_volume 6805.579254
_symmetry_space_group_name_H-M "P 42/N C M"
_symmetry_group_IT_number 138
_space_group.IT_coordinate_system_code '2'
_symmetry_cell_setting 'tetragonal'
loop_
_space_group_symop_operation_xyz
x,y,z
1/2-y,x,1/2+z
1/2-x,1/2-y,z
y,1/2-x,1/2+z
1/2+x,-y,1/2-z
-x,1/2+y,1/2-z
1/2+y,1/2+x,-z
-y,-x,-z
-x,-y,-z
1/2+y,-x,1/2-z
1/2+x,1/2+y,-z
-y,1/2+x,1/2-z
1/2-x,y,1/2+z
x,1/2-y,1/2+z
1/2-y,1/2-x,z
y,x,z
loop_
_atom_site_type_symbol
_atom_site_label
_atom_site_fract_x
_atom_site_fract_y
_atom_site_fract_z
Si Si1 0.427035 0.680938 0.237044
Si Si2 0.219373 0.631213 0.485819
Si Si3 0.423176 0.987981 0.336265
Si Si4 0.300455 0.951190 0.694554
Si Si5 0.155474 0.876758 0.390738
Si Si6 0.014780 0.104088 0.089079
O O1 0.401894 0.687420 0.113170
O O2 0.464713 0.625671 0.241249
O O3 0.460940 0.736829 0.266755
O O4 0.373846 0.671922 0.318343
O O5 0.191607 0.691607 0.500000
O O6 0.206890 0.596035 0.598105
O O7 0.283343 0.634981 0.443884
O O8 0.466091 0.937654 0.365521
O O9 0.460859 0.039141 0.292635
O O10 0.396633 0.007076 0.454985
O O11 0.333719 0.925921 0.801249
O O12 0.335937 0.001715 0.642379
O O13 0.116155 0.883846 0.500000
O O14 0.073460 0.073460 0.115173
#
# Coordination Sequence:
#
# PCOD9571050 Si02
#       6
#    16  16  16  16  16  16
#     4  11  20  32  47  65  93 120 154 195 234 280
#     4  11  20  32  46  59  83 122 165 195 230 254
#     4   9  16  28  50  71  88 112 151 203 237 268
#     4  11  20  32  49  63  91 125 147 195 239 269
#     4  11  22  32  40  63  87 121 159 190 225 277
#     4   9  16  28  49  74  90 110 155 202 241 272
#
# _framework density 14.106073
#
# number of rings (size 3 to 8) (size 9 to 14) (size 15 to 20)
#    0.000    1.667    6.667    1.000    0.000    0.333 
#    0.000    0.000    0.000    2.000    0.000    0.000 
#    0.000    0.667    0.000    3.667    0.000    0.000 
#
# Total GULP energy -534501.545670 kJ/mol
# GULP energy per Si atom -5567.724434 kJ/mol
# Density = 1.407397 g / cm^3
# Si number density = 14.106073 Si / 1000 Ang^3
#
#
#
# Elastic Constant Matrix: (Units=GPa)
#
#
# Indices 1 2 3 4 5 6 
#
# 1 54.7134 31.6564 13.2585 0.0000 0.0000 0.0000
# 2 31.6564 54.7132 13.2584 0.0000 0.0000 0.0000
# 3 13.2585 13.2584 62.8882 0.0000 0.0000 0.0000
# 4 0.0000 0.0000 0.0000 14.0517 0.0000 0.0000
# 5 0.0000 0.0000 0.0000 0.0000 14.0518 0.0000
# 6 0.0000 0.0000 0.0000 0.0000 0.0000 24.3129
#
#
#
# Elastic Compliance Matrix: (Units=1/GPa)
#
#
# Indices 1 2 3 4 5 6 
#
# 1 0.027875 -0.015496 -0.002610 0.000000 0.000000 0.000000
# 2 -0.015496 0.027875 -0.002610 0.000000 0.000000 0.000000
# 3 -0.002610 -0.002610 0.017002 0.000000 0.000000 0.000000
# 4 0.000000 0.000000 0.000000 0.071166 0.000000 0.000000
# 5 0.000000 0.000000 0.000000 0.000000 0.071165 0.000000
# 6 0.000000 0.000000 0.000000 0.000000 0.000000 0.041130
#
#
# Mechanical properties :
#
#
# Convention : Reuss Voigt Hill
#
# Bulk Modulus (GPa) = 31.92755 32.07351 32.00053
# Shear Modulus (GPa) = 16.22929 18.09271 17.16100
#
# Velocity S-wave (km/s) = 3.39561 3.58525 3.49172
# Velocity P-wave (km/s) = 6.16900 6.31866 6.24428
#
# Compressibility (1/GPa) = 0.03132091
#
# Stress axis : x y z
#
# Youngs Moduli (GPa) = 35.87429 35.87417 58.81768
#
# Poissons Ratio (x) = 0.55590 0.15351
# Poissons Ratio (y) = 0.55590 0.15351
# Poissons Ratio (z) = 0.09363 0.09363
#
# Static dielectric constant tensor:
#      x y z
#    x 1.469920 0.000000 0.000000 
#    y 0.000000 1.469920 0.000000 
#    z 0.000000 0.000000 1.498840 
# 
# From -- ./inp_files/3205.got.cif
#   From: 2010.05.17/outbox.cif.g08.bks.cpg/sg138_2_cif.got.tgz:3205.got - 2010.05.20 13:08:53.
