data_PCOD9571971
_publ_section_title
;
Structure prediction by ZEFSAII (Michael W. Deem and Ramdas Pophale) SiO2 
 PCOD9571971
Probable space group: I 4/M M M
;
_chemical_formula_sum "Si O2"
_cell_formula_units_Z 120
_cell_length_a 21.000000
_cell_length_b 21.000000
_cell_length_c 30.000000
_cell_angle_alpha 90.000000
_cell_angle_beta 90.000000
_cell_angle_gamma 90.000000
_cell_volume 13230.000000
_symmetry_space_group_name_H-M "I 4/M M M"
_symmetry_group_IT_number 139
_symmetry_cell_setting 'tetragonal'
loop_
_space_group_symop_operation_xyz
x,y,z
-y,x,z
-x,-y,z
y,-x,z
x,-y,-z
-x,y,-z
y,x,-z
-y,-x,-z
-x,-y,-z
y,-x,-z
x,y,-z
-y,x,-z
-x,y,z
x,-y,z
-y,-x,z
y,x,z
1/2+x,1/2+y,1/2+z
1/2-y,1/2+x,1/2+z
1/2-x,1/2-y,1/2+z
1/2+y,1/2-x,1/2+z
1/2+x,1/2-y,1/2-z
1/2-x,1/2+y,1/2-z
1/2+y,1/2+x,1/2-z
1/2-y,1/2-x,1/2-z
1/2-x,1/2-y,1/2-z
1/2+y,1/2-x,1/2-z
1/2+x,1/2+y,1/2-z
1/2-y,1/2+x,1/2-z
1/2-x,1/2+y,1/2+z
1/2+x,1/2-y,1/2+z
1/2-y,1/2-x,1/2+z
1/2+y,1/2+x,1/2+z
loop_
_atom_site_type_symbol
_atom_site_label
_atom_site_fract_x
_atom_site_fract_y
_atom_site_fract_z
Si Si1 0.119495 0.776433 0.715630
Si Si2 0.324671 0.572053 0.696243
Si Si3 0.134327 0.365674 0.750000
Si Si4 0.572192 0.150749 0.077423
Si Si5 0.575092 0.189366 0.548313
Si Si6 0.242940 0.859415 0.380113
Si Si7 0.572413 0.071737 0.168486
Si Si8 0.650829 0.246960 0.628954
O O1 0.187576 0.812425 0.718232
O O2 0.075525 0.812298 0.750915
O O3 0.124441 0.704724 0.731919
O O4 0.101512 0.776874 0.663752
O O5 0.325861 0.500000 0.680438
O O6 0.389182 0.610819 0.686712
O O7 0.268491 0.611779 0.672152
O O8 0.088720 0.381447 0.791424
O O9 0.500000 0.147958 0.062030
O O10 0.621130 0.109339 0.049535
O O11 0.598109 0.222249 0.083331
O O12 0.575591 0.119487 0.127076
O O13 0.587942 0.219668 0.500000
O O14 0.500000 0.181973 0.553452
O O15 0.604231 0.226862 0.589661
O O16 0.184050 0.815951 0.395378
O O17 0.297915 0.809236 0.364012
O O18 0.500000 0.075163 0.186186
O O19 0.583933 0.000000 0.152090
O O20 0.692543 0.307458 0.614911
#
# Coordination Sequence:
#
# PCOD9571971 Si02
#       8
#    32  32  16  32  32  32  32  32
#     4  10  20  31  44  67  95 121 154 197 242 289
#     4  10  21  34  49  70  95 126 164 204 247 295
#     4  12  19  29  44  64  86 124 160 193 239 284
#     4  10  20  35  51  70  95 128 166 202 241 287
#     4  10  21  35  51  73  99 130 166 201 242 295
#     4   9  17  33  52  72  98 126 158 200 247 288
#     4  10  21  33  42  59  91 126 161 199 236 276
#     4   9  18  33  53  76  98 123 158 204 256 299
#
# _framework density 9.0702949999999998
#
# number of rings (size 3 to 8) (size 9 to 14) (size 15 to 20)
#    0.000    2.133    1.333    2.200    1.867    5.733 
#    0.000    0.667    0.000    0.000    0.000    0.000 
#    0.000    0.267    0.000   12.400    0.000    0.000 
#
# Total GULP energy -669173.812060 kJ/mol
# GULP energy per Si atom -5576.448434 kJ/mol
# Density = 0.904965 g / cm^3
# Si number density = 9.070295 Si / 1000 Ang^3
#
#
#
# Elastic Constant Matrix: (Units=GPa)
#
#
# Indices 1 2 3 4 5 6 
#
# 1 50.7636 15.4880 13.0754 0.0000 0.0000 0.0000
# 2 15.4880 50.7629 13.0752 0.0000 0.0000 0.0000
# 3 13.0754 13.0752 57.4644 0.0000 0.0000 0.0000
# 4 0.0000 0.0000 0.0000 6.8451 0.0000 0.0000
# 5 0.0000 0.0000 0.0000 0.0000 6.8446 0.0000
# 6 0.0000 0.0000 0.0000 0.0000 0.0000 8.0766
#
#
#
# Elastic Compliance Matrix: (Units=1/GPa)
#
#
# Indices 1 2 3 4 5 6 
#
# 1 0.022466 -0.005883 -0.003773 0.000000 0.000000 0.000000
# 2 -0.005883 0.022466 -0.003773 0.000000 0.000000 0.000000
# 3 -0.003773 -0.003773 0.019119 0.000000 0.000000 0.000000
# 4 0.000000 0.000000 0.000000 0.146090 0.000000 0.000000
# 5 0.000000 0.000000 0.000000 0.000000 0.146100 0.000000
# 6 0.000000 0.000000 0.000000 0.000000 0.000000 0.123814
#
#
# Mechanical properties :
#
#
# Convention : Reuss Voigt Hill
#
# Bulk Modulus (GPa) = 26.88696 26.91867 26.90282
# Shear Modulus (GPa) = 9.62814 12.17675 10.90244
#
# Velocity S-wave (km/s) = 2.30630 2.59365 2.45418
# Velocity P-wave (km/s) = 4.68462 4.88267 4.78467
#
# Compressibility (1/GPa) = 0.03719275
#
# Stress axis : x y z
#
# Youngs Moduli (GPa) = 44.51198 44.51139 52.30335
#
# Poissons Ratio (x) = 0.26184 0.19736
# Poissons Ratio (y) = 0.26184 0.19736
# Poissons Ratio (z) = 0.16796 0.16796
#
# Static dielectric constant tensor:
#      x y z
#    x 1.636130 0.000000 0.000000 
#    y 0.000000 1.636130 0.000000 
#    z 0.000000 0.000000 1.641110 
# 
# From -- ./inp_files/14617.got.cif
#   From: 2010.05.17/outbox.ucp.g08.bks.cvg/sg139_8_cif.got.tgz:14617.got - 2010.06.11 11:42:03.
