data_PCOD9571750
_publ_section_title
;
Structure prediction by ZEFSAII (Michael W. Deem and Ramdas Pophale) SiO2 
 PCOD9571750
Probable space group: I 4/M M M
;
_chemical_formula_sum "Si O2"
_cell_formula_units_Z 96
_cell_length_a 16.081136
_cell_length_b 16.081136
_cell_length_c 21.083996
_cell_angle_alpha 90.000000
_cell_angle_beta 90.000000
_cell_angle_gamma 90.000000
_cell_volume 5452.383248
_symmetry_space_group_name_H-M "I 4/M M M"
_symmetry_group_IT_number 139
_symmetry_cell_setting 'tetragonal'
loop_
_space_group_symop_operation_xyz
x,y,z
-y,x,z
-x,-y,z
y,-x,z
x,-y,-z
-x,y,-z
y,x,-z
-y,-x,-z
-x,-y,-z
y,-x,-z
x,y,-z
-y,x,-z
-x,y,z
x,-y,z
-y,-x,z
y,x,z
1/2+x,1/2+y,1/2+z
1/2-y,1/2+x,1/2+z
1/2-x,1/2-y,1/2+z
1/2+y,1/2-x,1/2+z
1/2+x,1/2-y,1/2-z
1/2-x,1/2+y,1/2-z
1/2+y,1/2+x,1/2-z
1/2-y,1/2-x,1/2-z
1/2-x,1/2-y,1/2-z
1/2+y,1/2-x,1/2-z
1/2+x,1/2+y,1/2-z
1/2-y,1/2+x,1/2-z
1/2-x,1/2+y,1/2+z
1/2+x,1/2-y,1/2+z
1/2-y,1/2-x,1/2+z
1/2+y,1/2+x,1/2+z
loop_
_atom_site_type_symbol
_atom_site_label
_atom_site_fract_x
_atom_site_fract_y
_atom_site_fract_z
Si Si1 0.648620 0.148620 0.750000
Si Si2 0.296630 0.703371 0.331986
Si Si3 0.747097 0.500000 0.924997
Si Si4 0.000000 0.399819 0.342510
Si Si5 0.318800 0.681201 0.077811
Si Si6 0.098703 0.098703 0.070800
O O1 0.649659 0.236230 0.713199
O O2 0.579092 0.130502 0.802282
O O3 0.240445 0.759556 0.379934
O O4 0.353398 0.646603 0.375305
O O5 0.843633 0.500000 0.904958
O O6 0.703733 0.586081 0.904482
O O7 0.741228 0.500000 0.000000
O O8 0.000000 0.500000 0.349830
O O9 0.308511 0.691490 0.000000
O O10 0.000000 0.112746 0.075417
O O11 0.125596 0.125596 0.000000
#
# Coordination Sequence:
#
# PCOD9571750 Si02
#       6
#    16  16  16  16  16  16
#     4  11  23  36  56  86 111 153 194 228 286 349
#     4  11  22  36  60  85 112 153 190 246 288 340
#     4  10  22  40  62  86 117 151 195 246 291 344
#     4  12  22  39  61  83 120 159 190 235 291 349
#     4  10  20  37  60  85 115 150 191 242 289 341
#     4   9  20  39  60  84 116 152 192 242 296 350
#
# _framework density 17.606978999999999
#
# number of rings (size 3 to 8) (size 9 to 14) (size 15 to 20)
#    0.000    1.500    5.000    1.000    2.333    0.667 
#    0.000    1.667    0.000    0.000    0.000    0.000 
#    0.000    0.000    0.000    0.000    0.000    0.000 
#
# Total GULP energy -267577.868761 kJ/mol
# GULP energy per Si atom -5574.538933 kJ/mol
# Density = 1.756690 g / cm^3
# Si number density = 17.606979 Si / 1000 Ang^3
#
#
#
# Elastic Constant Matrix: (Units=GPa)
#
#
# Indices 1 2 3 4 5 6 
#
# 1 67.7763 80.0892 23.4446 0.0000 0.0000 0.0000
# 2 80.0892 67.7763 23.4448 0.0000 0.0000 0.0000
# 3 23.4446 23.4448 30.1330 0.0000 0.0000 0.0000
# 4 0.0000 0.0000 0.0000 20.9425 0.0000 0.0000
# 5 0.0000 0.0000 0.0000 0.0000 20.9425 0.0000
# 6 0.0000 0.0000 0.0000 0.0000 0.0000 24.5372
#
#
#
# Elastic Compliance Matrix: (Units=1/GPa)
#
#
# Indices 1 2 3 4 5 6 
#
# 1 -0.036119 0.045097 -0.006986 0.000000 0.000000 0.000000
# 2 0.045097 -0.036119 -0.006985 0.000000 0.000000 0.000000
# 3 -0.006986 -0.006985 0.044056 0.000000 0.000000 0.000000
# 4 0.000000 0.000000 0.000000 0.047750 0.000000 0.000000
# 5 0.000000 0.000000 0.000000 0.000000 0.047750 0.000000
# 6 0.000000 0.000000 0.000000 0.000000 0.000000 0.040754
#
#
# Mechanical properties :
#
#
# Convention : Reuss Voigt Hill
#
# Bulk Modulus (GPa) = 29.35060 46.62696 37.98878
# Shear Modulus (GPa) = 87.44879 15.86492 51.65685
#
# Velocity S-wave (km/s) = 7.05514 3.00502 5.42241
# Velocity P-wave (km/s) = 9.11442 6.21126 7.79912
#
# Compressibility (1/GPa) = 0.03407086
#
# Stress axis : x y z
#
# Youngs Moduli (GPa) = -27.68648 -27.68627 22.69847
#
# Poissons Ratio (x) = 1.24856 0.15856
# Poissons Ratio (y) = 1.24857 0.15855
# Poissons Ratio (z) = -0.19341 -0.19339
#
# Static dielectric constant tensor:
#      x y z
#    x 1.599020 0.000000 0.000000 
#    y 0.000000 1.599020 0.000000 
#    z 0.000000 0.000000 1.609670 
# 
# From -- ./inp_files/9513.got.cif
#   From: 2010.05.17/outbox.cif.g08.bks.cpg/sg139_5_cif.got.tgz:9513.got - 2010.05.20 13:14:44.
