data_PCOD9571517
_publ_section_title
;
Structure prediction by ZEFSAII (Michael W. Deem and Ramdas Pophale) SiO2 
 PCOD9571517
Probable space group: I 4/M M M
;
_chemical_formula_sum "Si O2"
_cell_formula_units_Z 176
_cell_length_a 18.750769
_cell_length_b 18.750769
_cell_length_c 27.122089
_cell_angle_alpha 90.000000
_cell_angle_beta 90.000000
_cell_angle_gamma 90.000000
_cell_volume 9535.891563
_symmetry_space_group_name_H-M "I 4/M M M"
_symmetry_group_IT_number 139
_symmetry_cell_setting 'tetragonal'
loop_
_space_group_symop_operation_xyz
x,y,z
-y,x,z
-x,-y,z
y,-x,z
x,-y,-z
-x,y,-z
y,x,-z
-y,-x,-z
-x,-y,-z
y,-x,-z
x,y,-z
-y,x,-z
-x,y,z
x,-y,z
-y,-x,z
y,x,z
1/2+x,1/2+y,1/2+z
1/2-y,1/2+x,1/2+z
1/2-x,1/2-y,1/2+z
1/2+y,1/2-x,1/2+z
1/2+x,1/2-y,1/2-z
1/2-x,1/2+y,1/2-z
1/2+y,1/2+x,1/2-z
1/2-y,1/2-x,1/2-z
1/2-x,1/2-y,1/2-z
1/2+y,1/2-x,1/2-z
1/2+x,1/2+y,1/2-z
1/2-y,1/2+x,1/2-z
1/2-x,1/2+y,1/2+z
1/2+x,1/2-y,1/2+z
1/2-y,1/2-x,1/2+z
1/2+y,1/2+x,1/2+z
loop_
_atom_site_type_symbol
_atom_site_label
_atom_site_fract_x
_atom_site_fract_y
_atom_site_fract_z
Si Si1 0.917841 0.193780 0.636986
Si Si2 0.082758 0.500000 0.941202
Si Si3 0.194223 0.079689 0.753572
Si Si4 0.801153 0.801153 0.059595
Si Si5 0.849973 0.418484 0.298133
Si Si6 0.641642 0.164154 0.900516
Si Si7 0.081740 0.918261 0.939980
O O1 0.881462 0.118539 0.628489
O O2 0.909459 0.210116 0.695409
O O3 0.880451 0.254072 0.605567
O O4 0.000000 0.193370 0.625449
O O5 0.122612 0.425525 0.926027
O O6 0.000000 0.500000 0.922673
O O7 0.080402 0.500000 0.000000
O O8 0.138639 0.138639 0.769905
O O9 0.267451 0.084236 0.782536
O O10 0.164163 0.000000 0.758563
O O11 0.722595 0.829709 0.077634
O O12 0.860119 0.860119 0.075633
O O13 0.798474 0.798474 0.000000
O O14 0.869614 0.500000 0.309714
O O15 0.892829 0.392829 0.250000
O O16 0.858013 0.370264 0.346039
O O17 0.000000 0.901636 0.924677
O O18 0.081989 0.918012 0.000000
#
# Coordination Sequence:
#
# PCOD9571517 Si02
#       7
#    32  16  32  16  32  32  16
#     4  10  19  35  58  88 118 156 200 250 299 364
#     4  11  26  46  66  88 123 169 215 265 320 382
#     4   9  19  34  55  83 119 156 198 240 294 358
#     4  11  25  42  66  97 126 162 215 275 324 382
#     4  11  24  38  58  89 124 164 207 255 307 377
#     4  12  23  40  64  91 124 163 211 256 319 380
#     4   8  16  35  64  93 119 151 193 250 320 380
#
# _framework density 18.456585
#
# number of rings (size 3 to 8) (size 9 to 14) (size 15 to 20)
#    0.000    1.636    3.636    1.364    2.545    2.364 
#    0.000    3.636    0.000    0.000    0.000    0.000 
#    0.000    1.455    0.000    0.000    0.000    0.000 
#
# Total GULP energy -490479.716278 kJ/mol
# GULP energy per Si atom -5573.633140 kJ/mol
# Density = 1.841458 g / cm^3
# Si number density = 18.456585 Si / 1000 Ang^3
#
#
#
# Elastic Constant Matrix: (Units=GPa)
#
#
# Indices 1 2 3 4 5 6 
#
# 1 218.7364 -66.4739 31.5523 0.0000 0.0000 0.0000
# 2 -66.4739 218.7365 31.5525 0.0000 0.0000 0.0000
# 3 31.5523 31.5525 43.2338 0.0000 0.0000 0.0000
# 4 0.0000 0.0000 0.0000 15.0978 0.0000 0.0000
# 5 0.0000 0.0000 0.0000 0.0000 15.0978 0.0000
# 6 0.0000 0.0000 0.0000 0.0000 0.0000 36.3083
#
#
#
# Elastic Compliance Matrix: (Units=1/GPa)
#
#
# Indices 1 2 3 4 5 6 
#
# 1 0.006461 0.002955 -0.006871 0.000000 0.000000 0.000000
# 2 0.002955 0.006461 -0.006872 0.000000 0.000000 0.000000
# 3 -0.006871 -0.006872 0.033160 0.000000 0.000000 0.000000
# 4 0.000000 0.000000 0.000000 0.066235 0.000000 0.000000
# 5 0.000000 0.000000 0.000000 0.000000 0.066235 0.000000
# 6 0.000000 0.000000 0.000000 0.000000 0.000000 0.027542
#
#
# Mechanical properties :
#
#
# Convention : Reuss Voigt Hill
#
# Bulk Modulus (GPa) = 40.80838 52.66316 46.73577
# Shear Modulus (GPa) = 21.20097 45.57249 33.38673
#
# Velocity S-wave (km/s) = 3.39292 4.97447 4.25777
# Velocity P-wave (km/s) = 6.12435 7.84788 7.03907
#
# Compressibility (1/GPa) = 0.02450477
#
# Stress axis : x y z
#
# Youngs Moduli (GPa) = 154.77897 154.77870 30.15700
#
# Poissons Ratio (x) = -0.45732 0.20722
# Poissons Ratio (y) = -0.45732 0.20722
# Poissons Ratio (z) = 1.06356 1.06356
#
# Static dielectric constant tensor:
#      x y z
#    x 1.634050 0.000000 0.000000 
#    y 0.000000 1.634050 0.000000 
#    z 0.000000 0.000000 1.677610 
# 
# From -- ./inp_files/13160.got.cif
#   From: 2010.05.17/outbox.cif.g08.bks.cpg/sg139_7_cif.got.tgz:13160.got - 2010.05.20 13:14:44.
