data_PCOD9571097
_publ_section_title
;
Structure prediction by ZEFSAII (Michael W. Deem and Ramdas Pophale) SiO2 
 PCOD9571097
Probable space group: P 42/N C M
;
_chemical_formula_sum "Si O2"
_cell_formula_units_Z 64
_cell_length_a 14.725825
_cell_length_b 14.725825
_cell_length_c 14.492777
_cell_angle_alpha 90.000000
_cell_angle_beta 90.000000
_cell_angle_gamma 90.000000
_cell_volume 3142.757561
_symmetry_space_group_name_H-M "P 42/N C M"
_symmetry_group_IT_number 138
_space_group.IT_coordinate_system_code '2'
_symmetry_cell_setting 'tetragonal'
loop_
_space_group_symop_operation_xyz
x,y,z
1/2-y,x,1/2+z
1/2-x,1/2-y,z
y,1/2-x,1/2+z
1/2+x,-y,1/2-z
-x,1/2+y,1/2-z
1/2+y,1/2+x,-z
-y,-x,-z
-x,-y,-z
1/2+y,-x,1/2-z
1/2+x,1/2+y,-z
-y,1/2+x,1/2-z
1/2-x,y,1/2+z
x,1/2-y,1/2+z
1/2-y,1/2-x,z
y,x,z
loop_
_atom_site_type_symbol
_atom_site_label
_atom_site_fract_x
_atom_site_fract_y
_atom_site_fract_z
Si Si1 0.553604 0.801059 0.345255
Si Si2 0.145113 0.000385 0.512397
Si Si3 0.434291 0.913225 0.603458
Si Si4 0.577315 0.729575 0.146352
O O1 0.632291 0.867710 0.386578
O O2 0.517644 0.723575 0.412895
O O3 0.464828 0.863579 0.332212
O O4 0.590983 0.763093 0.249963
O O5 0.100463 0.899538 0.500000
O O6 0.189018 0.049049 0.422159
O O7 0.060971 0.060971 0.545367
O O8 0.396102 0.896102 0.500000
O O9 0.484366 0.828222 0.645573
O O10 0.515541 0.984460 0.591026
O O11 0.663148 0.663148 0.119981
#
# Coordination Sequence:
#
# PCOD9571097 Si02
#       4
#    16  16  16  16
#     4  11  23  40  66  95 125 163 211 261 316 380
#     4  11  25  42  61  90 130 169 208 263 322 375
#     4   9  18  38  64  89 120 165 209 252 314 382
#     4  11  23  40  66  95 125 163 211 261 316 380
#
# _framework density 20.364281999999999
#
# number of rings (size 3 to 8) (size 9 to 14) (size 15 to 20)
#    0.000    1.500    2.500    2.250    3.500    4.500 
#    0.000    2.500    0.000    0.000    0.000    0.000 
#    0.000    0.000    0.000    0.000    0.000    0.000 
#
# Total GULP energy -356303.232281 kJ/mol
# GULP energy per Si atom -5567.238004 kJ/mol
# Density = 2.031793 g / cm^3
# Si number density = 20.364282 Si / 1000 Ang^3
#
#
#
# Elastic Constant Matrix: (Units=GPa)
#
#
# Indices 1 2 3 4 5 6 
#
# 1 113.2337 47.1539 29.9446 0.0000 0.0000 0.0000
# 2 47.1539 113.2308 29.9439 0.0000 0.0000 0.0000
# 3 29.9446 29.9439 72.2007 0.0000 0.0000 0.0000
# 4 0.0000 0.0000 0.0000 28.7597 0.0000 0.0000
# 5 0.0000 0.0000 0.0000 0.0000 28.7599 0.0000
# 6 0.0000 0.0000 0.0000 0.0000 0.0000 57.0849
#
#
#
# Elastic Compliance Matrix: (Units=1/GPa)
#
#
# Indices 1 2 3 4 5 6 
#
# 1 0.011255 -0.003878 -0.003060 0.000000 0.000000 0.000000
# 2 -0.003878 0.011256 -0.003060 0.000000 0.000000 0.000000
# 3 -0.003060 -0.003060 0.016388 0.000000 0.000000 0.000000
# 4 0.000000 0.000000 0.000000 0.034771 0.000000 0.000000
# 5 0.000000 0.000000 0.000000 0.000000 0.034771 0.000000
# 6 0.000000 0.000000 0.000000 0.000000 0.000000 0.017518
#
#
# Mechanical properties :
#
#
# Convention : Reuss Voigt Hill
#
# Bulk Modulus (GPa) = 52.89795 56.97224 54.93509
# Shear Modulus (GPa) = 32.83969 35.69576 34.26772
#
# Velocity S-wave (km/s) = 4.02009 4.19126 4.10657
# Velocity P-wave (km/s) = 6.89786 7.17353 7.03704
#
# Compressibility (1/GPa) = 0.01890432
#
# Stress axis : x y z
#
# Youngs Moduli (GPa) = 88.84642 88.84443 61.01944
#
# Poissons Ratio (x) = 0.34454 0.18670
# Poissons Ratio (y) = 0.34455 0.18670
# Poissons Ratio (z) = 0.27185 0.27183
#
# Static dielectric constant tensor:
#      x y z
#    x 1.755740 0.000000 0.000000 
#    y 0.000000 1.755740 0.000000 
#    z 0.000000 0.000000 1.743930 
# 
# From -- ./inp_files/3872.got.cif
#   From: 2010.05.17/outbox.cif.g08.bks.cpg/sg138_2_cif.got.tgz:3872.got - 2010.05.20 13:08:53.
