data_PCOD9571221
_publ_section_title
;
Structure prediction by ZEFSAII (Michael W. Deem and Ramdas Pophale) SiO2 
 PCOD9571221
Probable space group: I 4/M M M
;
_chemical_formula_sum "Si O2"
_cell_formula_units_Z 216
_cell_length_a 26.896799
_cell_length_b 26.896799
_cell_length_c 16.006342
_cell_angle_alpha 90.000000
_cell_angle_beta 90.000000
_cell_angle_gamma 90.000000
_cell_volume 11579.592786
_symmetry_space_group_name_H-M "I 4/M M M"
_symmetry_group_IT_number 139
_symmetry_cell_setting 'tetragonal'
loop_
_space_group_symop_operation_xyz
x,y,z
-y,x,z
-x,-y,z
y,-x,z
x,-y,-z
-x,y,-z
y,x,-z
-y,-x,-z
-x,-y,-z
y,-x,-z
x,y,-z
-y,x,-z
-x,y,z
x,-y,z
-y,-x,z
y,x,z
1/2+x,1/2+y,1/2+z
1/2-y,1/2+x,1/2+z
1/2-x,1/2-y,1/2+z
1/2+y,1/2-x,1/2+z
1/2+x,1/2-y,1/2-z
1/2-x,1/2+y,1/2-z
1/2+y,1/2+x,1/2-z
1/2-y,1/2-x,1/2-z
1/2-x,1/2-y,1/2-z
1/2+y,1/2-x,1/2-z
1/2+x,1/2+y,1/2-z
1/2-y,1/2+x,1/2-z
1/2-x,1/2+y,1/2+z
1/2+x,1/2-y,1/2+z
1/2-y,1/2-x,1/2+z
1/2+y,1/2+x,1/2+z
loop_
_atom_site_type_symbol
_atom_site_label
_atom_site_fract_x
_atom_site_fract_y
_atom_site_fract_z
Si Si1 0.378712 0.060078 0.592778
Si Si2 0.944558 0.730239 0.336521
Si Si3 0.312414 0.768984 0.601109
Si Si4 0.557741 0.640600 0.600861
Si Si5 0.348155 0.268690 0.100603
Si Si6 0.559258 0.059258 0.250000
Si Si7 0.075301 0.745709 0.148169
Si Si8 0.280619 0.000000 0.000000
O O1 0.388945 0.080118 0.500000
O O2 0.321875 0.068121 0.618870
O O3 0.414085 0.078481 0.666583
O O4 0.385592 0.000000 0.589471
O O5 0.902553 0.768474 0.362680
O O6 0.942725 0.725559 0.237025
O O7 0.000000 0.744416 0.362645
O O8 0.316285 0.769375 0.500000
O O9 0.279117 0.720884 0.623437
O O10 0.280269 0.817025 0.626574
O O11 0.366795 0.766539 0.638182
O O12 0.561255 0.648367 0.500000
O O13 0.500000 0.626820 0.618252
O O14 0.597734 0.597734 0.622670
O O15 0.568522 0.694187 0.641859
O O16 0.315505 0.315505 0.126958
O O17 0.350225 0.268011 0.000000
O O18 0.500000 0.067441 0.257156
O O19 0.043155 0.723308 0.073270
#
# Coordination Sequence:
#
# PCOD9571221 Si02
#       8
#    32  32  32  32  32  16  32   8
#     4   9  19  36  57  80 112 148 187 233 279 331
#     4  11  23  37  57  83 112 149 193 233 280 346
#     4   9  18  33  55  81 109 149 192 229 286 351
#     4  10  18  30  47  70 103 145 192 239 291 344
#     4   9  20  39  59  84 115 141 175 232 292 349
#     4   9  18  34  60  90 119 148 188 234 277 336
#     4  12  20  34  54  78 109 151 194 249 290 346
#     4  12  20  36  54  76 115 152 193 246 314 334
#
# _framework density 18.653506
#
# number of rings (size 3 to 8) (size 9 to 14) (size 15 to 20)
#    0.000    2.000    2.963    1.778    0.000    5.481 
#    0.000    3.704    1.630    0.000    0.000    0.000 
#    0.000    0.296    0.000    1.630    0.000    0.000 
#
# Total GULP energy -601942.125623 kJ/mol
# GULP energy per Si atom -5573.538200 kJ/mol
# Density = 1.861105 g / cm^3
# Si number density = 18.653506 Si / 1000 Ang^3
#
#
#
# Elastic Constant Matrix: (Units=GPa)
#
#
# Indices 1 2 3 4 5 6 
#
# 1 73.0084 35.3220 30.6414 0.0000 0.0000 0.0000
# 2 35.3220 73.0084 30.6414 0.0000 0.0000 0.0000
# 3 30.6414 30.6414 86.3528 0.0000 0.0000 0.0000
# 4 0.0000 0.0000 0.0000 34.0249 0.0000 0.0000
# 5 0.0000 0.0000 0.0000 0.0000 34.0249 0.0000
# 6 0.0000 0.0000 0.0000 0.0000 0.0000 7.4424
#
#
#
# Elastic Compliance Matrix: (Units=1/GPa)
#
#
# Indices 1 2 3 4 5 6 
#
# 1 0.019042 -0.007493 -0.004098 0.000000 0.000000 0.000000
# 2 -0.007493 0.019042 -0.004098 0.000000 0.000000 0.000000
# 3 -0.004098 -0.004098 0.014489 0.000000 0.000000 0.000000
# 4 0.000000 0.000000 0.000000 0.029390 0.000000 0.000000
# 5 0.000000 0.000000 0.000000 0.000000 0.029390 0.000000
# 6 0.000000 0.000000 0.000000 0.000000 0.000000 0.134366
#
#
# Mechanical properties :
#
#
# Convention : Reuss Voigt Hill
#
# Bulk Modulus (GPa) = 47.18136 47.28662 47.23399
# Shear Modulus (GPa) = 17.59557 24.14940 20.87249
#
# Velocity S-wave (km/s) = 3.07463 3.60200 3.34871
# Velocity P-wave (km/s) = 6.16059 6.53485 6.35048
#
# Compressibility (1/GPa) = 0.02119481
#
# Stress axis : x y z
#
# Youngs Moduli (GPa) = 52.51527 52.51527 69.01889
#
# Poissons Ratio (x) = 0.39348 0.28285
# Poissons Ratio (y) = 0.39348 0.28285
# Poissons Ratio (z) = 0.21522 0.21522
#
# Static dielectric constant tensor:
#      x y z
#    x 1.649900 0.000000 0.000000 
#    y 0.000000 1.649900 0.000000 
#    z 0.000000 0.000000 1.666610 
# 
# From -- ./inp_files/6593.got.cif
#   From: 2010.05.17/outbox.cif.g08.bks.cpg/sg139_4_cif.got.tgz:6593.got - 2010.05.20 13:14:44.
