data_PCOD9571610
_publ_section_title
;
Structure prediction by ZEFSAII (Michael W. Deem and Ramdas Pophale) SiO2 
 PCOD9571610
Probable space group: I 4/M M M
;
_chemical_formula_sum "Si O2"
_cell_formula_units_Z 176
_cell_length_a 18.633567
_cell_length_b 18.633567
_cell_length_c 28.511279
_cell_angle_alpha 90.000000
_cell_angle_beta 90.000000
_cell_angle_gamma 90.000000
_cell_volume 9899.396025
_symmetry_space_group_name_H-M "I 4/M M M"
_symmetry_group_IT_number 139
_symmetry_cell_setting 'tetragonal'
loop_
_space_group_symop_operation_xyz
x,y,z
-y,x,z
-x,-y,z
y,-x,z
x,-y,-z
-x,y,-z
y,x,-z
-y,-x,-z
-x,-y,-z
y,-x,-z
x,y,-z
-y,x,-z
-x,y,z
x,-y,z
-y,-x,z
y,x,z
1/2+x,1/2+y,1/2+z
1/2-y,1/2+x,1/2+z
1/2-x,1/2-y,1/2+z
1/2+y,1/2-x,1/2+z
1/2+x,1/2-y,1/2-z
1/2-x,1/2+y,1/2-z
1/2+y,1/2+x,1/2-z
1/2-y,1/2-x,1/2-z
1/2-x,1/2-y,1/2-z
1/2+y,1/2-x,1/2-z
1/2+x,1/2+y,1/2-z
1/2-y,1/2+x,1/2-z
1/2-x,1/2+y,1/2+z
1/2+x,1/2-y,1/2+z
1/2-y,1/2-x,1/2+z
1/2+y,1/2+x,1/2+z
loop_
_atom_site_type_symbol
_atom_site_label
_atom_site_fract_x
_atom_site_fract_y
_atom_site_fract_z
Si Si1 0.580433 0.301208 0.771647
Si Si2 0.339399 0.148711 0.445546
Si Si3 0.726881 0.157984 0.351533
Si Si4 0.583724 0.703890 0.584119
Si Si5 0.579980 0.000000 0.556530
Si Si6 0.286158 0.080191 0.821876
O O1 0.500000 0.328705 0.769693
O O2 0.636970 0.363031 0.762709
O O3 0.597825 0.267172 0.822140
O O4 0.588666 0.242892 0.730507
O O5 0.318150 0.145383 0.500000
O O6 0.276158 0.152101 0.407480
O O7 0.386832 0.221341 0.438356
O O8 0.381319 0.075232 0.432757
O O9 0.767626 0.232375 0.339416
O O10 0.645069 0.162123 0.334579
O O11 0.500000 0.691176 0.571115
O O12 0.638548 0.638548 0.573460
O O13 0.585627 0.721680 0.639926
O O14 0.500000 0.000000 0.576542
O O15 0.575132 0.000000 0.500000
O O16 0.316691 0.000000 0.827617
#
# Coordination Sequence:
#
# PCOD9571610 Si02
#       6
#    32  32  32  32  16  32
#     4  10  20  33  52  75 101 134 170 213 259 306
#     4  10  20  34  53  74  99 130 166 215 263 308
#     4  10  20  33  52  75 102 135 170 208 251 307
#     4  10  20  33  51  76 107 142 180 216 250 295
#     4   9  18  32  50  72  96 124 157 199 257 313
#     4   9  17  31  51  76 105 136 173 210 248 295
#
# _framework density 17.778862
#
# number of rings (size 3 to 8) (size 9 to 14) (size 15 to 20)
#    0.000    2.273    0.000    4.364    1.273    5.091 
#    0.000    0.000    0.000    3.273    0.000    3.818 
#    0.000    0.000    0.000    4.000    0.000    0.000 
#
# Total GULP energy -490261.465539 kJ/mol
# GULP energy per Si atom -5571.153017 kJ/mol
# Density = 1.773840 g / cm^3
# Si number density = 17.778862 Si / 1000 Ang^3
#
#
#
# Elastic Constant Matrix: (Units=GPa)
#
#
# Indices 1 2 3 4 5 6 
#
# 1 45.7149 4.3348 6.4778 0.0000 0.0000 0.0000
# 2 4.3348 45.7149 6.4778 0.0000 0.0000 0.0000
# 3 6.4778 6.4778 79.8238 0.0000 0.0000 0.0000
# 4 0.0000 0.0000 0.0000 18.6652 0.0000 0.0000
# 5 0.0000 0.0000 0.0000 0.0000 18.6652 0.0000
# 6 0.0000 0.0000 0.0000 0.0000 0.0000 8.7264
#
#
#
# Elastic Compliance Matrix: (Units=1/GPa)
#
#
# Indices 1 2 3 4 5 6 
#
# 1 0.022288 -0.001879 -0.001656 0.000000 0.000000 0.000000
# 2 -0.001879 0.022288 -0.001656 0.000000 0.000000 0.000000
# 3 -0.001656 -0.001656 0.012796 0.000000 0.000000 0.000000
# 4 0.000000 0.000000 0.000000 0.053576 0.000000 0.000000
# 5 0.000000 0.000000 0.000000 0.000000 0.053576 0.000000
# 6 0.000000 0.000000 0.000000 0.000000 0.000000 0.114595
#
#
# Mechanical properties :
#
#
# Convention : Reuss Voigt Hill
#
# Bulk Modulus (GPa) = 21.28146 22.87051 22.07599
# Shear Modulus (GPa) = 16.38469 19.47556 17.93013
#
# Velocity S-wave (km/s) = 3.03905 3.31332 3.17915
# Velocity P-wave (km/s) = 4.93057 5.24684 5.09116
#
# Compressibility (1/GPa) = 0.04698925
#
# Stress axis : x y z
#
# Youngs Moduli (GPa) = 44.86812 44.86812 78.14701
#
# Poissons Ratio (x) = 0.08429 0.12943
# Poissons Ratio (y) = 0.08429 0.12943
# Poissons Ratio (z) = 0.07431 0.07431
#
# Static dielectric constant tensor:
#      x y z
#    x 1.618270 0.000000 0.000000 
#    y 0.000000 1.618270 0.000000 
#    z 0.000000 0.000000 1.640890 
# 
# From -- ./inp_files/14271.got.cif
#   From: 2010.05.17/outbox.cif.g08.bks.cpg/sg139_8_cif.got.tgz:14271.got - 2010.05.20 13:14:44.
