data_PCOD9571685
_publ_section_title
;
Structure prediction by ZEFSAII (Michael W. Deem and Ramdas Pophale) SiO2 
 PCOD9571685
Probable space group: I 4/M M M
;
_chemical_formula_sum "Si O2"
_cell_formula_units_Z 128
_cell_length_a 23.005837
_cell_length_b 23.005837
_cell_length_c 14.851072
_cell_angle_alpha 90.000000
_cell_angle_beta 90.000000
_cell_angle_gamma 90.000000
_cell_volume 7860.205137
_symmetry_space_group_name_H-M "I 4/M M M"
_symmetry_group_IT_number 139
_symmetry_cell_setting 'tetragonal'
loop_
_space_group_symop_operation_xyz
x,y,z
-y,x,z
-x,-y,z
y,-x,z
x,-y,-z
-x,y,-z
y,x,-z
-y,-x,-z
-x,-y,-z
y,-x,-z
x,y,-z
-y,x,-z
-x,y,z
x,-y,z
-y,-x,z
y,x,z
1/2+x,1/2+y,1/2+z
1/2-y,1/2+x,1/2+z
1/2-x,1/2-y,1/2+z
1/2+y,1/2-x,1/2+z
1/2+x,1/2-y,1/2-z
1/2-x,1/2+y,1/2-z
1/2+y,1/2+x,1/2-z
1/2-y,1/2-x,1/2-z
1/2-x,1/2-y,1/2-z
1/2+y,1/2-x,1/2-z
1/2+x,1/2+y,1/2-z
1/2-y,1/2+x,1/2-z
1/2-x,1/2+y,1/2+z
1/2+x,1/2-y,1/2+z
1/2-y,1/2-x,1/2+z
1/2+y,1/2+x,1/2+z
loop_
_atom_site_type_symbol
_atom_site_label
_atom_site_fract_x
_atom_site_fract_y
_atom_site_fract_z
Si Si1 0.282998 0.065072 0.347407
Si Si2 0.918268 0.434855 0.142561
Si Si3 0.841097 0.745273 0.000000
Si Si4 0.852687 0.241134 0.500000
Si Si5 0.065288 0.300098 0.865012
O O1 0.350016 0.064879 0.378176
O O2 0.249239 0.109252 0.410241
O O3 0.289896 0.076989 0.241038
O O4 0.259288 0.000000 0.357994
O O5 0.938535 0.500000 0.112905
O O6 0.931712 0.431712 0.250000
O O7 0.936125 0.369706 0.112448
O O8 0.792104 0.695405 0.000000
O O9 0.884083 0.732801 0.917018
O O10 0.806209 0.806209 0.000000
O O11 0.819183 0.180818 0.500000
O O12 0.000000 0.278582 0.884769
#
# Coordination Sequence:
#
# PCOD9571685 Si02
#       5
#    32  32  16  16  32
#     4   9  18  33  52  71  99 134 167 209 254 292
#     4   9  16  27  45  69  97 131 170 208 248 287
#     4  11  23  36  50  68  98 136 173 215 251 288
#     4  11  21  32  50  73  99 133 174 213 245 294
#     4  10  20  35  53  73  98 131 171 215 255 296
#
# _framework density 16.284562999999999
#
# number of rings (size 3 to 8) (size 9 to 14) (size 15 to 20)
#    0.000    2.250    2.500    3.000    0.000    2.750 
#    0.000    3.125    0.000    1.500    0.000    0.000 
#    0.000    8.000    0.000   22.000    0.000    0.000 
#
# Total GULP energy -356273.636409 kJ/mol
# GULP energy per Si atom -5566.775569 kJ/mol
# Density = 1.624750 g / cm^3
# Si number density = 16.284563 Si / 1000 Ang^3
#
#
#
# Elastic Constant Matrix: (Units=GPa)
#
#
# Indices 1 2 3 4 5 6 
#
# 1 101.6594 70.7677 52.2497 0.0000 0.0000 0.0000
# 2 70.7677 101.6617 52.2509 0.0000 0.0000 0.0000
# 3 52.2497 52.2509 80.0140 0.0000 0.0000 0.0000
# 4 0.0000 0.0000 0.0000 12.7273 0.0000 0.0000
# 5 0.0000 0.0000 0.0000 0.0000 12.7224 0.0000
# 6 0.0000 0.0000 0.0000 0.0000 0.0000 13.2364
#
#
#
# Elastic Compliance Matrix: (Units=1/GPa)
#
#
# Indices 1 2 3 4 5 6 
#
# 1 0.020984 -0.011386 -0.006268 0.000000 0.000000 0.000000
# 2 -0.011386 0.020984 -0.006268 0.000000 0.000000 0.000000
# 3 -0.006268 -0.006268 0.020684 0.000000 0.000000 0.000000
# 4 0.000000 0.000000 0.000000 0.078571 0.000000 0.000000
# 5 0.000000 0.000000 0.000000 0.000000 0.078602 0.000000
# 6 0.000000 0.000000 0.000000 0.000000 0.000000 0.075549
#
#
# Mechanical properties :
#
#
# Convention : Reuss Voigt Hill
#
# Bulk Modulus (GPa) = 67.52650 70.43020 68.97835
# Shear Modulus (GPa) = 14.36151 14.94166 14.65159
#
# Velocity S-wave (km/s) = 2.97292 3.03237 3.00279
# Velocity P-wave (km/s) = 7.30349 7.45680 7.38054
#
# Compressibility (1/GPa) = 0.01480900
#
# Stress axis : x y z
#
# Youngs Moduli (GPa) = 47.65501 47.65562 48.34758
#
# Poissons Ratio (x) = 0.54261 0.30302
# Poissons Ratio (y) = 0.54260 0.30303
# Poissons Ratio (z) = 0.29868 0.29870
#
# Static dielectric constant tensor:
#      x y z
#    x 1.539520 0.000000 0.000000 
#    y 0.000000 1.539520 0.000000 
#    z 0.000000 0.000000 1.608920 
# 
# From -- ./inp_files/5437.got.cif
#   From: 2010.05.17/outbox.cif.g08.bks.cpg/sg139_3_cif.got.tgz:5437.got - 2010.05.20 13:14:44.
