data_PCOD9571277
_publ_section_title
;
Structure prediction by ZEFSAII (Michael W. Deem and Ramdas Pophale) SiO2 
 PCOD9571277
Probable space group: I 4/M M M
;
_chemical_formula_sum "Si O2"
_cell_formula_units_Z 160
_cell_length_a 30.272858
_cell_length_b 30.272858
_cell_length_c 9.881978
_cell_angle_alpha 90.000000
_cell_angle_beta 90.000000
_cell_angle_gamma 90.000000
_cell_volume 9056.298533
_symmetry_space_group_name_H-M "I 4/M M M"
_symmetry_group_IT_number 139
_symmetry_cell_setting 'tetragonal'
loop_
_space_group_symop_operation_xyz
x,y,z
-y,x,z
-x,-y,z
y,-x,z
x,-y,-z
-x,y,-z
y,x,-z
-y,-x,-z
-x,-y,-z
y,-x,-z
x,y,-z
-y,x,-z
-x,y,z
x,-y,z
-y,-x,z
y,x,z
1/2+x,1/2+y,1/2+z
1/2-y,1/2+x,1/2+z
1/2-x,1/2-y,1/2+z
1/2+y,1/2-x,1/2+z
1/2+x,1/2-y,1/2-z
1/2-x,1/2+y,1/2-z
1/2+y,1/2+x,1/2-z
1/2-y,1/2-x,1/2-z
1/2-x,1/2-y,1/2-z
1/2+y,1/2-x,1/2-z
1/2+x,1/2+y,1/2-z
1/2-y,1/2+x,1/2-z
1/2-x,1/2+y,1/2+z
1/2+x,1/2-y,1/2+z
1/2-y,1/2-x,1/2+z
1/2+y,1/2+x,1/2+z
loop_
_atom_site_type_symbol
_atom_site_label
_atom_site_fract_x
_atom_site_fract_y
_atom_site_fract_z
Si Si1 0.740262 0.815083 0.656006
Si Si2 0.552553 0.105161 0.000000
Si Si3 0.946682 0.639903 0.000000
Si Si4 0.697332 0.624397 0.658066
Si Si5 0.446942 0.277803 0.151587
Si Si6 0.821793 0.553185 0.777494
O O1 0.730113 0.828641 0.500000
O O2 0.772003 0.772003 0.643247
O O3 0.699160 0.800841 0.750000
O O4 0.768711 0.848948 0.745767
O O5 0.588525 0.066755 0.000000
O O6 0.562082 0.137099 0.126023
O O7 0.500000 0.092971 0.000000
O O8 0.929444 0.665614 0.130845
O O9 0.000000 0.641827 0.000000
O O10 0.711051 0.622660 0.500000
O O11 0.651836 0.651836 0.663253
O O12 0.695722 0.576955 0.729462
O O13 0.500000 0.280427 0.161198
O O14 0.433809 0.226074 0.168590
O O15 0.433796 0.292190 0.000000
O O16 0.819313 0.500000 0.769966
#
# Coordination Sequence:
#
# PCOD9571277 Si02
#       6
#    32  16  16  32  32  32
#     4   9  16  28  47  68  94 133 175 212 255 307
#     4  10  18  33  52  68  97 133 165 213 272 324
#     4  10  20  31  48  74  99 129 169 213 268 328
#     4  10  21  35  53  80 112 141 172 214 264 315
#     4  10  20  36  58  79 101 136 181 219 259 312
#     4   9  18  33  51  71  95 126 165 213 264 311
#
# _framework density 17.667262999999998
#
# number of rings (size 3 to 8) (size 9 to 14) (size 15 to 20)
#    0.000    2.400    1.000    1.800    1.400    4.200 
#    0.000    2.000    0.000    3.600    0.000    0.000 
#    0.000    0.400    0.000    4.400    0.000    3.200 
#
# Total GULP energy -445759.528434 kJ/mol
# GULP energy per Si atom -5571.994105 kJ/mol
# Density = 1.762705 g / cm^3
# Si number density = 17.667263 Si / 1000 Ang^3
#
#
#
# Elastic Constant Matrix: (Units=GPa)
#
#
# Indices 1 2 3 4 5 6 
#
# 1 36.0938 13.5135 30.9325 0.0000 0.0000 0.0000
# 2 13.5135 36.0926 30.9321 0.0000 0.0000 0.0000
# 3 30.9325 30.9321 172.3810 0.0000 0.0000 0.0000
# 4 0.0000 0.0000 0.0000 76.0437 0.0000 0.0000
# 5 0.0000 0.0000 0.0000 0.0000 76.0373 0.0000
# 6 0.0000 0.0000 0.0000 0.0000 0.0000 17.0779
#
#
#
# Elastic Compliance Matrix: (Units=1/GPa)
#
#
# Indices 1 2 3 4 5 6 
#
# 1 0.035128 -0.009159 -0.004660 0.000000 0.000000 0.000000
# 2 -0.009159 0.035129 -0.004660 0.000000 0.000000 0.000000
# 3 -0.004660 -0.004660 0.007474 0.000000 0.000000 0.000000
# 4 0.000000 0.000000 0.000000 0.013150 0.000000 0.000000
# 5 0.000000 0.000000 0.000000 0.000000 0.013151 0.000000
# 6 0.000000 0.000000 0.000000 0.000000 0.000000 0.058555
#
#
# Mechanical properties :
#
#
# Convention : Reuss Voigt Hill
#
# Bulk Modulus (GPa) = 24.52573 43.92482 34.22528
# Shear Modulus (GPa) = 23.45907 45.11108 34.28507
#
# Velocity S-wave (km/s) = 3.64789 5.05857 4.41000
# Velocity P-wave (km/s) = 5.62627 7.68343 6.73387
#
# Compressibility (1/GPa) = 0.04077351
#
# Stress axis : x y z
#
# Youngs Moduli (GPa) = 28.46712 28.46610 133.80524
#
# Poissons Ratio (x) = 0.26071 0.62354
# Poissons Ratio (y) = 0.26072 0.62356
# Poissons Ratio (z) = 0.13266 0.13266
#
# Static dielectric constant tensor:
#      x y z
#    x 1.613990 0.000000 0.000000 
#    y 0.000000 1.614000 0.000000 
#    z 0.000000 0.000000 1.672970 
# 
# From -- ./inp_files/2285.got.cif
#   From: 2010.05.17/outbox.cif.g08.bks.cpg/sg139_2_cif.got.tgz:2285.got - 2010.05.20 13:14:44.
