data_PCOD9571441
_publ_section_title
;
Structure prediction by ZEFSAII (Michael W. Deem and Ramdas Pophale) SiO2 
 PCOD9571441
Probable space group: I 4/M M M
;
_chemical_formula_sum "Si O2"
_cell_formula_units_Z 128
_cell_length_a 21.648093
_cell_length_b 21.648093
_cell_length_c 15.692263
_cell_angle_alpha 90.000000
_cell_angle_beta 90.000000
_cell_angle_gamma 90.000000
_cell_volume 7354.021042
_symmetry_space_group_name_H-M "I 4/M M M"
_symmetry_group_IT_number 139
_symmetry_cell_setting 'tetragonal'
loop_
_space_group_symop_operation_xyz
x,y,z
-y,x,z
-x,-y,z
y,-x,z
x,-y,-z
-x,y,-z
y,x,-z
-y,-x,-z
-x,-y,-z
y,-x,-z
x,y,-z
-y,x,-z
-x,y,z
x,-y,z
-y,-x,z
y,x,z
1/2+x,1/2+y,1/2+z
1/2-y,1/2+x,1/2+z
1/2-x,1/2-y,1/2+z
1/2+y,1/2-x,1/2+z
1/2+x,1/2-y,1/2-z
1/2-x,1/2+y,1/2-z
1/2+y,1/2+x,1/2-z
1/2-y,1/2-x,1/2-z
1/2-x,1/2-y,1/2-z
1/2+y,1/2-x,1/2-z
1/2+x,1/2+y,1/2-z
1/2-y,1/2+x,1/2-z
1/2-x,1/2+y,1/2+z
1/2+x,1/2-y,1/2+z
1/2-y,1/2-x,1/2+z
1/2+y,1/2+x,1/2+z
loop_
_atom_site_type_symbol
_atom_site_label
_atom_site_fract_x
_atom_site_fract_y
_atom_site_fract_z
Si Si1 0.146969 0.646969 0.750000
Si Si2 0.325845 0.428452 0.647750
Si Si3 0.570484 0.675700 0.000000
Si Si4 0.617326 0.280652 0.824612
Si Si5 0.812971 0.426044 0.593708
O O1 0.213135 0.636464 0.794050
O O2 0.147031 0.599496 0.671644
O O3 0.339364 0.500000 0.625979
O O4 0.380705 0.380705 0.626058
O O5 0.312171 0.422409 0.749090
O O6 0.259797 0.409776 0.606761
O O7 0.583484 0.714922 0.914796
O O8 0.500000 0.654073 0.000000
O O9 0.618139 0.618139 0.000000
O O10 0.679016 0.320985 0.832498
O O11 0.832712 0.404089 0.500000
O O12 0.815119 0.500000 0.595636
#
# Coordination Sequence:
#
# PCOD9571441 Si02
#       5
#    16  32  16  32  32
#     4  10  19  32  58  77 102 132 176 212 270 323
#     4   9  17  30  47  69 101 140 180 219 257 297
#     4  10  20  33  50  74 109 149 187 225 264 310
#     4   9  18  31  46  71 103 134 172 225 272 312
#     4   9  19  35  54  77 106 136 168 208 257 316
#
# _framework density 17.405443999999999
#
# number of rings (size 3 to 8) (size 9 to 14) (size 15 to 20)
#    0.000    2.750    0.000    1.125    1.750    2.875 
#    0.000    0.000    0.000    4.875    0.000    5.250 
#    0.000    0.000    0.000    0.000    0.000    0.000 
#
# Total GULP energy -356482.826434 kJ/mol
# GULP energy per Si atom -5570.044163 kJ/mol
# Density = 1.736583 g / cm^3
# Si number density = 17.405444 Si / 1000 Ang^3
#
#
#
# Elastic Constant Matrix: (Units=GPa)
#
#
# Indices 1 2 3 4 5 6 
#
# 1 51.1967 28.2301 27.1886 0.0000 0.0000 0.0000
# 2 28.2301 51.1967 27.1886 0.0000 0.0000 0.0000
# 3 27.1886 27.1886 129.5387 0.0000 0.0000 0.0000
# 4 0.0000 0.0000 0.0000 17.2516 0.0000 0.0000
# 5 0.0000 0.0000 0.0000 0.0000 17.2516 0.0000
# 6 0.0000 0.0000 0.0000 0.0000 0.0000 20.4546
#
#
#
# Elastic Compliance Matrix: (Units=1/GPa)
#
#
# Indices 1 2 3 4 5 6 
#
# 1 0.029122 -0.014419 -0.003086 0.000000 0.000000 0.000000
# 2 -0.014419 0.029122 -0.003086 0.000000 0.000000 0.000000
# 3 -0.003086 -0.003086 0.009015 0.000000 0.000000 0.000000
# 4 0.000000 0.000000 0.000000 0.057966 0.000000 0.000000
# 5 0.000000 0.000000 0.000000 0.000000 0.057966 0.000000
# 6 0.000000 0.000000 0.000000 0.000000 0.000000 0.048889
#
#
# Mechanical properties :
#
#
# Convention : Reuss Voigt Hill
#
# Bulk Modulus (GPa) = 38.34781 44.12742 41.23761
# Shear Modulus (GPa) = 17.73337 20.94655 19.33996
#
# Velocity S-wave (km/s) = 3.19539 3.47284 3.33700
# Velocity P-wave (km/s) = 5.97444 6.44116 6.21218
#
# Compressibility (1/GPa) = 0.02607711
#
# Stress axis : x y z
#
# Youngs Moduli (GPa) = 34.33804 34.33804 110.92475
#
# Poissons Ratio (x) = 0.49513 0.34231
# Poissons Ratio (y) = 0.49513 0.34231
# Poissons Ratio (z) = 0.10597 0.10597
#
# Static dielectric constant tensor:
#      x y z
#    x 1.574100 0.000000 0.000000 
#    y 0.000000 1.574100 0.000000 
#    z 0.000000 0.000000 1.632070 
# 
# From -- ./inp_files/5442.got.cif
#   From: 2010.05.17/outbox.cif.g08.bks.cpg/sg139_3_cif.got.tgz:5442.got - 2010.05.20 13:14:44.
