data_PCOD9571644
_publ_section_title
;
Structure prediction by ZEFSAII (Michael W. Deem and Ramdas Pophale) SiO2 
 PCOD9571644
Probable space group: I 4/M M M
;
_chemical_formula_sum "Si O2"
_cell_formula_units_Z 128
_cell_length_a 30.299015
_cell_length_b 30.299015
_cell_length_c 8.841753
_cell_angle_alpha 90.000000
_cell_angle_beta 90.000000
_cell_angle_gamma 90.000000
_cell_volume 8116.997247
_symmetry_space_group_name_H-M "I 4/M M M"
_symmetry_group_IT_number 139
_symmetry_cell_setting 'tetragonal'
loop_
_space_group_symop_operation_xyz
x,y,z
-y,x,z
-x,-y,z
y,-x,z
x,-y,-z
-x,y,-z
y,x,-z
-y,-x,-z
-x,-y,-z
y,-x,-z
x,y,-z
-y,x,-z
-x,y,z
x,-y,z
-y,-x,z
y,x,z
1/2+x,1/2+y,1/2+z
1/2-y,1/2+x,1/2+z
1/2-x,1/2-y,1/2+z
1/2+y,1/2-x,1/2+z
1/2+x,1/2-y,1/2-z
1/2-x,1/2+y,1/2-z
1/2+y,1/2+x,1/2-z
1/2-y,1/2-x,1/2-z
1/2-x,1/2-y,1/2-z
1/2+y,1/2-x,1/2-z
1/2+x,1/2+y,1/2-z
1/2-y,1/2+x,1/2-z
1/2-x,1/2+y,1/2+z
1/2+x,1/2-y,1/2+z
1/2-y,1/2-x,1/2+z
1/2+y,1/2+x,1/2+z
loop_
_atom_site_type_symbol
_atom_site_label
_atom_site_fract_x
_atom_site_fract_y
_atom_site_fract_z
Si Si1 0.121807 0.878194 0.178661
Si Si2 0.449193 0.324033 0.830288
Si Si3 0.550686 0.770612 0.680586
Si Si4 0.190506 0.809495 0.317882
Si Si5 0.214248 0.646021 0.181647
O O1 0.137442 0.923155 0.251890
O O2 0.157689 0.842312 0.232887
O O3 0.119942 0.880059 0.000000
O O4 0.500000 0.335315 0.842803
O O5 0.446175 0.280535 0.728568
O O6 0.431650 0.314348 0.000000
O O7 0.553323 0.775836 0.500000
O O8 0.500000 0.784933 0.726942
O O9 0.595690 0.788896 0.755815
O O10 0.186486 0.813515 0.500000
O O11 0.172701 0.760059 0.279147
O O12 0.174842 0.674842 0.250000
O O13 0.212130 0.644473 0.000000
#
# Coordination Sequence:
#
# PCOD9571644 Si02
#       5
#    16  32  32  16  32
#     4  12  22  31  51  75 100 129 162 210 256 304
#     4  10  20  34  52  72  96 127 164 207 255 307
#     4  10  20  34  52  75 102 131 169 214 256 299
#     4  10  21  35  49  70 101 140 178 210 247 299
#     4  11  22  35  52  73 104 142 179 215 254 304
#
# _framework density 15.769378
#
# number of rings (size 3 to 8) (size 9 to 14) (size 15 to 20)
#    0.000    1.500    2.500    3.750    0.000    4.000 
#    0.000    0.000    0.000    0.375    0.000    2.625 
#    0.000    0.500    0.000    5.250    0.000    2.250 
#
# Total GULP energy -356633.853001 kJ/mol
# GULP energy per Si atom -5572.403953 kJ/mol
# Density = 1.573349 g / cm^3
# Si number density = 15.769378 Si / 1000 Ang^3
#
#
#
# Elastic Constant Matrix: (Units=GPa)
#
#
# Indices 1 2 3 4 5 6 
#
# 1 69.3852 56.9554 27.5562 0.0000 0.0000 0.0000
# 2 56.9554 69.3859 27.5574 0.0000 0.0000 0.0000
# 3 27.5562 27.5574 55.1252 0.0000 0.0000 0.0000
# 4 0.0000 0.0000 0.0000 23.6651 0.0000 0.0000
# 5 0.0000 0.0000 0.0000 0.0000 23.6650 0.0000
# 6 0.0000 0.0000 0.0000 0.0000 0.0000 24.8223
#
#
#
# Elastic Compliance Matrix: (Units=1/GPa)
#
#
# Indices 1 2 3 4 5 6 
#
# 1 0.045286 -0.035164 -0.005059 0.000000 0.000000 0.000000
# 2 -0.035164 0.045286 -0.005061 0.000000 0.000000 0.000000
# 3 -0.005059 -0.005061 0.023200 0.000000 0.000000 0.000000
# 4 0.000000 0.000000 0.000000 0.042256 0.000000 0.000000
# 5 0.000000 0.000000 0.000000 0.000000 0.042256 0.000000
# 6 0.000000 0.000000 0.000000 0.000000 0.000000 0.040286
#
#
# Mechanical properties :
#
#
# Convention : Reuss Voigt Hill
#
# Bulk Modulus (GPa) = 43.09621 46.44826 44.77223
# Shear Modulus (GPa) = 14.84234 19.88563 17.36398
#
# Velocity S-wave (km/s) = 3.07125 3.55495 3.32191
# Velocity P-wave (km/s) = 6.32180 6.80947 6.57016
#
# Compressibility (1/GPa) = 0.02320390
#
# Stress axis : x y z
#
# Youngs Moduli (GPa) = 22.08187 22.08165 43.10408
#
# Poissons Ratio (x) = 0.77647 0.21807
# Poissons Ratio (y) = 0.77648 0.21816
# Poissons Ratio (z) = 0.11172 0.11176
#
# Static dielectric constant tensor:
#      x y z
#    x 1.527920 0.000000 0.000000 
#    y 0.000000 1.527920 0.000000 
#    z 0.000000 0.000000 1.549160 
# 
# From -- ./inp_files/1827.got.cif
#   From: 2010.05.17/outbox.cif.g08.bks.cpg/sg139_1_cif.got.tgz:1827.got - 2010.05.20 13:14:44.
