data_PCOD9571159
_publ_section_title
;
Structure prediction by ZEFSAII (Michael W. Deem and Ramdas Pophale) SiO2 
 PCOD9571159
Probable space group: I 4/M M M
;
_chemical_formula_sum "Si O2"
_cell_formula_units_Z 136
_cell_length_a 18.104325
_cell_length_b 18.104325
_cell_length_c 24.393824
_cell_angle_alpha 90.000000
_cell_angle_beta 90.000000
_cell_angle_gamma 90.000000
_cell_volume 7995.480356
_symmetry_space_group_name_H-M "I 4/M M M"
_symmetry_group_IT_number 139
_symmetry_cell_setting 'tetragonal'
loop_
_space_group_symop_operation_xyz
x,y,z
-y,x,z
-x,-y,z
y,-x,z
x,-y,-z
-x,y,-z
y,x,-z
-y,-x,-z
-x,-y,-z
y,-x,-z
x,y,-z
-y,x,-z
-x,y,z
x,-y,z
-y,-x,z
y,x,z
1/2+x,1/2+y,1/2+z
1/2-y,1/2+x,1/2+z
1/2-x,1/2-y,1/2+z
1/2+y,1/2-x,1/2+z
1/2+x,1/2-y,1/2-z
1/2-x,1/2+y,1/2-z
1/2+y,1/2+x,1/2-z
1/2-y,1/2-x,1/2-z
1/2-x,1/2-y,1/2-z
1/2+y,1/2-x,1/2-z
1/2+x,1/2+y,1/2-z
1/2-y,1/2+x,1/2-z
1/2-x,1/2+y,1/2+z
1/2+x,1/2-y,1/2+z
1/2-y,1/2-x,1/2+z
1/2+y,1/2+x,1/2+z
loop_
_atom_site_type_symbol
_atom_site_label
_atom_site_fract_x
_atom_site_fract_y
_atom_site_fract_z
Si Si1 0.801165 0.586531 0.221562
Si Si2 0.800867 0.500000 0.500000
Si Si3 0.085827 0.500000 0.600743
Si Si4 0.655635 0.151159 0.880719
Si Si5 0.210223 0.335213 0.500000
Si Si6 0.797451 0.914100 0.825438
O O1 0.818863 0.500000 0.217474
O O2 0.866963 0.633038 0.250000
O O3 0.790303 0.622272 0.161760
O O4 0.732822 0.593647 0.263326
O O5 0.856433 0.500000 0.551036
O O6 0.760950 0.579171 0.500000
O O7 0.106339 0.422887 0.629427
O O8 0.000000 0.500000 0.585286
O O9 0.737956 0.129017 0.862369
O O10 0.661376 0.172049 0.944535
O O11 0.275670 0.275670 0.500000
O O12 0.875910 0.875910 0.831240
O O13 0.796255 0.000000 0.840292
#
# Coordination Sequence:
#
# PCOD9571159 Si02
#       6
#    32   8  16  32  16  32
#     4   9  19  32  49  74 102 131 164 199 247 304
#     4   8  19  32  44  69  96 120 166 208 237 292
#     4  10  17  28  48  68  98 132 158 195 240 291
#     4  10  19  33  48  73 102 129 168 204 244 302
#     4  10  20  33  51  69  93 133 169 204 248 297
#     4  10  20  35  52  71  97 127 167 216 258 301
#
# _framework density 17.009609000000001
#
# number of rings (size 3 to 8) (size 9 to 14) (size 15 to 20)
#    0.000    2.353    1.176    1.588    1.647    5.647 
#    0.000    1.765    0.000    0.176    0.000    0.000 
#    0.000    0.000    0.000    0.000    0.000   18.824 
#
# Total GULP energy -378871.181874 kJ/mol
# GULP energy per Si atom -5571.635028 kJ/mol
# Density = 1.697089 g / cm^3
# Si number density = 17.009609 Si / 1000 Ang^3
#
#
#
# Elastic Constant Matrix: (Units=GPa)
#
#
# Indices 1 2 3 4 5 6 
#
# 1 29.1144 25.5419 1.7964 0.0000 0.0000 0.0000
# 2 25.5419 29.1141 1.7956 0.0000 0.0000 0.0000
# 3 1.7964 1.7956 101.3453 0.0000 0.0000 0.0000
# 4 0.0000 0.0000 0.0000 3.9756 0.0000 0.0000
# 5 0.0000 0.0000 0.0000 0.0000 3.9754 0.0000
# 6 0.0000 0.0000 0.0000 0.0000 0.0000 26.4419
#
#
#
# Elastic Compliance Matrix: (Units=1/GPa)
#
#
# Indices 1 2 3 4 5 6 
#
# 1 0.149123 -0.130806 -0.000326 0.000000 0.000000 0.000000
# 2 -0.130806 0.149124 -0.000324 0.000000 0.000000 0.000000
# 3 -0.000326 -0.000324 0.009879 0.000000 0.000000 0.000000
# 4 0.000000 0.000000 0.000000 0.251534 0.000000 0.000000
# 5 0.000000 0.000000 0.000000 0.000000 0.251549 0.000000
# 6 0.000000 0.000000 0.000000 0.000000 0.000000 0.037819
#
#
# Mechanical properties :
#
#
# Convention : Reuss Voigt Hill
#
# Bulk Modulus (GPa) = 22.11637 24.20461 23.16049
# Shear Modulus (GPa) = 4.43653 15.57457 10.00555
#
# Velocity S-wave (km/s) = 1.61676 3.02923 2.42797
# Velocity P-wave (km/s) = 4.06395 5.14741 4.63743
#
# Compressibility (1/GPa) = 0.04521538
#
# Stress axis : x y z
#
# Youngs Moduli (GPa) = 6.70590 6.70585 101.22724
#
# Poissons Ratio (x) = 0.87716 0.03297
# Poissons Ratio (y) = 0.87717 0.03275
# Poissons Ratio (z) = 0.00218 0.00217
#
# Static dielectric constant tensor:
#      x y z
#    x 1.577920 0.000000 0.000000 
#    y 0.000000 1.577920 0.000000 
#    z 0.000000 0.000000 1.646320 
# 
# From -- ./inp_files/11556.got.cif
#   From: 2010.05.17/outbox.cif.g08.bks.cpg/sg139_6_cif.got.tgz:11556.got - 2010.05.20 13:14:44.
