data_PCOD9571848
_publ_section_title
;
Structure prediction by ZEFSAII (Michael W. Deem and Ramdas Pophale) SiO2 
 PCOD9571848
Probable space group: I 4/M M M
;
_chemical_formula_sum "Si O2"
_cell_formula_units_Z 216
_cell_length_a 27.415183
_cell_length_b 27.415183
_cell_length_c 15.206817
_cell_angle_alpha 90.000000
_cell_angle_beta 90.000000
_cell_angle_gamma 90.000000
_cell_volume 11429.325940
_symmetry_space_group_name_H-M "I 4/M M M"
_symmetry_group_IT_number 139
_symmetry_cell_setting 'tetragonal'
loop_
_space_group_symop_operation_xyz
x,y,z
-y,x,z
-x,-y,z
y,-x,z
x,-y,-z
-x,y,-z
y,x,-z
-y,-x,-z
-x,-y,-z
y,-x,-z
x,y,-z
-y,x,-z
-x,y,z
x,-y,z
-y,-x,z
y,x,z
1/2+x,1/2+y,1/2+z
1/2-y,1/2+x,1/2+z
1/2-x,1/2-y,1/2+z
1/2+y,1/2-x,1/2+z
1/2+x,1/2-y,1/2-z
1/2-x,1/2+y,1/2-z
1/2+y,1/2+x,1/2-z
1/2-y,1/2-x,1/2-z
1/2-x,1/2-y,1/2-z
1/2+y,1/2-x,1/2-z
1/2+x,1/2+y,1/2-z
1/2-y,1/2+x,1/2-z
1/2-x,1/2+y,1/2+z
1/2+x,1/2-y,1/2+z
1/2-y,1/2-x,1/2+z
1/2+y,1/2+x,1/2+z
loop_
_atom_site_type_symbol
_atom_site_label
_atom_site_fract_x
_atom_site_fract_y
_atom_site_fract_z
Si Si1 0.408741 0.788353 0.897786
Si Si2 0.182173 0.944057 0.364231
Si Si3 0.805244 0.941482 0.834938
Si Si4 0.705957 0.104481 0.101536
Si Si5 0.216702 0.703097 0.145306
Si Si6 0.376178 0.623823 0.000000
Si Si7 0.363286 0.941341 0.245171
Si Si8 0.057660 0.131713 0.000000
O O1 0.440611 0.739943 0.884044
O O2 0.353106 0.771714 0.876496
O O3 0.425047 0.830114 0.829276
O O4 0.411020 0.804170 0.000000
O O5 0.175803 0.930824 0.261930
O O6 0.153528 0.907126 0.424614
O O7 0.166050 0.000000 0.378293
O O8 0.753719 0.917080 0.852809
O O9 0.798978 0.000000 0.840357
O O10 0.840431 0.925249 0.913073
O O11 0.710245 0.163019 0.105062
O O12 0.662049 0.083849 0.160322
O O13 0.702658 0.088960 0.000000
O O14 0.258429 0.741572 0.116397
O O15 0.209914 0.709914 0.250000
O O16 0.416332 0.916332 0.250000
O O17 0.363627 0.000000 0.239168
O O18 0.077920 0.077920 0.000000
O O19 0.000000 0.132580 0.000000
#
# Coordination Sequence:
#
# PCOD9571848 Si02
#       8
#    32  32  32  32  32   8  32  16
#     4  12  23  41  68  94 131 172 220 263 317 384
#     4  11  24  42  64  93 127 168 217 267 320 382
#     4  10  21  39  63  90 126 167 215 270 318 377
#     4  12  22  40  65  98 137 176 219 260 323 400
#     4  11  23  40  63  95 141 183 217 260 315 389
#     4  12  26  40  64  97 130 166 214 272 326 384
#     4  12  26  46  69  97 129 169 221 281 340 394
#     4  10  22  39  60  89 122 163 214 266 325 382
#
# _framework density 18.898752999999999
#
# number of rings (size 3 to 8) (size 9 to 14) (size 15 to 20)
#    0.000    0.741    5.926    1.556    2.074    3.778 
#    0.000    0.000    0.000    1.778    0.000    2.074 
#    0.000    0.000    0.000    0.000    0.000    0.000 
#
# Total GULP energy -602419.157862 kJ/mol
# GULP energy per Si atom -5577.955165 kJ/mol
# Density = 1.885574 g / cm^3
# Si number density = 18.898753 Si / 1000 Ang^3
#
#
#
# Elastic Constant Matrix: (Units=GPa)
#
#
# Indices 1 2 3 4 5 6 
#
# 1 -3.4845 138.5826 39.4957 0.0000 0.0000 0.0000
# 2 138.5826 -3.4863 39.4946 0.0000 0.0000 0.0000
# 3 39.4957 39.4946 90.3405 0.0000 0.0000 0.0000
# 4 0.0000 0.0000 0.0000 22.8518 0.0000 0.0000
# 5 0.0000 0.0000 0.0000 0.0000 22.8519 0.0000
# 6 0.0000 0.0000 0.0000 0.0000 0.0000 20.2647
#
#
#
# Elastic Compliance Matrix: (Units=1/GPa)
#
#
# Indices 1 2 3 4 5 6 
#
# 1 0.001453 0.008491 -0.004347 0.000000 0.000000 0.000000
# 2 0.008491 0.001452 -0.004347 0.000000 0.000000 0.000000
# 3 -0.004347 -0.004347 0.014870 0.000000 0.000000 0.000000
# 4 0.000000 0.000000 0.000000 0.043760 0.000000 0.000000
# 5 0.000000 0.000000 0.000000 0.000000 0.043760 0.000000
# 6 0.000000 0.000000 0.000000 0.000000 0.000000 0.049347
#
#
# Mechanical properties :
#
#
# Convention : Reuss Voigt Hill
#
# Bulk Modulus (GPa) = 57.57385 57.61284 57.59334
# Shear Modulus (GPa) = 31.08712 4.24682 17.66697
#
# Velocity S-wave (km/s) = 4.06017 1.50067 3.06080
# Velocity P-wave (km/s) = 7.24641 5.79257 6.55989
#
# Compressibility (1/GPa) = 0.01736900
#
# Stress axis : x y z
#
# Youngs Moduli (GPa) = 688.44935 688.47828 67.24803
#
# Poissons Ratio (x) = -5.84614 0.29234
# Poissons Ratio (y) = -5.84589 0.29235
# Poissons Ratio (z) = 2.99286 2.99303
#
# Static dielectric constant tensor:
#      x y z
#    x 1.651940 0.000000 0.000000 
#    y 0.000000 1.651940 0.000000 
#    z 0.000000 0.000000 1.713130 
# 
# From -- ./inp_files/6605.got.cif
#   From: 2010.05.17/outbox.cif.g08.bks.cpg/sg139_4_cif.got.tgz:6605.got - 2010.05.20 13:14:44.
