data_PCOD9571776
_publ_section_title
;
Structure prediction by ZEFSAII (Michael W. Deem and Ramdas Pophale) SiO2 
 PCOD9571776
Probable space group: I 4/M M M
;
_chemical_formula_sum "Si O2"
_cell_formula_units_Z 192
_cell_length_a 27.216734
_cell_length_b 27.216734
_cell_length_c 14.372022
_cell_angle_alpha 90.000000
_cell_angle_beta 90.000000
_cell_angle_gamma 90.000000
_cell_volume 10646.084058
_symmetry_space_group_name_H-M "I 4/M M M"
_symmetry_group_IT_number 139
_symmetry_cell_setting 'tetragonal'
loop_
_space_group_symop_operation_xyz
x,y,z
-y,x,z
-x,-y,z
y,-x,z
x,-y,-z
-x,y,-z
y,x,-z
-y,-x,-z
-x,-y,-z
y,-x,-z
x,y,-z
-y,x,-z
-x,y,z
x,-y,z
-y,-x,z
y,x,z
1/2+x,1/2+y,1/2+z
1/2-y,1/2+x,1/2+z
1/2-x,1/2-y,1/2+z
1/2+y,1/2-x,1/2+z
1/2+x,1/2-y,1/2-z
1/2-x,1/2+y,1/2-z
1/2+y,1/2+x,1/2-z
1/2-y,1/2-x,1/2-z
1/2-x,1/2-y,1/2-z
1/2+y,1/2-x,1/2-z
1/2+x,1/2+y,1/2-z
1/2-y,1/2+x,1/2-z
1/2-x,1/2+y,1/2+z
1/2+x,1/2-y,1/2+z
1/2-y,1/2-x,1/2+z
1/2+y,1/2+x,1/2+z
loop_
_atom_site_type_symbol
_atom_site_label
_atom_site_fract_x
_atom_site_fract_y
_atom_site_fract_z
Si Si1 0.000000 0.078997 0.112852
Si Si2 0.623157 0.055245 0.371395
Si Si3 0.694649 0.773258 0.610866
Si Si4 0.751295 0.406560 0.692520
Si Si5 0.720602 0.885605 0.394880
Si Si6 0.141209 0.445088 0.348964
Si Si7 0.000000 0.806979 0.112660
O O1 0.000000 0.135613 0.139836
O O2 0.952211 0.047790 0.142730
O O3 0.000000 0.078443 0.000000
O O4 0.675579 0.076432 0.400921
O O5 0.584101 0.097065 0.396045
O O6 0.626465 0.052429 0.259570
O O7 0.612918 0.000000 0.402726
O O8 0.687388 0.770757 0.500000
O O9 0.744842 0.744842 0.634197
O O10 0.649003 0.745139 0.656996
O O11 0.700027 0.831300 0.632756
O O12 0.749304 0.404293 0.805161
O O13 0.806332 0.418725 0.654570
O O14 0.718080 0.450455 0.652731
O O15 0.742379 0.881653 0.500000
O O16 0.147046 0.500000 0.385428
O O17 0.000000 0.802578 0.000000
#
# Coordination Sequence:
#
# PCOD9571776 Si02
#       7
#    16  32  32  32  32  32  16
#     4   8  16  35  62  89 119 151 176 205 255 323
#     4   9  17  29  48  72  96 130 183 234 275 322
#     4  10  21  37  58  83 109 144 191 236 284 344
#     4  11  20  35  54  78 113 149 185 228 283 337
#     4  10  21  35  53  76 105 144 189 236 283 334
#     4   9  16  29  48  70 100 137 174 222 282 335
#     4  11  23  36  56  87 120 152 188 227 274 337
#
# _framework density 18.034801000000002
#
# number of rings (size 3 to 8) (size 9 to 14) (size 15 to 20)
#    0.000    2.250    2.500    1.250    1.167    2.667 
#    0.000    3.333    0.000    0.000    0.000    1.167 
#    0.000    0.667    0.000    3.667    0.000    0.333 
#
# Total GULP energy -534913.112243 kJ/mol
# GULP energy per Si atom -5572.011586 kJ/mol
# Density = 1.799375 g / cm^3
# Si number density = 18.034801 Si / 1000 Ang^3
#
#
#
# Elastic Constant Matrix: (Units=GPa)
#
#
# Indices 1 2 3 4 5 6 
#
# 1 94.6607 42.9669 27.7793 0.0000 0.0000 0.0000
# 2 42.9669 94.6607 27.7793 0.0000 0.0000 0.0000
# 3 27.7793 27.7793 102.2375 0.0000 0.0000 0.0000
# 4 0.0000 0.0000 0.0000 13.1214 0.0000 0.0000
# 5 0.0000 0.0000 0.0000 0.0000 13.1214 0.0000
# 6 0.0000 0.0000 0.0000 0.0000 0.0000 23.6106
#
#
#
# Elastic Compliance Matrix: (Units=1/GPa)
#
#
# Indices 1 2 3 4 5 6 
#
# 1 0.013753 -0.005592 -0.002217 0.000000 0.000000 0.000000
# 2 -0.005592 0.013753 -0.002217 0.000000 0.000000 0.000000
# 3 -0.002217 -0.002217 0.010986 0.000000 0.000000 0.000000
# 4 0.000000 0.000000 0.000000 0.076212 0.000000 0.000000
# 5 0.000000 0.000000 0.000000 0.000000 0.076212 0.000000
# 6 0.000000 0.000000 0.000000 0.000000 0.000000 0.042354
#
#
# Mechanical properties :
#
#
# Convention : Reuss Voigt Hill
#
# Bulk Modulus (GPa) = 54.23428 54.29000 54.26214
# Shear Modulus (GPa) = 19.27014 22.83956 21.05485
#
# Velocity S-wave (km/s) = 3.27233 3.56253 3.42051
# Velocity P-wave (km/s) = 6.66445 6.86225 6.76407
#
# Compressibility (1/GPa) = 0.01843852
#
# Stress axis : x y z
#
# Youngs Moduli (GPa) = 72.71184 72.71184 91.02338
#
# Poissons Ratio (x) = 0.40659 0.20184
# Poissons Ratio (y) = 0.40659 0.20184
# Poissons Ratio (z) = 0.16124 0.16124
#
# Static dielectric constant tensor:
#      x y z
#    x 1.612350 0.000000 0.000000 
#    y 0.000000 1.612350 0.000000 
#    z 0.000000 0.000000 1.681690 
# 
# From -- ./inp_files/6507.got.cif
#   From: 2010.05.17/outbox.cif.g08.bks.cpg/sg139_4_cif.got.tgz:6507.got - 2010.05.20 13:14:44.
