data_PCOD9571774
_publ_section_title
;
Structure prediction by ZEFSAII (Michael W. Deem and Ramdas Pophale) SiO2 
 PCOD9571774
Probable space group: I 4/M M M
;
_chemical_formula_sum "Si O2"
_cell_formula_units_Z 176
_cell_length_a 19.060928
_cell_length_b 19.060928
_cell_length_c 29.830288
_cell_angle_alpha 90.000000
_cell_angle_beta 90.000000
_cell_angle_gamma 90.000000
_cell_volume 10837.909697
_symmetry_space_group_name_H-M "I 4/M M M"
_symmetry_group_IT_number 139
_symmetry_cell_setting 'tetragonal'
loop_
_space_group_symop_operation_xyz
x,y,z
-y,x,z
-x,-y,z
y,-x,z
x,-y,-z
-x,y,-z
y,x,-z
-y,-x,-z
-x,-y,-z
y,-x,-z
x,y,-z
-y,x,-z
-x,y,z
x,-y,z
-y,-x,z
y,x,z
1/2+x,1/2+y,1/2+z
1/2-y,1/2+x,1/2+z
1/2-x,1/2-y,1/2+z
1/2+y,1/2-x,1/2+z
1/2+x,1/2-y,1/2-z
1/2-x,1/2+y,1/2-z
1/2+y,1/2+x,1/2-z
1/2-y,1/2-x,1/2-z
1/2-x,1/2-y,1/2-z
1/2+y,1/2-x,1/2-z
1/2+x,1/2+y,1/2-z
1/2-y,1/2+x,1/2-z
1/2-x,1/2+y,1/2+z
1/2+x,1/2-y,1/2+z
1/2-y,1/2-x,1/2+z
1/2+y,1/2+x,1/2+z
loop_
_atom_site_type_symbol
_atom_site_label
_atom_site_fract_x
_atom_site_fract_y
_atom_site_fract_z
Si Si1 0.305670 0.188379 0.549501
Si Si2 0.580096 0.305279 0.679961
Si Si3 0.500000 0.084340 0.550606
Si Si4 0.865004 0.416887 0.888715
Si Si5 0.418847 0.305714 0.571424
Si Si6 0.144895 0.416126 0.704242
O O1 0.308910 0.155290 0.500000
O O2 0.238111 0.238111 0.552425
O O3 0.306350 0.131028 0.588421
O O4 0.371545 0.241731 0.554106
O O5 0.500000 0.324350 0.692206
O O6 0.636446 0.363555 0.693690
O O7 0.582149 0.300118 0.625691
O O8 0.595955 0.228236 0.699022
O O9 0.500000 0.113519 0.500000
O O10 0.432304 0.101363 0.580094
O O11 0.500000 0.000000 0.546667
O O12 0.852480 0.500000 0.890962
O O13 0.882366 0.393621 0.838491
O O14 0.500000 0.303992 0.557074
O O15 0.377250 0.377250 0.559366
O O16 0.133191 0.500000 0.702907
O O17 0.115225 0.384776 0.750000
#
# Coordination Sequence:
#
# PCOD9571774 Si02
#       6
#    32  32  16  32  32  32
#     4  10  21  35  51  72 101 136 168 204 259 318
#     4   9  18  33  52  74  99 129 168 215 263 311
#     4   9  18  30  46  72 102 128 161 209 259 301
#     4  11  21  34  52  74 101 132 173 217 257 305
#     4   9  17  30  47  67  94 127 165 207 249 294
#     4  11  22  35  51  72 103 142 178 216 263 317
#
# _framework density 16.239294000000001
#
# number of rings (size 3 to 8) (size 9 to 14) (size 15 to 20)
#    0.000    2.091    2.727    1.091    1.273    3.091 
#    0.000    1.818    0.000    0.000    0.000    2.545 
#    0.000    0.364    0.000    2.000    0.000    0.000 
#
# Total GULP energy -491033.831002 kJ/mol
# GULP energy per Si atom -5579.929898 kJ/mol
# Density = 1.620233 g / cm^3
# Si number density = 16.239294 Si / 1000 Ang^3
#
#
#
# Elastic Constant Matrix: (Units=GPa)
#
#
# Indices 1 2 3 4 5 6 
#
# 1 80.4059 42.0225 43.6854 0.0000 0.0000 0.0000
# 2 42.0225 80.4045 43.6848 0.0000 0.0000 0.0000
# 3 43.6854 43.6848 115.9416 0.0000 0.0000 0.0000
# 4 0.0000 0.0000 0.0000 -6.2304 0.0000 0.0000
# 5 0.0000 0.0000 0.0000 0.0000 -6.2307 0.0000
# 6 0.0000 0.0000 0.0000 0.0000 0.0000 17.3062
#
#
#
# Elastic Compliance Matrix: (Units=1/GPa)
#
#
# Indices 1 2 3 4 5 6 
#
# 1 0.018613 -0.007441 -0.004210 0.000000 0.000000 0.000000
# 2 -0.007441 0.018613 -0.004210 0.000000 0.000000 0.000000
# 3 -0.004210 -0.004210 0.011797 0.000000 0.000000 0.000000
# 4 0.000000 0.000000 0.000000 -0.160502 0.000000 0.000000
# 5 0.000000 0.000000 0.000000 0.000000 -0.160497 0.000000
# 6 0.000000 0.000000 0.000000 0.000000 0.000000 0.057783
#
#
# Mechanical properties :
#
#
# Convention : Reuss Voigt Hill
#
# Bulk Modulus (GPa) = 57.79173 59.50416 58.64794
# Shear Modulus (GPa) = -28.29549 10.79298 -8.75125
#
# Velocity S-wave (km/s) = -4.17875 2.58082 -2.32393
# Velocity P-wave (km/s) = 3.51885 6.75296 5.38446
#
# Compressibility (1/GPa) = 0.01730351
#
# Stress axis : x y z
#
# Youngs Moduli (GPa) = 53.72686 53.72604 84.76586
#
# Poissons Ratio (x) = 0.39975 0.35682
# Poissons Ratio (y) = 0.39976 0.35682
# Poissons Ratio (z) = 0.22617 0.22616
#
# Static dielectric constant tensor:
#      x y z
#    x 1.548220 0.000000 0.000000 
#    y 0.000000 1.548220 0.000000 
#    z 0.000000 0.000000 1.546240 
# 
# From -- ./inp_files/14250.got.cif
#   From: 2010.05.17/outbox.cif.g08.bks.cpg/sg139_8_cif.got.tgz:14250.got - 2010.05.20 13:14:44.
