data_PCOD9571687
_publ_section_title
;
Structure prediction by ZEFSAII (Michael W. Deem and Ramdas Pophale) SiO2 
 PCOD9571687
Probable space group: I 4/M M M
;
_chemical_formula_sum "Si O2"
_cell_formula_units_Z 160
_cell_length_a 32.982159
_cell_length_b 32.982159
_cell_length_c 8.121683
_cell_angle_alpha 90.000000
_cell_angle_beta 90.000000
_cell_angle_gamma 90.000000
_cell_volume 8834.952042
_symmetry_space_group_name_H-M "I 4/M M M"
_symmetry_group_IT_number 139
_symmetry_cell_setting 'tetragonal'
loop_
_space_group_symop_operation_xyz
x,y,z
-y,x,z
-x,-y,z
y,-x,z
x,-y,-z
-x,y,-z
y,x,-z
-y,-x,-z
-x,-y,-z
y,-x,-z
x,y,-z
-y,x,-z
-x,y,z
x,-y,z
-y,-x,z
y,x,z
1/2+x,1/2+y,1/2+z
1/2-y,1/2+x,1/2+z
1/2-x,1/2-y,1/2+z
1/2+y,1/2-x,1/2+z
1/2+x,1/2-y,1/2-z
1/2-x,1/2+y,1/2-z
1/2+y,1/2+x,1/2-z
1/2-y,1/2-x,1/2-z
1/2-x,1/2-y,1/2-z
1/2+y,1/2-x,1/2-z
1/2+x,1/2+y,1/2-z
1/2-y,1/2+x,1/2-z
1/2-x,1/2+y,1/2+z
1/2+x,1/2-y,1/2+z
1/2-y,1/2-x,1/2+z
1/2+y,1/2+x,1/2+z
loop_
_atom_site_type_symbol
_atom_site_label
_atom_site_fract_x
_atom_site_fract_y
_atom_site_fract_z
Si Si1 0.046130 0.389460 0.198633
Si Si2 0.283013 0.283013 0.696573
Si Si3 0.453146 0.384722 0.000000
Si Si4 0.766715 0.874487 0.691796
Si Si5 0.676461 0.111631 0.802206
Si Si6 0.654191 0.414428 0.316179
O O1 0.070277 0.429724 0.250000
O O2 0.073706 0.351367 0.253043
O O3 0.000000 0.388215 0.259272
O O4 0.045303 0.388343 0.000000
O O5 0.284770 0.284770 0.500000
O O6 0.250000 0.250000 0.750000
O O7 0.327218 0.271032 0.762699
O O8 0.442439 0.359377 0.164747
O O9 0.500000 0.396058 0.000000
O O10 0.423597 0.423597 0.000000
O O11 0.776413 0.879435 0.500000
O O12 0.721082 0.888181 0.728183
O O13 0.799924 0.899667 0.792499
O O14 0.651737 0.151737 0.750000
O O15 0.679493 0.111054 0.000000
O O16 0.648419 0.431760 0.500000
O O17 0.625491 0.374510 0.304843
#
# Coordination Sequence:
#
# PCOD9571687 Si02
#       6
#    32  16  16  32  32  32
#     4   9  19  36  57  80 106 137 176 224 281 346
#     4  12  24  36  50  78 114 154 202 254 301 341
#     4  10  22  41  66  96 128 158 198 244 295 359
#     4  12  22  35  55  80 113 154 199 246 294 345
#     4  10  20  35  53  75 107 147 191 236 290 350
#     4  10  20  37  61  89 120 161 204 244 294 346
#
# _framework density 18.10989
#
# number of rings (size 3 to 8) (size 9 to 14) (size 15 to 20)
#    0.000    1.600    2.000    3.900    0.000    1.900 
#    0.000    2.000    0.000    2.400    0.000    2.800 
#    0.000    0.000    0.000    0.000    0.000    0.000 
#
# Total GULP energy -446860.855149 kJ/mol
# GULP energy per Si atom -5585.760689 kJ/mol
# Density = 1.806867 g / cm^3
# Si number density = 18.109890 Si / 1000 Ang^3
#
#
#
# Elastic Constant Matrix: (Units=GPa)
#
#
# Indices 1 2 3 4 5 6 
#
# 1 85.9509 48.8155 22.8520 0.0000 0.0000 0.0000
# 2 48.8155 85.9687 22.8558 0.0000 0.0000 0.0000
# 3 22.8520 22.8558 98.3201 0.0000 0.0000 0.0000
# 4 0.0000 0.0000 0.0000 16.6244 0.0000 0.0000
# 5 0.0000 0.0000 0.0000 0.0000 16.6247 0.0000
# 6 0.0000 0.0000 0.0000 0.0000 0.0000 8.5259
#
#
#
# Elastic Compliance Matrix: (Units=1/GPa)
#
#
# Indices 1 2 3 4 5 6 
#
# 1 0.017490 -0.009434 -0.001872 0.000000 0.000000 0.000000
# 2 -0.009434 0.017487 -0.001872 0.000000 0.000000 0.000000
# 3 -0.001872 -0.001872 0.011041 0.000000 0.000000 0.000000
# 4 0.000000 0.000000 0.000000 0.060153 0.000000 0.000000
# 5 0.000000 0.000000 0.000000 0.000000 0.060151 0.000000
# 6 0.000000 0.000000 0.000000 0.000000 0.000000 0.117290
#
#
# Mechanical properties :
#
#
# Convention : Reuss Voigt Hill
#
# Bulk Modulus (GPa) = 50.86051 51.03180 50.94615
# Shear Modulus (GPa) = 15.79668 20.06943 17.93305
#
# Velocity S-wave (km/s) = 2.95662 3.33258 3.15021
# Velocity P-wave (km/s) = 6.30879 6.56112 6.43619
#
# Compressibility (1/GPa) = 0.01966162
#
# Stress axis : x y z
#
# Youngs Moduli (GPa) = 57.17513 57.18652 90.56947
#
# Poissons Ratio (x) = 0.53948 0.16956
# Poissons Ratio (y) = 0.53937 0.16958
# Poissons Ratio (z) = 0.10704 0.10708
#
# Static dielectric constant tensor:
#      x y z
#    x 1.587560 0.000000 0.000000 
#    y 0.000000 1.587560 0.000000 
#    z 0.000000 0.000000 1.644640 
# 
# From -- ./inp_files/2193.got.cif
#   From: 2010.05.17/outbox.cif.g08.bks.cpg/sg139_2_cif.got.tgz:2193.got - 2010.05.20 13:14:44.
