data_PCOD9571632
_publ_section_title
;
Structure prediction by ZEFSAII (Michael W. Deem and Ramdas Pophale) SiO2 
 PCOD9571632
Probable space group: I 4/M M M
;
_chemical_formula_sum "Si O2"
_cell_formula_units_Z 120
_cell_length_a 22.737838
_cell_length_b 22.737838
_cell_length_c 13.678980
_cell_angle_alpha 90.000000
_cell_angle_beta 90.000000
_cell_angle_gamma 90.000000
_cell_volume 7072.159559
_symmetry_space_group_name_H-M "I 4/M M M"
_symmetry_group_IT_number 139
_symmetry_cell_setting 'tetragonal'
loop_
_space_group_symop_operation_xyz
x,y,z
-y,x,z
-x,-y,z
y,-x,z
x,-y,-z
-x,y,-z
y,x,-z
-y,-x,-z
-x,-y,-z
y,-x,-z
x,y,-z
-y,x,-z
-x,y,z
x,-y,z
-y,-x,z
y,x,z
1/2+x,1/2+y,1/2+z
1/2-y,1/2+x,1/2+z
1/2-x,1/2-y,1/2+z
1/2+y,1/2-x,1/2+z
1/2+x,1/2-y,1/2-z
1/2-x,1/2+y,1/2-z
1/2+y,1/2+x,1/2-z
1/2-y,1/2-x,1/2-z
1/2-x,1/2-y,1/2-z
1/2+y,1/2-x,1/2-z
1/2+x,1/2+y,1/2-z
1/2-y,1/2+x,1/2-z
1/2-x,1/2+y,1/2+z
1/2+x,1/2-y,1/2+z
1/2-y,1/2-x,1/2+z
1/2+y,1/2+x,1/2+z
loop_
_atom_site_type_symbol
_atom_site_label
_atom_site_fract_x
_atom_site_fract_y
_atom_site_fract_z
Si Si1 0.629154 0.629154 0.880387
Si Si2 0.367406 0.930272 0.000000
Si Si3 0.500000 0.662510 0.111047
Si Si4 0.615323 0.200555 0.689513
Si Si5 0.701028 0.701028 0.274214
Si Si6 0.000000 0.384552 0.500000
Si Si7 0.500000 0.792421 0.176040
O O1 0.562464 0.642502 0.848150
O O2 0.673025 0.673025 0.824308
O O3 0.634753 0.634753 0.000000
O O4 0.335375 0.902109 0.093408
O O5 0.437757 0.918742 0.000000
O O6 0.357673 0.000000 0.000000
O O7 0.500000 0.732568 0.114941
O O8 0.500000 0.640296 0.000000
O O9 0.660313 0.160313 0.750000
O O10 0.648613 0.262855 0.672875
O O11 0.557354 0.207633 0.755635
O O12 0.750000 0.750000 0.250000
O O13 0.000000 0.345203 0.598405
#
# Coordination Sequence:
#
# PCOD9571632 Si02
#       7
#    16  16  16  32  16   8  16
#     4  10  20  35  57  85 119 153 195 239 288 355
#     4  12  25  41  61  87 114 156 198 245 298 342
#     4  10  20  33  56  87 115 154 196 235 289 351
#     4  11  23  40  60  86 117 149 197 245 293 353
#     4  10  22  39  55  83 116 149 187 244 296 340
#     4  12  25  38  62  84 120 155 202 240 290 348
#     4  12  20  36  63  84 112 158 196 237 282 353
#
# _framework density 16.967943000000002
#
# number of rings (size 3 to 8) (size 9 to 14) (size 15 to 20)
#    0.000    1.067    7.333    0.200    0.000    0.800 
#    9.600    1.333    0.000    0.000    0.000    0.000 
#    0.000    0.000    0.000    4.800    0.000    0.000 
#
# Total GULP energy -334422.036959 kJ/mol
# GULP energy per Si atom -5573.700616 kJ/mol
# Density = 1.692932 g / cm^3
# Si number density = 16.967943 Si / 1000 Ang^3
#
#
#
# Elastic Constant Matrix: (Units=GPa)
#
#
# Indices 1 2 3 4 5 6 
#
# 1 115.9582 58.6918 42.6550 0.0000 0.0000 0.0000
# 2 58.6918 115.9582 42.6550 0.0000 0.0000 0.0000
# 3 42.6550 42.6550 77.2353 0.0000 0.0000 0.0000
# 4 0.0000 0.0000 0.0000 25.7484 0.0000 0.0000
# 5 0.0000 0.0000 0.0000 0.0000 25.7484 0.0000
# 6 0.0000 0.0000 0.0000 0.0000 0.0000 35.4952
#
#
#
# Elastic Compliance Matrix: (Units=1/GPa)
#
#
# Indices 1 2 3 4 5 6 
#
# 1 0.012652 -0.004811 -0.004330 0.000000 0.000000 0.000000
# 2 -0.004811 0.012652 -0.004330 0.000000 0.000000 0.000000
# 3 -0.004330 -0.004330 0.017731 0.000000 0.000000 0.000000
# 4 0.000000 0.000000 0.000000 0.038837 0.000000 0.000000
# 5 0.000000 0.000000 0.000000 0.000000 0.038837 0.000000
# 6 0.000000 0.000000 0.000000 0.000000 0.000000 0.028173
#
#
# Mechanical properties :
#
#
# Convention : Reuss Voigt Hill
#
# Bulk Modulus (GPa) = 62.14643 66.35058 64.24850
# Shear Modulus (GPa) = 27.59572 28.40840 28.00206
#
# Velocity S-wave (km/s) = 4.03717 4.09619 4.06679
# Velocity P-wave (km/s) = 7.64441 7.84602 7.74587
#
# Compressibility (1/GPa) = 0.01609103
#
# Stress axis : x y z
#
# Youngs Moduli (GPa) = 79.04137 79.04137 56.39995
#
# Poissons Ratio (x) = 0.38024 0.24423
# Poissons Ratio (y) = 0.38024 0.24423
# Poissons Ratio (z) = 0.34228 0.34228
#
# Static dielectric constant tensor:
#      x y z
#    x 1.582060 0.000000 0.000000 
#    y 0.000000 1.582060 0.000000 
#    z 0.000000 0.000000 1.555530 
# 
# From -- ./inp_files/3518.got.cif
#   From: 2010.05.17/outbox.cif.g08.bks.cpg/sg139_2_cif.got.tgz:3518.got - 2010.05.20 13:14:44.
