data_PCOD9571735
_publ_section_title
;
Structure prediction by ZEFSAII (Michael W. Deem and Ramdas Pophale) SiO2 
 PCOD9571735
Probable space group: I 4/M M M
;
_chemical_formula_sum "Si O2"
_cell_formula_units_Z 160
_cell_length_a 31.095201
_cell_length_b 31.095201
_cell_length_c 7.806574
_cell_angle_alpha 90.000000
_cell_angle_beta 90.000000
_cell_angle_gamma 90.000000
_cell_volume 7548.266373
_symmetry_space_group_name_H-M "I 4/M M M"
_symmetry_group_IT_number 139
_symmetry_cell_setting 'tetragonal'
loop_
_space_group_symop_operation_xyz
x,y,z
-y,x,z
-x,-y,z
y,-x,z
x,-y,-z
-x,y,-z
y,x,-z
-y,-x,-z
-x,-y,-z
y,-x,-z
x,y,-z
-y,x,-z
-x,y,z
x,-y,z
-y,-x,z
y,x,z
1/2+x,1/2+y,1/2+z
1/2-y,1/2+x,1/2+z
1/2-x,1/2-y,1/2+z
1/2+y,1/2-x,1/2+z
1/2+x,1/2-y,1/2-z
1/2-x,1/2+y,1/2-z
1/2+y,1/2+x,1/2-z
1/2-y,1/2-x,1/2-z
1/2-x,1/2-y,1/2-z
1/2+y,1/2-x,1/2-z
1/2+x,1/2+y,1/2-z
1/2-y,1/2+x,1/2-z
1/2-x,1/2+y,1/2+z
1/2+x,1/2-y,1/2+z
1/2-y,1/2-x,1/2+z
1/2+y,1/2+x,1/2+z
loop_
_atom_site_type_symbol
_atom_site_label
_atom_site_fract_x
_atom_site_fract_y
_atom_site_fract_z
Si Si1 0.847074 0.283797 0.703570
Si Si2 0.202363 0.202363 0.708784
Si Si3 0.133218 0.133218 0.296646
Si Si4 0.951360 0.378902 0.206134
Si Si5 0.719893 0.940458 0.195166
Si Si6 0.683592 0.546689 0.294167
O O1 0.853983 0.279708 0.500000
O O2 0.830397 0.330397 0.750000
O O3 0.812804 0.248769 0.764116
O O4 0.889791 0.275336 0.802874
O O5 0.202389 0.202389 0.500000
O O6 0.167748 0.167748 0.770835
O O7 0.135104 0.135104 0.500000
O O8 0.086289 0.152269 0.250813
O O9 0.912909 0.412909 0.250000
O O10 0.947944 0.328532 0.269835
O O11 0.000000 0.393838 0.256039
O O12 0.950046 0.375908 0.000000
O O13 0.766613 0.952780 0.273519
O O14 0.718578 0.956201 0.000000
O O15 0.687847 0.548278 0.500000
O O16 0.665249 0.500000 0.244948
#
# Coordination Sequence:
#
# PCOD9571735 Si02
#       6
#    32  16  16  32  32  32
#     4  11  21  34  50  74 110 153 196 237 279 330
#     4   9  19  34  50  72 108 150 188 233 278 321
#     4  11  21  38  60  87 122 156 195 240 287 342
#     4  10  22  40  60  82 110 144 184 234 291 348
#     4  10  20  36  58  84 113 148 187 232 285 342
#     4  10  21  38  62  91 121 155 195 237 284 341
#
# _framework density 21.196921
#
# number of rings (size 3 to 8) (size 9 to 14) (size 15 to 20)
#    0.000    1.800    2.000    2.400    0.000    5.800 
#    0.000    2.500    0.000    3.900    0.000    2.100 
#    0.000    0.000    0.000    0.000    0.000    0.000 
#
# Total GULP energy -445579.760293 kJ/mol
# GULP energy per Si atom -5569.747004 kJ/mol
# Density = 2.114868 g / cm^3
# Si number density = 21.196921 Si / 1000 Ang^3
#
#
#
# Elastic Constant Matrix: (Units=GPa)
#
#
# Indices 1 2 3 4 5 6 
#
# 1 230.8443 10.5491 11.1535 0.0000 0.0000 0.0000
# 2 10.5491 230.8443 11.1535 0.0000 0.0000 0.0000
# 3 11.1535 11.1535 42.5067 0.0000 0.0000 0.0000
# 4 0.0000 0.0000 0.0000 8.6134 0.0000 0.0000
# 5 0.0000 0.0000 0.0000 0.0000 8.6134 0.0000
# 6 0.0000 0.0000 0.0000 0.0000 0.0000 15.8956
#
#
#
# Elastic Compliance Matrix: (Units=1/GPa)
#
#
# Indices 1 2 3 4 5 6 
#
# 1 0.004392 -0.000147 -0.001114 0.000000 0.000000 0.000000
# 2 -0.000147 0.004392 -0.001114 0.000000 0.000000 0.000000
# 3 -0.001114 -0.001114 0.024110 0.000000 0.000000 0.000000
# 4 0.000000 0.000000 0.000000 0.116098 0.000000 0.000000
# 5 0.000000 0.000000 0.000000 0.000000 0.116098 0.000000
# 6 0.000000 0.000000 0.000000 0.000000 0.000000 0.062911
#
#
# Mechanical properties :
#
#
# Convention : Reuss Voigt Hill
#
# Bulk Modulus (GPa) = 35.52980 63.32305 49.42643
# Shear Modulus (GPa) = 14.61421 38.04710 26.33066
#
# Velocity S-wave (km/s) = 2.62859 4.24126 3.52830
# Velocity P-wave (km/s) = 5.10008 7.34323 6.32194
#
# Compressibility (1/GPa) = 0.02814539
#
# Stress axis : x y z
#
# Youngs Moduli (GPa) = 227.66277 227.66277 41.47606
#
# Poissons Ratio (x) = 0.03344 0.04620
# Poissons Ratio (y) = 0.03344 0.04620
# Poissons Ratio (z) = 0.25362 0.25362
#
# Static dielectric constant tensor:
#      x y z
#    x 1.728360 0.000000 0.000000 
#    y 0.000000 1.728360 0.000000 
#    z 0.000000 0.000000 1.788750 
# 
# From -- ./inp_files/2165.got.cif
#   From: 2010.05.17/outbox.cif.g08.bks.cpg/sg139_2_cif.got.tgz:2165.got - 2010.05.20 13:14:44.
