data_PCOD9571727
_publ_section_title
;
Structure prediction by ZEFSAII (Michael W. Deem and Ramdas Pophale) SiO2 
 PCOD9571727
Probable space group: I 4/M M M
;
_chemical_formula_sum "Si O2"
_cell_formula_units_Z 160
_cell_length_a 21.084163
_cell_length_b 21.084163
_cell_length_c 20.563039
_cell_angle_alpha 90.000000
_cell_angle_beta 90.000000
_cell_angle_gamma 90.000000
_cell_volume 9141.133032
_symmetry_space_group_name_H-M "I 4/M M M"
_symmetry_group_IT_number 139
_symmetry_cell_setting 'tetragonal'
loop_
_space_group_symop_operation_xyz
x,y,z
-y,x,z
-x,-y,z
y,-x,z
x,-y,-z
-x,y,-z
y,x,-z
-y,-x,-z
-x,-y,-z
y,-x,-z
x,y,-z
-y,x,-z
-x,y,z
x,-y,z
-y,-x,z
y,x,z
1/2+x,1/2+y,1/2+z
1/2-y,1/2+x,1/2+z
1/2-x,1/2-y,1/2+z
1/2+y,1/2-x,1/2+z
1/2+x,1/2-y,1/2-z
1/2-x,1/2+y,1/2-z
1/2+y,1/2+x,1/2-z
1/2-y,1/2-x,1/2-z
1/2-x,1/2-y,1/2-z
1/2+y,1/2-x,1/2-z
1/2+x,1/2+y,1/2-z
1/2-y,1/2+x,1/2-z
1/2-x,1/2+y,1/2+z
1/2+x,1/2-y,1/2+z
1/2-y,1/2-x,1/2+z
1/2+y,1/2+x,1/2+z
loop_
_atom_site_type_symbol
_atom_site_label
_atom_site_fract_x
_atom_site_fract_y
_atom_site_fract_z
Si Si1 0.576746 0.319078 0.232155
Si Si2 0.572345 0.897845 0.675611
Si Si3 0.745241 0.154476 0.500000
Si Si4 0.749196 0.073168 0.138926
Si Si5 0.638913 0.261843 0.500000
Si Si6 0.427333 0.211588 0.875219
O O1 0.500000 0.331578 0.230419
O O2 0.620736 0.379264 0.213959
O O3 0.595809 0.296408 0.304722
O O4 0.588337 0.258011 0.185430
O O5 0.500000 0.915868 0.653711
O O6 0.580161 0.919840 0.750000
O O7 0.576514 0.821845 0.668056
O O8 0.636317 0.921550 0.640142
O O9 0.814640 0.185361 0.500000
O O10 0.694834 0.210964 0.500000
O O11 0.731550 0.115148 0.435480
O O12 0.764495 0.000000 0.128953
O O13 0.751947 0.103915 0.068241
O O14 0.668442 0.331559 0.500000
O O15 0.500000 0.224122 0.891779
#
# Coordination Sequence:
#
# PCOD9571727 Si02
#       6
#    32  32  16  32  16  32
#     4  10  21  38  61  86 113 146 186 237 295 352
#     4  11  21  36  57  83 116 152 194 235 275 332
#     4  11  23  38  56  80 110 146 189 235 287 338
#     4  10  20  36  56  80 114 150 186 230 283 337
#     4  11  21  34  54  79 109 143 186 233 275 328
#     4  11  22  39  58  82 115 149 189 235 286 340
#
# _framework density 17.503301
#
# number of rings (size 3 to 8) (size 9 to 14) (size 15 to 20)
#    0.000    1.400    4.000    2.400    0.000    1.600 
#    0.000    1.500    0.000    1.200    0.000    0.000 
#    0.000   14.400    0.000    0.000    0.000    0.000 
#
# Total GULP energy -445789.625292 kJ/mol
# GULP energy per Si atom -5572.370316 kJ/mol
# Density = 1.746346 g / cm^3
# Si number density = 17.503301 Si / 1000 Ang^3
#
#
#
# Elastic Constant Matrix: (Units=GPa)
#
#
# Indices 1 2 3 4 5 6 
#
# 1 81.9371 65.7340 54.8289 0.0000 0.0000 0.0000
# 2 65.7340 81.9375 54.8284 0.0000 0.0000 0.0000
# 3 54.8289 54.8284 119.2170 0.0000 0.0000 0.0000
# 4 0.0000 0.0000 0.0000 24.8288 0.0000 0.0000
# 5 0.0000 0.0000 0.0000 0.0000 24.8268 0.0000
# 6 0.0000 0.0000 0.0000 0.0000 0.0000 29.5060
#
#
#
# Elastic Compliance Matrix: (Units=1/GPa)
#
#
# Indices 1 2 3 4 5 6 
#
# 1 0.036000 -0.025716 -0.004730 0.000000 0.000000 0.000000
# 2 -0.025716 0.036000 -0.004729 0.000000 0.000000 0.000000
# 3 -0.004730 -0.004729 0.012738 0.000000 0.000000 0.000000
# 4 0.000000 0.000000 0.000000 0.040276 0.000000 0.000000
# 5 0.000000 0.000000 0.000000 0.000000 0.040279 0.000000
# 6 0.000000 0.000000 0.000000 0.000000 0.000000 0.033891
#
#
# Mechanical properties :
#
#
# Convention : Reuss Voigt Hill
#
# Bulk Modulus (GPa) = 69.50368 70.43046 69.96707
# Shear Modulus (GPa) = 18.22617 23.01235 20.61926
#
# Velocity S-wave (km/s) = 3.23042 3.62987 3.43595
# Velocity P-wave (km/s) = 7.32866 7.60879 7.47004
#
# Compressibility (1/GPa) = 0.01438773
#
# Stress axis : x y z
#
# Youngs Moduli (GPa) = 27.77765 27.77811 78.50247
#
# Poissons Ratio (x) = 0.71434 0.37131
# Poissons Ratio (y) = 0.71433 0.37127
# Poissons Ratio (z) = 0.13139 0.13137
#
# Static dielectric constant tensor:
#      x y z
#    x 1.597750 0.000000 0.000000 
#    y 0.000000 1.597750 0.000000 
#    z 0.000000 0.000000 1.624140 
# 
# From -- ./inp_files/8447.got.cif
#   From: 2010.05.17/outbox.cif.g08.bks.cpg/sg139_5_cif.got.tgz:8447.got - 2010.05.20 13:14:44.
