data_PCOD9571849
_publ_section_title
;
Structure prediction by ZEFSAII (Michael W. Deem and Ramdas Pophale) SiO2 
 PCOD9571849
Probable space group: I 4/M M M
;
_chemical_formula_sum "Si O2"
_cell_formula_units_Z 160
_cell_length_a 22.186300
_cell_length_b 22.186300
_cell_length_c 17.450753
_cell_angle_alpha 90.000000
_cell_angle_beta 90.000000
_cell_angle_gamma 90.000000
_cell_volume 8589.817440
_symmetry_space_group_name_H-M "I 4/M M M"
_symmetry_group_IT_number 139
_symmetry_cell_setting 'tetragonal'
loop_
_space_group_symop_operation_xyz
x,y,z
-y,x,z
-x,-y,z
y,-x,z
x,-y,-z
-x,y,-z
y,x,-z
-y,-x,-z
-x,-y,-z
y,-x,-z
x,y,-z
-y,x,-z
-x,y,z
x,-y,z
-y,-x,z
y,x,z
1/2+x,1/2+y,1/2+z
1/2-y,1/2+x,1/2+z
1/2-x,1/2-y,1/2+z
1/2+y,1/2-x,1/2+z
1/2+x,1/2-y,1/2-z
1/2-x,1/2+y,1/2-z
1/2+y,1/2+x,1/2-z
1/2-y,1/2-x,1/2-z
1/2-x,1/2-y,1/2-z
1/2+y,1/2-x,1/2-z
1/2+x,1/2+y,1/2-z
1/2-y,1/2+x,1/2-z
1/2-x,1/2+y,1/2+z
1/2+x,1/2-y,1/2+z
1/2-y,1/2-x,1/2+z
1/2+y,1/2+x,1/2+z
loop_
_atom_site_type_symbol
_atom_site_label
_atom_site_fract_x
_atom_site_fract_y
_atom_site_fract_z
Si Si1 0.429024 0.669182 0.282613
Si Si2 0.751801 0.572110 0.858576
Si Si3 0.668394 0.572081 0.000000
Si Si4 0.131033 0.377770 0.658004
Si Si5 0.928137 0.500000 0.592163
Si Si6 0.362553 0.735420 0.408856
O O1 0.500000 0.658827 0.275044
O O2 0.390054 0.609947 0.266127
O O3 0.410419 0.721100 0.221904
O O4 0.411207 0.693307 0.366331
O O5 0.755707 0.500000 0.859112
O O6 0.706783 0.590575 0.925916
O O7 0.818272 0.596889 0.870994
O O8 0.661907 0.500000 0.000000
O O9 0.605083 0.605083 0.000000
O O10 0.124612 0.375389 0.750000
O O11 0.102683 0.439938 0.626732
O O12 0.199288 0.369758 0.628942
O O13 0.920686 0.500000 0.500000
O O14 0.000000 0.500000 0.608971
O O15 0.371361 0.739063 0.500000
O O16 0.298238 0.701763 0.394866
#
# Coordination Sequence:
#
# PCOD9571849 Si02
#       6
#    32  32  16  32  16  32
#     4  10  21  39  63  91 124 163 206 259 317 382
#     4  10  22  40  60  88 123 163 206 251 313 379
#     4  10  22  39  64  93 127 167 207 257 312 378
#     4  12  25  41  67  93 123 168 211 266 321 378
#     4  11  28  46  66  96 132 170 217 269 322 389
#     4  10  23  41  61  91 127 165 212 265 322 384
#
# _framework density 18.626704
#
# number of rings (size 3 to 8) (size 9 to 14) (size 15 to 20)
#    0.000    1.500    2.000    1.800    7.000    2.700 
#    0.000    0.000    0.000    3.600    0.000    2.800 
#    0.000    0.000    0.000    0.000    0.000    0.000 
#
# Total GULP energy -446679.977214 kJ/mol
# GULP energy per Si atom -5583.499715 kJ/mol
# Density = 1.858431 g / cm^3
# Si number density = 18.626704 Si / 1000 Ang^3
#
#
#
# Elastic Constant Matrix: (Units=GPa)
#
#
# Indices 1 2 3 4 5 6 
#
# 1 113.6012 83.9386 49.8616 0.0000 0.0000 0.0000
# 2 83.9386 113.6008 49.8615 0.0000 0.0000 0.0000
# 3 49.8616 49.8615 102.5121 0.0000 0.0000 0.0000
# 4 0.0000 0.0000 0.0000 24.1754 0.0000 0.0000
# 5 0.0000 0.0000 0.0000 0.0000 24.1754 0.0000
# 6 0.0000 0.0000 0.0000 0.0000 0.0000 35.2185
#
#
#
# Elastic Compliance Matrix: (Units=1/GPa)
#
#
# Indices 1 2 3 4 5 6 
#
# 1 0.020211 -0.013501 -0.003264 0.000000 0.000000 0.000000
# 2 -0.013501 0.020211 -0.003264 0.000000 0.000000 0.000000
# 3 -0.003264 -0.003264 0.012930 0.000000 0.000000 0.000000
# 4 0.000000 0.000000 0.000000 0.041364 0.000000 0.000000
# 5 0.000000 0.000000 0.000000 0.000000 0.041364 0.000000
# 6 0.000000 0.000000 0.000000 0.000000 0.000000 0.028394
#
#
# Mechanical properties :
#
#
# Convention : Reuss Voigt Hill
#
# Bulk Modulus (GPa) = 75.21678 77.44861 76.33269
# Shear Modulus (GPa) = 23.92753 26.45069 25.18911
#
# Velocity S-wave (km/s) = 3.58799 3.77243 3.68137
# Velocity P-wave (km/s) = 7.59169 7.78746 7.69020
#
# Compressibility (1/GPa) = 0.01329491
#
# Stress axis : x y z
#
# Youngs Moduli (GPa) = 49.47737 49.47723 77.34077
#
# Poissons Ratio (x) = 0.66801 0.25241
# Poissons Ratio (y) = 0.66802 0.25241
# Poissons Ratio (z) = 0.16148 0.16148
#
# Static dielectric constant tensor:
#      x y z
#    x 1.620100 0.000000 0.000000 
#    y 0.000000 1.620100 0.000000 
#    z 0.000000 0.000000 1.659960 
# 
# From -- ./inp_files/8440.got.cif
#   From: 2010.05.17/outbox.cif.g08.bks.cpg/sg139_5_cif.got.tgz:8440.got - 2010.05.20 13:14:44.
