data_PCOD9571677
_publ_section_title
;
Structure prediction by ZEFSAII (Michael W. Deem and Ramdas Pophale) SiO2 
 PCOD9571677
Probable space group: I 4/M M M
;
_chemical_formula_sum "Si O2"
_cell_formula_units_Z 160
_cell_length_a 23.637994
_cell_length_b 23.637994
_cell_length_c 14.087150
_cell_angle_alpha 90.000000
_cell_angle_beta 90.000000
_cell_angle_gamma 90.000000
_cell_volume 7871.262122
_symmetry_space_group_name_H-M "I 4/M M M"
_symmetry_group_IT_number 139
_symmetry_cell_setting 'tetragonal'
loop_
_space_group_symop_operation_xyz
x,y,z
-y,x,z
-x,-y,z
y,-x,z
x,-y,-z
-x,y,-z
y,x,-z
-y,-x,-z
-x,-y,-z
y,-x,-z
x,y,-z
-y,x,-z
-x,y,z
x,-y,z
-y,-x,z
y,x,z
1/2+x,1/2+y,1/2+z
1/2-y,1/2+x,1/2+z
1/2-x,1/2-y,1/2+z
1/2+y,1/2-x,1/2+z
1/2+x,1/2-y,1/2-z
1/2-x,1/2+y,1/2-z
1/2+y,1/2+x,1/2-z
1/2-y,1/2-x,1/2-z
1/2-x,1/2-y,1/2-z
1/2+y,1/2-x,1/2-z
1/2+x,1/2+y,1/2-z
1/2-y,1/2+x,1/2-z
1/2-x,1/2+y,1/2+z
1/2+x,1/2-y,1/2+z
1/2-y,1/2-x,1/2+z
1/2+y,1/2+x,1/2+z
loop_
_atom_site_type_symbol
_atom_site_label
_atom_site_fract_x
_atom_site_fract_y
_atom_site_fract_z
Si Si1 0.936157 0.272792 0.111816
Si Si2 0.435893 0.815491 0.885243
Si Si3 0.139896 0.768569 0.272954
Si Si4 0.650591 0.434707 0.105675
Si Si5 0.939012 0.408360 0.885910
O O1 0.884622 0.246033 0.169795
O O2 0.935152 0.340553 0.125951
O O3 0.000000 0.253856 0.141303
O O4 0.930767 0.262025 0.000000
O O5 0.500000 0.792935 0.863481
O O6 0.381912 0.784444 0.837398
O O7 0.434507 0.880567 0.851597
O O8 0.430086 0.813446 0.000000
O O9 0.202597 0.797404 0.275925
O O10 0.099364 0.815980 0.316916
O O11 0.655604 0.500000 0.119337
O O12 0.586524 0.413477 0.107077
O O13 0.673421 0.420229 0.000000
O O14 0.000000 0.427828 0.848978
O O15 0.939637 0.418756 0.000000
#
# Coordination Sequence:
#
# PCOD9571677 Si02
#       5
#    32  32  32  32  32
#     4   9  18  35  58  78  99 133 178 231 289 343
#     4  10  20  34  55  83 115 150 185 222 266 322
#     4  11  22  34  50  73 105 145 188 232 274 321
#     4   9  17  29  46  69  98 132 170 214 265 322
#     4   8  16  33  56  82 111 141 174 216 269 326
#
# _framework density 20.327107999999999
#
# number of rings (size 3 to 8) (size 9 to 14) (size 15 to 20)
#    0.000    2.600    0.000    3.600    0.000    4.600 
#    0.000    5.000    0.000    3.600    0.000    2.800 
#    0.000    0.000    0.000   31.200    0.000    0.200 
#
# Total GULP energy -445847.919987 kJ/mol
# GULP energy per Si atom -5573.099000 kJ/mol
# Density = 2.028084 g / cm^3
# Si number density = 20.327108 Si / 1000 Ang^3
#
#
#
# Elastic Constant Matrix: (Units=GPa)
#
#
# Indices 1 2 3 4 5 6 
#
# 1 120.7503 26.1064 29.0416 0.0000 0.0000 0.0000
# 2 26.1064 120.7503 29.0416 0.0000 0.0000 0.0000
# 3 29.0416 29.0416 82.2434 0.0000 0.0000 0.0000
# 4 0.0000 0.0000 0.0000 40.5122 0.0000 0.0000
# 5 0.0000 0.0000 0.0000 0.0000 40.5122 0.0000
# 6 0.0000 0.0000 0.0000 0.0000 0.0000 21.0764
#
#
#
# Elastic Compliance Matrix: (Units=1/GPa)
#
#
# Indices 1 2 3 4 5 6 
#
# 1 0.009240 -0.001326 -0.002795 0.000000 0.000000 0.000000
# 2 -0.001326 0.009240 -0.002795 0.000000 0.000000 0.000000
# 3 -0.002795 -0.002795 0.014133 0.000000 0.000000 0.000000
# 4 0.000000 0.000000 0.000000 0.024684 0.000000 0.000000
# 5 0.000000 0.000000 0.000000 0.000000 0.024684 0.000000
# 6 0.000000 0.000000 0.000000 0.000000 0.000000 0.047446
#
#
# Mechanical properties :
#
#
# Convention : Reuss Voigt Hill
#
# Bulk Modulus (GPa) = 53.23967 54.68035 53.96001
# Shear Modulus (GPa) = 33.44052 36.39047 34.91549
#
# Velocity S-wave (km/s) = 4.06041 4.23572 4.14899
# Velocity P-wave (km/s) = 6.94484 7.13305 7.03957
#
# Compressibility (1/GPa) = 0.01878299
#
# Stress axis : x y z
#
# Youngs Moduli (GPa) = 108.22121 108.22121 70.75717
#
# Poissons Ratio (x) = 0.14346 0.19775
# Poissons Ratio (y) = 0.14346 0.19775
# Poissons Ratio (z) = 0.30246 0.30246
#
# Static dielectric constant tensor:
#      x y z
#    x 1.767870 0.000000 0.000000 
#    y 0.000000 1.767870 0.000000 
#    z 0.000000 0.000000 1.771160 
# 
# From -- ./inp_files/5933.got.cif
#   From: 2010.05.17/outbox.cif.g08.bks.cpg/sg139_3_cif.got.tgz:5933.got - 2010.05.20 13:14:44.
