data_PCOD9571597
_publ_section_title
;
Structure prediction by ZEFSAII (Michael W. Deem and Ramdas Pophale) SiO2 
 PCOD9571597
Probable space group: I 4/M M M
;
_chemical_formula_sum "Si O2"
_cell_formula_units_Z 128
_cell_length_a 19.396173
_cell_length_b 19.396173
_cell_length_c 19.831033
_cell_angle_alpha 90.000000
_cell_angle_beta 90.000000
_cell_angle_gamma 90.000000
_cell_volume 7460.663208
_symmetry_space_group_name_H-M "I 4/M M M"
_symmetry_group_IT_number 139
_symmetry_cell_setting 'tetragonal'
loop_
_space_group_symop_operation_xyz
x,y,z
-y,x,z
-x,-y,z
y,-x,z
x,-y,-z
-x,y,-z
y,x,-z
-y,-x,-z
-x,-y,-z
y,-x,-z
x,y,-z
-y,x,-z
-x,y,z
x,-y,z
-y,-x,z
y,x,z
1/2+x,1/2+y,1/2+z
1/2-y,1/2+x,1/2+z
1/2-x,1/2-y,1/2+z
1/2+y,1/2-x,1/2+z
1/2+x,1/2-y,1/2-z
1/2-x,1/2+y,1/2-z
1/2+y,1/2+x,1/2-z
1/2-y,1/2-x,1/2-z
1/2-x,1/2-y,1/2-z
1/2+y,1/2-x,1/2-z
1/2+x,1/2+y,1/2-z
1/2-y,1/2+x,1/2-z
1/2-x,1/2+y,1/2+z
1/2+x,1/2-y,1/2+z
1/2-y,1/2-x,1/2+z
1/2+y,1/2+x,1/2+z
loop_
_atom_site_type_symbol
_atom_site_label
_atom_site_fract_x
_atom_site_fract_y
_atom_site_fract_z
Si Si1 0.500000 0.917079 0.920055
Si Si2 0.748539 0.919213 0.858837
Si Si3 0.080834 0.186013 0.000000
Si Si4 0.807612 0.079208 0.715026
Si Si5 0.389379 0.851967 0.821391
O O1 0.435884 0.884986 0.879428
O O2 0.500000 0.000000 0.914363
O O3 0.500000 0.900309 0.000000
O O4 0.801352 0.917859 0.796592
O O5 0.688914 0.865788 0.841425
O O6 0.723664 0.000000 0.862094
O O7 0.777630 0.898492 0.930956
O O8 0.110378 0.110378 0.000000
O O9 0.000000 0.185375 0.000000
O O10 0.863491 0.136510 0.693101
O O11 0.728777 0.093737 0.690069
O O12 0.825351 0.000000 0.696282
O O13 0.393503 0.893503 0.750000
#
# Coordination Sequence:
#
# PCOD9571597 Si02
#       5
#    16  32  16  32  32
#     4  11  24  36  56  88 121 155 187 227 275 328
#     4   9  19  33  51  77 111 146 185 230 281 339
#     4  10  20  33  50  73 107 149 188 230 276 328
#     4  10  20  36  56  81 109 141 188 240 288 339
#     4  10  21  36  58  82 113 149 190 229 277 341
#
# _framework density 17.156652000000001
#
# number of rings (size 3 to 8) (size 9 to 14) (size 15 to 20)
#    0.000    2.125    1.250    1.500    5.250    5.875 
#    0.000    0.000    0.000    4.500    0.000    0.000 
#    0.000    1.000    0.000    0.000    0.000    0.000 
#
# Total GULP energy -356411.574722 kJ/mol
# GULP energy per Si atom -5568.930855 kJ/mol
# Density = 1.711760 g / cm^3
# Si number density = 17.156652 Si / 1000 Ang^3
#
#
#
# Elastic Constant Matrix: (Units=GPa)
#
#
# Indices 1 2 3 4 5 6 
#
# 1 88.4907 34.8947 34.6567 0.0000 0.0000 0.0000
# 2 34.8947 88.4907 34.6567 0.0000 0.0000 0.0000
# 3 34.6567 34.6567 101.2443 0.0000 0.0000 0.0000
# 4 0.0000 0.0000 0.0000 5.2337 0.0000 0.0000
# 5 0.0000 0.0000 0.0000 0.0000 5.2337 0.0000
# 6 0.0000 0.0000 0.0000 0.0000 0.0000 34.9203
#
#
#
# Elastic Compliance Matrix: (Units=1/GPa)
#
#
# Indices 1 2 3 4 5 6 
#
# 1 0.014346 -0.004312 -0.003435 0.000000 0.000000 0.000000
# 2 -0.004312 0.014346 -0.003435 0.000000 0.000000 0.000000
# 3 -0.003435 -0.003435 0.012229 0.000000 0.000000 0.000000
# 4 0.000000 0.000000 0.000000 0.191071 0.000000 0.000000
# 5 0.000000 0.000000 0.000000 0.000000 0.191071 0.000000
# 6 0.000000 0.000000 0.000000 0.000000 0.000000 0.028637
#
#
# Mechanical properties :
#
#
# Convention : Reuss Voigt Hill
#
# Bulk Modulus (GPa) = 53.88542 54.07132 53.97837
# Shear Modulus (GPa) = 10.41127 20.67868 15.54498
#
# Velocity S-wave (km/s) = 2.46608 3.47549 3.01335
# Velocity P-wave (km/s) = 6.29164 6.90580 6.60586
#
# Compressibility (1/GPa) = 0.01855789
#
# Stress axis : x y z
#
# Youngs Moduli (GPa) = 69.70501 69.70501 81.77538
#
# Poissons Ratio (x) = 0.30056 0.28088
# Poissons Ratio (y) = 0.30056 0.28088
# Poissons Ratio (z) = 0.23942 0.23942
#
# Static dielectric constant tensor:
#      x y z
#    x 1.588670 0.000000 0.000000 
#    y 0.000000 1.588670 0.000000 
#    z 0.000000 0.000000 1.646560 
# 
# From -- ./inp_files/8056.got.cif
#   From: 2010.05.17/outbox.cif.g08.bks.cpg/sg139_5_cif.got.tgz:8056.got - 2010.05.20 13:14:44.
