data_PCOD9571857
_publ_section_title
;
Structure prediction by ZEFSAII (Michael W. Deem and Ramdas Pophale) SiO2 
 PCOD9571857
Probable space group: I 4/M M M
;
_chemical_formula_sum "Si O2"
_cell_formula_units_Z 96
_cell_length_a 24.947212
_cell_length_b 24.947212
_cell_length_c 7.743745
_cell_angle_alpha 90.000000
_cell_angle_beta 90.000000
_cell_angle_gamma 90.000000
_cell_volume 4819.423363
_symmetry_space_group_name_H-M "I 4/M M M"
_symmetry_group_IT_number 139
_symmetry_cell_setting 'tetragonal'
loop_
_space_group_symop_operation_xyz
x,y,z
-y,x,z
-x,-y,z
y,-x,z
x,-y,-z
-x,y,-z
y,x,-z
-y,-x,-z
-x,-y,-z
y,-x,-z
x,y,-z
-y,x,-z
-x,y,z
x,-y,z
-y,-x,z
y,x,z
1/2+x,1/2+y,1/2+z
1/2-y,1/2+x,1/2+z
1/2-x,1/2-y,1/2+z
1/2+y,1/2-x,1/2+z
1/2+x,1/2-y,1/2-z
1/2-x,1/2+y,1/2-z
1/2+y,1/2+x,1/2-z
1/2-y,1/2-x,1/2-z
1/2-x,1/2-y,1/2-z
1/2+y,1/2-x,1/2-z
1/2+x,1/2+y,1/2-z
1/2-y,1/2+x,1/2-z
1/2-x,1/2+y,1/2+z
1/2+x,1/2-y,1/2+z
1/2-y,1/2-x,1/2+z
1/2+y,1/2+x,1/2+z
loop_
_atom_site_type_symbol
_atom_site_label
_atom_site_fract_x
_atom_site_fract_y
_atom_site_fract_z
Si Si1 0.729569 0.586659 0.702800
Si Si2 0.706706 0.706706 0.704730
Si Si3 0.440195 0.148823 0.793849
Si Si4 0.057656 0.851173 0.500000
O O1 0.714662 0.580986 0.500000
O O2 0.725096 0.648482 0.762521
O O3 0.791381 0.569337 0.721425
O O4 0.687890 0.559501 0.832894
O O5 0.703129 0.703129 0.500000
O O6 0.750000 0.750000 0.750000
O O7 0.500000 0.130588 0.738590
O O8 0.393656 0.106345 0.750000
O O9 0.440211 0.154420 0.000000
O O10 0.107122 0.892879 0.500000
O O11 0.000000 0.879634 0.500000
#
# Coordination Sequence:
#
# PCOD9571857 Si02
#       4
#    32  16  32  16
#     4  11  23  42  66  98 133 171 216 264 327 393
#     4  10  22  34  58  96 132 171 207 255 321 385
#     4  11  24  41  62  91 128 173 226 279 331 388
#     4  12  26  45  72 100 133 173 217 269 325 392
#
# _framework density 19.919395000000002
#
# number of rings (size 3 to 8) (size 9 to 14) (size 15 to 20)
#    0.000    1.000    3.333    3.000    2.333    7.833 
#    0.000    1.667    0.000    0.000    0.000    2.333 
#    0.000    0.000    0.000    0.000    0.000    0.000 
#
# Total GULP energy -268060.203661 kJ/mol
# GULP energy per Si atom -5584.587576 kJ/mol
# Density = 1.987406 g / cm^3
# Si number density = 19.919395 Si / 1000 Ang^3
#
#
#
# Elastic Constant Matrix: (Units=GPa)
#
#
# Indices 1 2 3 4 5 6 
#
# 1 130.9964 58.8023 36.2002 0.0000 0.0000 0.0000
# 2 58.8023 130.9882 36.2000 0.0000 0.0000 0.0000
# 3 36.2002 36.2000 104.6568 0.0000 0.0000 0.0000
# 4 0.0000 0.0000 0.0000 21.8792 0.0000 0.0000
# 5 0.0000 0.0000 0.0000 0.0000 21.9207 0.0000
# 6 0.0000 0.0000 0.0000 0.0000 0.0000 7.9782
#
#
#
# Elastic Compliance Matrix: (Units=1/GPa)
#
#
# Indices 1 2 3 4 5 6 
#
# 1 0.009961 -0.003891 -0.002099 0.000000 0.000000 0.000000
# 2 -0.003891 0.009961 -0.002100 0.000000 0.000000 0.000000
# 3 -0.002099 -0.002100 0.011007 0.000000 0.000000 0.000000
# 4 0.000000 0.000000 0.000000 0.045706 0.000000 0.000000
# 5 0.000000 0.000000 0.000000 0.000000 0.045619 0.000000
# 6 0.000000 0.000000 0.000000 0.000000 0.000000 0.125342
#
#
# Mechanical properties :
#
#
# Convention : Reuss Voigt Hill
#
# Bulk Modulus (GPa) = 67.80130 69.89404 68.84767
# Shear Modulus (GPa) = 18.60860 26.05152 22.33006
#
# Velocity S-wave (km/s) = 3.05978 3.62034 3.35180
# Velocity P-wave (km/s) = 6.82603 7.25537 7.04397
#
# Compressibility (1/GPa) = 0.01474898
#
# Stress axis : x y z
#
# Youngs Moduli (GPa) = 100.39460 100.38772 90.84766
#
# Poissons Ratio (x) = 0.39064 0.19072
# Poissons Ratio (y) = 0.39067 0.19074
# Poissons Ratio (z) = 0.21077 0.21077
#
# Static dielectric constant tensor:
#      x y z
#    x 1.703010 0.000000 0.000000 
#    y 0.000000 1.703010 0.000000 
#    z 0.000000 0.000000 1.725670 
# 
# From -- ./inp_files/1157.got.cif
#   From: 2010.05.17/outbox.cif.g08.bks.cpg/sg139_1_cif.got.tgz:1157.got - 2010.05.20 13:14:44.
