data_PCOD9571237
_publ_section_title
;
Structure prediction by ZEFSAII (Michael W. Deem and Ramdas Pophale) SiO2 
 PCOD9571237
Probable space group: I 4/M M M
;
_chemical_formula_sum "Si O2"
_cell_formula_units_Z 192
_cell_length_a 21.670391
_cell_length_b 21.670391
_cell_length_c 22.692889
_cell_angle_alpha 90.000000
_cell_angle_beta 90.000000
_cell_angle_gamma 90.000000
_cell_volume 10656.713339
_symmetry_space_group_name_H-M "I 4/M M M"
_symmetry_group_IT_number 139
_symmetry_cell_setting 'tetragonal'
loop_
_space_group_symop_operation_xyz
x,y,z
-y,x,z
-x,-y,z
y,-x,z
x,-y,-z
-x,y,-z
y,x,-z
-y,-x,-z
-x,-y,-z
y,-x,-z
x,y,-z
-y,x,-z
-x,y,z
x,-y,z
-y,-x,z
y,x,z
1/2+x,1/2+y,1/2+z
1/2-y,1/2+x,1/2+z
1/2-x,1/2-y,1/2+z
1/2+y,1/2-x,1/2+z
1/2+x,1/2-y,1/2-z
1/2-x,1/2+y,1/2-z
1/2+y,1/2+x,1/2-z
1/2-y,1/2-x,1/2-z
1/2-x,1/2-y,1/2-z
1/2+y,1/2-x,1/2-z
1/2+x,1/2+y,1/2-z
1/2-y,1/2+x,1/2-z
1/2-x,1/2+y,1/2+z
1/2+x,1/2-y,1/2+z
1/2-y,1/2-x,1/2+z
1/2+y,1/2+x,1/2+z
loop_
_atom_site_type_symbol
_atom_site_label
_atom_site_fract_x
_atom_site_fract_y
_atom_site_fract_z
Si Si1 0.896878 0.798840 0.065861
Si Si2 0.676116 0.426335 0.000000
Si Si3 0.346740 0.884097 0.069253
Si Si4 0.072191 0.500000 0.427943
Si Si5 0.142597 0.756180 0.606180
Si Si6 0.747322 0.850443 0.742103
Si Si7 0.331663 0.568081 0.691266
O O1 0.827181 0.827181 0.069259
O O2 0.900153 0.725566 0.073328
O O3 0.931027 0.829267 0.120478
O O4 0.919555 0.813763 0.000000
O O5 0.713104 0.403145 0.058434
O O6 0.669264 0.500000 0.000000
O O7 0.611790 0.388211 0.000000
O O8 0.390693 0.938828 0.091961
O O9 0.354523 0.816675 0.096116
O O10 0.360986 0.877372 0.000000
O O11 0.074381 0.500000 0.500000
O O12 0.000000 0.500000 0.411134
O O13 0.207973 0.792028 0.596922
O O14 0.128475 0.762239 0.675595
O O15 0.794859 0.794859 0.756624
O O16 0.680010 0.819991 0.750000
O O17 0.766919 0.904124 0.786192
O O18 0.341482 0.500000 0.714055
O O19 0.385825 0.614176 0.710491
#
# Coordination Sequence:
#
# PCOD9571237 Si02
#       7
#    32  16  32  16  32  32  32
#     4   9  18  31  51  80 111 140 176 227 281 328
#     4  10  22  37  54  81 113 149 189 237 292 350
#     4  10  18  30  50  76 105 144 175 217 271 322
#     4   9  20  34  44  64 104 148 187 217 254 320
#     4  10  19  33  55  83 111 137 178 236 290 339
#     4   9  18  34  56  80 109 141 176 226 287 338
#     4  10  21  36  54  79 110 145 183 226 273 332
#
# _framework density 18.016812000000002
#
# number of rings (size 3 to 8) (size 9 to 14) (size 15 to 20)
#    0.000    2.417    0.833    1.500    1.167    5.250 
#    0.000    0.000    0.000    0.000    0.000    7.000 
#    0.000    0.000    0.000    0.000    0.000    0.000 
#
# Total GULP energy -534654.043896 kJ/mol
# GULP energy per Si atom -5569.312957 kJ/mol
# Density = 1.797580 g / cm^3
# Si number density = 18.016812 Si / 1000 Ang^3
#
#
#
# Elastic Constant Matrix: (Units=GPa)
#
#
# Indices 1 2 3 4 5 6 
#
# 1 91.0912 51.0201 27.9503 0.0000 0.0000 0.0000
# 2 51.0201 91.0893 27.9498 0.0000 0.0000 0.0000
# 3 27.9503 27.9498 53.5515 0.0000 0.0000 0.0000
# 4 0.0000 0.0000 0.0000 3.7056 0.0000 0.0000
# 5 0.0000 0.0000 0.0000 0.0000 3.7065 0.0000
# 6 0.0000 0.0000 0.0000 0.0000 0.0000 19.2784
#
#
#
# Elastic Compliance Matrix: (Units=1/GPa)
#
#
# Indices 1 2 3 4 5 6 
#
# 1 0.016905 -0.008051 -0.004622 0.000000 0.000000 0.000000
# 2 -0.008051 0.016906 -0.004621 0.000000 0.000000 0.000000
# 3 -0.004622 -0.004621 0.023498 0.000000 0.000000 0.000000
# 4 0.000000 0.000000 0.000000 0.269859 0.000000 0.000000
# 5 0.000000 0.000000 0.000000 0.000000 0.269800 0.000000
# 6 0.000000 0.000000 0.000000 0.000000 0.000000 0.051871
#
#
# Mechanical properties :
#
#
# Convention : Reuss Voigt Hill
#
# Bulk Modulus (GPa) = 44.01188 49.95247 46.98217
# Shear Modulus (GPa) = 7.23588 13.92556 10.58072
#
# Velocity S-wave (km/s) = 2.00622 2.78316 2.42599
# Velocity P-wave (km/s) = 5.46331 6.17362 5.82930
#
# Compressibility (1/GPa) = 0.02272114
#
# Stress axis : x y z
#
# Youngs Moduli (GPa) = 59.15301 59.15195 42.55721
#
# Poissons Ratio (x) = 0.47622 0.19668
# Poissons Ratio (y) = 0.47623 0.19668
# Poissons Ratio (z) = 0.27338 0.27337
#
# Static dielectric constant tensor:
#      x y z
#    x 1.624700 0.000000 0.000000 
#    y 0.000000 1.624710 0.000000 
#    z 0.000000 0.000000 1.641680 
# 
# From -- ./inp_files/12021.got.cif
#   From: 2010.05.17/outbox.cif.g08.bks.cpg/sg139_7_cif.got.tgz:12021.got - 2010.05.20 13:14:44.
