data_PCOD9571436
_publ_section_title
;
Structure prediction by ZEFSAII (Michael W. Deem and Ramdas Pophale) SiO2 
 PCOD9571436
Probable space group: I 4/M M M
;
_chemical_formula_sum "Si O2"
_cell_formula_units_Z 164
_cell_length_a 22.612717
_cell_length_b 22.612717
_cell_length_c 19.468019
_cell_angle_alpha 90.000000
_cell_angle_beta 90.000000
_cell_angle_gamma 90.000000
_cell_volume 9954.678914
_symmetry_space_group_name_H-M "I 4/M M M"
_symmetry_group_IT_number 139
_symmetry_cell_setting 'tetragonal'
loop_
_space_group_symop_operation_xyz
x,y,z
-y,x,z
-x,-y,z
y,-x,z
x,-y,-z
-x,y,-z
y,x,-z
-y,-x,-z
-x,-y,-z
y,-x,-z
x,y,-z
-y,x,-z
-x,y,z
x,-y,z
-y,-x,z
y,x,z
1/2+x,1/2+y,1/2+z
1/2-y,1/2+x,1/2+z
1/2-x,1/2-y,1/2+z
1/2+y,1/2-x,1/2+z
1/2+x,1/2-y,1/2-z
1/2-x,1/2+y,1/2-z
1/2+y,1/2+x,1/2-z
1/2-y,1/2-x,1/2-z
1/2-x,1/2-y,1/2-z
1/2+y,1/2-x,1/2-z
1/2+x,1/2+y,1/2-z
1/2-y,1/2+x,1/2-z
1/2-x,1/2+y,1/2+z
1/2+x,1/2-y,1/2+z
1/2-y,1/2-x,1/2+z
1/2+y,1/2+x,1/2+z
loop_
_atom_site_type_symbol
_atom_site_label
_atom_site_fract_x
_atom_site_fract_y
_atom_site_fract_z
Si Si1 0.897777 0.897777 0.794517
Si Si2 0.431319 0.283440 0.205546
Si Si3 0.160713 0.430532 0.284120
Si Si4 0.129447 0.300777 0.079452
Si Si5 0.257687 0.354051 0.076121
Si Si6 0.500000 0.500000 0.702906
Si Si7 0.836798 0.163203 0.919212
O O1 0.919148 0.839472 0.753704
O O2 0.876801 0.876801 0.869852
O O3 0.947803 0.947803 0.796445
O O4 0.500000 0.282910 0.187164
O O5 0.417869 0.222610 0.245412
O O6 0.393075 0.283350 0.136756
O O7 0.146887 0.500000 0.276822
O O8 0.110606 0.389395 0.250000
O O9 0.174111 0.414595 0.363467
O O10 0.188870 0.339823 0.084952
O O11 0.147937 0.232394 0.093633
O O12 0.108667 0.303409 0.000000
O O13 0.291822 0.291822 0.077320
O O14 0.267033 0.380145 0.000000
O O15 0.847753 0.152248 0.000000
#
# Coordination Sequence:
#
# PCOD9571436 Si02
#       7
#    16  32  32  32  32   4  16
#     4  12  22  39  60  84 112 158 205 240 291 336
#     4  11  22  35  57  84 108 147 203 247 281 344
#     4  11  23  38  58  86 115 149 196 241 290 346
#     4  10  19  34  57  88 123 151 184 237 298 352
#     4  10  19  32  55  87 118 148 181 232 308 361
#     4  12  28  44  61  76 129 172 196 250 288 332
#     4  10  20  35  58  87 120 153 193 246 292 342
#
# _framework density 16.474665999999999
#
# number of rings (size 3 to 8) (size 9 to 14) (size 15 to 20)
#    0.000    1.366    6.829    0.000    0.000    0.976 
#    0.000    3.659    0.000    0.585    0.000    2.049 
#    0.000    0.000    0.000    0.000    0.000    0.000 
#
# Total GULP energy -456810.742855 kJ/mol
# GULP energy per Si atom -5570.862718 kJ/mol
# Density = 1.643717 g / cm^3
# Si number density = 16.474666 Si / 1000 Ang^3
#
#
#
# Elastic Constant Matrix: (Units=GPa)
#
#
# Indices 1 2 3 4 5 6 
#
# 1 81.5364 56.3963 49.6378 0.0000 0.0000 0.0000
# 2 56.3963 81.5308 49.6408 0.0000 0.0000 0.0000
# 3 49.6378 49.6408 99.5103 0.0000 0.0000 0.0000
# 4 0.0000 0.0000 0.0000 11.0617 0.0000 0.0000
# 5 0.0000 0.0000 0.0000 0.0000 11.0616 0.0000
# 6 0.0000 0.0000 0.0000 0.0000 0.0000 32.0396
#
#
#
# Elastic Compliance Matrix: (Units=1/GPa)
#
#
# Indices 1 2 3 4 5 6 
#
# 1 0.025545 -0.014235 -0.005641 0.000000 0.000000 0.000000
# 2 -0.014235 0.025548 -0.005644 0.000000 0.000000 0.000000
# 3 -0.005641 -0.005644 0.015679 0.000000 0.000000 0.000000
# 4 0.000000 0.000000 0.000000 0.090402 0.000000 0.000000
# 5 0.000000 0.000000 0.000000 0.000000 0.090403 0.000000
# 6 0.000000 0.000000 0.000000 0.000000 0.000000 0.031211
#
#
# Mechanical properties :
#
#
# Convention : Reuss Voigt Hill
#
# Bulk Modulus (GPa) = 63.56755 63.76968 63.66862
# Shear Modulus (GPa) = 14.92217 17.95942 16.44080
#
# Velocity S-wave (km/s) = 3.01286 3.30528 3.16245
# Velocity P-wave (km/s) = 7.12544 7.30468 7.21561
#
# Compressibility (1/GPa) = 0.01573130
#
# Stress axis : x y z
#
# Youngs Moduli (GPa) = 39.14729 39.14142 63.78116
#
# Poissons Ratio (x) = 0.55718 0.35979
# Poissons Ratio (y) = 0.55726 0.35999
# Poissons Ratio (z) = 0.22083 0.22092
#
# Static dielectric constant tensor:
#      x y z
#    x 1.535450 0.000000 0.000000 
#    y 0.000000 1.535450 0.000000 
#    z 0.000000 0.000000 1.559540 
# 
# From -- ./inp_files/10386.got.cif
#   From: 2010.05.17/outbox.cif.g08.bks.cpg/sg139_6_cif.got.tgz:10386.got - 2010.05.20 13:14:44.
