data_PCOD9571299
_publ_section_title
;
Structure prediction by ZEFSAII (Michael W. Deem and Ramdas Pophale) SiO2 
 PCOD9571299
Probable space group: I 4/M M M
;
_chemical_formula_sum "Si O2"
_cell_formula_units_Z 208
_cell_length_a 20.735866
_cell_length_b 20.735866
_cell_length_c 32.976559
_cell_angle_alpha 90.000000
_cell_angle_beta 90.000000
_cell_angle_gamma 90.000000
_cell_volume 14179.133509
_symmetry_space_group_name_H-M "I 4/M M M"
_symmetry_group_IT_number 139
_symmetry_cell_setting 'tetragonal'
loop_
_space_group_symop_operation_xyz
x,y,z
-y,x,z
-x,-y,z
y,-x,z
x,-y,-z
-x,y,-z
y,x,-z
-y,-x,-z
-x,-y,-z
y,-x,-z
x,y,-z
-y,x,-z
-x,y,z
x,-y,z
-y,-x,z
y,x,z
1/2+x,1/2+y,1/2+z
1/2-y,1/2+x,1/2+z
1/2-x,1/2-y,1/2+z
1/2+y,1/2-x,1/2+z
1/2+x,1/2-y,1/2-z
1/2-x,1/2+y,1/2-z
1/2+y,1/2+x,1/2-z
1/2-y,1/2-x,1/2-z
1/2-x,1/2-y,1/2-z
1/2+y,1/2-x,1/2-z
1/2+x,1/2+y,1/2-z
1/2-y,1/2+x,1/2-z
1/2-x,1/2+y,1/2+z
1/2+x,1/2-y,1/2+z
1/2-y,1/2-x,1/2+z
1/2+y,1/2+x,1/2+z
loop_
_atom_site_type_symbol
_atom_site_label
_atom_site_fract_x
_atom_site_fract_y
_atom_site_fract_z
Si Si1 0.651558 0.241241 0.333302
Si Si2 0.074009 0.183863 0.000000
Si Si3 0.248009 0.137443 0.075930
Si Si4 0.362647 0.259602 0.184672
Si Si5 0.076335 0.316975 0.757588
Si Si6 0.681085 0.574750 0.105903
Si Si7 0.263516 0.152462 0.546514
O O1 0.693557 0.306444 0.325208
O O2 0.617262 0.247382 0.377051
O O3 0.705430 0.184258 0.335037
O O4 0.604625 0.219582 0.297196
O O5 0.089301 0.225368 0.959400
O O6 0.123836 0.123836 0.000000
O O7 0.000000 0.163162 0.000000
O O8 0.193762 0.193762 0.075788
O O9 0.314379 0.171908 0.063069
O O10 0.313647 0.313647 0.201908
O O11 0.405198 0.227632 0.219309
O O12 0.404743 0.291940 0.149771
O O13 0.117574 0.382427 0.750000
O O14 0.000000 0.327613 0.760603
O O15 0.666824 0.500000 0.103721
O O16 0.618420 0.618420 0.097883
O O17 0.735709 0.596009 0.074000
O O18 0.271675 0.133451 0.500000
O O19 0.208992 0.208992 0.548008
#
# Coordination Sequence:
#
# PCOD9571299 Si02
#       7
#    32  16  32  32  32  32  32
#     4   9  16  28  48  71  91 111 139 188 245 277
#     4  10  20  31  46  70  99 131 158 182 218 266
#     4   9  15  27  47  69  91 113 145 190 233 267
#     4   9  16  29  48  68  88 111 146 191 235 271
#     4  10  20  31  44  64  91 122 152 182 219 271
#     4  10  19  29  43  64  91 123 154 184 221 269
#     4   9  15  26  45  65  86 112 143 185 232 268
#
# _framework density 14.669442999999999
#
# number of rings (size 3 to 8) (size 9 to 14) (size 15 to 20)
#    0.000    2.615    2.308    0.923    0.000    3.154 
#    0.000    0.000    0.000    0.000    0.000    2.154 
#    0.000    4.000    0.000    0.615    0.000    0.000 
#
# Total GULP energy -579040.281259 kJ/mol
# GULP energy per Si atom -5567.695012 kJ/mol
# Density = 1.463606 g / cm^3
# Si number density = 14.669443 Si / 1000 Ang^3
#
#
#
# Elastic Constant Matrix: (Units=GPa)
#
#
# Indices 1 2 3 4 5 6 
#
# 1 73.8844 30.9933 40.2637 0.0000 0.0000 0.0000
# 2 30.9933 73.8853 40.2639 0.0000 0.0000 0.0000
# 3 40.2637 40.2639 98.9927 0.0000 0.0000 0.0000
# 4 0.0000 0.0000 0.0000 10.4481 0.0000 0.0000
# 5 0.0000 0.0000 0.0000 0.0000 10.4483 0.0000
# 6 0.0000 0.0000 0.0000 0.0000 0.0000 8.1775
#
#
#
# Elastic Compliance Matrix: (Units=1/GPa)
#
#
# Indices 1 2 3 4 5 6 
#
# 1 0.018590 -0.004725 -0.005639 0.000000 0.000000 0.000000
# 2 -0.004725 0.018590 -0.005639 0.000000 0.000000 0.000000
# 3 -0.005639 -0.005639 0.014689 0.000000 0.000000 0.000000
# 4 0.000000 0.000000 0.000000 0.095711 0.000000 0.000000
# 5 0.000000 0.000000 0.000000 0.000000 0.095709 0.000000
# 6 0.000000 0.000000 0.000000 0.000000 0.000000 0.122287
#
#
# Mechanical properties :
#
#
# Convention : Reuss Voigt Hill
#
# Bulk Modulus (GPa) = 50.34838 52.20044 51.27441
# Shear Modulus (GPa) = 12.37000 14.83088 13.60044
#
# Velocity S-wave (km/s) = 2.90703 3.18308 3.04818
# Velocity P-wave (km/s) = 6.75753 7.01221 6.88605
#
# Compressibility (1/GPa) = 0.01986161
#
# Stress axis : x y z
#
# Youngs Moduli (GPa) = 53.79280 53.79342 68.07734
#
# Poissons Ratio (x) = 0.25417 0.38391
# Poissons Ratio (y) = 0.25416 0.38391
# Poissons Ratio (z) = 0.30336 0.30336
#
# Static dielectric constant tensor:
#      x y z
#    x 1.466940 0.000000 0.000000 
#    y 0.000000 1.466940 0.000000 
#    z 0.000000 0.000000 1.501480 
# 
# From -- ./inp_files/14532.got.cif
#   From: 2010.05.17/outbox.cif.g08.bks.cpg/sg139_8_cif.got.tgz:14532.got - 2010.05.20 13:14:44.
