data_PCOD9571959
_publ_section_title
;
Structure prediction by ZEFSAII (Michael W. Deem and Ramdas Pophale) SiO2 
 PCOD9571959
Probable space group: I 4/M M M
;
_chemical_formula_sum "Si O2"
_cell_formula_units_Z 128
_cell_length_a 29.332438
_cell_length_b 29.332438
_cell_length_c 7.638467
_cell_angle_alpha 90.000000
_cell_angle_beta 90.000000
_cell_angle_gamma 90.000000
_cell_volume 6572.075281
_symmetry_space_group_name_H-M "I 4/M M M"
_symmetry_group_IT_number 139
_symmetry_cell_setting 'tetragonal'
loop_
_space_group_symop_operation_xyz
x,y,z
-y,x,z
-x,-y,z
y,-x,z
x,-y,-z
-x,y,-z
y,x,-z
-y,-x,-z
-x,-y,-z
y,-x,-z
x,y,-z
-y,x,-z
-x,y,z
x,-y,z
-y,-x,z
y,x,z
1/2+x,1/2+y,1/2+z
1/2-y,1/2+x,1/2+z
1/2-x,1/2-y,1/2+z
1/2+y,1/2-x,1/2+z
1/2+x,1/2-y,1/2-z
1/2-x,1/2+y,1/2-z
1/2+y,1/2+x,1/2-z
1/2-y,1/2-x,1/2-z
1/2-x,1/2-y,1/2-z
1/2+y,1/2-x,1/2-z
1/2+x,1/2+y,1/2-z
1/2-y,1/2+x,1/2-z
1/2-x,1/2+y,1/2+z
1/2+x,1/2-y,1/2+z
1/2-y,1/2-x,1/2+z
1/2+y,1/2+x,1/2+z
loop_
_atom_site_type_symbol
_atom_site_label
_atom_site_fract_x
_atom_site_fract_y
_atom_site_fract_z
Si Si1 0.448377 0.874719 0.210494
Si Si2 0.625393 0.301539 0.210095
Si Si3 0.698445 0.124789 0.289542
Si Si4 0.875088 0.051668 0.210776
O O1 0.500000 0.874332 0.277416
O O2 0.420901 0.920901 0.250000
O O3 0.416855 0.833056 0.276712
O O4 0.450319 0.870665 0.000000
O O5 0.666798 0.333203 0.277768
O O6 0.625004 0.250019 0.277960
O O7 0.579091 0.329091 0.246738
O O8 0.630402 0.299202 0.000000
O O9 0.700542 0.120319 0.500000
O O10 0.670917 0.170917 0.250000
O O11 0.916970 0.083031 0.275598
O O12 0.875657 0.000000 0.276951
O O13 0.878608 0.049938 0.000000
#
# Coordination Sequence:
#
# PCOD9571959 Si02
#       4
#    32  32  32  32
#     4   9  18  32  48  66  89 117 149 184 223 268
#     4   9  18  32  49  70  96 125 157 192 231 277
#     4   9  18  32  49  69  94 123 155 191 230 273
#     4   9  18  32  49  70  96 125 158 196 237 281
#
# _framework density 19.476344000000001
#
# number of rings (size 3 to 8) (size 9 to 14) (size 15 to 20)
#    0.000    3.000    0.000    0.000    0.000    4.000 
#    0.000    5.000    0.000    0.000    0.000    3.500 
#    0.000    0.000    0.000    0.000    0.000    0.000 
#
# Total GULP energy -356911.605205 kJ/mol
# GULP energy per Si atom -5576.743831 kJ/mol
# Density = 1.943201 g / cm^3
# Si number density = 19.476344 Si / 1000 Ang^3
#
#
#
# Elastic Constant Matrix: (Units=GPa)
#
#
# Indices 1 2 3 4 5 6 
#
# 1 201.9410 115.0810 2.1999 0.0000 0.0000 0.0000
# 2 115.0810 201.9410 2.1999 0.0000 0.0000 0.0000
# 3 2.1999 2.1999 37.6543 0.0000 0.0000 0.0000
# 4 0.0000 0.0000 0.0000 16.7261 0.0000 0.0000
# 5 0.0000 0.0000 0.0000 0.0000 16.7261 0.0000
# 6 0.0000 0.0000 0.0000 0.0000 0.0000 5.8431
#
#
#
# Elastic Compliance Matrix: (Units=1/GPa)
#
#
# Indices 1 2 3 4 5 6 
#
# 1 0.007335 -0.004178 -0.000184 0.000000 0.000000 0.000000
# 2 -0.004178 0.007335 -0.000184 0.000000 0.000000 0.000000
# 3 -0.000184 -0.000184 0.026579 0.000000 0.000000 0.000000
# 4 0.000000 0.000000 0.000000 0.059787 0.000000 0.000000
# 5 0.000000 0.000000 0.000000 0.000000 0.059787 0.000000
# 6 0.000000 0.000000 0.000000 0.000000 0.000000 0.171142
#
#
# Mechanical properties :
#
#
# Convention : Reuss Voigt Hill
#
# Bulk Modulus (GPa) = 31.09935 75.61089 53.35512
# Shear Modulus (GPa) = 14.21359 29.32944 21.77151
#
# Velocity S-wave (km/s) = 2.70439 3.88480 3.34704
# Velocity P-wave (km/s) = 5.07484 7.68300 6.51086
#
# Compressibility (1/GPa) = 0.03215501
#
# Stress axis : x y z
#
# Youngs Moduli (GPa) = 136.33554 136.33554 37.62378
#
# Poissons Ratio (x) = 0.56960 0.00694
# Poissons Ratio (y) = 0.56960 0.00694
# Poissons Ratio (z) = 0.02515 0.02515
#
# Static dielectric constant tensor:
#      x y z
#    x 1.667000 0.000000 0.000000 
#    y 0.000000 1.667000 0.000000 
#    z 0.000000 0.000000 1.744010 
# 
# From -- ./inp_files/3391.got.cif
#   From: 2010.05.17/outbox.cif.g08.bks.cpg/sg139_2_cif.got.tgz:3391.got - 2010.05.20 13:14:44.
