data_PCOD9571386
_publ_section_title
;
Structure prediction by ZEFSAII (Michael W. Deem and Ramdas Pophale) SiO2 
 PCOD9571386
Probable space group: I 4/M M M
;
_chemical_formula_sum "Si O2"
_cell_formula_units_Z 176
_cell_length_a 25.242254
_cell_length_b 25.242254
_cell_length_c 15.107539
_cell_angle_alpha 90.000000
_cell_angle_beta 90.000000
_cell_angle_gamma 90.000000
_cell_volume 9626.091579
_symmetry_space_group_name_H-M "I 4/M M M"
_symmetry_group_IT_number 139
_symmetry_cell_setting 'tetragonal'
loop_
_space_group_symop_operation_xyz
x,y,z
-y,x,z
-x,-y,z
y,-x,z
x,-y,-z
-x,y,-z
y,x,-z
-y,-x,-z
-x,-y,-z
y,-x,-z
x,y,-z
-y,x,-z
-x,y,z
x,-y,z
-y,-x,z
y,x,z
1/2+x,1/2+y,1/2+z
1/2-y,1/2+x,1/2+z
1/2-x,1/2-y,1/2+z
1/2+y,1/2-x,1/2+z
1/2+x,1/2-y,1/2-z
1/2-x,1/2+y,1/2-z
1/2+y,1/2+x,1/2-z
1/2-y,1/2-x,1/2-z
1/2-x,1/2-y,1/2-z
1/2+y,1/2-x,1/2-z
1/2+x,1/2+y,1/2-z
1/2-y,1/2+x,1/2-z
1/2-x,1/2+y,1/2+z
1/2+x,1/2-y,1/2+z
1/2-y,1/2-x,1/2+z
1/2+y,1/2+x,1/2+z
loop_
_atom_site_type_symbol
_atom_site_label
_atom_site_fract_x
_atom_site_fract_y
_atom_site_fract_z
Si Si1 0.560656 0.243426 0.899753
Si Si2 0.389424 0.136169 0.101181
Si Si3 0.936216 0.563785 0.250000
Si Si4 0.692174 0.223755 0.395424
Si Si5 0.940384 0.851290 0.098073
Si Si6 0.207431 0.878832 0.237879
O O1 0.500000 0.260659 0.888574
O O2 0.564529 0.179968 0.892583
O O3 0.597971 0.267260 0.825364
O O4 0.578285 0.256806 0.000000
O O5 0.403880 0.089072 0.167421
O O6 0.336446 0.171965 0.118802
O O7 0.385083 0.117109 0.000000
O O8 0.927924 0.500000 0.242458
O O9 0.680655 0.234987 0.500000
O O10 0.752543 0.247458 0.382466
O O11 0.657448 0.255982 0.324750
O O12 0.898971 0.898971 0.103795
O O13 0.926508 0.810685 0.174519
O O14 0.000000 0.870890 0.105567
O O15 0.933784 0.826917 0.000000
O O16 0.156720 0.843280 0.260798
#
# Coordination Sequence:
#
# PCOD9571386 Si02
#       6
#    32  32  16  32  32  32
#     4  10  21  36  53  72  97 132 172 214 259 305
#     4  10  21  38  59  81 107 139 175 218 266 317
#     4  11  24  40  59  82 108 142 185 234 284 329
#     4   9  18  33  54  81 111 140 168 200 247 311
#     4   9  17  29  46  69  97 129 165 204 247 296
#     4  10  19  31  50  74 102 135 167 204 249 300
#
# _framework density 18.283639999999998
#
# number of rings (size 3 to 8) (size 9 to 14) (size 15 to 20)
#    0.000    2.273    0.000    2.727    0.000    4.909 
#    0.000    6.818    0.000    2.182    0.000    0.000 
#    0.000    0.000    0.000   16.909    0.000    0.364 
#
# Total GULP energy -490195.668104 kJ/mol
# GULP energy per Si atom -5570.405319 kJ/mol
# Density = 1.824203 g / cm^3
# Si number density = 18.283640 Si / 1000 Ang^3
#
#
#
# Elastic Constant Matrix: (Units=GPa)
#
#
# Indices 1 2 3 4 5 6 
#
# 1 73.0964 29.1476 49.5241 0.0000 0.0000 0.0000
# 2 29.1476 73.0959 49.5243 0.0000 0.0000 0.0000
# 3 49.5241 49.5243 112.6990 0.0000 0.0000 0.0000
# 4 0.0000 0.0000 0.0000 23.8697 0.0000 0.0000
# 5 0.0000 0.0000 0.0000 0.0000 23.8685 0.0000
# 6 0.0000 0.0000 0.0000 0.0000 0.0000 4.9665
#
#
#
# Elastic Compliance Matrix: (Units=1/GPa)
#
#
# Indices 1 2 3 4 5 6 
#
# 1 0.019892 -0.002862 -0.007484 0.000000 0.000000 0.000000
# 2 -0.002862 0.019892 -0.007484 0.000000 0.000000 0.000000
# 3 -0.007484 -0.007484 0.015451 0.000000 0.000000 0.000000
# 4 0.000000 0.000000 0.000000 0.041894 0.000000 0.000000
# 5 0.000000 0.000000 0.000000 0.000000 0.041896 0.000000
# 6 0.000000 0.000000 0.000000 0.000000 0.000000 0.201350
#
#
# Mechanical properties :
#
#
# Convention : Reuss Voigt Hill
#
# Bulk Modulus (GPa) = 51.08249 57.25370 54.16809
# Shear Modulus (GPa) = 13.06988 19.25396 16.16192
#
# Velocity S-wave (km/s) = 2.67655 3.24863 2.97636
# Velocity P-wave (km/s) = 6.12792 6.74193 6.44224
#
# Compressibility (1/GPa) = 0.01957618
#
# Stress axis : x y z
#
# Youngs Moduli (GPa) = 50.27133 50.27064 64.72254
#
# Poissons Ratio (x) = 0.14386 0.48437
# Poissons Ratio (y) = 0.14386 0.48438
# Poissons Ratio (z) = 0.37622 0.37622
#
# Static dielectric constant tensor:
#      x y z
#    x 1.636970 0.000000 0.000000 
#    y 0.000000 1.636970 0.000000 
#    z 0.000000 0.000000 1.646540 
# 
# From -- ./inp_files/6095.got.cif
#   From: 2010.05.17/outbox.cif.g08.bks.cpg/sg139_4_cif.got.tgz:6095.got - 2010.05.20 13:14:44.
