data_PCOD9571115
_publ_section_title
;
Structure prediction by ZEFSAII (Michael W. Deem and Ramdas Pophale) SiO2 
 PCOD9571115
Probable space group: P 42/N C M
;
_chemical_formula_sum "Si O2"
_cell_formula_units_Z 64
_cell_length_a 12.065393
_cell_length_b 12.065393
_cell_length_c 19.742174
_cell_angle_alpha 90.000000
_cell_angle_beta 90.000000
_cell_angle_gamma 90.000000
_cell_volume 2873.941478
_symmetry_space_group_name_H-M "P 42/N C M"
_symmetry_group_IT_number 138
_space_group.IT_coordinate_system_code '2'
_symmetry_cell_setting 'tetragonal'
loop_
_space_group_symop_operation_xyz
x,y,z
1/2-y,x,1/2+z
1/2-x,1/2-y,z
y,1/2-x,1/2+z
1/2+x,-y,1/2-z
-x,1/2+y,1/2-z
1/2+y,1/2+x,-z
-y,-x,-z
-x,-y,-z
1/2+y,-x,1/2-z
1/2+x,1/2+y,-z
-y,1/2+x,1/2-z
1/2-x,y,1/2+z
x,1/2-y,1/2+z
1/2-y,1/2-x,z
y,x,z
loop_
_atom_site_type_symbol
_atom_site_label
_atom_site_fract_x
_atom_site_fract_y
_atom_site_fract_z
Si Si1 0.643212 0.035459 0.402489
Si Si2 0.935692 0.238632 0.346057
Si Si3 0.493906 0.319953 0.486875
Si Si4 0.989929 0.173504 0.701779
O O1 0.525376 0.974625 0.403196
O O2 0.633403 0.163779 0.382284
O O3 0.708071 0.015288 0.472179
O O4 0.721182 0.983114 0.344464
O O5 0.013667 0.198634 0.406748
O O6 0.866677 0.133577 0.318938
O O7 0.990625 0.292501 0.280179
O O8 0.598013 0.401988 0.500000
O O9 0.385728 0.385728 0.511738
O O10 0.073744 0.073744 0.688905
#
# Coordination Sequence:
#
# PCOD9571115 Si02
#       4
#    16  16  16  16
#     4  12  27  46  73 109 148 189 239 303 366 430
#     4  12  25  44  75 106 141 188 244 298 358 432
#     4  11  25  45  73 106 147 195 242 296 361 434
#     4  12  26  45  72 107 145 189 243 299 363 433
#
# _framework density 22.269069999999999
#
# number of rings (size 3 to 8) (size 9 to 14) (size 15 to 20)
#    0.000    0.250    5.000    3.750    0.000    7.000 
#    0.000    0.000    0.000    6.750    0.000    0.000 
#    0.000    0.000    0.000    0.000    0.000    0.000 
#
# Total GULP energy -358286.980931 kJ/mol
# GULP energy per Si atom -5598.234077 kJ/mol
# Density = 2.221838 g / cm^3
# Si number density = 22.269070 Si / 1000 Ang^3
#
#
#
# Elastic Constant Matrix: (Units=GPa)
#
#
# Indices 1 2 3 4 5 6 
#
# 1 66.7846 48.2443 14.6340 0.0000 0.0000 0.0000
# 2 48.2443 66.7848 14.6334 0.0000 0.0000 0.0000
# 3 14.6340 14.6334 145.1149 0.0000 0.0000 0.0000
# 4 0.0000 0.0000 0.0000 32.2453 0.0000 0.0000
# 5 0.0000 0.0000 0.0000 0.0000 32.2446 0.0000
# 6 0.0000 0.0000 0.0000 0.0000 0.0000 21.7901
#
#
#
# Elastic Compliance Matrix: (Units=1/GPa)
#
#
# Indices 1 2 3 4 5 6 
#
# 1 0.031429 -0.022507 -0.000900 0.000000 0.000000 0.000000
# 2 -0.022507 0.031429 -0.000900 0.000000 0.000000 0.000000
# 3 -0.000900 -0.000900 0.007073 0.000000 0.000000 0.000000
# 4 0.000000 0.000000 0.000000 0.031012 0.000000 0.000000
# 5 0.000000 0.000000 0.000000 0.000000 0.031013 0.000000
# 6 0.000000 0.000000 0.000000 0.000000 0.000000 0.045892
#
#
# Mechanical properties :
#
#
# Convention : Reuss Voigt Hill
#
# Bulk Modulus (GPa) = 46.90800 48.18975 47.54887
# Shear Modulus (GPa) = 21.40707 30.66751 26.03729
#
# Velocity S-wave (km/s) = 3.10383 3.71500 3.42309
# Velocity P-wave (km/s) = 5.82709 6.33154 6.08454
#
# Compressibility (1/GPa) = 0.02131832
#
# Stress axis : x y z
#
# Youngs Moduli (GPa) = 31.81736 31.81752 141.39159
#
# Poissons Ratio (x) = 0.71611 0.12723
# Poissons Ratio (y) = 0.71611 0.12720
# Poissons Ratio (z) = 0.02863 0.02862
#
# Static dielectric constant tensor:
#      x y z
#    x 1.803920 0.000000 0.000000 
#    y 0.000000 1.803920 0.000000 
#    z 0.000000 0.000000 1.825060 
# 
# From -- ./inp_files/5830.got.cif
#   From: 2010.05.17/outbox.cif.g08.bks.cpg/sg138_3_cif.got.tgz:5830.got - 2010.05.20 13:08:53.
