data_PCOD9571059
_publ_section_title
;
Structure prediction by ZEFSAII (Michael W. Deem and Ramdas Pophale) SiO2 
 PCOD9571059
Probable space group: P 42/N C M
;
_chemical_formula_sum "Si O2"
_cell_formula_units_Z 84
_cell_length_a 25.068692
_cell_length_b 25.068692
_cell_length_c 8.797357
_cell_angle_alpha 90.000000
_cell_angle_beta 90.000000
_cell_angle_gamma 90.000000
_cell_volume 5528.605038
_symmetry_space_group_name_H-M "P 42/N C M"
_symmetry_group_IT_number 138
_space_group.IT_coordinate_system_code '2'
_symmetry_cell_setting 'tetragonal'
loop_
_space_group_symop_operation_xyz
x,y,z
1/2-y,x,1/2+z
1/2-x,1/2-y,z
y,1/2-x,1/2+z
1/2+x,-y,1/2-z
-x,1/2+y,1/2-z
1/2+y,1/2+x,-z
-y,-x,-z
-x,-y,-z
1/2+y,-x,1/2-z
1/2+x,1/2+y,-z
-y,1/2+x,1/2-z
1/2-x,y,1/2+z
x,1/2-y,1/2+z
1/2-y,1/2-x,z
y,x,z
loop_
_atom_site_type_symbol
_atom_site_label
_atom_site_fract_x
_atom_site_fract_y
_atom_site_fract_z
Si Si1 0.449692 0.305988 0.817198
Si Si2 0.550308 0.694012 0.817195
Si Si3 0.750000 0.750000 0.749998
Si Si4 0.997534 0.414435 0.315226
Si Si5 0.663304 0.663304 0.326558
Si Si6 0.663304 0.663304 0.673438
Si Si7 0.497533 0.914436 0.315227
O O1 0.468072 0.250000 0.750002
O O2 0.486960 0.355231 0.766883
O O3 0.389723 0.316605 0.757860
O O4 0.448329 0.304053 0.000002
O O5 0.610277 0.683395 0.757856
O O6 0.513040 0.644768 0.766883
O O7 0.791137 0.708864 0.828707
O O8 0.708864 0.708864 0.671289
O O9 0.045688 0.454313 0.271950
O O10 0.996544 0.413828 0.499999
O O11 0.942862 0.442861 0.264127
O O12 0.649854 0.649854 0.499998
O O13 0.545687 0.954314 0.271952
#
# Coordination Sequence:
#
# PCOD9571059 Si02
#       7
#    16  16   4  16   8   8  16
#     4  11  21  33  49  69  94 121 153 194 237 279
#     4  11  21  33  49  69  94 121 153 194 237 279
#     4  12  26  36  48  58  82 128 170 204 222 252
#     4   8  14  27  48  70  89 115 154 194 230 274
#     4  12  24  35  47  62  87 122 166 204 233 268
#     4  12  24  35  47  62  87 122 166 204 233 268
#     4   8  14  27  48  70  89 115 154 194 230 274
#
# _framework density 15.193706000000001
#
# number of rings (size 3 to 8) (size 9 to 14) (size 15 to 20)
#    0.000    1.905    3.810    3.143    0.000    1.524 
#    0.000    0.000    0.000    5.714    0.000    0.000 
#    0.000    0.762    0.000    9.524    0.000    0.000 
#
# Total GULP energy -468160.446923 kJ/mol
# GULP energy per Si atom -5573.338654 kJ/mol
# Density = 1.515912 g / cm^3
# Si number density = 15.193706 Si / 1000 Ang^3
#
#
#
# Elastic Constant Matrix: (Units=GPa)
#
#
# Indices 1 2 3 4 5 6 
#
# 1 113.6095 78.3556 23.8409 0.0000 0.0000 0.0000
# 2 78.3556 113.6095 23.8409 0.0000 0.0000 0.0000
# 3 23.8409 23.8409 47.7505 0.0000 0.0000 0.0000
# 4 0.0000 0.0000 0.0000 26.3257 0.0000 0.0000
# 5 0.0000 0.0000 0.0000 0.0000 26.3257 0.0000
# 6 0.0000 0.0000 0.0000 0.0000 0.0000 33.9759
#
#
#
# Elastic Compliance Matrix: (Units=1/GPa)
#
#
# Indices 1 2 3 4 5 6 
#
# 1 0.017156 -0.011209 -0.002969 0.000000 0.000000 0.000000
# 2 -0.011209 0.017156 -0.002969 0.000000 0.000000 0.000000
# 3 -0.002969 -0.002969 0.023907 0.000000 0.000000 0.000000
# 4 0.000000 0.000000 0.000000 0.037986 0.000000 0.000000
# 5 0.000000 0.000000 0.000000 0.000000 0.037986 0.000000
# 6 0.000000 0.000000 0.000000 0.000000 0.000000 0.029433
#
#
# Mechanical properties :
#
#
# Convention : Reuss Voigt Hill
#
# Bulk Modulus (GPa) = 41.79878 58.56048 50.17963
# Shear Modulus (GPa) = 24.28437 27.25424 25.76931
#
# Velocity S-wave (km/s) = 4.00223 4.23990 4.12278
# Velocity P-wave (km/s) = 6.99482 7.91172 7.46736
#
# Compressibility (1/GPa) = 0.02392415
#
# Stress axis : x y z
#
# Youngs Moduli (GPa) = 58.28783 58.28783 41.82867
#
# Poissons Ratio (x) = 0.65338 0.12419
# Poissons Ratio (y) = 0.65338 0.12419
# Poissons Ratio (z) = 0.17306 0.17306
#
# Static dielectric constant tensor:
#      x y z
#    x 1.509880 0.000000 0.000000 
#    y 0.000000 1.509880 0.000000 
#    z 0.000000 0.000000 1.516200 
# 
# From -- ./inp_files/1671.got.cif
#   From: 2010.05.17/outbox.cif.g08.bks.cpg/sg138_1_cif.got.tgz:1671.got - 2010.05.20 13:08:53.
