data_PCOD9571479
_publ_section_title
;
Structure prediction by ZEFSAII (Michael W. Deem and Ramdas Pophale) SiO2 
 PCOD9571479
Probable space group: I 4/M M M
;
_chemical_formula_sum "Si O2"
_cell_formula_units_Z 112
_cell_length_a 18.193535
_cell_length_b 18.193535
_cell_length_c 16.805657
_cell_angle_alpha 90.000000
_cell_angle_beta 90.000000
_cell_angle_gamma 90.000000
_cell_volume 5562.751719
_symmetry_space_group_name_H-M "I 4/M M M"
_symmetry_group_IT_number 139
_symmetry_cell_setting 'tetragonal'
loop_
_space_group_symop_operation_xyz
x,y,z
-y,x,z
-x,-y,z
y,-x,z
x,-y,-z
-x,y,-z
y,x,-z
-y,-x,-z
-x,-y,-z
y,-x,-z
x,y,-z
-y,x,-z
-x,y,z
x,-y,z
-y,-x,z
y,x,z
1/2+x,1/2+y,1/2+z
1/2-y,1/2+x,1/2+z
1/2-x,1/2-y,1/2+z
1/2+y,1/2-x,1/2+z
1/2+x,1/2-y,1/2-z
1/2-x,1/2+y,1/2-z
1/2+y,1/2+x,1/2-z
1/2-y,1/2-x,1/2-z
1/2-x,1/2-y,1/2-z
1/2+y,1/2-x,1/2-z
1/2+x,1/2+y,1/2-z
1/2-y,1/2+x,1/2-z
1/2-x,1/2+y,1/2+z
1/2+x,1/2-y,1/2+z
1/2-y,1/2-x,1/2+z
1/2+y,1/2+x,1/2+z
loop_
_atom_site_type_symbol
_atom_site_label
_atom_site_fract_x
_atom_site_fract_y
_atom_site_fract_z
Si Si1 0.584361 0.584361 0.724490
Si Si2 0.296754 0.085059 0.403966
Si Si3 0.302633 0.302633 0.804530
Si Si4 0.844786 0.155215 0.094934
Si Si5 0.692198 0.917979 0.903848
O O1 0.500000 0.600293 0.746155
O O2 0.642141 0.642141 0.758934
O O3 0.597611 0.597611 0.630892
O O4 0.286818 0.090550 0.500000
O O5 0.244708 0.142544 0.359546
O O6 0.377694 0.116391 0.384105
O O7 0.286314 0.000000 0.381492
O O8 0.250000 0.250000 0.750000
O O9 0.762824 0.130424 0.119437
O O10 0.846136 0.153864 0.000000
O O11 0.698652 0.000000 0.871092
O O12 0.694723 0.922242 0.000000
#
# Coordination Sequence:
#
# PCOD9571479 Si02
#       5
#    16  32  16  16  32
#     4  11  24  39  55  78 112 151 185 225 285 351
#     4  10  21  38  62  88 112 146 197 250 293 343
#     4  12  24  40  60  85 116 153 189 237 298 360
#     4  10  19  33  56  84 113 148 194 238 273 330
#     4   9  17  30  51  81 115 146 178 225 283 333
#
# _framework density 20.133918999999999
#
# number of rings (size 3 to 8) (size 9 to 14) (size 15 to 20)
#    0.000    1.857    0.000    4.714    0.000    4.571 
#    0.000    5.000    0.000    0.000    0.000    6.000 
#    0.000    0.000    0.000    0.000    0.000    0.000 
#
# Total GULP energy -312373.834205 kJ/mol
# GULP energy per Si atom -5578.104182 kJ/mol
# Density = 2.008809 g / cm^3
# Si number density = 20.133919 Si / 1000 Ang^3
#
#
#
# Elastic Constant Matrix: (Units=GPa)
#
#
# Indices 1 2 3 4 5 6 
#
# 1 156.3990 107.0012 45.0632 0.0000 0.0000 0.0000
# 2 107.0012 156.3994 45.0630 0.0000 0.0000 0.0000
# 3 45.0632 45.0630 33.2083 0.0000 0.0000 0.0000
# 4 0.0000 0.0000 0.0000 21.8256 0.0000 0.0000
# 5 0.0000 0.0000 0.0000 0.0000 21.8256 0.0000
# 6 0.0000 0.0000 0.0000 0.0000 0.0000 32.3563
#
#
#
# Elastic Compliance Matrix: (Units=1/GPa)
#
#
# Indices 1 2 3 4 5 6 
#
# 1 0.013665 -0.006578 -0.009617 0.000000 0.000000 0.000000
# 2 -0.006578 0.013665 -0.009617 0.000000 0.000000 0.000000
# 3 -0.009617 -0.009617 0.056213 0.000000 0.000000 0.000000
# 4 0.000000 0.000000 0.000000 0.045818 0.000000 0.000000
# 5 0.000000 0.000000 0.000000 0.000000 0.045818 0.000000
# 6 0.000000 0.000000 0.000000 0.000000 0.000000 0.030906
#
#
# Mechanical properties :
#
#
# Convention : Reuss Voigt Hill
#
# Bulk Modulus (GPa) = 31.32909 82.25127 56.79018
# Shear Modulus (GPa) = 18.63237 25.12680 21.87959
#
# Velocity S-wave (km/s) = 3.04537 3.53651 3.30009
# Velocity P-wave (km/s) = 5.28771 7.59057 6.54128
#
# Compressibility (1/GPa) = 0.03191922
#
# Stress axis : x y z
#
# Youngs Moduli (GPa) = 73.17700 73.17762 17.78938
#
# Poissons Ratio (x) = 0.48139 0.17108
# Poissons Ratio (y) = 0.48138 0.17108
# Poissons Ratio (z) = 0.70376 0.70375
#
# Static dielectric constant tensor:
#      x y z
#    x 1.704310 0.000000 0.000000 
#    y 0.000000 1.704310 0.000000 
#    z 0.000000 0.000000 1.790350 
# 
# From -- ./inp_files/7620.got.cif
#   From: 2010.05.17/outbox.cif.g08.bks.cpg/sg139_4_cif.got.tgz:7620.got - 2010.05.20 13:14:44.
