data_PCOD9571004
_publ_section_title
;
Structure prediction by ZEFSAII (Michael W. Deem and Ramdas Pophale) SiO2 
 PCOD9571004
Probable space group: P 42/N C M
;
_chemical_formula_sum "Si O2"
_cell_formula_units_Z 36
_cell_length_a 12.037990
_cell_length_b 12.037990
_cell_length_c 10.077860
_cell_angle_alpha 90.000000
_cell_angle_beta 90.000000
_cell_angle_gamma 90.000000
_cell_volume 1460.414974
_symmetry_space_group_name_H-M "P 42/N C M"
_symmetry_group_IT_number 138
_space_group.IT_coordinate_system_code '2'
_symmetry_cell_setting 'tetragonal'
loop_
_space_group_symop_operation_xyz
x,y,z
1/2-y,x,1/2+z
1/2-x,1/2-y,z
y,1/2-x,1/2+z
1/2+x,-y,1/2-z
-x,1/2+y,1/2-z
1/2+y,1/2+x,-z
-y,-x,-z
-x,-y,-z
1/2+y,-x,1/2-z
1/2+x,1/2+y,-z
-y,1/2+x,1/2-z
1/2-x,y,1/2+z
x,1/2-y,1/2+z
1/2-y,1/2-x,z
y,x,z
loop_
_atom_site_type_symbol
_atom_site_label
_atom_site_fract_x
_atom_site_fract_y
_atom_site_fract_z
Si Si1 0.036921 0.635731 0.836409
Si Si2 0.250000 0.750000 0.250000
Si Si3 0.679524 0.500937 0.037352
O O1 0.167893 0.832888 0.671289
O O2 0.989423 0.510578 0.842038
O O3 0.991455 0.681887 0.696003
O O4 0.992881 0.706157 0.959460
O O5 0.598776 0.598776 0.987642
O O6 0.612822 0.387179 0.000000
#
# Coordination Sequence:
#
# PCOD9571004 Si02
#       3
#    16   4  16
#     4  11  25  44  73 105 143 199 253 308 387 451
#     4  12  24  46  76 106 152 198 252 318 372 450
#     4  10  22  44  69 102 145 191 252 322 376 449
#
# _framework density 24.650528000000001
#
# number of rings (size 3 to 8) (size 9 to 14) (size 15 to 20)
#    0.000    1.333    4.444    0.000    0.000    6.222 
#    0.000    6.667    0.000    0.000    0.000    0.000 
#    0.000    0.000    0.000    0.000    0.000    0.000 
#
# Total GULP energy -201221.033016 kJ/mol
# GULP energy per Si atom -5589.473139 kJ/mol
# Density = 2.459442 g / cm^3
# Si number density = 24.650528 Si / 1000 Ang^3
#
#
#
# Elastic Constant Matrix: (Units=GPa)
#
#
# Indices 1 2 3 4 5 6 
#
# 1 134.0858 77.2588 29.5629 0.0000 0.0000 0.0000
# 2 77.2588 134.0880 29.5624 0.0000 0.0000 0.0000
# 3 29.5629 29.5624 162.2986 0.0000 0.0000 0.0000
# 4 0.0000 0.0000 0.0000 30.9689 0.0000 0.0000
# 5 0.0000 0.0000 0.0000 0.0000 30.9688 0.0000
# 6 0.0000 0.0000 0.0000 0.0000 0.0000 51.3747
#
#
#
# Elastic Compliance Matrix: (Units=1/GPa)
#
#
# Indices 1 2 3 4 5 6 
#
# 1 0.011291 -0.006306 -0.000908 0.000000 0.000000 0.000000
# 2 -0.006306 0.011291 -0.000908 0.000000 0.000000 0.000000
# 3 -0.000908 -0.000908 0.006492 0.000000 0.000000 0.000000
# 4 0.000000 0.000000 0.000000 0.032290 0.000000 0.000000
# 5 0.000000 0.000000 0.000000 0.000000 0.032291 0.000000
# 6 0.000000 0.000000 0.000000 0.000000 0.000000 0.019465
#
#
# Mechanical properties :
#
#
# Convention : Reuss Voigt Hill
#
# Bulk Modulus (GPa) = 77.93587 78.13785 78.03686
# Shear Modulus (GPa) = 37.41350 42.26837 39.84093
#
# Velocity S-wave (km/s) = 3.90007 4.14539 4.02460
# Velocity P-wave (km/s) = 7.20872 7.39455 7.30223
#
# Compressibility (1/GPa) = 0.01283106
#
# Stress axis : x y z
#
# Youngs Moduli (GPa) = 88.56305 88.56464 154.02830
#
# Poissons Ratio (x) = 0.55846 0.13989
# Poissons Ratio (y) = 0.55845 0.13987
# Poissons Ratio (z) = 0.08043 0.08042
#
# Static dielectric constant tensor:
#      x y z
#    x 1.990750 0.000000 0.000000 
#    y 0.000000 1.990740 0.000000 
#    z 0.000000 0.000000 1.972050 
# 
# From -- ./inp_files/3536.got.cif
#   From: 2010.05.17/outbox.cif.g08.bks.cpg/sg138_2_cif.got.tgz:3536.got - 2010.05.20 13:08:53.
