data_PCOD9571552
_publ_section_title
;
Structure prediction by ZEFSAII (Michael W. Deem and Ramdas Pophale) SiO2 
 PCOD9571552
Probable space group: I 4/M M M
;
_chemical_formula_sum "Si O2"
_cell_formula_units_Z 160
_cell_length_a 32.470180
_cell_length_b 32.470180
_cell_length_c 8.850938
_cell_angle_alpha 90.000000
_cell_angle_beta 90.000000
_cell_angle_gamma 90.000000
_cell_volume 9331.655360
_symmetry_space_group_name_H-M "I 4/M M M"
_symmetry_group_IT_number 139
_symmetry_cell_setting 'tetragonal'
loop_
_space_group_symop_operation_xyz
x,y,z
-y,x,z
-x,-y,z
y,-x,z
x,-y,-z
-x,y,-z
y,x,-z
-y,-x,-z
-x,-y,-z
y,-x,-z
x,y,-z
-y,x,-z
-x,y,z
x,-y,z
-y,-x,z
y,x,z
1/2+x,1/2+y,1/2+z
1/2-y,1/2+x,1/2+z
1/2-x,1/2-y,1/2+z
1/2+y,1/2-x,1/2+z
1/2+x,1/2-y,1/2-z
1/2-x,1/2+y,1/2-z
1/2+y,1/2+x,1/2-z
1/2-y,1/2-x,1/2-z
1/2-x,1/2-y,1/2-z
1/2+y,1/2-x,1/2-z
1/2+x,1/2+y,1/2-z
1/2-y,1/2+x,1/2-z
1/2-x,1/2+y,1/2+z
1/2+x,1/2-y,1/2+z
1/2-y,1/2-x,1/2+z
1/2+y,1/2+x,1/2+z
loop_
_atom_site_type_symbol
_atom_site_label
_atom_site_fract_x
_atom_site_fract_y
_atom_site_fract_z
Si Si1 0.266085 0.049177 0.179287
Si Si2 0.175838 0.824163 0.823380
Si Si3 0.385933 0.385933 0.822829
Si Si4 0.169032 0.608119 0.826909
Si Si5 0.548846 0.673373 0.318708
Si Si6 0.821640 0.261278 0.324967
O O1 0.305898 0.070901 0.250310
O O2 0.219781 0.062055 0.234348
O O3 0.268208 0.000000 0.201335
O O4 0.266761 0.057515 0.000000
O O5 0.148116 0.851885 0.717137
O O6 0.222765 0.832912 0.778145
O O7 0.168066 0.831935 0.000000
O O8 0.364767 0.426512 0.751862
O O9 0.391660 0.391660 0.000000
O O10 0.128920 0.628920 0.750000
O O11 0.203972 0.643547 0.823880
O O12 0.159249 0.598079 0.000000
O O13 0.554942 0.672620 0.500000
O O14 0.500000 0.669962 0.289659
O O15 0.815202 0.249586 0.500000
O O16 0.782112 0.282112 0.250000
#
# Coordination Sequence:
#
# PCOD9571552 Si02
#       6
#    32  16  16  32  32  32
#     4   9  18  33  53  76 102 132 167 209 255 301
#     4  12  23  33  46  64  90 125 164 205 244 285
#     4  12  24  35  51  77 105 130 159 201 253 303
#     4  10  20  32  48  69  95 129 166 205 247 293
#     4   9  19  37  59  80 103 134 170 206 249 305
#     4  10  20  33  46  63  89 123 163 204 247 292
#
# _framework density 17.14594
#
# number of rings (size 3 to 8) (size 9 to 14) (size 15 to 20)
#    0.000    2.000    0.000    5.700    0.000    7.200 
#    0.000    2.000    0.000    0.300    0.000    2.100 
#    0.000    0.400    0.000    4.200    0.000    1.800 
#
# Total GULP energy -446051.186328 kJ/mol
# GULP energy per Si atom -5575.639829 kJ/mol
# Density = 1.710692 g / cm^3
# Si number density = 17.145940 Si / 1000 Ang^3
#
#
#
# Elastic Constant Matrix: (Units=GPa)
#
#
# Indices 1 2 3 4 5 6 
#
# 1 26.6842 67.8234 31.3232 0.0000 0.0000 0.0000
# 2 67.8234 26.6844 31.3290 0.0000 0.0000 0.0000
# 3 31.3232 31.3290 60.9326 0.0000 0.0000 0.0000
# 4 0.0000 0.0000 0.0000 29.8052 0.0000 0.0000
# 5 0.0000 0.0000 0.0000 0.0000 29.8050 0.0000
# 6 0.0000 0.0000 0.0000 0.0000 0.0000 35.7830
#
#
#
# Elastic Compliance Matrix: (Units=1/GPa)
#
#
# Indices 1 2 3 4 5 6 
#
# 1 -0.004127 0.020180 -0.008254 0.000000 0.000000 0.000000
# 2 0.020180 -0.004129 -0.008251 0.000000 0.000000 0.000000
# 3 -0.008254 -0.008251 0.024897 0.000000 0.000000 0.000000
# 4 0.000000 0.000000 0.000000 0.033551 0.000000 0.000000
# 5 0.000000 0.000000 0.000000 0.000000 0.033551 0.000000
# 6 0.000000 0.000000 0.000000 0.000000 0.000000 0.027946
#
#
# Mechanical properties :
#
#
# Convention : Reuss Voigt Hill
#
# Bulk Modulus (GPa) = 41.68237 41.69471 41.68854
# Shear Modulus (GPa) = 44.50881 18.00035 31.25458
#
# Velocity S-wave (km/s) = 5.10051 3.24363 4.27412
# Velocity P-wave (km/s) = 7.68440 6.19665 6.98027
#
# Compressibility (1/GPa) = 0.02399096
#
# Stress axis : x y z
#
# Youngs Moduli (GPa) = -242.32068 -242.18989 40.16552
#
# Poissons Ratio (x) = 4.88736 0.33154
# Poissons Ratio (y) = 4.89000 0.33140
# Poissons Ratio (z) = -2.00017 -1.99826
#
# Static dielectric constant tensor:
#      x y z
#    x 1.608950 0.000000 0.000000 
#    y 0.000000 1.608950 0.000000 
#    z 0.000000 0.000000 1.588990 
# 
# From -- ./inp_files/2219.got.cif
#   From: 2010.05.17/outbox.cif.g08.bks.cpg/sg139_2_cif.got.tgz:2219.got - 2010.05.20 13:14:44.
