data_PCOD9571747
_publ_section_title
;
Structure prediction by ZEFSAII (Michael W. Deem and Ramdas Pophale) SiO2 
 PCOD9571747
Probable space group: I 4/M M M
;
_chemical_formula_sum "Si O2"
_cell_formula_units_Z 144
_cell_length_a 28.922200
_cell_length_b 28.922200
_cell_length_c 9.638912
_cell_angle_alpha 90.000000
_cell_angle_beta 90.000000
_cell_angle_gamma 90.000000
_cell_volume 8062.888708
_symmetry_space_group_name_H-M "I 4/M M M"
_symmetry_group_IT_number 139
_symmetry_cell_setting 'tetragonal'
loop_
_space_group_symop_operation_xyz
x,y,z
-y,x,z
-x,-y,z
y,-x,z
x,-y,-z
-x,y,-z
y,x,-z
-y,-x,-z
-x,-y,-z
y,-x,-z
x,y,-z
-y,x,-z
-x,y,z
x,-y,z
-y,-x,z
y,x,z
1/2+x,1/2+y,1/2+z
1/2-y,1/2+x,1/2+z
1/2-x,1/2-y,1/2+z
1/2+y,1/2-x,1/2+z
1/2+x,1/2-y,1/2-z
1/2-x,1/2+y,1/2-z
1/2+y,1/2+x,1/2-z
1/2-y,1/2-x,1/2-z
1/2-x,1/2-y,1/2-z
1/2+y,1/2-x,1/2-z
1/2+x,1/2+y,1/2-z
1/2-y,1/2+x,1/2-z
1/2-x,1/2+y,1/2+z
1/2+x,1/2-y,1/2+z
1/2-y,1/2-x,1/2+z
1/2+y,1/2+x,1/2+z
loop_
_atom_site_type_symbol
_atom_site_label
_atom_site_fract_x
_atom_site_fract_y
_atom_site_fract_z
Si Si1 0.444555 0.801824 0.657440
Si Si2 0.371450 0.445719 0.165693
Si Si3 0.215700 0.784301 0.166611
Si Si4 0.108219 0.793175 0.836511
Si Si5 0.055365 0.614165 0.343424
O O1 0.433093 0.816579 0.500000
O O2 0.500000 0.798558 0.666683
O O3 0.422982 0.752017 0.680927
O O4 0.428090 0.839329 0.767775
O O5 0.370224 0.500000 0.206344
O O6 0.421023 0.421023 0.188815
O O7 0.333862 0.414682 0.246869
O O8 0.362079 0.443498 0.000000
O O9 0.250000 0.750000 0.250000
O O10 0.221289 0.839115 0.198691
O O11 0.222313 0.777688 0.000000
O O12 0.108347 0.806530 0.000000
O O13 0.072380 0.610571 0.500000
O O14 0.072307 0.572307 0.250000
O O15 0.000000 0.615386 0.345841
#
# Coordination Sequence:
#
# PCOD9571747 Si02
#       5
#    32  32  16  32  32
#     4   9  18  33  54  79 106 137 176 224 276 328
#     4  10  21  36  56  84 117 155 198 243 291 343
#     4  10  22  38  56  80 111 146 185 229 278 335
#     4  10  20  37  59  83 112 147 188 234 284 339
#     4  10  21  36  54  77 106 140 178 222 273 329
#
# _framework density 17.859604000000001
#
# number of rings (size 3 to 8) (size 9 to 14) (size 15 to 20)
#    0.000    2.222    1.111    1.333    0.000    5.778 
#    0.000    6.667    0.000    0.000    0.000    1.556 
#    0.000    0.000    0.000    0.000    0.000    0.000 
#
# Total GULP energy -401391.798867 kJ/mol
# GULP energy per Si atom -5574.886095 kJ/mol
# Density = 1.781895 g / cm^3
# Si number density = 17.859604 Si / 1000 Ang^3
#
#
#
# Elastic Constant Matrix: (Units=GPa)
#
#
# Indices 1 2 3 4 5 6 
#
# 1 65.9959 63.1593 52.5357 0.0000 0.0000 0.0000
# 2 63.1593 65.9962 52.5357 0.0000 0.0000 0.0000
# 3 52.5357 52.5357 94.9827 0.0000 0.0000 0.0000
# 4 0.0000 0.0000 0.0000 27.1117 0.0000 0.0000
# 5 0.0000 0.0000 0.0000 0.0000 27.1116 0.0000
# 6 0.0000 0.0000 0.0000 0.0000 0.0000 33.8927
#
#
#
# Elastic Compliance Matrix: (Units=1/GPa)
#
#
# Indices 1 2 3 4 5 6 
#
# 1 0.183298 -0.169220 -0.007786 0.000000 0.000000 0.000000
# 2 -0.169220 0.183296 -0.007785 0.000000 0.000000 0.000000
# 3 -0.007786 -0.007785 0.019141 0.000000 0.000000 0.000000
# 4 0.000000 0.000000 0.000000 0.036884 0.000000 0.000000
# 5 0.000000 0.000000 0.000000 0.000000 0.036885 0.000000
# 6 0.000000 0.000000 0.000000 0.000000 0.000000 0.029505
#
#
# Mechanical properties :
#
#
# Convention : Reuss Voigt Hill
#
# Bulk Modulus (GPa) = 61.91644 62.60405 62.26025
# Shear Modulus (GPa) = 5.78719 21.53947 13.66333
#
# Velocity S-wave (km/s) = 1.80206 3.47658 2.76894
# Velocity P-wave (km/s) = 6.25089 7.15856 6.72007
#
# Compressibility (1/GPa) = 0.01615080
#
# Stress axis : x y z
#
# Youngs Moduli (GPa) = 5.45560 5.45565 52.24346
#
# Poissons Ratio (x) = 0.92321 0.40679
# Poissons Ratio (y) = 0.92320 0.40674
# Poissons Ratio (z) = 0.04248 0.04247
#
# Static dielectric constant tensor:
#      x y z
#    x 1.607240 0.000000 0.000000 
#    y 0.000000 1.607240 0.000000 
#    z 0.000000 0.000000 1.618110 
# 
# From -- ./inp_files/2026.got.cif
#   From: 2010.05.17/outbox.cif.g08.bks.cpg/sg139_2_cif.got.tgz:2026.got - 2010.05.20 13:14:44.
