data_PCOD9571080
_publ_section_title
;
Structure prediction by ZEFSAII (Michael W. Deem and Ramdas Pophale) SiO2 
 PCOD9571080
Probable space group: P 42/N C M
;
_chemical_formula_sum "Si O2"
_cell_formula_units_Z 68
_cell_length_a 16.472950
_cell_length_b 16.472950
_cell_length_c 13.272179
_cell_angle_alpha 90.000000
_cell_angle_beta 90.000000
_cell_angle_gamma 90.000000
_cell_volume 3601.513033
_symmetry_space_group_name_H-M "P 42/N C M"
_symmetry_group_IT_number 138
_space_group.IT_coordinate_system_code '2'
_symmetry_cell_setting 'tetragonal'
loop_
_space_group_symop_operation_xyz
x,y,z
1/2-y,x,1/2+z
1/2-x,1/2-y,z
y,1/2-x,1/2+z
1/2+x,-y,1/2-z
-x,1/2+y,1/2-z
1/2+y,1/2+x,-z
-y,-x,-z
-x,-y,-z
1/2+y,-x,1/2-z
1/2+x,1/2+y,-z
-y,1/2+x,1/2-z
1/2-x,y,1/2+z
x,1/2-y,1/2+z
1/2-y,1/2-x,z
y,x,z
loop_
_atom_site_type_symbol
_atom_site_label
_atom_site_fract_x
_atom_site_fract_y
_atom_site_fract_z
Si Si1 0.362168 0.811260 0.246285
Si Si2 0.316955 0.551473 0.459663
Si Si3 0.750000 0.750000 0.457168
Si Si4 0.955418 0.356000 0.571880
Si Si5 0.132265 0.132265 0.169398
Si Si6 0.868400 0.631601 0.083080
O O1 0.344699 0.723024 0.292042
O O2 0.423467 0.803515 0.155760
O O3 0.394628 0.865682 0.334921
O O4 0.386262 0.613739 0.500000
O O5 0.230296 0.558757 0.515910
O O6 0.346521 0.458548 0.456430
O O7 0.694490 0.805511 0.383763
O O8 0.805855 0.805855 0.530116
O O9 0.930704 0.430704 0.500000
O O10 0.043150 0.350697 0.623416
O O11 0.134493 0.134493 0.292738
#
# Coordination Sequence:
#
# PCOD9571080 Si02
#       6
#    16  16   4  16   8   8
#     4  11  22  37  64  99 132 173 218 252 313 397
#     4  12  24  41  67  97 132 173 213 263 325 385
#     4  12  26  48  72  98 116 172 222 268 332 382
#     4  12  24  41  67  97 132 173 213 263 325 385
#     4  12  26  46  70  92 128 170 220 274 322 380
#     4  12  26  46  70  92 128 170 220 274 322 380
#
# _framework density 18.880953999999999
#
# number of rings (size 3 to 8) (size 9 to 14) (size 15 to 20)
#    0.000    0.235    9.412    1.059    0.000    0.471 
#    0.000    0.000    0.000    0.000    0.000    0.000 
#    0.000    0.000    0.000    0.000    0.000    0.000 
#
# Total GULP energy -379217.597199 kJ/mol
# GULP energy per Si atom -5576.729371 kJ/mol
# Density = 1.883798 g / cm^3
# Si number density = 18.880954 Si / 1000 Ang^3
#
#
#
# Elastic Constant Matrix: (Units=GPa)
#
#
# Indices 1 2 3 4 5 6 
#
# 1 69.8442 59.9674 24.3856 0.0000 0.0000 0.0000
# 2 59.9674 69.8458 24.3882 0.0000 0.0000 0.0000
# 3 24.3856 24.3882 93.7147 0.0000 0.0000 0.0000
# 4 0.0000 0.0000 0.0000 31.8563 0.0000 0.0000
# 5 0.0000 0.0000 0.0000 0.0000 31.8564 0.0000
# 6 0.0000 0.0000 0.0000 0.0000 0.0000 34.1465
#
#
#
# Elastic Compliance Matrix: (Units=1/GPa)
#
#
# Indices 1 2 3 4 5 6 
#
# 1 0.054889 -0.046351 -0.002220 0.000000 0.000000 0.000000
# 2 -0.046351 0.054889 -0.002223 0.000000 0.000000 0.000000
# 3 -0.002220 -0.002223 0.011827 0.000000 0.000000 0.000000
# 4 0.000000 0.000000 0.000000 0.031391 0.000000 0.000000
# 5 0.000000 0.000000 0.000000 0.000000 0.031391 0.000000
# 6 0.000000 0.000000 0.000000 0.000000 0.000000 0.029286
#
#
# Mechanical properties :
#
#
# Convention : Reuss Voigt Hill
#
# Bulk Modulus (GPa) = 49.95984 50.09857 50.02920
# Shear Modulus (GPa) = 15.53117 27.88275 21.70696
#
# Velocity S-wave (km/s) = 2.87118 3.84704 3.39436
# Velocity P-wave (km/s) = 6.12450 6.80621 6.47433
#
# Compressibility (1/GPa) = 0.02001608
#
# Stress axis : x y z
#
# Youngs Moduli (GPa) = 18.21855 18.21863 84.55191
#
# Poissons Ratio (x) = 0.84445 0.18775
# Poissons Ratio (y) = 0.84444 0.18798
# Poissons Ratio (z) = 0.04045 0.04050
#
# Static dielectric constant tensor:
#      x y z
#    x 1.664400 0.000000 0.000000 
#    y 0.000000 1.664400 0.000000 
#    z 0.000000 0.000000 1.642170 
# 
# From -- ./inp_files/2848.got.cif
#   From: 2010.05.17/outbox.cif.g08.bks.cpg/sg138_2_cif.got.tgz:2848.got - 2010.05.20 13:08:53.
