data_PCOD9571294
_publ_section_title
;
Structure prediction by ZEFSAII (Michael W. Deem and Ramdas Pophale) SiO2 
 PCOD9571294
Probable space group: I 4/M M M
;
_chemical_formula_sum "Si O2"
_cell_formula_units_Z 160
_cell_length_a 19.684866
_cell_length_b 19.684866
_cell_length_c 25.794057
_cell_angle_alpha 90.000000
_cell_angle_beta 90.000000
_cell_angle_gamma 90.000000
_cell_volume 9995.041019
_symmetry_space_group_name_H-M "I 4/M M M"
_symmetry_group_IT_number 139
_symmetry_cell_setting 'tetragonal'
loop_
_space_group_symop_operation_xyz
x,y,z
-y,x,z
-x,-y,z
y,-x,z
x,-y,-z
-x,y,-z
y,x,-z
-y,-x,-z
-x,-y,-z
y,-x,-z
x,y,-z
-y,x,-z
-x,y,z
x,-y,z
-y,-x,z
y,x,z
1/2+x,1/2+y,1/2+z
1/2-y,1/2+x,1/2+z
1/2-x,1/2-y,1/2+z
1/2+y,1/2-x,1/2+z
1/2+x,1/2-y,1/2-z
1/2-x,1/2+y,1/2-z
1/2+y,1/2+x,1/2-z
1/2-y,1/2-x,1/2-z
1/2-x,1/2-y,1/2-z
1/2+y,1/2-x,1/2-z
1/2+x,1/2+y,1/2-z
1/2-y,1/2+x,1/2-z
1/2-x,1/2+y,1/2+z
1/2+x,1/2-y,1/2+z
1/2-y,1/2-x,1/2+z
1/2+y,1/2+x,1/2+z
loop_
_atom_site_type_symbol
_atom_site_label
_atom_site_fract_x
_atom_site_fract_y
_atom_site_fract_z
Si Si1 0.579718 0.693435 0.353981
Si Si2 0.837161 0.725959 0.938868
Si Si3 0.863093 0.253535 0.249612
Si Si4 0.075882 0.293539 0.560913
Si Si5 0.924264 0.810780 0.347714
O O1 0.500000 0.680150 0.358923
O O2 0.624748 0.624748 0.350397
O O3 0.609611 0.735813 0.402380
O O4 0.595040 0.736904 0.302067
O O5 0.764356 0.764356 0.929184
O O6 0.834038 0.645433 0.927613
O O7 0.852001 0.734641 0.000000
O O8 0.802924 0.197077 0.250237
O O9 0.825834 0.325834 0.250000
O O10 0.905803 0.240876 0.301393
O O11 0.080028 0.275633 0.500000
O O12 0.078745 0.228816 0.598170
O O13 0.000000 0.324951 0.569014
O O14 0.870520 0.870520 0.346682
O O15 0.000000 0.836908 0.339325
#
# Coordination Sequence:
#
# PCOD9571294 Si02
#       5
#    32  32  32  32  32
#     4  10  20  33  50  73 100 130 164 200 240 287
#     4   9  17  30  49  71  95 125 161 201 244 290
#     4   9  17  30  48  68  89 114 148 191 235 276
#     4   9  17  29  47  71  95 119 152 197 246 290
#     4  10  19  29  42  62  90 123 155 185 220 266
#
# _framework density 16.007937999999999
#
# number of rings (size 3 to 8) (size 9 to 14) (size 15 to 20)
#    0.000    2.600    0.000    2.400    0.000    5.200 
#    0.000    0.000    0.000    4.200    0.000    8.400 
#    0.000    5.200    0.000    0.000    0.000    0.000 
#
# Total GULP energy -445466.977494 kJ/mol
# GULP energy per Si atom -5568.337219 kJ/mol
# Density = 1.597150 g / cm^3
# Si number density = 16.007938 Si / 1000 Ang^3
#
#
#
# Elastic Constant Matrix: (Units=GPa)
#
#
# Indices 1 2 3 4 5 6 
#
# 1 96.0828 52.5327 42.6579 0.0000 0.0000 0.0000
# 2 52.5327 96.0828 42.6579 0.0000 0.0000 0.0000
# 3 42.6579 42.6579 53.6658 0.0000 0.0000 0.0000
# 4 0.0000 0.0000 0.0000 18.7191 0.0000 0.0000
# 5 0.0000 0.0000 0.0000 0.0000 18.7191 0.0000
# 6 0.0000 0.0000 0.0000 0.0000 0.0000 13.2371
#
#
#
# Elastic Compliance Matrix: (Units=1/GPa)
#
#
# Indices 1 2 3 4 5 6 
#
# 1 0.017669 -0.005293 -0.009838 0.000000 0.000000 0.000000
# 2 -0.005293 0.017669 -0.009838 0.000000 0.000000 0.000000
# 3 -0.009838 -0.009838 0.034273 0.000000 0.000000 0.000000
# 4 0.000000 0.000000 0.000000 0.053421 0.000000 0.000000
# 5 0.000000 0.000000 0.000000 0.000000 0.053421 0.000000
# 6 0.000000 0.000000 0.000000 0.000000 0.000000 0.075545
#
#
# Mechanical properties :
#
#
# Convention : Reuss Voigt Hill
#
# Bulk Modulus (GPa) = 50.82520 57.94762 54.38641
# Shear Modulus (GPa) = 16.20774 17.33392 16.77083
#
# Velocity S-wave (km/s) = 3.18540 3.29421 3.24026
# Velocity P-wave (km/s) = 6.73409 7.12369 6.93163
#
# Compressibility (1/GPa) = 0.01967528
#
# Stress axis : x y z
#
# Youngs Moduli (GPa) = 56.59576 56.59576 29.17715
#
# Poissons Ratio (x) = 0.29955 0.28704
# Poissons Ratio (y) = 0.29955 0.28704
# Poissons Ratio (z) = 0.55677 0.55677
#
# Static dielectric constant tensor:
#      x y z
#    x 1.531060 0.000000 0.000000 
#    y 0.000000 1.531060 0.000000 
#    z 0.000000 0.000000 1.540670 
# 
# From -- ./inp_files/12927.got.cif
#   From: 2010.05.17/outbox.cif.g08.bks.cpg/sg139_7_cif.got.tgz:12927.got - 2010.05.20 13:14:44.
