data_PCOD9571445
_publ_section_title
;
Structure prediction by ZEFSAII (Michael W. Deem and Ramdas Pophale) SiO2 
 PCOD9571445
Probable space group: I 4/M M M
;
_chemical_formula_sum "Si O2"
_cell_formula_units_Z 240
_cell_length_a 31.376771
_cell_length_b 31.376771
_cell_length_c 14.996769
_cell_angle_alpha 90.000000
_cell_angle_beta 90.000000
_cell_angle_gamma 90.000000
_cell_volume 14764.345451
_symmetry_space_group_name_H-M "I 4/M M M"
_symmetry_group_IT_number 139
_symmetry_cell_setting 'tetragonal'
loop_
_space_group_symop_operation_xyz
x,y,z
-y,x,z
-x,-y,z
y,-x,z
x,-y,-z
-x,y,-z
y,x,-z
-y,-x,-z
-x,-y,-z
y,-x,-z
x,y,-z
-y,x,-z
-x,y,z
x,-y,z
-y,-x,z
y,x,z
1/2+x,1/2+y,1/2+z
1/2-y,1/2+x,1/2+z
1/2-x,1/2-y,1/2+z
1/2+y,1/2-x,1/2+z
1/2+x,1/2-y,1/2-z
1/2-x,1/2+y,1/2-z
1/2+y,1/2+x,1/2-z
1/2-y,1/2-x,1/2-z
1/2-x,1/2-y,1/2-z
1/2+y,1/2-x,1/2-z
1/2+x,1/2+y,1/2-z
1/2-y,1/2+x,1/2-z
1/2-x,1/2+y,1/2+z
1/2+x,1/2-y,1/2+z
1/2-y,1/2-x,1/2+z
1/2+y,1/2+x,1/2+z
loop_
_atom_site_type_symbol
_atom_site_label
_atom_site_fract_x
_atom_site_fract_y
_atom_site_fract_z
Si Si1 0.123795 0.050733 0.500000
Si Si2 0.049391 0.706044 0.599513
Si Si3 0.624712 0.806440 0.230030
Si Si4 0.764798 0.695410 0.895227
Si Si5 0.388526 0.677742 0.698117
Si Si6 0.547526 0.613747 0.392922
Si Si7 0.242421 0.645393 0.602858
Si Si8 0.803416 0.048952 0.352501
O O1 0.084260 0.084260 0.500000
O O2 0.155844 0.057166 0.584180
O O3 0.111165 0.000000 0.500000
O O4 0.060921 0.691093 0.500000
O O5 0.082125 0.689361 0.673006
O O6 0.051583 0.757699 0.599761
O O7 0.000000 0.695017 0.617469
O O8 0.650182 0.849819 0.250000
O O9 0.656872 0.776263 0.171175
O O10 0.618871 0.785481 0.326711
O O11 0.722452 0.722452 0.872557
O O12 0.805539 0.727155 0.888712
O O13 0.761935 0.682039 0.000000
O O14 0.355055 0.644946 0.739994
O O15 0.421524 0.650681 0.639439
O O16 0.363016 0.710105 0.636044
O O17 0.416791 0.698667 0.774317
O O18 0.546088 0.614325 0.500000
O O19 0.500000 0.618301 0.357500
O O20 0.569477 0.569477 0.364958
O O21 0.237023 0.633215 0.500000
O O22 0.807451 0.000000 0.319958
#
# Coordination Sequence:
#
# PCOD9571445 Si02
#       8
#    16  32  32  32  32  32  32  32
#     4  10  20  35  52  72  98 126 162 214 281 347
#     4  10  19  35  58  81 106 137 175 216 258 302
#     4  10  20  34  53  76 105 139 175 216 257 305
#     4   9  18  32  48  68  98 135 174 217 264 311
#     4  11  20  30  45  64  87 117 157 203 249 302
#     4   9  18  31  45  61  80 103 137 187 246 303
#     4  10  20  32  46  66  95 134 173 208 250 302
#     4  10  19  33  51  69  92 122 158 209 265 314
#
# _framework density 16.255376999999999
#
# number of rings (size 3 to 8) (size 9 to 14) (size 15 to 20)
#    0.000    2.133    2.000    2.000    0.000    5.000 
#    0.000    0.667    0.000    1.200    0.000    1.867 
#    0.000    0.267    0.000    1.467    0.000    0.000 
#
# Total GULP energy -669015.006963 kJ/mol
# GULP energy per Si atom -5575.125058 kJ/mol
# Density = 1.621838 g / cm^3
# Si number density = 16.255377 Si / 1000 Ang^3
#
#
#
# Elastic Constant Matrix: (Units=GPa)
#
#
# Indices 1 2 3 4 5 6 
#
# 1 45.6740 32.0622 31.6470 0.0000 0.0000 0.0000
# 2 32.0622 45.6769 31.6481 0.0000 0.0000 0.0000
# 3 31.6470 31.6481 87.5846 0.0000 0.0000 0.0000
# 4 0.0000 0.0000 0.0000 17.7732 0.0000 0.0000
# 5 0.0000 0.0000 0.0000 0.0000 17.7737 0.0000
# 6 0.0000 0.0000 0.0000 0.0000 0.0000 13.6328
#
#
#
# Elastic Compliance Matrix: (Units=1/GPa)
#
#
# Indices 1 2 3 4 5 6 
#
# 1 0.045843 -0.027616 -0.006586 0.000000 0.000000 0.000000
# 2 -0.027616 0.045840 -0.006586 0.000000 0.000000 0.000000
# 3 -0.006586 -0.006586 0.016177 0.000000 0.000000 0.000000
# 4 0.000000 0.000000 0.000000 0.056264 0.000000 0.000000
# 5 0.000000 0.000000 0.000000 0.000000 0.056263 0.000000
# 6 0.000000 0.000000 0.000000 0.000000 0.000000 0.073352
#
#
# Mechanical properties :
#
#
# Convention : Reuss Voigt Hill
#
# Bulk Modulus (GPa) = 38.04316 41.07221 39.55768
# Shear Modulus (GPa) = 13.01824 15.40783 14.21304
#
# Velocity S-wave (km/s) = 2.83301 3.08207 2.96016
# Velocity P-wave (km/s) = 5.84427 6.16338 6.00595
#
# Compressibility (1/GPa) = 0.02628594
#
# Stress axis : x y z
#
# Youngs Moduli (GPa) = 21.81351 21.81487 61.81672
#
# Poissons Ratio (x) = 0.60243 0.40711
# Poissons Ratio (y) = 0.60240 0.40710
# Poissons Ratio (z) = 0.14366 0.14367
#
# Static dielectric constant tensor:
#      x y z
#    x 1.547310 0.000000 0.000000 
#    y 0.000000 1.547310 0.000000 
#    z 0.000000 0.000000 1.566450 
# 
# From -- ./inp_files/6787.got.cif
#   From: 2010.05.17/outbox.cif.g08.bks.cpg/sg139_4_cif.got.tgz:6787.got - 2010.05.20 13:14:44.
