data_PCOD9571361
_publ_section_title
;
Structure prediction by ZEFSAII (Michael W. Deem and Ramdas Pophale) SiO2 
 PCOD9571361
Probable space group: I 4/M M M
;
_chemical_formula_sum "Si O2"
_cell_formula_units_Z 176
_cell_length_a 19.916412
_cell_length_b 19.916412
_cell_length_c 27.721407
_cell_angle_alpha 90.000000
_cell_angle_beta 90.000000
_cell_angle_gamma 90.000000
_cell_volume 10996.069409
_symmetry_space_group_name_H-M "I 4/M M M"
_symmetry_group_IT_number 139
_symmetry_cell_setting 'tetragonal'
loop_
_space_group_symop_operation_xyz
x,y,z
-y,x,z
-x,-y,z
y,-x,z
x,-y,-z
-x,y,-z
y,x,-z
-y,-x,-z
-x,-y,-z
y,-x,-z
x,y,-z
-y,x,-z
-x,y,z
x,-y,z
-y,-x,z
y,x,z
1/2+x,1/2+y,1/2+z
1/2-y,1/2+x,1/2+z
1/2-x,1/2-y,1/2+z
1/2+y,1/2-x,1/2+z
1/2+x,1/2-y,1/2-z
1/2-x,1/2+y,1/2-z
1/2+y,1/2+x,1/2-z
1/2-y,1/2-x,1/2-z
1/2-x,1/2-y,1/2-z
1/2+y,1/2-x,1/2-z
1/2+x,1/2+y,1/2-z
1/2-y,1/2+x,1/2-z
1/2-x,1/2+y,1/2+z
1/2+x,1/2-y,1/2+z
1/2-y,1/2-x,1/2+z
1/2+y,1/2+x,1/2+z
loop_
_atom_site_type_symbol
_atom_site_label
_atom_site_fract_x
_atom_site_fract_y
_atom_site_fract_z
Si Si1 0.078162 0.303244 0.578519
Si Si2 0.688693 0.577151 0.743974
Si Si3 0.628973 0.739654 0.353831
Si Si4 0.680380 0.077742 0.944761
Si Si5 0.920612 0.190845 0.500000
Si Si6 0.348590 0.761995 0.172167
O O1 0.121849 0.367516 0.563187
O O2 0.094099 0.239325 0.545134
O O3 0.096821 0.280509 0.632208
O O4 0.000000 0.318660 0.572993
O O5 0.681056 0.500000 0.758732
O O6 0.620205 0.620205 0.747985
O O7 0.712961 0.581839 0.688687
O O8 0.742097 0.615756 0.778096
O O9 0.680290 0.680290 0.367381
O O10 0.593721 0.767602 0.401700
O O11 0.675225 0.797636 0.329332
O O12 0.658258 0.000000 0.940152
O O13 0.705917 0.086123 0.000000
O O14 0.873847 0.126154 0.500000
O O15 0.000000 0.174370 0.500000
O O16 0.302224 0.697777 0.158357
#
# Coordination Sequence:
#
# PCOD9571361 Si02
#       6
#    32  32  32  32  16  32
#     4  10  19  32  48  70  96 127 164 197 236 287
#     4  10  19  31  48  69  95 126 156 190 234 282
#     4   9  18  32  50  72  94 120 156 198 242 288
#     4  10  20  33  48  70  99 129 160 199 245 293
#     4  10  20  33  49  69  95 127 164 206 246 288
#     4   9  17  30  49  72  94 119 153 198 242 280
#
# _framework density 16.005718999999999
#
# number of rings (size 3 to 8) (size 9 to 14) (size 15 to 20)
#    0.000    2.364    0.909    2.182    0.000    3.909 
#    0.000    0.909    0.000    0.000    0.000    2.545 
#    0.000   13.091    0.000   16.909    0.000    0.000 
#
# Total GULP energy -490180.562555 kJ/mol
# GULP energy per Si atom -5570.233665 kJ/mol
# Density = 1.596929 g / cm^3
# Si number density = 16.005719 Si / 1000 Ang^3
#
#
#
# Elastic Constant Matrix: (Units=GPa)
#
#
# Indices 1 2 3 4 5 6 
#
# 1 79.6871 36.4925 36.0311 0.0000 0.0000 0.0000
# 2 36.4925 79.6901 36.0315 0.0000 0.0000 0.0000
# 3 36.0311 36.0315 91.2611 0.0000 0.0000 0.0000
# 4 0.0000 0.0000 0.0000 21.7157 0.0000 0.0000
# 5 0.0000 0.0000 0.0000 0.0000 21.7165 0.0000
# 6 0.0000 0.0000 0.0000 0.0000 0.0000 8.8262
#
#
#
# Elastic Compliance Matrix: (Units=1/GPa)
#
#
# Indices 1 2 3 4 5 6 
#
# 1 0.017275 -0.005876 -0.004500 0.000000 0.000000 0.000000
# 2 -0.005876 0.017274 -0.004500 0.000000 0.000000 0.000000
# 3 -0.004500 -0.004500 0.014511 0.000000 0.000000 0.000000
# 4 0.000000 0.000000 0.000000 0.046050 0.000000 0.000000
# 5 0.000000 0.000000 0.000000 0.000000 0.046048 0.000000
# 6 0.000000 0.000000 0.000000 0.000000 0.000000 0.113300
#
#
# Mechanical properties :
#
#
# Convention : Reuss Voigt Hill
#
# Bulk Modulus (GPa) = 51.79455 51.97204 51.88330
# Shear Modulus (GPa) = 17.20306 19.92389 18.56347
#
# Velocity S-wave (km/s) = 3.28198 3.53200 3.40928
# Velocity P-wave (km/s) = 6.84048 7.01247 6.92701
#
# Compressibility (1/GPa) = 0.01930705
#
# Stress axis : x y z
#
# Youngs Moduli (GPa) = 57.88776 57.89021 68.91234
#
# Poissons Ratio (x) = 0.34015 0.31014
# Poissons Ratio (y) = 0.34014 0.31012
# Poissons Ratio (z) = 0.26052 0.26052
#
# Static dielectric constant tensor:
#      x y z
#    x 1.519870 0.000000 0.000000 
#    y 0.000000 1.519870 0.000000 
#    z 0.000000 0.000000 1.547060 
# 
# From -- ./inp_files/13150.got.cif
#   From: 2010.05.17/outbox.cif.g08.bks.cpg/sg139_7_cif.got.tgz:13150.got - 2010.05.20 13:14:44.
