data_PCOD9571082
_publ_section_title
;
Structure prediction by ZEFSAII (Michael W. Deem and Ramdas Pophale) SiO2 
 PCOD9571082
Probable space group: P 42/N C M
;
_chemical_formula_sum "Si O2"
_cell_formula_units_Z 64
_cell_length_a 12.375744
_cell_length_b 12.375744
_cell_length_c 18.427181
_cell_angle_alpha 90.000000
_cell_angle_beta 90.000000
_cell_angle_gamma 90.000000
_cell_volume 2822.289344
_symmetry_space_group_name_H-M "P 42/N C M"
_symmetry_group_IT_number 138
_space_group.IT_coordinate_system_code '2'
_symmetry_cell_setting 'tetragonal'
loop_
_space_group_symop_operation_xyz
x,y,z
1/2-y,x,1/2+z
1/2-x,1/2-y,z
y,1/2-x,1/2+z
1/2+x,-y,1/2-z
-x,1/2+y,1/2-z
1/2+y,1/2+x,-z
-y,-x,-z
-x,-y,-z
1/2+y,-x,1/2-z
1/2+x,1/2+y,-z
-y,1/2+x,1/2-z
1/2-x,y,1/2+z
x,1/2-y,1/2+z
1/2-y,1/2-x,z
y,x,z
loop_
_atom_site_type_symbol
_atom_site_label
_atom_site_fract_x
_atom_site_fract_y
_atom_site_fract_z
Si Si1 0.390090 0.569354 0.257809
Si Si2 0.566853 0.751551 0.988417
Si Si3 0.740603 0.127163 0.375051
Si Si4 0.426815 0.256435 0.849141
O O1 0.495107 0.495107 0.260901
O O2 0.363110 0.613396 0.177923
O O3 0.389249 0.659953 0.319446
O O4 0.290572 0.492750 0.282585
O O5 0.639590 0.860411 0.978025
O O6 0.651768 0.651768 0.980152
O O7 0.467195 0.743306 0.933917
O O8 0.522114 0.746309 0.070764
O O9 0.750000 0.250000 0.402674
O O10 0.329329 0.170672 0.858219
O O11 0.370762 0.370762 0.835736
#
# Coordination Sequence:
#
# PCOD9571082 Si02
#       4
#    16  16  16  16
#     4  11  22  39  63  86 117 162 209 254 306 361
#     4   9  19  39  68  98 123 155 208 264 308 359
#     4  12  23  42  56  88 131 166 203 246 308 371
#     4   8  17  36  62  94 125 151 197 264 316 359
#
# _framework density 22.676627
#
# number of rings (size 3 to 8) (size 9 to 14) (size 15 to 20)
#    0.000    2.000    2.500    3.000    0.000    3.000 
#    0.000   10.000    0.000    3.000    0.000    0.000 
#    0.000    0.000    0.000    0.000    0.000    0.000 
#
# Total GULP energy -357875.056667 kJ/mol
# GULP energy per Si atom -5591.797760 kJ/mol
# Density = 2.262501 g / cm^3
# Si number density = 22.676627 Si / 1000 Ang^3
#
#
#
# Elastic Constant Matrix: (Units=GPa)
#
#
# Indices 1 2 3 4 5 6 
#
# 1 106.8960 21.5028 43.6615 0.0000 0.0000 0.0000
# 2 21.5028 106.8960 43.6615 0.0000 0.0000 0.0000
# 3 43.6615 43.6615 107.2117 0.0000 0.0000 0.0000
# 4 0.0000 0.0000 0.0000 40.2685 0.0000 0.0000
# 5 0.0000 0.0000 0.0000 0.0000 40.2685 0.0000
# 6 0.0000 0.0000 0.0000 0.0000 0.0000 36.9021
#
#
#
# Elastic Compliance Matrix: (Units=1/GPa)
#
#
# Indices 1 2 3 4 5 6 
#
# 1 0.011241 -0.000469 -0.004387 0.000000 0.000000 0.000000
# 2 -0.000469 0.011241 -0.004387 0.000000 0.000000 0.000000
# 3 -0.004387 -0.004387 0.012900 0.000000 0.000000 0.000000
# 4 0.000000 0.000000 0.000000 0.024833 0.000000 0.000000
# 5 0.000000 0.000000 0.000000 0.000000 0.024833 0.000000
# 6 0.000000 0.000000 0.000000 0.000000 0.000000 0.027099
#
#
# Mechanical properties :
#
#
# Convention : Reuss Voigt Hill
#
# Bulk Modulus (GPa) = 59.18316 59.85059 59.51687
# Shear Modulus (GPa) = 36.69303 37.63300 37.16302
#
# Velocity S-wave (km/s) = 4.02692 4.07818 4.05263
# Velocity P-wave (km/s) = 6.91208 6.97322 6.94272
#
# Compressibility (1/GPa) = 0.01689670
#
# Stress axis : x y z
#
# Youngs Moduli (GPa) = 88.95962 88.95962 77.51788
#
# Poissons Ratio (x) = 0.04176 0.34005
# Poissons Ratio (y) = 0.04176 0.34005
# Poissons Ratio (z) = 0.39024 0.39024
#
# Static dielectric constant tensor:
#      x y z
#    x 1.868110 0.000000 0.000000 
#    y 0.000000 1.868110 0.000000 
#    z 0.000000 0.000000 1.797410 
# 
# From -- ./inp_files/5842.got.cif
#   From: 2010.05.17/outbox.cif.g08.bks.cpg/sg138_3_cif.got.tgz:5842.got - 2010.05.20 13:08:53.
