data_PCOD9571712
_publ_section_title
;
Structure prediction by ZEFSAII (Michael W. Deem and Ramdas Pophale) SiO2 
 PCOD9571712
Probable space group: I 4/M M M
;
_chemical_formula_sum "Si O2"
_cell_formula_units_Z 116
_cell_length_a 27.888716
_cell_length_b 27.888716
_cell_length_c 8.546721
_cell_angle_alpha 90.000000
_cell_angle_beta 90.000000
_cell_angle_gamma 90.000000
_cell_volume 6647.472763
_symmetry_space_group_name_H-M "I 4/M M M"
_symmetry_group_IT_number 139
_symmetry_cell_setting 'tetragonal'
loop_
_space_group_symop_operation_xyz
x,y,z
-y,x,z
-x,-y,z
y,-x,z
x,-y,-z
-x,y,-z
y,x,-z
-y,-x,-z
-x,-y,-z
y,-x,-z
x,y,-z
-y,x,-z
-x,y,z
x,-y,z
-y,-x,z
y,x,z
1/2+x,1/2+y,1/2+z
1/2-y,1/2+x,1/2+z
1/2-x,1/2-y,1/2+z
1/2+y,1/2-x,1/2+z
1/2+x,1/2-y,1/2-z
1/2-x,1/2+y,1/2-z
1/2+y,1/2+x,1/2-z
1/2-y,1/2-x,1/2-z
1/2-x,1/2-y,1/2-z
1/2+y,1/2-x,1/2-z
1/2+x,1/2+y,1/2-z
1/2-y,1/2+x,1/2-z
1/2-x,1/2+y,1/2+z
1/2+x,1/2-y,1/2+z
1/2-y,1/2-x,1/2+z
1/2+y,1/2+x,1/2+z
loop_
_atom_site_type_symbol
_atom_site_label
_atom_site_fract_x
_atom_site_fract_y
_atom_site_fract_z
Si Si1 0.166236 0.088818 0.314704
Si Si2 0.000000 0.000000 0.708818
Si Si3 0.943784 0.263639 0.812862
Si Si4 0.631280 0.055482 0.687497
Si Si5 0.392492 0.500000 0.683281
O O1 0.162906 0.078767 0.500000
O O2 0.138242 0.138242 0.283737
O O3 0.221210 0.086839 0.262435
O O4 0.138572 0.046688 0.223078
O O5 0.000000 0.058928 0.717999
O O6 0.930824 0.316550 0.754085
O O7 0.000000 0.255650 0.769566
O O8 0.940353 0.261451 0.000000
O O9 0.632806 0.057524 0.500000
O O10 0.590474 0.090474 0.750000
O O11 0.622310 0.000000 0.734375
O O12 0.406408 0.500000 0.500000
#
# Coordination Sequence:
#
# PCOD9571712 Si02
#       5
#    32   4  32  32  16
#     4  11  23  36  51  75 105 140 183 235 289 340
#     4  12  25  36  49  70 105 148 189 234 293 360
#     4  10  20  35  57  82 108 144 189 235 280 334
#     4  10  21  37  59  88 122 157 189 226 269 321
#     4  12  22  35  50  69  98 139 185 232 284 342
#
# _framework density 17.450240999999998
#
# number of rings (size 3 to 8) (size 9 to 14) (size 15 to 20)
#    0.000    1.379    2.759    3.517    0.000    4.690 
#    0.000    2.759    0.000    0.828    0.000    0.000 
#    0.000    0.000    0.000    0.000    0.000    0.000 
#
# Total GULP energy -323571.771640 kJ/mol
# GULP energy per Si atom -5578.823649 kJ/mol
# Density = 1.741052 g / cm^3
# Si number density = 17.450241 Si / 1000 Ang^3
#
#
#
# Elastic Constant Matrix: (Units=GPa)
#
#
# Indices 1 2 3 4 5 6 
#
# 1 106.2578 72.1014 25.0185 0.0000 0.0000 0.0000
# 2 72.1014 106.2578 25.0185 0.0000 0.0000 0.0000
# 3 25.0185 25.0185 42.3058 0.0000 0.0000 0.0000
# 4 0.0000 0.0000 0.0000 -2.4239 0.0000 0.0000
# 5 0.0000 0.0000 0.0000 0.0000 -2.4239 0.0000
# 6 0.0000 0.0000 0.0000 0.0000 0.0000 21.1871
#
#
#
# Elastic Compliance Matrix: (Units=1/GPa)
#
#
# Indices 1 2 3 4 5 6 
#
# 1 0.017999 -0.011278 -0.003975 0.000000 0.000000 0.000000
# 2 -0.011278 0.017999 -0.003975 0.000000 0.000000 0.000000
# 3 -0.003975 -0.003975 0.028339 0.000000 0.000000 0.000000
# 4 0.000000 0.000000 0.000000 -0.412561 0.000000 0.000000
# 5 0.000000 0.000000 0.000000 0.000000 -0.412561 0.000000
# 6 0.000000 0.000000 0.000000 0.000000 0.000000 0.047198
#
#
# Mechanical properties :
#
#
# Convention : Reuss Voigt Hill
#
# Bulk Modulus (GPa) = 38.63661 55.45536 47.04599
# Shear Modulus (GPa) = -7.50184 12.11341 2.30579
#
# Velocity S-wave (km/s) = -2.07565 2.63757 1.15075
# Velocity P-wave (km/s) = 4.05520 6.41278 5.36509
#
# Compressibility (1/GPa) = 0.02588219
#
# Stress axis : x y z
#
# Youngs Moduli (GPa) = 55.55723 55.55723 35.28713
#
# Poissons Ratio (x) = 0.62655 0.14027
# Poissons Ratio (y) = 0.62655 0.14027
# Poissons Ratio (z) = 0.22085 0.22085
#
# Static dielectric constant tensor:
#      x y z
#    x 1.574910 0.000000 0.000000 
#    y 0.000000 1.574910 0.000000 
#    z 0.000000 0.000000 1.611330 
# 
# From -- ./inp_files/1523.got.cif
#   From: 2010.05.17/outbox.cif.g08.bks.cpg/sg139_1_cif.got.tgz:1523.got - 2010.05.20 13:14:44.
