data_PCOD9571816
_publ_section_title
;
Structure prediction by ZEFSAII (Michael W. Deem and Ramdas Pophale) SiO2 
 PCOD9571816
Probable space group: I 4/M M M
;
_chemical_formula_sum "Si O2"
_cell_formula_units_Z 160
_cell_length_a 31.707573
_cell_length_b 31.707573
_cell_length_c 8.221211
_cell_angle_alpha 90.000000
_cell_angle_beta 90.000000
_cell_angle_gamma 90.000000
_cell_volume 8265.360429
_symmetry_space_group_name_H-M "I 4/M M M"
_symmetry_group_IT_number 139
_symmetry_cell_setting 'tetragonal'
loop_
_space_group_symop_operation_xyz
x,y,z
-y,x,z
-x,-y,z
y,-x,z
x,-y,-z
-x,y,-z
y,x,-z
-y,-x,-z
-x,-y,-z
y,-x,-z
x,y,-z
-y,x,-z
-x,y,z
x,-y,z
-y,-x,z
y,x,z
1/2+x,1/2+y,1/2+z
1/2-y,1/2+x,1/2+z
1/2-x,1/2-y,1/2+z
1/2+y,1/2-x,1/2+z
1/2+x,1/2-y,1/2-z
1/2-x,1/2+y,1/2-z
1/2+y,1/2+x,1/2-z
1/2-y,1/2-x,1/2-z
1/2-x,1/2-y,1/2-z
1/2+y,1/2-x,1/2-z
1/2+x,1/2+y,1/2-z
1/2-y,1/2+x,1/2-z
1/2-x,1/2+y,1/2+z
1/2+x,1/2-y,1/2+z
1/2-y,1/2-x,1/2+z
1/2+y,1/2+x,1/2+z
loop_
_atom_site_type_symbol
_atom_site_label
_atom_site_fract_x
_atom_site_fract_y
_atom_site_fract_z
Si Si1 0.000000 0.125990 0.684027
Si Si2 0.143989 0.143989 0.690133
Si Si3 0.774516 0.904305 0.192312
Si Si4 0.500000 0.284765 0.314683
Si Si5 0.548759 0.884276 0.304535
Si Si6 0.384486 0.816883 0.192258
Si Si7 0.920442 0.079559 0.186703
O O1 0.000000 0.164709 0.807796
O O2 0.040219 0.098056 0.719034
O O3 0.000000 0.142635 0.500000
O O4 0.135428 0.135428 0.500000
O O5 0.127074 0.191256 0.726645
O O6 0.115124 0.115124 0.804022
O O7 0.774118 0.953355 0.255903
O O8 0.727769 0.886898 0.219541
O O9 0.784564 0.906686 0.000000
O O10 0.500000 0.268045 0.500000
O O11 0.550865 0.881433 0.500000
O O12 0.500000 0.885062 0.254581
O O13 0.574202 0.925799 0.250000
O O14 0.574114 0.844659 0.232729
O O15 0.345346 0.845346 0.250000
O O16 0.381956 0.810205 0.000000
O O17 0.930699 0.069302 0.000000
#
# Coordination Sequence:
#
# PCOD9571816 Si02
#       7
#    16  16  32  16  32  32  16
#     4  12  24  39  61  88 120 156 205 259 305 360
#     4  12  24  40  62  94 126 158 201 252 305 360
#     4  11  23  41  65  94 126 164 205 249 305 366
#     4  10  22  38  61  91 126 164 203 245 305 370
#     4  10  21  37  58  85 120 162 207 253 304 361
#     4  11  23  41  64  91 124 162 204 253 307 364
#     4  12  24  41  61  83 119 164 204 246 309 374
#
# _framework density 19.357897999999999
#
# number of rings (size 3 to 8) (size 9 to 14) (size 15 to 20)
#    0.000    1.000    2.000    6.900    1.400    2.800 
#    0.000    2.500    0.000    0.000    0.000    0.000 
#    0.000    0.000    0.000    0.000    0.000    0.000 
#
# Total GULP energy -446770.465221 kJ/mol
# GULP energy per Si atom -5584.630815 kJ/mol
# Density = 1.931384 g / cm^3
# Si number density = 19.357898 Si / 1000 Ang^3
#
#
#
# Elastic Constant Matrix: (Units=GPa)
#
#
# Indices 1 2 3 4 5 6 
#
# 1 119.3182 49.2087 -2.0378 0.0000 0.0000 0.0000
# 2 49.2087 119.3176 -2.0351 0.0000 0.0000 0.0000
# 3 -2.0378 -2.0351 69.0063 0.0000 0.0000 0.0000
# 4 0.0000 0.0000 0.0000 26.9604 0.0000 0.0000
# 5 0.0000 0.0000 0.0000 0.0000 26.9609 0.0000
# 6 0.0000 0.0000 0.0000 0.0000 0.0000 15.5391
#
#
#
# Elastic Compliance Matrix: (Units=1/GPa)
#
#
# Indices 1 2 3 4 5 6 
#
# 1 0.010101 -0.004163 0.000176 0.000000 0.000000 0.000000
# 2 -0.004163 0.010101 0.000175 0.000000 0.000000 0.000000
# 3 0.000176 0.000175 0.014502 0.000000 0.000000 0.000000
# 4 0.000000 0.000000 0.000000 0.037091 0.000000 0.000000
# 5 0.000000 0.000000 0.000000 0.000000 0.037091 0.000000
# 6 0.000000 0.000000 0.000000 0.000000 0.000000 0.064354
#
#
# Mechanical properties :
#
#
# Convention : Reuss Voigt Hill
#
# Bulk Modulus (GPa) = 36.92931 44.21261 40.57096
# Shear Modulus (GPa) = 26.33104 31.39251 28.86178
#
# Velocity S-wave (km/s) = 3.69212 4.03139 3.86548
# Velocity P-wave (km/s) = 6.10690 6.67523 6.39738
#
# Compressibility (1/GPa) = 0.02707876
#
# Stress axis : x y z
#
# Youngs Moduli (GPa) = 99.00284 99.00252 68.95712
#
# Poissons Ratio (x) = 0.41212 -0.01210
# Poissons Ratio (y) = 0.41212 -0.01206
# Poissons Ratio (z) = -0.01738 -0.01732
#
# Static dielectric constant tensor:
#      x y z
#    x 1.658630 0.000000 0.000000 
#    y 0.000000 1.658630 0.000000 
#    z 0.000000 0.000000 1.682580 
# 
# From -- ./inp_files/2311.got.cif
#   From: 2010.05.17/outbox.cif.g08.bks.cpg/sg139_2_cif.got.tgz:2311.got - 2010.05.20 13:14:44.
