data_PCOD9571387
_publ_section_title
;
Structure prediction by ZEFSAII (Michael W. Deem and Ramdas Pophale) SiO2 
 PCOD9571387
Probable space group: I 4/M M M
;
_chemical_formula_sum "Si O2"
_cell_formula_units_Z 160
_cell_length_a 29.558576
_cell_length_b 29.558576
_cell_length_c 10.574781
_cell_angle_alpha 90.000000
_cell_angle_beta 90.000000
_cell_angle_gamma 90.000000
_cell_volume 9239.285723
_symmetry_space_group_name_H-M "I 4/M M M"
_symmetry_group_IT_number 139
_symmetry_cell_setting 'tetragonal'
loop_
_space_group_symop_operation_xyz
x,y,z
-y,x,z
-x,-y,z
y,-x,z
x,-y,-z
-x,y,-z
y,x,-z
-y,-x,-z
-x,-y,-z
y,-x,-z
x,y,-z
-y,x,-z
-x,y,z
x,-y,z
-y,-x,z
y,x,z
1/2+x,1/2+y,1/2+z
1/2-y,1/2+x,1/2+z
1/2-x,1/2-y,1/2+z
1/2+y,1/2-x,1/2+z
1/2+x,1/2-y,1/2-z
1/2-x,1/2+y,1/2-z
1/2+y,1/2+x,1/2-z
1/2-y,1/2-x,1/2-z
1/2-x,1/2-y,1/2-z
1/2+y,1/2-x,1/2-z
1/2+x,1/2+y,1/2-z
1/2-y,1/2+x,1/2-z
1/2-x,1/2+y,1/2+z
1/2+x,1/2-y,1/2+z
1/2-y,1/2-x,1/2+z
1/2+y,1/2+x,1/2+z
loop_
_atom_site_type_symbol
_atom_site_label
_atom_site_fract_x
_atom_site_fract_y
_atom_site_fract_z
Si Si1 0.624582 0.447856 0.153298
Si Si2 0.777732 0.906526 0.351750
Si Si3 0.234085 0.310211 0.861275
Si Si4 0.892469 0.445581 0.643821
Si Si5 0.054357 0.712613 0.859361
O O1 0.625202 0.500000 0.197894
O O2 0.581975 0.418026 0.197896
O O3 0.671375 0.421737 0.181585
O O4 0.621974 0.449413 0.000000
O O5 0.770469 0.919182 0.500000
O O6 0.766372 0.853389 0.341399
O O7 0.743620 0.929522 0.254427
O O8 0.266721 0.266721 0.865539
O O9 0.198442 0.301559 0.750000
O O10 0.212351 0.315416 0.000000
O O11 0.906176 0.433457 0.500000
O O12 0.895417 0.500000 0.654430
O O13 0.922045 0.422045 0.750000
O O14 0.839757 0.432581 0.659234
O O15 0.000000 0.713765 0.861863
O O16 0.070432 0.727097 0.000000
#
# Coordination Sequence:
#
# PCOD9571387 Si02
#       5
#    32  32  32  32  32
#     4   9  17  29  47  73 104 136 170 210 257 310
#     4  10  19  31  50  75 100 128 166 209 250 296
#     4   9  18  32  48  67  95 130 164 199 241 287
#     4   9  19  35  52  71  97 129 165 206 253 304
#     4   9  19  35  51  68  95 128 158 194 242 292
#
# _framework density 17.317356
#
# number of rings (size 3 to 8) (size 9 to 14) (size 15 to 20)
#    0.000    2.800    0.000    2.400    0.000    6.800 
#    0.000    8.000    0.000    1.800    0.000    0.000 
#    0.000    0.000    0.000    4.200    0.000    4.000 
#
# Total GULP energy -445586.937823 kJ/mol
# GULP energy per Si atom -5569.836723 kJ/mol
# Density = 1.727794 g / cm^3
# Si number density = 17.317356 Si / 1000 Ang^3
#
#
#
# Elastic Constant Matrix: (Units=GPa)
#
#
# Indices 1 2 3 4 5 6 
#
# 1 64.6221 45.8529 56.9081 0.0000 0.0000 0.0000
# 2 45.8529 64.6184 56.9074 0.0000 0.0000 0.0000
# 3 56.9081 56.9074 93.0895 0.0000 0.0000 0.0000
# 4 0.0000 0.0000 0.0000 14.9201 0.0000 0.0000
# 5 0.0000 0.0000 0.0000 0.0000 14.9212 0.0000
# 6 0.0000 0.0000 0.0000 0.0000 0.0000 46.8384
#
#
#
# Elastic Compliance Matrix: (Units=1/GPa)
#
#
# Indices 1 2 3 4 5 6 
#
# 1 0.038867 -0.014416 -0.014948 0.000000 0.000000 0.000000
# 2 -0.014416 0.038870 -0.014949 0.000000 0.000000 0.000000
# 3 -0.014948 -0.014949 0.029019 0.000000 0.000000 0.000000
# 4 0.000000 0.000000 0.000000 0.067024 0.000000 0.000000
# 5 0.000000 0.000000 0.000000 0.000000 0.067019 0.000000
# 6 0.000000 0.000000 0.000000 0.000000 0.000000 0.021350
#
#
# Mechanical properties :
#
#
# Convention : Reuss Voigt Hill
#
# Bulk Modulus (GPa) = 55.15564 60.18522 57.67043
# Shear Modulus (GPa) = 14.01277 19.51338 16.76307
#
# Velocity S-wave (km/s) = 2.84769 3.36044 3.11463
# Velocity P-wave (km/s) = 6.53693 7.06304 6.80507
#
# Compressibility (1/GPa) = 0.01813051
#
# Stress axis : x y z
#
# Youngs Moduli (GPa) = 25.72905 25.72668 34.45999
#
# Poissons Ratio (x) = 0.37086 0.51510
# Poissons Ratio (y) = 0.37090 0.51516
# Poissons Ratio (z) = 0.38459 0.38460
#
# Static dielectric constant tensor:
#      x y z
#    x 1.589500 0.000000 0.000000 
#    y 0.000000 1.589500 0.000000 
#    z 0.000000 0.000000 1.606040 
# 
# From -- ./inp_files/3889.got.cif
#   From: 2010.05.17/outbox.cif.g08.bks.cpg/sg139_2_cif.got.tgz:3889.got - 2010.05.20 13:14:44.
