data_PCOD9571326
_publ_section_title
;
Structure prediction by ZEFSAII (Michael W. Deem and Ramdas Pophale) SiO2 
 PCOD9571326
Probable space group: I 4/M M M
;
_chemical_formula_sum "Si O2"
_cell_formula_units_Z 176
_cell_length_a 18.052783
_cell_length_b 18.052783
_cell_length_c 36.242960
_cell_angle_alpha 90.000000
_cell_angle_beta 90.000000
_cell_angle_gamma 90.000000
_cell_volume 11811.688452
_symmetry_space_group_name_H-M "I 4/M M M"
_symmetry_group_IT_number 139
_symmetry_cell_setting 'tetragonal'
loop_
_space_group_symop_operation_xyz
x,y,z
-y,x,z
-x,-y,z
y,-x,z
x,-y,-z
-x,y,-z
y,x,-z
-y,-x,-z
-x,-y,-z
y,-x,-z
x,y,-z
-y,x,-z
-x,y,z
x,-y,z
-y,-x,z
y,x,z
1/2+x,1/2+y,1/2+z
1/2-y,1/2+x,1/2+z
1/2-x,1/2-y,1/2+z
1/2+y,1/2-x,1/2+z
1/2+x,1/2-y,1/2-z
1/2-x,1/2+y,1/2-z
1/2+y,1/2+x,1/2-z
1/2-y,1/2-x,1/2-z
1/2-x,1/2-y,1/2-z
1/2+y,1/2-x,1/2-z
1/2+x,1/2+y,1/2-z
1/2-y,1/2+x,1/2-z
1/2-x,1/2+y,1/2+z
1/2+x,1/2-y,1/2+z
1/2-y,1/2-x,1/2+z
1/2+y,1/2+x,1/2+z
loop_
_atom_site_type_symbol
_atom_site_label
_atom_site_fract_x
_atom_site_fract_y
_atom_site_fract_z
Si Si1 0.704086 0.416224 0.455884
Si Si2 0.206634 0.913633 0.791053
Si Si3 0.144427 0.587421 0.410795
Si Si4 0.086459 0.792560 0.296205
Si Si5 0.910265 0.500000 0.042277
Si Si6 0.308889 0.813667 0.842504
O O1 0.714652 0.409691 0.500000
O O2 0.677270 0.500000 0.448486
O O3 0.644394 0.355607 0.443944
O O4 0.781942 0.406854 0.435642
O O5 0.128769 0.871232 0.796578
O O6 0.224935 0.907217 0.747510
O O7 0.266367 0.870021 0.815285
O O8 0.202834 0.000000 0.800756
O O9 0.135979 0.500000 0.400518
O O10 0.156632 0.639708 0.375778
O O11 0.073405 0.610081 0.435021
O O12 0.130626 0.869375 0.302003
O O13 0.129035 0.731044 0.319875
O O14 0.000000 0.797915 0.305411
O O15 0.000000 0.500000 0.040277
O O16 0.882884 0.500000 0.000000
O O17 0.247159 0.752842 0.854809
#
# Coordination Sequence:
#
# PCOD9571326 Si02
#       6
#    32  32  32  32  16  32
#     4   9  17  29  45  65  90 119 150 183 220 266
#     4   9  17  30  47  67  92 124 161 196 231 269
#     4  10  19  30  46  66  88 117 151 188 230 269
#     4   9  18  31  48  68  90 119 153 192 236 280
#     4   9  18  32  48  66  88 114 149 189 235 283
#     4  10  19  30  46  67  93 123 152 186 227 277
#
# _framework density 14.900494999999999
#
# number of rings (size 3 to 8) (size 9 to 14) (size 15 to 20)
#    0.000    2.636    0.000    2.182    1.273    4.909 
#    0.000    2.727    0.000    0.000    0.000    5.091 
#    0.000    0.000    0.000    0.000    0.000    8.000 
#
# Total GULP energy -490423.738479 kJ/mol
# GULP energy per Si atom -5572.997028 kJ/mol
# Density = 1.486658 g / cm^3
# Si number density = 14.900495 Si / 1000 Ang^3
#
#
#
# Elastic Constant Matrix: (Units=GPa)
#
#
# Indices 1 2 3 4 5 6 
#
# 1 113.8116 71.4327 66.1860 0.0000 0.0000 0.0000
# 2 71.4327 113.8116 66.1860 0.0000 0.0000 0.0000
# 3 66.1860 66.1860 73.4285 0.0000 0.0000 0.0000
# 4 0.0000 0.0000 0.0000 23.6588 0.0000 0.0000
# 5 0.0000 0.0000 0.0000 0.0000 23.6588 0.0000
# 6 0.0000 0.0000 0.0000 0.0000 0.0000 10.0074
#
#
#
# Elastic Compliance Matrix: (Units=1/GPa)
#
#
# Indices 1 2 3 4 5 6 
#
# 1 0.019382 -0.004214 -0.013672 0.000000 0.000000 0.000000
# 2 -0.004214 0.019382 -0.013672 0.000000 0.000000 0.000000
# 3 -0.013672 -0.013672 0.038265 0.000000 0.000000 0.000000
# 4 0.000000 0.000000 0.000000 0.042268 0.000000 0.000000
# 5 0.000000 0.000000 0.000000 0.000000 0.042268 0.000000
# 6 0.000000 0.000000 0.000000 0.000000 0.000000 0.099926
#
#
# Mechanical properties :
#
#
# Convention : Reuss Voigt Hill
#
# Bulk Modulus (GPa) = 71.87104 78.74013 75.30559
# Shear Modulus (GPa) = 15.18625 17.94814 16.56720
#
# Velocity S-wave (km/s) = 3.19592 3.47440 3.33807
# Velocity P-wave (km/s) = 7.87129 8.30987 8.09355
#
# Compressibility (1/GPa) = 0.01391381
#
# Stress axis : x y z
#
# Youngs Moduli (GPa) = 51.59351 51.59351 26.13326
#
# Poissons Ratio (x) = 0.21743 0.35729
# Poissons Ratio (y) = 0.21743 0.35729
# Poissons Ratio (z) = 0.70538 0.70538
#
# Static dielectric constant tensor:
#      x y z
#    x 1.477510 0.000000 0.000000 
#    y 0.000000 1.477510 0.000000 
#    z 0.000000 0.000000 1.484520 
# 
# From -- ./inp_files/14236.got.cif
#   From: 2010.05.17/outbox.cif.g08.bks.cpg/sg139_8_cif.got.tgz:14236.got - 2010.05.20 13:14:44.
