data_PCOD9571823
_publ_section_title
;
Structure prediction by ZEFSAII (Michael W. Deem and Ramdas Pophale) SiO2 
 PCOD9571823
Probable space group: I 4/M M M
;
_chemical_formula_sum "Si O2"
_cell_formula_units_Z 160
_cell_length_a 23.589392
_cell_length_b 23.589392
_cell_length_c 14.439842
_cell_angle_alpha 90.000000
_cell_angle_beta 90.000000
_cell_angle_gamma 90.000000
_cell_volume 8035.186031
_symmetry_space_group_name_H-M "I 4/M M M"
_symmetry_group_IT_number 139
_symmetry_cell_setting 'tetragonal'
loop_
_space_group_symop_operation_xyz
x,y,z
-y,x,z
-x,-y,z
y,-x,z
x,-y,-z
-x,y,-z
y,x,-z
-y,-x,-z
-x,-y,-z
y,-x,-z
x,y,-z
-y,x,-z
-x,y,z
x,-y,z
-y,-x,z
y,x,z
1/2+x,1/2+y,1/2+z
1/2-y,1/2+x,1/2+z
1/2-x,1/2-y,1/2+z
1/2+y,1/2-x,1/2+z
1/2+x,1/2-y,1/2-z
1/2-x,1/2+y,1/2-z
1/2+y,1/2+x,1/2-z
1/2-y,1/2-x,1/2-z
1/2-x,1/2-y,1/2-z
1/2+y,1/2-x,1/2-z
1/2+x,1/2+y,1/2-z
1/2-y,1/2+x,1/2-z
1/2-x,1/2+y,1/2+z
1/2+x,1/2-y,1/2+z
1/2-y,1/2-x,1/2+z
1/2+y,1/2+x,1/2+z
loop_
_atom_site_type_symbol
_atom_site_label
_atom_site_fract_x
_atom_site_fract_y
_atom_site_fract_z
Si Si1 0.173188 0.173188 0.396797
Si Si2 0.811741 0.500000 0.890875
Si Si3 0.347535 0.652466 0.301789
Si Si4 0.564996 0.435005 0.611485
Si Si5 0.271214 0.875817 0.891722
Si Si6 0.000000 0.406986 0.736183
Si Si7 0.299098 0.873541 0.391478
Si Si8 0.000000 0.315027 0.896913
O O1 0.154866 0.154866 0.500000
O O2 0.144998 0.144998 0.308036
O O3 0.159341 0.239665 0.388413
O O4 0.877849 0.500000 0.864143
O O5 0.792475 0.437829 0.852927
O O6 0.798665 0.500000 0.000000
O O7 0.390134 0.609867 0.351948
O O8 0.282979 0.640916 0.332313
O O9 0.577943 0.500000 0.639803
O O10 0.566364 0.433637 0.500000
O O11 0.329563 0.846633 0.856883
O O12 0.278704 0.943119 0.890504
O O13 0.262718 0.858225 0.000000
O O14 0.945515 0.445515 0.750000
O O15 0.000000 0.359442 0.814524
O O16 0.314094 0.882259 0.500000
O O17 0.000000 0.342337 0.000000
#
# Coordination Sequence:
#
# PCOD9571823 Si02
#       8
#    16  16  16  16  32  16  32  16
#     4  10  23  42  60  87 121 159 204 257 309 360
#     4  10  21  39  65  88 114 162 212 260 309 371
#     4  12  24  36  63  96 127 165 207 248 310 379
#     4   9  20  41  68  96 130 167 199 238 293 370
#     4  10  21  37  59  91 126 160 200 254 315 383
#     4  11  24  38  56  84 116 155 209 265 309 369
#     4   9  19  38  61  85 119 159 207 258 311 372
#     4  10  23  41  59  84 125 165 199 254 321 370
#
# _framework density 19.912420000000001
#
# number of rings (size 3 to 8) (size 9 to 14) (size 15 to 20)
#    0.000    2.000    0.000    3.000    4.200    5.600 
#    1.800    1.000    0.000    0.000    0.000    0.700 
#    0.000    0.000    0.000    0.000    0.000    0.000 
#
# Total GULP energy -446347.716362 kJ/mol
# GULP energy per Si atom -5579.346455 kJ/mol
# Density = 1.986710 g / cm^3
# Si number density = 19.912420 Si / 1000 Ang^3
#
#
#
# Elastic Constant Matrix: (Units=GPa)
#
#
# Indices 1 2 3 4 5 6 
#
# 1 94.6962 85.4985 18.7822 0.0000 0.0000 0.0000
# 2 85.4985 94.6963 18.7822 0.0000 0.0000 0.0000
# 3 18.7822 18.7822 87.2346 0.0000 0.0000 0.0000
# 4 0.0000 0.0000 0.0000 11.6870 0.0000 0.0000
# 5 0.0000 0.0000 0.0000 0.0000 11.6871 0.0000
# 6 0.0000 0.0000 0.0000 0.0000 0.0000 63.2738
#
#
#
# Elastic Compliance Matrix: (Units=1/GPa)
#
#
# Indices 1 2 3 4 5 6 
#
# 1 0.057266 -0.051456 -0.001251 0.000000 0.000000 0.000000
# 2 -0.051456 0.057266 -0.001251 0.000000 0.000000 0.000000
# 3 -0.001251 -0.001251 0.012002 0.000000 0.000000 0.000000
# 4 0.000000 0.000000 0.000000 0.085565 0.000000 0.000000
# 5 0.000000 0.000000 0.000000 0.000000 0.085564 0.000000
# 6 0.000000 0.000000 0.000000 0.000000 0.000000 0.015804
#
#
# Mechanical properties :
#
#
# Convention : Reuss Voigt Hill
#
# Bulk Modulus (GPa) = 53.70944 58.08367 55.89655
# Shear Modulus (GPa) = 11.69345 27.56721 19.63033
#
# Velocity S-wave (km/s) = 2.42594 3.72482 3.14320
# Velocity P-wave (km/s) = 5.90579 6.90883 6.42691
#
# Compressibility (1/GPa) = 0.01861870
#
# Stress axis : x y z
#
# Youngs Moduli (GPa) = 17.46234 17.46236 83.31912
#
# Poissons Ratio (x) = 0.89854 0.10423
# Poissons Ratio (y) = 0.89854 0.10423
# Poissons Ratio (z) = 0.02185 0.02185
#
# Static dielectric constant tensor:
#      x y z
#    x 1.691510 0.000000 0.000000 
#    y 0.000000 1.691510 0.000000 
#    z 0.000000 0.000000 1.755420 
# 
# From -- ./inp_files/6069.got.cif
#   From: 2010.05.17/outbox.cif.g08.bks.cpg/sg139_4_cif.got.tgz:6069.got - 2010.05.20 13:14:44.
