data_PCOD9571105
_publ_section_title
;
Structure prediction by ZEFSAII (Michael W. Deem and Ramdas Pophale) SiO2 
 PCOD9571105
Probable space group: P 42/N C M
;
_chemical_formula_sum "Si O2"
_cell_formula_units_Z 48
_cell_length_a 11.874461
_cell_length_b 11.874461
_cell_length_c 14.516727
_cell_angle_alpha 90.000000
_cell_angle_beta 90.000000
_cell_angle_gamma 90.000000
_cell_volume 2046.899503
_symmetry_space_group_name_H-M "P 42/N C M"
_symmetry_group_IT_number 138
_space_group.IT_coordinate_system_code '2'
_symmetry_cell_setting 'tetragonal'
loop_
_space_group_symop_operation_xyz
x,y,z
1/2-y,x,1/2+z
1/2-x,1/2-y,z
y,1/2-x,1/2+z
1/2+x,-y,1/2-z
-x,1/2+y,1/2-z
1/2+y,1/2+x,-z
-y,-x,-z
-x,-y,-z
1/2+y,-x,1/2-z
1/2+x,1/2+y,-z
-y,1/2+x,1/2-z
1/2-x,y,1/2+z
x,1/2-y,1/2+z
1/2-y,1/2-x,z
y,x,z
loop_
_atom_site_type_symbol
_atom_site_label
_atom_site_fract_x
_atom_site_fract_y
_atom_site_fract_z
Si Si1 0.117418 0.705833 0.380584
Si Si2 0.192632 0.489452 0.291063
Si Si3 0.008730 0.177292 0.471930
O O1 0.250000 0.750000 0.385914
O O2 0.115678 0.581033 0.342001
O O3 0.049412 0.777212 0.304418
O O4 0.046156 0.719995 0.473325
O O5 0.295594 0.482186 0.363850
O O6 0.127277 0.372724 0.279809
O O7 0.918637 0.081364 0.500000
O O8 0.129147 0.129147 0.502945
#
# Coordination Sequence:
#
# PCOD9571105 Si02
#       3
#    16  16  16
#     4  12  22  43  72  99 134 181 237 286 335 411
#     4  12  25  42  70 106 138 178 232 289 347 411
#     4  11  24  42  69 102 139 181 227 282 345 409
#
# _framework density 23.450102999999999
#
# number of rings (size 3 to 8) (size 9 to 14) (size 15 to 20)
#    0.000    0.333    6.667    2.000    0.000    7.333 
#    0.000    0.000    0.000    6.000    0.000    0.000 
#    0.000    0.000    0.000    0.000    0.000    0.000 
#
# Total GULP energy -268001.083853 kJ/mol
# GULP energy per Si atom -5583.355914 kJ/mol
# Density = 2.339673 g / cm^3
# Si number density = 23.450103 Si / 1000 Ang^3
#
#
#
# Elastic Constant Matrix: (Units=GPa)
#
#
# Indices 1 2 3 4 5 6 
#
# 1 45.3770 58.6040 26.9031 0.0000 0.0000 0.0000
# 2 58.6040 45.3746 26.9024 0.0000 0.0000 0.0000
# 3 26.9031 26.9024 134.6791 0.0000 0.0000 0.0000
# 4 0.0000 0.0000 0.0000 9.4086 0.0000 0.0000
# 5 0.0000 0.0000 0.0000 0.0000 9.4092 0.0000
# 6 0.0000 0.0000 0.0000 0.0000 0.0000 60.1370
#
#
#
# Elastic Compliance Matrix: (Units=1/GPa)
#
#
# Indices 1 2 3 4 5 6 
#
# 1 -0.032434 0.043161 -0.002143 0.000000 0.000000 0.000000
# 2 0.043161 -0.032436 -0.002143 0.000000 0.000000 0.000000
# 3 -0.002143 -0.002143 0.008281 0.000000 0.000000 0.000000
# 4 0.000000 0.000000 0.000000 0.106286 0.000000 0.000000
# 5 0.000000 0.000000 0.000000 0.000000 0.106279 0.000000
# 6 0.000000 0.000000 0.000000 0.000000 0.000000 0.016629
#
#
# Mechanical properties :
#
#
# Convention : Reuss Voigt Hill
#
# Bulk Modulus (GPa) = 47.25297 50.02775 48.64036
# Shear Modulus (GPa) = 49.06443 23.32571 36.19507
#
# Velocity S-wave (km/s) = 4.57912 3.15730 3.93299
# Velocity P-wave (km/s) = 6.93916 5.88824 6.43519
#
# Compressibility (1/GPa) = 0.02116269
#
# Stress axis : x y z
#
# Youngs Moduli (GPa) = -30.83156 -30.82999 120.75800
#
# Poissons Ratio (x) = 1.33066 0.25873
# Poissons Ratio (y) = 1.33072 0.25874
# Poissons Ratio (z) = -0.06606 -0.06606
#
# Static dielectric constant tensor:
#      x y z
#    x 1.952360 0.000000 0.000000 
#    y 0.000000 1.952360 0.000000 
#    z 0.000000 0.000000 1.936450 
# 
# From -- ./inp_files/4720.got.cif
#   From: 2010.05.17/outbox.cif.g08.bks.cpg/sg138_3_cif.got.tgz:4720.got - 2010.05.20 13:08:53.
