data_PCOD9571725
_publ_section_title
;
Structure prediction by ZEFSAII (Michael W. Deem and Ramdas Pophale) SiO2 
 PCOD9571725
Probable space group: I 4/M M M
;
_chemical_formula_sum "Si O2"
_cell_formula_units_Z 176
_cell_length_a 19.529786
_cell_length_b 19.529786
_cell_length_c 26.904179
_cell_angle_alpha 90.000000
_cell_angle_beta 90.000000
_cell_angle_gamma 90.000000
_cell_volume 10261.591281
_symmetry_space_group_name_H-M "I 4/M M M"
_symmetry_group_IT_number 139
_symmetry_cell_setting 'tetragonal'
loop_
_space_group_symop_operation_xyz
x,y,z
-y,x,z
-x,-y,z
y,-x,z
x,-y,-z
-x,y,-z
y,x,-z
-y,-x,-z
-x,-y,-z
y,-x,-z
x,y,-z
-y,x,-z
-x,y,z
x,-y,z
-y,-x,z
y,x,z
1/2+x,1/2+y,1/2+z
1/2-y,1/2+x,1/2+z
1/2-x,1/2-y,1/2+z
1/2+y,1/2-x,1/2+z
1/2+x,1/2-y,1/2-z
1/2-x,1/2+y,1/2-z
1/2+y,1/2+x,1/2-z
1/2-y,1/2-x,1/2-z
1/2-x,1/2-y,1/2-z
1/2+y,1/2-x,1/2-z
1/2+x,1/2+y,1/2-z
1/2-y,1/2+x,1/2-z
1/2-x,1/2+y,1/2+z
1/2+x,1/2-y,1/2+z
1/2-y,1/2-x,1/2+z
1/2+y,1/2+x,1/2+z
loop_
_atom_site_type_symbol
_atom_site_label
_atom_site_fract_x
_atom_site_fract_y
_atom_site_fract_z
Si Si1 0.421300 0.812856 0.769876
Si Si2 0.313697 0.576668 0.940217
Si Si3 0.418559 0.787486 0.597455
Si Si4 0.169386 0.421868 0.112699
Si Si5 0.196797 0.082116 0.000000
Si Si6 0.805119 0.918946 0.193875
O O1 0.500000 0.830566 0.756421
O O2 0.369885 0.869885 0.750000
O O3 0.416335 0.811130 0.829198
O O4 0.406593 0.741125 0.742736
O O5 0.336947 0.500000 0.926476
O O6 0.366210 0.633791 0.922165
O O7 0.238407 0.586443 0.918719
O O8 0.310754 0.580044 0.000000
O O9 0.500000 0.799045 0.597715
O O10 0.381254 0.860422 0.599156
O O11 0.402287 0.742506 0.548718
O O12 0.401825 0.743003 0.646500
O O13 0.143089 0.500000 0.104539
O O14 0.129078 0.129078 0.000000
O O15 0.181568 0.000000 0.000000
O O16 0.871446 0.871446 0.193433
O O17 0.821551 0.000000 0.191166
#
# Coordination Sequence:
#
# PCOD9571725 Si02
#       6
#    32  32  32  32  16  32
#     4  10  20  36  55  80 110 141 179 222 267 316
#     4   9  19  35  54  78 107 139 178 222 265 312
#     4  10  21  38  56  80 111 141 180 225 268 319
#     4  10  21  36  55  80 113 147 180 219 265 322
#     4  10  22  39  59  83 111 143 182 230 278 326
#     4  10  21  37  56  79 109 142 180 227 274 324
#
# _framework density 17.151336000000001
#
# number of rings (size 3 to 8) (size 9 to 14) (size 15 to 20)
#    0.000    2.182    1.818    0.545    1.273    3.545 
#    0.000    2.727    0.000    4.909    0.000    5.091 
#    0.000    0.000    0.000    0.000    0.000    0.000 
#
# Total GULP energy -490853.860509 kJ/mol
# GULP energy per Si atom -5577.884779 kJ/mol
# Density = 1.711230 g / cm^3
# Si number density = 17.151336 Si / 1000 Ang^3
#
#
#
# Elastic Constant Matrix: (Units=GPa)
#
#
# Indices 1 2 3 4 5 6 
#
# 1 102.5210 89.3961 33.3243 0.0000 0.0000 0.0000
# 2 89.3961 102.5210 33.3243 0.0000 0.0000 0.0000
# 3 33.3243 33.3243 45.7516 0.0000 0.0000 0.0000
# 4 0.0000 0.0000 0.0000 18.5801 0.0000 0.0000
# 5 0.0000 0.0000 0.0000 0.0000 18.5801 0.0000
# 6 0.0000 0.0000 0.0000 0.0000 0.0000 73.7665
#
#
#
# Elastic Compliance Matrix: (Units=1/GPa)
#
#
# Indices 1 2 3 4 5 6 
#
# 1 0.041583 -0.034608 -0.005080 0.000000 0.000000 0.000000
# 2 -0.034608 0.041583 -0.005080 0.000000 0.000000 0.000000
# 3 -0.005080 -0.005080 0.029258 0.000000 0.000000 0.000000
# 4 0.000000 0.000000 0.000000 0.053821 0.000000 0.000000
# 5 0.000000 0.000000 0.000000 0.000000 0.053821 0.000000
# 6 0.000000 0.000000 0.000000 0.000000 0.000000 0.013556
#
#
# Mechanical properties :
#
#
# Convention : Reuss Voigt Hill
#
# Bulk Modulus (GPa) = 43.69413 62.54256 53.11835
# Shear Modulus (GPa) = 15.11542 28.50195 21.80869
#
# Velocity S-wave (km/s) = 2.97189 4.08093 3.56974
# Velocity P-wave (km/s) = 6.10795 7.66483 6.93025
#
# Compressibility (1/GPa) = 0.02288637
#
# Stress axis : x y z
#
# Youngs Moduli (GPa) = 24.04835 24.04835 34.17880
#
# Poissons Ratio (x) = 0.83227 0.17364
# Poissons Ratio (y) = 0.83227 0.17364
# Poissons Ratio (z) = 0.12217 0.12217
#
# Static dielectric constant tensor:
#      x y z
#    x 1.560920 0.000000 0.000000 
#    y 0.000000 1.560920 0.000000 
#    z 0.000000 0.000000 1.582240 
# 
# From -- ./inp_files/13087.got.cif
#   From: 2010.05.17/outbox.cif.g08.bks.cpg/sg139_7_cif.got.tgz:13087.got - 2010.05.20 13:14:44.
