data_PCOD9571806
_publ_section_title
;
Structure prediction by ZEFSAII (Michael W. Deem and Ramdas Pophale) SiO2 
 PCOD9571806
Probable space group: I 4/M M M
;
_chemical_formula_sum "Si O2"
_cell_formula_units_Z 160
_cell_length_a 21.326607
_cell_length_b 21.326607
_cell_length_c 16.334050
_cell_angle_alpha 90.000000
_cell_angle_beta 90.000000
_cell_angle_gamma 90.000000
_cell_volume 7429.120671
_symmetry_space_group_name_H-M "I 4/M M M"
_symmetry_group_IT_number 139
_symmetry_cell_setting 'tetragonal'
loop_
_space_group_symop_operation_xyz
x,y,z
-y,x,z
-x,-y,z
y,-x,z
x,-y,-z
-x,y,-z
y,x,-z
-y,-x,-z
-x,-y,-z
y,-x,-z
x,y,-z
-y,x,-z
-x,y,z
x,-y,z
-y,-x,z
y,x,z
1/2+x,1/2+y,1/2+z
1/2-y,1/2+x,1/2+z
1/2-x,1/2-y,1/2+z
1/2+y,1/2-x,1/2+z
1/2+x,1/2-y,1/2-z
1/2-x,1/2+y,1/2-z
1/2+y,1/2+x,1/2-z
1/2-y,1/2-x,1/2-z
1/2-x,1/2-y,1/2-z
1/2+y,1/2-x,1/2-z
1/2+x,1/2+y,1/2-z
1/2-y,1/2+x,1/2-z
1/2-x,1/2+y,1/2+z
1/2+x,1/2-y,1/2+z
1/2-y,1/2-x,1/2+z
1/2+y,1/2+x,1/2+z
loop_
_atom_site_type_symbol
_atom_site_label
_atom_site_fract_x
_atom_site_fract_y
_atom_site_fract_z
Si Si1 0.071963 0.826265 0.399614
Si Si2 0.068029 0.571977 0.848531
Si Si3 0.835370 0.735927 0.814765
Si Si4 0.197310 0.370833 0.093672
Si Si5 0.820459 0.073259 0.097039
O O1 0.073146 0.826618 0.500000
O O2 0.118642 0.881358 0.372721
O O3 0.097662 0.759205 0.367757
O O4 0.000000 0.835297 0.374730
O O5 0.070361 0.500000 0.877376
O O6 0.070016 0.570016 0.750000
O O7 0.129401 0.606062 0.878645
O O8 0.000000 0.599007 0.872938
O O9 0.794443 0.794443 0.785229
O O10 0.820121 0.679880 0.750000
O O11 0.803848 0.703389 0.893477
O O12 0.900814 0.764330 0.844984
O O13 0.202033 0.388028 0.000000
O O14 0.880501 0.119500 0.109383
O O15 0.833759 0.000000 0.113079
O O16 0.803587 0.078930 0.000000
#
# Coordination Sequence:
#
# PCOD9571806 Si02
#       5
#    32  32  32  32  32
#     4   9  18  32  50  73 100 131 169 214 267 327
#     4   9  19  36  55  75 103 140 180 221 266 320
#     4  10  21  37  56  79 110 150 194 237 284 341
#     4  11  21  33  53  80 110 141 176 225 284 343
#     4   9  18  34  58  89 125 163 202 247 301 363
#
# _framework density 21.536868999999999
#
# number of rings (size 3 to 8) (size 9 to 14) (size 15 to 20)
#    0.000    2.400    0.000    3.000    0.000    4.800 
#    0.000    5.000    0.000    0.000    0.000    0.000 
#    0.000    4.800    0.000    0.200    0.000    0.000 
#
# Total GULP energy -445744.037991 kJ/mol
# GULP energy per Si atom -5571.800475 kJ/mol
# Density = 2.148785 g / cm^3
# Si number density = 21.536869 Si / 1000 Ang^3
#
#
#
# Elastic Constant Matrix: (Units=GPa)
#
#
# Indices 1 2 3 4 5 6 
#
# 1 128.1167 85.2636 31.2945 0.0000 0.0000 0.0000
# 2 85.2636 128.1147 31.2937 0.0000 0.0000 0.0000
# 3 31.2945 31.2937 34.3385 0.0000 0.0000 0.0000
# 4 0.0000 0.0000 0.0000 19.2840 0.0000 0.0000
# 5 0.0000 0.0000 0.0000 0.0000 19.2828 0.0000
# 6 0.0000 0.0000 0.0000 0.0000 0.0000 35.8911
#
#
#
# Elastic Compliance Matrix: (Units=1/GPa)
#
#
# Indices 1 2 3 4 5 6 
#
# 1 0.014866 -0.008470 -0.005829 0.000000 0.000000 0.000000
# 2 -0.008470 0.014866 -0.005829 0.000000 0.000000 0.000000
# 3 -0.005829 -0.005829 0.039747 0.000000 0.000000 0.000000
# 4 0.000000 0.000000 0.000000 0.051857 0.000000 0.000000
# 5 0.000000 0.000000 0.000000 0.000000 0.051860 0.000000
# 6 0.000000 0.000000 0.000000 0.000000 0.000000 0.027862
#
#
# Mechanical properties :
#
#
# Convention : Reuss Voigt Hill
#
# Bulk Modulus (GPa) = 34.22034 65.14150 49.68092
# Shear Modulus (GPa) = 19.91596 24.40610 22.16103
#
# Velocity S-wave (km/s) = 3.04425 3.36999 3.21125
# Velocity P-wave (km/s) = 5.31792 6.74200 6.07186
#
# Compressibility (1/GPa) = 0.02922239
#
# Stress axis : x y z
#
# Youngs Moduli (GPa) = 67.26691 67.26652 25.15932
#
# Poissons Ratio (x) = 0.56974 0.14667
# Poissons Ratio (y) = 0.56974 0.14665
# Poissons Ratio (z) = 0.39213 0.39210
#
# Static dielectric constant tensor:
#      x y z
#    x 1.800570 0.000000 0.000000 
#    y 0.000000 1.800570 0.000000 
#    z 0.000000 0.000000 1.924480 
# 
# From -- ./inp_files/8382.got.cif
#   From: 2010.05.17/outbox.cif.g08.bks.cpg/sg139_5_cif.got.tgz:8382.got - 2010.05.20 13:14:44.
