data_PCOD9571226
_publ_section_title
;
Structure prediction by ZEFSAII (Michael W. Deem and Ramdas Pophale) SiO2 
 PCOD9571226
Probable space group: I 4/M M M
;
_chemical_formula_sum "Si O2"
_cell_formula_units_Z 240
_cell_length_a 22.185068
_cell_length_b 22.185068
_cell_length_c 31.770478
_cell_angle_alpha 90.000000
_cell_angle_beta 90.000000
_cell_angle_gamma 90.000000
_cell_volume 15636.706244
_symmetry_space_group_name_H-M "I 4/M M M"
_symmetry_group_IT_number 139
_symmetry_cell_setting 'tetragonal'
loop_
_space_group_symop_operation_xyz
x,y,z
-y,x,z
-x,-y,z
y,-x,z
x,-y,-z
-x,y,-z
y,x,-z
-y,-x,-z
-x,-y,-z
y,-x,-z
x,y,-z
-y,x,-z
-x,y,z
x,-y,z
-y,-x,z
y,x,z
1/2+x,1/2+y,1/2+z
1/2-y,1/2+x,1/2+z
1/2-x,1/2-y,1/2+z
1/2+y,1/2-x,1/2+z
1/2+x,1/2-y,1/2-z
1/2-x,1/2+y,1/2-z
1/2+y,1/2+x,1/2-z
1/2-y,1/2-x,1/2-z
1/2-x,1/2-y,1/2-z
1/2+y,1/2-x,1/2-z
1/2+x,1/2+y,1/2-z
1/2-y,1/2+x,1/2-z
1/2-x,1/2+y,1/2+z
1/2+x,1/2-y,1/2+z
1/2-y,1/2-x,1/2+z
1/2+y,1/2+x,1/2+z
loop_
_atom_site_type_symbol
_atom_site_label
_atom_site_fract_x
_atom_site_fract_y
_atom_site_fract_z
Si Si1 0.826485 0.072020 0.500000
Si Si2 0.783724 0.427147 0.749678
Si Si3 0.169020 0.928242 0.195662
Si Si4 0.072109 0.692433 0.344676
Si Si5 0.367247 0.068818 0.826943
Si Si6 0.236284 0.864585 0.420701
Si Si7 0.247456 0.932489 0.884200
Si Si8 0.667504 0.231192 0.546831
O O1 0.888107 0.111894 0.500000
O O2 0.789989 0.092902 0.457952
O O3 0.164209 0.000000 0.500000
O O4 0.781903 0.500000 0.750321
O O5 0.722480 0.407202 0.726797
O O6 0.787174 0.407346 0.797871
O O7 0.840180 0.414118 0.718967
O O8 0.109174 0.890827 0.203110
O O9 0.194311 0.917830 0.148580
O O10 0.161051 0.000000 0.200817
O O11 0.090849 0.621658 0.344999
O O12 0.101764 0.733764 0.380877
O O13 0.000000 0.697333 0.347804
O O14 0.308053 0.066633 0.856183
O O15 0.392253 0.000000 0.825261
O O16 0.182090 0.817911 0.408975
O O17 0.289897 0.824256 0.440116
O O18 0.256702 0.884453 0.920152
O O19 0.237570 0.000000 0.900690
O O20 0.643569 0.220910 0.500000
O O21 0.711424 0.288577 0.546369
#
# Coordination Sequence:
#
# PCOD9571226 Si02
#       8
#    16  32  32  32  32  32  32  32
#     4  10  20  37  58  78 101 127 159 199 248 302
#     4   8  17  31  45  64  92 125 161 199 237 279
#     4   9  17  30  48  69  95 127 161 200 247 293
#     4  11  20  31  49  72  97 126 161 201 247 294
#     4   9  17  31  48  66  94 130 163 198 238 279
#     4  10  20  34  50  72  99 126 157 197 244 293
#     4   9  17  30  48  68  94 127 159 194 236 281
#     4  10  18  30  49  70  94 123 158 199 239 282
#
# _framework density 15.348501000000001
#
# number of rings (size 3 to 8) (size 9 to 14) (size 15 to 20)
#    0.000    2.533    2.000    2.800    0.000    1.267 
#    0.000    0.000    0.000    4.800    0.000    0.000 
#    0.000    7.467    0.000   12.400    0.000    0.000 
#
# Total GULP energy -668046.188074 kJ/mol
# GULP energy per Si atom -5567.051567 kJ/mol
# Density = 1.531357 g / cm^3
# Si number density = 15.348501 Si / 1000 Ang^3
#
#
#
# Elastic Constant Matrix: (Units=GPa)
#
#
# Indices 1 2 3 4 5 6 
#
# 1 78.5710 42.3838 51.6305 0.0000 0.0000 0.0000
# 2 42.3838 78.5708 51.6306 0.0000 0.0000 0.0000
# 3 51.6305 51.6306 110.0976 0.0000 0.0000 0.0000
# 4 0.0000 0.0000 0.0000 17.3334 0.0000 0.0000
# 5 0.0000 0.0000 0.0000 0.0000 17.3334 0.0000
# 6 0.0000 0.0000 0.0000 0.0000 0.0000 20.0515
#
#
#
# Elastic Compliance Matrix: (Units=1/GPa)
#
#
# Indices 1 2 3 4 5 6 
#
# 1 0.020711 -0.006923 -0.006466 0.000000 0.000000 0.000000
# 2 -0.006923 0.020711 -0.006466 0.000000 0.000000 0.000000
# 3 -0.006466 -0.006466 0.015147 0.000000 0.000000 0.000000
# 4 0.000000 0.000000 0.000000 0.057692 0.000000 0.000000
# 5 0.000000 0.000000 0.000000 0.000000 0.057692 0.000000
# 6 0.000000 0.000000 0.000000 0.000000 0.000000 0.049872
#
#
# Mechanical properties :
#
#
# Convention : Reuss Voigt Hill
#
# Bulk Modulus (GPa) = 59.31464 62.05880 60.68672
# Shear Modulus (GPa) = 18.71584 19.04996 18.88290
#
# Velocity S-wave (km/s) = 3.49577 3.52683 3.51134
# Velocity P-wave (km/s) = 7.41775 7.55683 7.48761
#
# Compressibility (1/GPa) = 0.01685925
#
# Stress axis : x y z
#
# Youngs Moduli (GPa) = 48.28431 48.28393 66.01976
#
# Poissons Ratio (x) = 0.33429 0.42685
# Poissons Ratio (y) = 0.33429 0.42686
# Poissons Ratio (z) = 0.31219 0.31219
#
# Static dielectric constant tensor:
#      x y z
#    x 1.502770 0.000000 0.000000 
#    y 0.000000 1.502770 0.000000 
#    z 0.000000 0.000000 1.518510 
# 
# From -- ./inp_files/14686.got.cif
#   From: 2010.05.17/outbox.cif.g08.bks.cpg/sg139_8_cif.got.tgz:14686.got - 2010.05.20 13:14:44.
