data_PCOD9571798
_publ_section_title
;
Structure prediction by ZEFSAII (Michael W. Deem and Ramdas Pophale) SiO2 
 PCOD9571798
Probable space group: I 4/M M M
;
_chemical_formula_sum "Si O2"
_cell_formula_units_Z 176
_cell_length_a 24.128684
_cell_length_b 24.128684
_cell_length_c 16.719124
_cell_angle_alpha 90.000000
_cell_angle_beta 90.000000
_cell_angle_gamma 90.000000
_cell_volume 9733.763506
_symmetry_space_group_name_H-M "I 4/M M M"
_symmetry_group_IT_number 139
_symmetry_cell_setting 'tetragonal'
loop_
_space_group_symop_operation_xyz
x,y,z
-y,x,z
-x,-y,z
y,-x,z
x,-y,-z
-x,y,-z
y,x,-z
-y,-x,-z
-x,-y,-z
y,-x,-z
x,y,-z
-y,x,-z
-x,y,z
x,-y,z
-y,-x,z
y,x,z
1/2+x,1/2+y,1/2+z
1/2-y,1/2+x,1/2+z
1/2-x,1/2-y,1/2+z
1/2+y,1/2-x,1/2+z
1/2+x,1/2-y,1/2-z
1/2-x,1/2+y,1/2-z
1/2+y,1/2+x,1/2-z
1/2-y,1/2-x,1/2-z
1/2-x,1/2-y,1/2-z
1/2+y,1/2-x,1/2-z
1/2+x,1/2+y,1/2-z
1/2-y,1/2+x,1/2-z
1/2-x,1/2+y,1/2+z
1/2+x,1/2-y,1/2+z
1/2-y,1/2-x,1/2+z
1/2+y,1/2+x,1/2+z
loop_
_atom_site_type_symbol
_atom_site_label
_atom_site_fract_x
_atom_site_fract_y
_atom_site_fract_z
Si Si1 0.435598 0.935494 0.346434
Si Si2 0.936417 0.847893 0.595198
Si Si3 0.656962 0.434403 0.500000
Si Si4 0.766628 0.856193 0.310321
Si Si5 0.656394 0.852541 0.589656
Si Si6 0.726220 0.635302 0.621271
O O1 0.500000 0.924093 0.366878
O O2 0.430423 0.930423 0.250000
O O3 0.393269 0.893793 0.387729
O O4 0.424104 0.000000 0.366777
O O5 0.933688 0.837381 0.500000
O O6 0.906659 0.906659 0.609779
O O7 0.900482 0.802588 0.640954
O O8 0.000000 0.847583 0.620218
O O9 0.650645 0.500000 0.500000
O O10 0.599150 0.400851 0.500000
O O11 0.691727 0.412330 0.423427
O O12 0.796460 0.796460 0.321767
O O13 0.705240 0.856677 0.345373
O O14 0.770550 0.870208 0.216859
O O15 0.677073 0.865598 0.500000
O O16 0.637234 0.788822 0.591077
O O17 0.692023 0.692023 0.603735
#
# Coordination Sequence:
#
# PCOD9571798 Si02
#       6
#    32  32  16  32  32  32
#     4   9  20  40  61  79 105 144 190 240 288 333
#     4   9  18  33  52  77 110 146 186 231 279 334
#     4  10  22  41  64  90 121 155 193 243 298 350
#     4  10  21  36  57  82 112 151 189 230 285 341
#     4  12  23  35  57  87 116 150 190 235 282 344
#     4  10  21  39  59  83 116 149 185 234 288 341
#
# _framework density 18.081392000000001
#
# number of rings (size 3 to 8) (size 9 to 14) (size 15 to 20)
#    0.000    2.000    0.909    3.273    0.000    6.455 
#    0.000    1.818    0.000    0.000    0.000    5.091 
#    0.000    0.000    0.000    0.000    0.000    0.000 
#
# Total GULP energy -491301.736478 kJ/mol
# GULP energy per Si atom -5582.974278 kJ/mol
# Density = 1.804024 g / cm^3
# Si number density = 18.081392 Si / 1000 Ang^3
#
#
#
# Elastic Constant Matrix: (Units=GPa)
#
#
# Indices 1 2 3 4 5 6 
#
# 1 142.8457 54.2072 52.6474 0.0000 0.0000 0.0000
# 2 54.2072 142.8456 52.6463 0.0000 0.0000 0.0000
# 3 52.6474 52.6463 73.8190 0.0000 0.0000 0.0000
# 4 0.0000 0.0000 0.0000 16.3290 0.0000 0.0000
# 5 0.0000 0.0000 0.0000 0.0000 16.3287 0.0000
# 6 0.0000 0.0000 0.0000 0.0000 0.0000 18.4324
#
#
#
# Elastic Compliance Matrix: (Units=1/GPa)
#
#
# Indices 1 2 3 4 5 6 
#
# 1 0.009741 -0.001541 -0.005848 0.000000 0.000000 0.000000
# 2 -0.001541 0.009741 -0.005848 0.000000 0.000000 0.000000
# 3 -0.005848 -0.005848 0.021888 0.000000 0.000000 0.000000
# 4 0.000000 0.000000 0.000000 0.061241 0.000000 0.000000
# 5 0.000000 0.000000 0.000000 0.000000 0.061242 0.000000
# 6 0.000000 0.000000 0.000000 0.000000 0.000000 0.054252
#
#
# Mechanical properties :
#
#
# Convention : Reuss Voigt Hill
#
# Bulk Modulus (GPa) = 67.13369 75.39023 71.26196
# Shear Modulus (GPa) = 20.03667 23.55199 21.79433
#
# Velocity S-wave (km/s) = 3.33248 3.61301 3.47558
# Velocity P-wave (km/s) = 7.21224 7.69354 7.45677
#
# Compressibility (1/GPa) = 0.01489565
#
# Stress axis : x y z
#
# Youngs Moduli (GPa) = 102.66196 102.66330 45.68756
#
# Poissons Ratio (x) = 0.15822 0.26718
# Poissons Ratio (y) = 0.15822 0.26717
# Poissons Ratio (z) = 0.60036 0.60034
#
# Static dielectric constant tensor:
#      x y z
#    x 1.596590 0.000000 0.000000 
#    y 0.000000 1.596590 0.000000 
#    z 0.000000 0.000000 1.632450 
# 
# From -- ./inp_files/6141.got.cif
#   From: 2010.05.17/outbox.cif.g08.bks.cpg/sg139_4_cif.got.tgz:6141.got - 2010.05.20 13:14:44.
