data_PCOD9571031
_publ_section_title
;
Structure prediction by ZEFSAII (Michael W. Deem and Ramdas Pophale) SiO2 
 PCOD9571031
Probable space group: P 42/N C M
;
_chemical_formula_sum "Si O2"
_cell_formula_units_Z 80
_cell_length_a 12.453823
_cell_length_b 12.453823
_cell_length_c 26.839108
_cell_angle_alpha 90.000000
_cell_angle_beta 90.000000
_cell_angle_gamma 90.000000
_cell_volume 4162.684117
_symmetry_space_group_name_H-M "P 42/N C M"
_symmetry_group_IT_number 138
_space_group.IT_coordinate_system_code '2'
_symmetry_cell_setting 'tetragonal'
loop_
_space_group_symop_operation_xyz
x,y,z
1/2-y,x,1/2+z
1/2-x,1/2-y,z
y,1/2-x,1/2+z
1/2+x,-y,1/2-z
-x,1/2+y,1/2-z
1/2+y,1/2+x,-z
-y,-x,-z
-x,-y,-z
1/2+y,-x,1/2-z
1/2+x,1/2+y,-z
-y,1/2+x,1/2-z
1/2-x,y,1/2+z
x,1/2-y,1/2+z
1/2-y,1/2-x,z
y,x,z
loop_
_atom_site_type_symbol
_atom_site_label
_atom_site_fract_x
_atom_site_fract_y
_atom_site_fract_z
Si Si1 0.457958 0.637150 0.051279
Si Si2 0.724272 0.418999 0.767436
Si Si3 0.661326 0.661326 0.764635
Si Si4 0.878459 0.049957 0.554973
Si Si5 0.164198 0.164198 0.114197
Si Si6 0.426489 0.734701 0.886238
O O1 0.551834 0.551834 0.061433
O O2 0.495978 0.759106 0.049063
O O3 0.367156 0.637917 0.093702
O O4 0.399888 0.600113 0.000000
O O5 0.833095 0.369943 0.744037
O O6 0.693811 0.539536 0.750046
O O7 0.741556 0.422391 0.826856
O O8 0.750000 0.750000 0.748835
O O9 0.661731 0.661731 0.825363
O O10 0.913861 0.086140 0.500000
O O11 0.887899 0.155563 0.589059
O O12 0.960733 0.960733 0.573993
O O13 0.250000 0.250000 0.097150
O O14 0.047709 0.203273 0.097541
#
# Coordination Sequence:
#
# PCOD9571031 Si02
#       6
#    16  16   8  16   8  16
#     4  11  23  40  63  91 124 166 209 245 306 376
#     4  10  24  41  62  94 122 164 217 266 314 374
#     4   9  20  40  66  88 124 160 199 267 327 374
#     4  11  24  40  62  95 127 160 204 255 312 372
#     4   9  18  36  61  93 119 153 204 251 306 360
#     4  11  21  40  64  89 122 163 205 254 313 371
#
# _framework density 19.218368999999999
#
# number of rings (size 3 to 8) (size 9 to 14) (size 15 to 20)
#    0.000    1.600    3.000    1.200    7.000    1.200 
#    0.000    0.000    0.000    0.000    0.000    0.000 
#    0.000    0.000    0.000    0.000    0.000    0.000 
#
# Total GULP energy -446622.805511 kJ/mol
# GULP energy per Si atom -5582.785069 kJ/mol
# Density = 1.917463 g / cm^3
# Si number density = 19.218369 Si / 1000 Ang^3
#
#
#
# Elastic Constant Matrix: (Units=GPa)
#
#
# Indices 1 2 3 4 5 6 
#
# 1 129.0215 94.2000 19.4924 0.0000 0.0000 0.0000
# 2 94.2000 129.0224 19.4907 0.0000 0.0000 0.0000
# 3 19.4924 19.4907 46.8806 0.0000 0.0000 0.0000
# 4 0.0000 0.0000 0.0000 18.4794 0.0000 0.0000
# 5 0.0000 0.0000 0.0000 0.0000 18.4810 0.0000
# 6 0.0000 0.0000 0.0000 0.0000 0.0000 16.9335
#
#
#
# Elastic Compliance Matrix: (Units=1/GPa)
#
#
# Indices 1 2 3 4 5 6 
#
# 1 0.016774 -0.011943 -0.002009 0.000000 0.000000 0.000000
# 2 -0.011943 0.016774 -0.002008 0.000000 0.000000 0.000000
# 3 -0.002009 -0.002008 0.023001 0.000000 0.000000 0.000000
# 4 0.000000 0.000000 0.000000 0.054114 0.000000 0.000000
# 5 0.000000 0.000000 0.000000 0.000000 0.054110 0.000000
# 6 0.000000 0.000000 0.000000 0.000000 0.000000 0.059055
#
#
# Mechanical properties :
#
#
# Convention : Reuss Voigt Hill
#
# Bulk Modulus (GPa) = 40.60353 63.47673 52.04013
# Shear Modulus (GPa) = 18.94245 22.22822 20.58533
#
# Velocity S-wave (km/s) = 3.14290 3.40459 3.27636
# Velocity P-wave (km/s) = 5.86036 6.96821 6.43815
#
# Compressibility (1/GPa) = 0.02462840
#
# Stress axis : x y z
#
# Youngs Moduli (GPa) = 59.61533 59.61648 43.47660
#
# Poissons Ratio (x) = 0.71203 0.08734
# Poissons Ratio (y) = 0.71201 0.08729
# Poissons Ratio (z) = 0.11977 0.11970
#
# Static dielectric constant tensor:
#      x y z
#    x 1.682690 0.000000 0.000000 
#    y 0.000000 1.682690 0.000000 
#    z 0.000000 0.000000 1.659050 
# 
# From -- ./inp_files/7979.got.cif
#   From: 2010.05.17/outbox.cif.g08.bks.cpg/sg138_4_cif.got.tgz:7979.got - 2010.05.20 13:08:53.
