data_PCOD9571364
_publ_section_title
;
Structure prediction by ZEFSAII (Michael W. Deem and Ramdas Pophale) SiO2 
 PCOD9571364
Probable space group: I 4/M M M
;
_chemical_formula_sum "Si O2"
_cell_formula_units_Z 144
_cell_length_a 19.794603
_cell_length_b 19.794603
_cell_length_c 21.058664
_cell_angle_alpha 90.000000
_cell_angle_beta 90.000000
_cell_angle_gamma 90.000000
_cell_volume 8251.338565
_symmetry_space_group_name_H-M "I 4/M M M"
_symmetry_group_IT_number 139
_symmetry_cell_setting 'tetragonal'
loop_
_space_group_symop_operation_xyz
x,y,z
-y,x,z
-x,-y,z
y,-x,z
x,-y,-z
-x,y,-z
y,x,-z
-y,-x,-z
-x,-y,-z
y,-x,-z
x,y,-z
-y,x,-z
-x,y,z
x,-y,z
-y,-x,z
y,x,z
1/2+x,1/2+y,1/2+z
1/2-y,1/2+x,1/2+z
1/2-x,1/2-y,1/2+z
1/2+y,1/2-x,1/2+z
1/2+x,1/2-y,1/2-z
1/2-x,1/2+y,1/2-z
1/2+y,1/2+x,1/2-z
1/2-y,1/2-x,1/2-z
1/2-x,1/2-y,1/2-z
1/2+y,1/2-x,1/2-z
1/2+x,1/2+y,1/2-z
1/2-y,1/2+x,1/2-z
1/2-x,1/2+y,1/2+z
1/2+x,1/2-y,1/2+z
1/2-y,1/2-x,1/2+z
1/2+y,1/2+x,1/2+z
loop_
_atom_site_type_symbol
_atom_site_label
_atom_site_fract_x
_atom_site_fract_y
_atom_site_fract_z
Si Si1 0.921151 0.809154 0.322419
Si Si2 0.921059 0.190798 0.826405
Si Si3 0.422453 0.922453 0.750000
Si Si4 0.420823 0.805133 0.570936
Si Si5 0.664651 0.078713 0.376155
O O1 0.870535 0.870535 0.335258
O O2 0.913234 0.789550 0.247780
O O3 0.906906 0.743534 0.364873
O O4 0.000000 0.828009 0.330774
O O5 0.872517 0.127484 0.837961
O O6 0.904225 0.251421 0.874176
O O7 0.000000 0.173689 0.836014
O O8 0.500000 0.914525 0.727301
O O9 0.372286 0.912536 0.691923
O O10 0.413417 0.776008 0.500000
O O11 0.500000 0.824002 0.578791
O O12 0.373220 0.869753 0.578380
O O13 0.657013 0.000000 0.394411
#
# Coordination Sequence:
#
# PCOD9571364 Si02
#       5
#    32  32  16  32  32
#     4   9  18  32  51  75 100 125 154 193 242 293
#     4   9  18  33  52  74 100 129 162 199 239 284
#     4   9  16  26  43  66  92 124 157 192 238 285
#     4  10  21  35  49  67  96 134 170 203 241 282
#     4  10  19  31  48  70  96 124 159 200 238 284
#
# _framework density 17.451715
#
# number of rings (size 3 to 8) (size 9 to 14) (size 15 to 20)
#    0.000    2.556    0.000    2.000    0.000    7.111 
#    0.000    6.111    0.000    0.000    0.000    3.111 
#    0.000    0.000    0.000    4.889    0.000    0.222 
#
# Total GULP energy -401549.360463 kJ/mol
# GULP energy per Si atom -5577.074451 kJ/mol
# Density = 1.741199 g / cm^3
# Si number density = 17.451715 Si / 1000 Ang^3
#
#
#
# Elastic Constant Matrix: (Units=GPa)
#
#
# Indices 1 2 3 4 5 6 
#
# 1 62.9161 48.4500 20.9615 0.0000 0.0000 0.0000
# 2 48.4500 62.9161 20.9615 0.0000 0.0000 0.0000
# 3 20.9615 20.9615 17.9957 0.0000 0.0000 0.0000
# 4 0.0000 0.0000 0.0000 16.6473 0.0000 0.0000
# 5 0.0000 0.0000 0.0000 0.0000 16.6473 0.0000
# 6 0.0000 0.0000 0.0000 0.0000 0.0000 31.5287
#
#
#
# Elastic Compliance Matrix: (Units=1/GPa)
#
#
# Indices 1 2 3 4 5 6 
#
# 1 0.042559 -0.026568 -0.018627 0.000000 0.000000 0.000000
# 2 -0.026568 0.042559 -0.018627 0.000000 0.000000 0.000000
# 3 -0.018627 -0.018627 0.098962 0.000000 0.000000 0.000000
# 4 0.000000 0.000000 0.000000 0.060070 0.000000 0.000000
# 5 0.000000 0.000000 0.000000 0.000000 0.060070 0.000000
# 6 0.000000 0.000000 0.000000 0.000000 0.000000 0.031717
#
#
# Mechanical properties :
#
#
# Convention : Reuss Voigt Hill
#
# Bulk Modulus (GPa) = 17.71868 36.06376 26.89122
# Shear Modulus (GPa) = 10.36500 16.52831 13.44666
#
# Velocity S-wave (km/s) = 2.43970 3.08082 2.77881
# Velocity P-wave (km/s) = 4.25573 5.77624 5.07327
#
# Compressibility (1/GPa) = 0.05643762
#
# Stress axis : x y z
#
# Youngs Moduli (GPa) = 23.49676 23.49676 10.10486
#
# Poissons Ratio (x) = 0.62426 0.18822
# Poissons Ratio (y) = 0.62426 0.18822
# Poissons Ratio (z) = 0.43767 0.43767
#
# Static dielectric constant tensor:
#      x y z
#    x 1.582730 0.000000 0.000000 
#    y 0.000000 1.582730 0.000000 
#    z 0.000000 0.000000 1.592580 
# 
# From -- ./inp_files/11458.got.cif
#   From: 2010.05.17/outbox.cif.g08.bks.cpg/sg139_6_cif.got.tgz:11458.got - 2010.05.20 13:14:44.
