data_PCOD9571625
_publ_section_title
;
Structure prediction by ZEFSAII (Michael W. Deem and Ramdas Pophale) SiO2 
 PCOD9571625
Probable space group: I 4/M M M
;
_chemical_formula_sum "Si O2"
_cell_formula_units_Z 96
_cell_length_a 19.523961
_cell_length_b 19.523961
_cell_length_c 13.737454
_cell_angle_alpha 90.000000
_cell_angle_beta 90.000000
_cell_angle_gamma 90.000000
_cell_volume 5236.512133
_symmetry_space_group_name_H-M "I 4/M M M"
_symmetry_group_IT_number 139
_symmetry_cell_setting 'tetragonal'
loop_
_space_group_symop_operation_xyz
x,y,z
-y,x,z
-x,-y,z
y,-x,z
x,-y,-z
-x,y,-z
y,x,-z
-y,-x,-z
-x,-y,-z
y,-x,-z
x,y,-z
-y,x,-z
-x,y,z
x,-y,z
-y,-x,z
y,x,z
1/2+x,1/2+y,1/2+z
1/2-y,1/2+x,1/2+z
1/2-x,1/2-y,1/2+z
1/2+y,1/2-x,1/2+z
1/2+x,1/2-y,1/2-z
1/2-x,1/2+y,1/2-z
1/2+y,1/2+x,1/2-z
1/2-y,1/2-x,1/2-z
1/2-x,1/2-y,1/2-z
1/2+y,1/2-x,1/2-z
1/2+x,1/2+y,1/2-z
1/2-y,1/2+x,1/2-z
1/2-x,1/2+y,1/2+z
1/2+x,1/2-y,1/2+z
1/2-y,1/2-x,1/2+z
1/2+y,1/2+x,1/2+z
loop_
_atom_site_type_symbol
_atom_site_label
_atom_site_fract_x
_atom_site_fract_y
_atom_site_fract_z
Si Si1 0.180791 0.074224 0.285034
Si Si2 0.774532 0.925286 0.500000
Si Si3 0.920262 0.326207 0.814469
Si Si4 0.294128 0.176190 0.000000
O O1 0.135256 0.135256 0.245565
O O2 0.182062 0.076121 0.401740
O O3 0.258972 0.080172 0.253009
O O4 0.154659 0.000000 0.252538
O O5 0.726843 0.859216 0.500000
O O6 0.737397 0.000000 0.500000
O O7 0.886451 0.386451 0.750000
O O8 0.872815 0.304806 0.906070
O O9 0.000000 0.340476 0.841012
O O10 0.225173 0.225173 0.000000
#
# Coordination Sequence:
#
# PCOD9571625 Si02
#       4
#    32  16  32  16
#     4  10  20  35  55  81 115 150 189 237 290 352
#     4  10  20  33  53  85 118 145 181 232 290 350
#     4  11  24  40  59  86 120 156 200 251 302 357
#     4  12  23  37  64  90 117 156 202 249 305 362
#
# _framework density 18.332812000000001
#
# number of rings (size 3 to 8) (size 9 to 14) (size 15 to 20)
#    0.000    1.333    3.333    3.000    0.000    2.000 
#    0.000    0.000    0.000    6.000    0.000    0.000 
#    0.000   12.000    0.000    0.000    0.000    0.000 
#
# Total GULP energy -267475.683134 kJ/mol
# GULP energy per Si atom -5572.410065 kJ/mol
# Density = 1.829109 g / cm^3
# Si number density = 18.332812 Si / 1000 Ang^3
#
#
#
# Elastic Constant Matrix: (Units=GPa)
#
#
# Indices 1 2 3 4 5 6 
#
# 1 106.1972 78.3935 23.2891 0.0000 0.0000 0.0000
# 2 78.3935 106.1972 23.2891 0.0000 0.0000 0.0000
# 3 23.2891 23.2891 68.5727 0.0000 0.0000 0.0000
# 4 0.0000 0.0000 0.0000 16.5663 0.0000 0.0000
# 5 0.0000 0.0000 0.0000 0.0000 16.5663 0.0000
# 6 0.0000 0.0000 0.0000 0.0000 0.0000 24.5723
#
#
#
# Elastic Compliance Matrix: (Units=1/GPa)
#
#
# Indices 1 2 3 4 5 6 
#
# 1 0.020946 -0.015021 -0.002012 0.000000 0.000000 0.000000
# 2 -0.015021 0.020946 -0.002012 0.000000 0.000000 0.000000
# 3 -0.002012 -0.002012 0.015950 0.000000 0.000000 0.000000
# 4 0.000000 0.000000 0.000000 0.060364 0.000000 0.000000
# 5 0.000000 0.000000 0.000000 0.000000 0.060364 0.000000
# 6 0.000000 0.000000 0.000000 0.000000 0.000000 0.040696
#
#
# Mechanical properties :
#
#
# Convention : Reuss Voigt Hill
#
# Bulk Modulus (GPa) = 50.63056 58.99005 54.81030
# Shear Modulus (GPa) = 18.94374 21.94065 20.44220
#
# Velocity S-wave (km/s) = 3.21802 3.46323 3.34288
# Velocity P-wave (km/s) = 6.44088 6.94544 6.69791
#
# Compressibility (1/GPa) = 0.01975092
#
# Stress axis : x y z
#
# Youngs Moduli (GPa) = 47.74221 47.74221 62.69610
#
# Poissons Ratio (x) = 0.71712 0.12617
# Poissons Ratio (y) = 0.71712 0.12617
# Poissons Ratio (z) = 0.09607 0.09607
#
# Static dielectric constant tensor:
#      x y z
#    x 1.641900 0.000000 0.000000 
#    y 0.000000 1.641900 0.000000 
#    z 0.000000 0.000000 1.652430 
# 
# From -- ./inp_files/2978.got.cif
#   From: 2010.05.17/outbox.cif.g08.bks.cpg/sg139_2_cif.got.tgz:2978.got - 2010.05.20 13:14:44.
