data_PCOD9571757
_publ_section_title
;
Structure prediction by ZEFSAII (Michael W. Deem and Ramdas Pophale) SiO2 
 PCOD9571757
Probable space group: I 4/M M M
;
_chemical_formula_sum "Si O2"
_cell_formula_units_Z 176
_cell_length_a 24.874914
_cell_length_b 24.874914
_cell_length_c 14.317317
_cell_angle_alpha 90.000000
_cell_angle_beta 90.000000
_cell_angle_gamma 90.000000
_cell_volume 8859.002345
_symmetry_space_group_name_H-M "I 4/M M M"
_symmetry_group_IT_number 139
_symmetry_cell_setting 'tetragonal'
loop_
_space_group_symop_operation_xyz
x,y,z
-y,x,z
-x,-y,z
y,-x,z
x,-y,-z
-x,y,-z
y,x,-z
-y,-x,-z
-x,-y,-z
y,-x,-z
x,y,-z
-y,x,-z
-x,y,z
x,-y,z
-y,-x,z
y,x,z
1/2+x,1/2+y,1/2+z
1/2-y,1/2+x,1/2+z
1/2-x,1/2-y,1/2+z
1/2+y,1/2-x,1/2+z
1/2+x,1/2-y,1/2-z
1/2-x,1/2+y,1/2-z
1/2+y,1/2+x,1/2-z
1/2-y,1/2-x,1/2-z
1/2-x,1/2-y,1/2-z
1/2+y,1/2-x,1/2-z
1/2+x,1/2+y,1/2-z
1/2-y,1/2+x,1/2-z
1/2-x,1/2+y,1/2+z
1/2+x,1/2-y,1/2+z
1/2-y,1/2-x,1/2+z
1/2+y,1/2+x,1/2+z
loop_
_atom_site_type_symbol
_atom_site_label
_atom_site_fract_x
_atom_site_fract_y
_atom_site_fract_z
Si Si1 0.676396 0.592067 0.000000
Si Si2 0.741627 0.349959 0.500000
Si Si3 0.149351 0.941120 0.301798
Si Si4 0.564652 0.058960 0.108733
Si Si5 0.439215 0.748693 0.337095
Si Si6 0.170050 0.394449 0.809211
Si Si7 0.282937 0.851219 0.500000
O O1 0.679570 0.561784 0.098030
O O2 0.719605 0.639594 0.000000
O O3 0.617130 0.617130 0.000000
O O4 0.686912 0.313089 0.500000
O O5 0.747745 0.390951 0.587880
O O6 0.791961 0.308567 0.500000
O O7 0.106339 0.893662 0.295386
O O8 0.193574 0.935786 0.221336
O O9 0.123566 0.000000 0.294636
O O10 0.500000 0.059075 0.109975
O O11 0.584439 0.111375 0.161002
O O12 0.582117 0.000000 0.145383
O O13 0.581828 0.062263 0.000000
O O14 0.500000 0.753278 0.376990
O O15 0.431187 0.795999 0.260734
O O16 0.159659 0.340342 0.750000
O O17 0.197987 0.381296 0.906444
#
# Coordination Sequence:
#
# PCOD9571757 Si02
#       7
#    16  16  32  32  32  32  16
#     4  10  20  37  62  90 124 163 200 250 309 375
#     4  12  26  47  69  94 128 170 218 275 339 401
#     4  10  21  38  62  94 130 168 209 255 316 390
#     4   9  19  36  57  83 117 164 218 266 316 369
#     4  11  24  43  67  97 129 168 217 274 334 395
#     4  12  23  40  61  91 129 164 217 267 325 386
#     4  12  23  42  60  94 128 165 214 261 319 394
#
# _framework density 19.866796000000001
#
# number of rings (size 3 to 8) (size 9 to 14) (size 15 to 20)
#    0.000    1.273    4.545    2.455    0.000    1.636 
#    0.000    1.818    0.000    1.636    0.000    0.000 
#    0.000    6.545    0.000    0.000    0.000    0.000 
#
# Total GULP energy -490935.015093 kJ/mol
# GULP energy per Si atom -5578.806990 kJ/mol
# Density = 1.982158 g / cm^3
# Si number density = 19.866796 Si / 1000 Ang^3
#
#
#
# Elastic Constant Matrix: (Units=GPa)
#
#
# Indices 1 2 3 4 5 6 
#
# 1 99.6832 53.1437 37.4559 0.0000 0.0000 0.0000
# 2 53.1437 99.6819 37.4548 0.0000 0.0000 0.0000
# 3 37.4559 37.4548 107.7435 0.0000 0.0000 0.0000
# 4 0.0000 0.0000 0.0000 20.3773 0.0000 0.0000
# 5 0.0000 0.0000 0.0000 0.0000 20.3777 0.0000
# 6 0.0000 0.0000 0.0000 0.0000 0.0000 27.0040
#
#
#
# Elastic Compliance Matrix: (Units=1/GPa)
#
#
# Indices 1 2 3 4 5 6 
#
# 1 0.014687 -0.006800 -0.002742 0.000000 0.000000 0.000000
# 2 -0.006800 0.014687 -0.002742 0.000000 0.000000 0.000000
# 3 -0.002742 -0.002742 0.011188 0.000000 0.000000 0.000000
# 4 0.000000 0.000000 0.000000 0.049074 0.000000 0.000000
# 5 0.000000 0.000000 0.000000 0.000000 0.049073 0.000000
# 6 0.000000 0.000000 0.000000 0.000000 0.000000 0.037031
#
#
# Mechanical properties :
#
#
# Convention : Reuss Voigt Hill
#
# Bulk Modulus (GPa) = 62.52053 62.57971 62.55012
# Shear Modulus (GPa) = 24.31424 25.48876 24.90150
#
# Velocity S-wave (km/s) = 3.50217 3.58576 3.54421
# Velocity P-wave (km/s) = 6.92039 6.97937 6.94994
#
# Compressibility (1/GPa) = 0.01599474
#
# Stress axis : x y z
#
# Youngs Moduli (GPa) = 68.08575 68.08536 89.38406
#
# Poissons Ratio (x) = 0.46298 0.24509
# Poissons Ratio (y) = 0.46298 0.24508
# Poissons Ratio (z) = 0.18669 0.18668
#
# Static dielectric constant tensor:
#      x y z
#    x 1.714120 0.000000 0.000000 
#    y 0.000000 1.714120 0.000000 
#    z 0.000000 0.000000 1.764240 
# 
# From -- ./inp_files/6172.got.cif
#   From: 2010.05.17/outbox.cif.g08.bks.cpg/sg139_4_cif.got.tgz:6172.got - 2010.05.20 13:14:44.
