data_PCOD9571066
_publ_section_title
;
Structure prediction by ZEFSAII (Michael W. Deem and Ramdas Pophale) SiO2 
 PCOD9571066
Probable space group: P 42/N C M
;
_chemical_formula_sum "Si O2"
_cell_formula_units_Z 72
_cell_length_a 14.331766
_cell_length_b 14.331766
_cell_length_c 18.494073
_cell_angle_alpha 90.000000
_cell_angle_beta 90.000000
_cell_angle_gamma 90.000000
_cell_volume 3798.673656
_symmetry_space_group_name_H-M "P 42/N C M"
_symmetry_group_IT_number 138
_space_group.IT_coordinate_system_code '2'
_symmetry_cell_setting 'tetragonal'
loop_
_space_group_symop_operation_xyz
x,y,z
1/2-y,x,1/2+z
1/2-x,1/2-y,z
y,1/2-x,1/2+z
1/2+x,-y,1/2-z
-x,1/2+y,1/2-z
1/2+y,1/2+x,-z
-y,-x,-z
-x,-y,-z
1/2+y,-x,1/2-z
1/2+x,1/2+y,-z
-y,1/2+x,1/2-z
1/2-x,y,1/2+z
x,1/2-y,1/2+z
1/2-y,1/2-x,z
y,x,z
loop_
_atom_site_type_symbol
_atom_site_label
_atom_site_fract_x
_atom_site_fract_y
_atom_site_fract_z
Si Si1 0.521054 0.978947 0.416583
Si Si2 0.379728 0.120273 0.342670
Si Si3 0.456111 0.199067 0.921411
Si Si4 0.259431 0.480283 0.088675
Si Si5 0.672542 0.175559 0.912291
Si Si6 0.323897 0.323897 0.690444
O O1 0.630416 0.997630 0.405348
O O2 0.500000 0.000000 0.500000
O O3 0.455173 0.044828 0.369477
O O4 0.279623 0.092493 0.375216
O O5 0.373840 0.126161 0.256763
O O6 0.396795 0.103206 0.916686
O O7 0.563771 0.191821 0.895778
O O8 0.457660 0.232472 0.005373
O O9 0.204311 0.573122 0.110571
O O10 0.229687 0.396404 0.139722
O O11 0.750000 0.250000 0.886290
O O12 0.677277 0.177277 0.000000
O O13 0.250000 0.250000 0.721305
#
# Coordination Sequence:
#
# PCOD9571066 Si02
#       6
#     8   8  16  16  16   8
#     4  12  22  40  74 102 124 168 231 284 327 395
#     4  12  26  43  66  94 131 168 223 277 333 398
#     4  11  21  37  66  97 126 169 225 277 328 390
#     4  11  22  39  67  94 129 173 216 271 337 390
#     4   9  20  35  59  93 131 164 211 274 330 381
#     4  12  26  46  59  93 136 173 210 270 343 401
#
# _framework density 18.953983000000001
#
# number of rings (size 3 to 8) (size 9 to 14) (size 15 to 20)
#    0.000    1.111    4.444    2.333    4.667    1.333 
#    4.000    0.000    0.000    0.000    0.000    0.000 
#    0.000    0.000    0.000    0.000    0.000    0.000 
#
# Total GULP energy -402273.500387 kJ/mol
# GULP energy per Si atom -5587.131950 kJ/mol
# Density = 1.891084 g / cm^3
# Si number density = 18.953983 Si / 1000 Ang^3
#
#
#
# Elastic Constant Matrix: (Units=GPa)
#
#
# Indices 1 2 3 4 5 6 
#
# 1 131.9357 52.2043 25.9871 0.0000 0.0000 0.0000
# 2 52.2043 131.9357 25.9871 0.0000 0.0000 0.0000
# 3 25.9871 25.9871 64.0724 0.0000 0.0000 0.0000
# 4 0.0000 0.0000 0.0000 9.8704 0.0000 0.0000
# 5 0.0000 0.0000 0.0000 0.0000 9.8704 0.0000
# 6 0.0000 0.0000 0.0000 0.0000 0.0000 49.4668
#
#
#
# Elastic Compliance Matrix: (Units=1/GPa)
#
#
# Indices 1 2 3 4 5 6 
#
# 1 0.009337 -0.003205 -0.002487 0.000000 0.000000 0.000000
# 2 -0.003205 0.009337 -0.002487 0.000000 0.000000 0.000000
# 3 -0.002487 -0.002487 0.017625 0.000000 0.000000 0.000000
# 4 0.000000 0.000000 0.000000 0.101313 0.000000 0.000000
# 5 0.000000 0.000000 0.000000 0.000000 0.101313 0.000000
# 6 0.000000 0.000000 0.000000 0.000000 0.000000 0.020216
#
#
# Mechanical properties :
#
#
# Convention : Reuss Voigt Hill
#
# Bulk Modulus (GPa) = 50.14790 59.58897 54.86844
# Shear Modulus (GPa) = 17.72127 28.75922 23.24024
#
# Velocity S-wave (km/s) = 3.06103 3.89950 3.50543
# Velocity P-wave (km/s) = 6.24567 7.19596 6.73759
#
# Compressibility (1/GPa) = 0.01994102
#
# Stress axis : x y z
#
# Youngs Moduli (GPa) = 107.09604 107.09604 56.73741
#
# Poissons Ratio (x) = 0.34321 0.14113
# Poissons Ratio (y) = 0.34321 0.14113
# Poissons Ratio (z) = 0.26639 0.26639
#
# Static dielectric constant tensor:
#      x y z
#    x 1.827200 0.000000 0.000000 
#    y 0.000000 1.827200 0.000000 
#    z 0.000000 0.000000 1.612270 
# 
# From -- ./inp_files/5060.got.cif
#   From: 2010.05.17/outbox.cif.g08.bks.cpg/sg138_3_cif.got.tgz:5060.got - 2010.05.20 13:08:53.
