data_PCOD9571811
_publ_section_title
;
Structure prediction by ZEFSAII (Michael W. Deem and Ramdas Pophale) SiO2 
 PCOD9571811
Probable space group: I 4/M M M
;
_chemical_formula_sum "Si O2"
_cell_formula_units_Z 160
_cell_length_a 29.749249
_cell_length_b 29.749249
_cell_length_c 10.374751
_cell_angle_alpha 90.000000
_cell_angle_beta 90.000000
_cell_angle_gamma 90.000000
_cell_volume 9181.839472
_symmetry_space_group_name_H-M "I 4/M M M"
_symmetry_group_IT_number 139
_symmetry_cell_setting 'tetragonal'
loop_
_space_group_symop_operation_xyz
x,y,z
-y,x,z
-x,-y,z
y,-x,z
x,-y,-z
-x,y,-z
y,x,-z
-y,-x,-z
-x,-y,-z
y,-x,-z
x,y,-z
-y,x,-z
-x,y,z
x,-y,z
-y,-x,z
y,x,z
1/2+x,1/2+y,1/2+z
1/2-y,1/2+x,1/2+z
1/2-x,1/2-y,1/2+z
1/2+y,1/2-x,1/2+z
1/2+x,1/2-y,1/2-z
1/2-x,1/2+y,1/2-z
1/2+y,1/2+x,1/2-z
1/2-y,1/2-x,1/2-z
1/2-x,1/2-y,1/2-z
1/2+y,1/2-x,1/2-z
1/2+x,1/2+y,1/2-z
1/2-y,1/2+x,1/2-z
1/2-x,1/2+y,1/2+z
1/2+x,1/2-y,1/2+z
1/2-y,1/2-x,1/2+z
1/2+y,1/2+x,1/2+z
loop_
_atom_site_type_symbol
_atom_site_label
_atom_site_fract_x
_atom_site_fract_y
_atom_site_fract_z
Si Si1 0.852928 0.220672 0.500000
Si Si2 0.720802 0.352967 0.500000
Si Si3 0.362012 0.862012 0.250000
Si Si4 0.874710 0.949181 0.654595
Si Si5 0.051502 0.313464 0.154909
Si Si6 0.414020 0.717892 0.747776
Si Si7 0.183615 0.321266 0.000000
O O1 0.825669 0.174332 0.500000
O O2 0.883638 0.224237 0.374167
O O3 0.819235 0.262742 0.500000
O O4 0.691425 0.308576 0.500000
O O5 0.710308 0.381875 0.374000
O O6 0.772850 0.339354 0.500000
O O7 0.348497 0.912736 0.213202
O O8 0.347185 0.832670 0.127037
O O9 0.867023 0.944767 0.500000
O O10 0.911020 0.911020 0.690993
O O11 0.827055 0.942301 0.724938
O O12 0.891347 0.000000 0.677978
O O13 0.059953 0.264062 0.215848
O O14 0.000000 0.326732 0.177510
O O15 0.058600 0.310157 0.000000
#
# Coordination Sequence:
#
# PCOD9571811 Si02
#       7
#    16  16  16  32  32  32  16
#     4  12  23  34  56  84 123 166 195 239 302 345
#     4  12  23  36  56  84 121 168 209 235 282 353
#     4  12  20  40  61  89 120 160 198 242 300 352
#     4  10  21  37  57  81 111 147 191 248 308 360
#     4  11  23  41  66  92 123 160 196 244 299 351
#     4  12  21  39  57  86 118 153 201 246 293 351
#     4  12  21  38  56  82 124 161 204 246 280 339
#
# _framework density 17.425702999999999
#
# number of rings (size 3 to 8) (size 9 to 14) (size 15 to 20)
#    0.000    0.600    7.000    2.700    0.000    0.200 
#    0.000    5.500    0.000    0.300    0.000    1.400 
#    0.000    2.400    0.000    0.000    0.000    0.000 
#
# Total GULP energy -446916.667293 kJ/mol
# GULP energy per Si atom -5586.458341 kJ/mol
# Density = 1.738604 g / cm^3
# Si number density = 17.425703 Si / 1000 Ang^3
#
#
#
# Elastic Constant Matrix: (Units=GPa)
#
#
# Indices 1 2 3 4 5 6 
#
# 1 117.9855 55.4445 35.1341 0.0000 0.0000 0.0000
# 2 55.4445 117.9890 35.1347 0.0000 0.0000 0.0000
# 3 35.1341 35.1347 117.1558 0.0000 0.0000 0.0000
# 4 0.0000 0.0000 0.0000 22.7867 0.0000 0.0000
# 5 0.0000 0.0000 0.0000 0.0000 22.7899 0.0000
# 6 0.0000 0.0000 0.0000 0.0000 0.0000 17.5176
#
#
#
# Elastic Compliance Matrix: (Units=1/GPa)
#
#
# Indices 1 2 3 4 5 6 
#
# 1 0.011276 -0.004713 -0.001968 0.000000 0.000000 0.000000
# 2 -0.004713 0.011276 -0.001968 0.000000 0.000000 0.000000
# 3 -0.001968 -0.001968 0.009716 0.000000 0.000000 0.000000
# 4 0.000000 0.000000 0.000000 0.043885 0.000000 0.000000
# 5 0.000000 0.000000 0.000000 0.000000 0.043879 0.000000
# 6 0.000000 0.000000 0.000000 0.000000 0.000000 0.057085
#
#
# Mechanical properties :
#
#
# Convention : Reuss Voigt Hill
#
# Bulk Modulus (GPa) = 66.80128 67.17300 66.98714
# Shear Modulus (GPa) = 25.07430 27.77998 26.42714
#
# Velocity S-wave (km/s) = 3.79743 3.99707 3.89853
# Velocity P-wave (km/s) = 7.59246 7.74171 7.66745
#
# Compressibility (1/GPa) = 0.01496977
#
# Stress axis : x y z
#
# Youngs Moduli (GPa) = 88.68046 88.68314 102.92055
#
# Poissons Ratio (x) = 0.41795 0.20258
# Poissons Ratio (y) = 0.41793 0.20258
# Poissons Ratio (z) = 0.17456 0.17456
#
# Static dielectric constant tensor:
#      x y z
#    x 1.586600 0.000000 0.000000 
#    y 0.000000 1.586590 0.000000 
#    z 0.000000 0.000000 1.573070 
# 
# From -- ./inp_files/2289.got.cif
#   From: 2010.05.17/outbox.cif.g08.bks.cpg/sg139_2_cif.got.tgz:2289.got - 2010.05.20 13:14:44.
