data_PCOD9571510
_publ_section_title
;
Structure prediction by ZEFSAII (Michael W. Deem and Ramdas Pophale) SiO2 
 PCOD9571510
Probable space group: I 4/M M M
;
_chemical_formula_sum "Si O2"
_cell_formula_units_Z 160
_cell_length_a 22.259161
_cell_length_b 22.259161
_cell_length_c 19.354965
_cell_angle_alpha 90.000000
_cell_angle_beta 90.000000
_cell_angle_gamma 90.000000
_cell_volume 9589.809317
_symmetry_space_group_name_H-M "I 4/M M M"
_symmetry_group_IT_number 139
_symmetry_cell_setting 'tetragonal'
loop_
_space_group_symop_operation_xyz
x,y,z
-y,x,z
-x,-y,z
y,-x,z
x,-y,-z
-x,y,-z
y,x,-z
-y,-x,-z
-x,-y,-z
y,-x,-z
x,y,-z
-y,x,-z
-x,y,z
x,-y,z
-y,-x,z
y,x,z
1/2+x,1/2+y,1/2+z
1/2-y,1/2+x,1/2+z
1/2-x,1/2-y,1/2+z
1/2+y,1/2-x,1/2+z
1/2+x,1/2-y,1/2-z
1/2-x,1/2+y,1/2-z
1/2+y,1/2+x,1/2-z
1/2-y,1/2-x,1/2-z
1/2-x,1/2-y,1/2-z
1/2+y,1/2-x,1/2-z
1/2+x,1/2+y,1/2-z
1/2-y,1/2+x,1/2-z
1/2-x,1/2+y,1/2+z
1/2+x,1/2-y,1/2+z
1/2-y,1/2-x,1/2+z
1/2+y,1/2+x,1/2+z
loop_
_atom_site_type_symbol
_atom_site_label
_atom_site_fract_x
_atom_site_fract_y
_atom_site_fract_z
Si Si1 0.930524 0.829120 0.719614
Si Si2 0.885234 0.214532 0.422370
Si Si3 0.740780 0.842463 0.204605
Si Si4 0.427928 0.930327 0.328537
Si Si5 0.842938 0.351656 0.419433
O O1 0.887716 0.887716 0.729882
O O2 0.925726 0.810611 0.638939
O O3 0.898896 0.773605 0.759853
O O4 0.000000 0.838257 0.738794
O O5 0.909394 0.205703 0.500000
O O6 0.823191 0.176810 0.417329
O O7 0.869269 0.284176 0.412989
O O8 0.791075 0.791075 0.200226
O O9 0.687144 0.812857 0.250000
O O10 0.715017 0.856162 0.129298
O O11 0.500000 0.926304 0.333116
O O12 0.411680 0.911680 0.250000
O O13 0.396602 0.890714 0.385951
O O14 0.410945 0.000000 0.336717
O O15 0.831649 0.363158 0.500000
#
# Coordination Sequence:
#
# PCOD9571510 Si02
#       5
#    32  32  32  32  32
#     4  10  21  36  56  80 107 144 184 225 271 318
#     4   9  18  33  52  77 109 140 172 214 266 320
#     4  10  19  35  55  77 106 139 175 215 266 323
#     4   9  20  38  54  68  95 140 187 223 256 299
#     4  11  21  32  51  80 109 138 173 218 268 321
#
# _framework density 16.684377000000001
#
# number of rings (size 3 to 8) (size 9 to 14) (size 15 to 20)
#    0.000    2.200    2.000    1.800    0.000    4.200 
#    0.000    3.000    0.000    0.000    0.000    2.800 
#    0.000    0.000    0.000    4.400    0.000    0.000 
#
# Total GULP energy -446215.633894 kJ/mol
# GULP energy per Si atom -5577.695424 kJ/mol
# Density = 1.664640 g / cm^3
# Si number density = 16.684377 Si / 1000 Ang^3
#
#
#
# Elastic Constant Matrix: (Units=GPa)
#
#
# Indices 1 2 3 4 5 6 
#
# 1 68.9803 51.7167 46.7253 0.0000 0.0000 0.0000
# 2 51.7167 68.9805 46.7261 0.0000 0.0000 0.0000
# 3 46.7253 46.7261 113.2761 0.0000 0.0000 0.0000
# 4 0.0000 0.0000 0.0000 16.9878 0.0000 0.0000
# 5 0.0000 0.0000 0.0000 0.0000 16.9875 0.0000
# 6 0.0000 0.0000 0.0000 0.0000 0.0000 11.3253
#
#
#
# Elastic Compliance Matrix: (Units=1/GPa)
#
#
# Indices 1 2 3 4 5 6 
#
# 1 0.035049 -0.022876 -0.005021 0.000000 0.000000 0.000000
# 2 -0.022876 0.035049 -0.005022 0.000000 0.000000 0.000000
# 3 -0.005021 -0.005022 0.012970 0.000000 0.000000 0.000000
# 4 0.000000 0.000000 0.000000 0.058866 0.000000 0.000000
# 5 0.000000 0.000000 0.000000 0.000000 0.058867 0.000000
# 6 0.000000 0.000000 0.000000 0.000000 0.000000 0.088298
#
#
# Mechanical properties :
#
#
# Convention : Reuss Voigt Hill
#
# Bulk Modulus (GPa) = 58.03379 60.17479 59.10429
# Shear Modulus (GPa) = 13.86272 16.13138 14.99705
#
# Velocity S-wave (km/s) = 2.88563 3.11280 3.00137
# Velocity P-wave (km/s) = 6.77947 7.00459 6.89295
#
# Compressibility (1/GPa) = 0.01723134
#
# Stress axis : x y z
#
# Youngs Moduli (GPa) = 28.53167 28.53143 77.09810
#
# Poissons Ratio (x) = 0.65268 0.38711
# Poissons Ratio (y) = 0.65269 0.38715
# Poissons Ratio (z) = 0.14326 0.14327
#
# Static dielectric constant tensor:
#      x y z
#    x 1.557520 0.000000 0.000000 
#    y 0.000000 1.557520 0.000000 
#    z 0.000000 0.000000 1.572050 
# 
# From -- ./inp_files/8383.got.cif
#   From: 2010.05.17/outbox.cif.g08.bks.cpg/sg139_5_cif.got.tgz:8383.got - 2010.05.20 13:14:44.
