data_PCOD9571899
_publ_section_title
;
Structure prediction by ZEFSAII (Michael W. Deem and Ramdas Pophale) SiO2 
 PCOD9571899
Probable space group: I 4/M M M
;
_chemical_formula_sum "Si O2"
_cell_formula_units_Z 176
_cell_length_a 24.628758
_cell_length_b 24.628758
_cell_length_c 15.556699
_cell_angle_alpha 90.000000
_cell_angle_beta 90.000000
_cell_angle_gamma 90.000000
_cell_volume 9436.315906
_symmetry_space_group_name_H-M "I 4/M M M"
_symmetry_group_IT_number 139
_symmetry_cell_setting 'tetragonal'
loop_
_space_group_symop_operation_xyz
x,y,z
-y,x,z
-x,-y,z
y,-x,z
x,-y,-z
-x,y,-z
y,x,-z
-y,-x,-z
-x,-y,-z
y,-x,-z
x,y,-z
-y,x,-z
-x,y,z
x,-y,z
-y,-x,z
y,x,z
1/2+x,1/2+y,1/2+z
1/2-y,1/2+x,1/2+z
1/2-x,1/2-y,1/2+z
1/2+y,1/2-x,1/2+z
1/2+x,1/2-y,1/2-z
1/2-x,1/2+y,1/2-z
1/2+y,1/2+x,1/2-z
1/2-y,1/2-x,1/2-z
1/2-x,1/2-y,1/2-z
1/2+y,1/2-x,1/2-z
1/2+x,1/2+y,1/2-z
1/2-y,1/2+x,1/2-z
1/2-x,1/2+y,1/2+z
1/2+x,1/2-y,1/2+z
1/2-y,1/2-x,1/2+z
1/2+y,1/2+x,1/2+z
loop_
_atom_site_type_symbol
_atom_site_label
_atom_site_fract_x
_atom_site_fract_y
_atom_site_fract_z
Si Si1 0.323364 0.500000 0.098804
Si Si2 0.095802 0.262681 0.597720
Si Si3 0.204355 0.204355 0.652778
Si Si4 0.565807 0.155282 0.250000
Si Si5 0.000000 0.823364 0.098804
Si Si6 0.704355 0.704355 0.347222
Si Si7 0.237319 0.595802 0.402280
Si Si8 0.000000 0.909175 0.250000
O O1 0.284121 0.551294 0.111620
O O2 0.371308 0.500000 0.166491
O O3 0.342795 0.500000 0.000000
O O4 0.090418 0.283330 0.500000
O O5 0.153161 0.232611 0.608807
O O6 0.085335 0.309476 0.667419
O O7 0.250000 0.250000 0.657844
O O8 0.188224 0.188224 0.750000
O O9 0.500000 0.150462 0.250000
O O10 0.598454 0.098454 0.250000
O O11 0.585335 0.190524 0.332581
O O12 0.948706 0.784121 0.111620
O O13 0.000000 0.871308 0.166491
O O14 0.000000 0.842795 0.000000
O O15 0.653161 0.732611 0.391193
O O16 0.216670 0.590418 0.500000
O O17 0.947614 0.947614 0.250000
#
# Coordination Sequence:
#
# PCOD9571899 Si02
#       8
#    16  32  16  32  16  16  32  16
#     4  10  23  41  65  92 118 158 213 259 306 368
#     4  11  23  41  65  94 127 166 209 255 314 385
#     4  11  23  37  59  96 133 164 196 246 320 387
#     4  12  25  43  67  93 126 168 214 267 319 373
#     4  10  23  41  65  92 118 158 213 259 306 368
#     4  11  23  37  59  96 133 164 196 246 320 387
#     4  11  23  41  65  94 127 166 209 255 314 385
#     4  11  26  42  60  88 122 168 215 262 318 362
#
# _framework density 18.651346
#
# number of rings (size 3 to 8) (size 9 to 14) (size 15 to 20)
#    0.000    1.000    3.636    2.727    2.545    4.545 
#    0.000    0.909    0.000    0.000    0.000    2.545 
#    0.000    0.000    0.000    0.000    0.000    0.000 
#
# Total GULP energy -491877.350296 kJ/mol
# GULP energy per Si atom -5589.515344 kJ/mol
# Density = 1.860889 g / cm^3
# Si number density = 18.651346 Si / 1000 Ang^3
#
#
#
# Elastic Constant Matrix: (Units=GPa)
#
#
# Indices 1 2 3 4 5 6 
#
# 1 115.8248 72.2731 63.2795 0.0000 0.0000 0.0000
# 2 72.2731 115.8248 63.2795 0.0000 0.0000 0.0000
# 3 63.2795 63.2795 129.7551 0.0000 0.0000 0.0000
# 4 0.0000 0.0000 0.0000 7.0021 0.0000 0.0000
# 5 0.0000 0.0000 0.0000 0.0000 7.0021 0.0000
# 6 0.0000 0.0000 0.0000 0.0000 0.0000 6.1497
#
#
#
# Elastic Compliance Matrix: (Units=1/GPa)
#
#
# Indices 1 2 3 4 5 6 
#
# 1 0.015437 -0.007524 -0.003859 0.000000 0.000000 0.000000
# 2 -0.007524 0.015437 -0.003859 0.000000 0.000000 0.000000
# 3 -0.003859 -0.003859 0.011471 0.000000 0.000000 0.000000
# 4 0.000000 0.000000 0.000000 0.142815 0.000000 0.000000
# 5 0.000000 0.000000 0.000000 0.000000 0.142815 0.000000
# 6 0.000000 0.000000 0.000000 0.000000 0.000000 0.162610
#
#
# Mechanical properties :
#
#
# Convention : Reuss Voigt Hill
#
# Bulk Modulus (GPa) = 84.31315 84.34100 84.32708
# Shear Modulus (GPa) = 9.52339 14.86892 12.19615
#
# Velocity S-wave (km/s) = 2.26210 2.82654 2.55993
# Velocity P-wave (km/s) = 7.21982 7.48134 7.35174
#
# Compressibility (1/GPa) = 0.01186055
#
# Stress axis : x y z
#
# Youngs Moduli (GPa) = 64.77930 64.77930 87.17836
#
# Poissons Ratio (x) = 0.48741 0.33642
# Poissons Ratio (y) = 0.48741 0.33642
# Poissons Ratio (z) = 0.24998 0.24998
#
# Static dielectric constant tensor:
#      x y z
#    x 1.601350 0.000000 0.000000 
#    y 0.000000 1.601350 0.000000 
#    z 0.000000 0.000000 1.673600 
# 
# From -- ./inp_files/6216.got.cif
#   From: 2010.05.17/outbox.cif.g08.bks.cpg/sg139_4_cif.got.tgz:6216.got - 2010.05.20 13:14:44.
