data_PCOD9571643
_publ_section_title
;
Structure prediction by ZEFSAII (Michael W. Deem and Ramdas Pophale) SiO2 
 PCOD9571643
Probable space group: I 4/M M M
;
_chemical_formula_sum "Si O2"
_cell_formula_units_Z 240
_cell_length_a 19.742522
_cell_length_b 19.742522
_cell_length_c 36.485232
_cell_angle_alpha 90.000000
_cell_angle_beta 90.000000
_cell_angle_gamma 90.000000
_cell_volume 14220.745803
_symmetry_space_group_name_H-M "I 4/M M M"
_symmetry_group_IT_number 139
_symmetry_cell_setting 'tetragonal'
loop_
_space_group_symop_operation_xyz
x,y,z
-y,x,z
-x,-y,z
y,-x,z
x,-y,-z
-x,y,-z
y,x,-z
-y,-x,-z
-x,-y,-z
y,-x,-z
x,y,-z
-y,x,-z
-x,y,z
x,-y,z
-y,-x,z
y,x,z
1/2+x,1/2+y,1/2+z
1/2-y,1/2+x,1/2+z
1/2-x,1/2-y,1/2+z
1/2+y,1/2-x,1/2+z
1/2+x,1/2-y,1/2-z
1/2-x,1/2+y,1/2-z
1/2+y,1/2+x,1/2-z
1/2-y,1/2-x,1/2-z
1/2-x,1/2-y,1/2-z
1/2+y,1/2-x,1/2-z
1/2+x,1/2+y,1/2-z
1/2-y,1/2+x,1/2-z
1/2-x,1/2+y,1/2+z
1/2+x,1/2-y,1/2+z
1/2-y,1/2-x,1/2+z
1/2+y,1/2+x,1/2+z
loop_
_atom_site_type_symbol
_atom_site_label
_atom_site_fract_x
_atom_site_fract_y
_atom_site_fract_z
Si Si1 0.318621 0.421699 0.279556
Si Si2 0.695927 0.419400 0.918030
Si Si3 0.266812 0.842310 0.720965
Si Si4 0.074711 0.417639 0.541475
Si Si5 0.807906 0.919384 0.862164
Si Si6 0.419160 0.162244 0.391430
Si Si7 0.194798 0.581055 0.853213
Si Si8 0.807787 0.920801 0.500000
O O1 0.314515 0.500000 0.274055
O O2 0.394993 0.394993 0.281996
O O3 0.283357 0.385561 0.246047
O O4 0.288183 0.405290 0.319590
O O5 0.677639 0.500000 0.915476
O O6 0.631521 0.368479 0.913870
O O7 0.750757 0.406143 0.886038
O O8 0.724868 0.408431 0.959714
O O9 0.228637 0.771364 0.711823
O O10 0.326277 0.826277 0.750000
O O11 0.283547 0.882486 0.684355
O O12 0.082994 0.393411 0.500000
O O13 0.072747 0.500000 0.540289
O O14 0.134593 0.400053 0.568537
O O15 0.000000 0.395061 0.555025
O O16 0.871158 0.871158 0.871210
O O17 0.741203 0.904264 0.885619
O O18 0.823837 0.000000 0.864809
O O19 0.500000 0.153427 0.385948
O O20 0.375853 0.115301 0.364643
O O21 0.189359 0.500000 0.848736
O O22 0.874487 0.874487 0.500000
O O23 0.825198 0.000000 0.500000
#
# Coordination Sequence:
#
# PCOD9571643 Si02
#       8
#    32  32  32  32  32  32  32  16
#     4   9  17  30  48  70  96 124 155 196 244 295
#     4   9  18  32  50  74 103 137 176 214 255 301
#     4  10  20  34  52  71  92 124 169 215 258 307
#     4   8  14  27  48  72  97 125 159 200 243 286
#     4   9  18  32  52  78 104 131 163 201 252 309
#     4  10  20  34  52  74 100 130 167 207 249 301
#     4  11  22  34  50  74 102 135 170 211 264 312
#     4   8  14  27  46  68  99 135 171 211 248 290
#
# _framework density 16.876752
#
# number of rings (size 3 to 8) (size 9 to 14) (size 15 to 20)
#    0.000    2.667    0.000    2.400    0.000    3.400 
#    1.200    3.333    0.000    0.400    0.000    1.867 
#    0.000    0.000    0.000    5.200    0.000    0.133 
#
# Total GULP energy -668084.310847 kJ/mol
# GULP energy per Si atom -5567.369257 kJ/mol
# Density = 1.683834 g / cm^3
# Si number density = 16.876752 Si / 1000 Ang^3
#
#
#
# Elastic Constant Matrix: (Units=GPa)
#
#
# Indices 1 2 3 4 5 6 
#
# 1 62.3597 48.5270 56.4093 0.0000 0.0000 0.0000
# 2 48.5270 62.3597 56.4093 0.0000 0.0000 0.0000
# 3 56.4093 56.4093 117.6567 0.0000 0.0000 0.0000
# 4 0.0000 0.0000 0.0000 19.8758 0.0000 0.0000
# 5 0.0000 0.0000 0.0000 0.0000 19.8758 0.0000
# 6 0.0000 0.0000 0.0000 0.0000 0.0000 21.8233
#
#
#
# Elastic Compliance Matrix: (Units=1/GPa)
#
#
# Indices 1 2 3 4 5 6 
#
# 1 0.044949 -0.027343 -0.008441 0.000000 0.000000 0.000000
# 2 -0.027343 0.044949 -0.008441 0.000000 0.000000 0.000000
# 3 -0.008441 -0.008441 0.016593 0.000000 0.000000 0.000000
# 4 0.000000 0.000000 0.000000 0.050313 0.000000 0.000000
# 5 0.000000 0.000000 0.000000 0.000000 0.050313 0.000000
# 6 0.000000 0.000000 0.000000 0.000000 0.000000 0.045823
#
#
# Mechanical properties :
#
#
# Convention : Reuss Voigt Hill
#
# Bulk Modulus (GPa) = 55.42791 62.78526 59.10659
# Shear Modulus (GPa) = 14.39243 17.71701 16.05472
#
# Velocity S-wave (km/s) = 2.92344 3.24356 3.08765
# Velocity P-wave (km/s) = 6.65653 7.16314 6.91447
#
# Compressibility (1/GPa) = 0.01804145
#
# Stress axis : x y z
#
# Youngs Moduli (GPa) = 22.24720 22.24720 60.26476
#
# Poissons Ratio (x) = 0.60830 0.50871
# Poissons Ratio (y) = 0.60830 0.50871
# Poissons Ratio (z) = 0.18779 0.18779
#
# Static dielectric constant tensor:
#      x y z
#    x 1.579420 0.000000 0.000000 
#    y 0.000000 1.579420 0.000000 
#    z 0.000000 0.000000 1.592910 
# 
# From -- ./inp_files/14628.got.cif
#   From: 2010.05.17/outbox.cif.g08.bks.cpg/sg139_8_cif.got.tgz:14628.got - 2010.05.20 13:14:44.
