data_PCOD9571969
_publ_section_title
;
Structure prediction by ZEFSAII (Michael W. Deem and Ramdas Pophale) SiO2 
 PCOD9571969
Probable space group: I 4/M M M
;
_chemical_formula_sum "Si O2"
_cell_formula_units_Z 120
_cell_length_a 21.000000
_cell_length_b 21.000000
_cell_length_c 30.000000
_cell_angle_alpha 90.000000
_cell_angle_beta 90.000000
_cell_angle_gamma 90.000000
_cell_volume 13230.000000
_symmetry_space_group_name_H-M "I 4/M M M"
_symmetry_group_IT_number 139
_symmetry_cell_setting 'tetragonal'
loop_
_space_group_symop_operation_xyz
x,y,z
-y,x,z
-x,-y,z
y,-x,z
x,-y,-z
-x,y,-z
y,x,-z
-y,-x,-z
-x,-y,-z
y,-x,-z
x,y,-z
-y,x,-z
-x,y,z
x,-y,z
-y,-x,z
y,x,z
1/2+x,1/2+y,1/2+z
1/2-y,1/2+x,1/2+z
1/2-x,1/2-y,1/2+z
1/2+y,1/2-x,1/2+z
1/2+x,1/2-y,1/2-z
1/2-x,1/2+y,1/2-z
1/2+y,1/2+x,1/2-z
1/2-y,1/2-x,1/2-z
1/2-x,1/2-y,1/2-z
1/2+y,1/2-x,1/2-z
1/2+x,1/2+y,1/2-z
1/2-y,1/2+x,1/2-z
1/2-x,1/2+y,1/2+z
1/2+x,1/2-y,1/2+z
1/2-y,1/2-x,1/2+z
1/2+y,1/2+x,1/2+z
loop_
_atom_site_type_symbol
_atom_site_label
_atom_site_fract_x
_atom_site_fract_y
_atom_site_fract_z
Si Si1 0.844882 0.251668 0.223818
Si Si2 0.167833 0.072436 0.290123
Si Si3 0.750505 0.350061 0.574451
Si Si4 0.884940 0.575783 0.800059
Si Si5 0.734350 0.926051 0.638750
Si Si6 0.251373 0.852072 0.548078
Si Si7 0.184472 0.429081 0.649856
Si Si8 0.323138 0.425348 0.500000
O O1 0.794609 0.205392 0.199664
O O2 0.802111 0.302111 0.250000
O O3 0.884365 0.209172 0.257763
O O4 0.894766 0.283370 0.191586
O O5 0.096172 0.096172 0.288096
O O6 0.196966 0.082309 0.338950
O O7 0.176621 0.000000 0.277539
O O8 0.696333 0.303668 0.594825
O O9 0.796463 0.303725 0.547359
O O10 0.794921 0.386735 0.608713
O O11 0.714781 0.399042 0.542611
O O12 0.891415 0.500000 0.798493
O O13 0.899708 0.600293 0.750000
O O14 0.816168 0.591914 0.822328
O O15 0.929382 0.610705 0.835960
O O16 0.732354 0.890683 0.592250
O O17 0.722515 0.000000 0.630491
O O18 0.252475 0.885910 0.500000
O O19 0.183843 0.816158 0.553024
O O20 0.208085 0.500000 0.643616
O O21 0.327382 0.500000 0.500000
O O22 0.391205 0.391205 0.500000
#
# Coordination Sequence:
#
# PCOD9571969 Si02
#       8
#    32  32  32  32  32  32  32  16
#     4  10  21  35  52  76 103 134 173 220 273 322
#     4  10  20  34  52  75 106 143 180 221 267 320
#     4  10  20  35  54  78 105 133 168 216 266 316
#     4  11  23  37  52  73 106 147 187 230 275 322
#     4  10  20  35  54  78 110 142 179 227 276 328
#     4  10  19  34  58  83 107 138 177 222 275 330
#     4  12  22  33  52  75 101 136 175 217 264 316
#     4  10  20  37  58  82 111 139 171 213 266 324
#
# _framework density 9.0702949999999998
#
# number of rings (size 3 to 8) (size 9 to 14) (size 15 to 20)
#    0.000    1.600    2.000    4.000    0.000    2.467 
#    0.000    0.000    0.000    0.400    0.000    0.000 
#    0.000   13.867    0.000   12.400    0.000    0.000 
#
# Total GULP energy -668046.195500 kJ/mol
# GULP energy per Si atom -5567.051629 kJ/mol
# Density = 0.904965 g / cm^3
# Si number density = 9.070295 Si / 1000 Ang^3
#
#
#
# Elastic Constant Matrix: (Units=GPa)
#
#
# Indices 1 2 3 4 5 6 
#
# 1 -91.9903 189.7209 49.0061 0.0000 0.0000 0.0000
# 2 189.7209 -91.9922 49.0043 0.0000 0.0000 0.0000
# 3 49.0061 49.0043 114.9624 0.0000 0.0000 0.0000
# 4 0.0000 0.0000 0.0000 3.6426 0.0000 0.0000
# 5 0.0000 0.0000 0.0000 0.0000 3.6429 0.0000
# 6 0.0000 0.0000 0.0000 0.0000 0.0000 12.6606
#
#
#
# Elastic Compliance Matrix: (Units=1/GPa)
#
#
# Indices 1 2 3 4 5 6 
#
# 1 0.007162 0.010711 -0.007619 0.000000 0.000000 0.000000
# 2 0.010711 0.007162 -0.007619 0.000000 0.000000 0.000000
# 3 -0.007619 -0.007619 0.015194 0.000000 0.000000 0.000000
# 4 0.000000 0.000000 0.000000 0.274526 0.000000 0.000000
# 5 0.000000 0.000000 0.000000 0.000000 0.274504 0.000000
# 6 0.000000 0.000000 0.000000 0.000000 0.000000 0.078985
#
#
# Mechanical properties :
#
#
# Convention : Reuss Voigt Hill
#
# Bulk Modulus (GPa) = 48.86455 56.27142 52.56799
# Shear Modulus (GPa) = 7.42494 -19.79419 -6.18462
#
# Velocity S-wave (km/s) = 2.02531 -3.30685 -1.84843
# Velocity P-wave (km/s) = 5.69774 4.06284 4.94828
#
# Compressibility (1/GPa) = 0.02046473
#
# Stress axis : x y z
#
# Youngs Moduli (GPa) = 139.63355 139.63399 65.81641
#
# Poissons Ratio (x) = -1.49566 0.50143
# Poissons Ratio (y) = -1.49566 0.50144
# Poissons Ratio (z) = 1.06382 1.06383
#
# Static dielectric constant tensor:
#      x y z
#    x 1.616230 0.000000 0.000000 
#    y 0.000000 1.616560 0.000000 
#    z 0.000000 0.000000 1.624870 
# 
# From -- ./inp_files/14652.got.cif
#   From: 2010.05.17/outbox.ucp.g08.bks.cvg/sg139_8_cif.got.tgz:14652.got - 2010.06.11 11:42:03.
