data_PCOD9571928
_publ_section_title
;
Structure prediction by ZEFSAII (Michael W. Deem and Ramdas Pophale) SiO2 
 PCOD9571928
Probable space group: I 4/M M M
;
_chemical_formula_sum "Si O2"
_cell_formula_units_Z 96
_cell_length_a 23.678289
_cell_length_b 23.678289
_cell_length_c 8.084533
_cell_angle_alpha 90.000000
_cell_angle_beta 90.000000
_cell_angle_gamma 90.000000
_cell_volume 4532.685347
_symmetry_space_group_name_H-M "I 4/M M M"
_symmetry_group_IT_number 139
_symmetry_cell_setting 'tetragonal'
loop_
_space_group_symop_operation_xyz
x,y,z
-y,x,z
-x,-y,z
y,-x,z
x,-y,-z
-x,y,-z
y,x,-z
-y,-x,-z
-x,-y,-z
y,-x,-z
x,y,-z
-y,x,-z
-x,y,z
x,-y,z
-y,-x,z
y,x,z
1/2+x,1/2+y,1/2+z
1/2-y,1/2+x,1/2+z
1/2-x,1/2-y,1/2+z
1/2+y,1/2-x,1/2+z
1/2+x,1/2-y,1/2-z
1/2-x,1/2+y,1/2-z
1/2+y,1/2+x,1/2-z
1/2-y,1/2-x,1/2-z
1/2-x,1/2-y,1/2-z
1/2+y,1/2-x,1/2-z
1/2+x,1/2+y,1/2-z
1/2-y,1/2+x,1/2-z
1/2-x,1/2+y,1/2+z
1/2+x,1/2-y,1/2+z
1/2-y,1/2-x,1/2+z
1/2+y,1/2+x,1/2+z
loop_
_atom_site_type_symbol
_atom_site_label
_atom_site_fract_x
_atom_site_fract_y
_atom_site_fract_z
Si Si1 0.159197 0.840804 0.703928
Si Si2 0.282678 0.873722 0.305538
Si Si3 0.434510 0.565491 0.798531
Si Si4 0.000000 0.710161 0.184188
Si Si5 0.089845 0.500000 0.197886
O O1 0.158307 0.841694 0.500000
O O2 0.147466 0.777211 0.762762
O O3 0.112133 0.887868 0.754635
O O4 0.282084 0.865362 0.500000
O O5 0.337748 0.837748 0.250000
O O6 0.278948 0.940652 0.271999
O O7 0.421793 0.500000 0.748890
O O8 0.434053 0.565948 0.000000
O O9 0.000000 0.643031 0.186055
O O10 0.000000 0.734401 0.000000
O O11 0.053505 0.446496 0.250000
O O12 0.102011 0.500000 0.000000
#
# Coordination Sequence:
#
# PCOD9571928 Si02
#       5
#    16  32  16  16  16
#     4   9  20  35  59  91 125 165 208 256 308 369
#     4  11  23  41  63  91 125 164 209 259 315 373
#     4   8  14  26  49  85 127 165 201 247 303 362
#     4  12  25  41  60  86 118 157 204 254 307 364
#     4  11  21  36  57  84 116 153 193 241 298 358
#
# _framework density 21.179497000000001
#
# number of rings (size 3 to 8) (size 9 to 14) (size 15 to 20)
#    0.000    1.667    0.000    6.500    2.333    0.000 
#    0.000    2.500    0.000    0.000    0.000    0.000 
#    0.000    1.333    0.000    0.000    0.000    0.000 
#
# Total GULP energy -267475.254341 kJ/mol
# GULP energy per Si atom -5572.401132 kJ/mol
# Density = 2.113129 g / cm^3
# Si number density = 21.179497 Si / 1000 Ang^3
#
#
#
# Elastic Constant Matrix: (Units=GPa)
#
#
# Indices 1 2 3 4 5 6 
#
# 1 116.3299 63.5129 0.1413 0.0000 0.0000 0.0000
# 2 63.5129 116.3314 0.1422 0.0000 0.0000 0.0000
# 3 0.1413 0.1422 46.1398 0.0000 0.0000 0.0000
# 4 0.0000 0.0000 0.0000 2.3662 0.0000 0.0000
# 5 0.0000 0.0000 0.0000 0.0000 2.3664 0.0000
# 6 0.0000 0.0000 0.0000 0.0000 0.0000 16.9018
#
#
#
# Elastic Compliance Matrix: (Units=1/GPa)
#
#
# Indices 1 2 3 4 5 6 
#
# 1 0.012247 -0.006686 -0.000017 0.000000 0.000000 0.000000
# 2 -0.006686 0.012247 -0.000017 0.000000 0.000000 0.000000
# 3 -0.000017 -0.000017 0.021673 0.000000 0.000000 0.000000
# 4 0.000000 0.000000 0.000000 0.422621 0.000000 0.000000
# 5 0.000000 0.000000 0.000000 0.000000 0.422587 0.000000
# 6 0.000000 0.000000 0.000000 0.000000 0.000000 0.059165
#
#
# Mechanical properties :
#
#
# Convention : Reuss Voigt Hill
#
# Bulk Modulus (GPa) = 30.55687 45.15486 37.85587
# Shear Modulus (GPa) = 5.12878 18.66052 11.89465
#
# Velocity S-wave (km/s) = 1.55783 2.97149 2.37241
# Velocity P-wave (km/s) = 4.20650 5.75668 5.04153
#
# Compressibility (1/GPa) = 0.03272586
#
# Stress axis : x y z
#
# Youngs Moduli (GPa) = 81.65401 81.65503 46.13962
#
# Poissons Ratio (x) = 0.54597 0.00078
# Poissons Ratio (y) = 0.54596 0.00080
# Poissons Ratio (z) = 0.00138 0.00141
#
# Static dielectric constant tensor:
#      x y z
#    x 1.877810 0.000000 0.000000 
#    y 0.000000 1.877820 0.000000 
#    z 0.000000 0.000000 1.802310 
# 
# From -- ./inp_files/1222.got.cif
#   From: 2010.05.17/outbox.cif.g08.bks.cpg/sg139_1_cif.got.tgz:1222.got - 2010.05.20 13:14:44.
