data_PCOD9571475
_publ_section_title
;
Structure prediction by ZEFSAII (Michael W. Deem and Ramdas Pophale) SiO2 
 PCOD9571475
Probable space group: I 4/M M M
;
_chemical_formula_sum "Si O2"
_cell_formula_units_Z 192
_cell_length_a 18.858836
_cell_length_b 18.858836
_cell_length_c 31.301172
_cell_angle_alpha 90.000000
_cell_angle_beta 90.000000
_cell_angle_gamma 90.000000
_cell_volume 11132.440091
_symmetry_space_group_name_H-M "I 4/M M M"
_symmetry_group_IT_number 139
_symmetry_cell_setting 'tetragonal'
loop_
_space_group_symop_operation_xyz
x,y,z
-y,x,z
-x,-y,z
y,-x,z
x,-y,-z
-x,y,-z
y,x,-z
-y,-x,-z
-x,-y,-z
y,-x,-z
x,y,-z
-y,x,-z
-x,y,z
x,-y,z
-y,-x,z
y,x,z
1/2+x,1/2+y,1/2+z
1/2-y,1/2+x,1/2+z
1/2-x,1/2-y,1/2+z
1/2+y,1/2-x,1/2+z
1/2+x,1/2-y,1/2-z
1/2-x,1/2+y,1/2-z
1/2+y,1/2+x,1/2-z
1/2-y,1/2-x,1/2-z
1/2-x,1/2-y,1/2-z
1/2+y,1/2-x,1/2-z
1/2+x,1/2+y,1/2-z
1/2-y,1/2+x,1/2-z
1/2-x,1/2+y,1/2+z
1/2+x,1/2-y,1/2+z
1/2-y,1/2-x,1/2+z
1/2+y,1/2+x,1/2+z
loop_
_atom_site_type_symbol
_atom_site_label
_atom_site_fract_x
_atom_site_fract_y
_atom_site_fract_z
Si Si1 0.584005 0.298598 0.417108
Si Si2 0.729106 0.846862 0.000000
Si Si3 0.083795 0.291330 0.168588
Si Si4 0.778578 0.580817 0.000000
Si Si5 0.200965 0.916897 0.746677
Si Si6 0.417565 0.806682 0.166937
Si Si7 0.418559 0.300723 0.089841
O O1 0.500000 0.311649 0.420188
O O2 0.629353 0.370648 0.415510
O O3 0.611479 0.255058 0.458115
O O4 0.598005 0.253325 0.374346
O O5 0.771442 0.771442 0.000000
O O6 0.645260 0.833746 0.000000
O O7 0.100094 0.243196 0.209829
O O8 0.129862 0.362195 0.169331
O O9 0.000000 0.307730 0.169845
O O10 0.731122 0.588347 0.042408
O O11 0.807970 0.500000 0.000000
O O12 0.133897 0.866104 0.742293
O O13 0.254054 0.907046 0.706935
O O14 0.180715 0.000000 0.748005
O O15 0.500000 0.829906 0.167274
O O16 0.405131 0.761324 0.124029
O O17 0.500000 0.324324 0.095869
O O18 0.363845 0.363845 0.096298
#
# Coordination Sequence:
#
# PCOD9571475 Si02
#       7
#    32  16  32  16  32  32  32
#     4  10  21  36  55  80 107 136 171 210 254 306
#     4  10  19  33  55  78 103 137 173 212 258 304
#     4  10  21  36  54  78 106 135 171 212 254 305
#     4  10  20  33  51  76 104 134 173 218 259 303
#     4  10  21  36  54  78 106 136 172 212 255 305
#     4  10  21  36  54  77 104 135 173 215 257 303
#     4  10  20  33  50  74 103 135 173 214 256 305
#
# _framework density 17.246893
#
# number of rings (size 3 to 8) (size 9 to 14) (size 15 to 20)
#    0.000    2.000    0.000    3.500    0.000    5.500 
#    0.000    0.000    0.000   14.000    0.000    0.000 
#    0.000    0.000    0.000    0.000    0.000    0.000 
#
# Total GULP energy -536060.675931 kJ/mol
# GULP energy per Si atom -5583.965374 kJ/mol
# Density = 1.720764 g / cm^3
# Si number density = 17.246893 Si / 1000 Ang^3
#
#
#
# Elastic Constant Matrix: (Units=GPa)
#
#
# Indices 1 2 3 4 5 6 
#
# 1 96.7474 77.0942 17.8136 0.0000 0.0000 0.0000
# 2 77.0942 96.7474 17.8136 0.0000 0.0000 0.0000
# 3 17.8136 17.8136 77.3472 0.0000 0.0000 0.0000
# 4 0.0000 0.0000 0.0000 8.4324 0.0000 0.0000
# 5 0.0000 0.0000 0.0000 0.0000 8.4324 0.0000
# 6 0.0000 0.0000 0.0000 0.0000 0.0000 -131.8247
#
#
#
# Elastic Compliance Matrix: (Units=1/GPa)
#
#
# Indices 1 2 3 4 5 6 
#
# 1 0.028460 -0.022422 -0.001390 0.000000 0.000000 0.000000
# 2 -0.022422 0.028460 -0.001390 0.000000 0.000000 0.000000
# 3 -0.001390 -0.001390 0.013569 0.000000 0.000000 0.000000
# 4 0.000000 0.000000 0.000000 0.118590 0.000000 0.000000
# 5 0.000000 0.000000 0.000000 0.000000 0.118590 0.000000
# 6 0.000000 0.000000 0.000000 0.000000 0.000000 -0.007586
#
#
# Mechanical properties :
#
#
# Convention : Reuss Voigt Hill
#
# Bulk Modulus (GPa) = 49.79565 55.14272 52.46918
# Shear Modulus (GPa) = 13.99838 -12.45061 0.77388
#
# Velocity S-wave (km/s) = 2.85203 -2.68974 0.67058
# Velocity P-wave (km/s) = 6.30717 4.73241 5.57566
#
# Compressibility (1/GPa) = 0.02008208
#
# Stress axis : x y z
#
# Youngs Moduli (GPa) = 35.13727 35.13727 73.69645
#
# Poissons Ratio (x) = 0.78786 0.10247
# Poissons Ratio (y) = 0.78786 0.10247
# Poissons Ratio (z) = 0.04886 0.04886
#
# Static dielectric constant tensor:
#      x y z
#    x 1.556850 0.000000 0.000000 
#    y 0.000000 1.556850 0.000000 
#    z 0.000000 0.000000 1.582600 
# 
# From -- ./inp_files/14347.got.cif
#   From: 2010.05.17/outbox.cif.g08.bks.cpg/sg139_8_cif.got.tgz:14347.got - 2010.05.20 13:14:44.
