data_PCOD9571893
_publ_section_title
;
Structure prediction by ZEFSAII (Michael W. Deem and Ramdas Pophale) SiO2 
 PCOD9571893
Probable space group: I 4/M M M
;
_chemical_formula_sum "Si O2"
_cell_formula_units_Z 128
_cell_length_a 20.506203
_cell_length_b 20.506203
_cell_length_c 14.889822
_cell_angle_alpha 90.000000
_cell_angle_beta 90.000000
_cell_angle_gamma 90.000000
_cell_volume 6261.235093
_symmetry_space_group_name_H-M "I 4/M M M"
_symmetry_group_IT_number 139
_symmetry_cell_setting 'tetragonal'
loop_
_space_group_symop_operation_xyz
x,y,z
-y,x,z
-x,-y,z
y,-x,z
x,-y,-z
-x,y,-z
y,x,-z
-y,-x,-z
-x,-y,-z
y,-x,-z
x,y,-z
-y,x,-z
-x,y,z
x,-y,z
-y,-x,z
y,x,z
1/2+x,1/2+y,1/2+z
1/2-y,1/2+x,1/2+z
1/2-x,1/2-y,1/2+z
1/2+y,1/2-x,1/2+z
1/2+x,1/2-y,1/2-z
1/2-x,1/2+y,1/2-z
1/2+y,1/2+x,1/2-z
1/2-y,1/2-x,1/2-z
1/2-x,1/2-y,1/2-z
1/2+y,1/2-x,1/2-z
1/2+x,1/2+y,1/2-z
1/2-y,1/2+x,1/2-z
1/2-x,1/2+y,1/2+z
1/2+x,1/2-y,1/2+z
1/2-y,1/2-x,1/2+z
1/2+y,1/2+x,1/2+z
loop_
_atom_site_type_symbol
_atom_site_label
_atom_site_fract_x
_atom_site_fract_y
_atom_site_fract_z
Si Si1 0.241138 0.758863 0.892374
Si Si2 0.246154 0.000000 0.703836
Si Si3 0.671989 0.875226 0.343957
Si Si4 0.500000 0.700077 0.392717
Si Si5 0.577420 0.079143 0.500000
Si Si6 0.000000 0.109257 0.606122
Si Si7 0.137628 0.137628 0.107199
O O1 0.312078 0.783968 0.865232
O O2 0.188974 0.811027 0.853384
O O3 0.239485 0.760516 0.000000
O O4 0.281141 0.063099 0.664356
O O5 0.252683 0.000000 0.812816
O O6 0.171436 0.000000 0.670478
O O7 0.637674 0.862327 0.250000
O O8 0.615995 0.890013 0.416249
O O9 0.500000 0.719291 0.500000
O O10 0.435668 0.657925 0.373592
O O11 0.500000 0.093527 0.500000
O O12 0.584509 0.000000 0.500000
O O13 0.936954 0.063047 0.620523
O O14 0.000000 0.128629 0.500000
O O15 0.143483 0.143483 0.000000
#
# Coordination Sequence:
#
# PCOD9571893 Si02
#       7
#    16  16  32  16  16  16  16
#     4  11  23  45  72 101 145 183 225 292 358 416
#     4  12  27  42  74 105 138 185 240 289 351 434
#     4  12  27  47  71 108 143 185 238 293 356 427
#     4  10  22  42  66  97 140 183 231 283 345 416
#     4  11  26  51  78 104 142 184 235 304 363 420
#     4   9  22  44  70 104 146 191 237 286 347 423
#     4   9  20  40  65  97 131 180 225 277 341 418
#
# _framework density 20.443249999999999
#
# number of rings (size 3 to 8) (size 9 to 14) (size 15 to 20)
#    0.000    1.250    2.500    2.250    7.000    0.250 
#    4.500    2.500    0.000    0.000    0.000    0.000 
#    0.000    0.000    0.000    0.000    0.000    0.000 
#
# Total GULP energy -357700.978488 kJ/mol
# GULP energy per Si atom -5589.077789 kJ/mol
# Density = 2.039672 g / cm^3
# Si number density = 20.443250 Si / 1000 Ang^3
#
#
#
# Elastic Constant Matrix: (Units=GPa)
#
#
# Indices 1 2 3 4 5 6 
#
# 1 277.9436 -14.3938 65.2942 0.0000 0.0000 0.0000
# 2 -14.3938 277.7399 65.2194 0.0000 0.0000 0.0000
# 3 65.2942 65.2194 142.0179 0.0000 0.0000 0.0000
# 4 0.0000 0.0000 0.0000 11.3269 0.0000 0.0000
# 5 0.0000 0.0000 0.0000 0.0000 11.3152 0.0000
# 6 0.0000 0.0000 0.0000 0.0000 0.0000 19.5921
#
#
#
# Elastic Compliance Matrix: (Units=1/GPa)
#
#
# Indices 1 2 3 4 5 6 
#
# 1 0.004167 0.000746 -0.002259 0.000000 0.000000 0.000000
# 2 0.000746 0.004169 -0.002258 0.000000 0.000000 0.000000
# 3 -0.002259 -0.002258 0.009117 0.000000 0.000000 0.000000
# 4 0.000000 0.000000 0.000000 0.088286 0.000000 0.000000
# 5 0.000000 0.000000 0.000000 0.000000 0.088376 0.000000
# 6 0.000000 0.000000 0.000000 0.000000 0.000000 0.051041
#
#
# Mechanical properties :
#
#
# Convention : Reuss Voigt Hill
#
# Bulk Modulus (GPa) = 100.87891 103.32679 102.10285
# Shear Modulus (GPa) = 19.53121 47.21895 33.37508
#
# Velocity S-wave (km/s) = 3.09429 4.81121 4.04489
# Velocity P-wave (km/s) = 7.88791 9.02865 8.47749
#
# Compressibility (1/GPa) = 0.00991287
#
# Stress axis : x y z
#
# Youngs Moduli (GPa) = 239.97564 239.84491 109.68934
#
# Poissons Ratio (x) = -0.17900 0.24774
# Poissons Ratio (y) = -0.17910 0.24766
# Poissons Ratio (z) = 0.54201 0.54153
#
# Static dielectric constant tensor:
#      x y z
#    x 1.756250 0.000000 0.000000 
#    y 0.000000 1.756240 0.000000 
#    z 0.000000 0.000000 1.741790 
# 
# From -- ./inp_files/5549.got.cif
#   From: 2010.05.17/outbox.cif.g08.bks.cpg/sg139_3_cif.got.tgz:5549.got - 2010.05.20 13:14:44.
