data_PCOD9571067
_publ_section_title
;
Structure prediction by ZEFSAII (Michael W. Deem and Ramdas Pophale) SiO2 
 PCOD9571067
Probable space group: P 42/N C M
;
_chemical_formula_sum "Si O2"
_cell_formula_units_Z 64
_cell_length_a 14.524754
_cell_length_b 14.524754
_cell_length_c 13.453775
_cell_angle_alpha 90.000000
_cell_angle_beta 90.000000
_cell_angle_gamma 90.000000
_cell_volume 2838.322445
_symmetry_space_group_name_H-M "P 42/N C M"
_symmetry_group_IT_number 138
_space_group.IT_coordinate_system_code '2'
_symmetry_cell_setting 'tetragonal'
loop_
_space_group_symop_operation_xyz
x,y,z
1/2-y,x,1/2+z
1/2-x,1/2-y,z
y,1/2-x,1/2+z
1/2+x,-y,1/2-z
-x,1/2+y,1/2-z
1/2+y,1/2+x,-z
-y,-x,-z
-x,-y,-z
1/2+y,-x,1/2-z
1/2+x,1/2+y,-z
-y,1/2+x,1/2-z
1/2-x,y,1/2+z
x,1/2-y,1/2+z
1/2-y,1/2-x,z
y,x,z
loop_
_atom_site_type_symbol
_atom_site_label
_atom_site_fract_x
_atom_site_fract_y
_atom_site_fract_z
Si Si1 0.324819 0.175182 0.394044
Si Si2 0.740094 0.473672 0.865386
Si Si3 0.423023 0.922145 0.248052
Si Si4 0.824098 0.675903 0.367644
Si Si5 0.811429 0.967546 0.578603
O O1 0.250000 0.250000 0.362093
O O2 0.326083 0.173918 0.513518
O O3 0.422887 0.219658 0.372471
O O4 0.647842 0.415960 0.841401
O O5 0.824097 0.445822 0.795871
O O6 0.705701 0.575710 0.836660
O O7 0.779190 0.481280 0.977992
O O8 0.471532 0.865633 0.157532
O O9 0.489191 0.010810 0.268144
O O10 0.750000 0.750000 0.338443
O O11 0.882414 0.882414 0.551490
#
# Coordination Sequence:
#
# PCOD9571067 Si02
#       5
#     8  16  16   8  16
#     4   7  12  26  50  81 118 149 197 252 304 362
#     4  11  21  38  62  91 132 164 211 266 315 379
#     4  11  23  40  62  96 127 169 219 260 318 386
#     4   9  16  32  58  85 113 164 204 258 321 349
#     4   9  18  36  61  92 126 169 212 261 317 376
#
# _framework density 22.54853
#
# number of rings (size 3 to 8) (size 9 to 14) (size 15 to 20)
#    0.000    2.250    1.250    4.500    0.000    2.500 
#    6.750    1.250    0.000    4.500    0.000    0.000 
#    0.000    0.000    0.000    0.000    0.000    0.000 
#
# Total GULP energy -357424.743990 kJ/mol
# GULP energy per Si atom -5584.761625 kJ/mol
# Density = 2.249721 g / cm^3
# Si number density = 22.548530 Si / 1000 Ang^3
#
#
#
# Elastic Constant Matrix: (Units=GPa)
#
#
# Indices 1 2 3 4 5 6 
#
# 1 61.6092 13.4239 -2.4654 0.0000 0.0000 0.0000
# 2 13.4239 61.6092 -2.4654 0.0000 0.0000 0.0000
# 3 -2.4654 -2.4654 96.3717 0.0000 0.0000 0.0000
# 4 0.0000 0.0000 0.0000 19.0136 0.0000 0.0000
# 5 0.0000 0.0000 0.0000 0.0000 19.0136 0.0000
# 6 0.0000 0.0000 0.0000 0.0000 0.0000 40.9213
#
#
#
# Elastic Compliance Matrix: (Units=1/GPa)
#
#
# Indices 1 2 3 4 5 6 
#
# 1 0.017052 -0.003702 0.000342 0.000000 0.000000 0.000000
# 2 -0.003702 0.017052 0.000342 0.000000 0.000000 0.000000
# 3 0.000342 0.000342 0.010394 0.000000 0.000000 0.000000
# 4 0.000000 0.000000 0.000000 0.052594 0.000000 0.000000
# 5 0.000000 0.000000 0.000000 0.000000 0.052594 0.000000
# 6 0.000000 0.000000 0.000000 0.000000 0.000000 0.024437
#
#
# Mechanical properties :
#
#
# Convention : Reuss Voigt Hill
#
# Bulk Modulus (GPa) = 26.00117 26.28627 26.14372
# Shear Modulus (GPa) = 25.90955 29.86286 27.88621
#
# Velocity S-wave (km/s) = 3.39345 3.64315 3.52052
# Velocity P-wave (km/s) = 5.18751 5.42031 5.30518
#
# Compressibility (1/GPa) = 0.03845981
#
# Stress axis : x y z
#
# Youngs Moduli (GPa) = 58.64572 58.64572 96.20973
#
# Poissons Ratio (x) = 0.21709 -0.03286
# Poissons Ratio (y) = 0.21709 -0.03286
# Poissons Ratio (z) = -0.02003 -0.02003
#
# Static dielectric constant tensor:
#      x y z
#    x 1.879210 0.000000 0.000000 
#    y 0.000000 1.879210 0.000000 
#    z 0.000000 0.000000 1.852180 
# 
# From -- ./inp_files/4929.got.cif
#   From: 2010.05.17/outbox.cif.g08.bks.cpg/sg138_3_cif.got.tgz:4929.got - 2010.05.20 13:08:53.
