data_PCOD9571522
_publ_section_title
;
Structure prediction by ZEFSAII (Michael W. Deem and Ramdas Pophale) SiO2 
 PCOD9571522
Probable space group: I 4/M M M
;
_chemical_formula_sum "Si O2"
_cell_formula_units_Z 160
_cell_length_a 25.996787
_cell_length_b 25.996787
_cell_length_c 13.729146
_cell_angle_alpha 90.000000
_cell_angle_beta 90.000000
_cell_angle_gamma 90.000000
_cell_volume 9278.609027
_symmetry_space_group_name_H-M "I 4/M M M"
_symmetry_group_IT_number 139
_symmetry_cell_setting 'tetragonal'
loop_
_space_group_symop_operation_xyz
x,y,z
-y,x,z
-x,-y,z
y,-x,z
x,-y,-z
-x,y,-z
y,x,-z
-y,-x,-z
-x,-y,-z
y,-x,-z
x,y,-z
-y,x,-z
-x,y,z
x,-y,z
-y,-x,z
y,x,z
1/2+x,1/2+y,1/2+z
1/2-y,1/2+x,1/2+z
1/2-x,1/2-y,1/2+z
1/2+y,1/2-x,1/2+z
1/2+x,1/2-y,1/2-z
1/2-x,1/2+y,1/2-z
1/2+y,1/2+x,1/2-z
1/2-y,1/2-x,1/2-z
1/2-x,1/2-y,1/2-z
1/2+y,1/2-x,1/2-z
1/2+x,1/2+y,1/2-z
1/2-y,1/2+x,1/2-z
1/2-x,1/2+y,1/2+z
1/2+x,1/2-y,1/2+z
1/2-y,1/2-x,1/2+z
1/2+y,1/2+x,1/2+z
loop_
_atom_site_type_symbol
_atom_site_label
_atom_site_fract_x
_atom_site_fract_y
_atom_site_fract_z
Si Si1 0.059651 0.331361 0.500000
Si Si2 0.226986 0.309895 0.000000
Si Si3 0.293035 0.438942 0.000000
Si Si4 0.940210 0.761952 0.179439
Si Si5 0.878747 0.312018 0.675059
Si Si6 0.441088 0.642946 0.183591
Si Si7 0.862348 0.224119 0.000000
O O1 0.064527 0.268516 0.500000
O O2 0.088439 0.346712 0.400921
O O3 0.000000 0.344755 0.500000
O O4 0.219252 0.341912 0.100023
O O5 0.181797 0.267485 0.000000
O O6 0.281050 0.281050 0.000000
O O7 0.322373 0.419632 0.094786
O O8 0.301053 0.500000 0.000000
O O9 0.917136 0.723358 0.261304
O O10 0.941661 0.818493 0.226217
O O11 0.899723 0.766083 0.091786
O O12 0.000000 0.748134 0.155109
O O13 0.844619 0.344619 0.750000
O O14 0.500000 0.627688 0.162623
O O15 0.405575 0.594425 0.198829
O O16 0.830414 0.169587 0.000000
#
# Coordination Sequence:
#
# PCOD9571522 Si02
#       7
#    16  16  16  32  32  32  16
#     4  10  19  36  57  81 113 150 186 226 273 320
#     4  10  23  36  51  80 118 158 189 220 278 346
#     4   9  16  30  49  72  99 132 176 215 256 320
#     4  11  22  38  57  78 106 147 191 239 288 338
#     4  11  21  36  55  82 116 147 185 234 275 333
#     4  10  20  33  50  73 100 134 180 231 283 335
#     4  11  22  38  55  78 111 151 191 234 284 342
#
# _framework density 17.243963999999998
#
# number of rings (size 3 to 8) (size 9 to 14) (size 15 to 20)
#    0.000    1.600    4.000    1.800    0.000    2.200 
#    0.000    0.000    0.000    1.800    0.000    0.000 
#    0.000   16.800    0.000    0.000    0.000    0.000 
#
# Total GULP energy -445734.974629 kJ/mol
# GULP energy per Si atom -5571.687183 kJ/mol
# Density = 1.720472 g / cm^3
# Si number density = 17.243964 Si / 1000 Ang^3
#
#
#
# Elastic Constant Matrix: (Units=GPa)
#
#
# Indices 1 2 3 4 5 6 
#
# 1 74.9278 26.1041 25.7654 0.0000 0.0000 0.0000
# 2 26.1041 74.9287 25.7655 0.0000 0.0000 0.0000
# 3 25.7654 25.7655 100.2187 0.0000 0.0000 0.0000
# 4 0.0000 0.0000 0.0000 16.2377 0.0000 0.0000
# 5 0.0000 0.0000 0.0000 0.0000 16.2367 0.0000
# 6 0.0000 0.0000 0.0000 0.0000 0.0000 26.4744
#
#
#
# Elastic Compliance Matrix: (Units=1/GPa)
#
#
# Indices 1 2 3 4 5 6 
#
# 1 0.015937 -0.004545 -0.002929 0.000000 0.000000 0.000000
# 2 -0.004545 0.015937 -0.002929 0.000000 0.000000 0.000000
# 3 -0.002929 -0.002929 0.011484 0.000000 0.000000 0.000000
# 4 0.000000 0.000000 0.000000 0.061585 0.000000 0.000000
# 5 0.000000 0.000000 0.000000 0.000000 0.061589 0.000000
# 6 0.000000 0.000000 0.000000 0.000000 0.000000 0.037772
#
#
# Mechanical properties :
#
#
# Convention : Reuss Voigt Hill
#
# Bulk Modulus (GPa) = 44.34103 45.03835 44.68969
# Shear Modulus (GPa) = 21.49374 23.28578 22.38976
#
# Velocity S-wave (km/s) = 3.53434 3.67873 3.60726
# Velocity P-wave (km/s) = 6.51346 6.64974 6.58196
#
# Compressibility (1/GPa) = 0.02255248
#
# Stress axis : x y z
#
# Youngs Moduli (GPa) = 62.74819 62.74895 87.07722
#
# Poissons Ratio (x) = 0.28520 0.25502
# Poissons Ratio (y) = 0.28519 0.25502
# Poissons Ratio (z) = 0.18377 0.18377
#
# Static dielectric constant tensor:
#      x y z
#    x 1.588090 0.000000 0.000000 
#    y 0.000000 1.588090 0.000000 
#    z 0.000000 0.000000 1.621270 
# 
# From -- ./inp_files/3964.got.cif
#   From: 2010.05.17/outbox.cif.g08.bks.cpg/sg139_2_cif.got.tgz:3964.got - 2010.05.20 13:14:44.
