data_PCOD9571191
_publ_section_title
;
Structure prediction by ZEFSAII (Michael W. Deem and Ramdas Pophale) SiO2 
 PCOD9571191
Probable space group: I 4/M M M
;
_chemical_formula_sum "Si O2"
_cell_formula_units_Z 160
_cell_length_a 19.692501
_cell_length_b 19.692501
_cell_length_c 31.640036
_cell_angle_alpha 90.000000
_cell_angle_beta 90.000000
_cell_angle_gamma 90.000000
_cell_volume 12269.834966
_symmetry_space_group_name_H-M "I 4/M M M"
_symmetry_group_IT_number 139
_symmetry_cell_setting 'tetragonal'
loop_
_space_group_symop_operation_xyz
x,y,z
-y,x,z
-x,-y,z
y,-x,z
x,-y,-z
-x,y,-z
y,x,-z
-y,-x,-z
-x,-y,-z
y,-x,-z
x,y,-z
-y,x,-z
-x,y,z
x,-y,z
-y,-x,z
y,x,z
1/2+x,1/2+y,1/2+z
1/2-y,1/2+x,1/2+z
1/2-x,1/2-y,1/2+z
1/2+y,1/2-x,1/2+z
1/2+x,1/2-y,1/2-z
1/2-x,1/2+y,1/2-z
1/2+y,1/2+x,1/2-z
1/2-y,1/2-x,1/2-z
1/2-x,1/2-y,1/2-z
1/2+y,1/2-x,1/2-z
1/2+x,1/2+y,1/2-z
1/2-y,1/2+x,1/2-z
1/2-x,1/2+y,1/2+z
1/2+x,1/2-y,1/2+z
1/2-y,1/2-x,1/2+z
1/2+y,1/2+x,1/2+z
loop_
_atom_site_type_symbol
_atom_site_label
_atom_site_fract_x
_atom_site_fract_y
_atom_site_fract_z
Si Si1 0.689913 0.578815 0.917702
Si Si2 0.578339 0.309655 0.183877
Si Si3 0.417432 0.163477 0.047214
Si Si4 0.577651 0.917498 0.627300
Si Si5 0.342250 0.918737 0.287337
O O1 0.675421 0.500000 0.927878
O O2 0.627973 0.627973 0.928406
O O3 0.701700 0.582482 0.866970
O O4 0.759173 0.599653 0.940779
O O5 0.500000 0.329216 0.192725
O O6 0.631707 0.368294 0.194927
O O7 0.592546 0.238093 0.206513
O O8 0.500000 0.160563 0.047334
O O9 0.393670 0.113877 0.084406
O O10 0.394342 0.145985 0.000000
O O11 0.500000 0.894422 0.630510
O O12 0.620761 0.900003 0.668700
O O13 0.577010 0.000000 0.625775
O O14 0.376240 0.876240 0.250000
O O15 0.352601 0.000000 0.280449
#
# Coordination Sequence:
#
# PCOD9571191 Si02
#       5
#    32  32  32  32  32
#     4   9  16  27  41  56  76 101 130 165 202 238
#     4   9  17  29  44  60  80 105 133 167 203 238
#     4   9  16  26  39  54  73  98 127 159 197 236
#     4   9  16  26  39  55  76 100 127 159 192 229
#     4  10  18  28  42  61  84 108 133 161 197 240
#
# _framework density 13.04011
#
# number of rings (size 3 to 8) (size 9 to 14) (size 15 to 20)
#    0.000    2.800    2.000    0.600    0.000    2.600 
#    0.000    4.000    0.000    0.000    0.000    2.800 
#    0.000    0.000    0.000    0.000    0.000    0.000 
#
# Total GULP energy -445445.578260 kJ/mol
# GULP energy per Si atom -5568.069728 kJ/mol
# Density = 1.301043 g / cm^3
# Si number density = 13.040110 Si / 1000 Ang^3
#
#
#
# Elastic Constant Matrix: (Units=GPa)
#
#
# Indices 1 2 3 4 5 6 
#
# 1 66.6424 46.2807 45.5104 0.0000 0.0000 0.0000
# 2 46.2807 66.6424 45.5104 0.0000 0.0000 0.0000
# 3 45.5104 45.5104 83.8930 0.0000 0.0000 0.0000
# 4 0.0000 0.0000 0.0000 14.8121 0.0000 0.0000
# 5 0.0000 0.0000 0.0000 0.0000 14.8121 0.0000
# 6 0.0000 0.0000 0.0000 0.0000 0.0000 13.0438
#
#
#
# Elastic Compliance Matrix: (Units=1/GPa)
#
#
# Indices 1 2 3 4 5 6 
#
# 1 0.032424 -0.016688 -0.008537 0.000000 0.000000 0.000000
# 2 -0.016688 0.032424 -0.008537 0.000000 0.000000 0.000000
# 3 -0.008537 -0.008537 0.021182 0.000000 0.000000 0.000000
# 4 0.000000 0.000000 0.000000 0.067512 0.000000 0.000000
# 5 0.000000 0.000000 0.000000 0.000000 0.067512 0.000000
# 6 0.000000 0.000000 0.000000 0.000000 0.000000 0.076665
#
#
# Mechanical properties :
#
#
# Convention : Reuss Voigt Hill
#
# Bulk Modulus (GPa) = 54.03059 54.64230 54.33644
# Shear Modulus (GPa) = 13.46215 13.85869 13.66042
#
# Velocity S-wave (km/s) = 3.21653 3.26356 3.24013
# Velocity P-wave (km/s) = 7.43766 7.49635 7.46707
#
# Compressibility (1/GPa) = 0.01850804
#
# Stress axis : x y z
#
# Youngs Moduli (GPa) = 30.84116 30.84116 47.20967
#
# Poissons Ratio (x) = 0.51466 0.40302
# Poissons Ratio (y) = 0.51466 0.40302
# Poissons Ratio (z) = 0.26329 0.26329
#
# Static dielectric constant tensor:
#      x y z
#    x 1.411190 0.000000 0.000000 
#    y 0.000000 1.411190 0.000000 
#    z 0.000000 0.000000 1.433230 
# 
# From -- ./inp_files/14035.got.cif
#   From: 2010.05.17/outbox.cif.g08.bks.cpg/sg139_8_cif.got.tgz:14035.got - 2010.05.20 13:14:44.
