data_PCOD9571358
_publ_section_title
;
Structure prediction by ZEFSAII (Michael W. Deem and Ramdas Pophale) SiO2 
 PCOD9571358
Probable space group: I 4/M M M
;
_chemical_formula_sum "Si O2"
_cell_formula_units_Z 144
_cell_length_a 20.781328
_cell_length_b 20.781328
_cell_length_c 20.781304
_cell_angle_alpha 90.000000
_cell_angle_beta 90.000000
_cell_angle_gamma 90.000000
_cell_volume 8974.688622
_symmetry_space_group_name_H-M "I 4/M M M"
_symmetry_group_IT_number 139
_symmetry_cell_setting 'tetragonal'
loop_
_space_group_symop_operation_xyz
x,y,z
-y,x,z
-x,-y,z
y,-x,z
x,-y,-z
-x,y,-z
y,x,-z
-y,-x,-z
-x,-y,-z
y,-x,-z
x,y,-z
-y,x,-z
-x,y,z
x,-y,z
-y,-x,z
y,x,z
1/2+x,1/2+y,1/2+z
1/2-y,1/2+x,1/2+z
1/2-x,1/2-y,1/2+z
1/2+y,1/2-x,1/2+z
1/2+x,1/2-y,1/2-z
1/2-x,1/2+y,1/2-z
1/2+y,1/2+x,1/2-z
1/2-y,1/2-x,1/2-z
1/2-x,1/2-y,1/2-z
1/2+y,1/2-x,1/2-z
1/2+x,1/2+y,1/2-z
1/2-y,1/2+x,1/2-z
1/2-x,1/2+y,1/2+z
1/2+x,1/2-y,1/2+z
1/2-y,1/2-x,1/2+z
1/2+y,1/2+x,1/2+z
loop_
_atom_site_type_symbol
_atom_site_label
_atom_site_fract_x
_atom_site_fract_y
_atom_site_fract_z
Si Si1 0.784945 0.106672 0.500000
Si Si2 0.639316 0.250001 0.360684
Si Si3 0.319640 0.790265 0.500000
Si Si4 0.000000 0.784946 0.393328
Si Si5 0.000000 0.893328 0.715055
Si Si6 0.500000 0.290265 0.680360
Si Si7 0.500000 0.819640 0.209735
Si Si8 0.860685 0.639316 0.750000
O O1 0.839764 0.160237 0.500000
O O2 0.716651 0.141953 0.500000
O O3 0.791501 0.062044 0.437956
O O4 0.695081 0.304920 0.353008
O O5 0.644931 0.219729 0.432096
O O6 0.567904 0.280271 0.355069
O O7 0.646992 0.195082 0.304919
O O8 0.264413 0.735588 0.500000
O O9 0.000000 0.716652 0.358047
O O10 0.000000 0.839764 0.339763
O O11 0.062045 0.937956 0.708500
O O12 0.000000 0.858046 0.783349
O O13 0.500000 0.235587 0.735587
O O14 0.567904 0.855068 0.219729
#
# Coordination Sequence:
#
# PCOD9571358 Si02
#       8
#    16  32  16  16  16  16  16  16
#     4  10  19  31  47  69  99 134 171 210 254 308
#     4  10  19  33  52  74 100 130 166 207 255 310
#     4   9  19  32  48  71  95 123 162 207 252 298
#     4  10  19  31  47  69  99 134 171 210 254 308
#     4  10  19  31  47  69  99 134 171 210 254 308
#     4   9  19  32  48  71  95 123 162 207 252 298
#     4   9  19  32  48  71  95 123 162 207 252 298
#     4  10  19  33  52  74 100 130 166 207 255 310
#
# _framework density 16.045124999999999
#
# number of rings (size 3 to 8) (size 9 to 14) (size 15 to 20)
#    0.000    2.333    0.000    3.000    0.000    0.667 
#    0.000    6.667    0.000    2.667    0.000    0.000 
#    0.000   21.333    0.000    0.000    0.000    0.000 
#
# Total GULP energy -401106.033193 kJ/mol
# GULP energy per Si atom -5570.917128 kJ/mol
# Density = 1.600861 g / cm^3
# Si number density = 16.045125 Si / 1000 Ang^3
#
#
#
# Elastic Constant Matrix: (Units=GPa)
#
#
# Indices 1 2 3 4 5 6 
#
# 1 118.2386 63.7837 63.7835 0.0000 0.0000 0.0000
# 2 63.7837 118.2377 63.7831 0.0000 0.0000 0.0000
# 3 63.7835 63.7831 118.2367 0.0000 0.0000 0.0000
# 4 0.0000 0.0000 0.0000 13.5962 0.0000 0.0000
# 5 0.0000 0.0000 0.0000 0.0000 13.5229 0.0000
# 6 0.0000 0.0000 0.0000 0.0000 0.0000 13.5790
#
#
#
# Elastic Compliance Matrix: (Units=1/GPa)
#
#
# Indices 1 2 3 4 5 6 
#
# 1 0.013599 -0.004765 -0.004765 0.000000 0.000000 0.000000
# 2 -0.004765 0.013599 -0.004765 0.000000 0.000000 0.000000
# 3 -0.004765 -0.004765 0.013599 0.000000 0.000000 0.000000
# 4 0.000000 0.000000 0.000000 0.073550 0.000000 0.000000
# 5 0.000000 0.000000 0.000000 0.000000 0.073949 0.000000
# 6 0.000000 0.000000 0.000000 0.000000 0.000000 0.073643
#
#
# Mechanical properties :
#
#
# Convention : Reuss Voigt Hill
#
# Bulk Modulus (GPa) = 81.93486 81.93486 81.93486
# Shear Modulus (GPa) = 16.97231 19.03048 18.00139
#
# Velocity S-wave (km/s) = 3.25589 3.44766 3.35315
# Velocity P-wave (km/s) = 8.08149 8.18685 8.13435
#
# Compressibility (1/GPa) = 0.01220482
#
# Stress axis : x y z
#
# Youngs Moduli (GPa) = 73.53649 73.53608 73.53534
#
# Poissons Ratio (x) = 0.35042 0.35042
# Poissons Ratio (y) = 0.35042 0.35041
# Poissons Ratio (z) = 0.35042 0.35042
#
# Static dielectric constant tensor:
#      x y z
#    x 1.537840 0.000000 0.000000 
#    y 0.000000 1.537840 0.000000 
#    z 0.000000 0.000000 1.537840 
# 
# From -- ./inp_files/8359.got.cif
#   From: 2010.05.17/outbox.cif.g08.bks.cpg/sg139_5_cif.got.tgz:8359.got - 2010.05.20 13:14:44.
