data_PCOD9571962
_publ_section_title
;
Structure prediction by ZEFSAII (Michael W. Deem and Ramdas Pophale) SiO2 
 PCOD9571962
Probable space group: I 4/M M M
;
_chemical_formula_sum "Si O2"
_cell_formula_units_Z 60
_cell_length_a 21.000000
_cell_length_b 21.000000
_cell_length_c 15.000000
_cell_angle_alpha 90.000000
_cell_angle_beta 90.000000
_cell_angle_gamma 90.000000
_cell_volume 6615.000000
_symmetry_space_group_name_H-M "I 4/M M M"
_symmetry_group_IT_number 139
_symmetry_cell_setting 'tetragonal'
loop_
_space_group_symop_operation_xyz
x,y,z
-y,x,z
-x,-y,z
y,-x,z
x,-y,-z
-x,y,-z
y,x,-z
-y,-x,-z
-x,-y,-z
y,-x,-z
x,y,-z
-y,x,-z
-x,y,z
x,-y,z
-y,-x,z
y,x,z
1/2+x,1/2+y,1/2+z
1/2-y,1/2+x,1/2+z
1/2-x,1/2-y,1/2+z
1/2+y,1/2-x,1/2+z
1/2+x,1/2-y,1/2-z
1/2-x,1/2+y,1/2-z
1/2+y,1/2+x,1/2-z
1/2-y,1/2-x,1/2-z
1/2-x,1/2-y,1/2-z
1/2+y,1/2-x,1/2-z
1/2+x,1/2+y,1/2-z
1/2-y,1/2+x,1/2-z
1/2-x,1/2+y,1/2+z
1/2+x,1/2-y,1/2+z
1/2-y,1/2-x,1/2+z
1/2+y,1/2+x,1/2+z
loop_
_atom_site_type_symbol
_atom_site_label
_atom_site_fract_x
_atom_site_fract_y
_atom_site_fract_z
Si Si1 0.500000 0.802964 0.608335
Si Si2 0.373114 0.626887 0.813423
Si Si3 0.856923 0.644946 0.107101
Si Si4 0.575422 0.424579 0.000000
Si Si5 0.227029 0.772972 0.390429
Si Si6 0.500000 0.695430 0.245401
Si Si7 0.809950 0.500000 0.107988
O O1 0.500000 0.795291 0.500000
O O2 0.569280 0.836247 0.632143
O O3 0.500000 0.737957 0.665191
O O4 0.395578 0.604423 0.911074
O O5 0.319827 0.680174 0.835539
O O6 0.435026 0.655022 0.763581
O O7 0.799394 0.696988 0.131090
O O8 0.841532 0.570009 0.131924
O O9 0.856226 0.645384 0.000000
O O10 0.586827 0.500000 0.000000
O O11 0.221224 0.778777 0.500000
O O12 0.500000 0.743688 0.160948
O O13 0.802572 0.500000 0.000000
#
# Coordination Sequence:
#
# PCOD9571962 Si02
#       7
#    16  16  32   8  16  16  16
#     4  10  24  47  63  80 117 165 224 284 318 343
#     4  12  23  37  59  97 132 168 201 239 299 387
#     4   9  19  36  62  90 122 166 211 256 310 373
#     4  11  22  34  58  92 138 174 186 222 300 385
#     4  10  18  32  61  95 126 161 201 245 306 383
#     4  12  26  39  61  94 128 168 211 250 311 372
#     4  10  20  35  59  97 133 161 195 244 314 390
#
# _framework density 9.0702949999999998
#
# number of rings (size 3 to 8) (size 9 to 14) (size 15 to 20)
#    0.000    1.667    4.667    0.000    1.867    2.933 
#    0.000    6.000    0.000    1.600    0.000    0.933 
#    0.000    0.000    0.000    0.000    0.000    0.000 
#
# Total GULP energy -334170.974942 kJ/mol
# GULP energy per Si atom -5569.516249 kJ/mol
# Density = 0.904965 g / cm^3
# Si number density = 9.070295 Si / 1000 Ang^3
#
#
#
# Elastic Constant Matrix: (Units=GPa)
#
#
# Indices 1 2 3 4 5 6 
#
# 1 176.9699 82.1664 24.7263 0.0000 0.0000 0.0000
# 2 82.1664 176.9700 24.7263 0.0000 0.0000 0.0000
# 3 24.7263 24.7263 53.2220 0.0000 0.0000 0.0000
# 4 0.0000 0.0000 0.0000 1.2109 0.0000 0.0000
# 5 0.0000 0.0000 0.0000 0.0000 1.1986 0.0000
# 6 0.0000 0.0000 0.0000 0.0000 0.0000 50.1607
#
#
#
# Elastic Compliance Matrix: (Units=1/GPa)
#
#
# Indices 1 2 3 4 5 6 
#
# 1 0.007391 -0.003157 -0.001967 0.000000 0.000000 0.000000
# 2 -0.003157 0.007391 -0.001967 0.000000 0.000000 0.000000
# 3 -0.001967 -0.001967 0.020617 0.000000 0.000000 0.000000
# 4 0.000000 0.000000 0.000000 0.825842 0.000000 0.000000
# 5 0.000000 0.000000 0.000000 0.000000 0.834283 0.000000
# 6 0.000000 0.000000 0.000000 0.000000 0.000000 0.019936
#
#
# Mechanical properties :
#
#
# Convention : Reuss Voigt Hill
#
# Bulk Modulus (GPa) = 47.13215 74.48888 60.81051
# Shear Modulus (GPa) = 2.87900 28.88356 15.88128
#
# Velocity S-wave (km/s) = 1.26115 3.99457 2.96202
# Velocity P-wave (km/s) = 5.30647 7.90105 6.72998
#
# Compressibility (1/GPa) = 0.02121694
#
# Stress axis : x y z
#
# Youngs Moduli (GPa) = 135.29487 135.29489 48.50329
#
# Poissons Ratio (x) = 0.42711 0.09542
# Poissons Ratio (y) = 0.42711 0.09542
# Poissons Ratio (z) = 0.26616 0.26616
#
# Static dielectric constant tensor:
#      x y z
#    x 1.652940 0.000000 0.000000 
#    y 0.000000 1.652940 0.000000 
#    z 0.000000 0.000000 1.621890 
# 
# From -- ./inp_files/5399.got.cif
#   From: 2010.05.17/outbox.ucp.g08.bks.cvg/sg139_3_cif.got.tgz:5399.got - 2010.06.11 11:42:03.
