data_PCOD9571154
_publ_section_title
;
Structure prediction by ZEFSAII (Michael W. Deem and Ramdas Pophale) SiO2 
 PCOD9571154
Probable space group: I 4/M M M
;
_chemical_formula_sum "Si O2"
_cell_formula_units_Z 224
_cell_length_a 24.054486
_cell_length_b 24.054486
_cell_length_c 27.176364
_cell_angle_alpha 90.000000
_cell_angle_beta 90.000000
_cell_angle_gamma 90.000000
_cell_volume 15724.741449
_symmetry_space_group_name_H-M "I 4/M M M"
_symmetry_group_IT_number 139
_symmetry_cell_setting 'tetragonal'
loop_
_space_group_symop_operation_xyz
x,y,z
-y,x,z
-x,-y,z
y,-x,z
x,-y,-z
-x,y,-z
y,x,-z
-y,-x,-z
-x,-y,-z
y,-x,-z
x,y,-z
-y,x,-z
-x,y,z
x,-y,z
-y,-x,z
y,x,z
1/2+x,1/2+y,1/2+z
1/2-y,1/2+x,1/2+z
1/2-x,1/2-y,1/2+z
1/2+y,1/2-x,1/2+z
1/2+x,1/2-y,1/2-z
1/2-x,1/2+y,1/2-z
1/2+y,1/2+x,1/2-z
1/2-y,1/2-x,1/2-z
1/2-x,1/2-y,1/2-z
1/2+y,1/2-x,1/2-z
1/2+x,1/2+y,1/2-z
1/2-y,1/2+x,1/2-z
1/2-x,1/2+y,1/2+z
1/2+x,1/2-y,1/2+z
1/2-y,1/2-x,1/2+z
1/2+y,1/2+x,1/2+z
loop_
_atom_site_type_symbol
_atom_site_label
_atom_site_fract_x
_atom_site_fract_y
_atom_site_fract_z
Si Si1 0.379934 0.832913 0.151389
Si Si2 0.846049 0.936309 0.574494
Si Si3 0.267947 0.936587 0.741996
Si Si4 0.232369 0.676537 0.298270
Si Si5 0.934908 0.565765 0.692001
Si Si6 0.939910 0.147972 0.692701
Si Si7 0.066440 0.281914 0.554905
O O1 0.414638 0.805564 0.196776
O O2 0.315391 0.818649 0.160436
O O3 0.394357 0.897590 0.159041
O O4 0.401824 0.810509 0.099689
O O5 0.892619 0.892619 0.558692
O O6 0.843394 0.934473 0.634091
O O7 0.784309 0.922848 0.556509
O O8 0.859446 0.000000 0.560583
O O9 0.265261 0.888670 0.783424
O O10 0.206556 0.938850 0.719163
O O11 0.284137 0.000000 0.756493
O O12 0.289540 0.710461 0.308804
O O13 0.206228 0.706228 0.250000
O O14 0.928674 0.500000 0.684293
O O15 0.923552 0.576449 0.750000
O O16 0.000000 0.579879 0.682824
O O17 0.890450 0.109551 0.710138
O O18 0.000000 0.120961 0.701081
O O19 0.080220 0.302593 0.500000
O O20 0.000000 0.288671 0.562607
#
# Coordination Sequence:
#
# PCOD9571154 Si02
#       7
#    32  32  32  32  32  32  32
#     4  11  19  29  46  63  82 110 141 169 207 258
#     4   9  17  29  43  60  81 105 136 175 218 255
#     4  10  17  27  45  65  85 111 142 172 202 246
#     4   9  19  30  40  60  88 115 138 168 212 258
#     4   9  17  28  43  66  93 113 130 161 206 253
#     4   9  16  25  39  58  82 113 144 175 207 239
#     4  10  20  33  47  62  80 104 140 184 220 250
#
# _framework density 14.245068
#
# number of rings (size 3 to 8) (size 9 to 14) (size 15 to 20)
#    0.000    2.429    1.429    3.429    0.000    3.429 
#    0.000    1.429    0.000    0.429    0.000    4.000 
#    0.000    0.000    0.000    0.000    0.000    0.000 
#
# Total GULP energy -624046.364567 kJ/mol
# GULP energy per Si atom -5571.842541 kJ/mol
# Density = 1.421265 g / cm^3
# Si number density = 14.245068 Si / 1000 Ang^3
#
#
#
# Elastic Constant Matrix: (Units=GPa)
#
#
# Indices 1 2 3 4 5 6 
#
# 1 66.1285 34.2540 35.0285 0.0000 0.0000 0.0000
# 2 34.2540 66.1286 35.0286 0.0000 0.0000 0.0000
# 3 35.0285 35.0286 61.2623 0.0000 0.0000 0.0000
# 4 0.0000 0.0000 0.0000 4.4558 0.0000 0.0000
# 5 0.0000 0.0000 0.0000 0.0000 4.4558 0.0000
# 6 0.0000 0.0000 0.0000 0.0000 0.0000 20.4439
#
#
#
# Elastic Compliance Matrix: (Units=1/GPa)
#
#
# Indices 1 2 3 4 5 6 
#
# 1 0.023975 -0.007398 -0.009478 0.000000 0.000000 0.000000
# 2 -0.007398 0.023975 -0.009478 0.000000 0.000000 0.000000
# 3 -0.009478 -0.009478 0.027162 0.000000 0.000000 0.000000
# 4 0.000000 0.000000 0.000000 0.224427 0.000000 0.000000
# 5 0.000000 0.000000 0.000000 0.000000 0.224426 0.000000
# 6 0.000000 0.000000 0.000000 0.000000 0.000000 0.048914
#
#
# Mechanical properties :
#
#
# Convention : Reuss Voigt Hill
#
# Bulk Modulus (GPa) = 44.63748 44.68241 44.65995
# Shear Modulus (GPa) = 7.89819 11.81832 9.85826
#
# Velocity S-wave (km/s) = 2.35723 2.88348 2.63353
# Velocity P-wave (km/s) = 6.22994 6.52081 6.37703
#
# Compressibility (1/GPa) = 0.02240270
#
# Stress axis : x y z
#
# Youngs Moduli (GPa) = 41.71025 41.71028 36.81580
#
# Poissons Ratio (x) = 0.30858 0.34895
# Poissons Ratio (y) = 0.30858 0.34895
# Poissons Ratio (z) = 0.39534 0.39534
#
# Static dielectric constant tensor:
#      x y z
#    x 1.493420 0.000000 0.000000 
#    y 0.000000 1.493420 0.000000 
#    z 0.000000 0.000000 1.460200 
# 
# From -- ./inp_files/12244.got.cif
#   From: 2010.05.17/outbox.cif.g08.bks.cpg/sg139_7_cif.got.tgz:12244.got - 2010.05.20 13:14:44.
