data_PCOD9571767
_publ_section_title
;
Structure prediction by ZEFSAII (Michael W. Deem and Ramdas Pophale) SiO2 
 PCOD9571767
Probable space group: I 4/M M M
;
_chemical_formula_sum "Si O2"
_cell_formula_units_Z 120
_cell_length_a 18.246865
_cell_length_b 18.246865
_cell_length_c 20.936100
_cell_angle_alpha 90.000000
_cell_angle_beta 90.000000
_cell_angle_gamma 90.000000
_cell_volume 6970.634346
_symmetry_space_group_name_H-M "I 4/M M M"
_symmetry_group_IT_number 139
_symmetry_cell_setting 'tetragonal'
loop_
_space_group_symop_operation_xyz
x,y,z
-y,x,z
-x,-y,z
y,-x,z
x,-y,-z
-x,y,-z
y,x,-z
-y,-x,-z
-x,-y,-z
y,-x,-z
x,y,-z
-y,x,-z
-x,y,z
x,-y,z
-y,-x,z
y,x,z
1/2+x,1/2+y,1/2+z
1/2-y,1/2+x,1/2+z
1/2-x,1/2-y,1/2+z
1/2+y,1/2-x,1/2+z
1/2+x,1/2-y,1/2-z
1/2-x,1/2+y,1/2-z
1/2+y,1/2+x,1/2-z
1/2-y,1/2-x,1/2-z
1/2-x,1/2-y,1/2-z
1/2+y,1/2-x,1/2-z
1/2+x,1/2+y,1/2-z
1/2-y,1/2+x,1/2-z
1/2-x,1/2+y,1/2+z
1/2+x,1/2-y,1/2+z
1/2-y,1/2-x,1/2+z
1/2+y,1/2+x,1/2+z
loop_
_atom_site_type_symbol
_atom_site_label
_atom_site_fract_x
_atom_site_fract_y
_atom_site_fract_z
Si Si1 0.804696 0.412988 0.791198
Si Si2 0.087187 0.912814 0.000000
Si Si3 0.000000 0.582093 0.076331
Si Si4 0.655718 0.854215 0.573267
Si Si5 0.687416 0.687416 0.259672
Si Si6 0.316960 0.683041 0.408663
O O1 0.816525 0.500000 0.783343
O O2 0.865529 0.365529 0.750000
O O3 0.804637 0.391260 0.866502
O O4 0.725176 0.385076 0.767778
O O5 0.127459 0.872542 0.941653
O O6 0.000000 0.899979 0.000000
O O7 0.927845 0.626860 0.090623
O O8 0.000000 0.500000 0.104736
O O9 0.000000 0.573742 0.000000
O O10 0.670843 0.880576 0.500000
O O11 0.667347 0.767337 0.573725
O O12 0.750000 0.750000 0.250000
O O13 0.676164 0.676164 0.333708
#
# Coordination Sequence:
#
# PCOD9571767 Si02
#       6
#    32   8  16  32  16  16
#     4  11  23  38  60  86 121 159 199 254 309 368
#     4  11  28  44  60  92 128 158 218 281 314 358
#     4   9  20  34  50  76 116 152 185 237 293 362
#     4  11  21  35  56  84 114 152 198 241 301 368
#     4  10  20  41  58  84 119 154 209 246 286 369
#     4  12  21  36  66  84 113 162 206 252 308 368
#
# _framework density 17.215074999999999
#
# number of rings (size 3 to 8) (size 9 to 14) (size 15 to 20)
#    0.000    1.267    6.667    0.800    3.733    2.933 
#    0.000    0.000    0.000    0.400    0.000    0.000 
#    0.000    0.000    0.000    5.200    0.000    0.000 
#
# Total GULP energy -334239.328596 kJ/mol
# GULP energy per Si atom -5570.655477 kJ/mol
# Density = 1.717589 g / cm^3
# Si number density = 17.215075 Si / 1000 Ang^3
#
#
#
# Elastic Constant Matrix: (Units=GPa)
#
#
# Indices 1 2 3 4 5 6 
#
# 1 96.1985 67.7894 36.7154 0.0000 0.0000 0.0000
# 2 67.7894 96.1992 36.7155 0.0000 0.0000 0.0000
# 3 36.7154 36.7155 152.0085 0.0000 0.0000 0.0000
# 4 0.0000 0.0000 0.0000 26.1631 0.0000 0.0000
# 5 0.0000 0.0000 0.0000 0.0000 26.1636 0.0000
# 6 0.0000 0.0000 0.0000 0.0000 0.0000 16.8437
#
#
#
# Elastic Compliance Matrix: (Units=1/GPa)
#
#
# Indices 1 2 3 4 5 6 
#
# 1 0.021019 -0.014181 -0.001652 0.000000 0.000000 0.000000
# 2 -0.014181 0.021018 -0.001651 0.000000 0.000000 0.000000
# 3 -0.001652 -0.001651 0.007376 0.000000 0.000000 0.000000
# 4 0.000000 0.000000 0.000000 0.038222 0.000000 0.000000
# 5 0.000000 0.000000 0.000000 0.000000 0.038221 0.000000
# 6 0.000000 0.000000 0.000000 0.000000 0.000000 0.059369
#
#
# Mechanical properties :
#
#
# Convention : Reuss Voigt Hill
#
# Bulk Modulus (GPa) = 69.22625 69.64964 69.43794
# Shear Modulus (GPa) = 22.22136 27.37982 24.80059
#
# Velocity S-wave (km/s) = 3.59668 3.99238 3.79968
# Velocity P-wave (km/s) = 7.58604 7.86120 7.72485
#
# Compressibility (1/GPa) = 0.01444539
#
# Stress axis : x y z
#
# Youngs Moduli (GPa) = 47.57687 47.57721 135.56805
#
# Poissons Ratio (x) = 0.67469 0.22389
# Poissons Ratio (y) = 0.67469 0.22389
# Poissons Ratio (z) = 0.07857 0.07857
#
# Static dielectric constant tensor:
#      x y z
#    x 1.594290 0.000000 0.000000 
#    y 0.000000 1.594280 0.000000 
#    z 0.000000 0.000000 1.624320 
# 
# From -- ./inp_files/9870.got.cif
#   From: 2010.05.17/outbox.cif.g08.bks.cpg/sg139_5_cif.got.tgz:9870.got - 2010.05.20 13:14:44.
