data_PCOD9571233
_publ_section_title
;
Structure prediction by ZEFSAII (Michael W. Deem and Ramdas Pophale) SiO2 
 PCOD9571233
Probable space group: I 4/M M M
;
_chemical_formula_sum "Si O2"
_cell_formula_units_Z 192
_cell_length_a 27.648902
_cell_length_b 27.648902
_cell_length_c 13.919588
_cell_angle_alpha 90.000000
_cell_angle_beta 90.000000
_cell_angle_gamma 90.000000
_cell_volume 10640.993044
_symmetry_space_group_name_H-M "I 4/M M M"
_symmetry_group_IT_number 139
_symmetry_cell_setting 'tetragonal'
loop_
_space_group_symop_operation_xyz
x,y,z
-y,x,z
-x,-y,z
y,-x,z
x,-y,-z
-x,y,-z
y,x,-z
-y,-x,-z
-x,-y,-z
y,-x,-z
x,y,-z
-y,x,-z
-x,y,z
x,-y,z
-y,-x,z
y,x,z
1/2+x,1/2+y,1/2+z
1/2-y,1/2+x,1/2+z
1/2-x,1/2-y,1/2+z
1/2+y,1/2-x,1/2+z
1/2+x,1/2-y,1/2-z
1/2-x,1/2+y,1/2-z
1/2+y,1/2+x,1/2-z
1/2-y,1/2-x,1/2-z
1/2-x,1/2-y,1/2-z
1/2+y,1/2-x,1/2-z
1/2+x,1/2+y,1/2-z
1/2-y,1/2+x,1/2-z
1/2-x,1/2+y,1/2+z
1/2+x,1/2-y,1/2+z
1/2-y,1/2-x,1/2+z
1/2+y,1/2+x,1/2+z
loop_
_atom_site_type_symbol
_atom_site_label
_atom_site_fract_x
_atom_site_fract_y
_atom_site_fract_z
Si Si1 0.152642 0.416175 0.225581
Si Si2 0.000000 0.316540 0.390053
Si Si3 0.813340 0.889835 0.616774
Si Si4 0.272584 0.055516 0.114347
Si Si5 0.734504 0.340529 0.616058
Si Si6 0.787183 0.664704 0.883735
Si Si7 0.292823 0.500000 0.117514
O O1 0.099381 0.400620 0.250000
O O2 0.154797 0.454584 0.143138
O O3 0.181048 0.436207 0.317896
O O4 0.178819 0.370603 0.176230
O O5 0.000000 0.307390 0.500000
O O6 0.000000 0.262669 0.347555
O O7 0.812921 0.891619 0.500000
O O8 0.861393 0.861393 0.647246
O O9 0.766709 0.855513 0.640020
O O10 0.811301 0.946355 0.648237
O O11 0.240430 0.102822 0.141948
O O12 0.254358 0.000000 0.127174
O O13 0.283427 0.060399 0.000000
O O14 0.732598 0.340465 0.500000
O O15 0.686897 0.313104 0.652373
O O16 0.781174 0.306484 0.639239
O O17 0.792395 0.659426 0.000000
O O18 0.296247 0.500000 0.000000
#
# Coordination Sequence:
#
# PCOD9571233 Si02
#       7
#    32  16  32  32  32  32  16
#     4  12  22  34  56  84 109 142 182 225 275 328
#     4  11  22  38  59  84 113 143 184 233 276 321
#     4   9  16  26  43  69 102 141 183 226 276 333
#     4  10  21  37  54  74 105 148 192 231 270 323
#     4   9  17  31  52  77 110 150 186 224 276 338
#     4  10  18  30  49  76 110 144 177 217 273 337
#     4   9  16  28  48  70  98 141 183 223 272 325
#
# _framework density 18.043430000000001
#
# number of rings (size 3 to 8) (size 9 to 14) (size 15 to 20)
#    0.000    2.000    4.167    1.000    0.000    2.667 
#    0.000    2.500    0.000    0.500    0.000    2.333 
#    0.000    0.333    0.000    4.667    0.000    0.000 
#
# Total GULP energy -534633.324217 kJ/mol
# GULP energy per Si atom -5569.097127 kJ/mol
# Density = 1.800236 g / cm^3
# Si number density = 18.043430 Si / 1000 Ang^3
#
#
#
# Elastic Constant Matrix: (Units=GPa)
#
#
# Indices 1 2 3 4 5 6 
#
# 1 111.2578 75.3234 11.6450 0.0000 0.0000 0.0000
# 2 75.3234 111.2631 11.6465 0.0000 0.0000 0.0000
# 3 11.6450 11.6465 52.9764 0.0000 0.0000 0.0000
# 4 0.0000 0.0000 0.0000 20.0897 0.0000 0.0000
# 5 0.0000 0.0000 0.0000 0.0000 20.0901 0.0000
# 6 0.0000 0.0000 0.0000 0.0000 0.0000 38.6188
#
#
#
# Elastic Compliance Matrix: (Units=1/GPa)
#
#
# Indices 1 2 3 4 5 6 
#
# 1 0.016669 -0.011158 -0.001211 0.000000 0.000000 0.000000
# 2 -0.011158 0.016668 -0.001212 0.000000 0.000000 0.000000
# 3 -0.001211 -0.001212 0.019409 0.000000 0.000000 0.000000
# 4 0.000000 0.000000 0.000000 0.049777 0.000000 0.000000
# 5 0.000000 0.000000 0.000000 0.000000 0.049776 0.000000
# 6 0.000000 0.000000 0.000000 0.000000 0.000000 0.025894
#
#
# Mechanical properties :
#
#
# Convention : Reuss Voigt Hill
#
# Bulk Modulus (GPa) = 39.08583 52.52525 45.80554
# Shear Modulus (GPa) = 23.37734 27.55187 25.46460
#
# Velocity S-wave (km/s) = 3.60337 3.91189 3.76080
# Velocity P-wave (km/s) = 6.24672 7.04113 6.65579
#
# Compressibility (1/GPa) = 0.02558472
#
# Stress axis : x y z
#
# Youngs Moduli (GPa) = 59.99180 59.99436 51.52267
#
# Poissons Ratio (x) = 0.66941 0.06240
# Poissons Ratio (y) = 0.66938 0.06243
# Poissons Ratio (z) = 0.07266 0.07270
#
# Static dielectric constant tensor:
#      x y z
#    x 1.762790 0.000000 0.000000 
#    y 0.000000 1.763120 0.000000 
#    z 0.000000 0.000000 1.653480 
# 
# From -- ./inp_files/6490.got.cif
#   From: 2010.05.17/outbox.cif.g08.bks.cpg/sg139_4_cif.got.tgz:6490.got - 2010.05.20 13:14:44.
