data_PCOD9571570
_publ_section_title
;
Structure prediction by ZEFSAII (Michael W. Deem and Ramdas Pophale) SiO2 
 PCOD9571570
Probable space group: I 4/M M M
;
_chemical_formula_sum "Si O2"
_cell_formula_units_Z 160
_cell_length_a 24.965261
_cell_length_b 24.965261
_cell_length_c 15.057982
_cell_angle_alpha 90.000000
_cell_angle_beta 90.000000
_cell_angle_gamma 90.000000
_cell_volume 9385.101960
_symmetry_space_group_name_H-M "I 4/M M M"
_symmetry_group_IT_number 139
_symmetry_cell_setting 'tetragonal'
loop_
_space_group_symop_operation_xyz
x,y,z
-y,x,z
-x,-y,z
y,-x,z
x,-y,-z
-x,y,-z
y,x,-z
-y,-x,-z
-x,-y,-z
y,-x,-z
x,y,-z
-y,x,-z
-x,y,z
x,-y,z
-y,-x,z
y,x,z
1/2+x,1/2+y,1/2+z
1/2-y,1/2+x,1/2+z
1/2-x,1/2-y,1/2+z
1/2+y,1/2-x,1/2+z
1/2+x,1/2-y,1/2-z
1/2-x,1/2+y,1/2-z
1/2+y,1/2+x,1/2-z
1/2-y,1/2-x,1/2-z
1/2-x,1/2-y,1/2-z
1/2+y,1/2-x,1/2-z
1/2+x,1/2+y,1/2-z
1/2-y,1/2+x,1/2-z
1/2-x,1/2+y,1/2+z
1/2+x,1/2-y,1/2+z
1/2-y,1/2-x,1/2+z
1/2+y,1/2+x,1/2+z
loop_
_atom_site_type_symbol
_atom_site_label
_atom_site_fract_x
_atom_site_fract_y
_atom_site_fract_z
Si Si1 0.668206 0.747745 0.500000
Si Si2 0.915452 0.436552 0.000000
Si Si3 0.500000 0.169436 0.743770
Si Si4 0.613427 0.301689 0.327811
Si Si5 0.000000 0.233539 0.892241
Si Si6 0.000000 0.435476 0.147057
Si Si7 0.797980 0.618805 0.200870
Si Si8 0.133969 0.685323 0.500000
O O1 0.730949 0.730949 0.500000
O O2 0.642621 0.722151 0.586107
O O3 0.655360 0.809524 0.500000
O O4 0.948798 0.420582 0.913076
O O5 0.914418 0.500000 0.000000
O O6 0.857532 0.412893 0.000000
O O7 0.500000 0.207143 0.654352
O O8 0.500000 0.105451 0.727844
O O9 0.443442 0.183366 0.790288
O O10 0.641271 0.358730 0.308726
O O11 0.551509 0.298166 0.355251
O O12 0.623755 0.258438 0.251064
O O13 0.000000 0.237379 0.000000
O O14 0.000000 0.500000 0.158469
O O15 0.841800 0.658201 0.250000
O O16 0.788444 0.632020 0.097193
#
# Coordination Sequence:
#
# PCOD9571570 Si02
#       8
#    16  16  16  32  16  16  32  16
#     4  10  20  34  57  83 107 141 177 220 274 324
#     4   9  20  32  52  72  98 138 188 244 302 328
#     4  10  23  37  50  74 109 142 194 241 289 331
#     4  10  21  38  58  86 118 143 178 223 268 327
#     4  10  20  32  59  89 110 145 180 215 268 327
#     4   9  18  34  53  71  94 137 194 248 290 335
#     4  11  23  38  55  79 105 147 187 237 290 335
#     4  12  23  36  56  74 109 142 187 236 289 340
#
# _framework density 17.048297000000002
#
# number of rings (size 3 to 8) (size 9 to 14) (size 15 to 20)
#    0.000    1.800    3.000    1.800    5.600    1.200 
#    1.800    0.000    0.000    0.300    0.000    0.700 
#    0.000    0.000    0.000    0.000    0.000   11.900 
#
# Total GULP energy -445949.705139 kJ/mol
# GULP energy per Si atom -5574.371314 kJ/mol
# Density = 1.700949 g / cm^3
# Si number density = 17.048297 Si / 1000 Ang^3
#
#
#
# Elastic Constant Matrix: (Units=GPa)
#
#
# Indices 1 2 3 4 5 6 
#
# 1 44.3219 49.2196 35.8966 0.0000 0.0000 0.0000
# 2 49.2196 44.3227 35.8968 0.0000 0.0000 0.0000
# 3 35.8966 35.8968 125.8023 0.0000 0.0000 0.0000
# 4 0.0000 0.0000 0.0000 16.2659 0.0000 0.0000
# 5 0.0000 0.0000 0.0000 0.0000 16.2654 0.0000
# 6 0.0000 0.0000 0.0000 0.0000 0.0000 25.1491
#
#
#
# Elastic Compliance Matrix: (Units=1/GPa)
#
#
# Indices 1 2 3 4 5 6 
#
# 1 -0.095255 0.108942 -0.003906 0.000000 0.000000 0.000000
# 2 0.108942 -0.095253 -0.003906 0.000000 0.000000 0.000000
# 3 -0.003906 -0.003906 0.010178 0.000000 0.000000 0.000000
# 4 0.000000 0.000000 0.000000 0.061478 0.000000 0.000000
# 5 0.000000 0.000000 0.000000 0.000000 0.061480 0.000000
# 6 0.000000 0.000000 0.000000 0.000000 0.000000 0.039763
#
#
# Mechanical properties :
#
#
# Convention : Reuss Voigt Hill
#
# Bulk Modulus (GPa) = 45.59760 50.71921 48.15840
# Shear Modulus (GPa) = -23.52270 17.76502 -2.87884
#
# Velocity S-wave (km/s) = -3.71855 3.23157 -1.30089
# Velocity P-wave (km/s) = 2.89264 6.61354 5.10423
#
# Compressibility (1/GPa) = 0.02193098
#
# Stress axis : x y z
#
# Youngs Moduli (GPa) = -10.49810 -10.49833 98.25154
#
# Poissons Ratio (x) = 1.14371 0.38373
# Poissons Ratio (y) = 1.14369 0.38377
# Poissons Ratio (z) = -0.04100 -0.04101
#
# Static dielectric constant tensor:
#      x y z
#    x 1.659940 0.000000 0.000000 
#    y 0.000000 1.659940 0.000000 
#    z 0.000000 0.000000 1.637870 
# 
# From -- ./inp_files/6054.got.cif
#   From: 2010.05.17/outbox.cif.g08.bks.cpg/sg139_4_cif.got.tgz:6054.got - 2010.05.20 13:14:44.
