data_PCOD9571121
_publ_section_title
;
Structure prediction by ZEFSAII (Michael W. Deem and Ramdas Pophale) SiO2 
 PCOD9571121
Probable space group: P 42/N C M
;
_chemical_formula_sum "Si O2"
_cell_formula_units_Z 72
_cell_length_a 19.187846
_cell_length_b 19.187846
_cell_length_c 8.926017
_cell_angle_alpha 90.000000
_cell_angle_beta 90.000000
_cell_angle_gamma 90.000000
_cell_volume 3286.322332
_symmetry_space_group_name_H-M "P 42/N C M"
_symmetry_group_IT_number 138
_space_group.IT_coordinate_system_code '2'
_symmetry_cell_setting 'tetragonal'
loop_
_space_group_symop_operation_xyz
x,y,z
1/2-y,x,1/2+z
1/2-x,1/2-y,z
y,1/2-x,1/2+z
1/2+x,-y,1/2-z
-x,1/2+y,1/2-z
1/2+y,1/2+x,-z
-y,-x,-z
-x,-y,-z
1/2+y,-x,1/2-z
1/2+x,1/2+y,-z
-y,1/2+x,1/2-z
1/2-x,y,1/2+z
x,1/2-y,1/2+z
1/2-y,1/2-x,z
y,x,z
loop_
_atom_site_type_symbol
_atom_site_label
_atom_site_fract_x
_atom_site_fract_y
_atom_site_fract_z
Si Si1 0.900387 0.110195 0.681467
Si Si2 0.613097 0.613097 0.880526
Si Si3 0.455536 0.744809 0.723448
Si Si4 0.495394 0.495394 0.181679
Si Si5 0.689778 0.689778 0.615215
Si Si6 0.552930 0.744203 0.972572
O O1 0.896159 0.103842 0.500000
O O2 0.908961 0.189507 0.735747
O O3 0.829923 0.078428 0.754085
O O4 0.965522 0.065377 0.744060
O O5 0.563699 0.563699 0.784331
O O6 0.662104 0.662104 0.776395
O O7 0.567540 0.662562 0.983132
O O8 0.531105 0.756183 0.801381
O O9 0.480437 0.740044 0.552909
O O10 0.500000 0.500000 0.000000
O O11 0.750000 0.750000 0.625183
O O12 0.717046 0.621450 0.527936
#
# Coordination Sequence:
#
# PCOD9571121 Si02
#       6
#    16   8  16   8   8  16
#     4  12  27  49  76 108 148 192 245 305 373 435
#     4  12  24  42  67 100 148 187 236 296 350 434
#     4  12  27  48  74 107 142 189 243 306 365 429
#     4  12  25  46  77 108 140 196 254 302 359 445
#     4  12  26  38  66 105 146 193 235 290 364 441
#     4  12  24  45  69 102 147 185 239 296 360 430
#
# _framework density 21.908988999999998
#
# number of rings (size 3 to 8) (size 9 to 14) (size 15 to 20)
#    0.000    0.000    7.778    1.667    1.556    2.222 
#    0.000    1.111    0.000    0.000    0.000    0.000 
#    0.000    0.000    0.000    0.000    0.000    0.000 
#
# Total GULP energy -402087.055091 kJ/mol
# GULP energy per Si atom -5584.542432 kJ/mol
# Density = 2.185912 g / cm^3
# Si number density = 21.908989 Si / 1000 Ang^3
#
#
#
# Elastic Constant Matrix: (Units=GPa)
#
#
# Indices 1 2 3 4 5 6 
#
# 1 101.8378 54.3709 25.7706 0.0000 0.0000 0.0000
# 2 54.3709 101.8380 25.7702 0.0000 0.0000 0.0000
# 3 25.7706 25.7702 60.6594 0.0000 0.0000 0.0000
# 4 0.0000 0.0000 0.0000 30.5266 0.0000 0.0000
# 5 0.0000 0.0000 0.0000 0.0000 30.5265 0.0000
# 6 0.0000 0.0000 0.0000 0.0000 0.0000 42.4187
#
#
#
# Elastic Compliance Matrix: (Units=1/GPa)
#
#
# Indices 1 2 3 4 5 6 
#
# 1 0.014256 -0.006811 -0.003163 0.000000 0.000000 0.000000
# 2 -0.006811 0.014256 -0.003163 0.000000 0.000000 0.000000
# 3 -0.003163 -0.003163 0.019173 0.000000 0.000000 0.000000
# 4 0.000000 0.000000 0.000000 0.032758 0.000000 0.000000
# 5 0.000000 0.000000 0.000000 0.000000 0.032758 0.000000
# 6 0.000000 0.000000 0.000000 0.000000 0.000000 0.023575
#
#
# Mechanical properties :
#
#
# Convention : Reuss Voigt Hill
#
# Bulk Modulus (GPa) = 46.70389 52.90653 49.80521
# Shear Modulus (GPa) = 29.37924 31.25594 30.31759
#
# Velocity S-wave (km/s) = 3.66589 3.78117 3.72398
# Velocity P-wave (km/s) = 6.26753 6.57752 6.42439
#
# Compressibility (1/GPa) = 0.02141149
#
# Stress axis : x y z
#
# Youngs Moduli (GPa) = 70.14420 70.14456 52.15650
#
# Poissons Ratio (x) = 0.47775 0.16498
# Poissons Ratio (y) = 0.47775 0.16497
# Poissons Ratio (z) = 0.22188 0.22187
#
# Static dielectric constant tensor:
#      x y z
#    x 1.806280 0.000000 0.000000 
#    y 0.000000 1.806280 0.000000 
#    z 0.000000 0.000000 1.798490 
# 
# From -- ./inp_files/1554.got.cif
#   From: 2010.05.17/outbox.cif.g08.bks.cpg/sg138_1_cif.got.tgz:1554.got - 2010.05.20 13:08:53.
