data_PCOD9571975
_publ_section_title
;
Structure prediction by ZEFSAII (Michael W. Deem and Ramdas Pophale) SiO2 
 PCOD9571975
Probable space group: I 4/M M M
;
_chemical_formula_sum "Si O2"
_cell_formula_units_Z 64
_cell_length_a 30.000000
_cell_length_b 30.000000
_cell_length_c 9.000000
_cell_angle_alpha 90.000000
_cell_angle_beta 90.000000
_cell_angle_gamma 90.000000
_cell_volume 8100.000000
_symmetry_space_group_name_H-M "I 4/M M M"
_symmetry_group_IT_number 139
_symmetry_cell_setting 'tetragonal'
loop_
_space_group_symop_operation_xyz
x,y,z
-y,x,z
-x,-y,z
y,-x,z
x,-y,-z
-x,y,-z
y,x,-z
-y,-x,-z
-x,-y,-z
y,-x,-z
x,y,-z
-y,x,-z
-x,y,z
x,-y,z
-y,-x,z
y,x,z
1/2+x,1/2+y,1/2+z
1/2-y,1/2+x,1/2+z
1/2-x,1/2-y,1/2+z
1/2+y,1/2-x,1/2+z
1/2+x,1/2-y,1/2-z
1/2-x,1/2+y,1/2-z
1/2+y,1/2+x,1/2-z
1/2-y,1/2-x,1/2-z
1/2-x,1/2-y,1/2-z
1/2+y,1/2-x,1/2-z
1/2+x,1/2+y,1/2-z
1/2-y,1/2+x,1/2-z
1/2-x,1/2+y,1/2+z
1/2+x,1/2-y,1/2+z
1/2-y,1/2-x,1/2+z
1/2+y,1/2+x,1/2+z
loop_
_atom_site_type_symbol
_atom_site_label
_atom_site_fract_x
_atom_site_fract_y
_atom_site_fract_z
Si Si1 0.303618 0.303618 0.822520
Si Si2 0.949300 0.834727 0.667972
Si Si3 0.349331 0.784045 0.677599
Si Si4 0.370260 0.370260 0.330500
Si Si5 0.049709 0.259400 0.175230
O O1 0.258069 0.323189 0.751072
O O2 0.340229 0.340229 0.777505
O O3 0.298656 0.298656 0.000000
O O4 0.931554 0.839252 0.500000
O O5 0.920433 0.859853 0.788614
O O6 0.949022 0.783418 0.718773
O O7 0.000000 0.850179 0.668331
O O8 0.342068 0.782322 0.500000
O O9 0.327276 0.827276 0.750000
O O10 0.402878 0.783174 0.703046
O O11 0.359364 0.359364 0.500000
O O12 0.000000 0.280672 0.196343
O O13 0.051238 0.246027 0.000000
#
# Coordination Sequence:
#
# PCOD9571975 Si02
#       5
#    16  32  32  16  32
#     4  12  23  35  50  70 100 135 173 212 247 287
#     4  10  20  33  51  74  97 123 159 205 253 296
#     4  11  22  35  51  72 102 137 172 206 247 297
#     4  12  22  33  51  73  99 130 164 202 248 302
#     4   9  18  33  52  72  96 128 166 206 245 289
#
# _framework density 7.9012349999999998
#
# number of rings (size 3 to 8) (size 9 to 14) (size 15 to 20)
#    0.000    1.500    2.500    4.125    0.000    2.500 
#    0.000    0.000    0.000    0.375    0.000    2.625 
#    0.000    0.500    0.000    6.250    0.000    0.000 
#
# Total GULP energy -356618.810315 kJ/mol
# GULP energy per Si atom -5572.168911 kJ/mol
# Density = 0.788325 g / cm^3
# Si number density = 7.901235 Si / 1000 Ang^3
#
#
#
# Elastic Constant Matrix: (Units=GPa)
#
#
# Indices 1 2 3 4 5 6 
#
# 1 -488.6216 617.2617 34.3044 0.0000 0.0000 0.0000
# 2 617.2617 -488.6216 34.3044 0.0000 0.0000 0.0000
# 3 34.3044 34.3044 74.3979 0.0000 0.0000 0.0000
# 4 0.0000 0.0000 0.0000 28.7958 0.0000 0.0000
# 5 0.0000 0.0000 0.0000 0.0000 28.7958 0.0000
# 6 0.0000 0.0000 0.0000 0.0000 0.0000 14.6594
#
#
#
# Elastic Compliance Matrix: (Units=1/GPa)
#
#
# Indices 1 2 3 4 5 6 
#
# 1 0.004702 0.005607 -0.004753 0.000000 0.000000 0.000000
# 2 0.005607 0.004702 -0.004753 0.000000 0.000000 0.000000
# 3 -0.004753 -0.004753 0.017825 0.000000 0.000000 0.000000
# 4 0.000000 0.000000 0.000000 0.034727 0.000000 0.000000
# 5 0.000000 0.000000 0.000000 0.000000 0.034727 0.000000
# 6 0.000000 0.000000 0.000000 0.000000 0.000000 0.068216
#
#
# Mechanical properties :
#
#
# Convention : Reuss Voigt Hill
#
# Bulk Modulus (GPa) = 51.46953 52.09953 51.78453
# Shear Modulus (GPa) = 27.90552 -91.46421 -31.77935
#
# Velocity S-wave (km/s) = 4.20682 -7.61612 -4.48932
# Velocity P-wave (km/s) = 7.49918 6.65580 2.44315
#
# Compressibility (1/GPa) = 0.01942897
#
# Stress axis : x y z
#
# Youngs Moduli (GPa) = 212.66418 212.66418 56.10197
#
# Poissons Ratio (x) = -1.19230 0.26667
# Poissons Ratio (y) = -1.19230 0.26667
# Poissons Ratio (z) = 1.01086 1.01086
#
# Static dielectric constant tensor:
#      x y z
#    x 1.554220 0.000000 0.000000 
#    y 0.000000 1.554220 0.000000 
#    z 0.000000 0.000000 1.530080 
# 
# From -- ./inp_files/1843.got.cif
#   From: 2010.05.17/outbox.ucp.g08.bks.cvg/sg139_1_cif.got.tgz:1843.got - 2010.06.11 11:42:03.
