data_PCOD9571942
_publ_section_title
;
Structure prediction by ZEFSAII (Michael W. Deem and Ramdas Pophale) SiO2 
 PCOD9571942
Probable space group: I 4/M M M
;
_chemical_formula_sum "Si O2"
_cell_formula_units_Z 160
_cell_length_a 24.237911
_cell_length_b 24.237911
_cell_length_c 15.892551
_cell_angle_alpha 90.000000
_cell_angle_beta 90.000000
_cell_angle_gamma 90.000000
_cell_volume 9336.497530
_symmetry_space_group_name_H-M "I 4/M M M"
_symmetry_group_IT_number 139
_symmetry_cell_setting 'tetragonal'
loop_
_space_group_symop_operation_xyz
x,y,z
-y,x,z
-x,-y,z
y,-x,z
x,-y,-z
-x,y,-z
y,x,-z
-y,-x,-z
-x,-y,-z
y,-x,-z
x,y,-z
-y,x,-z
-x,y,z
x,-y,z
-y,-x,z
y,x,z
1/2+x,1/2+y,1/2+z
1/2-y,1/2+x,1/2+z
1/2-x,1/2-y,1/2+z
1/2+y,1/2-x,1/2+z
1/2+x,1/2-y,1/2-z
1/2-x,1/2+y,1/2-z
1/2+y,1/2+x,1/2-z
1/2-y,1/2-x,1/2-z
1/2-x,1/2-y,1/2-z
1/2+y,1/2-x,1/2-z
1/2+x,1/2+y,1/2-z
1/2-y,1/2+x,1/2-z
1/2-x,1/2+y,1/2+z
1/2+x,1/2-y,1/2+z
1/2-y,1/2-x,1/2+z
1/2+y,1/2+x,1/2+z
loop_
_atom_site_type_symbol
_atom_site_label
_atom_site_fract_x
_atom_site_fract_y
_atom_site_fract_z
Si Si1 0.566863 0.229768 0.904598
Si Si2 0.154854 0.064207 0.129520
Si Si3 0.625447 0.933817 0.000000
Si Si4 0.846041 0.935754 0.668927
Si Si5 0.248098 0.933453 0.000000
Si Si6 0.885497 0.566406 0.835766
O O1 0.500000 0.355488 0.853265
O O2 0.584502 0.289846 0.874134
O O3 0.581468 0.179243 0.844093
O O4 0.585326 0.218202 0.000000
O O5 0.104732 0.104732 0.106566
O O6 0.161994 0.066822 0.230111
O O7 0.142988 0.000000 0.108083
O O8 0.210420 0.081101 0.080554
O O9 0.689111 0.913003 0.000000
O O10 0.593668 0.913940 0.916873
O O11 0.626261 0.000000 0.000000
O O12 0.897471 0.897471 0.646344
O O13 0.731260 0.000000 0.594358
O O14 0.252291 0.000000 0.000000
O O15 0.890770 0.500000 0.839741
O O16 0.911525 0.588476 0.750000
#
# Coordination Sequence:
#
# PCOD9571942 Si02
#       6
#    32  32  16  32  16  32
#     4   9  18  35  56  76 103 142 183 216 252 309
#     4   9  17  30  49  75 107 141 179 223 266 312
#     4  11  23  37  56  82 112 143 173 214 267 322
#     4   9  18  31  52  80 109 142 178 221 269 315
#     4   9  19  32  48  72 102 142 185 215 251 309
#     4  11  23  38  58  84 111 141 174 214 267 323
#
# _framework density 17.137046999999999
#
# number of rings (size 3 to 8) (size 9 to 14) (size 15 to 20)
#    0.000    2.400    1.000    1.200    2.800    2.600 
#    0.000    2.000    0.000    4.800    0.000    2.800 
#    0.000    0.000    0.000    0.000    0.000    0.000 
#
# Total GULP energy -445940.463751 kJ/mol
# GULP energy per Si atom -5574.255797 kJ/mol
# Density = 1.709804 g / cm^3
# Si number density = 17.137047 Si / 1000 Ang^3
#
#
#
# Elastic Constant Matrix: (Units=GPa)
#
#
# Indices 1 2 3 4 5 6 
#
# 1 104.4026 54.9858 46.4662 0.0000 0.0000 0.0000
# 2 54.9858 104.4036 46.4675 0.0000 0.0000 0.0000
# 3 46.4662 46.4675 79.1515 0.0000 0.0000 0.0000
# 4 0.0000 0.0000 0.0000 23.1233 0.0000 0.0000
# 5 0.0000 0.0000 0.0000 0.0000 23.1242 0.0000
# 6 0.0000 0.0000 0.0000 0.0000 0.0000 -6.6689
#
#
#
# Elastic Compliance Matrix: (Units=1/GPa)
#
#
# Indices 1 2 3 4 5 6 
#
# 1 0.014887 -0.005348 -0.005600 0.000000 0.000000 0.000000
# 2 -0.005348 0.014888 -0.005600 0.000000 0.000000 0.000000
# 3 -0.005600 -0.005600 0.019209 0.000000 0.000000 0.000000
# 4 0.000000 0.000000 0.000000 0.043246 0.000000 0.000000
# 5 0.000000 0.000000 0.000000 0.000000 0.043245 0.000000
# 6 0.000000 0.000000 0.000000 0.000000 0.000000 -0.149950
#
#
# Mechanical properties :
#
#
# Convention : Reuss Voigt Hill
#
# Bulk Modulus (GPa) = 62.94380 64.86631 63.90506
# Shear Modulus (GPa) = 209.04243 17.25159 113.14701
#
# Velocity S-wave (km/s) = 11.05656 3.17627 8.13438
# Velocity P-wave (km/s) = 14.13528 7.16835 11.20695
#
# Compressibility (1/GPa) = 0.01588719
#
# Stress axis : x y z
#
# Youngs Moduli (GPa) = 67.17063 67.17026 52.05834
#
# Poissons Ratio (x) = 0.35925 0.29152
# Poissons Ratio (y) = 0.35925 0.29154
# Poissons Ratio (z) = 0.37615 0.37617
#
# Static dielectric constant tensor:
#      x y z
#    x 1.572990 0.000000 0.000000 
#    y 0.000000 1.572990 0.000000 
#    z 0.000000 0.000000 1.586960 
# 
# From -- ./inp_files/8451.got.cif
#   From: 2010.05.17/outbox.cif.g08.bks.cpg/sg139_5_cif.got.tgz:8451.got - 2010.05.20 13:14:44.
