data_PCOD9571234
_publ_section_title
;
Structure prediction by ZEFSAII (Michael W. Deem and Ramdas Pophale) SiO2 
 PCOD9571234
Probable space group: I 4/M M M
;
_chemical_formula_sum "Si O2"
_cell_formula_units_Z 160
_cell_length_a 30.086230
_cell_length_b 30.086230
_cell_length_c 10.457467
_cell_angle_alpha 90.000000
_cell_angle_beta 90.000000
_cell_angle_gamma 90.000000
_cell_volume 9465.902900
_symmetry_space_group_name_H-M "I 4/M M M"
_symmetry_group_IT_number 139
_symmetry_cell_setting 'tetragonal'
loop_
_space_group_symop_operation_xyz
x,y,z
-y,x,z
-x,-y,z
y,-x,z
x,-y,-z
-x,y,-z
y,x,-z
-y,-x,-z
-x,-y,-z
y,-x,-z
x,y,-z
-y,x,-z
-x,y,z
x,-y,z
-y,-x,z
y,x,z
1/2+x,1/2+y,1/2+z
1/2-y,1/2+x,1/2+z
1/2-x,1/2-y,1/2+z
1/2+y,1/2-x,1/2+z
1/2+x,1/2-y,1/2-z
1/2-x,1/2+y,1/2-z
1/2+y,1/2+x,1/2-z
1/2-y,1/2-x,1/2-z
1/2-x,1/2-y,1/2-z
1/2+y,1/2-x,1/2-z
1/2+x,1/2+y,1/2-z
1/2-y,1/2+x,1/2-z
1/2-x,1/2+y,1/2+z
1/2+x,1/2-y,1/2+z
1/2-y,1/2-x,1/2+z
1/2+y,1/2+x,1/2+z
loop_
_atom_site_type_symbol
_atom_site_label
_atom_site_fract_x
_atom_site_fract_y
_atom_site_fract_z
Si Si1 0.820672 0.609105 0.500000
Si Si2 0.840403 0.229160 0.000000
Si Si3 0.448882 0.378878 0.650449
Si Si4 0.181902 0.393062 0.000000
Si Si5 0.103217 0.202489 0.753628
Si Si6 0.446869 0.206400 0.253223
Si Si7 0.656048 0.725836 0.000000
O O1 0.781179 0.646434 0.500000
O O2 0.866501 0.635893 0.500000
O O3 0.814440 0.578152 0.624292
O O4 0.864678 0.210159 0.125559
O O5 0.790210 0.209791 0.000000
O O6 0.445075 0.365888 0.500000
O O7 0.500000 0.378194 0.685986
O O8 0.426963 0.426963 0.662780
O O9 0.420748 0.344106 0.731007
O O10 0.187768 0.423728 0.875051
O O11 0.221745 0.356053 0.000000
O O12 0.066265 0.241433 0.756451
O O13 0.131578 0.207417 0.625686
O O14 0.500000 0.200353 0.255646
O O15 0.706143 0.706143 0.000000
#
# Coordination Sequence:
#
# PCOD9571234 Si02
#       7
#    16  16  32  16  32  32  16
#     4  10  21  34  52  79 109 138 171 215 251 294
#     4  10  18  30  50  73 101 138 175 208 246 294
#     4  10  19  30  46  66  90 121 159 208 264 317
#     4  10  21  36  52  75 111 144 169 207 255 300
#     4  10  19  32  50  73  99 128 168 217 259 295
#     4  10  20  35  55  78 104 135 172 212 254 301
#     4  10  20  32  50  73 103 142 177 206 242 296
#
# _framework density 16.902773
#
# number of rings (size 3 to 8) (size 9 to 14) (size 15 to 20)
#    0.000    2.000    1.000    3.600    0.000    0.600 
#    0.000    2.500    0.000    7.200    0.000    0.000 
#    0.000   30.400    0.000    0.000    0.000    0.000 
#
# Total GULP energy -446274.632672 kJ/mol
# GULP energy per Si atom -5578.432908 kJ/mol
# Density = 1.686430 g / cm^3
# Si number density = 16.902773 Si / 1000 Ang^3
#
#
#
# Elastic Constant Matrix: (Units=GPa)
#
#
# Indices 1 2 3 4 5 6 
#
# 1 71.2163 70.0922 37.8153 0.0000 0.0000 0.0000
# 2 70.0922 71.2129 37.8145 0.0000 0.0000 0.0000
# 3 37.8153 37.8145 126.9150 0.0000 0.0000 0.0000
# 4 0.0000 0.0000 0.0000 25.2584 0.0000 0.0000
# 5 0.0000 0.0000 0.0000 0.0000 25.2571 0.0000
# 6 0.0000 0.0000 0.0000 0.0000 0.0000 19.1274
#
#
#
# Elastic Compliance Matrix: (Units=1/GPa)
#
#
# Indices 1 2 3 4 5 6 
#
# 1 0.449689 -0.441281 -0.002508 0.000000 0.000000 0.000000
# 2 -0.441281 0.449711 -0.002509 0.000000 0.000000 0.000000
# 3 -0.002508 -0.002509 0.009374 0.000000 0.000000 0.000000
# 4 0.000000 0.000000 0.000000 0.039591 0.000000 0.000000
# 5 0.000000 0.000000 0.000000 0.000000 0.039593 0.000000
# 6 0.000000 0.000000 0.000000 0.000000 0.000000 0.052281
#
#
# Mechanical properties :
#
#
# Convention : Reuss Voigt Hill
#
# Bulk Modulus (GPa) = 61.80988 62.30980 62.05984
# Shear Modulus (GPa) = 2.57968 22.17005 12.37486
#
# Velocity S-wave (km/s) = 1.23673 3.62556 2.70871
# Velocity P-wave (km/s) = 6.21986 7.38038 6.82483
#
# Compressibility (1/GPa) = 0.01617864
#
# Stress axis : x y z
#
# Youngs Moduli (GPa) = 2.22376 2.22365 106.67583
#
# Poissons Ratio (x) = 0.98125 0.26753
# Poissons Ratio (y) = 0.98130 0.26768
# Poissons Ratio (z) = 0.00558 0.00558
#
# Static dielectric constant tensor:
#      x y z
#    x 1.555300 0.000000 0.000000 
#    y 0.000000 1.555310 0.000000 
#    z 0.000000 0.000000 1.561120 
# 
# From -- ./inp_files/2325.got.cif
#   From: 2010.05.17/outbox.cif.g08.bks.cpg/sg139_2_cif.got.tgz:2325.got - 2010.05.20 13:14:44.
