data_PCOD9571714
_publ_section_title
;
Structure prediction by ZEFSAII (Michael W. Deem and Ramdas Pophale) SiO2 
 PCOD9571714
Probable space group: I 4/M M M
;
_chemical_formula_sum "Si O2"
_cell_formula_units_Z 164
_cell_length_a 21.662258
_cell_length_b 21.662258
_cell_length_c 19.516100
_cell_angle_alpha 90.000000
_cell_angle_beta 90.000000
_cell_angle_gamma 90.000000
_cell_volume 9157.996702
_symmetry_space_group_name_H-M "I 4/M M M"
_symmetry_group_IT_number 139
_symmetry_cell_setting 'tetragonal'
loop_
_space_group_symop_operation_xyz
x,y,z
-y,x,z
-x,-y,z
y,-x,z
x,-y,-z
-x,y,-z
y,x,-z
-y,-x,-z
-x,-y,-z
y,-x,-z
x,y,-z
-y,x,-z
-x,y,z
x,-y,z
-y,-x,z
y,x,z
1/2+x,1/2+y,1/2+z
1/2-y,1/2+x,1/2+z
1/2-x,1/2-y,1/2+z
1/2+y,1/2-x,1/2+z
1/2+x,1/2-y,1/2-z
1/2-x,1/2+y,1/2-z
1/2+y,1/2+x,1/2-z
1/2-y,1/2-x,1/2-z
1/2-x,1/2-y,1/2-z
1/2+y,1/2-x,1/2-z
1/2+x,1/2+y,1/2-z
1/2-y,1/2+x,1/2-z
1/2-x,1/2+y,1/2+z
1/2+x,1/2-y,1/2+z
1/2-y,1/2-x,1/2+z
1/2+y,1/2+x,1/2+z
loop_
_atom_site_type_symbol
_atom_site_label
_atom_site_fract_x
_atom_site_fract_y
_atom_site_fract_z
Si Si1 0.000000 0.000000 0.396897
Si Si2 0.500000 0.070872 0.916867
Si Si3 0.862862 0.762562 0.079488
Si Si4 0.000000 0.146984 0.581724
Si Si5 0.327741 0.572762 0.703724
Si Si6 0.845927 0.382031 0.081709
Si Si7 0.285360 0.614553 0.152354
O O1 0.075357 0.000000 0.401295
O O2 0.562994 0.107188 0.897695
O O3 0.500000 0.000000 0.892323
O O4 0.500000 0.068948 0.000000
O O5 0.795123 0.795123 0.089143
O O6 0.907047 0.796814 0.132676
O O7 0.866238 0.689138 0.091359
O O8 0.879500 0.773500 0.000000
O O9 0.060384 0.177414 0.614489
O O10 0.000000 0.155414 0.500000
O O11 0.332472 0.500000 0.710508
O O12 0.394002 0.605999 0.708608
O O13 0.288613 0.600157 0.766899
O O14 0.782888 0.387502 0.123194
O O15 0.834121 0.389644 0.000000
O O16 0.321252 0.678748 0.139728
#
# Coordination Sequence:
#
# PCOD9571714 Si02
#       7
#     4  16  32  16  32  32  32
#     4  12  25  36  48  76 120 164 213 254 289 320
#     4   9  19  35  54  81 115 146 188 239 285 347
#     4   9  19  37  61  87 113 141 184 243 303 361
#     4  12  22  34  50  74 113 164 206 244 282 326
#     4  10  22  39  57  84 117 154 197 238 288 344
#     4  10  20  35  58  86 115 151 190 236 295 348
#     4  11  22  35  53  81 116 156 198 240 282 341
#
# _framework density 17.907847
#
# number of rings (size 3 to 8) (size 9 to 14) (size 15 to 20)
#    0.000    1.854    1.951    2.195    0.000    4.878 
#    0.000    4.878    0.000    0.000    0.000    2.732 
#    0.000    0.000    0.000    0.000    0.000    0.000 
#
# Total GULP energy -456990.816034 kJ/mol
# GULP energy per Si atom -5573.058732 kJ/mol
# Density = 1.786709 g / cm^3
# Si number density = 17.907847 Si / 1000 Ang^3
#
#
#
# Elastic Constant Matrix: (Units=GPa)
#
#
# Indices 1 2 3 4 5 6 
#
# 1 107.5426 43.7146 23.9369 0.0000 0.0000 0.0000
# 2 43.7146 107.5426 23.9369 0.0000 0.0000 0.0000
# 3 23.9369 23.9369 47.9335 0.0000 0.0000 0.0000
# 4 0.0000 0.0000 0.0000 18.8138 0.0000 0.0000
# 5 0.0000 0.0000 0.0000 0.0000 18.8138 0.0000
# 6 0.0000 0.0000 0.0000 0.0000 0.0000 16.6005
#
#
#
# Elastic Compliance Matrix: (Units=1/GPa)
#
#
# Indices 1 2 3 4 5 6 
#
# 1 0.011760 -0.003907 -0.003921 0.000000 0.000000 0.000000
# 2 -0.003907 0.011760 -0.003921 0.000000 0.000000 0.000000
# 3 -0.003921 -0.003921 0.024779 0.000000 0.000000 0.000000
# 4 0.000000 0.000000 0.000000 0.053153 0.000000 0.000000
# 5 0.000000 0.000000 0.000000 0.000000 0.053153 0.000000
# 6 0.000000 0.000000 0.000000 0.000000 0.000000 0.060239
#
#
# Mechanical properties :
#
#
# Convention : Reuss Voigt Hill
#
# Bulk Modulus (GPa) = 40.32549 49.57728 44.95138
# Shear Modulus (GPa) = 20.27506 22.27429 21.27468
#
# Velocity S-wave (km/s) = 3.36845 3.53062 3.45049
# Velocity P-wave (km/s) = 6.13969 6.66072 6.40551
#
# Compressibility (1/GPa) = 0.02479821
#
# Stress axis : x y z
#
# Youngs Moduli (GPa) = 85.03589 85.03589 40.35732
#
# Poissons Ratio (x) = 0.33227 0.15825
# Poissons Ratio (y) = 0.33227 0.15825
# Poissons Ratio (z) = 0.33345 0.33345
#
# Static dielectric constant tensor:
#      x y z
#    x 1.600940 0.000000 0.000000 
#    y 0.000000 1.600940 0.000000 
#    z 0.000000 0.000000 1.609160 
# 
# From -- ./inp_files/10374.got.cif
#   From: 2010.05.17/outbox.cif.g08.bks.cpg/sg139_6_cif.got.tgz:10374.got - 2010.05.20 13:14:44.
