data_PCOD9571295
_publ_section_title
;
Structure prediction by ZEFSAII (Michael W. Deem and Ramdas Pophale) SiO2 
 PCOD9571295
Probable space group: I 4/M M M
;
_chemical_formula_sum "Si O2"
_cell_formula_units_Z 208
_cell_length_a 20.708667
_cell_length_b 20.708667
_cell_length_c 33.743640
_cell_angle_alpha 90.000000
_cell_angle_beta 90.000000
_cell_angle_gamma 90.000000
_cell_volume 14470.922522
_symmetry_space_group_name_H-M "I 4/M M M"
_symmetry_group_IT_number 139
_symmetry_cell_setting 'tetragonal'
loop_
_space_group_symop_operation_xyz
x,y,z
-y,x,z
-x,-y,z
y,-x,z
x,-y,-z
-x,y,-z
y,x,-z
-y,-x,-z
-x,-y,-z
y,-x,-z
x,y,-z
-y,x,-z
-x,y,z
x,-y,z
-y,-x,z
y,x,z
1/2+x,1/2+y,1/2+z
1/2-y,1/2+x,1/2+z
1/2-x,1/2-y,1/2+z
1/2+y,1/2-x,1/2+z
1/2+x,1/2-y,1/2-z
1/2-x,1/2+y,1/2-z
1/2+y,1/2+x,1/2-z
1/2-y,1/2-x,1/2-z
1/2-x,1/2-y,1/2-z
1/2+y,1/2-x,1/2-z
1/2+x,1/2+y,1/2-z
1/2-y,1/2+x,1/2-z
1/2-x,1/2+y,1/2+z
1/2+x,1/2-y,1/2+z
1/2-y,1/2-x,1/2+z
1/2+y,1/2+x,1/2+z
loop_
_atom_site_type_symbol
_atom_site_label
_atom_site_fract_x
_atom_site_fract_y
_atom_site_fract_z
Si Si1 0.878387 0.575338 0.099152
Si Si2 0.571219 0.923770 0.809924
Si Si3 0.330288 0.228498 0.871156
Si Si4 0.500000 0.921868 0.454809
Si Si5 0.324078 0.426083 0.172987
Si Si6 0.154446 0.697359 0.790781
Si Si7 0.681474 0.424949 0.266543
O O1 0.857779 0.500000 0.090894
O O2 0.909956 0.573156 0.143003
O O3 0.822118 0.629240 0.102216
O O4 0.934759 0.595215 0.068771
O O5 0.500000 0.902340 0.795535
O O6 0.630421 0.884962 0.792232
O O7 0.576920 0.000000 0.803039
O O8 0.273093 0.273093 0.889001
O O9 0.384133 0.276396 0.853288
O O10 0.301976 0.193671 0.831788
O O11 0.500000 0.898407 0.500000
O O12 0.500000 0.000000 0.455417
O O13 0.322608 0.500000 0.161284
O O14 0.394579 0.394579 0.169966
O O15 0.304617 0.420929 0.219229
O O16 0.195502 0.695502 0.750000
O O17 0.106958 0.758008 0.788285
O O18 0.672631 0.500000 0.276443
O O19 0.618165 0.381836 0.274038
#
# Coordination Sequence:
#
# PCOD9571295 Si02
#       7
#    32  32  32  16  32  32  32
#     4   9  16  28  45  65  90 114 139 173 211 253
#     4   9  17  28  40  57  84 115 143 177 222 269
#     4  10  19  29  43  59  81 116 150 181 219 266
#     4   9  16  28  50  76  96 114 138 167 203 251
#     4   9  17  28  41  57  76 103 143 187 232 271
#     4  11  20  29  42  57  79 110 149 191 229 263
#     4  10  20  32  44  57  74  98 137 190 240 281
#
# _framework density 14.373651000000001
#
# number of rings (size 3 to 8) (size 9 to 14) (size 15 to 20)
#    0.000    2.385    2.308    1.385    0.000    2.769 
#    0.000    2.308    0.000    0.462    0.000    0.000 
#    0.000    0.000    0.000    0.000    0.000    0.000 
#
# Total GULP energy -579519.691580 kJ/mol
# GULP energy per Si atom -5572.304727 kJ/mol
# Density = 1.434094 g / cm^3
# Si number density = 14.373651 Si / 1000 Ang^3
#
#
#
# Elastic Constant Matrix: (Units=GPa)
#
#
# Indices 1 2 3 4 5 6 
#
# 1 95.4116 49.3333 28.0844 0.0000 0.0000 0.0000
# 2 49.3333 95.4116 28.0844 0.0000 0.0000 0.0000
# 3 28.0844 28.0844 44.2557 0.0000 0.0000 0.0000
# 4 0.0000 0.0000 0.0000 8.5829 0.0000 0.0000
# 5 0.0000 0.0000 0.0000 0.0000 8.5829 0.0000
# 6 0.0000 0.0000 0.0000 0.0000 0.0000 22.3535
#
#
#
# Elastic Compliance Matrix: (Units=1/GPa)
#
#
# Indices 1 2 3 4 5 6 
#
# 1 0.015434 -0.006268 -0.005817 0.000000 0.000000 0.000000
# 2 -0.006268 0.015434 -0.005817 0.000000 0.000000 0.000000
# 3 -0.005817 -0.005817 0.029978 0.000000 0.000000 0.000000
# 4 0.000000 0.000000 0.000000 0.116511 0.000000 0.000000
# 5 0.000000 0.000000 0.000000 0.000000 0.116511 0.000000
# 6 0.000000 0.000000 0.000000 0.000000 0.000000 0.044736
#
#
# Mechanical properties :
#
#
# Convention : Reuss Voigt Hill
#
# Bulk Modulus (GPa) = 39.93026 49.56477 44.74751
# Shear Modulus (GPa) = 13.06320 16.54230 14.80275
#
# Velocity S-wave (km/s) = 3.01795 3.39614 3.21261
# Velocity P-wave (km/s) = 6.32333 7.06656 6.70525
#
# Compressibility (1/GPa) = 0.02504366
#
# Stress axis : x y z
#
# Youngs Moduli (GPa) = 64.79186 64.79186 33.35742
#
# Poissons Ratio (x) = 0.40613 0.19403
# Poissons Ratio (y) = 0.40613 0.19403
# Poissons Ratio (z) = 0.37687 0.37687
#
# Static dielectric constant tensor:
#      x y z
#    x 1.487530 0.000000 0.000000 
#    y 0.000000 1.487530 0.000000 
#    z 0.000000 0.000000 1.457960 
# 
# From -- ./inp_files/14494.got.cif
#   From: 2010.05.17/outbox.cif.g08.bks.cpg/sg139_8_cif.got.tgz:14494.got - 2010.05.20 13:14:44.
