data_PCOD9571704
_publ_section_title
;
Structure prediction by ZEFSAII (Michael W. Deem and Ramdas Pophale) SiO2 
 PCOD9571704
Probable space group: I 4/M M M
;
_chemical_formula_sum "Si O2"
_cell_formula_units_Z 160
_cell_length_a 30.871536
_cell_length_b 30.871536
_cell_length_c 8.957737
_cell_angle_alpha 90.000000
_cell_angle_beta 90.000000
_cell_angle_gamma 90.000000
_cell_volume 8537.186790
_symmetry_space_group_name_H-M "I 4/M M M"
_symmetry_group_IT_number 139
_symmetry_cell_setting 'tetragonal'
loop_
_space_group_symop_operation_xyz
x,y,z
-y,x,z
-x,-y,z
y,-x,z
x,-y,-z
-x,y,-z
y,x,-z
-y,-x,-z
-x,-y,-z
y,-x,-z
x,y,-z
-y,x,-z
-x,y,z
x,-y,z
-y,-x,z
y,x,z
1/2+x,1/2+y,1/2+z
1/2-y,1/2+x,1/2+z
1/2-x,1/2-y,1/2+z
1/2+y,1/2-x,1/2+z
1/2+x,1/2-y,1/2-z
1/2-x,1/2+y,1/2-z
1/2+y,1/2+x,1/2-z
1/2-y,1/2-x,1/2-z
1/2-x,1/2-y,1/2-z
1/2+y,1/2-x,1/2-z
1/2+x,1/2+y,1/2-z
1/2-y,1/2+x,1/2-z
1/2-x,1/2+y,1/2+z
1/2+x,1/2-y,1/2+z
1/2-y,1/2-x,1/2+z
1/2+y,1/2+x,1/2+z
loop_
_atom_site_type_symbol
_atom_site_label
_atom_site_fract_x
_atom_site_fract_y
_atom_site_fract_z
Si Si1 0.209938 0.895609 0.676804
Si Si2 0.116664 0.116664 0.177687
Si Si3 0.949080 0.050921 0.676943
Si Si4 0.948163 0.284041 0.827420
Si Si5 0.756732 0.683506 0.668973
Si Si6 0.449061 0.118275 0.680610
O O1 0.203967 0.896343 0.500000
O O2 0.163249 0.896985 0.755532
O O3 0.244173 0.931497 0.730462
O O4 0.232851 0.851744 0.731781
O O5 0.081426 0.081426 0.227083
O O6 0.120180 0.120180 0.000000
O O7 0.941392 0.058609 0.500000
O O8 0.000000 0.059080 0.705413
O O9 0.934859 0.332551 0.777037
O O10 0.000000 0.284669 0.826523
O O11 0.934290 0.277932 0.000000
O O12 0.764922 0.668301 0.500000
O O13 0.723792 0.723792 0.657954
O O14 0.799581 0.700420 0.750000
O O15 0.447235 0.116284 0.500000
O O16 0.500000 0.112361 0.722638
O O17 0.417830 0.082171 0.750000
#
# Coordination Sequence:
#
# PCOD9571704 Si02
#       6
#    32  16  16  32  32  32
#     4  12  24  38  59  86 118 153 194 244 295 348
#     4  12  25  41  62  89 122 159 198 241 289 345
#     4   9  20  42  70  97 125 155 188 233 291 353
#     4   9  20  40  61  80 110 153 198 243 291 347
#     4  10  20  35  56  80 110 147 187 230 277 333
#     4   9  19  36  58  85 117 154 196 243 295 350
#
# _framework density 18.741537000000001
#
# number of rings (size 3 to 8) (size 9 to 14) (size 15 to 20)
#    0.000    1.900    1.000    4.800    0.000    4.600 
#    0.000    5.500    0.000    0.000    0.000    0.000 
#    0.000    0.000    0.000    0.000    0.000    0.000 
#
# Total GULP energy -446547.630678 kJ/mol
# GULP energy per Si atom -5581.845383 kJ/mol
# Density = 1.869888 g / cm^3
# Si number density = 18.741537 Si / 1000 Ang^3
#
#
#
# Elastic Constant Matrix: (Units=GPa)
#
#
# Indices 1 2 3 4 5 6 
#
# 1 117.8202 35.0835 61.5883 0.0000 0.0000 0.0000
# 2 35.0835 117.8346 61.5864 0.0000 0.0000 0.0000
# 3 61.5883 61.5864 128.5418 0.0000 0.0000 0.0000
# 4 0.0000 0.0000 0.0000 29.0283 0.0000 0.0000
# 5 0.0000 0.0000 0.0000 0.0000 29.0280 0.0000
# 6 0.0000 0.0000 0.0000 0.0000 0.0000 32.8649
#
#
#
# Elastic Compliance Matrix: (Units=1/GPa)
#
#
# Indices 1 2 3 4 5 6 
#
# 1 0.011369 -0.000718 -0.005103 0.000000 0.000000 0.000000
# 2 -0.000718 0.011367 -0.005102 0.000000 0.000000 0.000000
# 3 -0.005103 -0.005102 0.012669 0.000000 0.000000 0.000000
# 4 0.000000 0.000000 0.000000 0.034449 0.000000 0.000000
# 5 0.000000 0.000000 0.000000 0.000000 0.034449 0.000000
# 6 0.000000 0.000000 0.000000 0.000000 0.000000 0.030428
#
#
# Mechanical properties :
#
#
# Convention : Reuss Voigt Hill
#
# Bulk Modulus (GPa) = 73.75376 75.63479 74.69428
# Shear Modulus (GPa) = 31.03720 31.91348 31.47534
#
# Velocity S-wave (km/s) = 4.07389 4.13100 4.10255
# Velocity P-wave (km/s) = 7.84649 7.94971 7.89827
#
# Compressibility (1/GPa) = 0.01355863
#
# Stress axis : x y z
#
# Youngs Moduli (GPa) = 87.95942 87.97558 78.93111
#
# Poissons Ratio (x) = 0.06313 0.40281
# Poissons Ratio (y) = 0.06312 0.40272
# Poissons Ratio (z) = 0.44889 0.44887
#
# Static dielectric constant tensor:
#      x y z
#    x 1.663730 0.000000 0.000000 
#    y 0.000000 1.663720 0.000000 
#    z 0.000000 0.000000 1.644620 
# 
# From -- ./inp_files/2231.got.cif
#   From: 2010.05.17/outbox.cif.g08.bks.cpg/sg139_2_cif.got.tgz:2231.got - 2010.05.20 13:14:44.
