data_PCOD9571909
_publ_section_title
;
Structure prediction by ZEFSAII (Michael W. Deem and Ramdas Pophale) SiO2 
 PCOD9571909
Probable space group: I 4/M M M
;
_chemical_formula_sum "Si O2"
_cell_formula_units_Z 168
_cell_length_a 24.563293
_cell_length_b 24.563293
_cell_length_c 14.922411
_cell_angle_alpha 90.000000
_cell_angle_beta 90.000000
_cell_angle_gamma 90.000000
_cell_volume 9003.516706
_symmetry_space_group_name_H-M "I 4/M M M"
_symmetry_group_IT_number 139
_symmetry_cell_setting 'tetragonal'
loop_
_space_group_symop_operation_xyz
x,y,z
-y,x,z
-x,-y,z
y,-x,z
x,-y,-z
-x,y,-z
y,x,-z
-y,-x,-z
-x,-y,-z
y,-x,-z
x,y,-z
-y,x,-z
-x,y,z
x,-y,z
-y,-x,z
y,x,z
1/2+x,1/2+y,1/2+z
1/2-y,1/2+x,1/2+z
1/2-x,1/2-y,1/2+z
1/2+y,1/2-x,1/2+z
1/2+x,1/2-y,1/2-z
1/2-x,1/2+y,1/2-z
1/2+y,1/2+x,1/2-z
1/2-y,1/2-x,1/2-z
1/2-x,1/2-y,1/2-z
1/2+y,1/2-x,1/2-z
1/2+x,1/2+y,1/2-z
1/2-y,1/2+x,1/2-z
1/2-x,1/2+y,1/2+z
1/2+x,1/2-y,1/2+z
1/2-y,1/2-x,1/2+z
1/2+y,1/2+x,1/2+z
loop_
_atom_site_type_symbol
_atom_site_label
_atom_site_fract_x
_atom_site_fract_y
_atom_site_fract_z
Si Si1 0.692349 0.307652 0.392807
Si Si2 0.717925 0.282076 0.889907
Si Si3 0.562711 0.342463 0.000000
Si Si4 0.878523 0.367478 0.398186
Si Si5 0.907010 0.738178 0.845276
Si Si6 0.500000 0.764007 0.500000
Si Si7 0.753017 0.095588 0.355271
Si Si8 0.936494 0.436494 0.250000
O O1 0.692024 0.307977 0.500000
O O2 0.737295 0.262706 0.366584
O O3 0.711961 0.366080 0.360995
O O4 0.733307 0.340322 0.851150
O O5 0.714242 0.285759 0.000000
O O6 0.570775 0.301377 0.084750
O O7 0.500000 0.363044 0.000000
O O8 0.609438 0.390562 0.000000
O O9 0.875242 0.387325 0.500000
O O10 0.817790 0.372162 0.356615
O O11 0.903050 0.306941 0.398415
O O12 0.915454 0.404689 0.336213
O O13 0.927931 0.744843 0.743966
O O14 0.952685 0.736359 0.920853
O O15 0.926601 0.500000 0.263215
#
# Coordination Sequence:
#
# PCOD9571909 Si02
#       8
#    16  16  16  32  32   8  32  16
#     4  11  21  37  61  96 133 175 219 260 332 417
#     4  11  19  35  65  98 145 165 200 267 325 404
#     4  12  28  48  70 102 139 175 221 281 347 415
#     4  12  23  41  66  97 132 172 219 280 346 384
#     4  12  25  39  64  97 132 181 220 267 337 396
#     4  12  28  44  56  90 145 177 220 272 324 388
#     4  12  22  41  67 101 133 169 215 268 333 403
#     4  11  28  48  64  85 122 180 242 281 320 386
#
# _framework density 18.659376000000002
#
# number of rings (size 3 to 8) (size 9 to 14) (size 15 to 20)
#    0.000    0.286    8.571    0.571    2.667    2.381 
#    0.000    0.952    0.000    0.000    0.000    0.000 
#    0.000    3.048    0.000    0.000    0.000    0.000 
#
# Total GULP energy -468329.086227 kJ/mol
# GULP energy per Si atom -5575.346265 kJ/mol
# Density = 1.861691 g / cm^3
# Si number density = 18.659376 Si / 1000 Ang^3
#
#
#
# Elastic Constant Matrix: (Units=GPa)
#
#
# Indices 1 2 3 4 5 6 
#
# 1 106.9837 36.3520 37.9244 0.0000 0.0000 0.0000
# 2 36.3520 106.9836 37.9248 0.0000 0.0000 0.0000
# 3 37.9244 37.9248 151.9493 0.0000 0.0000 0.0000
# 4 0.0000 0.0000 0.0000 -8.4503 0.0000 0.0000
# 5 0.0000 0.0000 0.0000 0.0000 -8.4464 0.0000
# 6 0.0000 0.0000 0.0000 0.0000 0.0000 17.7143
#
#
#
# Elastic Compliance Matrix: (Units=1/GPa)
#
#
# Indices 1 2 3 4 5 6 
#
# 1 0.011098 -0.003060 -0.002006 0.000000 0.000000 0.000000
# 2 -0.003060 0.011098 -0.002006 0.000000 0.000000 0.000000
# 3 -0.002006 -0.002006 0.007583 0.000000 0.000000 0.000000
# 4 0.000000 0.000000 0.000000 -0.118338 0.000000 0.000000
# 5 0.000000 0.000000 0.000000 0.000000 -0.118393 0.000000
# 6 0.000000 0.000000 0.000000 0.000000 0.000000 0.056452
#
#
# Mechanical properties :
#
#
# Convention : Reuss Voigt Hill
#
# Bulk Modulus (GPa) = 63.96246 65.59099 64.77673
# Shear Modulus (GPa) = -38.12577 17.07786 -10.52396
#
# Velocity S-wave (km/s) = -4.52514 3.02858 -2.37745
# Velocity P-wave (km/s) = 2.65536 6.88896 5.22057
#
# Compressibility (1/GPa) = 0.01563417
#
# Stress axis : x y z
#
# Youngs Moduli (GPa) = 90.10543 90.10515 131.88061
#
# Poissons Ratio (x) = 0.27571 0.26458
# Poissons Ratio (y) = 0.27571 0.26459
# Poissons Ratio (z) = 0.18077 0.18078
#
# Static dielectric constant tensor:
#      x y z
#    x 1.709080 0.000000 0.000000 
#    y 0.000000 1.709080 0.000000 
#    z 0.000000 0.000000 1.682300 
# 
# From -- ./inp_files/6219.got.cif
#   From: 2010.05.17/outbox.cif.g08.bks.cpg/sg139_4_cif.got.tgz:6219.got - 2010.05.20 13:14:44.
