data_PCOD9571559
_publ_section_title
;
Structure prediction by ZEFSAII (Michael W. Deem and Ramdas Pophale) SiO2 
 PCOD9571559
Probable space group: I 4/M M M
;
_chemical_formula_sum "Si O2"
_cell_formula_units_Z 160
_cell_length_a 18.649904
_cell_length_b 18.649904
_cell_length_c 27.244264
_cell_angle_alpha 90.000000
_cell_angle_beta 90.000000
_cell_angle_gamma 90.000000
_cell_volume 9476.070459
_symmetry_space_group_name_H-M "I 4/M M M"
_symmetry_group_IT_number 139
_symmetry_cell_setting 'tetragonal'
loop_
_space_group_symop_operation_xyz
x,y,z
-y,x,z
-x,-y,z
y,-x,z
x,-y,-z
-x,y,-z
y,x,-z
-y,-x,-z
-x,-y,-z
y,-x,-z
x,y,-z
-y,x,-z
-x,y,z
x,-y,z
-y,-x,z
y,x,z
1/2+x,1/2+y,1/2+z
1/2-y,1/2+x,1/2+z
1/2-x,1/2-y,1/2+z
1/2+y,1/2-x,1/2+z
1/2+x,1/2-y,1/2-z
1/2-x,1/2+y,1/2-z
1/2+y,1/2+x,1/2-z
1/2-y,1/2-x,1/2-z
1/2-x,1/2-y,1/2-z
1/2+y,1/2-x,1/2-z
1/2+x,1/2+y,1/2-z
1/2-y,1/2+x,1/2-z
1/2-x,1/2+y,1/2+z
1/2+x,1/2-y,1/2+z
1/2-y,1/2-x,1/2+z
1/2+y,1/2+x,1/2+z
loop_
_atom_site_type_symbol
_atom_site_label
_atom_site_fract_x
_atom_site_fract_y
_atom_site_fract_z
Si Si1 0.914968 0.718800 0.801798
Si Si2 0.344657 0.918207 0.348070
Si Si3 0.799227 0.083451 0.297671
Si Si4 0.640620 0.914869 0.055718
Si Si5 0.702245 0.415919 0.404565
O O1 0.879379 0.642790 0.813875
O O2 0.892543 0.757961 0.752035
O O3 0.903202 0.770421 0.848676
O O4 0.000000 0.706304 0.798263
O O5 0.259549 0.911458 0.340602
O O6 0.371211 0.900954 0.402781
O O7 0.364084 0.000000 0.334270
O O8 0.866654 0.133347 0.306060
O O9 0.819030 0.000000 0.291268
O O10 0.725953 0.903385 0.063510
O O11 0.628489 0.000000 0.064350
O O12 0.620177 0.897887 0.000000
O O13 0.682308 0.500000 0.409313
O O14 0.637955 0.362046 0.416283
#
# Coordination Sequence:
#
# PCOD9571559 Si02
#       5
#    32  32  32  32  32
#     4   9  18  32  49  71 101 136 169 199 235 282
#     4  10  20  32  49  76 104 128 160 200 240 289
#     4  10  21  36  53  74 100 130 166 205 243 285
#     4   9  19  35  52  70  95 129 166 202 243 292
#     4   9  17  29  46  69  97 129 167 209 249 291
#
# _framework density 16.884637000000001
#
# number of rings (size 3 to 8) (size 9 to 14) (size 15 to 20)
#    0.000    2.600    0.000    3.000    0.000    7.600 
#    0.000    2.000    0.000   10.800    0.000    2.800 
#    0.000    0.000    0.000    4.400    0.000    0.000 
#
# Total GULP energy -446122.749207 kJ/mol
# GULP energy per Si atom -5576.534365 kJ/mol
# Density = 1.684621 g / cm^3
# Si number density = 16.884637 Si / 1000 Ang^3
#
#
#
# Elastic Constant Matrix: (Units=GPa)
#
#
# Indices 1 2 3 4 5 6 
#
# 1 72.8761 58.0315 21.3194 0.0000 0.0000 0.0000
# 2 58.0315 72.8761 21.3194 0.0000 0.0000 0.0000
# 3 21.3194 21.3194 76.1192 0.0000 0.0000 0.0000
# 4 0.0000 0.0000 0.0000 11.4965 0.0000 0.0000
# 5 0.0000 0.0000 0.0000 0.0000 11.4965 0.0000
# 6 0.0000 0.0000 0.0000 0.0000 0.0000 46.3083
#
#
#
# Elastic Compliance Matrix: (Units=1/GPa)
#
#
# Indices 1 2 3 4 5 6 
#
# 1 0.037885 -0.029479 -0.002354 0.000000 0.000000 0.000000
# 2 -0.029479 0.037885 -0.002354 0.000000 0.000000 0.000000
# 3 -0.002354 -0.002354 0.014456 0.000000 0.000000 0.000000
# 4 0.000000 0.000000 0.000000 0.086983 0.000000 0.000000
# 5 0.000000 0.000000 0.000000 0.000000 0.086983 0.000000
# 6 0.000000 0.000000 0.000000 0.000000 0.000000 0.021594
#
#
# Mechanical properties :
#
#
# Convention : Reuss Voigt Hill
#
# Bulk Modulus (GPa) = 45.76549 47.02353 46.39451
# Shear Modulus (GPa) = 13.83335 21.94036 17.88685
#
# Velocity S-wave (km/s) = 2.86542 3.60867 3.25831
# Velocity P-wave (km/s) = 6.17343 6.72857 6.45697
#
# Compressibility (1/GPa) = 0.02185053
#
# Stress axis : x y z
#
# Youngs Moduli (GPa) = 26.39563 26.39563 69.17518
#
# Poissons Ratio (x) = 0.77812 0.16286
# Poissons Ratio (y) = 0.77812 0.16286
# Poissons Ratio (z) = 0.06214 0.06214
#
# Static dielectric constant tensor:
#      x y z
#    x 1.559000 0.000000 0.000000 
#    y 0.000000 1.559000 0.000000 
#    z 0.000000 0.000000 1.590480 
# 
# From -- ./inp_files/12902.got.cif
#   From: 2010.05.17/outbox.cif.g08.bks.cpg/sg139_7_cif.got.tgz:12902.got - 2010.05.20 13:14:44.
