data_PCOD9571646
_publ_section_title
;
Structure prediction by ZEFSAII (Michael W. Deem and Ramdas Pophale) SiO2 
 PCOD9571646
Probable space group: I 4/M M M
;
_chemical_formula_sum "Si O2"
_cell_formula_units_Z 176
_cell_length_a 18.402178
_cell_length_b 18.402178
_cell_length_c 28.297837
_cell_angle_alpha 90.000000
_cell_angle_beta 90.000000
_cell_angle_gamma 90.000000
_cell_volume 9582.783912
_symmetry_space_group_name_H-M "I 4/M M M"
_symmetry_group_IT_number 139
_symmetry_cell_setting 'tetragonal'
loop_
_space_group_symop_operation_xyz
x,y,z
-y,x,z
-x,-y,z
y,-x,z
x,-y,-z
-x,y,-z
y,x,-z
-y,-x,-z
-x,-y,-z
y,-x,-z
x,y,-z
-y,x,-z
-x,y,z
x,-y,z
-y,-x,z
y,x,z
1/2+x,1/2+y,1/2+z
1/2-y,1/2+x,1/2+z
1/2-x,1/2-y,1/2+z
1/2+y,1/2-x,1/2+z
1/2+x,1/2-y,1/2-z
1/2-x,1/2+y,1/2-z
1/2+y,1/2+x,1/2-z
1/2-y,1/2-x,1/2-z
1/2-x,1/2-y,1/2-z
1/2+y,1/2-x,1/2-z
1/2+x,1/2+y,1/2-z
1/2-y,1/2+x,1/2-z
1/2-x,1/2+y,1/2+z
1/2+x,1/2-y,1/2+z
1/2-y,1/2-x,1/2+z
1/2+y,1/2+x,1/2+z
loop_
_atom_site_type_symbol
_atom_site_label
_atom_site_fract_x
_atom_site_fract_y
_atom_site_fract_z
Si Si1 0.200351 0.585696 0.141394
Si Si2 0.701511 0.584743 0.597159
Si Si3 0.918883 0.500000 0.556957
Si Si4 0.309502 0.916286 0.185891
Si Si5 0.337581 0.850495 0.054616
Si Si6 0.796066 0.915422 0.730055
O O1 0.186253 0.500000 0.133318
O O2 0.135493 0.625743 0.169694
O O3 0.205797 0.629251 0.092038
O O4 0.268809 0.592045 0.176235
O O5 0.696607 0.500000 0.583539
O O6 0.624760 0.624760 0.600867
O O7 0.745533 0.588893 0.646597
O O8 0.753436 0.630537 0.562194
O O9 0.923268 0.500000 0.500000
O O10 0.876793 0.426752 0.568774
O O11 0.000000 0.500000 0.576665
O O12 0.270958 0.897257 0.235138
O O13 0.333980 0.000000 0.187718
O O14 0.352978 0.833777 0.000000
O O15 0.862391 0.862391 0.739760
O O16 0.813943 0.000000 0.738957
#
# Coordination Sequence:
#
# PCOD9571646 Si02
#       6
#    32  32  16  32  32  32
#     4  10  21  33  51  81 112 143 177 212 257 316
#     4  10  20  34  52  75 104 139 181 228 274 320
#     4   9  16  28  50  74  95 125 163 207 258 302
#     4   9  19  35  54  78 109 143 179 217 259 309
#     4  10  20  35  52  74 105 138 178 223 266 314
#     4  10  21  38  58  80 106 136 175 221 266 316
#
# _framework density 18.366271000000001
#
# number of rings (size 3 to 8) (size 9 to 14) (size 15 to 20)
#    0.000    2.273    0.909    1.636    1.273    6.545 
#    0.000    0.000    0.000    6.545    0.000    1.273 
#    0.000    0.000    0.000    4.000    0.000    0.000 
#
# Total GULP energy -490938.108566 kJ/mol
# GULP energy per Si atom -5578.842143 kJ/mol
# Density = 1.832447 g / cm^3
# Si number density = 18.366271 Si / 1000 Ang^3
#
#
#
# Elastic Constant Matrix: (Units=GPa)
#
#
# Indices 1 2 3 4 5 6 
#
# 1 55.4515 45.1479 14.2911 0.0000 0.0000 0.0000
# 2 45.1479 55.4515 14.2911 0.0000 0.0000 0.0000
# 3 14.2911 14.2911 95.7188 0.0000 0.0000 0.0000
# 4 0.0000 0.0000 0.0000 14.0107 0.0000 0.0000
# 5 0.0000 0.0000 0.0000 0.0000 14.0107 0.0000
# 6 0.0000 0.0000 0.0000 0.0000 0.0000 6.9140
#
#
#
# Elastic Compliance Matrix: (Units=1/GPa)
#
#
# Indices 1 2 3 4 5 6 
#
# 1 0.053717 -0.043337 -0.001550 0.000000 0.000000 0.000000
# 2 -0.043337 0.053717 -0.001550 0.000000 0.000000 0.000000
# 3 -0.001550 -0.001550 0.010910 0.000000 0.000000 0.000000
# 4 0.000000 0.000000 0.000000 0.071374 0.000000 0.000000
# 5 0.000000 0.000000 0.000000 0.000000 0.071374 0.000000
# 6 0.000000 0.000000 0.000000 0.000000 0.000000 0.144633
#
#
# Mechanical properties :
#
#
# Convention : Reuss Voigt Hill
#
# Bulk Modulus (GPa) = 39.25865 39.34244 39.30054
# Shear Modulus (GPa) = 9.86018 15.84651 12.85335
#
# Velocity S-wave (km/s) = 2.31955 2.94054 2.64831
# Velocity P-wave (km/s) = 5.34748 5.74426 5.54942
#
# Compressibility (1/GPa) = 0.02547209
#
# Stress axis : x y z
#
# Youngs Moduli (GPa) = 18.61593 18.61593 91.65838
#
# Poissons Ratio (x) = 0.80675 0.14206
# Poissons Ratio (y) = 0.80675 0.14206
# Poissons Ratio (z) = 0.02885 0.02885
#
# Static dielectric constant tensor:
#      x y z
#    x 1.630370 0.000000 0.000000 
#    y 0.000000 1.630370 0.000000 
#    z 0.000000 0.000000 1.677380 
# 
# From -- ./inp_files/14241.got.cif
#   From: 2010.05.17/outbox.cif.g08.bks.cpg/sg139_8_cif.got.tgz:14241.got - 2010.05.20 13:14:44.
