data_PCOD9571281
_publ_section_title
;
Structure prediction by ZEFSAII (Michael W. Deem and Ramdas Pophale) SiO2 
 PCOD9571281
Probable space group: I 4/M M M
;
_chemical_formula_sum "Si O2"
_cell_formula_units_Z 240
_cell_length_a 27.923853
_cell_length_b 27.923853
_cell_length_c 17.848605
_cell_angle_alpha 90.000000
_cell_angle_beta 90.000000
_cell_angle_gamma 90.000000
_cell_volume 13917.299220
_symmetry_space_group_name_H-M "I 4/M M M"
_symmetry_group_IT_number 139
_symmetry_cell_setting 'tetragonal'
loop_
_space_group_symop_operation_xyz
x,y,z
-y,x,z
-x,-y,z
y,-x,z
x,-y,-z
-x,y,-z
y,x,-z
-y,-x,-z
-x,-y,-z
y,-x,-z
x,y,-z
-y,x,-z
-x,y,z
x,-y,z
-y,-x,z
y,x,z
1/2+x,1/2+y,1/2+z
1/2-y,1/2+x,1/2+z
1/2-x,1/2-y,1/2+z
1/2+y,1/2-x,1/2+z
1/2+x,1/2-y,1/2-z
1/2-x,1/2+y,1/2-z
1/2+y,1/2+x,1/2-z
1/2-y,1/2-x,1/2-z
1/2-x,1/2-y,1/2-z
1/2+y,1/2-x,1/2-z
1/2+x,1/2+y,1/2-z
1/2-y,1/2+x,1/2-z
1/2-x,1/2+y,1/2+z
1/2+x,1/2-y,1/2+z
1/2-y,1/2-x,1/2+z
1/2+y,1/2+x,1/2+z
loop_
_atom_site_type_symbol
_atom_site_label
_atom_site_fract_x
_atom_site_fract_y
_atom_site_fract_z
Si Si1 0.858483 0.354680 0.339197
Si Si2 0.187416 0.553130 0.410229
Si Si3 0.904955 0.210336 0.911324
Si Si4 0.442932 0.201625 0.909872
Si Si5 0.193401 0.942142 0.643616
Si Si6 0.867403 0.057389 0.500000
Si Si7 0.442215 0.635931 0.293327
Si Si8 0.232356 0.691697 0.589736
O O1 0.857585 0.357585 0.250000
O O2 0.842930 0.405870 0.371722
O O3 0.908849 0.337953 0.373492
O O4 0.816767 0.318709 0.367867
O O5 0.182475 0.557762 0.500000
O O6 0.173406 0.500000 0.386973
O O7 0.243651 0.561720 0.394250
O O8 0.922364 0.165421 0.864165
O O9 0.851766 0.230420 0.894129
O O10 0.906890 0.200301 0.000000
O O11 0.500000 0.194013 0.897671
O O12 0.428129 0.251873 0.871172
O O13 0.435885 0.204933 0.000000
O O14 0.161450 0.926530 0.573373
O O15 0.168509 0.928717 0.721187
O O16 0.193780 0.000000 0.641802
O O17 0.919107 0.080894 0.500000
O O18 0.869829 0.000000 0.500000
O O19 0.500000 0.630842 0.296035
O O20 0.414322 0.585679 0.287867
O O21 0.223426 0.689661 0.500000
O O22 0.258897 0.741104 0.607763
#
# Coordination Sequence:
#
# PCOD9571281 Si02
#       8
#    32  32  32  32  32  16  32  32
#     4  11  23  34  52  86 121 148 179 223 275 333
#     4   9  18  35  59  83 108 142 183 226 267 311
#     4   9  18  34  57  83 104 133 181 232 280 331
#     4  10  20  38  62  82 108 149 192 230 270 324
#     4   9  19  35  54  76 100 134 179 231 277 315
#     4  10  18  33  54  76 106 138 177 227 281 335
#     4  11  23  36  52  75 105 140 180 228 280 337
#     4   9  18  35  55  73 104 148 185 221 270 327
#
# _framework density 17.244724999999999
#
# number of rings (size 3 to 8) (size 9 to 14) (size 15 to 20)
#    0.000    2.267    0.667    3.200    3.733    2.600 
#    0.000    1.333    0.000    2.800    0.000    3.733 
#    0.000    0.000    0.000    0.000    0.000    0.000 
#
# Total GULP energy -669401.638056 kJ/mol
# GULP energy per Si atom -5578.346984 kJ/mol
# Density = 1.720548 g / cm^3
# Si number density = 17.244725 Si / 1000 Ang^3
#
#
#
# Elastic Constant Matrix: (Units=GPa)
#
#
# Indices 1 2 3 4 5 6 
#
# 1 74.9775 51.1997 39.1396 0.0000 0.0000 0.0000
# 2 51.1997 74.9790 39.1394 0.0000 0.0000 0.0000
# 3 39.1396 39.1394 63.5936 0.0000 0.0000 0.0000
# 4 0.0000 0.0000 0.0000 15.9693 0.0000 0.0000
# 5 0.0000 0.0000 0.0000 0.0000 15.9705 0.0000
# 6 0.0000 0.0000 0.0000 0.0000 0.0000 20.4182
#
#
#
# Elastic Compliance Matrix: (Units=1/GPa)
#
#
# Indices 1 2 3 4 5 6 
#
# 1 0.027438 -0.014617 -0.007891 0.000000 0.000000 0.000000
# 2 -0.014617 0.027437 -0.007890 0.000000 0.000000 0.000000
# 3 -0.007891 -0.007890 0.025438 0.000000 0.000000 0.000000
# 4 0.000000 0.000000 0.000000 0.062620 0.000000 0.000000
# 5 0.000000 0.000000 0.000000 0.000000 0.062616 0.000000
# 6 0.000000 0.000000 0.000000 0.000000 0.000000 0.048976
#
#
# Mechanical properties :
#
#
# Convention : Reuss Voigt Hill
#
# Bulk Modulus (GPa) = 51.23910 52.50085 51.86997
# Shear Modulus (GPa) = 15.53635 16.07637 15.80636
#
# Velocity S-wave (km/s) = 3.00481 3.05659 3.03081
# Velocity P-wave (km/s) = 6.46652 6.55497 6.51090
#
# Compressibility (1/GPa) = 0.01951635
#
# Stress axis : x y z
#
# Youngs Moduli (GPa) = 36.44575 36.44701 39.31202
#
# Poissons Ratio (x) = 0.53275 0.31021
# Poissons Ratio (y) = 0.53273 0.31018
# Poissons Ratio (z) = 0.28759 0.28757
#
# Static dielectric constant tensor:
#      x y z
#    x 1.580630 0.000000 0.000000 
#    y 0.000000 1.580630 0.000000 
#    z 0.000000 0.000000 1.590420 
# 
# From -- ./inp_files/6768.got.cif
#   From: 2010.05.17/outbox.cif.g08.bks.cpg/sg139_4_cif.got.tgz:6768.got - 2010.05.20 13:14:44.
