data_PCOD9571423
_publ_section_title
;
Structure prediction by ZEFSAII (Michael W. Deem and Ramdas Pophale) SiO2 
 PCOD9571423
Probable space group: I 4/M M M
;
_chemical_formula_sum "Si O2"
_cell_formula_units_Z 144
_cell_length_a 20.600320
_cell_length_b 20.600320
_cell_length_c 20.815585
_cell_angle_alpha 90.000000
_cell_angle_beta 90.000000
_cell_angle_gamma 90.000000
_cell_volume 8833.576085
_symmetry_space_group_name_H-M "I 4/M M M"
_symmetry_group_IT_number 139
_symmetry_cell_setting 'tetragonal'
loop_
_space_group_symop_operation_xyz
x,y,z
-y,x,z
-x,-y,z
y,-x,z
x,-y,-z
-x,y,-z
y,x,-z
-y,-x,-z
-x,-y,-z
y,-x,-z
x,y,-z
-y,x,-z
-x,y,z
x,-y,z
-y,-x,z
y,x,z
1/2+x,1/2+y,1/2+z
1/2-y,1/2+x,1/2+z
1/2-x,1/2-y,1/2+z
1/2+y,1/2-x,1/2+z
1/2+x,1/2-y,1/2-z
1/2-x,1/2+y,1/2-z
1/2+y,1/2+x,1/2-z
1/2-y,1/2-x,1/2-z
1/2-x,1/2-y,1/2-z
1/2+y,1/2-x,1/2-z
1/2+x,1/2+y,1/2-z
1/2-y,1/2+x,1/2-z
1/2-x,1/2+y,1/2+z
1/2+x,1/2-y,1/2+z
1/2-y,1/2-x,1/2+z
1/2+y,1/2+x,1/2+z
loop_
_atom_site_type_symbol
_atom_site_label
_atom_site_fract_x
_atom_site_fract_y
_atom_site_fract_z
Si Si1 0.322874 0.425511 0.735359
Si Si2 0.575030 0.683038 0.889486
Si Si3 0.000000 0.574937 0.577709
Si Si4 0.219632 0.327054 0.315588
Si Si5 0.115896 0.327982 0.574745
O O1 0.321527 0.500000 0.717618
O O2 0.392302 0.392302 0.724888
O O3 0.309355 0.419647 0.811943
O O4 0.270566 0.384111 0.696609
O O5 0.500000 0.664640 0.904076
O O6 0.627979 0.627979 0.908469
O O7 0.589779 0.754001 0.918253
O O8 0.062135 0.618843 0.594957
O O9 0.000000 0.500000 0.601140
O O10 0.000000 0.571822 0.500000
O O11 0.260241 0.260241 0.321660
O O12 0.178604 0.321397 0.250000
O O13 0.175965 0.335098 0.377626
O O14 0.131976 0.338662 0.500000
#
# Coordination Sequence:
#
# PCOD9571423 Si02
#       5
#    32  32  16  32  32
#     4   9  18  32  52  77 105 139 175 214 263 315
#     4  10  19  32  51  77 109 145 184 221 259 306
#     4   9  20  38  56  74 101 137 174 214 265 319
#     4  10  19  33  52  74 103 139 173 211 264 311
#     4  11  21  34  55  79 103 136 179 221 260 312
#
# _framework density 16.301438999999998
#
# number of rings (size 3 to 8) (size 9 to 14) (size 15 to 20)
#    0.000    2.111    3.333    0.667    0.000    3.111 
#    0.000    2.222    0.000    0.000    0.000    1.556 
#    0.000    0.000    0.000    4.889    0.000    0.222 
#
# Total GULP energy -401441.952552 kJ/mol
# GULP energy per Si atom -5575.582674 kJ/mol
# Density = 1.626434 g / cm^3
# Si number density = 16.301439 Si / 1000 Ang^3
#
#
#
# Elastic Constant Matrix: (Units=GPa)
#
#
# Indices 1 2 3 4 5 6 
#
# 1 94.7270 36.8069 37.4041 0.0000 0.0000 0.0000
# 2 36.8069 94.7242 37.4036 0.0000 0.0000 0.0000
# 3 37.4041 37.4036 67.2644 0.0000 0.0000 0.0000
# 4 0.0000 0.0000 0.0000 20.7059 0.0000 0.0000
# 5 0.0000 0.0000 0.0000 0.0000 20.7059 0.0000
# 6 0.0000 0.0000 0.0000 0.0000 0.0000 14.6646
#
#
#
# Elastic Compliance Matrix: (Units=1/GPa)
#
#
# Indices 1 2 3 4 5 6 
#
# 1 0.014192 -0.003073 -0.006183 0.000000 0.000000 0.000000
# 2 -0.003073 0.014193 -0.006183 0.000000 0.000000 0.000000
# 3 -0.006183 -0.006183 0.021743 0.000000 0.000000 0.000000
# 4 0.000000 0.000000 0.000000 0.048295 0.000000 0.000000
# 5 0.000000 0.000000 0.000000 0.000000 0.048295 0.000000
# 6 0.000000 0.000000 0.000000 0.000000 0.000000 0.068192
#
#
# Mechanical properties :
#
#
# Convention : Reuss Voigt Hill
#
# Bulk Modulus (GPa) = 51.94994 53.32718 52.63856
# Shear Modulus (GPa) = 19.82510 20.88868 20.35689
#
# Velocity S-wave (km/s) = 3.49113 3.58355 3.53764
# Velocity P-wave (km/s) = 6.94177 7.06446 7.00338
#
# Compressibility (1/GPa) = 0.01924930
#
# Stress axis : x y z
#
# Youngs Moduli (GPa) = 70.46128 70.45904 45.99140
#
# Poissons Ratio (x) = 0.21653 0.28437
# Poissons Ratio (y) = 0.21654 0.28437
# Poissons Ratio (z) = 0.43566 0.43566
#
# Static dielectric constant tensor:
#      x y z
#    x 1.547270 0.000000 0.000000 
#    y 0.000000 1.547270 0.000000 
#    z 0.000000 0.000000 1.532170 
# 
# From -- ./inp_files/8203.got.cif
#   From: 2010.05.17/outbox.cif.g08.bks.cpg/sg139_5_cif.got.tgz:8203.got - 2010.05.20 13:14:44.
