data_PCOD9571289
_publ_section_title
;
Structure prediction by ZEFSAII (Michael W. Deem and Ramdas Pophale) SiO2 
 PCOD9571289
Probable space group: I 4/M M M
;
_chemical_formula_sum "Si O2"
_cell_formula_units_Z 92
_cell_length_a 14.824492
_cell_length_b 14.824492
_cell_length_c 20.310443
_cell_angle_alpha 90.000000
_cell_angle_beta 90.000000
_cell_angle_gamma 90.000000
_cell_volume 4463.535942
_symmetry_space_group_name_H-M "I 4/M M M"
_symmetry_group_IT_number 139
_symmetry_cell_setting 'tetragonal'
loop_
_space_group_symop_operation_xyz
x,y,z
-y,x,z
-x,-y,z
y,-x,z
x,-y,-z
-x,y,-z
y,x,-z
-y,-x,-z
-x,-y,-z
y,-x,-z
x,y,-z
-y,x,-z
-x,y,z
x,-y,z
-y,-x,z
y,x,z
1/2+x,1/2+y,1/2+z
1/2-y,1/2+x,1/2+z
1/2-x,1/2-y,1/2+z
1/2+y,1/2-x,1/2+z
1/2+x,1/2-y,1/2-z
1/2-x,1/2+y,1/2-z
1/2+y,1/2+x,1/2-z
1/2-y,1/2-x,1/2-z
1/2-x,1/2-y,1/2-z
1/2+y,1/2-x,1/2-z
1/2+x,1/2+y,1/2-z
1/2-y,1/2+x,1/2-z
1/2-x,1/2+y,1/2+z
1/2+x,1/2-y,1/2+z
1/2-y,1/2-x,1/2+z
1/2+y,1/2+x,1/2+z
loop_
_atom_site_type_symbol
_atom_site_label
_atom_site_fract_x
_atom_site_fract_y
_atom_site_fract_z
Si Si1 0.804191 0.341419 0.142277
Si Si2 0.292108 0.500000 0.215324
Si Si3 0.240400 0.500000 0.500000
Si Si4 0.833222 0.603182 0.000000
Si Si5 0.738876 0.000000 0.856809
Si Si6 0.000000 0.000000 0.322421
O O1 0.752483 0.247518 0.150938
O O2 0.765435 0.413087 0.193408
O O3 0.783235 0.378880 0.068738
O O4 0.910656 0.323104 0.147126
O O5 0.303279 0.500000 0.294002
O O6 0.388536 0.500000 0.181083
O O7 0.175236 0.586315 0.500000
O O8 0.286839 0.500000 0.428606
O O9 0.865828 0.500000 0.000000
#
# Coordination Sequence:
#
# PCOD9571289 Si02
#       6
#    32  16   8  16  16   4
#     4  11  23  41  64  96 134 170 216 271 326 386
#     4  12  24  42  67  93 133 172 224 265 320 392
#     4   8  19  38  58  93 126 156 210 269 336 379
#     4  10  18  35  63  91 126 170 211 254 322 390
#     4  10  24  40  67  95 125 171 217 276 330 390
#     4  12  28  44  64  98 128 188 220 254 320 400
#
# _framework density 20.611460000000001
#
# number of rings (size 3 to 8) (size 9 to 14) (size 15 to 20)
#    0.000    1.391    3.478    1.826    2.435    2.087 
#    0.000    1.739    0.000    1.565    0.000    0.000 
#    0.000    0.000    0.000    0.000    0.000    0.000 
#
# Total GULP energy -256273.950069 kJ/mol
# GULP energy per Si atom -5571.172828 kJ/mol
# Density = 2.056455 g / cm^3
# Si number density = 20.611460 Si / 1000 Ang^3
#
#
#
# Elastic Constant Matrix: (Units=GPa)
#
#
# Indices 1 2 3 4 5 6 
#
# 1 151.6072 -35.8436 13.2278 0.0000 0.0000 0.0000
# 2 -35.8436 151.6072 13.2278 0.0000 0.0000 0.0000
# 3 13.2278 13.2278 121.2029 0.0000 0.0000 0.0000
# 4 0.0000 0.0000 0.0000 -7.7027 0.0000 0.0000
# 5 0.0000 0.0000 0.0000 0.0000 -7.7027 0.0000
# 6 0.0000 0.0000 0.0000 0.0000 0.0000 36.8717
#
#
#
# Elastic Compliance Matrix: (Units=1/GPa)
#
#
# Indices 1 2 3 4 5 6 
#
# 1 0.007097 0.001762 -0.000967 0.000000 0.000000 0.000000
# 2 0.001762 0.007097 -0.000967 0.000000 0.000000 0.000000
# 3 -0.000967 -0.000967 0.008462 0.000000 0.000000 0.000000
# 4 0.000000 0.000000 0.000000 -0.129825 0.000000 0.000000
# 5 0.000000 0.000000 0.000000 0.000000 -0.129825 0.000000
# 6 0.000000 0.000000 0.000000 0.000000 0.000000 0.027121
#
#
# Mechanical properties :
#
#
# Convention : Reuss Voigt Hill
#
# Bulk Modulus (GPa) = 44.81759 45.07126 44.94442
# Shear Modulus (GPa) = -24.74124 33.21360 4.23618
#
# Velocity S-wave (km/s) = -3.46838 4.01860 1.43517
# Velocity P-wave (km/s) = 2.39826 6.59141 4.95976
#
# Compressibility (1/GPa) = 0.02231267
#
# Stress axis : x y z
#
# Youngs Moduli (GPa) = 140.90468 140.90468 118.17989
#
# Poissons Ratio (x) = -0.24831 0.11427
# Poissons Ratio (y) = -0.24831 0.11427
# Poissons Ratio (z) = 0.13624 0.13624
#
# Static dielectric constant tensor:
#      x y z
#    x 1.699070 0.000000 0.000000 
#    y 0.000000 1.699070 0.000000 
#    z 0.000000 0.000000 1.824560 
# 
# From -- ./inp_files/9514.got.cif
#   From: 2010.05.17/outbox.cif.g08.bks.cpg/sg139_5_cif.got.tgz:9514.got - 2010.05.20 13:14:44.
