data_PCOD9571095
_publ_section_title
;
Structure prediction by ZEFSAII (Michael W. Deem and Ramdas Pophale) SiO2 
 PCOD9571095
Probable space group: P 42/N C M
;
_chemical_formula_sum "Si O2"
_cell_formula_units_Z 48
_cell_length_a 8.750187
_cell_length_b 8.750187
_cell_length_c 32.608244
_cell_angle_alpha 90.000000
_cell_angle_beta 90.000000
_cell_angle_gamma 90.000000
_cell_volume 2496.675393
_symmetry_space_group_name_H-M "P 42/N C M"
_symmetry_group_IT_number 138
_space_group.IT_coordinate_system_code '2'
_symmetry_cell_setting 'tetragonal'
loop_
_space_group_symop_operation_xyz
x,y,z
1/2-y,x,1/2+z
1/2-x,1/2-y,z
y,1/2-x,1/2+z
1/2+x,-y,1/2-z
-x,1/2+y,1/2-z
1/2+y,1/2+x,-z
-y,-x,-z
-x,-y,-z
1/2+y,-x,1/2-z
1/2+x,1/2+y,-z
-y,1/2+x,1/2-z
1/2-x,y,1/2+z
x,1/2-y,1/2+z
1/2-y,1/2-x,z
y,x,z
loop_
_atom_site_type_symbol
_atom_site_label
_atom_site_fract_x
_atom_site_fract_y
_atom_site_fract_z
Si Si1 0.069063 0.430938 0.861436
Si Si2 0.061612 0.061612 0.042625
Si Si3 0.427274 0.427274 0.875513
Si Si4 0.633476 0.866525 0.922024
Si Si5 0.071035 0.428966 0.217910
Si Si6 0.571181 0.928820 0.296894
O O1 0.248071 0.458376 0.868935
O O2 0.967435 0.532565 0.892375
O O3 0.024392 0.475609 0.815323
O O4 0.244849 0.041837 0.050005
O O5 0.977081 0.977081 0.079489
O O6 0.000000 0.000000 0.000000
O O7 0.521298 0.521298 0.841936
O O8 0.750000 0.750000 0.897768
O O9 0.041795 0.250141 0.210355
O O10 0.023785 0.476216 0.263449
#
# Coordination Sequence:
#
# PCOD9571095 Si02
#       6
#     8   8   8   8   8   8
#     4  11  23  40  61  93 124 163 201 254 305 369
#     4   9  20  41  64  90 122 157 203 253 306 368
#     4  11  24  39  62  90 126 158 207 252 308 367
#     4   8  21  39  63  87 122 152 205 242 306 359
#     4  11  24  39  62  86 126 156 211 249 306 369
#     4  11  24  41  60  92 119 166 202 259 305 364
#
# _framework density 19.225567999999999
#
# number of rings (size 3 to 8) (size 9 to 14) (size 15 to 20)
#    1.000    0.667    0.000    4.000    2.333   14.000 
#    0.000    5.000    0.000    0.000    0.000    0.000 
#    0.000    0.000    0.000    0.000    0.000    0.000 
#
# Total GULP energy -267981.720544 kJ/mol
# GULP energy per Si atom -5582.952511 kJ/mol
# Density = 1.918181 g / cm^3
# Si number density = 19.225568 Si / 1000 Ang^3
#
#
#
# Elastic Constant Matrix: (Units=GPa)
#
#
# Indices 1 2 3 4 5 6 
#
# 1 70.7313 49.9705 37.6234 0.0000 0.0000 0.0000
# 2 49.9705 70.7313 37.6234 0.0000 0.0000 0.0000
# 3 37.6234 37.6234 139.9619 0.0000 0.0000 0.0000
# 4 0.0000 0.0000 0.0000 5.6895 0.0000 0.0000
# 5 0.0000 0.0000 0.0000 0.0000 5.6895 0.0000
# 6 0.0000 0.0000 0.0000 0.0000 0.0000 29.9124
#
#
#
# Elastic Compliance Matrix: (Units=1/GPa)
#
#
# Indices 1 2 3 4 5 6 
#
# 1 0.029060 -0.019107 -0.002675 0.000000 0.000000 0.000000
# 2 -0.019107 0.029060 -0.002675 0.000000 0.000000 0.000000
# 3 -0.002675 -0.002675 0.008583 0.000000 0.000000 0.000000
# 4 0.000000 0.000000 0.000000 0.175762 0.000000 0.000000
# 5 0.000000 0.000000 0.000000 0.000000 0.175762 0.000000
# 6 0.000000 0.000000 0.000000 0.000000 0.000000 0.033431
#
#
# Mechanical properties :
#
#
# Convention : Reuss Voigt Hill
#
# Bulk Modulus (GPa) = 56.22076 59.09545 57.65811
# Shear Modulus (GPa) = 9.87160 18.67210 14.27185
#
# Velocity S-wave (km/s) = 2.26843 3.11981 2.72754
# Velocity P-wave (km/s) = 6.01392 6.61682 6.32256
#
# Compressibility (1/GPa) = 0.01778702
#
# Stress axis : x y z
#
# Youngs Moduli (GPa) = 34.41138 34.41138 116.50713
#
# Poissons Ratio (x) = 0.65751 0.31171
# Poissons Ratio (y) = 0.65751 0.31171
# Poissons Ratio (z) = 0.09206 0.09206
#
# Static dielectric constant tensor:
#      x y z
#    x 1.672940 0.000000 0.000000 
#    y 0.000000 1.672940 0.000000 
#    z 0.000000 0.000000 1.635720 
# 
# From -- ./inp_files/7754.got.cif
#   From: 2010.05.17/outbox.cif.g08.bks.cpg/sg138_4_cif.got.tgz:7754.got - 2010.05.20 13:08:53.
