data_PCOD9571328
_publ_section_title
;
Structure prediction by ZEFSAII (Michael W. Deem and Ramdas Pophale) SiO2 
 PCOD9571328
Probable space group: I 4/M M M
;
_chemical_formula_sum "Si O2"
_cell_formula_units_Z 176
_cell_length_a 18.156251
_cell_length_b 18.156251
_cell_length_c 35.958917
_cell_angle_alpha 90.000000
_cell_angle_beta 90.000000
_cell_angle_gamma 90.000000
_cell_volume 11853.837225
_symmetry_space_group_name_H-M "I 4/M M M"
_symmetry_group_IT_number 139
_symmetry_cell_setting 'tetragonal'
loop_
_space_group_symop_operation_xyz
x,y,z
-y,x,z
-x,-y,z
y,-x,z
x,-y,-z
-x,y,-z
y,x,-z
-y,-x,-z
-x,-y,-z
y,-x,-z
x,y,-z
-y,x,-z
-x,y,z
x,-y,z
-y,-x,z
y,x,z
1/2+x,1/2+y,1/2+z
1/2-y,1/2+x,1/2+z
1/2-x,1/2-y,1/2+z
1/2+y,1/2-x,1/2+z
1/2+x,1/2-y,1/2-z
1/2-x,1/2+y,1/2-z
1/2+y,1/2+x,1/2-z
1/2-y,1/2-x,1/2-z
1/2-x,1/2-y,1/2-z
1/2+y,1/2-x,1/2-z
1/2+x,1/2+y,1/2-z
1/2-y,1/2+x,1/2-z
1/2-x,1/2+y,1/2+z
1/2+x,1/2-y,1/2+z
1/2-y,1/2-x,1/2+z
1/2+y,1/2+x,1/2+z
loop_
_atom_site_type_symbol
_atom_site_label
_atom_site_fract_x
_atom_site_fract_y
_atom_site_fract_z
Si Si1 0.413046 0.853667 0.911759
Si Si2 0.806260 0.586113 0.229686
Si Si3 0.295636 0.414321 0.300528
Si Si4 0.298050 0.582948 0.044673
Si Si5 0.410664 0.000000 0.957086
Si Si6 0.193077 0.685442 0.842302
O O1 0.500000 0.861749 0.901633
O O2 0.406913 0.782341 0.938112
O O3 0.363051 0.836893 0.876171
O O4 0.389953 0.926647 0.934362
O O5 0.818681 0.500000 0.222061
O O6 0.876352 0.623649 0.250000
O O7 0.740431 0.593136 0.259531
O O8 0.790225 0.631698 0.192463
O O9 0.299450 0.500000 0.309835
O O10 0.373359 0.373359 0.301328
O O11 0.241160 0.370007 0.327829
O O12 0.323364 0.500000 0.054229
O O13 0.355793 0.644208 0.057599
O O14 0.292910 0.587194 0.000000
O O15 0.500000 0.000000 0.958786
O O16 0.384457 0.000000 0.000000
O O17 0.264343 0.735657 0.851462
#
# Coordination Sequence:
#
# PCOD9571328 Si02
#       6
#    32  32  32  32  16  32
#     4  10  19  30  46  67  90 118 152 188 229 271
#     4   9  17  30  46  65  91 122 157 189 223 267
#     4   9  18  31  47  65  86 115 149 188 230 272
#     4   9  17  29  45  65  90 119 151 186 222 264
#     4   9  18  32  48  66  90 120 153 187 233 287
#     4  10  19  30  46  66  92 122 151 186 227 275
#
# _framework density 14.847514
#
# number of rings (size 3 to 8) (size 9 to 14) (size 15 to 20)
#    0.000    2.636    0.000    2.182    1.273    4.909 
#    0.000    0.909    0.000    0.000    0.000    0.000 
#    0.000   13.091    0.000    0.000    0.000    8.000 
#
# Total GULP energy -490325.481830 kJ/mol
# GULP energy per Si atom -5571.880475 kJ/mol
# Density = 1.481372 g / cm^3
# Si number density = 14.847514 Si / 1000 Ang^3
#
#
#
# Elastic Constant Matrix: (Units=GPa)
#
#
# Indices 1 2 3 4 5 6 
#
# 1 96.2852 61.4305 47.7001 0.0000 0.0000 0.0000
# 2 61.4305 96.2855 47.6998 0.0000 0.0000 0.0000
# 3 47.7001 47.6998 80.7144 0.0000 0.0000 0.0000
# 4 0.0000 0.0000 0.0000 18.1965 0.0000 0.0000
# 5 0.0000 0.0000 0.0000 0.0000 18.1963 0.0000
# 6 0.0000 0.0000 0.0000 0.0000 0.0000 9.9833
#
#
#
# Elastic Compliance Matrix: (Units=1/GPa)
#
#
# Indices 1 2 3 4 5 6 
#
# 1 0.019279 -0.009411 -0.005832 0.000000 0.000000 0.000000
# 2 -0.009411 0.019279 -0.005832 0.000000 0.000000 0.000000
# 3 -0.005832 -0.005832 0.019282 0.000000 0.000000 0.000000
# 4 0.000000 0.000000 0.000000 0.054956 0.000000 0.000000
# 5 0.000000 0.000000 0.000000 0.000000 0.054956 0.000000
# 6 0.000000 0.000000 0.000000 0.000000 0.000000 0.100167
#
#
# Mechanical properties :
#
#
# Convention : Reuss Voigt Hill
#
# Bulk Modulus (GPa) = 63.72961 65.21620 64.47290
# Shear Modulus (GPa) = 15.85794 17.03886 16.44840
#
# Velocity S-wave (km/s) = 3.27165 3.39129 3.33201
# Velocity P-wave (km/s) = 7.56885 7.70414 7.63680
#
# Compressibility (1/GPa) = 0.01569129
#
# Stress axis : x y z
#
# Youngs Moduli (GPa) = 51.86899 51.86950 51.86143
#
# Poissons Ratio (x) = 0.48815 0.30245
# Poissons Ratio (y) = 0.48815 0.30244
# Poissons Ratio (z) = 0.30249 0.30248
#
# Static dielectric constant tensor:
#      x y z
#    x 1.479290 0.000000 0.000000 
#    y 0.000000 1.479290 0.000000 
#    z 0.000000 0.000000 1.479400 
# 
# From -- ./inp_files/14205.got.cif
#   From: 2010.05.17/outbox.cif.g08.bks.cpg/sg139_8_cif.got.tgz:14205.got - 2010.05.20 13:14:44.
