data_PCOD9571264
_publ_section_title
;
Structure prediction by ZEFSAII (Michael W. Deem and Ramdas Pophale) SiO2 
 PCOD9571264
Probable space group: I 4/M M M
;
_chemical_formula_sum "Si O2"
_cell_formula_units_Z 176
_cell_length_a 23.877998
_cell_length_b 23.877998
_cell_length_c 16.007466
_cell_angle_alpha 90.000000
_cell_angle_beta 90.000000
_cell_angle_gamma 90.000000
_cell_volume 9126.797421
_symmetry_space_group_name_H-M "I 4/M M M"
_symmetry_group_IT_number 139
_symmetry_cell_setting 'tetragonal'
loop_
_space_group_symop_operation_xyz
x,y,z
-y,x,z
-x,-y,z
y,-x,z
x,-y,-z
-x,y,-z
y,x,-z
-y,-x,-z
-x,-y,-z
y,-x,-z
x,y,-z
-y,x,-z
-x,y,z
x,-y,z
-y,-x,z
y,x,z
1/2+x,1/2+y,1/2+z
1/2-y,1/2+x,1/2+z
1/2-x,1/2-y,1/2+z
1/2+y,1/2-x,1/2+z
1/2+x,1/2-y,1/2-z
1/2-x,1/2+y,1/2-z
1/2+y,1/2+x,1/2-z
1/2-y,1/2-x,1/2-z
1/2-x,1/2-y,1/2-z
1/2+y,1/2-x,1/2-z
1/2+x,1/2+y,1/2-z
1/2-y,1/2+x,1/2-z
1/2-x,1/2+y,1/2+z
1/2+x,1/2-y,1/2+z
1/2-y,1/2-x,1/2+z
1/2+y,1/2+x,1/2+z
loop_
_atom_site_type_symbol
_atom_site_label
_atom_site_fract_x
_atom_site_fract_y
_atom_site_fract_z
Si Si1 0.293255 0.389792 0.092748
Si Si2 0.433086 0.066915 0.750000
Si Si3 0.065093 0.367409 0.091111
Si Si4 0.789021 0.304062 0.842644
Si Si5 0.340939 0.434797 0.738427
Si Si6 0.103735 0.756005 0.905408
O O1 0.341308 0.341308 0.090238
O O2 0.234341 0.359092 0.112683
O O3 0.309998 0.426951 0.172222
O O4 0.292143 0.415579 0.000000
O O5 0.500000 0.075810 0.758917
O O6 0.401468 0.089040 0.831777
O O7 0.068126 0.300898 0.105210
O O8 0.000000 0.383800 0.086982
O O9 0.090988 0.378420 0.000000
O O10 0.734323 0.265678 0.831144
O O11 0.813465 0.313465 0.750000
O O12 0.833651 0.267821 0.893369
O O13 0.352716 0.500000 0.724102
O O14 0.396208 0.396208 0.739722
O O15 0.300557 0.411403 0.665230
O O16 0.096033 0.777348 0.000000
#
# Coordination Sequence:
#
# PCOD9571264 Si02
#       6
#    32  16  32  32  32  32
#     4   9  18  34  56  83 116 150 182 223 280 346
#     4   9  18  32  52  78 107 146 194 236 277 330
#     4   9  19  34  50  72 104 141 182 229 278 327
#     4  10  18  31  53  83 117 147 177 215 264 330
#     4  11  24  41  61  85 113 149 197 254 314 376
#     4  11  22  36  57  84 114 149 188 232 287 351
#
# _framework density 19.283873
#
# number of rings (size 3 to 8) (size 9 to 14) (size 15 to 20)
#    0.000    2.091    1.818    1.636    1.273    4.182 
#    0.000    1.818    0.000    0.000    0.000    8.909 
#    0.000    0.000    0.000    0.000    0.000    0.000 
#
# Total GULP energy -490768.476071 kJ/mol
# GULP energy per Si atom -5576.914501 kJ/mol
# Density = 1.923998 g / cm^3
# Si number density = 19.283873 Si / 1000 Ang^3
#
#
#
# Elastic Constant Matrix: (Units=GPa)
#
#
# Indices 1 2 3 4 5 6 
#
# 1 46.6695 34.9329 37.9940 0.0000 0.0000 0.0000
# 2 34.9329 46.6682 37.9941 0.0000 0.0000 0.0000
# 3 37.9940 37.9941 135.7902 0.0000 0.0000 0.0000
# 4 0.0000 0.0000 0.0000 15.4869 0.0000 0.0000
# 5 0.0000 0.0000 0.0000 0.0000 15.4869 0.0000
# 6 0.0000 0.0000 0.0000 0.0000 0.0000 20.1947
#
#
#
# Elastic Compliance Matrix: (Units=1/GPa)
#
#
# Indices 1 2 3 4 5 6 
#
# 1 0.050889 -0.034318 -0.004637 0.000000 0.000000 0.000000
# 2 -0.034318 0.050891 -0.004637 0.000000 0.000000 0.000000
# 3 -0.004637 -0.004637 0.009959 0.000000 0.000000 0.000000
# 4 0.000000 0.000000 0.000000 0.064571 0.000000 0.000000
# 5 0.000000 0.000000 0.000000 0.000000 0.064571 0.000000
# 6 0.000000 0.000000 0.000000 0.000000 0.000000 0.049518
#
#
# Mechanical properties :
#
#
# Convention : Reuss Voigt Hill
#
# Bulk Modulus (GPa) = 40.72253 50.10776 45.41514
# Shear Modulus (GPa) = 12.96114 18.11416 15.53765
#
# Velocity S-wave (km/s) = 2.59535 3.06819 2.84162
# Velocity P-wave (km/s) = 5.49039 6.21228 5.86246
#
# Compressibility (1/GPa) = 0.02455643
#
# Stress axis : x y z
#
# Youngs Moduli (GPa) = 19.65042 19.64969 100.40980
#
# Poissons Ratio (x) = 0.67433 0.46557
# Poissons Ratio (y) = 0.67436 0.46563
# Poissons Ratio (z) = 0.09111 0.09112
#
# Static dielectric constant tensor:
#      x y z
#    x 1.686150 0.000000 0.000000 
#    y 0.000000 1.686150 0.000000 
#    z 0.000000 0.000000 1.712000 
# 
# From -- ./inp_files/6088.got.cif
#   From: 2010.05.17/outbox.cif.g08.bks.cpg/sg139_4_cif.got.tgz:6088.got - 2010.05.20 13:14:44.
