data_PCOD9571460
_publ_section_title
;
Structure prediction by ZEFSAII (Michael W. Deem and Ramdas Pophale) SiO2 
 PCOD9571460
Probable space group: I 4/M M M
;
_chemical_formula_sum "Si O2"
_cell_formula_units_Z 160
_cell_length_a 31.166066
_cell_length_b 31.166066
_cell_length_c 9.441299
_cell_angle_alpha 90.000000
_cell_angle_beta 90.000000
_cell_angle_gamma 90.000000
_cell_volume 9170.557193
_symmetry_space_group_name_H-M "I 4/M M M"
_symmetry_group_IT_number 139
_symmetry_cell_setting 'tetragonal'
loop_
_space_group_symop_operation_xyz
x,y,z
-y,x,z
-x,-y,z
y,-x,z
x,-y,-z
-x,y,-z
y,x,-z
-y,-x,-z
-x,-y,-z
y,-x,-z
x,y,-z
-y,x,-z
-x,y,z
x,-y,z
-y,-x,z
y,x,z
1/2+x,1/2+y,1/2+z
1/2-y,1/2+x,1/2+z
1/2-x,1/2-y,1/2+z
1/2+y,1/2-x,1/2+z
1/2+x,1/2-y,1/2-z
1/2-x,1/2+y,1/2-z
1/2+y,1/2+x,1/2-z
1/2-y,1/2-x,1/2-z
1/2-x,1/2-y,1/2-z
1/2+y,1/2-x,1/2-z
1/2+x,1/2+y,1/2-z
1/2-y,1/2+x,1/2-z
1/2-x,1/2+y,1/2+z
1/2+x,1/2-y,1/2+z
1/2-y,1/2-x,1/2+z
1/2+y,1/2+x,1/2+z
loop_
_atom_site_type_symbol
_atom_site_label
_atom_site_fract_x
_atom_site_fract_y
_atom_site_fract_z
Si Si1 0.213345 0.886563 0.670037
Si Si2 0.113380 0.113380 0.330936
Si Si3 0.950019 0.049982 0.830122
Si Si4 0.951301 0.288628 0.671714
Si Si5 0.758619 0.687220 0.658143
Si Si6 0.448687 0.114750 0.830049
O O1 0.215867 0.879057 0.500000
O O2 0.163560 0.895587 0.702364
O O3 0.247564 0.923175 0.709842
O O4 0.229781 0.845635 0.754898
O O5 0.107839 0.107839 0.500000
O O6 0.081893 0.081893 0.248530
O O7 0.000000 0.058708 0.794534
O O8 0.945694 0.054307 0.000000
O O9 0.952250 0.289593 0.500000
O O10 0.936139 0.336376 0.713832
O O11 0.000000 0.283375 0.722102
O O12 0.769294 0.671826 0.500000
O O13 0.729776 0.729776 0.642271
O O14 0.799888 0.700113 0.750000
O O15 0.500000 0.110093 0.803002
O O16 0.420236 0.079765 0.750000
O O17 0.442841 0.110876 0.000000
#
# Coordination Sequence:
#
# PCOD9571460 Si02
#       6
#    32  16  16  32  32  32
#     4  10  19  33  53  78 108 139 174 217 261 312
#     4  10  21  33  52  85 116 139 169 217 270 317
#     4   9  20  40  62  81 105 141 180 217 266 329
#     4   8  16  32  52  72  98 136 174 207 249 303
#     4  10  20  33  50  71  98 135 173 213 257 304
#     4   9  18  33  52  74 100 131 169 210 254 306
#
# _framework density 17.447140000000001
#
# number of rings (size 3 to 8) (size 9 to 14) (size 15 to 20)
#    0.000    2.700    1.000    2.100    0.000    4.200 
#    0.000    6.500    0.000    1.800    0.000    0.000 
#    0.000    0.000    0.000    0.000    0.000    0.000 
#
# Total GULP energy -445589.679768 kJ/mol
# GULP energy per Si atom -5569.870997 kJ/mol
# Density = 1.740743 g / cm^3
# Si number density = 17.447140 Si / 1000 Ang^3
#
#
#
# Elastic Constant Matrix: (Units=GPa)
#
#
# Indices 1 2 3 4 5 6 
#
# 1 95.7535 106.1014 56.5178 0.0000 0.0000 0.0000
# 2 106.1014 95.7660 56.5184 0.0000 0.0000 0.0000
# 3 56.5178 56.5184 53.3990 0.0000 0.0000 0.0000
# 4 0.0000 0.0000 0.0000 23.2769 0.0000 0.0000
# 5 0.0000 0.0000 0.0000 0.0000 23.2764 0.0000
# 6 0.0000 0.0000 0.0000 0.0000 0.0000 39.1463
#
#
#
# Elastic Compliance Matrix: (Units=1/GPa)
#
#
# Indices 1 2 3 4 5 6 
#
# 1 -0.042274 0.054429 -0.012866 0.000000 0.000000 0.000000
# 2 0.054429 -0.042260 -0.012879 0.000000 0.000000 0.000000
# 3 -0.012866 -0.012879 0.045976 0.000000 0.000000 0.000000
# 4 0.000000 0.000000 0.000000 0.042961 0.000000 0.000000
# 5 0.000000 0.000000 0.000000 0.000000 0.042962 0.000000
# 6 0.000000 0.000000 0.000000 0.000000 0.000000 0.025545
#
#
# Mechanical properties :
#
#
# Convention : Reuss Voigt Hill
#
# Bulk Modulus (GPa) = 53.16341 75.91043 64.53692
# Shear Modulus (GPa) = 229.23356 18.85864 124.04610
#
# Velocity S-wave (km/s) = 11.47487 3.29127 8.44113
# Velocity P-wave (km/s) = 14.35621 7.61883 11.49233
#
# Compressibility (1/GPa) = 0.01880993
#
# Stress axis : x y z
#
# Youngs Moduli (GPa) = -23.65541 -23.66277 21.75053
#
# Poissons Ratio (x) = 1.28795 0.27985
# Poissons Ratio (y) = 1.28755 0.28012
# Poissons Ratio (z) = -0.30435 -0.30475
#
# Static dielectric constant tensor:
#      x y z
#    x 1.599680 0.000000 0.000000 
#    y 0.000000 1.599680 0.000000 
#    z 0.000000 0.000000 1.598450 
# 
# From -- ./inp_files/2227.got.cif
#   From: 2010.05.17/outbox.cif.g08.bks.cpg/sg139_2_cif.got.tgz:2227.got - 2010.05.20 13:14:44.
