data_PCOD9571341
_publ_section_title
;
Structure prediction by ZEFSAII (Michael W. Deem and Ramdas Pophale) SiO2 
 PCOD9571341
Probable space group: I 4/M M M
;
_chemical_formula_sum "Si O2"
_cell_formula_units_Z 176
_cell_length_a 17.987965
_cell_length_b 17.987965
_cell_length_c 32.219917
_cell_angle_alpha 90.000000
_cell_angle_beta 90.000000
_cell_angle_gamma 90.000000
_cell_volume 10425.298174
_symmetry_space_group_name_H-M "I 4/M M M"
_symmetry_group_IT_number 139
_symmetry_cell_setting 'tetragonal'
loop_
_space_group_symop_operation_xyz
x,y,z
-y,x,z
-x,-y,z
y,-x,z
x,-y,-z
-x,y,-z
y,x,-z
-y,-x,-z
-x,-y,-z
y,-x,-z
x,y,-z
-y,x,-z
-x,y,z
x,-y,z
-y,-x,z
y,x,z
1/2+x,1/2+y,1/2+z
1/2-y,1/2+x,1/2+z
1/2-x,1/2-y,1/2+z
1/2+y,1/2-x,1/2+z
1/2+x,1/2-y,1/2-z
1/2-x,1/2+y,1/2-z
1/2+y,1/2+x,1/2-z
1/2-y,1/2-x,1/2-z
1/2-x,1/2-y,1/2-z
1/2+y,1/2-x,1/2-z
1/2+x,1/2+y,1/2-z
1/2-y,1/2+x,1/2-z
1/2-x,1/2+y,1/2+z
1/2+x,1/2-y,1/2+z
1/2-y,1/2-x,1/2+z
1/2+y,1/2+x,1/2+z
loop_
_atom_site_type_symbol
_atom_site_label
_atom_site_fract_x
_atom_site_fract_y
_atom_site_fract_z
Si Si1 0.789166 0.910053 0.907545
Si Si2 0.706579 0.831061 0.577352
Si Si3 0.914550 0.203847 0.270008
Si Si4 0.271453 0.087563 0.815991
Si Si5 0.784742 0.090194 0.500000
Si Si6 0.668997 0.084459 0.339097
O O1 0.864873 0.864873 0.918272
O O2 0.719648 0.867641 0.929831
O O3 0.772267 0.895061 0.858518
O O4 0.791851 0.000000 0.914013
O O5 0.770105 0.770105 0.587614
O O6 0.737682 0.879498 0.539356
O O7 0.693091 0.884701 0.616197
O O8 0.865921 0.134080 0.281934
O O9 0.883314 0.238269 0.227045
O O10 0.912827 0.263467 0.306659
O O11 0.000000 0.181939 0.263157
O O12 0.356077 0.111079 0.822047
O O13 0.268945 0.000000 0.812030
O O14 0.863211 0.136790 0.500000
O O15 0.793117 0.000000 0.500000
O O16 0.641916 0.000000 0.341765
#
# Coordination Sequence:
#
# PCOD9571341 Si02
#       6
#    32  32  32  32  16  32
#     4   9  17  30  49  73 101 132 167 207 247 287
#     4   9  18  33  52  73  98 131 166 198 237 289
#     4  10  20  32  46  65  89 119 156 196 237 281
#     4   9  18  31  45  65  94 126 161 198 235 278
#     4  10  20  35  57  81 104 130 160 198 244 294
#     4  10  19  30  47  70  94 122 157 196 236 280
#
# _framework density 16.882012
#
# number of rings (size 3 to 8) (size 9 to 14) (size 15 to 20)
#    0.000    2.545    0.000    2.182    0.000    3.727 
#    0.000    0.455    0.000    8.727    0.000    2.545 
#    0.000    3.636    0.000    0.000    0.000    0.182 
#
# Total GULP energy -489932.276189 kJ/mol
# GULP energy per Si atom -5567.412229 kJ/mol
# Density = 1.684359 g / cm^3
# Si number density = 16.882012 Si / 1000 Ang^3
#
#
#
# Elastic Constant Matrix: (Units=GPa)
#
#
# Indices 1 2 3 4 5 6 
#
# 1 78.7776 34.1299 12.4362 0.0000 0.0000 0.0000
# 2 34.1299 78.7777 12.4365 0.0000 0.0000 0.0000
# 3 12.4362 12.4365 36.1653 0.0000 0.0000 0.0000
# 4 0.0000 0.0000 0.0000 11.2742 0.0000 0.0000
# 5 0.0000 0.0000 0.0000 0.0000 11.2738 0.0000
# 6 0.0000 0.0000 0.0000 0.0000 0.0000 32.9627
#
#
#
# Elastic Compliance Matrix: (Units=1/GPa)
#
#
# Indices 1 2 3 4 5 6 
#
# 1 0.015990 -0.006407 -0.003295 0.000000 0.000000 0.000000
# 2 -0.006407 0.015990 -0.003295 0.000000 0.000000 0.000000
# 3 -0.003295 -0.003295 0.029917 0.000000 0.000000 0.000000
# 4 0.000000 0.000000 0.000000 0.088698 0.000000 0.000000
# 5 0.000000 0.000000 0.000000 0.000000 0.088701 0.000000
# 6 0.000000 0.000000 0.000000 0.000000 0.000000 0.030337
#
#
# Mechanical properties :
#
#
# Convention : Reuss Voigt Hill
#
# Bulk Modulus (GPa) = 27.85395 34.63621 31.24508
# Shear Modulus (GPa) = 16.25505 20.08334 18.16920
#
# Velocity S-wave (km/s) = 3.10637 3.45284 3.28418
# Velocity P-wave (km/s) = 5.42227 6.03799 5.73840
#
# Compressibility (1/GPa) = 0.03590155
#
# Stress axis : x y z
#
# Youngs Moduli (GPa) = 62.53858 62.53848 33.42562
#
# Poissons Ratio (x) = 0.40071 0.11014
# Poissons Ratio (y) = 0.40071 0.11015
# Poissons Ratio (z) = 0.20608 0.20609
#
# Static dielectric constant tensor:
#      x y z
#    x 1.568470 0.000000 0.000000 
#    y 0.000000 1.568460 0.000000 
#    z 0.000000 0.000000 1.594040 
# 
# From -- ./inp_files/14245.got.cif
#   From: 2010.05.17/outbox.cif.g08.bks.cpg/sg139_8_cif.got.tgz:14245.got - 2010.05.20 13:14:44.
