data_PCOD9571312
_publ_section_title
;
Structure prediction by ZEFSAII (Michael W. Deem and Ramdas Pophale) SiO2 
 PCOD9571312
Probable space group: I 4/M M M
;
_chemical_formula_sum "Si O2"
_cell_formula_units_Z 192
_cell_length_a 23.481356
_cell_length_b 23.481356
_cell_length_c 22.975902
_cell_angle_alpha 90.000000
_cell_angle_beta 90.000000
_cell_angle_gamma 90.000000
_cell_volume 12668.316818
_symmetry_space_group_name_H-M "I 4/M M M"
_symmetry_group_IT_number 139
_symmetry_cell_setting 'tetragonal'
loop_
_space_group_symop_operation_xyz
x,y,z
-y,x,z
-x,-y,z
y,-x,z
x,-y,-z
-x,y,-z
y,x,-z
-y,-x,-z
-x,-y,-z
y,-x,-z
x,y,-z
-y,x,-z
-x,y,z
x,-y,z
-y,-x,z
y,x,z
1/2+x,1/2+y,1/2+z
1/2-y,1/2+x,1/2+z
1/2-x,1/2-y,1/2+z
1/2+y,1/2-x,1/2+z
1/2+x,1/2-y,1/2-z
1/2-x,1/2+y,1/2-z
1/2+y,1/2+x,1/2-z
1/2-y,1/2-x,1/2-z
1/2-x,1/2-y,1/2-z
1/2+y,1/2-x,1/2-z
1/2+x,1/2+y,1/2-z
1/2-y,1/2+x,1/2-z
1/2-x,1/2+y,1/2+z
1/2+x,1/2-y,1/2+z
1/2-y,1/2-x,1/2+z
1/2+y,1/2+x,1/2+z
loop_
_atom_site_type_symbol
_atom_site_label
_atom_site_fract_x
_atom_site_fract_y
_atom_site_fract_z
Si Si1 0.062211 0.808712 0.000000
Si Si2 0.849008 0.343132 0.884014
Si Si3 0.767813 0.565940 0.305752
Si Si4 0.827173 0.269950 0.000000
Si Si5 0.350882 0.439093 0.371482
Si Si6 0.255676 0.161658 0.712176
Si Si7 0.436092 0.067335 0.569813
O O1 0.115666 0.767720 0.000000
O O2 0.064442 0.844585 0.941060
O O3 0.000000 0.778592 0.000000
O O4 0.895571 0.310833 0.843531
O O5 0.831854 0.307511 0.941532
O O6 0.791830 0.349956 0.846126
O O7 0.883417 0.399246 0.902932
O O8 0.785886 0.500000 0.294647
O O9 0.711469 0.563017 0.344972
O O10 0.752531 0.603071 0.248668
O O11 0.772778 0.227223 0.000000
O O12 0.377362 0.500000 0.356822
O O13 0.387477 0.387477 0.348926
O O14 0.196366 0.196366 0.703627
O O15 0.295431 0.204570 0.750000
O O16 0.433890 0.075081 0.500000
O O17 0.500000 0.087033 0.588604
O O18 0.432629 0.000000 0.581733
#
# Coordination Sequence:
#
# PCOD9571312 Si02
#       7
#    16  32  32  16  32  32  32
#     4  10  20  30  43  64  91 125 158 190 232 273
#     4  11  20  32  50  74  96 124 160 201 244 293
#     4  10  20  32  49  71  91 119 160 203 243 283
#     4  12  22  30  47  72 102 130 157 199 248 291
#     4  10  19  30  44  63  89 121 158 195 234 279
#     4   9  19  34  49  65  92 127 161 198 245 297
#     4   9  18  32  49  70  98 130 160 191 233 285
#
# _framework density 15.155920999999999
#
# number of rings (size 3 to 8) (size 9 to 14) (size 15 to 20)
#    0.000    2.000    2.500    2.750    0.000    2.833 
#    0.000    0.000    0.000    1.500    0.000    8.167 
#    0.000    0.000    0.000    0.000    0.000    0.000 
#
# Total GULP energy -534567.367139 kJ/mol
# GULP energy per Si atom -5568.410074 kJ/mol
# Density = 1.512143 g / cm^3
# Si number density = 15.155921 Si / 1000 Ang^3
#
#
#
# Elastic Constant Matrix: (Units=GPa)
#
#
# Indices 1 2 3 4 5 6 
#
# 1 61.3207 41.1557 39.5605 0.0000 0.0000 0.0000
# 2 41.1557 61.3212 39.5580 0.0000 0.0000 0.0000
# 3 39.5605 39.5580 63.6266 0.0000 0.0000 0.0000
# 4 0.0000 0.0000 0.0000 16.8047 0.0000 0.0000
# 5 0.0000 0.0000 0.0000 0.0000 16.8051 0.0000
# 6 0.0000 0.0000 0.0000 0.0000 0.0000 21.8083
#
#
#
# Elastic Compliance Matrix: (Units=1/GPa)
#
#
# Indices 1 2 3 4 5 6 
#
# 1 0.034180 -0.015412 -0.011670 0.000000 0.000000 0.000000
# 2 -0.015412 0.034177 -0.011666 0.000000 0.000000 0.000000
# 3 -0.011670 -0.011666 0.030226 0.000000 0.000000 0.000000
# 4 0.000000 0.000000 0.000000 0.059507 0.000000 0.000000
# 5 0.000000 0.000000 0.000000 0.000000 0.059506 0.000000
# 6 0.000000 0.000000 0.000000 0.000000 0.000000 0.045854
#
#
# Mechanical properties :
#
#
# Convention : Reuss Voigt Hill
#
# Bulk Modulus (GPa) = 47.42253 47.42409 47.42331
# Shear Modulus (GPa) = 14.36885 15.48324 14.92604
#
# Velocity S-wave (km/s) = 3.08241 3.19971 3.14161
# Velocity P-wave (km/s) = 6.63521 6.70892 6.67217
#
# Compressibility (1/GPa) = 0.02108702
#
# Stress axis : x y z
#
# Youngs Moduli (GPa) = 29.25662 29.25953 33.08434
#
# Poissons Ratio (x) = 0.45094 0.38610
# Poissons Ratio (y) = 0.45090 0.38596
# Poissons Ratio (z) = 0.34143 0.34134
#
# Static dielectric constant tensor:
#      x y z
#    x 1.511590 0.000000 0.000000 
#    y 0.000000 1.511590 0.000000 
#    z 0.000000 0.000000 1.505640 
# 
# From -- ./inp_files/11990.got.cif
#   From: 2010.05.17/outbox.cif.g08.bks.cpg/sg139_6_cif.got.tgz:11990.got - 2010.05.20 13:14:44.
