data_PCOD9571769
_publ_section_title
;
Structure prediction by ZEFSAII (Michael W. Deem and Ramdas Pophale) SiO2 
 PCOD9571769
Probable space group: I 4/M M M
;
_chemical_formula_sum "Si O2"
_cell_formula_units_Z 120
_cell_length_a 19.630152
_cell_length_b 19.630152
_cell_length_c 22.538713
_cell_angle_alpha 90.000000
_cell_angle_beta 90.000000
_cell_angle_gamma 90.000000
_cell_volume 8685.132298
_symmetry_space_group_name_H-M "I 4/M M M"
_symmetry_group_IT_number 139
_symmetry_cell_setting 'tetragonal'
loop_
_space_group_symop_operation_xyz
x,y,z
-y,x,z
-x,-y,z
y,-x,z
x,-y,-z
-x,y,-z
y,x,-z
-y,-x,-z
-x,-y,-z
y,-x,-z
x,y,-z
-y,x,-z
-x,y,z
x,-y,z
-y,-x,z
y,x,z
1/2+x,1/2+y,1/2+z
1/2-y,1/2+x,1/2+z
1/2-x,1/2-y,1/2+z
1/2+y,1/2-x,1/2+z
1/2+x,1/2-y,1/2-z
1/2-x,1/2+y,1/2-z
1/2+y,1/2+x,1/2-z
1/2-y,1/2-x,1/2-z
1/2-x,1/2-y,1/2-z
1/2+y,1/2-x,1/2-z
1/2+x,1/2+y,1/2-z
1/2-y,1/2+x,1/2-z
1/2-x,1/2+y,1/2+z
1/2+x,1/2-y,1/2+z
1/2-y,1/2-x,1/2+z
1/2+y,1/2+x,1/2+z
loop_
_atom_site_type_symbol
_atom_site_label
_atom_site_fract_x
_atom_site_fract_y
_atom_site_fract_z
Si Si1 0.692316 0.420403 0.500000
Si Si2 0.811547 0.500000 0.000000
Si Si3 0.350713 0.240116 0.000000
Si Si4 0.658633 0.770250 0.399132
Si Si5 0.576888 0.000000 0.396415
Si Si6 0.079795 0.367333 0.812708
O O1 0.680918 0.500000 0.500000
O O2 0.623445 0.376556 0.500000
O O3 0.734842 0.396275 0.442534
O O4 0.766345 0.568259 0.000000
O O5 0.863144 0.500000 0.055833
O O6 0.321594 0.200085 0.942397
O O7 0.313846 0.313846 0.000000
O O8 0.712262 0.712262 0.379938
O O9 0.621857 0.808855 0.346047
O O10 0.582119 0.933547 0.355197
O O11 0.500000 0.000000 0.423008
O O12 0.112082 0.387919 0.750000
O O13 0.000000 0.349241 0.805053
#
# Coordination Sequence:
#
# PCOD9571769 Si02
#       6
#    16   8  16  32  16  32
#     4   9  17  30  47  67  91 118 150 191 235 270
#     4  12  17  32  52  67  90 122 148 198 222 267
#     4   9  18  30  46  68  89 112 146 186 230 269
#     4   9  18  32  46  64  90 118 153 188 221 267
#     4  10  21  30  42  70  97 121 156 185 220 269
#     4  11  20  31  45  64  94 126 152 183 223 266
#
# _framework density 13.816713999999999
#
# number of rings (size 3 to 8) (size 9 to 14) (size 15 to 20)
#    0.000    2.133    4.000    2.600    0.000    0.667 
#    0.000    0.000    0.000    0.200    0.000    0.000 
#    0.000    0.000    0.000    0.000    0.000    0.000 
#
# Total GULP energy -334443.960072 kJ/mol
# GULP energy per Si atom -5574.066001 kJ/mol
# Density = 1.378527 g / cm^3
# Si number density = 13.816714 Si / 1000 Ang^3
#
#
#
# Elastic Constant Matrix: (Units=GPa)
#
#
# Indices 1 2 3 4 5 6 
#
# 1 106.6165 56.5910 55.6227 0.0000 0.0000 0.0000
# 2 56.5910 106.6202 55.6222 0.0000 0.0000 0.0000
# 3 55.6227 55.6222 91.9250 0.0000 0.0000 0.0000
# 4 0.0000 0.0000 0.0000 15.0056 0.0000 0.0000
# 5 0.0000 0.0000 0.0000 0.0000 14.9998 0.0000
# 6 0.0000 0.0000 0.0000 0.0000 0.0000 20.3509
#
#
#
# Elastic Compliance Matrix: (Units=1/GPa)
#
#
# Indices 1 2 3 4 5 6 
#
# 1 0.015209 -0.004781 -0.006310 0.000000 0.000000 0.000000
# 2 -0.004781 0.015208 -0.006309 0.000000 0.000000 0.000000
# 3 -0.006310 -0.006309 0.018514 0.000000 0.000000 0.000000
# 4 0.000000 0.000000 0.000000 0.066642 0.000000 0.000000
# 5 0.000000 0.000000 0.000000 0.000000 0.066668 0.000000
# 6 0.000000 0.000000 0.000000 0.000000 0.000000 0.049138
#
#
# Mechanical properties :
#
#
# Convention : Reuss Voigt Hill
#
# Bulk Modulus (GPa) = 70.76615 71.20373 70.98494
# Shear Modulus (GPa) = 18.45773 19.22631 18.84202
#
# Velocity S-wave (km/s) = 3.65896 3.73436 3.69685
# Velocity P-wave (km/s) = 8.31743 8.38095 8.34925
#
# Compressibility (1/GPa) = 0.01413105
#
# Stress axis : x y z
#
# Youngs Moduli (GPa) = 65.75094 65.75475 54.01227
#
# Poissons Ratio (x) = 0.31435 0.34082
# Poissons Ratio (y) = 0.31433 0.34079
# Poissons Ratio (z) = 0.41489 0.41488
#
# Static dielectric constant tensor:
#      x y z
#    x 1.443330 0.000000 0.000000 
#    y 0.000000 1.443330 0.000000 
#    z 0.000000 0.000000 1.436080 
# 
# From -- ./inp_files/9874.got.cif
#   From: 2010.05.17/outbox.cif.g08.bks.cpg/sg139_5_cif.got.tgz:9874.got - 2010.05.20 13:14:44.
