data_PCOD9571183
_publ_section_title
;
Structure prediction by ZEFSAII (Michael W. Deem and Ramdas Pophale) SiO2 
 PCOD9571183
Probable space group: I 4/M M M
;
_chemical_formula_sum "Si O2"
_cell_formula_units_Z 208
_cell_length_a 28.298152
_cell_length_b 28.298152
_cell_length_c 16.252191
_cell_angle_alpha 90.000000
_cell_angle_beta 90.000000
_cell_angle_gamma 90.000000
_cell_volume 13014.517378
_symmetry_space_group_name_H-M "I 4/M M M"
_symmetry_group_IT_number 139
_symmetry_cell_setting 'tetragonal'
loop_
_space_group_symop_operation_xyz
x,y,z
-y,x,z
-x,-y,z
y,-x,z
x,-y,-z
-x,y,-z
y,x,-z
-y,-x,-z
-x,-y,-z
y,-x,-z
x,y,-z
-y,x,-z
-x,y,z
x,-y,z
-y,-x,z
y,x,z
1/2+x,1/2+y,1/2+z
1/2-y,1/2+x,1/2+z
1/2-x,1/2-y,1/2+z
1/2+y,1/2-x,1/2+z
1/2+x,1/2-y,1/2-z
1/2-x,1/2+y,1/2-z
1/2+y,1/2+x,1/2-z
1/2-y,1/2-x,1/2-z
1/2-x,1/2-y,1/2-z
1/2+y,1/2-x,1/2-z
1/2+x,1/2+y,1/2-z
1/2-y,1/2+x,1/2-z
1/2-x,1/2+y,1/2+z
1/2+x,1/2-y,1/2+z
1/2-y,1/2-x,1/2+z
1/2+y,1/2+x,1/2+z
loop_
_atom_site_type_symbol
_atom_site_label
_atom_site_fract_x
_atom_site_fract_y
_atom_site_fract_z
Si Si1 0.866998 0.054469 0.500000
Si Si2 0.445089 0.294774 0.851498
Si Si3 0.556829 0.868395 0.258263
Si Si4 0.638443 0.814126 0.330279
Si Si5 0.056564 0.688032 0.590937
Si Si6 0.763880 0.310939 0.091344
Si Si7 0.216043 0.859859 0.750574
O O1 0.909708 0.090293 0.500000
O O2 0.833604 0.061720 0.421323
O O3 0.882755 0.000000 0.500000
O O4 0.500000 0.293798 0.827244
O O5 0.434204 0.242820 0.888934
O O6 0.409893 0.304258 0.777255
O O7 0.500000 0.867329 0.269779
O O8 0.579408 0.920593 0.250000
O O9 0.587793 0.840720 0.327845
O O10 0.569412 0.842386 0.171180
O O11 0.664265 0.835735 0.250000
O O12 0.679824 0.817305 0.397981
O O13 0.631981 0.758863 0.312540
O O14 0.075646 0.675312 0.500000
O O15 0.000000 0.683268 0.585807
O O16 0.742761 0.257239 0.097929
O O17 0.738389 0.337591 0.166397
O O18 0.750045 0.327823 0.000000
O O19 0.176892 0.823109 0.780100
#
# Coordination Sequence:
#
# PCOD9571183 Si02
#       7
#    16  32  32  32  32  32  32
#     4  10  20  31  42  58  86 120 153 189 221 255
#     4  10  18  28  41  60  85 110 140 178 219 256
#     4  10  20  34  50  69  90 116 151 186 228 278
#     4   9  17  30  44  63  86 114 140 173 218 268
#     4   9  16  29  49  68  85 108 143 186 227 268
#     4   9  18  30  44  63  87 116 148 178 212 262
#     4  10  18  27  42  64  88 111 138 175 219 261
#
# _framework density 15.982151999999999
#
# number of rings (size 3 to 8) (size 9 to 14) (size 15 to 20)
#    0.000    2.462    2.308    0.923    1.077    2.077 
#    0.000    0.000    0.000    1.846    0.000    2.154 
#    0.000    0.000    0.000    0.000    0.000    0.000 
#
# Total GULP energy -578992.341647 kJ/mol
# GULP energy per Si atom -5567.234054 kJ/mol
# Density = 1.594578 g / cm^3
# Si number density = 15.982152 Si / 1000 Ang^3
#
#
#
# Elastic Constant Matrix: (Units=GPa)
#
#
# Indices 1 2 3 4 5 6 
#
# 1 64.8021 50.3614 4.3604 0.0000 0.0000 0.0000
# 2 50.3614 64.8259 4.3641 0.0000 0.0000 0.0000
# 3 4.3604 4.3641 14.3471 0.0000 0.0000 0.0000
# 4 0.0000 0.0000 0.0000 14.0020 0.0000 0.0000
# 5 0.0000 0.0000 0.0000 0.0000 14.0043 0.0000
# 6 0.0000 0.0000 0.0000 0.0000 0.0000 27.2238
#
#
#
# Elastic Compliance Matrix: (Units=1/GPa)
#
#
# Indices 1 2 3 4 5 6 
#
# 1 0.039046 -0.030152 -0.002695 0.000000 0.000000 0.000000
# 2 -0.030152 0.039033 -0.002709 0.000000 0.000000 0.000000
# 3 -0.002695 -0.002709 0.071343 0.000000 0.000000 0.000000
# 4 0.000000 0.000000 0.000000 0.071419 0.000000 0.000000
# 5 0.000000 0.000000 0.000000 0.000000 0.071407 0.000000
# 6 0.000000 0.000000 0.000000 0.000000 0.000000 0.036733
#
#
# Mechanical properties :
#
#
# Convention : Reuss Voigt Hill
#
# Bulk Modulus (GPa) = 12.76990 29.12743 20.94866
# Shear Modulus (GPa) = 11.73169 16.70530 14.21849
#
# Velocity S-wave (km/s) = 2.71227 3.23654 2.98593
# Velocity P-wave (km/s) = 4.22090 5.67727 5.00237
#
# Compressibility (1/GPa) = 0.07830917
#
# Stress axis : x y z
#
# Youngs Moduli (GPa) = 25.61078 25.61947 14.01670
#
# Poissons Ratio (x) = 0.77249 0.03778
# Poissons Ratio (y) = 0.77222 0.03797
# Poissons Ratio (z) = 0.06903 0.06940
#
# Static dielectric constant tensor:
#      x y z
#    x 1.567870 0.000000 0.000000 
#    y 0.000000 1.567880 0.000000 
#    z 0.000000 0.000000 1.563550 
# 
# From -- ./inp_files/8994.got.cif
#   From: 2010.05.17/outbox.cif.g08.bks.cpg/sg139_5_cif.got.tgz:8994.got - 2010.05.20 13:14:44.
