data_PCOD9571255
_publ_section_title
;
Structure prediction by ZEFSAII (Michael W. Deem and Ramdas Pophale) SiO2 
 PCOD9571255
Probable space group: I 4/M M M
;
_chemical_formula_sum "Si O2"
_cell_formula_units_Z 128
_cell_length_a 17.718553
_cell_length_b 17.718553
_cell_length_c 24.518933
_cell_angle_alpha 90.000000
_cell_angle_beta 90.000000
_cell_angle_gamma 90.000000
_cell_volume 7697.648411
_symmetry_space_group_name_H-M "I 4/M M M"
_symmetry_group_IT_number 139
_symmetry_cell_setting 'tetragonal'
loop_
_space_group_symop_operation_xyz
x,y,z
-y,x,z
-x,-y,z
y,-x,z
x,-y,-z
-x,y,-z
y,x,-z
-y,-x,-z
-x,-y,-z
y,-x,-z
x,y,-z
-y,x,-z
-x,y,z
x,-y,z
-y,-x,z
y,x,z
1/2+x,1/2+y,1/2+z
1/2-y,1/2+x,1/2+z
1/2-x,1/2-y,1/2+z
1/2+y,1/2-x,1/2+z
1/2+x,1/2-y,1/2-z
1/2-x,1/2+y,1/2-z
1/2+y,1/2+x,1/2-z
1/2-y,1/2-x,1/2-z
1/2-x,1/2-y,1/2-z
1/2+y,1/2-x,1/2-z
1/2+x,1/2+y,1/2-z
1/2-y,1/2+x,1/2-z
1/2-x,1/2+y,1/2+z
1/2+x,1/2-y,1/2+z
1/2-y,1/2-x,1/2+z
1/2+y,1/2+x,1/2+z
loop_
_atom_site_type_symbol
_atom_site_label
_atom_site_fract_x
_atom_site_fract_y
_atom_site_fract_z
Si Si1 0.712668 0.160959 0.690742
Si Si2 0.000000 0.873746 0.559316
Si Si3 0.125024 0.500000 0.062425
Si Si4 0.910921 0.217772 0.000000
Si Si5 0.500000 0.255064 0.153107
Si Si6 0.915511 0.335200 0.098583
O O1 0.778754 0.221247 0.679594
O O2 0.678824 0.178824 0.750000
O O3 0.745689 0.076400 0.687143
O O4 0.647547 0.168060 0.645221
O O5 0.927344 0.927344 0.559242
O O6 0.000000 0.832591 0.500000
O O7 0.000000 0.827677 0.614671
O O8 0.189845 0.500000 0.107468
O O9 0.084743 0.580327 0.072859
O O10 0.150593 0.500000 0.000000
O O11 0.899605 0.272524 0.947689
O O12 0.851962 0.148038 0.000000
O O13 0.000000 0.194360 0.000000
O O14 0.000000 0.321407 0.120323
#
# Coordination Sequence:
#
# PCOD9571255 Si02
#       6
#    32  16  16  16  16  32
#     4  10  22  38  55  77 105 138 177 222 265 307
#     4   9  17  30  50  78 113 147 178 215 261 317
#     4  10  18  31  50  79 110 138 170 204 249 306
#     4  10  20  34  53  79 103 135 172 214 267 316
#     4  10  20  33  54  77 105 141 179 218 259 318
#     4  10  20  33  55  77 107 140 171 210 257 314
#
# _framework density 16.628454000000001
#
# number of rings (size 3 to 8) (size 9 to 14) (size 15 to 20)
#    0.000    2.125    1.250    2.625    1.750    0.625 
#    0.000    0.000    0.000    0.000    0.000    0.000 
#    0.000    0.000    0.000    0.000    0.000    0.000 
#
# Total GULP energy -356568.928439 kJ/mol
# GULP energy per Si atom -5571.389507 kJ/mol
# Density = 1.659061 g / cm^3
# Si number density = 16.628454 Si / 1000 Ang^3
#
#
#
# Elastic Constant Matrix: (Units=GPa)
#
#
# Indices 1 2 3 4 5 6 
#
# 1 123.2042 75.3481 62.8306 0.0000 0.0000 0.0000
# 2 75.3481 123.2054 62.8300 0.0000 0.0000 0.0000
# 3 62.8306 62.8300 87.1069 0.0000 0.0000 0.0000
# 4 0.0000 0.0000 0.0000 -49.0752 0.0000 0.0000
# 5 0.0000 0.0000 0.0000 0.0000 -49.0828 0.0000
# 6 0.0000 0.0000 0.0000 0.0000 0.0000 9.9530
#
#
#
# Elastic Compliance Matrix: (Units=1/GPa)
#
#
# Indices 1 2 3 4 5 6 
#
# 1 0.015081 -0.005815 -0.006684 0.000000 0.000000 0.000000
# 2 -0.005815 0.015081 -0.006684 0.000000 0.000000 0.000000
# 3 -0.006684 -0.006684 0.021123 0.000000 0.000000 0.000000
# 4 0.000000 0.000000 0.000000 -0.020377 0.000000 0.000000
# 5 0.000000 0.000000 0.000000 0.000000 -0.020374 0.000000
# 6 0.000000 0.000000 0.000000 0.000000 0.000000 0.100472
#
#
# Mechanical properties :
#
#
# Convention : Reuss Voigt Hill
#
# Bulk Modulus (GPa) = 77.40125 81.72599 79.56362
# Shear Modulus (GPa) = 32.53549 -8.80715 11.86417
#
# Velocity S-wave (km/s) = 4.42816 -2.30390 2.67401
# Velocity P-wave (km/s) = 8.53190 6.49444 7.58192
#
# Compressibility (1/GPa) = 0.01291969
#
# Stress axis : x y z
#
# Youngs Moduli (GPa) = 66.30689 66.30857 47.34275
#
# Poissons Ratio (x) = 0.38555 0.31645
# Poissons Ratio (y) = 0.38554 0.31643
# Poissons Ratio (z) = 0.44321 0.44320
#
# Static dielectric constant tensor:
#      x y z
#    x 1.564030 0.000000 0.000000 
#    y 0.000000 1.564030 0.000000 
#    z 0.000000 0.000000 1.536160 
# 
# From -- ./inp_files/11410.got.cif
#   From: 2010.05.17/outbox.cif.g08.bks.cpg/sg139_6_cif.got.tgz:11410.got - 2010.05.20 13:14:44.
