data_PCOD9571743
_publ_section_title
;
Structure prediction by ZEFSAII (Michael W. Deem and Ramdas Pophale) SiO2 
 PCOD9571743
Probable space group: I 4/M M M
;
_chemical_formula_sum "Si O2"
_cell_formula_units_Z 120
_cell_length_a 18.174578
_cell_length_b 18.174578
_cell_length_c 19.489005
_cell_angle_alpha 90.000000
_cell_angle_beta 90.000000
_cell_angle_gamma 90.000000
_cell_volume 6437.516250
_symmetry_space_group_name_H-M "I 4/M M M"
_symmetry_group_IT_number 139
_symmetry_cell_setting 'tetragonal'
loop_
_space_group_symop_operation_xyz
x,y,z
-y,x,z
-x,-y,z
y,-x,z
x,-y,-z
-x,y,-z
y,x,-z
-y,-x,-z
-x,-y,-z
y,-x,-z
x,y,-z
-y,x,-z
-x,y,z
x,-y,z
-y,-x,z
y,x,z
1/2+x,1/2+y,1/2+z
1/2-y,1/2+x,1/2+z
1/2-x,1/2-y,1/2+z
1/2+y,1/2-x,1/2+z
1/2+x,1/2-y,1/2-z
1/2-x,1/2+y,1/2-z
1/2+y,1/2+x,1/2-z
1/2-y,1/2-x,1/2-z
1/2-x,1/2-y,1/2-z
1/2+y,1/2-x,1/2-z
1/2+x,1/2+y,1/2-z
1/2-y,1/2+x,1/2-z
1/2-x,1/2+y,1/2+z
1/2+x,1/2-y,1/2+z
1/2-y,1/2-x,1/2+z
1/2+y,1/2+x,1/2+z
loop_
_atom_site_type_symbol
_atom_site_label
_atom_site_fract_x
_atom_site_fract_y
_atom_site_fract_z
Si Si1 0.915802 0.706583 0.358784
Si Si2 0.833772 0.166229 0.881921
Si Si3 0.914985 0.085016 0.000000
Si Si4 0.810155 0.810155 0.729786
Si Si5 0.295281 0.418692 0.000000
Si Si6 0.412596 0.181562 0.417840
O O1 0.870363 0.763331 0.311719
O O2 0.913268 0.744349 0.433534
O O3 0.880469 0.626148 0.371098
O O4 0.000000 0.701111 0.335584
O O5 0.883009 0.116992 0.930621
O O6 0.842149 0.157852 0.800523
O O7 0.751879 0.139685 0.902112
O O8 0.000000 0.101152 0.000000
O O9 0.750000 0.750000 0.750000
O O10 0.330391 0.500000 0.000000
O O11 0.355399 0.355399 0.000000
O O12 0.408203 0.166127 0.500000
O O13 0.500000 0.193540 0.402794
#
# Coordination Sequence:
#
# PCOD9571743 Si02
#       6
#    32  16   8  16  16  32
#     4  11  23  40  62  92 128 166 209 262 313 370
#     4  12  23  40  65  92 120 159 218 265 311 379
#     4  11  24  42  66  98 130 160 202 265 340 396
#     4  12  24  42  64  92 120 167 217 262 314 374
#     4  10  20  36  64  89 117 161 203 253 310 363
#     4  11  22  37  63  96 128 166 214 267 320 375
#
# _framework density 18.640730000000001
#
# number of rings (size 3 to 8) (size 9 to 14) (size 15 to 20)
#    0.000    0.867    6.667    0.800    0.000    2.800 
#    0.000    1.333    0.000    0.400    0.000    0.000 
#    0.000    0.000    0.000    0.000    0.000    0.000 
#
# Total GULP energy -334717.311250 kJ/mol
# GULP energy per Si atom -5578.621854 kJ/mol
# Density = 1.859830 g / cm^3
# Si number density = 18.640730 Si / 1000 Ang^3
#
#
#
# Elastic Constant Matrix: (Units=GPa)
#
#
# Indices 1 2 3 4 5 6 
#
# 1 129.2335 55.6220 34.1578 0.0000 0.0000 0.0000
# 2 55.6220 129.2330 34.1578 0.0000 0.0000 0.0000
# 3 34.1578 34.1578 112.0180 0.0000 0.0000 0.0000
# 4 0.0000 0.0000 0.0000 -8.0499 0.0000 0.0000
# 5 0.0000 0.0000 0.0000 0.0000 -8.0442 0.0000
# 6 0.0000 0.0000 0.0000 0.0000 0.0000 26.6503
#
#
#
# Elastic Compliance Matrix: (Units=1/GPa)
#
#
# Indices 1 2 3 4 5 6 
#
# 1 0.009841 -0.003744 -0.001859 0.000000 0.000000 0.000000
# 2 -0.003744 0.009841 -0.001859 0.000000 0.000000 0.000000
# 3 -0.001859 -0.001859 0.010061 0.000000 0.000000 0.000000
# 4 0.000000 0.000000 0.000000 -0.124225 0.000000 0.000000
# 5 0.000000 0.000000 0.000000 0.000000 -0.124313 0.000000
# 6 0.000000 0.000000 0.000000 0.000000 0.000000 0.037523
#
#
# Mechanical properties :
#
#
# Convention : Reuss Voigt Hill
#
# Bulk Modulus (GPa) = 67.48548 68.70662 68.09605
# Shear Modulus (GPa) = -30.97729 18.54770 -6.21479
#
# Velocity S-wave (km/s) = -4.08095 3.15780 -1.82790
# Velocity P-wave (km/s) = 3.75184 7.08759 5.67055
#
# Compressibility (1/GPa) = 0.01481800
#
# Stress axis : x y z
#
# Youngs Moduli (GPa) = 101.61813 101.61776 99.39462
#
# Poissons Ratio (x) = 0.38047 0.18478
# Poissons Ratio (y) = 0.38047 0.18478
# Poissons Ratio (z) = 0.18891 0.18891
#
# Static dielectric constant tensor:
#      x y z
#    x 1.667340 0.000000 0.000000 
#    y 0.000000 1.667340 0.000000 
#    z 0.000000 0.000000 1.825530 
# 
# From -- ./inp_files/9872.got.cif
#   From: 2010.05.17/outbox.cif.g08.bks.cpg/sg139_5_cif.got.tgz:9872.got - 2010.05.20 13:14:44.
