data_PCOD9571831
_publ_section_title
;
Structure prediction by ZEFSAII (Michael W. Deem and Ramdas Pophale) SiO2 
 PCOD9571831
Probable space group: I 4/M M M
;
_chemical_formula_sum "Si O2"
_cell_formula_units_Z 176
_cell_length_a 18.596120
_cell_length_b 18.596120
_cell_length_c 24.892068
_cell_angle_alpha 90.000000
_cell_angle_beta 90.000000
_cell_angle_gamma 90.000000
_cell_volume 8608.067398
_symmetry_space_group_name_H-M "I 4/M M M"
_symmetry_group_IT_number 139
_symmetry_cell_setting 'tetragonal'
loop_
_space_group_symop_operation_xyz
x,y,z
-y,x,z
-x,-y,z
y,-x,z
x,-y,-z
-x,y,-z
y,x,-z
-y,-x,-z
-x,-y,-z
y,-x,-z
x,y,-z
-y,x,-z
-x,y,z
x,-y,z
-y,-x,z
y,x,z
1/2+x,1/2+y,1/2+z
1/2-y,1/2+x,1/2+z
1/2-x,1/2-y,1/2+z
1/2+y,1/2-x,1/2+z
1/2+x,1/2-y,1/2-z
1/2-x,1/2+y,1/2-z
1/2+y,1/2+x,1/2-z
1/2-y,1/2-x,1/2-z
1/2-x,1/2-y,1/2-z
1/2+y,1/2-x,1/2-z
1/2+x,1/2+y,1/2-z
1/2-y,1/2+x,1/2-z
1/2-x,1/2+y,1/2+z
1/2+x,1/2-y,1/2+z
1/2-y,1/2-x,1/2+z
1/2+y,1/2+x,1/2+z
loop_
_atom_site_type_symbol
_atom_site_label
_atom_site_fract_x
_atom_site_fract_y
_atom_site_fract_z
Si Si1 0.194016 0.921367 0.220401
Si Si2 0.500000 0.085516 0.437877
Si Si3 0.085989 0.796142 0.908933
Si Si4 0.000000 0.115173 0.565656
Si Si5 0.853740 0.355701 0.898920
Si Si6 0.919570 0.337594 0.289960
Si Si7 0.773752 0.500000 0.063659
O O1 0.141243 0.858758 0.237137
O O2 0.205670 0.916777 0.156180
O O3 0.267446 0.916898 0.253061
O O4 0.161608 0.000000 0.230902
O O5 0.500000 0.111409 0.500000
O O6 0.567070 0.113377 0.405703
O O7 0.500000 0.000000 0.440144
O O8 0.131978 0.868023 0.924496
O O9 0.134725 0.724940 0.922425
O O10 0.000000 0.793893 0.926332
O O11 0.000000 0.194458 0.588467
O O12 0.930293 0.069708 0.581366
O O13 0.000000 0.117722 0.500000
O O14 0.833254 0.360057 0.836413
O O15 0.807753 0.421362 0.924104
O O16 0.902885 0.402885 0.250000
O O17 0.000000 0.343347 0.313975
O O18 0.769591 0.500000 0.000000
#
# Coordination Sequence:
#
# PCOD9571831 Si02
#       7
#    32  16  32  16  32  32  16
#     4   9  19  35  56  81 116 156 197 240 289 346
#     4  11  22  38  61  84 113 156 200 241 293 359
#     4  10  21  38  59  88 120 158 205 255 306 364
#     4   8  16  35  63  89 115 155 203 249 299 350
#     4  12  22  37  58  88 121 156 196 240 299 362
#     4  11  22  35  53  80 117 154 194 235 277 343
#     4  11  23  39  62  94 128 160 200 248 299 357
#
# _framework density 20.445936
#
# number of rings (size 3 to 8) (size 9 to 14) (size 15 to 20)
#    0.000    1.636    4.545    0.818    1.273    2.364 
#    0.000    1.818    0.000    1.636    0.000    0.000 
#    0.000    0.727    0.000    0.000    0.000    0.000 
#
# Total GULP energy -490022.158308 kJ/mol
# GULP energy per Si atom -5568.433617 kJ/mol
# Density = 2.039940 g / cm^3
# Si number density = 20.445936 Si / 1000 Ang^3
#
#
#
# Elastic Constant Matrix: (Units=GPa)
#
#
# Indices 1 2 3 4 5 6 
#
# 1 117.2675 63.4373 -3.6446 0.0000 0.0000 0.0000
# 2 63.4373 117.2675 -3.6446 0.0000 0.0000 0.0000
# 3 -3.6446 -3.6446 19.6257 0.0000 0.0000 0.0000
# 4 0.0000 0.0000 0.0000 10.2867 0.0000 0.0000
# 5 0.0000 0.0000 0.0000 0.0000 10.2867 0.0000
# 6 0.0000 0.0000 0.0000 0.0000 0.0000 -1.8593
#
#
#
# Elastic Compliance Matrix: (Units=1/GPa)
#
#
# Indices 1 2 3 4 5 6 
#
# 1 0.012076 -0.006501 0.001035 0.000000 0.000000 0.000000
# 2 -0.006501 0.012076 0.001035 0.000000 0.000000 0.000000
# 3 0.001035 0.001035 0.051338 0.000000 0.000000 0.000000
# 4 0.000000 0.000000 0.000000 0.097213 0.000000 0.000000
# 5 0.000000 0.000000 0.000000 0.000000 0.097213 0.000000
# 6 0.000000 0.000000 0.000000 0.000000 0.000000 -0.537845
#
#
# Mechanical properties :
#
#
# Convention : Reuss Voigt Hill
#
# Bulk Modulus (GPa) = 15.00797 40.71744 27.86270
# Shear Modulus (GPa) = -21.10957 16.94367 -2.08295
#
# Velocity S-wave (km/s) = -3.21667 2.88185 -1.01043
# Velocity P-wave (km/s) = 2.53766 5.57058 3.50654
#
# Compressibility (1/GPa) = 0.06663126
#
# Stress axis : x y z
#
# Youngs Moduli (GPa) = 82.80682 82.80682 19.47865
#
# Poissons Ratio (x) = 0.53830 -0.02017
# Poissons Ratio (y) = 0.53830 -0.02017
# Poissons Ratio (z) = -0.08574 -0.08574
#
# Static dielectric constant tensor:
#      x y z
#    x 1.754470 0.000000 0.000000 
#    y 0.000000 1.754470 0.000000 
#    z 0.000000 0.000000 1.745720 
# 
# From -- ./inp_files/14314.got.cif
#   From: 2010.05.17/outbox.cif.g08.bks.cpg/sg139_8_cif.got.tgz:14314.got - 2010.05.20 13:14:44.
