data_PCOD9571123
_publ_section_title
;
Structure prediction by ZEFSAII (Michael W. Deem and Ramdas Pophale) SiO2 
 PCOD9571123
Probable space group: P 42/N C M
;
_chemical_formula_sum "Si O2"
_cell_formula_units_Z 52
_cell_length_a 15.785231
_cell_length_b 15.785231
_cell_length_c 10.354395
_cell_angle_alpha 90.000000
_cell_angle_beta 90.000000
_cell_angle_gamma 90.000000
_cell_volume 2580.041026
_symmetry_space_group_name_H-M "P 42/N C M"
_symmetry_group_IT_number 138
_space_group.IT_coordinate_system_code '2'
_symmetry_cell_setting 'tetragonal'
loop_
_space_group_symop_operation_xyz
x,y,z
1/2-y,x,1/2+z
1/2-x,1/2-y,z
y,1/2-x,1/2+z
1/2+x,-y,1/2-z
-x,1/2+y,1/2-z
1/2+y,1/2+x,-z
-y,-x,-z
-x,-y,-z
1/2+y,-x,1/2-z
1/2+x,1/2+y,-z
-y,1/2+x,1/2-z
1/2-x,y,1/2+z
x,1/2-y,1/2+z
1/2-y,1/2-x,z
y,x,z
loop_
_atom_site_type_symbol
_atom_site_label
_atom_site_fract_x
_atom_site_fract_y
_atom_site_fract_z
Si Si1 0.250000 0.250000 0.138803
Si Si2 0.929877 0.161821 0.118443
Si Si3 0.141758 0.929529 0.629601
Si Si4 0.883851 0.616150 0.763214
Si Si5 0.882220 0.882220 0.959554
O O1 0.187668 0.312333 0.217573
O O2 0.310920 0.310920 0.056942
O O3 0.906599 0.260287 0.108584
O O4 0.897531 0.123639 0.252855
O O5 0.887563 0.112438 0.000000
O O6 0.030629 0.148297 0.105151
O O7 0.089607 0.910394 0.500000
O O8 0.141255 0.027666 0.671083
O O9 0.897813 0.602188 0.611056
#
# Coordination Sequence:
#
# PCOD9571123 Si02
#       5
#     4  16  16   8   8
#     4  12  26  44  82 108 130 178 236 312 346 422
#     4  12  25  47  74 101 145 194 235 285 356 421
#     4  12  27  44  73 107 143 187 238 293 342 420
#     4  12  25  50  70 109 141 177 238 295 372 412
#     4  12  25  49  75 103 142 186 230 293 376 418
#
# _framework density 20.154717999999999
#
# number of rings (size 3 to 8) (size 9 to 14) (size 15 to 20)
#    0.000    0.000    6.154    4.154    0.000    3.692 
#    5.538    0.000    0.000    0.000    0.000    0.000 
#    0.000    0.000    0.000    0.000    0.000    0.000 
#
# Total GULP energy -291122.422744 kJ/mol
# GULP energy per Si atom -5598.508130 kJ/mol
# Density = 2.010885 g / cm^3
# Si number density = 20.154718 Si / 1000 Ang^3
#
#
#
# Elastic Constant Matrix: (Units=GPa)
#
#
# Indices 1 2 3 4 5 6 
#
# 1 123.4501 40.5310 33.3945 0.0000 0.0000 0.0000
# 2 40.5310 123.4510 33.3965 0.0000 0.0000 0.0000
# 3 33.3945 33.3965 107.6921 0.0000 0.0000 0.0000
# 4 0.0000 0.0000 0.0000 -36.3536 0.0000 0.0000
# 5 0.0000 0.0000 0.0000 0.0000 -36.6513 0.0000
# 6 0.0000 0.0000 0.0000 0.0000 0.0000 38.9153
#
#
#
# Elastic Compliance Matrix: (Units=1/GPa)
#
#
# Indices 1 2 3 4 5 6 
#
# 1 0.009520 -0.002540 -0.002164 0.000000 0.000000 0.000000
# 2 -0.002540 0.009520 -0.002165 0.000000 0.000000 0.000000
# 3 -0.002164 -0.002165 0.010628 0.000000 0.000000 0.000000
# 4 0.000000 0.000000 0.000000 -0.027508 0.000000 0.000000
# 5 0.000000 0.000000 0.000000 0.000000 -0.027284 0.000000
# 6 0.000000 0.000000 0.000000 0.000000 0.000000 0.025697
#
#
# Mechanical properties :
#
#
# Convention : Reuss Voigt Hill
#
# Bulk Modulus (GPa) = 62.77470 63.24859 63.01165
# Shear Modulus (GPa) = 254.83079 9.66682 132.24881
#
# Velocity S-wave (km/s) = 11.25663 2.19242 8.10921
# Velocity P-wave (km/s) = 14.14790 6.15294 10.90921
#
# Compressibility (1/GPa) = 0.01592998
#
# Stress axis : x y z
#
# Youngs Moduli (GPa) = 105.04367 105.04333 94.08980
#
# Poissons Ratio (x) = 0.26681 0.20364
# Poissons Ratio (y) = 0.26681 0.20367
# Poissons Ratio (z) = 0.22735 0.22738
#
# Static dielectric constant tensor:
#      x y z
#    x 1.675560 0.000000 0.000000 
#    y 0.000000 1.675590 0.000000 
#    z 0.000000 0.000000 1.661070 
# 
# From -- ./inp_files/2528.got.cif
#   From: 2010.05.17/outbox.cif.g08.bks.cpg/sg138_2_cif.got.tgz:2528.got - 2010.05.20 13:08:53.
