data_PCOD9571576
_publ_section_title
;
Structure prediction by ZEFSAII (Michael W. Deem and Ramdas Pophale) SiO2 
 PCOD9571576
Probable space group: I 4/M M M
;
_chemical_formula_sum "Si O2"
_cell_formula_units_Z 192
_cell_length_a 28.766794
_cell_length_b 28.766794
_cell_length_c 13.713154
_cell_angle_alpha 90.000000
_cell_angle_beta 90.000000
_cell_angle_gamma 90.000000
_cell_volume 11348.024896
_symmetry_space_group_name_H-M "I 4/M M M"
_symmetry_group_IT_number 139
_symmetry_cell_setting 'tetragonal'
loop_
_space_group_symop_operation_xyz
x,y,z
-y,x,z
-x,-y,z
y,-x,z
x,-y,-z
-x,y,-z
y,x,-z
-y,-x,-z
-x,-y,-z
y,-x,-z
x,y,-z
-y,x,-z
-x,y,z
x,-y,z
-y,-x,z
y,x,z
1/2+x,1/2+y,1/2+z
1/2-y,1/2+x,1/2+z
1/2-x,1/2-y,1/2+z
1/2+y,1/2-x,1/2+z
1/2+x,1/2-y,1/2-z
1/2-x,1/2+y,1/2-z
1/2+y,1/2+x,1/2-z
1/2-y,1/2-x,1/2-z
1/2-x,1/2-y,1/2-z
1/2+y,1/2-x,1/2-z
1/2+x,1/2+y,1/2-z
1/2-y,1/2+x,1/2-z
1/2-x,1/2+y,1/2+z
1/2+x,1/2-y,1/2+z
1/2-y,1/2-x,1/2+z
1/2+y,1/2+x,1/2+z
loop_
_atom_site_type_symbol
_atom_site_label
_atom_site_fract_x
_atom_site_fract_y
_atom_site_fract_z
Si Si1 0.270641 0.803496 0.118340
Si Si2 0.628329 0.371671 0.382807
Si Si3 0.098619 0.233751 0.115557
Si Si4 0.228839 0.846497 0.382530
Si Si5 0.550837 0.274218 0.198780
Si Si6 0.626882 0.550454 0.112113
Si Si7 0.946880 0.946880 0.881066
O O1 0.224155 0.775846 0.148439
O O2 0.266691 0.857702 0.140889
O O3 0.313741 0.771762 0.150524
O O4 0.271077 0.801997 0.000000
O O5 0.625817 0.374183 0.500000
O O6 0.615907 0.318646 0.360520
O O7 0.590681 0.409320 0.347182
O O8 0.056509 0.241027 0.189178
O O9 0.088588 0.236647 0.000000
O O10 0.227965 0.846383 0.500000
O O11 0.180807 0.819194 0.352983
O O12 0.237119 0.899366 0.349860
O O13 0.500000 0.258121 0.160461
O O14 0.550305 0.329813 0.183660
O O15 0.603390 0.500000 0.117383
O O16 0.591470 0.591470 0.128356
O O17 0.645070 0.555335 0.000000
O O18 0.000000 0.935850 0.851383
O O19 0.946694 0.946694 0.000000
#
# Coordination Sequence:
#
# PCOD9571576 Si02
#       7
#    32  16  32  32  32  32  16
#     4   8  14  28  49  74  97 113 140 187 240 289
#     4   9  17  28  45  61  76 108 145 187 246 291
#     4  10  20  33  48  66  91 121 153 192 235 280
#     4   9  18  32  53  76  95 116 144 187 245 300
#     4  11  23  33  44  64  90 123 159 189 219 266
#     4   9  18  32  49  66  82 102 135 186 244 294
#     4   8  14  25  40  56  71  92 139 205 252 276
#
# _framework density 16.919243000000002
#
# number of rings (size 3 to 8) (size 9 to 14) (size 15 to 20)
#    0.000    2.750    0.833    2.250    2.333    4.167 
#    0.000    4.167    0.000    0.000    0.000    0.000 
#    0.000    0.000    0.000    0.000    0.000    6.667 
#
# Total GULP energy -535132.319611 kJ/mol
# GULP energy per Si atom -5574.294996 kJ/mol
# Density = 1.688073 g / cm^3
# Si number density = 16.919243 Si / 1000 Ang^3
#
#
#
# Elastic Constant Matrix: (Units=GPa)
#
#
# Indices 1 2 3 4 5 6 
#
# 1 72.1307 40.9957 16.2414 0.0000 0.0000 0.0000
# 2 40.9957 72.1307 16.2414 0.0000 0.0000 0.0000
# 3 16.2414 16.2414 74.1488 0.0000 0.0000 0.0000
# 4 0.0000 0.0000 0.0000 16.1158 0.0000 0.0000
# 5 0.0000 0.0000 0.0000 0.0000 16.1158 0.0000
# 6 0.0000 0.0000 0.0000 0.0000 0.0000 13.2031
#
#
#
# Elastic Compliance Matrix: (Units=1/GPa)
#
#
# Indices 1 2 3 4 5 6 
#
# 1 0.020776 -0.011343 -0.002066 0.000000 0.000000 0.000000
# 2 -0.011343 0.020776 -0.002066 0.000000 0.000000 0.000000
# 3 -0.002066 -0.002066 0.014392 0.000000 0.000000 0.000000
# 4 0.000000 0.000000 0.000000 0.062051 0.000000 0.000000
# 5 0.000000 0.000000 0.000000 0.000000 0.062051 0.000000
# 6 0.000000 0.000000 0.000000 0.000000 0.000000 0.075740
#
#
# Mechanical properties :
#
#
# Convention : Reuss Voigt Hill
#
# Bulk Modulus (GPa) = 40.01161 40.59634 40.30397
# Shear Modulus (GPa) = 16.94541 18.74905 17.84723
#
# Velocity S-wave (km/s) = 3.16816 3.33250 3.25137
# Velocity P-wave (km/s) = 6.08957 6.23327 6.16184
#
# Compressibility (1/GPa) = 0.02499275
#
# Stress axis : x y z
#
# Youngs Moduli (GPa) = 48.13354 48.13354 69.48530
#
# Poissons Ratio (x) = 0.54596 0.14357
# Poissons Ratio (y) = 0.54596 0.14357
# Poissons Ratio (z) = 0.09945 0.09945
#
# Static dielectric constant tensor:
#      x y z
#    x 1.573950 0.000000 0.000000 
#    y 0.000000 1.573950 0.000000 
#    z 0.000000 0.000000 1.681270 
# 
# From -- ./inp_files/6517.got.cif
#   From: 2010.05.17/outbox.cif.g08.bks.cpg/sg139_4_cif.got.tgz:6517.got - 2010.05.20 13:14:44.
