data_PCOD9571146
_publ_section_title
;
Structure prediction by ZEFSAII (Michael W. Deem and Ramdas Pophale) SiO2 
 PCOD9571146
Probable space group: I 4/M M M
;
_chemical_formula_sum "Si O2"
_cell_formula_units_Z 160
_cell_length_a 29.866526
_cell_length_b 29.866526
_cell_length_c 10.389633
_cell_angle_alpha 90.000000
_cell_angle_beta 90.000000
_cell_angle_gamma 90.000000
_cell_volume 9267.650042
_symmetry_space_group_name_H-M "I 4/M M M"
_symmetry_group_IT_number 139
_symmetry_cell_setting 'tetragonal'
loop_
_space_group_symop_operation_xyz
x,y,z
-y,x,z
-x,-y,z
y,-x,z
x,-y,-z
-x,y,-z
y,x,-z
-y,-x,-z
-x,-y,-z
y,-x,-z
x,y,-z
-y,x,-z
-x,y,z
x,-y,z
-y,-x,z
y,x,z
1/2+x,1/2+y,1/2+z
1/2-y,1/2+x,1/2+z
1/2-x,1/2-y,1/2+z
1/2+y,1/2-x,1/2+z
1/2+x,1/2-y,1/2-z
1/2-x,1/2+y,1/2-z
1/2+y,1/2+x,1/2-z
1/2-y,1/2-x,1/2-z
1/2-x,1/2-y,1/2-z
1/2+y,1/2-x,1/2-z
1/2+x,1/2+y,1/2-z
1/2-y,1/2+x,1/2-z
1/2-x,1/2+y,1/2+z
1/2+x,1/2-y,1/2+z
1/2-y,1/2-x,1/2+z
1/2+y,1/2+x,1/2+z
loop_
_atom_site_type_symbol
_atom_site_label
_atom_site_fract_x
_atom_site_fract_y
_atom_site_fract_z
Si Si1 0.400022 0.812591 0.000000
Si Si2 0.718960 0.352369 0.000000
Si Si3 0.707112 0.946810 0.770047
Si Si4 0.106565 0.203932 0.222519
Si Si5 0.671843 0.885903 0.000000
Si Si6 0.447063 0.552938 0.863902
Si Si7 0.259984 0.329813 0.500000
Si Si8 0.396931 0.603070 0.646005
O O1 0.429617 0.806522 0.871843
O O2 0.374981 0.860096 0.000000
O O3 0.362966 0.772181 0.000000
O O4 0.702200 0.375889 0.868851
O O5 0.697530 0.302471 0.000000
O O6 0.759170 0.932456 0.786882
O O7 0.701036 0.000000 0.785169
O O8 0.680744 0.917283 0.876157
O O9 0.093907 0.155162 0.174302
O O10 0.145952 0.220345 0.127026
O O11 0.708660 0.845599 0.000000
O O12 0.439605 0.500000 0.862228
O O13 0.425222 0.574779 0.743324
O O14 0.428899 0.571102 0.000000
O O15 0.279225 0.279225 0.500000
O O16 0.407348 0.592653 0.500000
#
# Coordination Sequence:
#
# PCOD9571146 Si02
#       8
#    16  16  32  32  16  16  16  16
#     4  10  21  36  54  81 113 142 184 240 275 314
#     4  10  18  30  50  73 106 150 189 218 265 311
#     4  10  21  37  56  78 112 152 185 224 278 335
#     4  10  19  31  50  75 109 147 182 224 266 316
#     4  10  21  34  56  83 109 142 188 236 267 326
#     4   9  22  44  60  72  96 129 169 228 297 355
#     4  10  16  32  50  71 108 152 179 210 271 315
#     4  12  21  33  57  84 109 140 179 236 284 330
#
# _framework density 17.264354999999998
#
# number of rings (size 3 to 8) (size 9 to 14) (size 15 to 20)
#    0.000    1.900    3.000    1.500    1.400    1.600 
#    0.000    0.500    0.000    7.200    0.000    0.000 
#    0.000   28.000    0.000    0.000    0.000    0.000 
#
# Total GULP energy -446067.146242 kJ/mol
# GULP energy per Si atom -5575.839328 kJ/mol
# Density = 1.722506 g / cm^3
# Si number density = 17.264355 Si / 1000 Ang^3
#
#
#
# Elastic Constant Matrix: (Units=GPa)
#
#
# Indices 1 2 3 4 5 6 
#
# 1 212.6477 -98.6506 24.2200 0.0000 0.0000 0.0000
# 2 -98.6506 212.6077 24.1879 0.0000 0.0000 0.0000
# 3 24.2200 24.1879 130.5201 0.0000 0.0000 0.0000
# 4 0.0000 0.0000 0.0000 22.9029 0.0000 0.0000
# 5 0.0000 0.0000 0.0000 0.0000 22.9064 0.0000
# 6 0.0000 0.0000 0.0000 0.0000 0.0000 23.9314
#
#
#
# Elastic Compliance Matrix: (Units=1/GPa)
#
#
# Indices 1 2 3 4 5 6 
#
# 1 0.006368 0.003156 -0.001766 0.000000 0.000000 0.000000
# 2 0.003156 0.006369 -0.001766 0.000000 0.000000 0.000000
# 3 -0.001766 -0.001766 0.008317 0.000000 0.000000 0.000000
# 4 0.000000 0.000000 0.000000 0.043663 0.000000 0.000000
# 5 0.000000 0.000000 0.000000 0.000000 0.043656 0.000000
# 6 0.000000 0.000000 0.000000 0.000000 0.000000 0.041786
#
#
# Mechanical properties :
#
#
# Convention : Reuss Voigt Hill
#
# Bulk Modulus (GPa) = 49.26158 50.58781 49.92469
# Shear Modulus (GPa) = 31.71031 54.34936 43.02983
#
# Velocity S-wave (km/s) = 4.29038 5.61685 4.99782
# Velocity P-wave (km/s) = 7.28964 8.45168 7.89207
#
# Compressibility (1/GPa) = 0.02029980
#
# Stress axis : x y z
#
# Youngs Moduli (GPa) = 157.04157 157.02035 120.24035
#
# Poissons Ratio (x) = -0.49550 0.21240
# Poissons Ratio (y) = -0.49556 0.21232
# Poissons Ratio (z) = 0.27740 0.27727
#
# Static dielectric constant tensor:
#      x y z
#    x 1.573810 0.000000 0.000000 
#    y 0.000000 1.573810 0.000000 
#    z 0.000000 0.000000 1.595180 
# 
# From -- ./inp_files/2356.got.cif
#   From: 2010.05.17/outbox.cif.g08.bks.cpg/sg139_2_cif.got.tgz:2356.got - 2010.05.20 13:14:44.
