data_PCOD9571837
_publ_section_title
;
Structure prediction by ZEFSAII (Michael W. Deem and Ramdas Pophale) SiO2 
 PCOD9571837
Probable space group: I 4/M M M
;
_chemical_formula_sum "Si O2"
_cell_formula_units_Z 216
_cell_length_a 26.821681
_cell_length_b 26.821681
_cell_length_c 15.048912
_cell_angle_alpha 90.000000
_cell_angle_beta 90.000000
_cell_angle_gamma 90.000000
_cell_volume 10826.225994
_symmetry_space_group_name_H-M "I 4/M M M"
_symmetry_group_IT_number 139
_symmetry_cell_setting 'tetragonal'
loop_
_space_group_symop_operation_xyz
x,y,z
-y,x,z
-x,-y,z
y,-x,z
x,-y,-z
-x,y,-z
y,x,-z
-y,-x,-z
-x,-y,-z
y,-x,-z
x,y,-z
-y,x,-z
-x,y,z
x,-y,z
-y,-x,z
y,x,z
1/2+x,1/2+y,1/2+z
1/2-y,1/2+x,1/2+z
1/2-x,1/2-y,1/2+z
1/2+y,1/2-x,1/2+z
1/2+x,1/2-y,1/2-z
1/2-x,1/2+y,1/2-z
1/2+y,1/2+x,1/2-z
1/2-y,1/2-x,1/2-z
1/2-x,1/2-y,1/2-z
1/2+y,1/2-x,1/2-z
1/2+x,1/2+y,1/2-z
1/2-y,1/2+x,1/2-z
1/2-x,1/2+y,1/2+z
1/2+x,1/2-y,1/2+z
1/2-y,1/2-x,1/2+z
1/2+y,1/2+x,1/2+z
loop_
_atom_site_type_symbol
_atom_site_label
_atom_site_fract_x
_atom_site_fract_y
_atom_site_fract_z
Si Si1 0.000000 0.124639 0.000000
Si Si2 0.295066 0.785978 0.643365
Si Si3 0.869417 0.942806 0.500000
Si Si4 0.143638 0.441115 0.248811
Si Si5 0.275311 0.091977 0.101223
Si Si6 0.602753 0.678819 0.825528
Si Si7 0.900565 0.713948 0.397904
Si Si8 0.660770 0.417757 0.369451
O O1 0.043282 0.128514 0.076931
O O2 0.251120 0.748881 0.614255
O O3 0.291574 0.791574 0.750000
O O4 0.349545 0.766335 0.619804
O O5 0.293680 0.841028 0.602378
O O6 0.926814 0.926814 0.500000
O O7 0.844995 0.919354 0.586628
O O8 0.860558 0.000000 0.500000
O O9 0.132083 0.500000 0.255301
O O10 0.095801 0.404200 0.250000
O O11 0.183725 0.427125 0.327391
O O12 0.170846 0.428537 0.155427
O O13 0.218783 0.071565 0.107512
O O14 0.293348 0.084203 0.000000
O O15 0.660681 0.660681 0.820634
O O16 0.594263 0.736813 0.837994
O O17 0.577532 0.658910 0.736837
O O18 0.917307 0.720305 0.500000
O O19 0.637306 0.362695 0.388862
#
# Coordination Sequence:
#
# PCOD9571837 Si02
#       8
#     8  32  16  32  32  32  32  32
#     4  12  26  40  64  89 136 180 245 286 340 392
#     4  11  21  36  62  96 141 186 217 258 322 399
#     4  10  22  39  60  87 120 164 220 270 321 379
#     4  12  28  50  72  99 133 171 227 291 352 417
#     4  12  23  40  67  97 136 171 221 273 339 405
#     4  10  21  38  61  92 136 178 218 268 330 409
#     4  12  22  39  65  99 139 174 217 263 328 418
#     4  11  24  41  63  94 133 180 233 288 343 402
#
# _framework density 19.951550000000001
#
# number of rings (size 3 to 8) (size 9 to 14) (size 15 to 20)
#    0.000    0.741    5.926    1.556    2.074    6.148 
#    0.000    0.000    0.000    1.778    0.000    2.074 
#    0.000    0.000    0.000    0.000    0.000    0.000 
#
# Total GULP energy -601835.977983 kJ/mol
# GULP energy per Si atom -5572.555352 kJ/mol
# Density = 1.990614 g / cm^3
# Si number density = 19.951550 Si / 1000 Ang^3
#
#
#
# Elastic Constant Matrix: (Units=GPa)
#
#
# Indices 1 2 3 4 5 6 
#
# 1 102.1549 24.5671 26.1713 0.0000 0.0000 0.0000
# 2 24.5671 102.1570 26.1717 0.0000 0.0000 0.0000
# 3 26.1713 26.1717 149.3573 0.0000 0.0000 0.0000
# 4 0.0000 0.0000 0.0000 25.7127 0.0000 0.0000
# 5 0.0000 0.0000 0.0000 0.0000 25.7127 0.0000
# 6 0.0000 0.0000 0.0000 0.0000 0.0000 7.4225
#
#
#
# Elastic Compliance Matrix: (Units=1/GPa)
#
#
# Indices 1 2 3 4 5 6 
#
# 1 0.010698 -0.002191 -0.001491 0.000000 0.000000 0.000000
# 2 -0.002191 0.010698 -0.001491 0.000000 0.000000 0.000000
# 3 -0.001491 -0.001491 0.007218 0.000000 0.000000 0.000000
# 4 0.000000 0.000000 0.000000 0.038891 0.000000 0.000000
# 5 0.000000 0.000000 0.000000 0.000000 0.038891 0.000000
# 6 0.000000 0.000000 0.000000 0.000000 0.000000 0.134726
#
#
# Mechanical properties :
#
#
# Convention : Reuss Voigt Hill
#
# Bulk Modulus (GPa) = 54.73743 56.38772 55.56257
# Shear Modulus (GPa) = 19.41330 30.22017 24.81673
#
# Velocity S-wave (km/s) = 3.12271 3.89611 3.53065
# Velocity P-wave (km/s) = 6.36369 6.96873 6.67307
#
# Compressibility (1/GPa) = 0.01826904
#
# Stress axis : x y z
#
# Youngs Moduli (GPa) = 93.47714 93.47898 138.54716
#
# Poissons Ratio (x) = 0.20479 0.20653
# Poissons Ratio (y) = 0.20479 0.20652
# Poissons Ratio (z) = 0.13934 0.13934
#
# Static dielectric constant tensor:
#      x y z
#    x 1.741450 0.000000 0.000000 
#    y 0.000000 1.741450 0.000000 
#    z 0.000000 0.000000 1.706720 
# 
# From -- ./inp_files/6590.got.cif
#   From: 2010.05.17/outbox.cif.g08.bks.cpg/sg139_4_cif.got.tgz:6590.got - 2010.05.20 13:14:44.
