data_PCOD9571612
_publ_section_title
;
Structure prediction by ZEFSAII (Michael W. Deem and Ramdas Pophale) SiO2 
 PCOD9571612
Probable space group: I 4/M M M
;
_chemical_formula_sum "Si O2"
_cell_formula_units_Z 112
_cell_length_a 19.142670
_cell_length_b 19.142670
_cell_length_c 16.917709
_cell_angle_alpha 90.000000
_cell_angle_beta 90.000000
_cell_angle_gamma 90.000000
_cell_volume 6199.355987
_symmetry_space_group_name_H-M "I 4/M M M"
_symmetry_group_IT_number 139
_symmetry_cell_setting 'tetragonal'
loop_
_space_group_symop_operation_xyz
x,y,z
-y,x,z
-x,-y,z
y,-x,z
x,-y,-z
-x,y,-z
y,x,-z
-y,-x,-z
-x,-y,-z
y,-x,-z
x,y,-z
-y,x,-z
-x,y,z
x,-y,z
-y,-x,z
y,x,z
1/2+x,1/2+y,1/2+z
1/2-y,1/2+x,1/2+z
1/2-x,1/2-y,1/2+z
1/2+y,1/2-x,1/2+z
1/2+x,1/2-y,1/2-z
1/2-x,1/2+y,1/2-z
1/2+y,1/2+x,1/2-z
1/2-y,1/2-x,1/2-z
1/2-x,1/2-y,1/2-z
1/2+y,1/2-x,1/2-z
1/2+x,1/2+y,1/2-z
1/2-y,1/2+x,1/2-z
1/2-x,1/2+y,1/2+z
1/2+x,1/2-y,1/2+z
1/2-y,1/2-x,1/2+z
1/2+y,1/2+x,1/2+z
loop_
_atom_site_type_symbol
_atom_site_label
_atom_site_fract_x
_atom_site_fract_y
_atom_site_fract_z
Si Si1 0.917527 0.293387 0.654008
Si Si2 0.197973 0.081598 0.500000
Si Si3 0.828720 0.580711 0.593592
Si Si4 0.698191 0.418122 0.694517
O O1 0.905593 0.245015 0.577271
O O2 0.874344 0.363810 0.641507
O O3 0.899734 0.247878 0.730941
O O4 0.000000 0.309775 0.658086
O O5 0.131968 0.131968 0.500000
O O6 0.177538 0.000000 0.500000
O O7 0.838792 0.590962 0.500000
O O8 0.846747 0.500000 0.613011
O O9 0.748148 0.590186 0.618580
O O10 0.679021 0.500000 0.702200
O O11 0.632127 0.367874 0.692379
#
# Coordination Sequence:
#
# PCOD9571612 Si02
#       4
#    32  16  32  32
#     4  10  20  36  56  81 111 144 184 226 269 326
#     4  10  20  33  51  77 107 141 182 226 272 324
#     4  10  21  37  56  82 115 148 184 226 272 325
#     4  10  22  39  58  81 110 143 183 232 280 330
#
# _framework density 18.066392
#
# number of rings (size 3 to 8) (size 9 to 14) (size 15 to 20)
#    0.000    2.000    1.429    1.714    0.000    5.000 
#    0.000    1.429    0.000   10.286    0.000    4.000 
#    0.000    0.000    0.000    0.000    0.000    0.000 
#
# Total GULP energy -312652.297913 kJ/mol
# GULP energy per Si atom -5583.076748 kJ/mol
# Density = 1.802527 g / cm^3
# Si number density = 18.066392 Si / 1000 Ang^3
#
#
#
# Elastic Constant Matrix: (Units=GPa)
#
#
# Indices 1 2 3 4 5 6 
#
# 1 97.9535 86.1075 4.7348 0.0000 0.0000 0.0000
# 2 86.1075 97.9535 4.7348 0.0000 0.0000 0.0000
# 3 4.7348 4.7348 8.9789 0.0000 0.0000 0.0000
# 4 0.0000 0.0000 0.0000 16.3422 0.0000 0.0000
# 5 0.0000 0.0000 0.0000 0.0000 16.3422 0.0000
# 6 0.0000 0.0000 0.0000 0.0000 0.0000 76.7701
#
#
#
# Elastic Compliance Matrix: (Units=1/GPa)
#
#
# Indices 1 2 3 4 5 6 
#
# 1 0.045001 -0.039416 -0.002945 0.000000 0.000000 0.000000
# 2 -0.039416 0.045001 -0.002945 0.000000 0.000000 0.000000
# 3 -0.002945 -0.002945 0.114478 0.000000 0.000000 0.000000
# 4 0.000000 0.000000 0.000000 0.061191 0.000000 0.000000
# 5 0.000000 0.000000 0.000000 0.000000 0.061191 0.000000
# 6 0.000000 0.000000 0.000000 0.000000 0.000000 0.013026
#
#
# Mechanical properties :
#
#
# Convention : Reuss Voigt Hill
#
# Bulk Modulus (GPa) = 8.78213 44.00447 26.39330
# Shear Modulus (GPa) = 10.67338 29.17814 19.92576
#
# Velocity S-wave (km/s) = 2.43325 4.02313 3.32462
# Velocity P-wave (km/s) = 3.57293 6.78165 5.42017
#
# Compressibility (1/GPa) = 0.11386757
#
# Stress axis : x y z
#
# Youngs Moduli (GPa) = 22.22192 22.22192 8.73530
#
# Poissons Ratio (x) = 0.87590 0.02572
# Poissons Ratio (y) = 0.87590 0.02572
# Poissons Ratio (z) = 0.06544 0.06544
#
# Static dielectric constant tensor:
#      x y z
#    x 1.592120 0.000000 0.000000 
#    y 0.000000 1.592120 0.000000 
#    z 0.000000 0.000000 1.637250 
# 
# From -- ./inp_files/7547.got.cif
#   From: 2010.05.17/outbox.cif.g08.bks.cpg/sg139_4_cif.got.tgz:7547.got - 2010.05.20 13:14:44.
