data_PCOD9571825
_publ_section_title
;
Structure prediction by ZEFSAII (Michael W. Deem and Ramdas Pophale) SiO2 
 PCOD9571825
Probable space group: I 4/M M M
;
_chemical_formula_sum "Si O2"
_cell_formula_units_Z 160
_cell_length_a 21.890854
_cell_length_b 21.890854
_cell_length_c 18.469399
_cell_angle_alpha 90.000000
_cell_angle_beta 90.000000
_cell_angle_gamma 90.000000
_cell_volume 8850.711254
_symmetry_space_group_name_H-M "I 4/M M M"
_symmetry_group_IT_number 139
_symmetry_cell_setting 'tetragonal'
loop_
_space_group_symop_operation_xyz
x,y,z
-y,x,z
-x,-y,z
y,-x,z
x,-y,-z
-x,y,-z
y,x,-z
-y,-x,-z
-x,-y,-z
y,-x,-z
x,y,-z
-y,x,-z
-x,y,z
x,-y,z
-y,-x,z
y,x,z
1/2+x,1/2+y,1/2+z
1/2-y,1/2+x,1/2+z
1/2-x,1/2-y,1/2+z
1/2+y,1/2-x,1/2+z
1/2+x,1/2-y,1/2-z
1/2-x,1/2+y,1/2-z
1/2+y,1/2+x,1/2-z
1/2-y,1/2-x,1/2-z
1/2-x,1/2-y,1/2-z
1/2+y,1/2-x,1/2-z
1/2+x,1/2+y,1/2-z
1/2-y,1/2+x,1/2-z
1/2-x,1/2+y,1/2+z
1/2+x,1/2-y,1/2+z
1/2-y,1/2-x,1/2+z
1/2+y,1/2+x,1/2+z
loop_
_atom_site_type_symbol
_atom_site_label
_atom_site_fract_x
_atom_site_fract_y
_atom_site_fract_z
Si Si1 0.729427 0.729427 0.415381
Si Si2 0.332685 0.332685 0.084461
Si Si3 0.748599 0.572729 0.831611
Si Si4 0.000000 0.626966 0.914766
Si Si5 0.786044 0.883283 0.824642
Si Si6 0.426639 0.113632 0.828503
Si Si7 0.773164 0.000000 0.085143
O O1 0.716487 0.716487 0.500000
O O2 0.780492 0.780492 0.410767
O O3 0.749006 0.668001 0.372318
O O4 0.390697 0.302460 0.123907
O O5 0.345026 0.345026 0.000000
O O6 0.738603 0.500000 0.834225
O O7 0.745829 0.594747 0.748185
O O8 0.817961 0.585595 0.857124
O O9 0.939715 0.598427 0.879247
O O10 0.000000 0.699873 0.902674
O O11 0.000000 0.615511 0.000000
O O12 0.847986 0.847986 0.803650
O O13 0.798234 0.940138 0.876019
O O14 0.500000 0.107681 0.820047
O O15 0.396757 0.103244 0.750000
O O16 0.784831 0.000000 0.000000
#
# Coordination Sequence:
#
# PCOD9571825 Si02
#       7
#    16  16  32  16  32  32  16
#     4   9  21  37  57  91 130 163 200 249 310 368
#     4  11  25  43  65  92 120 161 208 262 328 382
#     4  11  24  42  64  93 126 159 207 265 314 372
#     4  11  25  40  59  86 121 166 213 258 305 360
#     4  10  21  37  61  91 122 162 206 248 308 368
#     4  11  23  38  59  85 121 166 211 253 300 358
#     4  11  22  37  58  92 131 165 203 252 306 374
#
# _framework density 18.077643999999999
#
# number of rings (size 3 to 8) (size 9 to 14) (size 15 to 20)
#    0.600    0.800    3.000    2.100    5.600    2.800 
#    0.000    2.000    0.000    0.600    0.000    1.400 
#    0.000    0.000    0.000    0.000    0.000    0.000 
#
# Total GULP energy -446605.296839 kJ/mol
# GULP energy per Si atom -5582.566210 kJ/mol
# Density = 1.803650 g / cm^3
# Si number density = 18.077644 Si / 1000 Ang^3
#
#
#
# Elastic Constant Matrix: (Units=GPa)
#
#
# Indices 1 2 3 4 5 6 
#
# 1 91.4374 46.7422 42.8431 0.0000 0.0000 0.0000
# 2 46.7422 91.4373 42.8431 0.0000 0.0000 0.0000
# 3 42.8431 42.8431 93.0475 0.0000 0.0000 0.0000
# 4 0.0000 0.0000 0.0000 25.3054 0.0000 0.0000
# 5 0.0000 0.0000 0.0000 0.0000 25.3056 0.0000
# 6 0.0000 0.0000 0.0000 0.0000 0.0000 22.4055
#
#
#
# Elastic Compliance Matrix: (Units=1/GPa)
#
#
# Indices 1 2 3 4 5 6 
#
# 1 0.016251 -0.006122 -0.004664 0.000000 0.000000 0.000000
# 2 -0.006122 0.016251 -0.004664 0.000000 0.000000 0.000000
# 3 -0.004664 -0.004664 0.015042 0.000000 0.000000 0.000000
# 4 0.000000 0.000000 0.000000 0.039517 0.000000 0.000000
# 5 0.000000 0.000000 0.000000 0.000000 0.039517 0.000000
# 6 0.000000 0.000000 0.000000 0.000000 0.000000 0.044632
#
#
# Mechanical properties :
#
#
# Convention : Reuss Voigt Hill
#
# Bulk Modulus (GPa) = 60.07893 60.08654 60.08273
# Shear Modulus (GPa) = 24.07788 24.16955 24.12371
#
# Velocity S-wave (km/s) = 3.65350 3.66045 3.65698
# Velocity P-wave (km/s) = 7.14866 7.15370 7.15118
#
# Compressibility (1/GPa) = 0.01664477
#
# Stress axis : x y z
#
# Youngs Moduli (GPa) = 61.53310 61.53304 66.48017
#
# Poissons Ratio (x) = 0.37673 0.31005
# Poissons Ratio (y) = 0.37673 0.31005
# Poissons Ratio (z) = 0.28698 0.28698
#
# Static dielectric constant tensor:
#      x y z
#    x 1.617140 0.000000 0.000000 
#    y 0.000000 1.617140 0.000000 
#    z 0.000000 0.000000 0.312880 
# 
# From -- ./inp_files/8525.got.cif
#   From: 2010.05.17/outbox.cif.g08.bks.cpg/sg139_5_cif.got.tgz:8525.got - 2010.05.20 13:14:44.
