data_PCOD9571515
_publ_section_title
;
Structure prediction by ZEFSAII (Michael W. Deem and Ramdas Pophale) SiO2 
 PCOD9571515
Probable space group: I 4/M M M
;
_chemical_formula_sum "Si O2"
_cell_formula_units_Z 192
_cell_length_a 24.241346
_cell_length_b 24.241346
_cell_length_c 18.082383
_cell_angle_alpha 90.000000
_cell_angle_beta 90.000000
_cell_angle_gamma 90.000000
_cell_volume 10625.983187
_symmetry_space_group_name_H-M "I 4/M M M"
_symmetry_group_IT_number 139
_symmetry_cell_setting 'tetragonal'
loop_
_space_group_symop_operation_xyz
x,y,z
-y,x,z
-x,-y,z
y,-x,z
x,-y,-z
-x,y,-z
y,x,-z
-y,-x,-z
-x,-y,-z
y,-x,-z
x,y,-z
-y,x,-z
-x,y,z
x,-y,z
-y,-x,z
y,x,z
1/2+x,1/2+y,1/2+z
1/2-y,1/2+x,1/2+z
1/2-x,1/2-y,1/2+z
1/2+y,1/2-x,1/2+z
1/2+x,1/2-y,1/2-z
1/2-x,1/2+y,1/2-z
1/2+y,1/2+x,1/2-z
1/2-y,1/2-x,1/2-z
1/2-x,1/2-y,1/2-z
1/2+y,1/2-x,1/2-z
1/2+x,1/2+y,1/2-z
1/2-y,1/2+x,1/2-z
1/2-x,1/2+y,1/2+z
1/2+x,1/2-y,1/2+z
1/2-y,1/2-x,1/2+z
1/2+y,1/2+x,1/2+z
loop_
_atom_site_type_symbol
_atom_site_label
_atom_site_fract_x
_atom_site_fract_y
_atom_site_fract_z
Si Si1 0.780356 0.063350 0.344956
Si Si2 0.329829 0.670172 0.087235
Si Si3 0.438645 0.859317 0.410061
Si Si4 0.740806 0.259195 0.589965
Si Si5 0.344178 0.564307 0.692565
Si Si6 0.386094 0.744316 0.411138
Si Si7 0.934780 0.336703 0.413359
O O1 0.814297 0.109141 0.388229
O O2 0.801283 0.067521 0.261042
O O3 0.716379 0.075561 0.362480
O O4 0.789806 0.000000 0.369567
O O5 0.285214 0.714787 0.117881
O O6 0.326210 0.673790 0.000000
O O7 0.439880 0.860781 0.500000
O O8 0.500000 0.873367 0.383358
O O9 0.421884 0.797364 0.388705
O O10 0.389859 0.900566 0.388680
O O11 0.742267 0.257734 0.500000
O O12 0.753015 0.322343 0.611862
O O13 0.358680 0.500000 0.682236
O O14 0.397073 0.602927 0.707166
O O15 0.310590 0.588941 0.623699
O O16 0.386802 0.740606 0.500000
O O17 0.919932 0.323762 0.500000
O O18 0.000000 0.348507 0.412165
#
# Coordination Sequence:
#
# PCOD9571515 Si02
#       7
#    32  16  32  16  32  32  32
#     4  10  21  37  54  77 110 144 182 229 279 331
#     4  11  20  33  57  84 109 145 187 225 274 329
#     4   9  17  29  48  77 111 146 185 228 275 324
#     4   9  18  31  53  83 114 141 171 223 278 325
#     4  11  23  40  60  81 108 142 180 222 275 338
#     4  10  19  35  57  83 112 142 178 222 273 330
#     4   9  17  31  52  76 106 147 191 232 272 318
#
# _framework density 18.068916999999999
#
# number of rings (size 3 to 8) (size 9 to 14) (size 15 to 20)
#    0.000    2.167    1.667    2.000    0.000    5.167 
#    0.000    5.833    0.000    0.250    0.000    1.750 
#    0.000    4.000    0.000    0.167    0.000    0.000 
#
# Total GULP energy -535430.184708 kJ/mol
# GULP energy per Si atom -5577.397757 kJ/mol
# Density = 1.802779 g / cm^3
# Si number density = 18.068917 Si / 1000 Ang^3
#
#
#
# Elastic Constant Matrix: (Units=GPa)
#
#
# Indices 1 2 3 4 5 6 
#
# 1 121.4403 78.3771 30.0389 0.0000 0.0000 0.0000
# 2 78.3771 121.4410 30.0394 0.0000 0.0000 0.0000
# 3 30.0389 30.0394 24.2035 0.0000 0.0000 0.0000
# 4 0.0000 0.0000 0.0000 13.2159 0.0000 0.0000
# 5 0.0000 0.0000 0.0000 0.0000 13.2158 0.0000
# 6 0.0000 0.0000 0.0000 0.0000 0.0000 26.2343
#
#
#
# Elastic Compliance Matrix: (Units=1/GPa)
#
#
# Indices 1 2 3 4 5 6 
#
# 1 0.015603 -0.007619 -0.009908 0.000000 0.000000 0.000000
# 2 -0.007619 0.015603 -0.009909 0.000000 0.000000 0.000000
# 3 -0.009908 -0.009909 0.065912 0.000000 0.000000 0.000000
# 4 0.000000 0.000000 0.000000 0.075666 0.000000 0.000000
# 5 0.000000 0.000000 0.000000 0.000000 0.075667 0.000000
# 6 0.000000 0.000000 0.000000 0.000000 0.000000 0.038118
#
#
# Mechanical properties :
#
#
# Convention : Reuss Voigt Hill
#
# Bulk Modulus (GPa) = 23.67171 60.44398 42.05784
# Shear Modulus (GPa) = 14.06382 19.10852 16.58617
#
# Velocity S-wave (km/s) = 2.79291 3.25550 3.03304
# Velocity P-wave (km/s) = 4.85074 6.90330 5.96596
#
# Compressibility (1/GPa) = 0.04224453
#
# Stress axis : x y z
#
# Youngs Moduli (GPa) = 64.09192 64.09157 15.17178
#
# Poissons Ratio (x) = 0.48830 0.15033
# Poissons Ratio (y) = 0.48831 0.15034
# Poissons Ratio (z) = 0.63505 0.63508
#
# Static dielectric constant tensor:
#      x y z
#    x 1.612470 0.000000 0.000000 
#    y 0.000000 1.612470 0.000000 
#    z 0.000000 0.000000 1.627780 
# 
# From -- ./inp_files/10641.got.cif
#   From: 2010.05.17/outbox.cif.g08.bks.cpg/sg139_6_cif.got.tgz:10641.got - 2010.05.20 13:14:44.
