data_PCOD9571444
_publ_section_title
;
Structure prediction by ZEFSAII (Michael W. Deem and Ramdas Pophale) SiO2 
 PCOD9571444
Probable space group: I 4/M M M
;
_chemical_formula_sum "Si O2"
_cell_formula_units_Z 160
_cell_length_a 30.330050
_cell_length_b 30.330050
_cell_length_c 8.919452
_cell_angle_alpha 90.000000
_cell_angle_beta 90.000000
_cell_angle_gamma 90.000000
_cell_volume 8205.110331
_symmetry_space_group_name_H-M "I 4/M M M"
_symmetry_group_IT_number 139
_symmetry_cell_setting 'tetragonal'
loop_
_space_group_symop_operation_xyz
x,y,z
-y,x,z
-x,-y,z
y,-x,z
x,-y,-z
-x,y,-z
y,x,-z
-y,-x,-z
-x,-y,-z
y,-x,-z
x,y,-z
-y,x,-z
-x,y,z
x,-y,z
-y,-x,z
y,x,z
1/2+x,1/2+y,1/2+z
1/2-y,1/2+x,1/2+z
1/2-x,1/2-y,1/2+z
1/2+y,1/2-x,1/2+z
1/2+x,1/2-y,1/2-z
1/2-x,1/2+y,1/2-z
1/2+y,1/2+x,1/2-z
1/2-y,1/2-x,1/2-z
1/2-x,1/2-y,1/2-z
1/2+y,1/2-x,1/2-z
1/2+x,1/2+y,1/2-z
1/2-y,1/2+x,1/2-z
1/2-x,1/2+y,1/2+z
1/2+x,1/2-y,1/2+z
1/2-y,1/2-x,1/2+z
1/2+y,1/2+x,1/2+z
loop_
_atom_site_type_symbol
_atom_site_label
_atom_site_fract_x
_atom_site_fract_y
_atom_site_fract_z
Si Si1 0.905401 0.658103 0.672452
Si Si2 0.335423 0.000000 0.319915
Si Si3 0.067692 0.500000 0.317234
Si Si4 0.875796 0.948857 0.319273
Si Si5 0.810803 0.115110 0.832038
Si Si6 0.331028 0.233258 0.827567
O O1 0.913178 0.645537 0.500000
O O2 0.884817 0.615184 0.750000
O O3 0.951160 0.678891 0.732911
O O4 0.867752 0.694831 0.676100
O O5 0.385302 0.000000 0.261221
O O6 0.329036 0.000000 0.500000
O O7 0.068845 0.500000 0.500000
O O8 0.041233 0.541233 0.250000
O O9 0.873145 0.947696 0.500000
O O10 0.917784 0.917784 0.276898
O O11 0.831130 0.926735 0.254782
O O12 0.880836 0.000000 0.272874
O O13 0.852235 0.147766 0.842884
O O14 0.773720 0.144574 0.751997
O O15 0.796108 0.103105 0.000000
O O16 0.287894 0.212106 0.750000
O O17 0.321230 0.244085 0.000000
#
# Coordination Sequence:
#
# PCOD9571444 Si02
#       6
#    32  16  16  32  32  32
#     4   9  19  34  52  72  98 131 166 208 260 315
#     4  10  19  33  50  70  95 124 160 200 245 303
#     4  11  21  32  45  64  88 116 152 196 246 297
#     4   9  18  34  57  86 120 159 201 244 291 343
#     4  10  21  37  57  82 114 150 187 231 282 335
#     4  10  20  36  57  81 108 143 184 230 283 340
#
# _framework density 19.500043000000002
#
# number of rings (size 3 to 8) (size 9 to 14) (size 15 to 20)
#    0.000    2.300    0.000    3.000    0.000    5.400 
#    1.800    1.000    0.000    0.000    0.000    2.800 
#    0.000    0.000    0.000    0.000    0.000    0.000 
#
# Total GULP energy -445526.675436 kJ/mol
# GULP energy per Si atom -5569.083443 kJ/mol
# Density = 1.945566 g / cm^3
# Si number density = 19.500043 Si / 1000 Ang^3
#
#
#
# Elastic Constant Matrix: (Units=GPa)
#
#
# Indices 1 2 3 4 5 6 
#
# 1 102.3424 27.5127 34.5827 0.0000 0.0000 0.0000
# 2 27.5127 102.3425 34.5845 0.0000 0.0000 0.0000
# 3 34.5827 34.5845 51.3934 0.0000 0.0000 0.0000
# 4 0.0000 0.0000 0.0000 19.9323 0.0000 0.0000
# 5 0.0000 0.0000 0.0000 0.0000 19.9328 0.0000
# 6 0.0000 0.0000 0.0000 0.0000 0.0000 27.3023
#
#
#
# Elastic Compliance Matrix: (Units=1/GPa)
#
#
# Indices 1 2 3 4 5 6 
#
# 1 0.012683 -0.000680 -0.008077 0.000000 0.000000 0.000000
# 2 -0.000680 0.012684 -0.008078 0.000000 0.000000 0.000000
# 3 -0.008077 -0.008078 0.030328 0.000000 0.000000 0.000000
# 4 0.000000 0.000000 0.000000 0.050170 0.000000 0.000000
# 5 0.000000 0.000000 0.000000 0.000000 0.050168 0.000000
# 6 0.000000 0.000000 0.000000 0.000000 0.000000 0.036627
#
#
# Mechanical properties :
#
#
# Convention : Reuss Voigt Hill
#
# Bulk Modulus (GPa) = 45.40090 49.93757 47.66923
# Shear Modulus (GPa) = 21.39754 24.06004 22.72879
#
# Velocity S-wave (km/s) = 3.31616 3.51642 3.41776
# Velocity P-wave (km/s) = 6.16405 6.49242 6.33037
#
# Compressibility (1/GPa) = 0.02202599
#
# Stress axis : x y z
#
# Youngs Moduli (GPa) = 78.84431 78.84180 32.97251
#
# Poissons Ratio (x) = 0.05363 0.26631
# Poissons Ratio (y) = 0.05363 0.26634
# Poissons Ratio (z) = 0.63681 0.63685
#
# Static dielectric constant tensor:
#      x y z
#    x 1.720930 0.000000 0.000000 
#    y 0.000000 1.720930 0.000000 
#    z 0.000000 0.000000 1.704380 
# 
# From -- ./inp_files/2206.got.cif
#   From: 2010.05.17/outbox.cif.g08.bks.cpg/sg139_2_cif.got.tgz:2206.got - 2010.05.20 13:14:44.
