data_PCOD9571217
_publ_section_title
;
Structure prediction by ZEFSAII (Michael W. Deem and Ramdas Pophale) SiO2 
 PCOD9571217
Probable space group: I 4/M M M
;
_chemical_formula_sum "Si O2"
_cell_formula_units_Z 144
_cell_length_a 22.162193
_cell_length_b 22.162193
_cell_length_c 19.337754
_cell_angle_alpha 90.000000
_cell_angle_beta 90.000000
_cell_angle_gamma 90.000000
_cell_volume 9497.985373
_symmetry_space_group_name_H-M "I 4/M M M"
_symmetry_group_IT_number 139
_symmetry_cell_setting 'tetragonal'
loop_
_space_group_symop_operation_xyz
x,y,z
-y,x,z
-x,-y,z
y,-x,z
x,-y,-z
-x,y,-z
y,x,-z
-y,-x,-z
-x,-y,-z
y,-x,-z
x,y,-z
-y,x,-z
-x,y,z
x,-y,z
-y,-x,z
y,x,z
1/2+x,1/2+y,1/2+z
1/2-y,1/2+x,1/2+z
1/2-x,1/2-y,1/2+z
1/2+y,1/2-x,1/2+z
1/2+x,1/2-y,1/2-z
1/2-x,1/2+y,1/2-z
1/2+y,1/2+x,1/2-z
1/2-y,1/2-x,1/2-z
1/2-x,1/2-y,1/2-z
1/2+y,1/2-x,1/2-z
1/2+x,1/2+y,1/2-z
1/2-y,1/2+x,1/2-z
1/2-x,1/2+y,1/2+z
1/2+x,1/2-y,1/2+z
1/2-y,1/2-x,1/2+z
1/2+y,1/2+x,1/2+z
loop_
_atom_site_type_symbol
_atom_site_label
_atom_site_fract_x
_atom_site_fract_y
_atom_site_fract_z
Si Si1 0.069314 0.500000 0.917298
Si Si2 0.570739 0.205359 0.284868
Si Si3 0.352880 0.110683 0.639809
Si Si4 0.070411 0.830265 0.716800
Si Si5 0.722937 0.375751 0.078618
O O1 0.104629 0.559562 0.892548
O O2 0.000000 0.500000 0.891626
O O3 0.068413 0.500000 0.000000
O O4 0.500000 0.201009 0.301100
O O5 0.610374 0.170989 0.341404
O O6 0.583549 0.171664 0.212201
O O7 0.585966 0.274854 0.268174
O O8 0.294072 0.125210 0.594179
O O9 0.113235 0.886765 0.729421
O O10 0.083455 0.806477 0.638713
O O11 0.000000 0.843897 0.723906
O O12 0.688885 0.311116 0.085137
O O13 0.712542 0.397170 0.000000
#
# Coordination Sequence:
#
# PCOD9571217 Si02
#       5
#    16  32  32  32  32
#     4  11  22  32  42  64  96 126 159 193 231 283
#     4   9  17  30  45  64  88 112 150 190 226 275
#     4  10  18  30  46  64  86 118 154 191 235 273
#     4   9  18  31  47  68  92 118 149 188 235 284
#     4   9  18  31  46  65  87 114 153 194 231 276
#
# _framework density 15.161110000000001
#
# number of rings (size 3 to 8) (size 9 to 14) (size 15 to 20)
#    0.000    2.556    1.111    1.333    1.556    1.556 
#    0.000    4.444    0.000    0.000    0.000    3.111 
#    0.000    0.000    0.000    0.000    0.000    0.667 
#
# Total GULP energy -401084.215756 kJ/mol
# GULP energy per Si atom -5570.614108 kJ/mol
# Density = 1.512660 g / cm^3
# Si number density = 15.161110 Si / 1000 Ang^3
#
#
#
# Elastic Constant Matrix: (Units=GPa)
#
#
# Indices 1 2 3 4 5 6 
#
# 1 107.3317 77.4492 25.8556 0.0000 0.0000 0.0000
# 2 77.4492 107.3317 25.8556 0.0000 0.0000 0.0000
# 3 25.8556 25.8556 28.4343 0.0000 0.0000 0.0000
# 4 0.0000 0.0000 0.0000 17.6952 0.0000 0.0000
# 5 0.0000 0.0000 0.0000 0.0000 17.6952 0.0000
# 6 0.0000 0.0000 0.0000 0.0000 0.0000 23.9676
#
#
#
# Elastic Compliance Matrix: (Units=1/GPa)
#
#
# Indices 1 2 3 4 5 6 
#
# 1 0.020362 -0.013103 -0.006601 0.000000 0.000000 0.000000
# 2 -0.013103 0.020362 -0.006601 0.000000 0.000000 0.000000
# 3 -0.006601 -0.006601 0.047173 0.000000 0.000000 0.000000
# 4 0.000000 0.000000 0.000000 0.056513 0.000000 0.000000
# 5 0.000000 0.000000 0.000000 0.000000 0.056513 0.000000
# 6 0.000000 0.000000 0.000000 0.000000 0.000000 0.041723
#
#
# Mechanical properties :
#
#
# Convention : Reuss Voigt Hill
#
# Bulk Modulus (GPa) = 28.33811 55.71315 42.02563
# Shear Modulus (GPa) = 16.28582 19.46740 17.87661
#
# Velocity S-wave (km/s) = 3.28103 3.58723 3.43754
# Velocity P-wave (km/s) = 5.75199 7.34744 6.59812
#
# Compressibility (1/GPa) = 0.03528816
#
# Stress axis : x y z
#
# Youngs Moduli (GPa) = 49.11172 49.11172 21.19863
#
# Poissons Ratio (x) = 0.64350 0.13993
# Poissons Ratio (y) = 0.64350 0.13993
# Poissons Ratio (z) = 0.32417 0.32417
#
# Static dielectric constant tensor:
#      x y z
#    x 1.496110 0.000000 0.000000 
#    y 0.000000 1.496110 0.000000 
#    z 0.000000 0.000000 1.492820 
# 
# From -- ./inp_files/10216.got.cif
#   From: 2010.05.17/outbox.cif.g08.bks.cpg/sg139_6_cif.got.tgz:10216.got - 2010.05.20 13:14:44.
