data_PCOD9571996
_publ_section_title
;
Structure prediction by ZEFSAII (Michael W. Deem and Ramdas Pophale) SiO2 
 PCOD9571996
Probable space group: I 4/M C M
;
_chemical_formula_sum "Si O2"
_cell_formula_units_Z 136
_cell_length_a 16.757471
_cell_length_b 16.757471
_cell_length_c 24.544107
_cell_angle_alpha 90.000000
_cell_angle_beta 90.000000
_cell_angle_gamma 90.000000
_cell_volume 6892.300252
_symmetry_space_group_name_H-M "I 4/M C M"
_symmetry_group_IT_number 140
_symmetry_cell_setting 'tetragonal'
loop_
_space_group_symop_operation_xyz
x,y,z
-y,x,z
-x,-y,z
y,-x,z
x,-y,1/2-z
-x,y,1/2-z
y,x,1/2-z
-y,-x,1/2-z
-x,-y,-z
y,-x,-z
x,y,-z
-y,x,-z
-x,y,1/2+z
x,-y,1/2+z
-y,-x,1/2+z
y,x,1/2+z
1/2+x,1/2+y,1/2+z
1/2-y,1/2+x,1/2+z
1/2-x,1/2-y,1/2+z
1/2+y,1/2-x,1/2+z
1/2+x,1/2-y,-z
1/2-x,1/2+y,-z
1/2+y,1/2+x,-z
1/2-y,1/2-x,-z
1/2-x,1/2-y,1/2-z
1/2+y,1/2-x,1/2-z
1/2+x,1/2+y,1/2-z
1/2-y,1/2+x,1/2-z
1/2-x,1/2+y,z
1/2+x,1/2-y,z
1/2-y,1/2-x,z
1/2+y,1/2+x,z
loop_
_atom_site_type_symbol
_atom_site_label
_atom_site_fract_x
_atom_site_fract_y
_atom_site_fract_z
Si Si1 0.933466 0.566535 0.379435
Si Si2 0.390900 0.890900 0.500000
Si Si3 0.177874 0.457067 0.805365
Si Si4 0.440341 0.190735 0.500000
Si Si5 0.862512 0.231134 0.607895
Si Si6 0.421915 0.393929 0.935635
O O1 0.897885 0.602116 0.433985
O O2 0.868681 0.520069 0.343503
O O3 0.000000 0.500000 0.396396
O O4 0.465747 0.823646 0.500000
O O5 0.202628 0.500000 0.750000
O O6 0.112318 0.387683 0.793198
O O7 0.247717 0.416792 0.840431
O O8 0.396017 0.103984 0.500000
O O9 0.408073 0.236296 0.446492
O O10 0.783432 0.283432 0.612281
O O11 0.842233 0.138866 0.598806
O O12 0.515265 0.393082 0.924404
O O13 0.412803 0.378276 0.000000
#
# Coordination Sequence:
#
# PCOD9571996 Si02
#       6
#    16   8  32  16  32  32
#     4  10  17  22  36  58  92 136 180 223 249 305
#     4  12  17  24  36  60 104 144 180 212 264 324
#     4  10  18  27  42  67  99 143 188 219 253 309
#     4  10  17  24  38  65 100 139 170 197 251 317
#     4  10  19  30  50  77 106 139 171 216 272 322
#     4   9  18  34  58  82 105 138 181 226 268 321
#
# _framework density 19.732164999999998
#
# number of rings (size 3 to 8) (size 9 to 14) (size 15 to 20)
#    0.000    2.118    4.706    1.765    0.000    0.000 
#    0.000    0.000    5.176    1.412    0.000    4.941 
#    0.000    0.000    0.000    0.000    0.000    0.000 
#
# Total GULP energy -378651.804133 kJ/mol
# GULP energy per Si atom -5568.408884 kJ/mol
# Density = 1.968725 g / cm^3
# Si number density = 19.732165 Si / 1000 Ang^3
#
#
#
# Elastic Constant Matrix: (Units=GPa)
#
#
# Indices 1 2 3 4 5 6 
#
# 1 32.6505 1.5173 4.1031 0.0000 0.0000 0.0000
# 2 1.5173 32.6510 4.1027 0.0000 0.0000 0.0000
# 3 4.1031 4.1027 74.3819 0.0000 0.0000 0.0000
# 4 0.0000 0.0000 0.0000 6.6437 0.0000 0.0000
# 5 0.0000 0.0000 0.0000 0.0000 6.6438 0.0000
# 6 0.0000 0.0000 0.0000 0.0000 0.0000 -5.7533
#
#
#
# Elastic Compliance Matrix: (Units=1/GPa)
#
#
# Indices 1 2 3 4 5 6 
#
# 1 0.030890 -0.001230 -0.001636 0.000000 0.000000 0.000000
# 2 -0.001230 0.030890 -0.001636 0.000000 0.000000 0.000000
# 3 -0.001636 -0.001636 0.013625 0.000000 0.000000 0.000000
# 4 0.000000 0.000000 0.000000 0.150518 0.000000 0.000000
# 5 0.000000 0.000000 0.000000 0.000000 0.150516 0.000000
# 6 0.000000 0.000000 0.000000 0.000000 0.000000 -0.173815
#
#
# Mechanical properties :
#
#
# Convention : Reuss Voigt Hill
#
# Bulk Modulus (GPa) = 15.06014 17.68107 16.37060
# Shear Modulus (GPa) = 21.38930 10.17087 15.78008
#
# Velocity S-wave (km/s) = 3.29596 2.27281 2.83099
# Velocity P-wave (km/s) = 4.70461 3.98341 4.35895
#
# Compressibility (1/GPa) = 0.06640047
#
# Stress axis : x y z
#
# Youngs Moduli (GPa) = 32.37278 32.37327 73.39651
#
# Poissons Ratio (x) = 0.03982 0.12009
# Poissons Ratio (y) = 0.03982 0.12007
# Poissons Ratio (z) = 0.05297 0.05296
#
# Static dielectric constant tensor:
#      x y z
#    x 1.732700 0.000000 0.000000 
#    y 0.000000 1.732700 0.000000 
#    z 0.000000 0.000000 1.652160 
# 
# From -- ./inp_files/9506.got.cif
#   From: 2010.05.17/outbox.cif.g08.bks.cpg/sg140_5_cif.got.tgz:9506.got - 2010.06.21 00:45:31.
