data_PCOD9571270
_publ_section_title
;
Structure prediction by ZEFSAII (Michael W. Deem and Ramdas Pophale) SiO2 
 PCOD9571270
Probable space group: I 4/M M M
;
_chemical_formula_sum "Si O2"
_cell_formula_units_Z 128
_cell_length_a 20.618540
_cell_length_b 20.618540
_cell_length_c 18.674206
_cell_angle_alpha 90.000000
_cell_angle_beta 90.000000
_cell_angle_gamma 90.000000
_cell_volume 7938.856732
_symmetry_space_group_name_H-M "I 4/M M M"
_symmetry_group_IT_number 139
_symmetry_cell_setting 'tetragonal'
loop_
_space_group_symop_operation_xyz
x,y,z
-y,x,z
-x,-y,z
y,-x,z
x,-y,-z
-x,y,-z
y,x,-z
-y,-x,-z
-x,-y,-z
y,-x,-z
x,y,-z
-y,x,-z
-x,y,z
x,-y,z
-y,-x,z
y,x,z
1/2+x,1/2+y,1/2+z
1/2-y,1/2+x,1/2+z
1/2-x,1/2-y,1/2+z
1/2+y,1/2-x,1/2+z
1/2+x,1/2-y,1/2-z
1/2-x,1/2+y,1/2-z
1/2+y,1/2+x,1/2-z
1/2-y,1/2-x,1/2-z
1/2-x,1/2-y,1/2-z
1/2+y,1/2-x,1/2-z
1/2+x,1/2+y,1/2-z
1/2-y,1/2+x,1/2-z
1/2-x,1/2+y,1/2+z
1/2+x,1/2-y,1/2+z
1/2-y,1/2-x,1/2+z
1/2+y,1/2+x,1/2+z
loop_
_atom_site_type_symbol
_atom_site_label
_atom_site_fract_x
_atom_site_fract_y
_atom_site_fract_z
Si Si1 0.845542 0.154459 0.804506
Si Si2 0.422698 0.921855 0.500000
Si Si3 0.422995 0.422995 0.578693
Si Si4 0.657245 0.141450 0.629570
Si Si5 0.261931 0.738069 0.416971
Si Si6 0.424011 0.773379 0.742318
O O1 0.889710 0.110291 0.854747
O O2 0.803618 0.196383 0.860885
O O3 0.795725 0.112037 0.758855
O O4 0.500000 0.905986 0.500000
O O5 0.385620 0.891817 0.568379
O O6 0.417215 0.000000 0.500000
O O7 0.500000 0.411941 0.581250
O O8 0.399698 0.399698 0.500000
O O9 0.713833 0.188639 0.598635
O O10 0.609883 0.185228 0.679076
O O11 0.690219 0.090679 0.683508
O O12 0.276217 0.723783 0.500000
O O13 0.500000 0.766571 0.729457
#
# Coordination Sequence:
#
# PCOD9571270 Si02
#       6
#    16  16  16  32  16  32
#     4  10  19  30  49  73 100 129 171 203 247 297
#     4  11  22  35  52  74 100 131 168 207 246 298
#     4   9  17  29  44  65  99 139 173 207 248 295
#     4  10  20  35  53  74 100 132 167 205 252 299
#     4  10  18  32  52  74  98 127 158 206 250 294
#     4  10  20  34  52  74 102 133 166 207 250 295
#
# _framework density 16.123228000000001
#
# number of rings (size 3 to 8) (size 9 to 14) (size 15 to 20)
#    0.000    2.000    1.250    3.750    0.000    3.000 
#    0.000    0.000    0.000    6.000    0.000    0.000 
#    0.000    0.000    0.000    1.125    0.000    0.000 
#
# Total GULP energy -356808.235178 kJ/mol
# GULP energy per Si atom -5575.128675 kJ/mol
# Density = 1.608653 g / cm^3
# Si number density = 16.123228 Si / 1000 Ang^3
#
#
#
# Elastic Constant Matrix: (Units=GPa)
#
#
# Indices 1 2 3 4 5 6 
#
# 1 -80.3512 215.0081 44.7641 0.0000 0.0000 0.0000
# 2 215.0081 -80.3512 44.7641 0.0000 0.0000 0.0000
# 3 44.7641 44.7641 98.7390 0.0000 0.0000 0.0000
# 4 0.0000 0.0000 0.0000 20.9271 0.0000 0.0000
# 5 0.0000 0.0000 0.0000 0.0000 20.9271 0.0000
# 6 0.0000 0.0000 0.0000 0.0000 0.0000 26.4616
#
#
#
# Elastic Compliance Matrix: (Units=1/GPa)
#
#
# Indices 1 2 3 4 5 6 
#
# 1 0.003622 0.007008 -0.004819 0.000000 0.000000 0.000000
# 2 0.007008 0.003622 -0.004819 0.000000 0.000000 0.000000
# 3 -0.004819 -0.004819 0.014498 0.000000 0.000000 0.000000
# 4 0.000000 0.000000 0.000000 0.047785 0.000000 0.000000
# 5 0.000000 0.000000 0.000000 0.000000 0.047785 0.000000
# 6 0.000000 0.000000 0.000000 0.000000 0.000000 0.037791
#
#
# Mechanical properties :
#
#
# Convention : Reuss Voigt Hill
#
# Bulk Modulus (GPa) = 60.67633 60.78993 60.73313
# Shear Modulus (GPa) = 30.14630 -10.77014 9.68808
#
# Velocity S-wave (km/s) = 4.32874 -2.58735 2.45394
# Velocity P-wave (km/s) = 7.91824 5.37209 6.76602
#
# Compressibility (1/GPa) = 0.01648089
#
# Stress axis : x y z
#
# Youngs Moduli (GPa) = 276.05907 276.05907 68.97711
#
# Poissons Ratio (x) = -1.93466 0.33243
# Poissons Ratio (y) = -1.93466 0.33243
# Poissons Ratio (z) = 1.33045 1.33045
#
# Static dielectric constant tensor:
#      x y z
#    x 1.532130 0.000000 0.000000 
#    y 0.000000 1.532130 0.000000 
#    z 0.000000 0.000000 1.525500 
# 
# From -- ./inp_files/8086.got.cif
#   From: 2010.05.17/outbox.cif.g08.bks.cpg/sg139_5_cif.got.tgz:8086.got - 2010.05.20 13:14:44.
