data_PCOD9571148
_publ_section_title
;
Structure prediction by ZEFSAII (Michael W. Deem and Ramdas Pophale) SiO2 
 PCOD9571148
Probable space group: I 4/M M M
;
_chemical_formula_sum "Si O2"
_cell_formula_units_Z 192
_cell_length_a 24.301872
_cell_length_b 24.301872
_cell_length_c 22.108196
_cell_angle_alpha 90.000000
_cell_angle_beta 90.000000
_cell_angle_gamma 90.000000
_cell_volume 13056.680120
_symmetry_space_group_name_H-M "I 4/M M M"
_symmetry_group_IT_number 139
_symmetry_cell_setting 'tetragonal'
loop_
_space_group_symop_operation_xyz
x,y,z
-y,x,z
-x,-y,z
y,-x,z
x,-y,-z
-x,y,-z
y,x,-z
-y,-x,-z
-x,-y,-z
y,-x,-z
x,y,-z
-y,x,-z
-x,y,z
x,-y,z
-y,-x,z
y,x,z
1/2+x,1/2+y,1/2+z
1/2-y,1/2+x,1/2+z
1/2-x,1/2-y,1/2+z
1/2+y,1/2-x,1/2+z
1/2+x,1/2-y,1/2-z
1/2-x,1/2+y,1/2-z
1/2+y,1/2+x,1/2-z
1/2-y,1/2-x,1/2-z
1/2-x,1/2-y,1/2-z
1/2+y,1/2-x,1/2-z
1/2+x,1/2+y,1/2-z
1/2-y,1/2+x,1/2-z
1/2-x,1/2+y,1/2+z
1/2+x,1/2-y,1/2+z
1/2-y,1/2-x,1/2+z
1/2+y,1/2+x,1/2+z
loop_
_atom_site_type_symbol
_atom_site_label
_atom_site_fract_x
_atom_site_fract_y
_atom_site_fract_z
Si Si1 0.561033 0.199948 0.362866
Si Si2 0.060430 0.679864 0.632774
Si Si3 0.436233 0.266698 0.242097
Si Si4 0.243920 0.756081 0.846546
Si Si5 0.940599 0.577440 0.819708
Si Si6 0.176559 0.328504 0.429263
Si Si7 0.681003 0.318998 0.240902
O O1 0.500000 0.207397 0.389394
O O2 0.570014 0.245037 0.310909
O O3 0.561085 0.143116 0.325305
O O4 0.608755 0.192042 0.411463
O O5 0.069015 0.716622 0.693420
O O6 0.058100 0.615356 0.649844
O O7 0.113706 0.684806 0.590412
O O8 0.000000 0.695408 0.607708
O O9 0.500000 0.286960 0.235703
O O10 0.383721 0.306034 0.232627
O O11 0.207506 0.716773 0.888178
O O12 0.282981 0.717020 0.806081
O O13 0.205266 0.794735 0.804368
O O14 0.938754 0.561247 0.750000
O O15 0.000000 0.560431 0.845839
O O16 0.183883 0.318888 0.500000
#
# Coordination Sequence:
#
# PCOD9571148 Si02
#       7
#    32  32  32  16  32  32  16
#     4   9  18  31  47  67  92 123 161 203 244 284
#     4  10  20  32  46  65  91 124 166 211 250 285
#     4  10  18  32  53  75  98 122 151 198 251 299
#     4  11  21  32  50  78 103 123 154 202 246 303
#     4  10  17  24  38  61  90 119 152 200 253 291
#     4  11  22  34  48  65  96 137 169 200 239 284
#     4  11  20  32  56  81 100 124 150 197 256 298
#
# _framework density 14.705116
#
# number of rings (size 3 to 8) (size 9 to 14) (size 15 to 20)
#    0.000    1.833    5.000    0.750    0.000    1.833 
#    0.000    0.000    0.000    0.250    0.000    4.667 
#    0.000    0.000    0.000    0.000    0.000   10.167 
#
# Total GULP energy -534448.518796 kJ/mol
# GULP energy per Si atom -5567.172071 kJ/mol
# Density = 1.467165 g / cm^3
# Si number density = 14.705116 Si / 1000 Ang^3
#
#
#
# Elastic Constant Matrix: (Units=GPa)
#
#
# Indices 1 2 3 4 5 6 
#
# 1 92.0671 48.5870 27.4992 0.0000 0.0000 0.0000
# 2 48.5870 92.0672 27.4990 0.0000 0.0000 0.0000
# 3 27.4992 27.4990 71.1258 0.0000 0.0000 0.0000
# 4 0.0000 0.0000 0.0000 16.9120 0.0000 0.0000
# 5 0.0000 0.0000 0.0000 0.0000 16.9308 0.0000
# 6 0.0000 0.0000 0.0000 0.0000 0.0000 13.3341
#
#
#
# Elastic Compliance Matrix: (Units=1/GPa)
#
#
# Indices 1 2 3 4 5 6 
#
# 1 0.015687 -0.007312 -0.003238 0.000000 0.000000 0.000000
# 2 -0.007312 0.015687 -0.003238 0.000000 0.000000 0.000000
# 3 -0.003238 -0.003238 0.016564 0.000000 0.000000 0.000000
# 4 0.000000 0.000000 0.000000 0.059130 0.000000 0.000000
# 5 0.000000 0.000000 0.000000 0.000000 0.059064 0.000000
# 6 0.000000 0.000000 0.000000 0.000000 0.000000 0.074996
#
#
# Mechanical properties :
#
#
# Convention : Reuss Voigt Hill
#
# Bulk Modulus (GPa) = 49.11096 51.38120 50.24608
# Shear Modulus (GPa) = 18.14936 19.54703 18.84820
#
# Velocity S-wave (km/s) = 3.51696 3.64987 3.58403
# Velocity P-wave (km/s) = 7.06836 7.26491 7.16731
#
# Compressibility (1/GPa) = 0.02036205
#
# Stress axis : x y z
#
# Youngs Moduli (GPa) = 63.74518 63.74537 60.37320
#
# Poissons Ratio (x) = 0.46608 0.19551
# Poissons Ratio (y) = 0.46608 0.19551
# Poissons Ratio (z) = 0.20643 0.20643
#
# Static dielectric constant tensor:
#      x y z
#    x 1.584440 0.000000 0.000000 
#    y 0.000000 1.584760 0.000000 
#    z 0.000000 0.000000 1.463390 
# 
# From -- ./inp_files/10624.got.cif
#   From: 2010.05.17/outbox.cif.g08.bks.cpg/sg139_6_cif.got.tgz:10624.got - 2010.05.20 13:14:44.
