data_PCOD9571329
_publ_section_title
;
Structure prediction by ZEFSAII (Michael W. Deem and Ramdas Pophale) SiO2 
 PCOD9571329
Probable space group: I 4/M M M
;
_chemical_formula_sum "Si O2"
_cell_formula_units_Z 120
_cell_length_a 18.358016
_cell_length_b 18.358016
_cell_length_c 24.774708
_cell_angle_alpha 90.000000
_cell_angle_beta 90.000000
_cell_angle_gamma 90.000000
_cell_volume 8349.491608
_symmetry_space_group_name_H-M "I 4/M M M"
_symmetry_group_IT_number 139
_symmetry_cell_setting 'tetragonal'
loop_
_space_group_symop_operation_xyz
x,y,z
-y,x,z
-x,-y,z
y,-x,z
x,-y,-z
-x,y,-z
y,x,-z
-y,-x,-z
-x,-y,-z
y,-x,-z
x,y,-z
-y,x,-z
-x,y,z
x,-y,z
-y,-x,z
y,x,z
1/2+x,1/2+y,1/2+z
1/2-y,1/2+x,1/2+z
1/2-x,1/2-y,1/2+z
1/2+y,1/2-x,1/2+z
1/2+x,1/2-y,1/2-z
1/2-x,1/2+y,1/2-z
1/2+y,1/2+x,1/2-z
1/2-y,1/2-x,1/2-z
1/2-x,1/2-y,1/2-z
1/2+y,1/2-x,1/2-z
1/2+x,1/2+y,1/2-z
1/2-y,1/2+x,1/2-z
1/2-x,1/2+y,1/2+z
1/2+x,1/2-y,1/2+z
1/2-y,1/2-x,1/2+z
1/2+y,1/2+x,1/2+z
loop_
_atom_site_type_symbol
_atom_site_label
_atom_site_fract_x
_atom_site_fract_y
_atom_site_fract_z
Si Si1 0.083614 0.637919 0.193619
Si Si2 0.584834 0.584834 0.000000
Si Si3 0.084640 0.722750 0.363705
Si Si4 0.316157 0.316157 0.061272
Si Si5 0.415194 0.294024 0.745019
O O1 0.095351 0.595351 0.250000
O O2 0.140336 0.604911 0.151772
O O3 0.100332 0.722352 0.208755
O O4 0.000000 0.632685 0.176797
O O5 0.500000 0.598937 0.000000
O O6 0.622236 0.622236 0.948906
O O7 0.142874 0.753836 0.405759
O O8 0.091732 0.767316 0.307257
O O9 0.000000 0.728585 0.381264
O O10 0.294445 0.294445 0.000000
O O11 0.500000 0.314500 0.736660
O O12 0.358758 0.358758 0.734758
#
# Coordination Sequence:
#
# PCOD9571329 Si02
#       5
#    32   8  32  16  32
#     4   9  18  29  46  70  95 122 150 184 221 266
#     4   9  18  32  48  62  82 112 142 186 237 266
#     4  10  19  30  46  67  89 119 154 187 226 269
#     4  10  21  32  47  63  88 115 151 197 228 266
#     4   9  17  28  42  64  95 125 154 181 216 267
#
# _framework density 14.372132000000001
#
# number of rings (size 3 to 8) (size 9 to 14) (size 15 to 20)
#    0.400    2.200    1.333    3.200    1.867    3.733 
#    0.000    0.000    0.000    0.800    0.000    1.867 
#    0.000    0.000    0.000    0.000    0.000   11.733 
#
# Total GULP energy -334089.683670 kJ/mol
# GULP energy per Si atom -5568.161395 kJ/mol
# Density = 1.433942 g / cm^3
# Si number density = 14.372132 Si / 1000 Ang^3
#
#
#
# Elastic Constant Matrix: (Units=GPa)
#
#
# Indices 1 2 3 4 5 6 
#
# 1 71.0945 43.7909 21.1664 0.0000 0.0000 0.0000
# 2 43.7909 71.0945 21.1664 0.0000 0.0000 0.0000
# 3 21.1664 21.1664 47.4229 0.0000 0.0000 0.0000
# 4 0.0000 0.0000 0.0000 -5.7540 0.0000 0.0000
# 5 0.0000 0.0000 0.0000 0.0000 -5.7540 0.0000
# 6 0.0000 0.0000 0.0000 0.0000 0.0000 28.1502
#
#
#
# Elastic Compliance Matrix: (Units=1/GPa)
#
#
# Indices 1 2 3 4 5 6 
#
# 1 0.023521 -0.013104 -0.004650 0.000000 0.000000 0.000000
# 2 -0.013104 0.023521 -0.004650 0.000000 0.000000 0.000000
# 3 -0.004650 -0.004650 0.025237 0.000000 0.000000 0.000000
# 4 0.000000 0.000000 0.000000 -0.173793 0.000000 0.000000
# 5 0.000000 0.000000 0.000000 0.000000 -0.173792 0.000000
# 6 0.000000 0.000000 0.000000 0.000000 0.000000 0.035524
#
#
# Mechanical properties :
#
#
# Convention : Reuss Voigt Hill
#
# Bulk Modulus (GPa) = 36.39822 40.20658 38.30240
# Shear Modulus (GPa) = -26.90826 10.22766 -8.34030
#
# Velocity S-wave (km/s) = -4.33165 2.67054 -2.41158
# Velocity P-wave (km/s) = 0.60247 6.12741 4.35363
#
# Compressibility (1/GPa) = 0.02747387
#
# Stress axis : x y z
#
# Youngs Moduli (GPa) = 42.51446 42.51446 39.62360
#
# Poissons Ratio (x) = 0.55710 0.18424
# Poissons Ratio (y) = 0.55710 0.18424
# Poissons Ratio (z) = 0.19768 0.19768
#
# Static dielectric constant tensor:
#      x y z
#    x 1.474470 0.000000 0.000000 
#    y 0.000000 1.474470 0.000000 
#    z 0.000000 0.000000 1.480820 
# 
# From -- ./inp_files/12694.got.cif
#   From: 2010.05.17/outbox.cif.g08.bks.cpg/sg139_7_cif.got.tgz:12694.got - 2010.05.20 13:14:44.
