data_PCOD9571863
_publ_section_title
;
Structure prediction by ZEFSAII (Michael W. Deem and Ramdas Pophale) SiO2 
 PCOD9571863
Probable space group: I 4/M M M
;
_chemical_formula_sum "Si O2"
_cell_formula_units_Z 160
_cell_length_a 24.171501
_cell_length_b 24.171501
_cell_length_c 14.491663
_cell_angle_alpha 90.000000
_cell_angle_beta 90.000000
_cell_angle_gamma 90.000000
_cell_volume 8466.920191
_symmetry_space_group_name_H-M "I 4/M M M"
_symmetry_group_IT_number 139
_symmetry_cell_setting 'tetragonal'
loop_
_space_group_symop_operation_xyz
x,y,z
-y,x,z
-x,-y,z
y,-x,z
x,-y,-z
-x,y,-z
y,x,-z
-y,-x,-z
-x,-y,-z
y,-x,-z
x,y,-z
-y,x,-z
-x,y,z
x,-y,z
-y,-x,z
y,x,z
1/2+x,1/2+y,1/2+z
1/2-y,1/2+x,1/2+z
1/2-x,1/2-y,1/2+z
1/2+y,1/2-x,1/2+z
1/2+x,1/2-y,1/2-z
1/2-x,1/2+y,1/2-z
1/2+y,1/2+x,1/2-z
1/2-y,1/2-x,1/2-z
1/2-x,1/2-y,1/2-z
1/2+y,1/2-x,1/2-z
1/2+x,1/2+y,1/2-z
1/2-y,1/2+x,1/2-z
1/2-x,1/2+y,1/2+z
1/2+x,1/2-y,1/2+z
1/2-y,1/2-x,1/2+z
1/2+y,1/2+x,1/2+z
loop_
_atom_site_type_symbol
_atom_site_label
_atom_site_fract_x
_atom_site_fract_y
_atom_site_fract_z
Si Si1 0.142165 0.338350 0.387580
Si Si2 0.935889 0.561699 0.387779
Si Si3 0.858129 0.232368 0.889233
Si Si4 0.344243 0.564500 0.273127
Si Si5 0.287809 0.621536 0.891313
O O1 0.142242 0.338538 0.500000
O O2 0.101073 0.386909 0.356991
O O3 0.204660 0.351334 0.358311
O O4 0.125577 0.276030 0.362054
O O5 0.934941 0.562147 0.500000
O O6 0.916754 0.500000 0.359629
O O7 0.000000 0.567823 0.360432
O O8 0.803434 0.196567 0.866578
O O9 0.908698 0.200690 0.842037
O O10 0.864476 0.231780 0.000000
O O11 0.351764 0.500000 0.287591
O O12 0.400250 0.599751 0.285053
O O13 0.320342 0.578236 0.171597
O O14 0.319857 0.680144 0.878664
O O15 0.290309 0.608292 0.000000
#
# Coordination Sequence:
#
# PCOD9571863 Si02
#       5
#    32  32  32  32  32
#     4   9  16  27  48  75 101 136 174 203 247 310
#     4   8  14  24  37  58  92 130 168 208 242 278
#     4   9  18  33  53  78 107 134 164 209 260 309
#     4  10  22  38  55  77 104 136 174 216 265 316
#     4   9  18  33  53  78 107 134 164 209 260 309
#
# _framework density 18.897072000000001
#
# number of rings (size 3 to 8) (size 9 to 14) (size 15 to 20)
#    0.000    3.000    0.000    1.200    0.000    5.800 
#    0.000    7.000    0.000    0.000    0.000    5.600 
#    0.000    4.800    0.000    0.400    0.000    0.000 
#
# Total GULP energy -446444.663628 kJ/mol
# GULP energy per Si atom -5580.558295 kJ/mol
# Density = 1.885406 g / cm^3
# Si number density = 18.897072 Si / 1000 Ang^3
#
#
#
# Elastic Constant Matrix: (Units=GPa)
#
#
# Indices 1 2 3 4 5 6 
#
# 1 70.6073 45.4658 -21.9344 0.0000 0.0000 0.0000
# 2 45.4658 70.6073 -21.9344 0.0000 0.0000 0.0000
# 3 -21.9344 -21.9344 31.6216 0.0000 0.0000 0.0000
# 4 0.0000 0.0000 0.0000 10.8739 0.0000 0.0000
# 5 0.0000 0.0000 0.0000 0.0000 10.8739 0.0000
# 6 0.0000 0.0000 0.0000 0.0000 0.0000 16.5362
#
#
#
# Elastic Compliance Matrix: (Units=1/GPa)
#
#
# Indices 1 2 3 4 5 6 
#
# 1 0.025726 -0.014049 0.008099 0.000000 0.000000 0.000000
# 2 -0.014049 0.025726 0.008099 0.000000 0.000000 0.000000
# 3 0.008099 0.008099 0.042860 0.000000 0.000000 0.000000
# 4 0.000000 0.000000 0.000000 0.091963 0.000000 0.000000
# 5 0.000000 0.000000 0.000000 0.000000 0.091963 0.000000
# 6 0.000000 0.000000 0.000000 0.000000 0.000000 0.060473
#
#
# Mechanical properties :
#
#
# Convention : Reuss Voigt Hill
#
# Bulk Modulus (GPa) = 10.14093 19.55888 14.84991
# Shear Modulus (GPa) = 13.61349 19.07275 16.34312
#
# Velocity S-wave (km/s) = 2.68694 3.18039 2.94402
# Velocity P-wave (km/s) = 3.87353 4.88459 4.40814
#
# Compressibility (1/GPa) = 0.09861028
#
# Stress axis : x y z
#
# Youngs Moduli (GPa) = 38.87173 38.87173 23.33165
#
# Poissons Ratio (x) = 0.54612 -0.18897
# Poissons Ratio (y) = 0.54612 -0.18897
# Poissons Ratio (z) = -0.31484 -0.31484
#
# Static dielectric constant tensor:
#      x y z
#    x 1.623200 0.000000 0.000000 
#    y 0.000000 1.623200 0.000000 
#    z 0.000000 0.000000 1.704050 
# 
# From -- ./inp_files/5912.got.cif
#   From: 2010.05.17/outbox.cif.g08.bks.cpg/sg139_3_cif.got.tgz:5912.got - 2010.05.20 13:14:44.
