data_PCOD9571378
_publ_section_title
;
Structure prediction by ZEFSAII (Michael W. Deem and Ramdas Pophale) SiO2 
 PCOD9571378
Probable space group: I 4/M M M
;
_chemical_formula_sum "Si O2"
_cell_formula_units_Z 160
_cell_length_a 18.123908
_cell_length_b 18.123908
_cell_length_c 29.536060
_cell_angle_alpha 90.000000
_cell_angle_beta 90.000000
_cell_angle_gamma 90.000000
_cell_volume 9701.888061
_symmetry_space_group_name_H-M "I 4/M M M"
_symmetry_group_IT_number 139
_symmetry_cell_setting 'tetragonal'
loop_
_space_group_symop_operation_xyz
x,y,z
-y,x,z
-x,-y,z
y,-x,z
x,-y,-z
-x,y,-z
y,x,-z
-y,-x,-z
-x,-y,-z
y,-x,-z
x,y,-z
-y,x,-z
-x,y,z
x,-y,z
-y,-x,z
y,x,z
1/2+x,1/2+y,1/2+z
1/2-y,1/2+x,1/2+z
1/2-x,1/2-y,1/2+z
1/2+y,1/2-x,1/2+z
1/2+x,1/2-y,1/2-z
1/2-x,1/2+y,1/2-z
1/2+y,1/2+x,1/2-z
1/2-y,1/2-x,1/2-z
1/2-x,1/2-y,1/2-z
1/2+y,1/2-x,1/2-z
1/2+x,1/2+y,1/2-z
1/2-y,1/2+x,1/2-z
1/2-x,1/2+y,1/2+z
1/2+x,1/2-y,1/2+z
1/2-y,1/2-x,1/2+z
1/2+y,1/2+x,1/2+z
loop_
_atom_site_type_symbol
_atom_site_label
_atom_site_fract_x
_atom_site_fract_y
_atom_site_fract_z
Si Si1 0.813518 0.686855 0.698092
Si Si2 0.584347 0.292121 0.856490
Si Si3 0.641578 0.236007 0.948873
Si Si4 0.083890 0.282834 0.051396
Si Si5 0.206126 0.914553 0.145028
O O1 0.749871 0.749871 0.698009
O O2 0.831114 0.668887 0.750000
O O3 0.881278 0.724808 0.672294
O O4 0.776556 0.619413 0.671233
O O5 0.500000 0.306723 0.844828
O O6 0.637164 0.362837 0.849351
O O7 0.592331 0.268275 0.909010
O O8 0.719600 0.280401 0.945040
O O9 0.658618 0.149621 0.942662
O O10 0.613935 0.248334 0.000000
O O11 0.091831 0.224180 0.091543
O O12 0.000000 0.312708 0.054975
O O13 0.092322 0.253250 0.000000
O O14 0.135871 0.864130 0.156103
O O15 0.195265 0.000000 0.156248
#
# Coordination Sequence:
#
# PCOD9571378 Si02
#       5
#    32  32  32  32  32
#     4   9  18  34  54  73  94 125 168 212 250 291
#     4  10  20  34  53  78 105 132 165 205 252 305
#     4   9  16  28  48  71  98 134 175 213 245 289
#     4   9  16  26  45  73 102 132 168 211 253 289
#     4  10  19  31  49  74 104 136 169 205 245 291
#
# _framework density 16.491636
#
# number of rings (size 3 to 8) (size 9 to 14) (size 15 to 20)
#    0.000    2.600    2.000    0.600    0.000    2.800 
#    0.000    0.000    0.000    2.400    0.000   15.400 
#    0.000    0.000    0.000    0.000    0.000    0.000 
#
# Total GULP energy -445511.043481 kJ/mol
# GULP energy per Si atom -5568.888044 kJ/mol
# Density = 1.645410 g / cm^3
# Si number density = 16.491636 Si / 1000 Ang^3
#
#
#
# Elastic Constant Matrix: (Units=GPa)
#
#
# Indices 1 2 3 4 5 6 
#
# 1 88.5852 46.4764 37.6686 0.0000 0.0000 0.0000
# 2 46.4764 88.5851 37.6685 0.0000 0.0000 0.0000
# 3 37.6686 37.6685 85.5484 0.0000 0.0000 0.0000
# 4 0.0000 0.0000 0.0000 10.4452 0.0000 0.0000
# 5 0.0000 0.0000 0.0000 0.0000 10.4453 0.0000
# 6 0.0000 0.0000 0.0000 0.0000 0.0000 10.4048
#
#
#
# Elastic Compliance Matrix: (Units=1/GPa)
#
#
# Indices 1 2 3 4 5 6 
#
# 1 0.016781 -0.006967 -0.004322 0.000000 0.000000 0.000000
# 2 -0.006967 0.016781 -0.004322 0.000000 0.000000 0.000000
# 3 -0.004322 -0.004322 0.015495 0.000000 0.000000 0.000000
# 4 0.000000 0.000000 0.000000 0.095738 0.000000 0.000000
# 5 0.000000 0.000000 0.000000 0.000000 0.095737 0.000000
# 6 0.000000 0.000000 0.000000 0.000000 0.000000 0.096109
#
#
# Mechanical properties :
#
#
# Convention : Reuss Voigt Hill
#
# Bulk Modulus (GPa) = 56.06013 56.26065 56.16039
# Shear Modulus (GPa) = 13.37586 15.65272 14.51429
#
# Velocity S-wave (km/s) = 2.85102 3.08414 2.96987
# Velocity P-wave (km/s) = 6.70109 6.84626 6.77406
#
# Compressibility (1/GPa) = 0.01783799
#
# Stress axis : x y z
#
# Youngs Moduli (GPa) = 59.59011 59.59005 64.53690
#
# Poissons Ratio (x) = 0.41515 0.27890
# Poissons Ratio (y) = 0.41515 0.27890
# Poissons Ratio (z) = 0.25752 0.25752
#
# Static dielectric constant tensor:
#      x y z
#    x 1.542370 0.000000 0.000000 
#    y 0.000000 1.542370 0.000000 
#    z 0.000000 0.000000 1.581250 
# 
# From -- ./inp_files/12928.got.cif
#   From: 2010.05.17/outbox.cif.g08.bks.cpg/sg139_7_cif.got.tgz:12928.got - 2010.05.20 13:14:44.
