data_PCOD9571533
_publ_section_title
;
Structure prediction by ZEFSAII (Michael W. Deem and Ramdas Pophale) SiO2 
 PCOD9571533
Probable space group: I 4/M M M
;
_chemical_formula_sum "Si O2"
_cell_formula_units_Z 160
_cell_length_a 18.283644
_cell_length_b 18.283644
_cell_length_c 27.810656
_cell_angle_alpha 90.000000
_cell_angle_beta 90.000000
_cell_angle_gamma 90.000000
_cell_volume 9296.869746
_symmetry_space_group_name_H-M "I 4/M M M"
_symmetry_group_IT_number 139
_symmetry_cell_setting 'tetragonal'
loop_
_space_group_symop_operation_xyz
x,y,z
-y,x,z
-x,-y,z
y,-x,z
x,-y,-z
-x,y,-z
y,x,-z
-y,-x,-z
-x,-y,-z
y,-x,-z
x,y,-z
-y,x,-z
-x,y,z
x,-y,z
-y,-x,z
y,x,z
1/2+x,1/2+y,1/2+z
1/2-y,1/2+x,1/2+z
1/2-x,1/2-y,1/2+z
1/2+y,1/2-x,1/2+z
1/2+x,1/2-y,1/2-z
1/2-x,1/2+y,1/2-z
1/2+y,1/2+x,1/2-z
1/2-y,1/2-x,1/2-z
1/2-x,1/2-y,1/2-z
1/2+y,1/2-x,1/2-z
1/2+x,1/2+y,1/2-z
1/2-y,1/2+x,1/2-z
1/2-x,1/2+y,1/2+z
1/2+x,1/2-y,1/2+z
1/2-y,1/2-x,1/2+z
1/2+y,1/2+x,1/2+z
loop_
_atom_site_type_symbol
_atom_site_label
_atom_site_fract_x
_atom_site_fract_y
_atom_site_fract_z
Si Si1 0.339795 0.218252 0.944140
Si Si2 0.701182 0.584541 0.185834
Si Si3 0.583012 0.000000 0.633462
Si Si4 0.350218 0.853893 0.847634
Si Si5 0.789795 0.500000 0.944949
Si Si6 0.083840 0.796821 0.802028
O O1 0.279462 0.279462 0.934656
O O2 0.333558 0.154413 0.904682
O O3 0.422475 0.249560 0.938074
O O4 0.332461 0.194991 0.000000
O O5 0.704525 0.500000 0.169347
O O6 0.628248 0.628248 0.171220
O O7 0.771862 0.629435 0.168733
O O8 0.703706 0.583898 0.243930
O O9 0.599792 0.075783 0.660793
O O10 0.641457 0.000000 0.590416
O O11 0.500000 0.000000 0.616842
O O12 0.280433 0.885924 0.820893
O O13 0.815692 0.500000 0.000000
O O14 0.138442 0.861559 0.817660
O O15 0.000000 0.807770 0.817807
#
# Coordination Sequence:
#
# PCOD9571533 Si02
#       6
#    32  32  16  32  16  32
#     4   9  17  29  47  70  95 126 165 207 250 298
#     4  10  20  34  52  75 102 134 172 211 253 300
#     4  10  20  31  48  70  98 132 160 200 249 302
#     4  11  19  34  52  74 102 134 169 208 255 304
#     4   8  16  29  44  65  92 122 160 200 242 294
#     4  10  21  35  54  77 102 133 170 211 255 307
#
# _framework density 17.210093000000001
#
# number of rings (size 3 to 8) (size 9 to 14) (size 15 to 20)
#    0.000    2.200    1.000    3.000    0.000    2.200 
#    0.000    2.000    0.000    2.100    0.000    2.100 
#    0.000    0.000    0.000    4.200    0.000    0.200 
#
# Total GULP energy -445821.071764 kJ/mol
# GULP energy per Si atom -5572.763397 kJ/mol
# Density = 1.717092 g / cm^3
# Si number density = 17.210093 Si / 1000 Ang^3
#
#
#
# Elastic Constant Matrix: (Units=GPa)
#
#
# Indices 1 2 3 4 5 6 
#
# 1 99.5211 66.6085 18.5016 0.0000 0.0000 0.0000
# 2 66.6085 99.5211 18.5016 0.0000 0.0000 0.0000
# 3 18.5016 18.5016 27.0485 0.0000 0.0000 0.0000
# 4 0.0000 0.0000 0.0000 10.0525 0.0000 0.0000
# 5 0.0000 0.0000 0.0000 0.0000 10.0525 0.0000
# 6 0.0000 0.0000 0.0000 0.0000 0.0000 18.8251
#
#
#
# Elastic Compliance Matrix: (Units=1/GPa)
#
#
# Indices 1 2 3 4 5 6 
#
# 1 0.018742 -0.011641 -0.004857 0.000000 0.000000 0.000000
# 2 -0.011641 0.018742 -0.004857 0.000000 0.000000 0.000000
# 3 -0.004857 -0.004857 0.043616 0.000000 0.000000 0.000000
# 4 0.000000 0.000000 0.000000 0.099478 0.000000 0.000000
# 5 0.000000 0.000000 0.000000 0.000000 0.099478 0.000000
# 6 0.000000 0.000000 0.000000 0.000000 0.000000 0.053121
#
#
# Mechanical properties :
#
#
# Convention : Reuss Voigt Hill
#
# Bulk Modulus (GPa) = 26.04932 48.14603 37.09768
# Shear Modulus (GPa) = 12.86390 15.95128 14.40759
#
# Velocity S-wave (km/s) = 2.73694 3.04773 2.89651
# Velocity P-wave (km/s) = 5.01565 6.35776 5.72616
#
# Compressibility (1/GPa) = 0.03838872
#
# Stress axis : x y z
#
# Youngs Moduli (GPa) = 53.35486 53.35486 22.92746
#
# Poissons Ratio (x) = 0.62111 0.11137
# Poissons Ratio (y) = 0.62111 0.11137
# Poissons Ratio (z) = 0.25917 0.25917
#
# Static dielectric constant tensor:
#      x y z
#    x 1.581200 0.000000 0.000000 
#    y 0.000000 1.581200 0.000000 
#    z 0.000000 0.000000 1.621050 
# 
# From -- ./inp_files/14089.got.cif
#   From: 2010.05.17/outbox.cif.g08.bks.cpg/sg139_8_cif.got.tgz:14089.got - 2010.05.20 13:14:44.
