data_PCOD9571317
_publ_section_title
;
Structure prediction by ZEFSAII (Michael W. Deem and Ramdas Pophale) SiO2 
 PCOD9571317
Probable space group: I 4/M M M
;
_chemical_formula_sum "Si O2"
_cell_formula_units_Z 176
_cell_length_a 18.173587
_cell_length_b 18.173587
_cell_length_c 35.796568
_cell_angle_alpha 90.000000
_cell_angle_beta 90.000000
_cell_angle_gamma 90.000000
_cell_volume 11822.864149
_symmetry_space_group_name_H-M "I 4/M M M"
_symmetry_group_IT_number 139
_symmetry_cell_setting 'tetragonal'
loop_
_space_group_symop_operation_xyz
x,y,z
-y,x,z
-x,-y,z
y,-x,z
x,-y,-z
-x,y,-z
y,x,-z
-y,-x,-z
-x,-y,-z
y,-x,-z
x,y,-z
-y,x,-z
-x,y,z
x,-y,z
-y,-x,z
y,x,z
1/2+x,1/2+y,1/2+z
1/2-y,1/2+x,1/2+z
1/2-x,1/2-y,1/2+z
1/2+y,1/2-x,1/2+z
1/2+x,1/2-y,1/2-z
1/2-x,1/2+y,1/2-z
1/2+y,1/2+x,1/2-z
1/2-y,1/2-x,1/2-z
1/2-x,1/2-y,1/2-z
1/2+y,1/2-x,1/2-z
1/2+x,1/2+y,1/2-z
1/2-y,1/2+x,1/2-z
1/2-x,1/2+y,1/2+z
1/2+x,1/2-y,1/2+z
1/2-y,1/2-x,1/2+z
1/2+y,1/2+x,1/2+z
loop_
_atom_site_type_symbol
_atom_site_label
_atom_site_fract_x
_atom_site_fract_y
_atom_site_fract_z
Si Si1 0.703230 0.416667 0.455241
Si Si2 0.200961 0.915378 0.795274
Si Si3 0.144915 0.586994 0.410340
Si Si4 0.085807 0.690363 0.272999
Si Si5 0.911189 0.500000 0.042474
Si Si6 0.308118 0.812273 0.842637
O O1 0.713109 0.410361 0.500000
O O2 0.676666 0.500000 0.447620
O O3 0.644184 0.355817 0.443128
O O4 0.781221 0.407679 0.435098
O O5 0.121800 0.878201 0.793928
O O6 0.240537 0.908453 0.755065
O O7 0.250661 0.869083 0.823789
O O8 0.199470 0.000000 0.806126
O O9 0.137766 0.500000 0.398864
O O10 0.154801 0.643483 0.376397
O O11 0.073676 0.607439 0.434832
O O12 0.123449 0.623449 0.250000
O O13 0.132173 0.703947 0.310406
O O14 0.000000 0.675911 0.280481
O O15 0.000000 0.500000 0.039948
O O16 0.882398 0.500000 0.000000
O O17 0.260209 0.739792 0.852780
#
# Coordination Sequence:
#
# PCOD9571317 Si02
#       6
#    32  32  32  32  16  32
#     4   9  17  29  45  64  87 116 149 184 221 263
#     4   9  17  30  46  64  87 117 153 189 225 263
#     4  10  19  30  45  65  89 117 151 187 228 272
#     4   9  18  31  46  64  88 118 152 188 230 277
#     4   9  18  32  48  66  90 120 153 187 233 289
#     4  10  19  30  46  65  90 121 152 186 225 273
#
# _framework density 14.88641
#
# number of rings (size 3 to 8) (size 9 to 14) (size 15 to 20)
#    0.000    2.636    0.000    2.182    1.273    5.636 
#    0.000    0.909    0.000    0.000    0.000    2.545 
#    0.000    0.000    0.000    0.000    0.000    0.909 
#
# Total GULP energy -490318.577267 kJ/mol
# GULP energy per Si atom -5571.802014 kJ/mol
# Density = 1.485253 g / cm^3
# Si number density = 14.886410 Si / 1000 Ang^3
#
#
#
# Elastic Constant Matrix: (Units=GPa)
#
#
# Indices 1 2 3 4 5 6 
#
# 1 66.3417 30.9533 34.8008 0.0000 0.0000 0.0000
# 2 30.9533 66.3417 34.8008 0.0000 0.0000 0.0000
# 3 34.8008 34.8008 74.6236 0.0000 0.0000 0.0000
# 4 0.0000 0.0000 0.0000 16.5512 0.0000 0.0000
# 5 0.0000 0.0000 0.0000 0.0000 16.5512 0.0000
# 6 0.0000 0.0000 0.0000 0.0000 0.0000 16.8857
#
#
#
# Elastic Compliance Matrix: (Units=1/GPa)
#
#
# Indices 1 2 3 4 5 6 
#
# 1 0.021841 -0.006417 -0.007193 0.000000 0.000000 0.000000
# 2 -0.006417 0.021841 -0.007193 0.000000 0.000000 0.000000
# 3 -0.007193 -0.007193 0.020109 0.000000 0.000000 0.000000
# 4 0.000000 0.000000 0.000000 0.060418 0.000000 0.000000
# 5 0.000000 0.000000 0.000000 0.000000 0.060418 0.000000
# 6 0.000000 0.000000 0.000000 0.000000 0.000000 0.059222
#
#
# Mechanical properties :
#
#
# Convention : Reuss Voigt Hill
#
# Bulk Modulus (GPa) = 45.07506 45.37965 45.22736
# Shear Modulus (GPa) = 17.07362 17.11445 17.09404
#
# Velocity S-wave (km/s) = 3.39030 3.39436 3.39233
# Velocity P-wave (km/s) = 6.75800 6.77586 6.76694
#
# Compressibility (1/GPa) = 0.02218521
#
# Stress axis : x y z
#
# Youngs Moduli (GPa) = 45.78621 45.78621 49.72829
#
# Poissons Ratio (x) = 0.29382 0.35768
# Poissons Ratio (y) = 0.29382 0.35768
# Poissons Ratio (z) = 0.32933 0.32933
#
# Static dielectric constant tensor:
#      x y z
#    x 1.480010 0.000000 0.000000 
#    y 0.000000 1.480010 0.000000 
#    z 0.000000 0.000000 1.496120 
# 
# From -- ./inp_files/14237.got.cif
#   From: 2010.05.17/outbox.cif.g08.bks.cpg/sg139_8_cif.got.tgz:14237.got - 2010.05.20 13:14:44.
