data_PCOD9571368
_publ_section_title
;
Structure prediction by ZEFSAII (Michael W. Deem and Ramdas Pophale) SiO2 
 PCOD9571368
Probable space group: I 4/M M M
;
_chemical_formula_sum "Si O2"
_cell_formula_units_Z 80
_cell_length_a 24.415406
_cell_length_b 24.415406
_cell_length_c 8.033087
_cell_angle_alpha 90.000000
_cell_angle_beta 90.000000
_cell_angle_gamma 90.000000
_cell_volume 4788.619961
_symmetry_space_group_name_H-M "I 4/M M M"
_symmetry_group_IT_number 139
_symmetry_cell_setting 'tetragonal'
loop_
_space_group_symop_operation_xyz
x,y,z
-y,x,z
-x,-y,z
y,-x,z
x,-y,-z
-x,y,-z
y,x,-z
-y,-x,-z
-x,-y,-z
y,-x,-z
x,y,-z
-y,x,-z
-x,y,z
x,-y,z
-y,-x,z
y,x,z
1/2+x,1/2+y,1/2+z
1/2-y,1/2+x,1/2+z
1/2-x,1/2-y,1/2+z
1/2+y,1/2-x,1/2+z
1/2+x,1/2-y,1/2-z
1/2-x,1/2+y,1/2-z
1/2+y,1/2+x,1/2-z
1/2-y,1/2-x,1/2-z
1/2-x,1/2-y,1/2-z
1/2+y,1/2-x,1/2-z
1/2+x,1/2+y,1/2-z
1/2-y,1/2+x,1/2-z
1/2-x,1/2+y,1/2+z
1/2+x,1/2-y,1/2+z
1/2-y,1/2-x,1/2+z
1/2+y,1/2+x,1/2+z
loop_
_atom_site_type_symbol
_atom_site_label
_atom_site_fract_x
_atom_site_fract_y
_atom_site_fract_z
Si Si1 0.727884 0.433493 0.815375
Si Si2 0.848129 0.436648 0.699277
Si Si3 0.433962 0.345607 0.500000
O O1 0.727594 0.500000 0.814240
O O2 0.790776 0.417952 0.779383
O O3 0.688740 0.417197 0.663992
O O4 0.711015 0.415134 0.000000
O O5 0.841251 0.435767 0.500000
O O6 0.858252 0.500000 0.749019
O O7 0.897474 0.397474 0.750000
O O8 0.500000 0.351161 0.500000
O O9 0.403129 0.403129 0.500000
#
# Coordination Sequence:
#
# PCOD9571368 Si02
#       3
#    32  32  16
#     4   9  17  32  53  75 100 135 179 215 248 299
#     4  10  19  31  48  73 104 138 179 223 265 308
#     4  10  20  35  56  82 109 135 167 207 253 311
#
# _framework density 16.706274000000001
#
# number of rings (size 3 to 8) (size 9 to 14) (size 15 to 20)
#    0.000    2.400    2.000    1.200    0.000    3.800 
#    0.000    2.000    0.000    1.200    0.000    5.600 
#    0.000    0.000    0.000    0.000    0.000    0.000 
#
# Total GULP energy -222961.130933 kJ/mol
# GULP energy per Si atom -5574.028273 kJ/mol
# Density = 1.666825 g / cm^3
# Si number density = 16.706274 Si / 1000 Ang^3
#
#
#
# Elastic Constant Matrix: (Units=GPa)
#
#
# Indices 1 2 3 4 5 6 
#
# 1 61.1082 37.7598 37.7443 0.0000 0.0000 0.0000
# 2 37.7598 61.1082 37.7443 0.0000 0.0000 0.0000
# 3 37.7443 37.7443 128.1310 0.0000 0.0000 0.0000
# 4 0.0000 0.0000 0.0000 11.1392 0.0000 0.0000
# 5 0.0000 0.0000 0.0000 0.0000 11.1392 0.0000
# 6 0.0000 0.0000 0.0000 0.0000 0.0000 -4.8892
#
#
#
# Elastic Compliance Matrix: (Units=1/GPa)
#
#
# Indices 1 2 3 4 5 6 
#
# 1 0.027940 -0.014890 -0.003844 0.000000 0.000000 0.000000
# 2 -0.014890 0.027940 -0.003844 0.000000 0.000000 0.000000
# 3 -0.003844 -0.003844 0.010069 0.000000 0.000000 0.000000
# 4 0.000000 0.000000 0.000000 0.089773 0.000000 0.000000
# 5 0.000000 0.000000 0.000000 0.000000 0.089773 0.000000
# 6 0.000000 0.000000 0.000000 0.000000 0.000000 -0.204534
#
#
# Mechanical properties :
#
#
# Convention : Reuss Voigt Hill
#
# Bulk Modulus (GPa) = 48.09532 52.98271 50.53901
# Shear Modulus (GPa) = 53.73576 12.61777 33.17677
#
# Velocity S-wave (km/s) = 5.67757 2.75120 4.46116
# Velocity P-wave (km/s) = 8.47532 6.47111 7.54010
#
# Compressibility (1/GPa) = 0.02079205
#
# Stress axis : x y z
#
# Youngs Moduli (GPa) = 35.79149 35.79149 99.31207
#
# Poissons Ratio (x) = 0.53294 0.38176
# Poissons Ratio (y) = 0.53294 0.38176
# Poissons Ratio (z) = 0.13759 0.13759
#
# Static dielectric constant tensor:
#      x y z
#    x 1.536600 0.000000 0.000000 
#    y 0.000000 1.536600 0.000000 
#    z 0.000000 0.000000 1.598450 
# 
# From -- ./inp_files/934.got.cif
#   From: 2010.05.17/outbox.cif.g08.bks.cpg/sg139_1_cif.got.tgz:934.got - 2010.05.20 13:14:44.
