data_PCOD9571440
_publ_section_title
;
Structure prediction by ZEFSAII (Michael W. Deem and Ramdas Pophale) SiO2 
 PCOD9571440
Probable space group: I 4/M M M
;
_chemical_formula_sum "Si O2"
_cell_formula_units_Z 160
_cell_length_a 22.139832
_cell_length_b 22.139832
_cell_length_c 18.238984
_cell_angle_alpha 90.000000
_cell_angle_beta 90.000000
_cell_angle_gamma 90.000000
_cell_volume 8940.242202
_symmetry_space_group_name_H-M "I 4/M M M"
_symmetry_group_IT_number 139
_symmetry_cell_setting 'tetragonal'
loop_
_space_group_symop_operation_xyz
x,y,z
-y,x,z
-x,-y,z
y,-x,z
x,-y,-z
-x,y,-z
y,x,-z
-y,-x,-z
-x,-y,-z
y,-x,-z
x,y,-z
-y,x,-z
-x,y,z
x,-y,z
-y,-x,z
y,x,z
1/2+x,1/2+y,1/2+z
1/2-y,1/2+x,1/2+z
1/2-x,1/2-y,1/2+z
1/2+y,1/2-x,1/2+z
1/2+x,1/2-y,1/2-z
1/2-x,1/2+y,1/2-z
1/2+y,1/2+x,1/2-z
1/2-y,1/2-x,1/2-z
1/2-x,1/2-y,1/2-z
1/2+y,1/2-x,1/2-z
1/2+x,1/2+y,1/2-z
1/2-y,1/2+x,1/2-z
1/2-x,1/2+y,1/2+z
1/2+x,1/2-y,1/2+z
1/2-y,1/2-x,1/2+z
1/2+y,1/2+x,1/2+z
loop_
_atom_site_type_symbol
_atom_site_label
_atom_site_fract_x
_atom_site_fract_y
_atom_site_fract_z
Si Si1 0.666788 0.570214 0.200899
Si Si2 0.500000 0.069659 0.588707
Si Si3 0.354848 0.257522 0.083762
Si Si4 0.385576 0.845876 0.587104
Si Si5 0.929818 0.160733 0.000000
Si Si6 0.621102 0.283381 0.649257
O O1 0.664849 0.500000 0.186509
O O2 0.601747 0.601747 0.196438
O O3 0.709070 0.604257 0.142737
O O4 0.692290 0.583944 0.281900
O O5 0.500000 0.066828 0.500000
O O6 0.561801 0.106285 0.607738
O O7 0.500000 0.000000 0.615578
O O8 0.287108 0.287108 0.092095
O O9 0.362473 0.185463 0.091866
O O10 0.372664 0.272004 0.000000
O O11 0.395908 0.830818 0.500000
O O12 0.387745 0.787508 0.638950
O O13 0.902820 0.190133 0.927192
O O14 0.908429 0.091571 0.000000
O O15 0.000000 0.168857 0.000000
O O16 0.688729 0.311272 0.658832
#
# Coordination Sequence:
#
# PCOD9571440 Si02
#       6
#    32  16  32  32  16  32
#     4  10  22  38  56  82 114 147 185 231 278 335
#     4   9  20  34  48  78 114 146 193 235 267 332
#     4   9  19  36  58  85 112 138 179 234 293 348
#     4  10  19  32  57  82 109 150 183 228 285 333
#     4  10  20  31  48  74 108 146 186 232 271 327
#     4  10  20  33  53  82 111 141 186 235 275 327
#
# _framework density 17.896606999999999
#
# number of rings (size 3 to 8) (size 9 to 14) (size 15 to 20)
#    0.000    2.300    1.000    1.200    2.800    3.100 
#    0.000    5.000    0.000    3.600    0.000    2.800 
#    0.000    0.000    0.000    0.000    0.000    0.000 
#
# Total GULP energy -445505.112695 kJ/mol
# GULP energy per Si atom -5568.813909 kJ/mol
# Density = 1.785587 g / cm^3
# Si number density = 17.896607 Si / 1000 Ang^3
#
#
#
# Elastic Constant Matrix: (Units=GPa)
#
#
# Indices 1 2 3 4 5 6 
#
# 1 121.5054 47.4605 24.5861 0.0000 0.0000 0.0000
# 2 47.4605 121.5054 24.5861 0.0000 0.0000 0.0000
# 3 24.5861 24.5861 49.1005 0.0000 0.0000 0.0000
# 4 0.0000 0.0000 0.0000 18.3987 0.0000 0.0000
# 5 0.0000 0.0000 0.0000 0.0000 18.3987 0.0000
# 6 0.0000 0.0000 0.0000 0.0000 0.0000 18.5732
#
#
#
# Elastic Compliance Matrix: (Units=1/GPa)
#
#
# Indices 1 2 3 4 5 6 
#
# 1 0.010217 -0.003289 -0.003469 0.000000 0.000000 0.000000
# 2 -0.003289 0.010217 -0.003469 0.000000 0.000000 0.000000
# 3 -0.003469 -0.003469 0.023840 0.000000 0.000000 0.000000
# 4 0.000000 0.000000 0.000000 0.054352 0.000000 0.000000
# 5 0.000000 0.000000 0.000000 0.000000 0.054352 0.000000
# 6 0.000000 0.000000 0.000000 0.000000 0.000000 0.053841
#
#
# Mechanical properties :
#
#
# Convention : Reuss Voigt Hill
#
# Bulk Modulus (GPa) = 41.98114 53.93074 47.95594
# Shear Modulus (GPa) = 21.25743 24.10600 22.68171
#
# Velocity S-wave (km/s) = 3.45017 3.67408 3.56388
# Velocity P-wave (km/s) = 6.27536 6.94251 6.61735
#
# Compressibility (1/GPa) = 0.02382022
#
# Stress axis : x y z
#
# Youngs Moduli (GPa) = 97.87981 97.87981 41.94554
#
# Poissons Ratio (x) = 0.32190 0.14551
# Poissons Ratio (y) = 0.32190 0.14551
# Poissons Ratio (z) = 0.33955 0.33955
#
# Static dielectric constant tensor:
#      x y z
#    x 1.622460 0.000000 0.000000 
#    y 0.000000 1.622460 0.000000 
#    z 0.000000 0.000000 1.582340 
# 
# From -- ./inp_files/8465.got.cif
#   From: 2010.05.17/outbox.cif.g08.bks.cpg/sg139_5_cif.got.tgz:8465.got - 2010.05.20 13:14:44.
