data_PCOD9571795
_publ_section_title
;
Structure prediction by ZEFSAII (Michael W. Deem and Ramdas Pophale) SiO2 
 PCOD9571795
Probable space group: I 4/M M M
;
_chemical_formula_sum "Si O2"
_cell_formula_units_Z 160
_cell_length_a 20.847386
_cell_length_b 20.847386
_cell_length_c 19.294698
_cell_angle_alpha 90.000000
_cell_angle_beta 90.000000
_cell_angle_gamma 90.000000
_cell_volume 8385.736288
_symmetry_space_group_name_H-M "I 4/M M M"
_symmetry_group_IT_number 139
_symmetry_cell_setting 'tetragonal'
loop_
_space_group_symop_operation_xyz
x,y,z
-y,x,z
-x,-y,z
y,-x,z
x,-y,-z
-x,y,-z
y,x,-z
-y,-x,-z
-x,-y,-z
y,-x,-z
x,y,-z
-y,x,-z
-x,y,z
x,-y,z
-y,-x,z
y,x,z
1/2+x,1/2+y,1/2+z
1/2-y,1/2+x,1/2+z
1/2-x,1/2-y,1/2+z
1/2+y,1/2-x,1/2+z
1/2+x,1/2-y,1/2-z
1/2-x,1/2+y,1/2-z
1/2+y,1/2+x,1/2-z
1/2-y,1/2-x,1/2-z
1/2-x,1/2-y,1/2-z
1/2+y,1/2-x,1/2-z
1/2+x,1/2+y,1/2-z
1/2-y,1/2+x,1/2-z
1/2-x,1/2+y,1/2+z
1/2+x,1/2-y,1/2+z
1/2-y,1/2-x,1/2+z
1/2+y,1/2+x,1/2+z
loop_
_atom_site_type_symbol
_atom_site_label
_atom_site_fract_x
_atom_site_fract_y
_atom_site_fract_z
Si Si1 0.422515 0.072988 0.580475
Si Si2 0.926543 0.818978 0.423748
Si Si3 0.802183 0.374300 0.658271
Si Si4 0.641969 0.253647 0.801914
Si Si5 0.426293 0.677852 0.416458
O O1 0.403304 0.085337 0.500000
O O2 0.500000 0.073443 0.581866
O O3 0.399043 0.129465 0.630588
O O4 0.401668 0.000000 0.598531
O O5 0.917018 0.788337 0.500000
O O6 0.879646 0.879646 0.420429
O O7 0.907274 0.773879 0.360851
O O8 0.000000 0.838695 0.418504
O O9 0.780567 0.391253 0.736620
O O10 0.809996 0.297794 0.663888
O O11 0.745514 0.398995 0.609641
O O12 0.684634 0.315367 0.779996
O O13 0.426308 0.677849 0.500000
O O14 0.500000 0.669687 0.393177
O O15 0.379520 0.620480 0.392880
#
# Coordination Sequence:
#
# PCOD9571795 Si02
#       5
#    32  32  32  32  32
#     4   9  19  36  56  80 113 148 179 219 273 325
#     4   9  19  36  57  82 112 146 186 234 292 359
#     4  11  20  35  58  80 106 143 191 234 272 334
#     4  10  22  38  54  76 109 145 179 228 293 343
#     4  10  21  36  56  84 116 151 192 236 281 331
#
# _framework density 19.080017999999999
#
# number of rings (size 3 to 8) (size 9 to 14) (size 15 to 20)
#    0.000    2.200    0.000    4.200    0.000    6.000 
#    0.000   12.000    0.000    4.800    0.000    2.800 
#    0.000    0.000    0.000    0.000    0.000    0.000 
#
# Total GULP energy -446107.757551 kJ/mol
# GULP energy per Si atom -5576.346969 kJ/mol
# Density = 1.903659 g / cm^3
# Si number density = 19.080018 Si / 1000 Ang^3
#
#
#
# Elastic Constant Matrix: (Units=GPa)
#
#
# Indices 1 2 3 4 5 6 
#
# 1 89.6399 27.1118 53.0447 0.0000 0.0000 0.0000
# 2 27.1118 89.6399 53.0447 0.0000 0.0000 0.0000
# 3 53.0447 53.0447 98.5856 0.0000 0.0000 0.0000
# 4 0.0000 0.0000 0.0000 190.6915 0.0000 0.0000
# 5 0.0000 0.0000 0.0000 0.0000 190.6915 0.0000
# 6 0.0000 0.0000 0.0000 0.0000 0.0000 19.3882
#
#
#
# Elastic Compliance Matrix: (Units=1/GPa)
#
#
# Indices 1 2 3 4 5 6 
#
# 1 0.016376 0.000383 -0.009017 0.000000 0.000000 0.000000
# 2 0.000383 0.016376 -0.009017 0.000000 0.000000 0.000000
# 3 -0.009017 -0.009017 0.019847 0.000000 0.000000 0.000000
# 4 0.000000 0.000000 0.000000 0.005244 0.000000 0.000000
# 5 0.000000 0.000000 0.000000 0.000000 0.005244 0.000000
# 6 0.000000 0.000000 0.000000 0.000000 0.000000 0.051578
#
#
# Mechanical properties :
#
#
# Convention : Reuss Voigt Hill
#
# Bulk Modulus (GPa) = 57.81719 60.47421 59.14570
# Shear Modulus (GPa) = 32.10624 89.79853 60.95239
#
# Velocity S-wave (km/s) = 4.10654 6.86778 5.65818
# Velocity P-wave (km/s) = 7.27002 9.72894 8.58794
#
# Compressibility (1/GPa) = 0.01729589
#
# Stress axis : x y z
#
# Youngs Moduli (GPa) = 61.06541 61.06541 50.38522
#
# Poissons Ratio (x) = -0.02339 0.45434
# Poissons Ratio (y) = -0.02339 0.45434
# Poissons Ratio (z) = 0.55064 0.55064
#
# Static dielectric constant tensor:
#      x y z
#    x 1.659300 0.000000 0.000000 
#    y 0.000000 1.659300 0.000000 
#    z 0.000000 0.000000 1.687480 
# 
# From -- ./inp_files/8368.got.cif
#   From: 2010.05.17/outbox.cif.g08.bks.cpg/sg139_5_cif.got.tgz:8368.got - 2010.05.20 13:14:44.
