data_PCOD9571006
_publ_section_title
;
Structure prediction by ZEFSAII (Michael W. Deem and Ramdas Pophale) SiO2 
 PCOD9571006
Probable space group: P 42/N C M
;
_chemical_formula_sum "Si O2"
_cell_formula_units_Z 80
_cell_length_a 12.214045
_cell_length_b 12.214045
_cell_length_c 25.780851
_cell_angle_alpha 90.000000
_cell_angle_beta 90.000000
_cell_angle_gamma 90.000000
_cell_volume 3846.061994
_symmetry_space_group_name_H-M "P 42/N C M"
_symmetry_group_IT_number 138
_space_group.IT_coordinate_system_code '2'
_symmetry_cell_setting 'tetragonal'
loop_
_space_group_symop_operation_xyz
x,y,z
1/2-y,x,1/2+z
1/2-x,1/2-y,z
y,1/2-x,1/2+z
1/2+x,-y,1/2-z
-x,1/2+y,1/2-z
1/2+y,1/2+x,-z
-y,-x,-z
-x,-y,-z
1/2+y,-x,1/2-z
1/2+x,1/2+y,-z
-y,1/2+x,1/2-z
1/2-x,y,1/2+z
x,1/2-y,1/2+z
1/2-y,1/2-x,z
y,x,z
loop_
_atom_site_type_symbol
_atom_site_label
_atom_site_fract_x
_atom_site_fract_y
_atom_site_fract_z
Si Si1 0.553571 0.131096 0.181856
Si Si2 0.677792 0.004011 0.013043
Si Si3 0.865257 0.460486 0.446247
Si Si4 0.385563 0.564064 0.202396
Si Si5 0.765315 0.417023 0.616746
O O1 0.605462 0.097129 0.237394
O O2 0.537548 0.261221 0.186513
O O3 0.646565 0.112655 0.138506
O O4 0.446976 0.053025 0.173462
O O5 0.739848 0.002722 0.068498
O O6 0.582168 0.917833 0.016083
O O7 0.622096 0.122096 0.000000
O O8 0.757833 0.978132 0.965364
O O9 0.913771 0.413771 0.500000
O O10 0.838998 0.354063 0.412091
O O11 0.957465 0.542535 0.424095
O O12 0.457722 0.457722 0.195107
O O13 0.439227 0.661882 0.168006
#
# Coordination Sequence:
#
# PCOD9571006 Si02
#       5
#    16  16  16  16  16
#     4  11  24  42  67  98 133 176 223 274 333 395
#     4  10  23  40  61  96 135 173 220 277 338 402
#     4   9  20  38  62  91 125 167 216 270 331 393
#     4  11  24  42  66  99 135 171 222 279 333 397
#     4  11  22  40  68  94 129 173 226 273 327 399
#
# _framework density 20.800495000000002
#
# number of rings (size 3 to 8) (size 9 to 14) (size 15 to 20)
#    0.000    1.600    2.000    1.800    5.600    4.400 
#    0.000    0.000    0.000    9.600    0.000    0.000 
#    0.000    0.000    0.000    0.000    0.000    0.000 
#
# Total GULP energy -445582.258402 kJ/mol
# GULP energy per Si atom -5569.778230 kJ/mol
# Density = 2.075315 g / cm^3
# Si number density = 20.800495 Si / 1000 Ang^3
#
#
#
# Elastic Constant Matrix: (Units=GPa)
#
#
# Indices 1 2 3 4 5 6 
#
# 1 92.9329 60.4484 20.4699 0.0000 0.0000 0.0000
# 2 60.4484 92.9329 20.4699 0.0000 0.0000 0.0000
# 3 20.4699 20.4699 81.2907 0.0000 0.0000 0.0000
# 4 0.0000 0.0000 0.0000 26.6060 0.0000 0.0000
# 5 0.0000 0.0000 0.0000 0.0000 26.6060 0.0000
# 6 0.0000 0.0000 0.0000 0.0000 0.0000 9.7889
#
#
#
# Elastic Compliance Matrix: (Units=1/GPa)
#
#
# Indices 1 2 3 4 5 6 
#
# 1 0.018887 -0.011897 -0.001760 0.000000 0.000000 0.000000
# 2 -0.011897 0.018887 -0.001760 0.000000 0.000000 0.000000
# 3 -0.001760 -0.001760 0.013188 0.000000 0.000000 0.000000
# 4 0.000000 0.000000 0.000000 0.037586 0.000000 0.000000
# 5 0.000000 0.000000 0.000000 0.000000 0.037586 0.000000
# 6 0.000000 0.000000 0.000000 0.000000 0.000000 0.102157
#
#
# Mechanical properties :
#
#
# Convention : Reuss Voigt Hill
#
# Bulk Modulus (GPa) = 49.68508 52.21477 50.94993
# Shear Modulus (GPa) = 18.80885 23.65139 21.23012
#
# Velocity S-wave (km/s) = 3.01034 3.37569 3.19823
# Velocity P-wave (km/s) = 6.00177 6.35223 6.17948
#
# Compressibility (1/GPa) = 0.02012676
#
# Stress axis : x y z
#
# Youngs Moduli (GPa) = 52.94738 52.94738 75.82694
#
# Poissons Ratio (x) = 0.62993 0.13346
# Poissons Ratio (y) = 0.62993 0.13346
# Poissons Ratio (z) = 0.09319 0.09319
#
# Static dielectric constant tensor:
#      x y z
#    x 1.756260 0.000000 0.000000 
#    y 0.000000 1.756260 0.000000 
#    z 0.000000 0.000000 1.806540 
# 
# From -- ./inp_files/7921.got.cif
#   From: 2010.05.17/outbox.cif.g08.bks.cpg/sg138_4_cif.got.tgz:7921.got - 2010.05.20 13:08:53.
