data_PCOD9571690
_publ_section_title
;
Structure prediction by ZEFSAII (Michael W. Deem and Ramdas Pophale) SiO2 
 PCOD9571690
Probable space group: I 4/M M M
;
_chemical_formula_sum "Si O2"
_cell_formula_units_Z 80
_cell_length_a 16.700845
_cell_length_b 16.700845
_cell_length_c 15.603436
_cell_angle_alpha 90.000000
_cell_angle_beta 90.000000
_cell_angle_gamma 90.000000
_cell_volume 4352.082653
_symmetry_space_group_name_H-M "I 4/M M M"
_symmetry_group_IT_number 139
_symmetry_cell_setting 'tetragonal'
loop_
_space_group_symop_operation_xyz
x,y,z
-y,x,z
-x,-y,z
y,-x,z
x,-y,-z
-x,y,-z
y,x,-z
-y,-x,-z
-x,-y,-z
y,-x,-z
x,y,-z
-y,x,-z
-x,y,z
x,-y,z
-y,-x,z
y,x,z
1/2+x,1/2+y,1/2+z
1/2-y,1/2+x,1/2+z
1/2-x,1/2-y,1/2+z
1/2+y,1/2-x,1/2+z
1/2+x,1/2-y,1/2-z
1/2-x,1/2+y,1/2-z
1/2+y,1/2+x,1/2-z
1/2-y,1/2-x,1/2-z
1/2-x,1/2-y,1/2-z
1/2+y,1/2-x,1/2-z
1/2+x,1/2+y,1/2-z
1/2-y,1/2+x,1/2-z
1/2-x,1/2+y,1/2+z
1/2+x,1/2-y,1/2+z
1/2-y,1/2-x,1/2+z
1/2+y,1/2+x,1/2+z
loop_
_atom_site_type_symbol
_atom_site_label
_atom_site_fract_x
_atom_site_fract_y
_atom_site_fract_z
Si Si1 0.178906 0.405890 0.171119
Si Si2 0.401923 0.907064 0.000000
Si Si3 0.818748 0.818748 0.260133
Si Si4 0.403913 0.596088 0.399748
O O1 0.167975 0.500000 0.171049
O O2 0.130334 0.369667 0.250000
O O3 0.140159 0.373610 0.083830
O O4 0.271554 0.385224 0.186218
O O5 0.500000 0.907013 0.000000
O O6 0.376809 0.000000 0.000000
O O7 0.750000 0.750000 0.250000
O O8 0.854095 0.854095 0.171443
O O9 0.390206 0.500000 0.388438
O O10 0.384727 0.615274 0.500000
#
# Coordination Sequence:
#
# PCOD9571690 Si02
#       4
#    32  16  16  16
#     4  10  20  35  54  78 108 145 189 238 291 347
#     4   9  18  33  54  78 103 136 182 233 281 331
#     4  10  21  36  50  78 118 155 184 229 296 364
#     4   9  18  36  64  92 116 149 200 258 306 355
#
# _framework density 18.382004999999999
#
# number of rings (size 3 to 8) (size 9 to 14) (size 15 to 20)
#    0.000    2.400    0.000    3.000    0.000    2.800 
#   14.400    0.000    0.000    0.000    0.000    0.000 
#    0.000   12.800    0.000    0.000    0.000    0.000 
#
# Total GULP energy -222893.293432 kJ/mol
# GULP energy per Si atom -5572.332336 kJ/mol
# Density = 1.834017 g / cm^3
# Si number density = 18.382005 Si / 1000 Ang^3
#
#
#
# Elastic Constant Matrix: (Units=GPa)
#
#
# Indices 1 2 3 4 5 6 
#
# 1 82.6753 21.2414 67.8044 0.0000 0.0000 0.0000
# 2 21.2414 82.6724 67.8059 0.0000 0.0000 0.0000
# 3 67.8044 67.8059 198.0530 0.0000 0.0000 0.0000
# 4 0.0000 0.0000 0.0000 27.9014 0.0000 0.0000
# 5 0.0000 0.0000 0.0000 0.0000 27.9008 0.0000
# 6 0.0000 0.0000 0.0000 0.0000 0.0000 26.0054
#
#
#
# Elastic Compliance Matrix: (Units=1/GPa)
#
#
# Indices 1 2 3 4 5 6 
#
# 1 0.016836 0.000558 -0.005955 0.000000 0.000000 0.000000
# 2 0.000558 0.016837 -0.005956 0.000000 0.000000 0.000000
# 3 -0.005955 -0.005956 0.009127 0.000000 0.000000 0.000000
# 4 0.000000 0.000000 0.000000 0.035840 0.000000 0.000000
# 5 0.000000 0.000000 0.000000 0.000000 0.035841 0.000000
# 6 0.000000 0.000000 0.000000 0.000000 0.000000 0.038454
#
#
# Mechanical properties :
#
#
# Convention : Reuss Voigt Hill
#
# Bulk Modulus (GPa) = 49.76231 75.23377 62.49804
# Shear Modulus (GPa) = 27.42160 30.13145 28.77653
#
# Velocity S-wave (km/s) = 3.86653 4.05307 3.96090
# Velocity P-wave (km/s) = 6.86027 7.93221 7.41564
#
# Compressibility (1/GPa) = 0.02009553
#
# Stress axis : x y z
#
# Youngs Moduli (GPa) = 59.39673 59.39283 109.56671
#
# Poissons Ratio (x) = -0.03317 0.65248
# Poissons Ratio (y) = -0.03317 0.65253
# Poissons Ratio (z) = 0.35371 0.35372
#
# Static dielectric constant tensor:
#      x y z
#    x 1.844620 0.000000 0.000000 
#    y 0.000000 1.844380 0.000000 
#    z 0.000000 0.000000 1.640760 
# 
# From -- ./inp_files/4767.got.cif
#   From: 2010.05.17/outbox.cif.g08.bks.cpg/sg139_3_cif.got.tgz:4767.got - 2010.05.20 13:14:44.
