data_PCOD9571665
_publ_section_title
;
Structure prediction by ZEFSAII (Michael W. Deem and Ramdas Pophale) SiO2 
 PCOD9571665
Probable space group: I 4/M M M
;
_chemical_formula_sum "Si O2"
_cell_formula_units_Z 112
_cell_length_a 15.790657
_cell_length_b 15.790657
_cell_length_c 22.987539
_cell_angle_alpha 90.000000
_cell_angle_beta 90.000000
_cell_angle_gamma 90.000000
_cell_volume 5731.824429
_symmetry_space_group_name_H-M "I 4/M M M"
_symmetry_group_IT_number 139
_symmetry_cell_setting 'tetragonal'
loop_
_space_group_symop_operation_xyz
x,y,z
-y,x,z
-x,-y,z
y,-x,z
x,-y,-z
-x,y,-z
y,x,-z
-y,-x,-z
-x,-y,-z
y,-x,-z
x,y,-z
-y,x,-z
-x,y,z
x,-y,z
-y,-x,z
y,x,z
1/2+x,1/2+y,1/2+z
1/2-y,1/2+x,1/2+z
1/2-x,1/2-y,1/2+z
1/2+y,1/2-x,1/2+z
1/2+x,1/2-y,1/2-z
1/2-x,1/2+y,1/2-z
1/2+y,1/2+x,1/2-z
1/2-y,1/2-x,1/2-z
1/2-x,1/2-y,1/2-z
1/2+y,1/2-x,1/2-z
1/2+x,1/2+y,1/2-z
1/2-y,1/2+x,1/2-z
1/2-x,1/2+y,1/2+z
1/2+x,1/2-y,1/2+z
1/2-y,1/2-x,1/2+z
1/2+y,1/2+x,1/2+z
loop_
_atom_site_type_symbol
_atom_site_label
_atom_site_fract_x
_atom_site_fract_y
_atom_site_fract_z
Si Si1 0.405024 0.268896 0.319575
Si Si2 0.406722 0.729269 0.929493
Si Si3 0.825209 0.405454 0.432007
Si Si4 0.095680 0.404321 0.750000
O O1 0.500000 0.298847 0.305074
O O2 0.332853 0.332853 0.299569
O O3 0.399350 0.253915 0.388865
O O4 0.396173 0.174422 0.293540
O O5 0.500000 0.706282 0.907663
O O6 0.332847 0.667154 0.907745
O O7 0.385681 0.826966 0.917593
O O8 0.407953 0.721697 0.000000
O O9 0.802406 0.397461 0.500000
O O10 0.862545 0.500000 0.423572
O O11 0.101645 0.500000 0.775491
#
# Coordination Sequence:
#
# PCOD9571665 Si02
#       4
#    32  32  32  16
#     4  10  20  34  54  78 105 138 172 209 254 304
#     4   9  17  28  42  62  90 124 161 201 244 292
#     4   9  18  32  50  73 101 134 172 213 257 301
#     4   9  19  36  56  78 103 131 168 214 262 309
#
# _framework density 19.540026000000001
#
# number of rings (size 3 to 8) (size 9 to 14) (size 15 to 20)
#    0.000    2.714    0.000    1.286    0.000    4.000 
#    0.000    7.143    0.000    0.000    0.000    4.000 
#    0.000    6.857    0.000    0.286    0.000    0.000 
#
# Total GULP energy -311937.794393 kJ/mol
# GULP energy per Si atom -5570.317757 kJ/mol
# Density = 1.949555 g / cm^3
# Si number density = 19.540026 Si / 1000 Ang^3
#
#
#
# Elastic Constant Matrix: (Units=GPa)
#
#
# Indices 1 2 3 4 5 6 
#
# 1 127.3625 101.7394 25.2602 0.0000 0.0000 0.0000
# 2 101.7394 127.3634 25.2599 0.0000 0.0000 0.0000
# 3 25.2602 25.2599 25.6925 0.0000 0.0000 0.0000
# 4 0.0000 0.0000 0.0000 13.1449 0.0000 0.0000
# 5 0.0000 0.0000 0.0000 0.0000 13.1451 0.0000
# 6 0.0000 0.0000 0.0000 0.0000 0.0000 18.5305
#
#
#
# Elastic Compliance Matrix: (Units=1/GPa)
#
#
# Indices 1 2 3 4 5 6 
#
# 1 0.022300 -0.016727 -0.005480 0.000000 0.000000 0.000000
# 2 -0.016727 0.022300 -0.005479 0.000000 0.000000 0.000000
# 3 -0.005480 -0.005479 0.049696 0.000000 0.000000 0.000000
# 4 0.000000 0.000000 0.000000 0.076075 0.000000 0.000000
# 5 0.000000 0.000000 0.000000 0.000000 0.076074 0.000000
# 6 0.000000 0.000000 0.000000 0.000000 0.000000 0.053965
#
#
# Mechanical properties :
#
#
# Convention : Reuss Voigt Hill
#
# Bulk Modulus (GPa) = 25.69043 64.99305 45.34174
# Shear Modulus (GPa) = 13.55913 17.50804 15.53359
#
# Velocity S-wave (km/s) = 2.63709 2.99659 2.82257
# Velocity P-wave (km/s) = 4.73798 6.73101 5.82043
#
# Compressibility (1/GPa) = 0.03892500
#
# Stress axis : x y z
#
# Youngs Moduli (GPa) = 44.84297 44.84370 20.12234
#
# Poissons Ratio (x) = 0.75009 0.11027
# Poissons Ratio (y) = 0.75008 0.11025
# Poissons Ratio (z) = 0.24573 0.24569
#
# Static dielectric constant tensor:
#      x y z
#    x 1.688290 0.000000 0.000000 
#    y 0.000000 1.688280 0.000000 
#    z 0.000000 0.000000 1.717260 
# 
# From -- ./inp_files/11038.got.cif
#   From: 2010.05.17/outbox.cif.g08.bks.cpg/sg139_6_cif.got.tgz:11038.got - 2010.05.20 13:14:44.
