data_PCOD9571748
_publ_section_title
;
Structure prediction by ZEFSAII (Michael W. Deem and Ramdas Pophale) SiO2 
 PCOD9571748
Probable space group: I 4/M M M
;
_chemical_formula_sum "Si O2"
_cell_formula_units_Z 160
_cell_length_a 30.773103
_cell_length_b 30.773103
_cell_length_c 8.204445
_cell_angle_alpha 90.000000
_cell_angle_beta 90.000000
_cell_angle_gamma 90.000000
_cell_volume 7769.477063
_symmetry_space_group_name_H-M "I 4/M M M"
_symmetry_group_IT_number 139
_symmetry_cell_setting 'tetragonal'
loop_
_space_group_symop_operation_xyz
x,y,z
-y,x,z
-x,-y,z
y,-x,z
x,-y,-z
-x,y,-z
y,x,-z
-y,-x,-z
-x,-y,-z
y,-x,-z
x,y,-z
-y,x,-z
-x,y,z
x,-y,z
-y,-x,z
y,x,z
1/2+x,1/2+y,1/2+z
1/2-y,1/2+x,1/2+z
1/2-x,1/2-y,1/2+z
1/2+y,1/2-x,1/2+z
1/2+x,1/2-y,1/2-z
1/2-x,1/2+y,1/2-z
1/2+y,1/2+x,1/2-z
1/2-y,1/2-x,1/2-z
1/2-x,1/2-y,1/2-z
1/2+y,1/2-x,1/2-z
1/2+x,1/2+y,1/2-z
1/2-y,1/2+x,1/2-z
1/2-x,1/2+y,1/2+z
1/2+x,1/2-y,1/2+z
1/2-y,1/2-x,1/2+z
1/2+y,1/2+x,1/2+z
loop_
_atom_site_type_symbol
_atom_site_label
_atom_site_fract_x
_atom_site_fract_y
_atom_site_fract_z
Si Si1 0.331085 0.764159 0.312098
Si Si2 0.886849 0.113152 0.180391
Si Si3 0.172824 0.827177 0.324319
Si Si4 0.380800 0.951841 0.696343
Si Si5 0.714151 0.079982 0.695289
Si Si6 0.949143 0.811439 0.195502
O O1 0.326227 0.751609 0.500000
O O2 0.290155 0.790155 0.250000
O O3 0.336015 0.723002 0.196624
O O4 0.374284 0.791547 0.285840
O O5 0.850070 0.149931 0.175331
O O6 0.855670 0.075452 0.255989
O O7 0.901333 0.098668 0.000000
O O8 0.157144 0.842857 0.500000
O O9 0.381810 0.951651 0.500000
O O10 0.412674 0.912674 0.750000
O O11 0.329445 0.946405 0.740938
O O12 0.395261 0.000000 0.753604
O O13 0.713568 0.085297 0.500000
O O14 0.763113 0.063625 0.740449
O O15 0.000000 0.816779 0.226144
O O16 0.941084 0.810289 0.000000
#
# Coordination Sequence:
#
# PCOD9571748 Si02
#       6
#    32  16  16  32  32  32
#     4  12  24  38  55  80 117 160 203 247 293 347
#     4  10  20  37  59  85 122 160 198 247 298 354
#     4  12  23  37  56  82 114 155 202 245 292 345
#     4  10  23  42  62  86 116 150 191 244 303 359
#     4  11  22  38  60  87 119 155 196 245 299 356
#     4  10  21  37  60  89 121 160 202 245 298 356
#
# _framework density 20.593406000000002
#
# number of rings (size 3 to 8) (size 9 to 14) (size 15 to 20)
#    0.000    1.200    2.000    4.800    0.000    5.000 
#    0.000    1.000    0.000    0.300    0.000    2.100 
#    0.000    0.000    0.000    2.700    0.000    3.000 
#
# Total GULP energy -445737.636116 kJ/mol
# GULP energy per Si atom -5571.720451 kJ/mol
# Density = 2.054653 g / cm^3
# Si number density = 20.593406 Si / 1000 Ang^3
#
#
#
# Elastic Constant Matrix: (Units=GPa)
#
#
# Indices 1 2 3 4 5 6 
#
# 1 78.4682 79.0194 18.2560 0.0000 0.0000 0.0000
# 2 79.0194 78.4697 18.2566 0.0000 0.0000 0.0000
# 3 18.2560 18.2566 64.4234 0.0000 0.0000 0.0000
# 4 0.0000 0.0000 0.0000 19.4878 0.0000 0.0000
# 5 0.0000 0.0000 0.0000 0.0000 19.4877 0.0000
# 6 0.0000 0.0000 0.0000 0.0000 0.0000 29.6308
#
#
#
# Elastic Compliance Matrix: (Units=1/GPa)
#
#
# Indices 1 2 3 4 5 6 
#
# 1 -0.904994 0.911782 -0.001932 0.000000 0.000000 0.000000
# 2 0.911782 -0.904978 -0.001919 0.000000 0.000000 0.000000
# 3 -0.001932 -0.001919 0.016614 0.000000 0.000000 0.000000
# 4 0.000000 0.000000 0.000000 0.051314 0.000000 0.000000
# 5 0.000000 0.000000 0.000000 0.000000 0.051314 0.000000
# 6 0.000000 0.000000 0.000000 0.000000 0.000000 0.033749
#
#
# Mechanical properties :
#
#
# Convention : Reuss Voigt Hill
#
# Bulk Modulus (GPa) = 44.43931 50.26946 47.35438
# Shear Modulus (GPa) = -1.44286 20.77657 9.66685
#
# Velocity S-wave (km/s) = -0.83795 3.17976 2.16895
# Velocity P-wave (km/s) = 4.54863 6.15992 5.41455
#
# Compressibility (1/GPa) = 0.02250260
#
# Stress axis : x y z
#
# Youngs Moduli (GPa) = -1.10498 -1.10500 60.19084
#
# Poissons Ratio (x) = 1.00752 0.11632
# Poissons Ratio (y) = 1.00750 0.11553
# Poissons Ratio (z) = -0.00214 -0.00212
#
# Static dielectric constant tensor:
#      x y z
#    x 1.780020 0.000000 0.000000 
#    y 0.000000 1.780020 0.000000 
#    z 0.000000 0.000000 1.727360 
# 
# From -- ./inp_files/2161.got.cif
#   From: 2010.05.17/outbox.cif.g08.bks.cpg/sg139_2_cif.got.tgz:2161.got - 2010.05.20 13:14:44.
