data_PCOD9571451
_publ_section_title
;
Structure prediction by ZEFSAII (Michael W. Deem and Ramdas Pophale) SiO2 
 PCOD9571451
Probable space group: I 4/M M M
;
_chemical_formula_sum "Si O2"
_cell_formula_units_Z 240
_cell_length_a 20.580785
_cell_length_b 20.580785
_cell_length_c 32.679266
_cell_angle_alpha 90.000000
_cell_angle_beta 90.000000
_cell_angle_gamma 90.000000
_cell_volume 13841.914583
_symmetry_space_group_name_H-M "I 4/M M M"
_symmetry_group_IT_number 139
_symmetry_cell_setting 'tetragonal'
loop_
_space_group_symop_operation_xyz
x,y,z
-y,x,z
-x,-y,z
y,-x,z
x,-y,-z
-x,y,-z
y,x,-z
-y,-x,-z
-x,-y,-z
y,-x,-z
x,y,-z
-y,x,-z
-x,y,z
x,-y,z
-y,-x,z
y,x,z
1/2+x,1/2+y,1/2+z
1/2-y,1/2+x,1/2+z
1/2-x,1/2-y,1/2+z
1/2+y,1/2-x,1/2+z
1/2+x,1/2-y,1/2-z
1/2-x,1/2+y,1/2-z
1/2+y,1/2+x,1/2-z
1/2-y,1/2-x,1/2-z
1/2-x,1/2-y,1/2-z
1/2+y,1/2-x,1/2-z
1/2+x,1/2+y,1/2-z
1/2-y,1/2+x,1/2-z
1/2-x,1/2+y,1/2+z
1/2+x,1/2-y,1/2+z
1/2-y,1/2-x,1/2+z
1/2+y,1/2+x,1/2+z
loop_
_atom_site_type_symbol
_atom_site_label
_atom_site_fract_x
_atom_site_fract_y
_atom_site_fract_z
Si Si1 0.572088 0.316540 0.500000
Si Si2 0.815213 0.576683 0.256147
Si Si3 0.761064 0.133045 0.319577
Si Si4 0.930350 0.576397 0.049414
Si Si5 0.238646 0.651923 0.666257
Si Si6 0.923591 0.817402 0.598429
Si Si7 0.643216 0.202346 0.049069
Si Si8 0.734574 0.631283 0.421906
O O1 0.500000 0.344766 0.500000
O O2 0.628202 0.371799 0.500000
O O3 0.581973 0.272523 0.459465
O O4 0.826811 0.500000 0.260048
O O5 0.881053 0.618948 0.250000
O O6 0.770089 0.592396 0.216984
O O7 0.778666 0.606627 0.295617
O O8 0.817672 0.182328 0.304732
O O9 0.704320 0.180006 0.337147
O O10 0.790351 0.090135 0.355915
O O11 0.929071 0.500000 0.058614
O O12 0.863574 0.607178 0.063628
O O13 0.000000 0.603279 0.064293
O O14 0.930408 0.582815 0.000000
O O15 0.303220 0.696781 0.672437
O O16 0.244386 0.612774 0.623730
O O17 0.884977 0.884977 0.594254
O O18 0.889251 0.765026 0.568818
O O19 0.000000 0.822249 0.590449
O O20 0.715813 0.186741 0.062964
O O21 0.640142 0.207159 0.000000
O O22 0.664624 0.664624 0.416981
#
# Coordination Sequence:
#
# PCOD9571451 Si02
#       8
#    16  32  32  32  32  32  32  32
#     4  10  22  37  54  78 109 149 188 224 270 320
#     4  10  20  33  52  78 109 144 178 209 248 307
#     4   9  17  33  57  81 103 129 170 221 271 321
#     4   8  15  28  44  64  93 126 161 202 245 295
#     4   9  17  32  55  81 106 132 167 220 277 317
#     4  11  23  37  55  78 105 140 183 231 281 332
#     4  11  20  32  53  78 102 137 175 219 271 334
#     4  10  19  33  52  77 107 133 167 222 273 313
#
# _framework density 17.338642
#
# number of rings (size 3 to 8) (size 9 to 14) (size 15 to 20)
#    0.000    2.267    2.000    2.000    0.000    4.600 
#    0.000    0.000    0.000    0.000    0.000    0.933 
#    0.000    2.400    0.000    0.533    0.000    0.000 
#
# Total GULP energy -668689.469222 kJ/mol
# GULP energy per Si atom -5572.412244 kJ/mol
# Density = 1.729918 g / cm^3
# Si number density = 17.338642 Si / 1000 Ang^3
#
#
#
# Elastic Constant Matrix: (Units=GPa)
#
#
# Indices 1 2 3 4 5 6 
#
# 1 57.9228 39.5470 35.0719 0.0000 0.0000 0.0000
# 2 39.5470 57.9333 35.0746 0.0000 0.0000 0.0000
# 3 35.0719 35.0746 98.3598 0.0000 0.0000 0.0000
# 4 0.0000 0.0000 0.0000 8.8310 0.0000 0.0000
# 5 0.0000 0.0000 0.0000 0.0000 8.8307 0.0000
# 6 0.0000 0.0000 0.0000 0.0000 0.0000 12.5806
#
#
#
# Elastic Compliance Matrix: (Units=1/GPa)
#
#
# Indices 1 2 3 4 5 6 
#
# 1 0.034105 -0.020302 -0.004921 0.000000 0.000000 0.000000
# 2 -0.020302 0.034099 -0.004921 0.000000 0.000000 0.000000
# 3 -0.004921 -0.004921 0.013676 0.000000 0.000000 0.000000
# 4 0.000000 0.000000 0.000000 0.113238 0.000000 0.000000
# 5 0.000000 0.000000 0.000000 0.000000 0.113241 0.000000
# 6 0.000000 0.000000 0.000000 0.000000 0.000000 0.079487
#
#
# Mechanical properties :
#
#
# Convention : Reuss Voigt Hill
#
# Bulk Modulus (GPa) = 46.31114 48.17810 47.24462
# Shear Modulus (GPa) = 10.98101 13.01662 11.99881
#
# Velocity S-wave (km/s) = 2.51933 2.74292 2.63349
# Velocity P-wave (km/s) = 5.93552 6.15454 6.04602
#
# Compressibility (1/GPa) = 0.02159308
#
# Stress axis : x y z
#
# Youngs Moduli (GPa) = 29.32102 29.32652 73.11986
#
# Poissons Ratio (x) = 0.59538 0.35985
# Poissons Ratio (y) = 0.59527 0.35979
# Poissons Ratio (z) = 0.14430 0.14430
#
# Static dielectric constant tensor:
#      x y z
#    x 1.588760 0.000000 0.000000 
#    y 0.000000 1.588750 0.000000 
#    z 0.000000 0.000000 1.601730 
# 
# From -- ./inp_files/14666.got.cif
#   From: 2010.05.17/outbox.cif.g08.bks.cpg/sg139_8_cif.got.tgz:14666.got - 2010.05.20 13:14:44.
