data_PCOD9571954
_publ_section_title
;
Structure prediction by ZEFSAII (Michael W. Deem and Ramdas Pophale) SiO2 
 PCOD9571954
Probable space group: I 4/M M M
;
_chemical_formula_sum "Si O2"
_cell_formula_units_Z 80
_cell_length_a 15.934165
_cell_length_b 15.934165
_cell_length_c 16.687226
_cell_angle_alpha 90.000000
_cell_angle_beta 90.000000
_cell_angle_gamma 90.000000
_cell_volume 4236.846870
_symmetry_space_group_name_H-M "I 4/M M M"
_symmetry_group_IT_number 139
_symmetry_cell_setting 'tetragonal'
loop_
_space_group_symop_operation_xyz
x,y,z
-y,x,z
-x,-y,z
y,-x,z
x,-y,-z
-x,y,-z
y,x,-z
-y,-x,-z
-x,-y,-z
y,-x,-z
x,y,-z
-y,x,-z
-x,y,z
x,-y,z
-y,-x,z
y,x,z
1/2+x,1/2+y,1/2+z
1/2-y,1/2+x,1/2+z
1/2-x,1/2-y,1/2+z
1/2+y,1/2-x,1/2+z
1/2+x,1/2-y,1/2-z
1/2-x,1/2+y,1/2-z
1/2+y,1/2+x,1/2-z
1/2-y,1/2-x,1/2-z
1/2-x,1/2-y,1/2-z
1/2+y,1/2-x,1/2-z
1/2+x,1/2+y,1/2-z
1/2-y,1/2+x,1/2-z
1/2-x,1/2+y,1/2+z
1/2+x,1/2-y,1/2+z
1/2-y,1/2-x,1/2+z
1/2+y,1/2+x,1/2+z
loop_
_atom_site_type_symbol
_atom_site_label
_atom_site_fract_x
_atom_site_fract_y
_atom_site_fract_z
Si Si1 0.635840 0.000000 0.587359
Si Si2 0.902293 0.097708 0.905123
Si Si3 0.000000 0.353095 0.912068
Si Si4 0.500000 0.752925 0.244387
Si Si5 0.179597 0.820404 0.768202
O O1 0.578373 0.083253 0.588973
O O2 0.685423 0.000000 0.669163
O O3 0.680225 0.000000 0.500000
O O4 0.839065 0.160935 0.862146
O O5 0.000000 0.114076 0.882680
O O6 0.896265 0.103736 0.000000
O O7 0.000000 0.298838 0.831457
O O8 0.000000 0.308435 0.000000
O O9 0.587980 0.704707 0.236963
O O10 0.250000 0.750000 0.750000
#
# Coordination Sequence:
#
# PCOD9571954 Si02
#       5
#    16  16  16  16  16
#     4   9  18  36  61  87 115 158 210 263 316 375
#     4   9  18  38  67  97 130 168 207 261 331 392
#     4   9  18  34  61  91 120 155 197 254 336 393
#     4  12  24  40  58  85 130 164 208 263 309 372
#     4  12  25  39  62  94 123 170 216 248 321 382
#
# _framework density 18.881965000000001
#
# number of rings (size 3 to 8) (size 9 to 14) (size 15 to 20)
#    0.000    1.800    2.000    5.400    0.000    3.600 
#    0.000    3.000    0.000    0.000    0.000    1.400 
#    0.000    0.000    0.000    0.000    0.000    0.000 
#
# Total GULP energy -223036.193847 kJ/mol
# GULP energy per Si atom -5575.904846 kJ/mol
# Density = 1.883899 g / cm^3
# Si number density = 18.881965 Si / 1000 Ang^3
#
#
#
# Elastic Constant Matrix: (Units=GPa)
#
#
# Indices 1 2 3 4 5 6 
#
# 1 116.2736 64.1503 62.4324 0.0000 0.0000 0.0000
# 2 64.1503 116.2737 62.4326 0.0000 0.0000 0.0000
# 3 62.4324 62.4326 152.9445 0.0000 0.0000 0.0000
# 4 0.0000 0.0000 0.0000 22.0765 0.0000 0.0000
# 5 0.0000 0.0000 0.0000 0.0000 22.0770 0.0000
# 6 0.0000 0.0000 0.0000 0.0000 0.0000 -2.8883
#
#
#
# Elastic Compliance Matrix: (Units=1/GPa)
#
#
# Indices 1 2 3 4 5 6 
#
# 1 0.013455 -0.005730 -0.003153 0.000000 0.000000 0.000000
# 2 -0.005730 0.013455 -0.003153 0.000000 0.000000 0.000000
# 3 -0.003153 -0.003153 0.009113 0.000000 0.000000 0.000000
# 4 0.000000 0.000000 0.000000 0.045297 0.000000 0.000000
# 5 0.000000 0.000000 0.000000 0.000000 0.045296 0.000000
# 6 0.000000 0.000000 0.000000 0.000000 0.000000 -0.346229
#
#
# Mechanical properties :
#
#
# Convention : Reuss Voigt Hill
#
# Bulk Modulus (GPa) = 83.68829 84.83585 84.26207
# Shear Modulus (GPa) = -26.10192 21.35148 -2.37522
#
# Velocity S-wave (km/s) = -3.72206 3.36637 -1.12279
# Velocity P-wave (km/s) = 5.09376 7.75480 6.56062
#
# Compressibility (1/GPa) = 0.01194910
#
# Stress axis : x y z
#
# Youngs Moduli (GPa) = 74.32169 74.32166 109.73719
#
# Poissons Ratio (x) = 0.42588 0.34603
# Poissons Ratio (y) = 0.42588 0.34603
# Poissons Ratio (z) = 0.23436 0.23436
#
# Static dielectric constant tensor:
#      x y z
#    x 1.696290 0.000000 0.000000 
#    y 0.000000 1.696290 0.000000 
#    z 0.000000 0.000000 1.680750 
# 
# From -- ./inp_files/4801.got.cif
#   From: 2010.05.17/outbox.cif.g08.bks.cpg/sg139_3_cif.got.tgz:4801.got - 2010.05.20 13:14:44.
