data_PCOD9571746
_publ_section_title
;
Structure prediction by ZEFSAII (Michael W. Deem and Ramdas Pophale) SiO2 
 PCOD9571746
Probable space group: I 4/M M M
;
_chemical_formula_sum "Si O2"
_cell_formula_units_Z 160
_cell_length_a 23.578477
_cell_length_b 23.578477
_cell_length_c 16.062771
_cell_angle_alpha 90.000000
_cell_angle_beta 90.000000
_cell_angle_gamma 90.000000
_cell_volume 8930.010439
_symmetry_space_group_name_H-M "I 4/M M M"
_symmetry_group_IT_number 139
_symmetry_cell_setting 'tetragonal'
loop_
_space_group_symop_operation_xyz
x,y,z
-y,x,z
-x,-y,z
y,-x,z
x,-y,-z
-x,y,-z
y,x,-z
-y,-x,-z
-x,-y,-z
y,-x,-z
x,y,-z
-y,x,-z
-x,y,z
x,-y,z
-y,-x,z
y,x,z
1/2+x,1/2+y,1/2+z
1/2-y,1/2+x,1/2+z
1/2-x,1/2-y,1/2+z
1/2+y,1/2-x,1/2+z
1/2+x,1/2-y,1/2-z
1/2-x,1/2+y,1/2-z
1/2+y,1/2+x,1/2-z
1/2-y,1/2-x,1/2-z
1/2-x,1/2-y,1/2-z
1/2+y,1/2-x,1/2-z
1/2+x,1/2+y,1/2-z
1/2-y,1/2+x,1/2-z
1/2-x,1/2+y,1/2+z
1/2+x,1/2-y,1/2+z
1/2-y,1/2-x,1/2+z
1/2+y,1/2+x,1/2+z
loop_
_atom_site_type_symbol
_atom_site_label
_atom_site_fract_x
_atom_site_fract_y
_atom_site_fract_z
Si Si1 0.261187 0.065956 0.625948
Si Si2 0.844070 0.935242 0.100157
Si Si3 0.065760 0.500000 0.101221
Si Si4 0.378528 0.882549 0.404174
Si Si5 0.338658 0.566741 0.000000
Si Si6 0.066352 0.275318 0.822352
O O1 0.311506 0.106277 0.595753
O O2 0.202299 0.077418 0.579532
O O3 0.260235 0.071135 0.725233
O O4 0.275899 0.000000 0.605307
O O5 0.891835 0.891835 0.130637
O O6 0.781175 0.917746 0.127366
O O7 0.853497 0.000000 0.129788
O O8 0.846386 0.936010 0.000000
O O9 0.094801 0.441614 0.129073
O O10 0.000000 0.500000 0.124337
O O11 0.070058 0.500000 0.000000
O O12 0.397920 0.873769 0.500000
O O13 0.397562 0.829488 0.349541
O O14 0.354030 0.500000 0.000000
O O15 0.392060 0.607941 0.000000
O O16 0.000000 0.288101 0.840000
#
# Coordination Sequence:
#
# PCOD9571746 Si02
#       6
#    32  32  16  32  16  32
#     4  10  20  37  58  79 110 150 190 230 282 343
#     4   9  18  34  55  80 110 142 177 218 271 335
#     4   9  18  28  46  78 112 147 191 243 285 323
#     4  11  19  32  55  78 111 155 197 241 284 332
#     4  10  22  41  68  94 116 144 182 232 295 361
#     4  10  21  34  53  81 114 152 191 234 282 337
#
# _framework density 17.917110999999998
#
# number of rings (size 3 to 8) (size 9 to 14) (size 15 to 20)
#    0.000    2.100    2.000    1.800    0.000    3.100 
#    0.000    2.000    0.000    2.400    0.000    5.600 
#    0.000    0.000    0.000    0.000    0.000    0.000 
#
# Total GULP energy -446419.654624 kJ/mol
# GULP energy per Si atom -5580.245683 kJ/mol
# Density = 1.787633 g / cm^3
# Si number density = 17.917111 Si / 1000 Ang^3
#
#
#
# Elastic Constant Matrix: (Units=GPa)
#
#
# Indices 1 2 3 4 5 6 
#
# 1 119.7702 97.0759 32.3940 0.0000 0.0000 0.0000
# 2 97.0759 119.7732 32.3947 0.0000 0.0000 0.0000
# 3 32.3940 32.3947 48.8265 0.0000 0.0000 0.0000
# 4 0.0000 0.0000 0.0000 16.2411 0.0000 0.0000
# 5 0.0000 0.0000 0.0000 0.0000 16.2422 0.0000
# 6 0.0000 0.0000 0.0000 0.0000 0.0000 32.6329
#
#
#
# Elastic Compliance Matrix: (Units=1/GPa)
#
#
# Indices 1 2 3 4 5 6 
#
# 1 0.024907 -0.019155 -0.003816 0.000000 0.000000 0.000000
# 2 -0.019155 0.024906 -0.003816 0.000000 0.000000 0.000000
# 3 -0.003816 -0.003816 0.025544 0.000000 0.000000 0.000000
# 4 0.000000 0.000000 0.000000 0.061572 0.000000 0.000000
# 5 0.000000 0.000000 0.000000 0.000000 0.061568 0.000000
# 6 0.000000 0.000000 0.000000 0.000000 0.000000 0.030644
#
#
# Mechanical properties :
#
#
# Convention : Reuss Voigt Hill
#
# Bulk Modulus (GPa) = 45.90622 68.01101 56.95862
# Shear Modulus (GPa) = 17.24285 21.45694 19.34989
#
# Velocity S-wave (km/s) = 3.10557 3.46434 3.28985
# Velocity P-wave (km/s) = 6.20778 7.35142 6.80367
#
# Compressibility (1/GPa) = 0.02178354
#
# Stress axis : x y z
#
# Youngs Moduli (GPa) = 40.14995 40.15078 39.14794
#
# Poissons Ratio (x) = 0.76908 0.14938
# Poissons Ratio (y) = 0.76906 0.14939
# Poissons Ratio (z) = 0.15321 0.15322
#
# Static dielectric constant tensor:
#      x y z
#    x 1.596860 0.000000 0.000000 
#    y 0.000000 1.596860 0.000000 
#    z 0.000000 0.000000 1.640900 
# 
# From -- ./inp_files/8427.got.cif
#   From: 2010.05.17/outbox.cif.g08.bks.cpg/sg139_5_cif.got.tgz:8427.got - 2010.05.20 13:14:44.
