data_PCOD9571005
_publ_section_title
;
Structure prediction by ZEFSAII (Michael W. Deem and Ramdas Pophale) SiO2 
 PCOD9571005
Probable space group: P 42/N C M
;
_chemical_formula_sum "Si O2"
_cell_formula_units_Z 80
_cell_length_a 12.206802
_cell_length_b 12.206802
_cell_length_c 26.307573
_cell_angle_alpha 90.000000
_cell_angle_beta 90.000000
_cell_angle_gamma 90.000000
_cell_volume 3919.986619
_symmetry_space_group_name_H-M "P 42/N C M"
_symmetry_group_IT_number 138
_space_group.IT_coordinate_system_code '2'
_symmetry_cell_setting 'tetragonal'
loop_
_space_group_symop_operation_xyz
x,y,z
1/2-y,x,1/2+z
1/2-x,1/2-y,z
y,1/2-x,1/2+z
1/2+x,-y,1/2-z
-x,1/2+y,1/2-z
1/2+y,1/2+x,-z
-y,-x,-z
-x,-y,-z
1/2+y,-x,1/2-z
1/2+x,1/2+y,-z
-y,1/2+x,1/2-z
1/2-x,y,1/2+z
x,1/2-y,1/2+z
1/2-y,1/2-x,z
y,x,z
loop_
_atom_site_type_symbol
_atom_site_label
_atom_site_fract_x
_atom_site_fract_y
_atom_site_fract_z
Si Si1 0.427990 0.898045 0.295614
Si Si2 0.661510 0.661510 0.515157
Si Si3 0.081762 0.720002 0.137508
Si Si4 0.837933 0.837933 0.638759
Si Si5 0.422051 0.755256 0.518038
Si Si6 0.838530 0.483121 0.811364
O O1 0.318736 0.877112 0.327923
O O2 0.499534 0.788599 0.299625
O O3 0.390515 0.924998 0.238484
O O4 0.497812 0.002189 0.314467
O O5 0.750000 0.750000 0.497916
O O6 0.660321 0.660321 0.577065
O O7 0.540978 0.708104 0.500696
O O8 0.078617 0.756156 0.079200
O O9 0.145795 0.606260 0.144216
O O10 0.958411 0.694441 0.155471
O O11 0.750000 0.750000 0.656186
O O12 0.372908 0.872908 0.500000
O O13 0.334573 0.665428 0.500000
O O14 0.908511 0.591490 0.821717
#
# Coordination Sequence:
#
# PCOD9571005 Si02
#       6
#    16   8  16   8  16  16
#     4  11  24  40  61  93 127 163 203 249 309 374
#     4   9  19  39  63  87 125 157 195 263 319 372
#     4  11  21  39  64  89 122 161 206 255 312 369
#     4   9  18  35  61  93 118 153 203 251 307 358
#     4  10  23  39  62  94 119 161 215 264 311 367
#     4  11  23  40  63  93 124 163 207 249 307 372
#
# _framework density 20.408234
#
# number of rings (size 3 to 8) (size 9 to 14) (size 15 to 20)
#    0.000    1.600    3.000    1.500    5.600    1.600 
#    0.000    0.000    0.000    0.000    0.000    0.000 
#    0.000    0.000    0.000    0.000    0.000    0.000 
#
# Total GULP energy -446568.117543 kJ/mol
# GULP energy per Si atom -5582.101469 kJ/mol
# Density = 2.036178 g / cm^3
# Si number density = 20.408234 Si / 1000 Ang^3
#
#
#
# Elastic Constant Matrix: (Units=GPa)
#
#
# Indices 1 2 3 4 5 6 
#
# 1 88.5540 36.9255 4.2113 0.0000 0.0000 0.0000
# 2 36.9255 88.5540 4.2131 0.0000 0.0000 0.0000
# 3 4.2113 4.2131 42.1945 0.0000 0.0000 0.0000
# 4 0.0000 0.0000 0.0000 22.6973 0.0000 0.0000
# 5 0.0000 0.0000 0.0000 0.0000 22.6966 0.0000
# 6 0.0000 0.0000 0.0000 0.0000 0.0000 32.7025
#
#
#
# Elastic Compliance Matrix: (Units=1/GPa)
#
#
# Indices 1 2 3 4 5 6 
#
# 1 0.013696 -0.005673 -0.000801 0.000000 0.000000 0.000000
# 2 -0.005673 0.013696 -0.000801 0.000000 0.000000 0.000000
# 3 -0.000801 -0.000801 0.023860 0.000000 0.000000 0.000000
# 4 0.000000 0.000000 0.000000 0.044058 0.000000 0.000000
# 5 0.000000 0.000000 0.000000 0.000000 0.044060 0.000000
# 6 0.000000 0.000000 0.000000 0.000000 0.000000 0.030579
#
#
# Mechanical properties :
#
#
# Convention : Reuss Voigt Hill
#
# Bulk Modulus (GPa) = 27.24623 34.44470 30.84547
# Shear Modulus (GPa) = 25.41526 27.21612 26.31569
#
# Velocity S-wave (km/s) = 3.53277 3.65579 3.59481
# Velocity P-wave (km/s) = 5.47907 5.89357 5.69010
#
# Compressibility (1/GPa) = 0.03670233
#
# Stress axis : x y z
#
# Youngs Moduli (GPa) = 73.01319 73.01289 41.91169
#
# Poissons Ratio (x) = 0.41420 0.03355
# Poissons Ratio (y) = 0.41420 0.03359
# Poissons Ratio (z) = 0.05845 0.05851
#
# Static dielectric constant tensor:
#      x y z
#    x 1.735190 0.000000 0.000000 
#    y 0.000000 1.735200 0.000000 
#    z 0.000000 0.000000 1.721870 
# 
# From -- ./inp_files/7936.got.cif
#   From: 2010.05.17/outbox.cif.g08.bks.cpg/sg138_4_cif.got.tgz:7936.got - 2010.05.20 13:08:53.
