data_PCOD9571467
_publ_section_title
;
Structure prediction by ZEFSAII (Michael W. Deem and Ramdas Pophale) SiO2 
 PCOD9571467
Probable space group: I 4/M M M
;
_chemical_formula_sum "Si O2"
_cell_formula_units_Z 240
_cell_length_a 21.308119
_cell_length_b 21.308119
_cell_length_c 28.497383
_cell_angle_alpha 90.000000
_cell_angle_beta 90.000000
_cell_angle_gamma 90.000000
_cell_volume 12938.835945
_symmetry_space_group_name_H-M "I 4/M M M"
_symmetry_group_IT_number 139
_symmetry_cell_setting 'tetragonal'
loop_
_space_group_symop_operation_xyz
x,y,z
-y,x,z
-x,-y,z
y,-x,z
x,-y,-z
-x,y,-z
y,x,-z
-y,-x,-z
-x,-y,-z
y,-x,-z
x,y,-z
-y,x,-z
-x,y,z
x,-y,z
-y,-x,z
y,x,z
1/2+x,1/2+y,1/2+z
1/2-y,1/2+x,1/2+z
1/2-x,1/2-y,1/2+z
1/2+y,1/2-x,1/2+z
1/2+x,1/2-y,1/2-z
1/2-x,1/2+y,1/2-z
1/2+y,1/2+x,1/2-z
1/2-y,1/2-x,1/2-z
1/2-x,1/2-y,1/2-z
1/2+y,1/2-x,1/2-z
1/2+x,1/2+y,1/2-z
1/2-y,1/2+x,1/2-z
1/2-x,1/2+y,1/2+z
1/2+x,1/2-y,1/2+z
1/2-y,1/2-x,1/2+z
1/2+y,1/2+x,1/2+z
loop_
_atom_site_type_symbol
_atom_site_label
_atom_site_fract_x
_atom_site_fract_y
_atom_site_fract_z
Si Si1 0.075761 0.824894 0.804620
Si Si2 0.255339 0.575587 0.210701
Si Si3 0.729351 0.426721 0.596149
Si Si4 0.178961 0.075665 0.387044
Si Si5 0.925968 0.386905 0.301195
Si Si6 0.425036 0.670175 0.500000
Si Si7 0.924715 0.696930 0.446589
Si Si8 0.929946 0.621949 0.897708
O O1 0.107403 0.892598 0.799805
O O2 0.096862 0.782755 0.760418
O O3 0.097636 0.795635 0.854143
O O4 0.000000 0.828019 0.803609
O O5 0.249770 0.500000 0.213964
O O6 0.300647 0.587823 0.166891
O O7 0.184906 0.597999 0.200300
O O8 0.710460 0.500000 0.596609
O O9 0.702408 0.400620 0.547631
O O10 0.803975 0.424758 0.594796
O O11 0.118904 0.118904 0.398613
O O12 0.240530 0.093661 0.417761
O O13 0.167864 0.000000 0.392428
O O14 0.915499 0.415499 0.250000
O O15 0.891955 0.424011 0.342407
O O16 0.000000 0.386889 0.312369
O O17 0.500000 0.674657 0.500000
O O18 0.400610 0.599391 0.500000
O O19 0.900637 0.698678 0.500000
O O20 0.907600 0.630854 0.422426
O O21 0.000000 0.699117 0.447821
O O22 0.000000 0.601227 0.913756
#
# Coordination Sequence:
#
# PCOD9571467 Si02
#       8
#    32  32  32  32  32  16  32  32
#     4  10  19  33  54  79 108 143 185 233 288 350
#     4   9  18  34  55  77 110 156 190 221 283 355
#     4   9  20  36  54  77 107 148 189 229 286 347
#     4  10  20  38  63  89 119 156 196 240 294 354
#     4  11  21  34  55  83 117 153 190 235 286 338
#     4  10  20  37  60  82 109 143 183 237 296 352
#     4  10  22  40  61  86 118 154 191 237 297 354
#     4  11  22  37  60  84 113 154 198 240 282 337
#
# _framework density 18.548808999999999
#
# number of rings (size 3 to 8) (size 9 to 14) (size 15 to 20)
#    0.000    2.000    1.333    2.400    0.933    4.733 
#    0.000    2.000    0.000    6.400    0.000    1.867 
#    0.000    0.000    0.000    0.000    0.000    0.000 
#
# Total GULP energy -668917.203040 kJ/mol
# GULP energy per Si atom -5574.310025 kJ/mol
# Density = 1.850659 g / cm^3
# Si number density = 18.548809 Si / 1000 Ang^3
#
#
#
# Elastic Constant Matrix: (Units=GPa)
#
#
# Indices 1 2 3 4 5 6 
#
# 1 1045.4591 -942.5422 37.0692 0.0000 0.0000 0.0000
# 2 -942.5422 1044.6623 36.6227 0.0000 0.0000 0.0000
# 3 37.0692 36.6227 134.5800 0.0000 0.0000 0.0000
# 4 0.0000 0.0000 0.0000 10.0262 0.0000 0.0000
# 5 0.0000 0.0000 0.0000 0.0000 10.0257 0.0000
# 6 0.0000 0.0000 0.0000 0.0000 0.0000 -53.8251
#
#
#
# Elastic Compliance Matrix: (Units=1/GPa)
#
#
# Indices 1 2 3 4 5 6 
#
# 1 0.006322 0.005821 -0.003325 0.000000 0.000000 0.000000
# 2 0.005821 0.006325 -0.003325 0.000000 0.000000 0.000000
# 3 -0.003325 -0.003325 0.009251 0.000000 0.000000 0.000000
# 4 0.000000 0.000000 0.000000 0.099739 0.000000 0.000000
# 5 0.000000 0.000000 0.000000 0.000000 0.099744 0.000000
# 6 0.000000 0.000000 0.000000 0.000000 0.000000 -0.018579
#
#
# Mechanical properties :
#
#
# Convention : Reuss Voigt Hill
#
# Bulk Modulus (GPa) = 49.40680 54.11120 51.75900
# Shear Modulus (GPa) = 23.67330 199.48214 111.57772
#
# Velocity S-wave (km/s) = 3.57637 10.38161 7.76429
# Velocity P-wave (km/s) = 6.61421 13.15065 10.40883
#
# Compressibility (1/GPa) = 0.02024013
#
# Stress axis : x y z
#
# Youngs Moduli (GPa) = 158.17659 158.09221 108.09463
#
# Poissons Ratio (x) = -0.92019 0.35945
# Poissons Ratio (y) = -0.92069 0.35937
# Poissons Ratio (z) = 0.52599 0.52559
#
# Static dielectric constant tensor:
#      x y z
#    x 1.628600 0.000000 0.000000 
#    y 0.000000 1.628600 0.000000 
#    z 0.000000 0.000000 1.666140 
# 
# From -- ./inp_files/13399.got.cif
#   From: 2010.05.17/outbox.cif.g08.bks.cpg/sg139_7_cif.got.tgz:13399.got - 2010.05.20 13:14:44.
