data_PCOD9571710
_publ_section_title
;
Structure prediction by ZEFSAII (Michael W. Deem and Ramdas Pophale) SiO2 
 PCOD9571710
Probable space group: I 4/M M M
;
_chemical_formula_sum "Si O2"
_cell_formula_units_Z 128
_cell_length_a 20.080380
_cell_length_b 20.080380
_cell_length_c 16.316000
_cell_angle_alpha 90.000000
_cell_angle_beta 90.000000
_cell_angle_gamma 90.000000
_cell_volume 6578.964620
_symmetry_space_group_name_H-M "I 4/M M M"
_symmetry_group_IT_number 139
_symmetry_cell_setting 'tetragonal'
loop_
_space_group_symop_operation_xyz
x,y,z
-y,x,z
-x,-y,z
y,-x,z
x,-y,-z
-x,y,-z
y,x,-z
-y,-x,-z
-x,-y,-z
y,-x,-z
x,y,-z
-y,x,-z
-x,y,z
x,-y,z
-y,-x,z
y,x,z
1/2+x,1/2+y,1/2+z
1/2-y,1/2+x,1/2+z
1/2-x,1/2-y,1/2+z
1/2+y,1/2-x,1/2+z
1/2+x,1/2-y,1/2-z
1/2-x,1/2+y,1/2-z
1/2+y,1/2+x,1/2-z
1/2-y,1/2-x,1/2-z
1/2-x,1/2-y,1/2-z
1/2+y,1/2-x,1/2-z
1/2+x,1/2+y,1/2-z
1/2-y,1/2+x,1/2-z
1/2-x,1/2+y,1/2+z
1/2+x,1/2-y,1/2+z
1/2-y,1/2-x,1/2+z
1/2+y,1/2+x,1/2+z
loop_
_atom_site_type_symbol
_atom_site_label
_atom_site_fract_x
_atom_site_fract_y
_atom_site_fract_z
Si Si1 0.000000 0.576018 0.099371
Si Si2 0.120726 0.327636 0.903647
Si Si3 0.809459 0.922519 0.166729
Si Si4 0.685665 0.426513 0.000000
Si Si5 0.629547 0.258079 0.838312
O O1 0.064203 0.619630 0.121494
O O2 0.000000 0.500000 0.130104
O O3 0.000000 0.572908 0.000000
O O4 0.095440 0.252164 0.892454
O O5 0.184549 0.341654 0.847884
O O6 0.136994 0.337576 0.000000
O O7 0.871160 0.871160 0.156612
O O8 0.777592 0.909999 0.256834
O O9 0.828587 0.000000 0.157690
O O10 0.728268 0.414741 0.918476
O O11 0.657016 0.500000 0.000000
O O12 0.627602 0.372399 0.000000
O O13 0.691939 0.308062 0.841756
#
# Coordination Sequence:
#
# PCOD9571710 Si02
#       5
#    16  32  32  16  32
#     4   9  20  36  56  86 121 158 198 242 302 370
#     4  11  21  39  63  90 124 161 206 254 309 374
#     4  11  24  41  63  90 124 165 211 264 316 368
#     4  10  20  35  56  85 117 153 198 246 302 366
#     4  10  21  38  60  87 117 153 199 250 306 367
#
# _framework density 19.455949
#
# number of rings (size 3 to 8) (size 9 to 14) (size 15 to 20)
#    0.000    1.625    2.500    2.250    0.000    5.875 
#    0.000    0.000    0.000    4.500    0.000    1.750 
#    0.000    0.000    0.000    0.000    0.000    0.000 
#
# Total GULP energy -357419.299521 kJ/mol
# GULP energy per Si atom -5584.676555 kJ/mol
# Density = 1.941167 g / cm^3
# Si number density = 19.455949 Si / 1000 Ang^3
#
#
#
# Elastic Constant Matrix: (Units=GPa)
#
#
# Indices 1 2 3 4 5 6 
#
# 1 125.8784 34.9381 11.0125 0.0000 0.0000 0.0000
# 2 34.9381 125.8806 11.0128 0.0000 0.0000 0.0000
# 3 11.0125 11.0128 40.8528 0.0000 0.0000 0.0000
# 4 0.0000 0.0000 0.0000 15.6895 0.0000 0.0000
# 5 0.0000 0.0000 0.0000 0.0000 15.6901 0.0000
# 6 0.0000 0.0000 0.0000 0.0000 0.0000 -4.0233
#
#
#
# Elastic Compliance Matrix: (Units=1/GPa)
#
#
# Indices 1 2 3 4 5 6 
#
# 1 0.008726 -0.002270 -0.001740 0.000000 0.000000 0.000000
# 2 -0.002270 0.008726 -0.001741 0.000000 0.000000 0.000000
# 3 -0.001740 -0.001741 0.025416 0.000000 0.000000 0.000000
# 4 0.000000 0.000000 0.000000 0.063737 0.000000 0.000000
# 5 0.000000 0.000000 0.000000 0.000000 0.063734 0.000000
# 6 0.000000 0.000000 0.000000 0.000000 0.000000 -0.248550
#
#
# Mechanical properties :
#
#
# Convention : Reuss Voigt Hill
#
# Bulk Modulus (GPa) = 31.87995 45.17096 38.52546
# Shear Modulus (GPa) = -88.88506 21.18115 -33.85195
#
# Velocity S-wave (km/s) = -6.76642 3.30308 -4.17577
# Velocity P-wave (km/s) = 6.68017 6.14936 1.84528
#
# Compressibility (1/GPa) = 0.03136768
#
# Stress axis : x y z
#
# Youngs Moduli (GPa) = 114.59456 114.59645 39.34455
#
# Poissons Ratio (x) = 0.26010 0.06848
# Poissons Ratio (y) = 0.26010 0.06848
# Poissons Ratio (z) = 0.19945 0.19946
#
# Static dielectric constant tensor:
#      x y z
#    x 1.659400 0.000000 0.000000 
#    y 0.000000 1.659400 0.000000 
#    z 0.000000 0.000000 1.706420 
# 
# From -- ./inp_files/5479.got.cif
#   From: 2010.05.17/outbox.cif.g08.bks.cpg/sg139_3_cif.got.tgz:5479.got - 2010.05.20 13:14:44.
