data_PCOD9571822
_publ_section_title
;
Structure prediction by ZEFSAII (Michael W. Deem and Ramdas Pophale) SiO2 
 PCOD9571822
Probable space group: I 4/M M M
;
_chemical_formula_sum "Si O2"
_cell_formula_units_Z 160
_cell_length_a 21.064610
_cell_length_b 21.064610
_cell_length_c 17.977640
_cell_angle_alpha 90.000000
_cell_angle_beta 90.000000
_cell_angle_gamma 90.000000
_cell_volume 7976.998770
_symmetry_space_group_name_H-M "I 4/M M M"
_symmetry_group_IT_number 139
_symmetry_cell_setting 'tetragonal'
loop_
_space_group_symop_operation_xyz
x,y,z
-y,x,z
-x,-y,z
y,-x,z
x,-y,-z
-x,y,-z
y,x,-z
-y,-x,-z
-x,-y,-z
y,-x,-z
x,y,-z
-y,x,-z
-x,y,z
x,-y,z
-y,-x,z
y,x,z
1/2+x,1/2+y,1/2+z
1/2-y,1/2+x,1/2+z
1/2-x,1/2-y,1/2+z
1/2+y,1/2-x,1/2+z
1/2+x,1/2-y,1/2-z
1/2-x,1/2+y,1/2-z
1/2+y,1/2+x,1/2-z
1/2-y,1/2-x,1/2-z
1/2-x,1/2-y,1/2-z
1/2+y,1/2-x,1/2-z
1/2+x,1/2+y,1/2-z
1/2-y,1/2+x,1/2-z
1/2-x,1/2+y,1/2+z
1/2+x,1/2-y,1/2+z
1/2-y,1/2-x,1/2+z
1/2+y,1/2+x,1/2+z
loop_
_atom_site_type_symbol
_atom_site_label
_atom_site_fract_x
_atom_site_fract_y
_atom_site_fract_z
Si Si1 0.799472 0.620632 0.586029
Si Si2 0.752530 0.247471 0.161005
Si Si3 0.845527 0.154474 0.411523
Si Si4 0.075524 0.374918 0.326392
Si Si5 0.226628 0.925619 0.304029
Si Si6 0.824679 0.072502 0.143029
O O1 0.806941 0.637310 0.500000
O O2 0.770454 0.680307 0.630408
O O3 0.868737 0.601990 0.617851
O O4 0.741293 0.572338 0.597475
O O5 0.750000 0.250000 0.250000
O O6 0.704211 0.295790 0.122663
O O7 0.847335 0.152666 0.500000
O O8 0.818380 0.091602 0.373002
O O9 0.087434 0.412567 0.250000
O O10 0.093555 0.300314 0.313433
O O11 0.000000 0.378961 0.347445
O O12 0.195574 0.905283 0.226405
O O13 0.230905 0.000000 0.297466
O O14 0.877486 0.122515 0.115150
O O15 0.849178 0.000000 0.146142
#
# Coordination Sequence:
#
# PCOD9571822 Si02
#       6
#    32  16  16  32  32  32
#     4  12  24  39  63  96 132 168 209 263 327 388
#     4  12  22  36  60  90 125 168 213 263 316 379
#     4  12  22  34  58  93 127 162 207 265 326 379
#     4  11  23  40  64  93 129 172 217 263 312 377
#     4  10  21  37  59  88 123 169 215 258 314 378
#     4  11  23  41  67  95 127 168 217 267 319 381
#
# _framework density 20.057670000000002
#
# number of rings (size 3 to 8) (size 9 to 14) (size 15 to 20)
#    0.000    0.800    6.000    2.700    0.000    1.600 
#    0.000    2.000    0.000    0.300    0.000    4.900 
#    0.000    0.000    0.000    0.000    0.000    0.000 
#
# Total GULP energy -446115.549423 kJ/mol
# GULP energy per Si atom -5576.444368 kJ/mol
# Density = 2.001202 g / cm^3
# Si number density = 20.057670 Si / 1000 Ang^3
#
#
#
# Elastic Constant Matrix: (Units=GPa)
#
#
# Indices 1 2 3 4 5 6 
#
# 1 -289.7639 417.6749 23.4884 0.0000 0.0000 0.0000
# 2 417.6749 -289.7645 23.4956 0.0000 0.0000 0.0000
# 3 23.4884 23.4956 124.6128 0.0000 0.0000 0.0000
# 4 0.0000 0.0000 0.0000 10.3842 0.0000 0.0000
# 5 0.0000 0.0000 0.0000 0.0000 10.3847 0.0000
# 6 0.0000 0.0000 0.0000 0.0000 0.0000 16.0354
#
#
#
# Elastic Compliance Matrix: (Units=1/GPa)
#
#
# Indices 1 2 3 4 5 6 
#
# 1 0.003493 0.004907 -0.001584 0.000000 0.000000 0.000000
# 2 0.004907 0.003493 -0.001583 0.000000 0.000000 0.000000
# 3 -0.001584 -0.001583 0.008622 0.000000 0.000000 0.000000
# 4 0.000000 0.000000 0.000000 0.096301 0.000000 0.000000
# 5 0.000000 0.000000 0.000000 0.000000 0.096295 0.000000
# 6 0.000000 0.000000 0.000000 0.000000 0.000000 0.062362
#
#
# Mechanical properties :
#
#
# Convention : Reuss Voigt Hill
#
# Bulk Modulus (GPa) = 52.39134 52.71137 52.55136
# Shear Modulus (GPa) = 18.28495 -53.94410 -17.82958
#
# Velocity S-wave (km/s) = 3.02258 -5.19162 -2.98470
# Velocity P-wave (km/s) = 6.19341 3.09842 3.79197
#
# Compressibility (1/GPa) = 0.01908712
#
# Stress axis : x y z
#
# Youngs Moduli (GPa) = 286.28316 286.28642 115.98378
#
# Poissons Ratio (x) = -1.40469 0.18366
# Poissons Ratio (y) = -1.40467 0.18365
# Poissons Ratio (z) = 0.45334 0.45332
#
# Static dielectric constant tensor:
#      x y z
#    x 1.748190 0.000000 0.000000 
#    y 0.000000 1.748200 0.000000 
#    z 0.000000 0.000000 1.727230 
# 
# From -- ./inp_files/8436.got.cif
#   From: 2010.05.17/outbox.cif.g08.bks.cpg/sg139_5_cif.got.tgz:8436.got - 2010.05.20 13:14:44.
