data_PCOD9571408
_publ_section_title
;
Structure prediction by ZEFSAII (Michael W. Deem and Ramdas Pophale) SiO2 
 PCOD9571408
Probable space group: I 4/M M M
;
_chemical_formula_sum "Si O2"
_cell_formula_units_Z 208
_cell_length_a 26.744118
_cell_length_b 26.744118
_cell_length_c 18.643338
_cell_angle_alpha 90.000000
_cell_angle_beta 90.000000
_cell_angle_gamma 90.000000
_cell_volume 13334.607377
_symmetry_space_group_name_H-M "I 4/M M M"
_symmetry_group_IT_number 139
_symmetry_cell_setting 'tetragonal'
loop_
_space_group_symop_operation_xyz
x,y,z
-y,x,z
-x,-y,z
y,-x,z
x,-y,-z
-x,y,-z
y,x,-z
-y,-x,-z
-x,-y,-z
y,-x,-z
x,y,-z
-y,x,-z
-x,y,z
x,-y,z
-y,-x,z
y,x,z
1/2+x,1/2+y,1/2+z
1/2-y,1/2+x,1/2+z
1/2-x,1/2-y,1/2+z
1/2+y,1/2-x,1/2+z
1/2+x,1/2-y,1/2-z
1/2-x,1/2+y,1/2-z
1/2+y,1/2+x,1/2-z
1/2-y,1/2-x,1/2-z
1/2-x,1/2-y,1/2-z
1/2+y,1/2-x,1/2-z
1/2+x,1/2+y,1/2-z
1/2-y,1/2+x,1/2-z
1/2-x,1/2+y,1/2+z
1/2+x,1/2-y,1/2+z
1/2-y,1/2-x,1/2+z
1/2+y,1/2+x,1/2+z
loop_
_atom_site_type_symbol
_atom_site_label
_atom_site_fract_x
_atom_site_fract_y
_atom_site_fract_z
Si Si1 0.440454 0.638892 0.500000
Si Si2 0.222837 0.695329 0.415070
Si Si3 0.624997 0.175509 0.818856
Si Si4 0.159590 0.442539 0.421492
Si Si5 0.306719 0.385790 0.630496
Si Si6 0.728953 0.059086 0.786626
Si Si7 0.942382 0.394502 0.583832
O O1 0.500000 0.639504 0.500000
O O2 0.416380 0.583621 0.500000
O O3 0.416810 0.668120 0.567021
O O4 0.211302 0.694914 0.500000
O O5 0.253800 0.746201 0.398927
O O6 0.172995 0.689706 0.367154
O O7 0.262407 0.650728 0.398339
O O8 0.643866 0.143866 0.750000
O O9 0.593751 0.219399 0.781644
O O10 0.584340 0.146367 0.866747
O O11 0.171532 0.418562 0.500000
O O12 0.173547 0.500000 0.427584
O O13 0.189636 0.426384 0.351019
O O14 0.099813 0.437755 0.411754
O O15 0.348585 0.348585 0.661634
O O16 0.282409 0.425566 0.683148
O O17 0.723255 0.000000 0.772670
O O18 0.943392 0.379343 0.500000
O O19 0.000000 0.405931 0.604318
#
# Coordination Sequence:
#
# PCOD9571408 Si02
#       7
#    16  32  32  32  32  32  32
#     4  10  20  33  50  72 100 134 171 209 249 297
#     4  10  20  35  55  77 103 131 163 204 254 310
#     4  12  21  33  49  72  98 127 159 204 250 303
#     4   9  18  31  47  67  88 115 159 209 256 305
#     4  10  19  32  50  73 100 128 161 204 253 303
#     4  11  22  34  49  71 100 133 166 208 255 304
#     4  10  20  34  50  64  86 124 165 206 251 298
#
# _framework density 15.598509999999999
#
# number of rings (size 3 to 8) (size 9 to 14) (size 15 to 20)
#    0.000    1.692    3.846    1.385    1.077    2.538 
#    0.000    1.538    0.000    0.000    0.000    0.000 
#    0.000    0.000    0.000    0.000    0.000    0.000 
#
# Total GULP energy -579051.174788 kJ/mol
# GULP energy per Si atom -5567.799758 kJ/mol
# Density = 1.556301 g / cm^3
# Si number density = 15.598510 Si / 1000 Ang^3
#
#
#
# Elastic Constant Matrix: (Units=GPa)
#
#
# Indices 1 2 3 4 5 6 
#
# 1 78.4748 29.1012 26.3137 0.0000 0.0000 0.0000
# 2 29.1012 78.4758 26.3141 0.0000 0.0000 0.0000
# 3 26.3137 26.3141 46.6500 0.0000 0.0000 0.0000
# 4 0.0000 0.0000 0.0000 20.0888 0.0000 0.0000
# 5 0.0000 0.0000 0.0000 0.0000 20.0869 0.0000
# 6 0.0000 0.0000 0.0000 0.0000 0.0000 19.8224
#
#
#
# Elastic Compliance Matrix: (Units=1/GPa)
#
#
# Indices 1 2 3 4 5 6 
#
# 1 0.016546 -0.003708 -0.007242 0.000000 0.000000 0.000000
# 2 -0.003708 0.016546 -0.007242 0.000000 0.000000 0.000000
# 3 -0.007242 -0.007242 0.029606 0.000000 0.000000 0.000000
# 4 0.000000 0.000000 0.000000 0.049779 0.000000 0.000000
# 5 0.000000 0.000000 0.000000 0.000000 0.049784 0.000000
# 6 0.000000 0.000000 0.000000 0.000000 0.000000 0.050448
#
#
# Mechanical properties :
#
#
# Convention : Reuss Voigt Hill
#
# Bulk Modulus (GPa) = 38.00006 40.78427 39.39216
# Shear Modulus (GPa) = 19.39016 20.12441 19.75728
#
# Velocity S-wave (km/s) = 3.52956 3.59576 3.56281
# Velocity P-wave (km/s) = 6.40504 6.59108 6.49873
#
# Compressibility (1/GPa) = 0.02631575
#
# Stress axis : x y z
#
# Youngs Moduli (GPa) = 60.43719 60.43777 33.77693
#
# Poissons Ratio (x) = 0.22407 0.24460
# Poissons Ratio (y) = 0.22407 0.24461
# Poissons Ratio (z) = 0.43767 0.43768
#
# Static dielectric constant tensor:
#      x y z
#    x 1.540390 0.000000 0.000000 
#    y 0.000000 1.540390 0.000000 
#    z 0.000000 0.000000 1.548390 
# 
# From -- ./inp_files/8977.got.cif
#   From: 2010.05.17/outbox.cif.g08.bks.cpg/sg139_5_cif.got.tgz:8977.got - 2010.05.20 13:14:44.
