data_PCOD9571446
_publ_section_title
;
Structure prediction by ZEFSAII (Michael W. Deem and Ramdas Pophale) SiO2 
 PCOD9571446
Probable space group: I 4/M M M
;
_chemical_formula_sum "Si O2"
_cell_formula_units_Z 136
_cell_length_a 16.700547
_cell_length_b 16.700547
_cell_length_c 29.944853
_cell_angle_alpha 90.000000
_cell_angle_beta 90.000000
_cell_angle_gamma 90.000000
_cell_volume 8351.867149
_symmetry_space_group_name_H-M "I 4/M M M"
_symmetry_group_IT_number 139
_symmetry_cell_setting 'tetragonal'
loop_
_space_group_symop_operation_xyz
x,y,z
-y,x,z
-x,-y,z
y,-x,z
x,-y,-z
-x,y,-z
y,x,-z
-y,-x,-z
-x,-y,-z
y,-x,-z
x,y,-z
-y,x,-z
-x,y,z
x,-y,z
-y,-x,z
y,x,z
1/2+x,1/2+y,1/2+z
1/2-y,1/2+x,1/2+z
1/2-x,1/2-y,1/2+z
1/2+y,1/2-x,1/2+z
1/2+x,1/2-y,1/2-z
1/2-x,1/2+y,1/2-z
1/2+y,1/2+x,1/2-z
1/2-y,1/2-x,1/2-z
1/2-x,1/2-y,1/2-z
1/2+y,1/2-x,1/2-z
1/2+x,1/2+y,1/2-z
1/2-y,1/2+x,1/2-z
1/2-x,1/2+y,1/2+z
1/2+x,1/2-y,1/2+z
1/2-y,1/2-x,1/2+z
1/2+y,1/2+x,1/2+z
loop_
_atom_site_type_symbol
_atom_site_label
_atom_site_fract_x
_atom_site_fract_y
_atom_site_fract_z
Si Si1 0.000000 0.371444 0.551853
Si Si2 0.094276 0.094276 0.265888
Si Si3 0.837325 0.837325 0.648088
Si Si4 0.285958 0.714043 0.391424
Si Si5 0.405146 0.594855 0.339762
Si Si6 0.000000 0.211427 0.598214
Si Si7 0.588016 0.816499 0.552647
Si Si8 0.000000 0.133488 0.500000
O O1 0.000000 0.305183 0.589807
O O2 0.086695 0.412044 0.556681
O O3 0.000000 0.341755 0.500000
O O4 0.145976 0.145976 0.299956
O O5 0.107595 0.107595 0.213377
O O6 0.000000 0.108841 0.274777
O O7 0.770360 0.770360 0.638989
O O8 0.920716 0.813588 0.624409
O O9 0.346217 0.653784 0.366039
O O10 0.340850 0.773691 0.420978
O O11 0.390506 0.500000 0.348972
O O12 0.000000 0.177817 0.547480
O O13 0.597582 0.799151 0.500000
O O14 0.500000 0.787195 0.567156
O O15 0.922254 0.077747 0.500000
#
# Coordination Sequence:
#
# PCOD9571446 Si02
#       8
#    16  16  16  16  16  16  32   8
#     4  10  19  33  52  72 102 145 187 219 246 291
#     4   9  18  35  58  78 102 136 176 214 255 312
#     4  12  23  32  53  77 110 147 176 216 254 305
#     4  12  22  34  54  82 110 131 168 220 273 317
#     4   9  20  40  63  82  99 127 165 216 279 335
#     4  12  21  33  46  76 111 146 190 211 256 299
#     4  10  21  36  53  74 103 142 182 217 255 303
#     4  11  22  30  42  66 107 158 192 222 251 290
#
# _framework density 16.283784000000001
#
# number of rings (size 3 to 8) (size 9 to 14) (size 15 to 20)
#    0.000    1.471    5.294    2.118    0.000    2.118 
#    2.118    0.000    0.000    0.000    0.000    4.941 
#    0.000    0.000    0.000    0.000    0.000    0.000 
#
# Total GULP energy -378920.748172 kJ/mol
# GULP energy per Si atom -5572.363944 kJ/mol
# Density = 1.624672 g / cm^3
# Si number density = 16.283784 Si / 1000 Ang^3
#
#
#
# Elastic Constant Matrix: (Units=GPa)
#
#
# Indices 1 2 3 4 5 6 
#
# 1 100.5002 50.2971 41.1978 0.0000 0.0000 0.0000
# 2 50.2971 100.4998 41.1979 0.0000 0.0000 0.0000
# 3 41.1978 41.1979 58.3364 0.0000 0.0000 0.0000
# 4 0.0000 0.0000 0.0000 23.9228 0.0000 0.0000
# 5 0.0000 0.0000 0.0000 0.0000 23.9225 0.0000
# 6 0.0000 0.0000 0.0000 0.0000 0.0000 29.2766
#
#
#
# Elastic Compliance Matrix: (Units=1/GPa)
#
#
# Indices 1 2 3 4 5 6 
#
# 1 0.015359 -0.004560 -0.007626 0.000000 0.000000 0.000000
# 2 -0.004560 0.015359 -0.007626 0.000000 0.000000 0.000000
# 3 -0.007626 -0.007626 0.027913 0.000000 0.000000 0.000000
# 4 0.000000 0.000000 0.000000 0.041801 0.000000 0.000000
# 5 0.000000 0.000000 0.000000 0.000000 0.041802 0.000000
# 6 0.000000 0.000000 0.000000 0.000000 0.000000 0.034157
#
#
# Mechanical properties :
#
#
# Convention : Reuss Voigt Hill
#
# Bulk Modulus (GPa) = 52.61503 58.30244 55.45873
# Shear Modulus (GPa) = 22.48713 23.86729 23.17721
#
# Velocity S-wave (km/s) = 3.72015 3.83261 3.77680
# Velocity P-wave (km/s) = 7.12981 7.44761 7.29044
#
# Compressibility (1/GPa) = 0.01900598
#
# Stress axis : x y z
#
# Youngs Moduli (GPa) = 65.11006 65.10965 35.82583
#
# Poissons Ratio (x) = 0.29693 0.27320
# Poissons Ratio (y) = 0.29693 0.27320
# Poissons Ratio (z) = 0.49651 0.49652
#
# Static dielectric constant tensor:
#      x y z
#    x 1.554320 0.000000 0.000000 
#    y 0.000000 1.554320 0.000000 
#    z 0.000000 0.000000 1.517880 
# 
# From -- ./inp_files/11596.got.cif
#   From: 2010.05.17/outbox.cif.g08.bks.cpg/sg139_6_cif.got.tgz:11596.got - 2010.05.20 13:14:44.
