data_PCOD9571618
_publ_section_title
;
Structure prediction by ZEFSAII (Michael W. Deem and Ramdas Pophale) SiO2 
 PCOD9571618
Probable space group: I 4/M M M
;
_chemical_formula_sum "Si O2"
_cell_formula_units_Z 96
_cell_length_a 23.176391
_cell_length_b 23.176391
_cell_length_c 9.062051
_cell_angle_alpha 90.000000
_cell_angle_beta 90.000000
_cell_angle_gamma 90.000000
_cell_volume 4867.636289
_symmetry_space_group_name_H-M "I 4/M M M"
_symmetry_group_IT_number 139
_symmetry_cell_setting 'tetragonal'
loop_
_space_group_symop_operation_xyz
x,y,z
-y,x,z
-x,-y,z
y,-x,z
x,-y,-z
-x,y,-z
y,x,-z
-y,-x,-z
-x,-y,-z
y,-x,-z
x,y,-z
-y,x,-z
-x,y,z
x,-y,z
-y,-x,z
y,x,z
1/2+x,1/2+y,1/2+z
1/2-y,1/2+x,1/2+z
1/2-x,1/2-y,1/2+z
1/2+y,1/2-x,1/2+z
1/2+x,1/2-y,1/2-z
1/2-x,1/2+y,1/2-z
1/2+y,1/2+x,1/2-z
1/2-y,1/2-x,1/2-z
1/2-x,1/2-y,1/2-z
1/2+y,1/2-x,1/2-z
1/2+x,1/2+y,1/2-z
1/2-y,1/2+x,1/2-z
1/2-x,1/2+y,1/2+z
1/2+x,1/2-y,1/2+z
1/2-y,1/2-x,1/2+z
1/2+y,1/2+x,1/2+z
loop_
_atom_site_type_symbol
_atom_site_label
_atom_site_fract_x
_atom_site_fract_y
_atom_site_fract_z
Si Si1 0.157569 0.842432 0.673933
Si Si2 0.288182 0.877838 0.324116
Si Si3 0.432341 0.567660 0.678145
Si Si4 0.000000 0.713943 0.166970
Si Si5 0.078876 0.500000 0.335913
O O1 0.147177 0.852824 0.500000
O O2 0.149070 0.774712 0.702649
O O3 0.113685 0.886316 0.757251
O O4 0.299863 0.881370 0.500000
O O5 0.338975 0.838975 0.250000
O O6 0.277258 0.941341 0.256482
O O7 0.420145 0.500000 0.719600
O O8 0.429506 0.570495 0.500000
O O9 0.000000 0.645650 0.153105
O O10 0.000000 0.739681 0.000000
O O11 0.056472 0.500000 0.500000
O O12 0.054778 0.445223 0.250000
#
# Coordination Sequence:
#
# PCOD9571618 Si02
#       5
#    16  32  16  16  16
#     4  10  24  42  64  93 128 167 213 263 318 379
#     4  11  24  43  65  92 127 167 213 265 319 380
#     4   9  20  39  63  95 133 171 214 264 319 380
#     4  11  24  40  61  90 121 159 206 257 313 372
#     4  10  20  33  52  78 110 147 189 235 288 349
#
# _framework density 19.722097999999999
#
# number of rings (size 3 to 8) (size 9 to 14) (size 15 to 20)
#    0.000    1.667    0.000    4.500    2.333    8.667 
#    0.000    0.833    0.000    0.000    0.000    0.000 
#    0.000    0.000    0.000    0.000    0.000    0.000 
#
# Total GULP energy -267494.011199 kJ/mol
# GULP energy per Si atom -5572.791900 kJ/mol
# Density = 1.967721 g / cm^3
# Si number density = 19.722098 Si / 1000 Ang^3
#
#
#
# Elastic Constant Matrix: (Units=GPa)
#
#
# Indices 1 2 3 4 5 6 
#
# 1 38.8778 124.1190 62.8972 0.0000 0.0000 0.0000
# 2 124.1190 38.8720 62.8988 0.0000 0.0000 0.0000
# 3 62.8972 62.8988 121.3723 0.0000 0.0000 0.0000
# 4 0.0000 0.0000 0.0000 99.1215 0.0000 0.0000
# 5 0.0000 0.0000 0.0000 0.0000 99.0273 0.0000
# 6 0.0000 0.0000 0.0000 0.0000 0.0000 58.5268
#
#
#
# Elastic Compliance Matrix: (Units=1/GPa)
#
#
# Indices 1 2 3 4 5 6 
#
# 1 -0.000753 0.010978 -0.005299 0.000000 0.000000 0.000000
# 2 0.010978 -0.000754 -0.005298 0.000000 0.000000 0.000000
# 3 -0.005299 -0.005298 0.013731 0.000000 0.000000 0.000000
# 4 0.000000 0.000000 0.000000 0.010089 0.000000 0.000000
# 5 0.000000 0.000000 0.000000 0.000000 0.010098 0.000000
# 6 0.000000 0.000000 0.000000 0.000000 0.000000 0.017086
#
#
# Mechanical properties :
#
#
# Convention : Reuss Voigt Hill
#
# Bulk Modulus (GPa) = 77.00875 77.66135 77.33505
# Shear Modulus (GPa) = 94.22431 47.94895 71.08663
#
# Velocity S-wave (km/s) = 6.91952 4.93610 6.01019
# Velocity P-wave (km/s) = 10.14748 8.48234 9.35204
#
# Compressibility (1/GPa) = 0.01298554
#
# Stress axis : x y z
#
# Youngs Moduli (GPa) = -1328.42362 -1326.86109 72.82864
#
# Poissons Ratio (x) = 14.56602 0.38591
# Poissons Ratio (y) = 14.58317 0.38587
# Poissons Ratio (z) = -7.03922 -7.03013
#
# Static dielectric constant tensor:
#      x y z
#    x 1.763150 0.000000 0.000000 
#    y 0.000000 1.763140 0.000000 
#    z 0.000000 0.000000 1.722250 
# 
# From -- ./inp_files/1223.got.cif
#   From: 2010.05.17/outbox.cif.g08.bks.cpg/sg139_1_cif.got.tgz:1223.got - 2010.05.20 13:14:44.
