data_PCOD9571253
_publ_section_title
;
Structure prediction by ZEFSAII (Michael W. Deem and Ramdas Pophale) SiO2 
 PCOD9571253
Probable space group: I 4/M M M
;
_chemical_formula_sum "Si O2"
_cell_formula_units_Z 160
_cell_length_a 30.969413
_cell_length_b 30.969413
_cell_length_c 8.640677
_cell_angle_alpha 90.000000
_cell_angle_beta 90.000000
_cell_angle_gamma 90.000000
_cell_volume 8287.312553
_symmetry_space_group_name_H-M "I 4/M M M"
_symmetry_group_IT_number 139
_symmetry_cell_setting 'tetragonal'
loop_
_space_group_symop_operation_xyz
x,y,z
-y,x,z
-x,-y,z
y,-x,z
x,-y,-z
-x,y,-z
y,x,-z
-y,-x,-z
-x,-y,-z
y,-x,-z
x,y,-z
-y,x,-z
-x,y,z
x,-y,z
-y,-x,z
y,x,z
1/2+x,1/2+y,1/2+z
1/2-y,1/2+x,1/2+z
1/2-x,1/2-y,1/2+z
1/2+y,1/2-x,1/2+z
1/2+x,1/2-y,1/2-z
1/2-x,1/2+y,1/2-z
1/2+y,1/2+x,1/2-z
1/2-y,1/2-x,1/2-z
1/2-x,1/2-y,1/2-z
1/2+y,1/2-x,1/2-z
1/2+x,1/2+y,1/2-z
1/2-y,1/2+x,1/2-z
1/2-x,1/2+y,1/2+z
1/2+x,1/2-y,1/2+z
1/2-y,1/2-x,1/2+z
1/2+y,1/2+x,1/2+z
loop_
_atom_site_type_symbol
_atom_site_label
_atom_site_fract_x
_atom_site_fract_y
_atom_site_fract_z
Si Si1 0.937732 0.500000 0.173306
Si Si2 0.164666 0.500000 0.176521
Si Si3 0.621507 0.248665 0.316175
Si Si4 0.338898 0.904954 0.685138
Si Si5 0.815169 0.050653 0.688447
Si Si6 0.186259 0.186259 0.322468
Si Si7 0.387785 0.387785 0.175778
O O1 0.958021 0.458021 0.250000
O O2 0.887048 0.500000 0.171459
O O3 0.953207 0.500000 0.000000
O O4 0.173075 0.546900 0.247696
O O5 0.182940 0.500000 0.000000
O O6 0.618930 0.243401 0.500000
O O7 0.622184 0.202775 0.231868
O O8 0.580508 0.277206 0.257199
O O9 0.663992 0.274837 0.266898
O O10 0.343839 0.908794 0.500000
O O11 0.381473 0.881473 0.750000
O O12 0.813476 0.054786 0.500000
O O13 0.861214 0.071456 0.742075
O O14 0.811043 0.000000 0.726469
O O15 0.197136 0.197136 0.500000
O O16 0.149155 0.149155 0.329436
O O17 0.399910 0.399910 0.000000
#
# Coordination Sequence:
#
# PCOD9571253 Si02
#       7
#    16  16  32  32  32  16  16
#     4  10  18  31  50  76 102 130 170 220 270 321
#     4   9  21  38  59  80 106 144 188 228 275 331
#     4  11  22  36  56  86 119 150 187 238 289 343
#     4  11  23  42  62  85 115 153 192 235 284 341
#     4   9  17  30  51  77 108 151 199 245 292 344
#     4   9  17  35  60  84 110 150 191 231 280 344
#     4   7  12  25  45  71 102 139 188 237 283 334
#
# _framework density 19.306621
#
# number of rings (size 3 to 8) (size 9 to 14) (size 15 to 20)
#    0.000    2.300    0.000    5.100    1.400    0.400 
#    0.000    5.000    0.000    0.300    0.000    2.100 
#    0.000    0.000    0.000    7.300    0.000    9.000 
#
# Total GULP energy -445837.730436 kJ/mol
# GULP energy per Si atom -5572.971630 kJ/mol
# Density = 1.926268 g / cm^3
# Si number density = 19.306621 Si / 1000 Ang^3
#
#
#
# Elastic Constant Matrix: (Units=GPa)
#
#
# Indices 1 2 3 4 5 6 
#
# 1 63.8019 31.1224 9.7758 0.0000 0.0000 0.0000
# 2 31.1224 63.8019 9.7758 0.0000 0.0000 0.0000
# 3 9.7758 9.7758 54.8832 0.0000 0.0000 0.0000
# 4 0.0000 0.0000 0.0000 28.5533 0.0000 0.0000
# 5 0.0000 0.0000 0.0000 0.0000 28.5533 0.0000
# 6 0.0000 0.0000 0.0000 0.0000 0.0000 -398.2214
#
#
#
# Elastic Compliance Matrix: (Units=1/GPa)
#
#
# Indices 1 2 3 4 5 6 
#
# 1 0.020768 -0.009832 -0.001948 0.000000 0.000000 0.000000
# 2 -0.009832 0.020768 -0.001948 0.000000 0.000000 0.000000
# 3 -0.001948 -0.001948 0.018914 0.000000 0.000000 0.000000
# 4 0.000000 0.000000 0.000000 0.035022 0.000000 0.000000
# 5 0.000000 0.000000 0.000000 0.000000 0.035022 0.000000
# 6 0.000000 0.000000 0.000000 0.000000 0.000000 -0.002511
#
#
# Mechanical properties :
#
#
# Convention : Reuss Voigt Hill
#
# Bulk Modulus (GPa) = 30.30796 31.53724 30.92260
# Shear Modulus (GPa) = 30.04123 -59.43544 -14.69711
#
# Velocity S-wave (km/s) = 3.94890 -5.55444 -2.76206
# Velocity P-wave (km/s) = 6.04352 4.97648 2.42474
#
# Compressibility (1/GPa) = 0.03299463
#
# Stress axis : x y z
#
# Youngs Moduli (GPa) = 48.15092 48.15092 52.86964
#
# Poissons Ratio (x) = 0.47343 0.10299
# Poissons Ratio (y) = 0.47343 0.10299
# Poissons Ratio (z) = 0.09379 0.09379
#
# Static dielectric constant tensor:
#      x y z
#    x 1.704040 0.000000 0.000000 
#    y 0.000000 1.704040 0.000000 
#    z 0.000000 0.000000 1.679480 
# 
# From -- ./inp_files/2343.got.cif
#   From: 2010.05.17/outbox.cif.g08.bks.cpg/sg139_2_cif.got.tgz:2343.got - 2010.05.20 13:14:44.
