data_PCOD9571288
_publ_section_title
;
Structure prediction by ZEFSAII (Michael W. Deem and Ramdas Pophale) SiO2 
 PCOD9571288
Probable space group: I 4/M M M
;
_chemical_formula_sum "Si O2"
_cell_formula_units_Z 160
_cell_length_a 23.292901
_cell_length_b 23.292901
_cell_length_c 16.058065
_cell_angle_alpha 90.000000
_cell_angle_beta 90.000000
_cell_angle_gamma 90.000000
_cell_volume 8712.451494
_symmetry_space_group_name_H-M "I 4/M M M"
_symmetry_group_IT_number 139
_symmetry_cell_setting 'tetragonal'
loop_
_space_group_symop_operation_xyz
x,y,z
-y,x,z
-x,-y,z
y,-x,z
x,-y,-z
-x,y,-z
y,x,-z
-y,-x,-z
-x,-y,-z
y,-x,-z
x,y,-z
-y,x,-z
-x,y,z
x,-y,z
-y,-x,z
y,x,z
1/2+x,1/2+y,1/2+z
1/2-y,1/2+x,1/2+z
1/2-x,1/2-y,1/2+z
1/2+y,1/2-x,1/2+z
1/2+x,1/2-y,1/2-z
1/2-x,1/2+y,1/2-z
1/2+y,1/2+x,1/2-z
1/2-y,1/2-x,1/2-z
1/2-x,1/2-y,1/2-z
1/2+y,1/2-x,1/2-z
1/2+x,1/2+y,1/2-z
1/2-y,1/2+x,1/2-z
1/2-x,1/2+y,1/2+z
1/2+x,1/2-y,1/2+z
1/2-y,1/2-x,1/2+z
1/2+y,1/2+x,1/2+z
loop_
_atom_site_type_symbol
_atom_site_label
_atom_site_fract_x
_atom_site_fract_y
_atom_site_fract_z
Si Si1 0.338362 0.566923 0.000000
Si Si2 0.933582 0.933582 0.898949
Si Si3 0.139555 0.276236 0.796149
Si Si4 0.662384 0.662384 0.600602
Si Si5 0.568346 0.241883 0.865043
Si Si6 0.620236 0.883955 0.405091
Si Si7 0.000000 0.567872 0.402677
O O1 0.298066 0.578029 0.079869
O O2 0.354001 0.500000 0.000000
O O3 0.392480 0.607521 0.000000
O O4 0.885854 0.885854 0.875014
O O5 0.000000 0.920514 0.873080
O O6 0.933748 0.933748 0.000000
O O7 0.196084 0.303917 0.750000
O O8 0.149198 0.224549 0.859965
O O9 0.096625 0.254321 0.725191
O O10 0.112985 0.329422 0.846829
O O11 0.664492 0.664492 0.500000
O O12 0.500000 0.231189 0.862510
O O13 0.599509 0.187346 0.906272
O O14 0.600073 0.873789 0.500000
O O15 0.590499 0.940450 0.367431
O O16 0.000000 0.500000 0.401492
O O17 0.000000 0.587929 0.500000
#
# Coordination Sequence:
#
# PCOD9571288 Si02
#       7
#    16  16  32  16  32  32  16
#     4  10  22  39  66  98 120 154 200 240 306 376
#     4   8  16  34  61  88 110 139 187 238 276 328
#     4  10  23  37  54  84 123 159 194 250 304 349
#     4  11  22  39  60  85 121 155 199 232 297 370
#     4  10  20  37  61  85 115 156 202 250 292 356
#     4  10  18  35  58  80 116 158 206 250 302 348
#     4   9  18  30  54  84 112 149 199 257 299 347
#
# _framework density 18.364519999999999
#
# number of rings (size 3 to 8) (size 9 to 14) (size 15 to 20)
#    0.000    2.200    2.000    1.200    1.400    1.700 
#    1.800    0.000    0.000    6.000    0.000    0.000 
#    0.000    0.000    0.000    0.000    0.000    0.000 
#
# Total GULP energy -446034.740515 kJ/mol
# GULP energy per Si atom -5575.434256 kJ/mol
# Density = 1.832272 g / cm^3
# Si number density = 18.364520 Si / 1000 Ang^3
#
#
#
# Elastic Constant Matrix: (Units=GPa)
#
#
# Indices 1 2 3 4 5 6 
#
# 1 91.8240 70.3172 49.7972 0.0000 0.0000 0.0000
# 2 70.3172 91.8276 49.7976 0.0000 0.0000 0.0000
# 3 49.7972 49.7976 103.6804 0.0000 0.0000 0.0000
# 4 0.0000 0.0000 0.0000 33.1018 0.0000 0.0000
# 5 0.0000 0.0000 0.0000 0.0000 33.0907 0.0000
# 6 0.0000 0.0000 0.0000 0.0000 0.0000 28.0588
#
#
#
# Elastic Compliance Matrix: (Units=1/GPa)
#
#
# Indices 1 2 3 4 5 6 
#
# 1 0.027621 -0.018872 -0.004202 0.000000 0.000000 0.000000
# 2 -0.018872 0.027620 -0.004202 0.000000 0.000000 0.000000
# 3 -0.004202 -0.004202 0.013681 0.000000 0.000000 0.000000
# 4 0.000000 0.000000 0.000000 0.030210 0.000000 0.000000
# 5 0.000000 0.000000 0.000000 0.000000 0.030220 0.000000
# 6 0.000000 0.000000 0.000000 0.000000 0.000000 0.035639
#
#
# Mechanical properties :
#
#
# Convention : Reuss Voigt Hill
#
# Bulk Modulus (GPa) = 69.58602 69.68399 69.63500
# Shear Modulus (GPa) = 22.28820 26.67826 24.48323
#
# Velocity S-wave (km/s) = 3.48754 3.81557 3.65524
# Velocity P-wave (km/s) = 7.36145 7.57884 7.47094
#
# Compressibility (1/GPa) = 0.01437070
#
# Stress axis : x y z
#
# Youngs Moduli (GPa) = 36.20388 36.20563 73.09288
#
# Poissons Ratio (x) = 0.68329 0.30714
# Poissons Ratio (y) = 0.68325 0.30710
# Poissons Ratio (z) = 0.15213 0.15212
#
# Static dielectric constant tensor:
#      x y z
#    x 1.625950 0.000000 0.000000 
#    y 0.000000 1.625950 0.000000 
#    z 0.000000 0.000000 1.647410 
# 
# From -- ./inp_files/8506.got.cif
#   From: 2010.05.17/outbox.cif.g08.bks.cpg/sg139_5_cif.got.tgz:8506.got - 2010.05.20 13:14:44.
