data_PCOD9571591
_publ_section_title
;
Structure prediction by ZEFSAII (Michael W. Deem and Ramdas Pophale) SiO2 
 PCOD9571591
Probable space group: I 4/M M M
;
_chemical_formula_sum "Si O2"
_cell_formula_units_Z 96
_cell_length_a 13.719769
_cell_length_b 13.719769
_cell_length_c 31.300970
_cell_angle_alpha 90.000000
_cell_angle_beta 90.000000
_cell_angle_gamma 90.000000
_cell_volume 5891.846107
_symmetry_space_group_name_H-M "I 4/M M M"
_symmetry_group_IT_number 139
_symmetry_cell_setting 'tetragonal'
loop_
_space_group_symop_operation_xyz
x,y,z
-y,x,z
-x,-y,z
y,-x,z
x,-y,-z
-x,y,-z
y,x,-z
-y,-x,-z
-x,-y,-z
y,-x,-z
x,y,-z
-y,x,-z
-x,y,z
x,-y,z
-y,-x,z
y,x,z
1/2+x,1/2+y,1/2+z
1/2-y,1/2+x,1/2+z
1/2-x,1/2-y,1/2+z
1/2+y,1/2-x,1/2+z
1/2+x,1/2-y,1/2-z
1/2-x,1/2+y,1/2-z
1/2+y,1/2+x,1/2-z
1/2-y,1/2-x,1/2-z
1/2-x,1/2-y,1/2-z
1/2+y,1/2-x,1/2-z
1/2+x,1/2+y,1/2-z
1/2-y,1/2+x,1/2-z
1/2-x,1/2+y,1/2+z
1/2+x,1/2-y,1/2+z
1/2-y,1/2-x,1/2+z
1/2+y,1/2+x,1/2+z
loop_
_atom_site_type_symbol
_atom_site_label
_atom_site_fract_x
_atom_site_fract_y
_atom_site_fract_z
Si Si1 0.884198 0.275154 0.337911
Si Si2 0.611310 0.881948 0.000000
Si Si3 0.614282 0.885719 0.250000
Si Si4 0.883655 0.276075 0.913320
O O1 0.825500 0.174501 0.342132
O O2 0.864025 0.321131 0.291329
O O3 0.841669 0.347403 0.373845
O O4 0.000000 0.264317 0.342724
O O5 0.668927 0.855027 0.957161
O O6 0.500000 0.845503 0.000000
O O7 0.606792 0.000000 0.000000
O O8 0.500000 0.872383 0.260988
O O9 0.825331 0.174670 0.911210
O O10 0.000000 0.263466 0.912432
#
# Coordination Sequence:
#
# PCOD9571591 Si02
#       4
#    32  16  16  32
#     4  10  20  33  50  72  98 129 165 204 245 290
#     4   9  17  30  49  71  95 125 161 199 236 277
#     4   9  17  30  50  74  97 123 158 200 245 293
#     4  10  20  33  50  73 100 130 165 204 247 295
#
# _framework density 16.293704000000002
#
# number of rings (size 3 to 8) (size 9 to 14) (size 15 to 20)
#    0.000    2.333    0.000    3.000    0.000    4.000 
#    0.000    0.000    0.000    3.000    0.000    4.667 
#    0.000   12.000    0.000    0.000    0.000    0.000 
#
# Total GULP energy -267699.065113 kJ/mol
# GULP energy per Si atom -5577.063857 kJ/mol
# Density = 1.625662 g / cm^3
# Si number density = 16.293704 Si / 1000 Ang^3
#
#
#
# Elastic Constant Matrix: (Units=GPa)
#
#
# Indices 1 2 3 4 5 6 
#
# 1 104.2849 67.0762 61.3797 0.0000 0.0000 0.0000
# 2 67.0762 104.2850 61.3801 0.0000 0.0000 0.0000
# 3 61.3797 61.3801 118.6589 0.0000 0.0000 0.0000
# 4 0.0000 0.0000 0.0000 23.4288 0.0000 0.0000
# 5 0.0000 0.0000 0.0000 0.0000 23.4288 0.0000
# 6 0.0000 0.0000 0.0000 0.0000 0.0000 9.4942
#
#
#
# Elastic Compliance Matrix: (Units=1/GPa)
#
#
# Indices 1 2 3 4 5 6 
#
# 1 0.018073 -0.008802 -0.004796 0.000000 0.000000 0.000000
# 2 -0.008802 0.018073 -0.004796 0.000000 0.000000 0.000000
# 3 -0.004796 -0.004796 0.013389 0.000000 0.000000 0.000000
# 4 0.000000 0.000000 0.000000 0.042682 0.000000 0.000000
# 5 0.000000 0.000000 0.000000 0.000000 0.042683 0.000000
# 6 0.000000 0.000000 0.000000 0.000000 0.000000 0.105327
#
#
# Mechanical properties :
#
#
# Convention : Reuss Voigt Hill
#
# Bulk Modulus (GPa) = 78.44198 78.54454 78.49326
# Shear Modulus (GPa) = 17.77683 20.42988 19.10335
#
# Velocity S-wave (km/s) = 3.30665 3.54482 3.42780
# Velocity P-wave (km/s) = 7.92626 8.06625 7.99656
#
# Compressibility (1/GPa) = 0.01274828
#
# Stress axis : x y z
#
# Youngs Moduli (GPa) = 55.33020 55.32995 74.68749
#
# Poissons Ratio (x) = 0.48702 0.35819
# Poissons Ratio (y) = 0.48702 0.35820
# Poissons Ratio (z) = 0.26535 0.26536
#
# Static dielectric constant tensor:
#      x y z
#    x 1.525520 0.000000 0.000000 
#    y 0.000000 1.525520 0.000000 
#    z 0.000000 0.000000 1.539250 
# 
# From -- ./inp_files/12533.got.cif
#   From: 2010.05.17/outbox.cif.g08.bks.cpg/sg139_7_cif.got.tgz:12533.got - 2010.05.20 13:14:44.
