data_PCOD9571878
_publ_section_title
;
Structure prediction by ZEFSAII (Michael W. Deem and Ramdas Pophale) SiO2 
 PCOD9571878
Probable space group: I 4/M M M
;
_chemical_formula_sum "Si O2"
_cell_formula_units_Z 216
_cell_length_a 26.825574
_cell_length_b 26.825574
_cell_length_c 15.105398
_cell_angle_alpha 90.000000
_cell_angle_beta 90.000000
_cell_angle_gamma 90.000000
_cell_volume 10870.016911
_symmetry_space_group_name_H-M "I 4/M M M"
_symmetry_group_IT_number 139
_symmetry_cell_setting 'tetragonal'
loop_
_space_group_symop_operation_xyz
x,y,z
-y,x,z
-x,-y,z
y,-x,z
x,-y,-z
-x,y,-z
y,x,-z
-y,-x,-z
-x,-y,-z
y,-x,-z
x,y,-z
-y,x,-z
-x,y,z
x,-y,z
-y,-x,z
y,x,z
1/2+x,1/2+y,1/2+z
1/2-y,1/2+x,1/2+z
1/2-x,1/2-y,1/2+z
1/2+y,1/2-x,1/2+z
1/2+x,1/2-y,1/2-z
1/2-x,1/2+y,1/2-z
1/2+y,1/2+x,1/2-z
1/2-y,1/2-x,1/2-z
1/2-x,1/2-y,1/2-z
1/2+y,1/2-x,1/2-z
1/2+x,1/2+y,1/2-z
1/2-y,1/2+x,1/2-z
1/2-x,1/2+y,1/2+z
1/2+x,1/2-y,1/2+z
1/2-y,1/2-x,1/2+z
1/2+y,1/2+x,1/2+z
loop_
_atom_site_type_symbol
_atom_site_label
_atom_site_fract_x
_atom_site_fract_y
_atom_site_fract_z
Si Si1 0.000000 0.142789 0.000000
Si Si2 0.285051 0.796486 0.643869
Si Si3 0.868062 0.941384 0.500000
Si Si4 0.141441 0.440573 0.244436
Si Si5 0.287836 0.100167 0.097876
Si Si6 0.557238 0.680879 0.821356
Si Si7 0.910680 0.718927 0.395811
Si Si8 0.670318 0.409314 0.373156
O O1 0.044337 0.145318 0.076631
O O2 0.245105 0.754896 0.615772
O O3 0.291590 0.791590 0.750000
O O4 0.339994 0.789878 0.604678
O O5 0.268997 0.852298 0.618940
O O6 0.924997 0.924997 0.500000
O O7 0.843077 0.921894 0.589114
O O8 0.860613 0.000000 0.500000
O O9 0.135716 0.500000 0.247447
O O10 0.090257 0.409744 0.250000
O O11 0.178550 0.422804 0.324014
O O12 0.167551 0.423451 0.152831
O O13 0.229216 0.087631 0.105985
O O14 0.305222 0.084210 0.000000
O O15 0.500000 0.665010 0.809859
O O16 0.559240 0.739372 0.842215
O O17 0.585292 0.667544 0.732487
O O18 0.922242 0.719112 0.500000
O O19 0.641797 0.358204 0.397665
#
# Coordination Sequence:
#
# PCOD9571878 Si02
#       8
#     8  32  16  32  32  32  32  32
#     4  12  26  44  64  97 136 176 237 282 340 392
#     4  11  22  40  64  96 144 186 219 264 326 403
#     4  10  22  39  60  87 120 162 214 268 327 385
#     4  12  27  48  72 101 135 174 228 289 349 413
#     4  12  24  41  68  99 136 174 221 268 337 401
#     4  11  22  40  63  92 126 167 214 272 331 391
#     4  12  23  40  66 100 138 180 224 267 330 411
#     4  12  25  42  67  98 133 176 226 282 342 403
#
# _framework density 19.871174
#
# number of rings (size 3 to 8) (size 9 to 14) (size 15 to 20)
#    0.000    0.444    6.667    2.000    1.037    5.556 
#    0.000    0.000    0.000    1.778    0.000    2.074 
#    0.000    0.000    0.000    0.000    0.000    0.000 
#
# Total GULP energy -602408.875135 kJ/mol
# GULP energy per Si atom -5577.859955 kJ/mol
# Density = 1.982595 g / cm^3
# Si number density = 19.871174 Si / 1000 Ang^3
#
#
#
# Elastic Constant Matrix: (Units=GPa)
#
#
# Indices 1 2 3 4 5 6 
#
# 1 145.6830 -28.2502 24.1536 0.0000 0.0000 0.0000
# 2 -28.2502 145.6861 24.1542 0.0000 0.0000 0.0000
# 3 24.1536 24.1542 157.3759 0.0000 0.0000 0.0000
# 4 0.0000 0.0000 0.0000 -17.9170 0.0000 0.0000
# 5 0.0000 0.0000 0.0000 0.0000 -17.9174 0.0000
# 6 0.0000 0.0000 0.0000 0.0000 0.0000 14.8641
#
#
#
# Elastic Compliance Matrix: (Units=1/GPa)
#
#
# Indices 1 2 3 4 5 6 
#
# 1 0.007419 0.001670 -0.001395 0.000000 0.000000 0.000000
# 2 0.001670 0.007419 -0.001395 0.000000 0.000000 0.000000
# 3 -0.001395 -0.001395 0.006782 0.000000 0.000000 0.000000
# 4 0.000000 0.000000 0.000000 -0.055813 0.000000 0.000000
# 5 0.000000 0.000000 0.000000 0.000000 -0.055812 0.000000
# 6 0.000000 0.000000 0.000000 0.000000 0.000000 0.067276
#
#
# Mechanical properties :
#
#
# Convention : Reuss Voigt Hill
#
# Bulk Modulus (GPa) = 51.59725 54.31781 52.95753
# Shear Modulus (GPa) = -356.45006 24.38511 -166.03247
#
# Velocity S-wave (km/s) = -13.40783 3.50689 -9.15073
# Velocity P-wave (km/s) = 14.61749 6.61755 9.21626
#
# Compressibility (1/GPa) = 0.01938088
#
# Stress axis : x y z
#
# Youngs Moduli (GPa) = 134.78286 134.78566 147.43995
#
# Poissons Ratio (x) = -0.22509 0.20568
# Poissons Ratio (y) = -0.22509 0.20568
# Poissons Ratio (z) = 0.18802 0.18803
#
# Static dielectric constant tensor:
#      x y z
#    x 1.713360 0.000000 0.000000 
#    y 0.000000 1.713360 0.000000 
#    z 0.000000 0.000000 1.729150 
# 
# From -- ./inp_files/6591.got.cif
#   From: 2010.05.17/outbox.cif.g08.bks.cpg/sg139_4_cif.got.tgz:6591.got - 2010.05.20 13:14:44.
