data_PCOD9571569
_publ_section_title
;
Structure prediction by ZEFSAII (Michael W. Deem and Ramdas Pophale) SiO2 
 PCOD9571569
Probable space group: I 4/M M M
;
_chemical_formula_sum "Si O2"
_cell_formula_units_Z 160
_cell_length_a 30.217013
_cell_length_b 30.217013
_cell_length_c 10.624124
_cell_angle_alpha 90.000000
_cell_angle_beta 90.000000
_cell_angle_gamma 90.000000
_cell_volume 9700.546321
_symmetry_space_group_name_H-M "I 4/M M M"
_symmetry_group_IT_number 139
_symmetry_cell_setting 'tetragonal'
loop_
_space_group_symop_operation_xyz
x,y,z
-y,x,z
-x,-y,z
y,-x,z
x,-y,-z
-x,y,-z
y,x,-z
-y,-x,-z
-x,-y,-z
y,-x,-z
x,y,-z
-y,x,-z
-x,y,z
x,-y,z
-y,-x,z
y,x,z
1/2+x,1/2+y,1/2+z
1/2-y,1/2+x,1/2+z
1/2-x,1/2-y,1/2+z
1/2+y,1/2-x,1/2+z
1/2+x,1/2-y,1/2-z
1/2-x,1/2+y,1/2-z
1/2+y,1/2+x,1/2-z
1/2-y,1/2-x,1/2-z
1/2-x,1/2-y,1/2-z
1/2+y,1/2-x,1/2-z
1/2+x,1/2+y,1/2-z
1/2-y,1/2+x,1/2-z
1/2-x,1/2+y,1/2+z
1/2+x,1/2-y,1/2+z
1/2-y,1/2-x,1/2+z
1/2+y,1/2+x,1/2+z
loop_
_atom_site_type_symbol
_atom_site_label
_atom_site_fract_x
_atom_site_fract_y
_atom_site_fract_z
Si Si1 0.871877 0.551991 0.500000
Si Si2 0.599385 0.740669 0.145574
Si Si3 0.647664 0.352337 0.851087
Si Si4 0.833409 0.592279 0.751008
Si Si5 0.500000 0.296378 0.141759
Si Si6 0.000000 0.866314 0.137739
Si Si7 0.374908 0.948139 0.500000
Si Si8 0.095325 0.095325 0.860768
O O1 0.881729 0.500000 0.500000
O O2 0.844606 0.565305 0.624826
O O3 0.916495 0.581853 0.500000
O O4 0.630900 0.698199 0.170912
O O5 0.606245 0.782622 0.234358
O O6 0.546894 0.728885 0.154259
O O7 0.607817 0.753423 0.000000
O O8 0.619090 0.380911 0.754429
O O9 0.638749 0.361252 0.000000
O O10 0.864948 0.635053 0.750000
O O11 0.847250 0.564205 0.874783
O O12 0.500000 0.332307 0.249636
O O13 0.500000 0.315414 0.000000
O O14 0.956238 0.895071 0.145656
O O15 0.000000 0.843614 0.000000
O O16 0.385735 0.000000 0.500000
O O17 0.111162 0.111162 0.000000
#
# Coordination Sequence:
#
# PCOD9571569 Si02
#       8
#    16  32  16  32  16  16  16  16
#     4  10  22  37  52  85 121 145 183 230 274 318
#     4  10  20  35  58  83 107 137 183 226 274 332
#     4  10  20  36  58  82 104 136 177 232 283 325
#     4  10  21  38  57  80 112 148 185 225 271 322
#     4  10  20  32  55  85 103 136 179 227 275 326
#     4  10  20  35  52  74 110 146 178 217 269 324
#     4  10  20  35  62  81 107 155 189 224 270 322
#     4  10  20  35  52  73 109 146 178 218 267 325
#
# _framework density 16.493915999999999
#
# number of rings (size 3 to 8) (size 9 to 14) (size 15 to 20)
#    0.000    2.000    3.000    0.600    2.800    0.400 
#    3.600    1.500    0.000    3.600    0.000    1.400 
#    0.000    0.000    0.000    0.000    0.000    0.000 
#
# Total GULP energy -445794.882738 kJ/mol
# GULP energy per Si atom -5572.436034 kJ/mol
# Density = 1.645638 g / cm^3
# Si number density = 16.493916 Si / 1000 Ang^3
#
#
#
# Elastic Constant Matrix: (Units=GPa)
#
#
# Indices 1 2 3 4 5 6 
#
# 1 74.9852 57.3448 52.6969 0.0000 0.0000 0.0000
# 2 57.3448 75.0015 52.7004 0.0000 0.0000 0.0000
# 3 52.6969 52.7004 119.1006 0.0000 0.0000 0.0000
# 4 0.0000 0.0000 0.0000 18.5191 0.0000 0.0000
# 5 0.0000 0.0000 0.0000 0.0000 18.5193 0.0000
# 6 0.0000 0.0000 0.0000 0.0000 0.0000 6.5308
#
#
#
# Elastic Compliance Matrix: (Units=1/GPa)
#
#
# Indices 1 2 3 4 5 6 
#
# 1 0.034169 -0.022497 -0.005164 0.000000 0.000000 0.000000
# 2 -0.022497 0.034161 -0.005162 0.000000 0.000000 0.000000
# 3 -0.005164 -0.005162 0.012965 0.000000 0.000000 0.000000
# 4 0.000000 0.000000 0.000000 0.053998 0.000000 0.000000
# 5 0.000000 0.000000 0.000000 0.000000 0.053998 0.000000
# 6 0.000000 0.000000 0.000000 0.000000 0.000000 0.153120
#
#
# Mechanical properties :
#
#
# Convention : Reuss Voigt Hill
#
# Bulk Modulus (GPa) = 63.89729 66.06349 64.98039
# Shear Modulus (GPa) = 12.09855 15.80354 13.95105
#
# Velocity S-wave (km/s) = 2.71129 3.09875 2.91147
# Velocity P-wave (km/s) = 6.97320 7.27621 7.12631
#
# Compressibility (1/GPa) = 0.01565012
#
# Stress axis : x y z
#
# Youngs Moduli (GPa) = 29.26604 29.27351 77.13021
#
# Poissons Ratio (x) = 0.65856 0.39830
# Poissons Ratio (y) = 0.65839 0.39813
# Poissons Ratio (z) = 0.15113 0.15110
#
# Static dielectric constant tensor:
#      x y z
#    x 1.525830 0.000000 0.000000 
#    y 0.000000 1.525820 0.000000 
#    z 0.000000 0.000000 1.562370 
# 
# From -- ./inp_files/2359.got.cif
#   From: 2010.05.17/outbox.cif.g08.bks.cpg/sg139_2_cif.got.tgz:2359.got - 2010.05.20 13:14:44.
