data_PCOD9571039
_publ_section_title
;
Structure prediction by ZEFSAII (Michael W. Deem and Ramdas Pophale) SiO2 
 PCOD9571039
Probable space group: P 42/N C M
;
_chemical_formula_sum "Si O2"
_cell_formula_units_Z 72
_cell_length_a 20.683636
_cell_length_b 20.683636
_cell_length_c 7.983911
_cell_angle_alpha 90.000000
_cell_angle_beta 90.000000
_cell_angle_gamma 90.000000
_cell_volume 3415.619305
_symmetry_space_group_name_H-M "P 42/N C M"
_symmetry_group_IT_number 138
_space_group.IT_coordinate_system_code '2'
_symmetry_cell_setting 'tetragonal'
loop_
_space_group_symop_operation_xyz
x,y,z
1/2-y,x,1/2+z
1/2-x,1/2-y,z
y,1/2-x,1/2+z
1/2+x,-y,1/2-z
-x,1/2+y,1/2-z
1/2+y,1/2+x,-z
-y,-x,-z
-x,-y,-z
1/2+y,-x,1/2-z
1/2+x,1/2+y,-z
-y,1/2+x,1/2-z
1/2-x,y,1/2+z
x,1/2-y,1/2+z
1/2-y,1/2-x,z
y,x,z
loop_
_atom_site_type_symbol
_atom_site_label
_atom_site_fract_x
_atom_site_fract_y
_atom_site_fract_z
Si Si1 0.697246 0.967448 0.804339
Si Si2 0.565373 0.565373 0.140334
Si Si3 0.881986 0.311449 0.139060
Si Si4 0.322016 0.677985 0.000000
Si Si5 0.533825 0.533825 0.757040
Si Si6 0.834744 0.932383 0.660995
O O1 0.639857 0.952954 0.673516
O O2 0.768470 0.951203 0.743676
O O3 0.700124 0.041968 0.860350
O O4 0.678872 0.926415 0.966010
O O5 0.520402 0.520402 0.260465
O O6 0.546689 0.546689 0.952684
O O7 0.864751 0.329138 0.331580
O O8 0.864027 0.364027 0.000000
O O9 0.840832 0.248358 0.077438
O O10 0.604868 0.518043 0.683020
O O11 0.866477 0.866477 0.729514
#
# Coordination Sequence:
#
# PCOD9571039 Si02
#       6
#    16   8  16   8   8  16
#     4  12  25  45  72 105 137 187 236 312 353 445
#     4  11  23  43  74 102 148 176 241 290 374 411
#     4  12  27  41  70  98 145 191 245 293 365 430
#     4  12  25  46  62  97 136 196 237 302 348 438
#     4   9  23  43  71 105 139 195 221 298 349 453
#     4  10  24  46  72  97 144 180 238 290 362 437
#
# _framework density 21.079632
#
# number of rings (size 3 to 8) (size 9 to 14) (size 15 to 20)
#    0.667    0.222    3.333    3.000    3.111    2.667 
#    0.000    0.556    0.000    0.000    0.000    0.000 
#    0.000    0.000    0.000    0.000    0.000    0.000 
#
# Total GULP energy -401726.694345 kJ/mol
# GULP energy per Si atom -5579.537421 kJ/mol
# Density = 2.103165 g / cm^3
# Si number density = 21.079632 Si / 1000 Ang^3
#
#
#
# Elastic Constant Matrix: (Units=GPa)
#
#
# Indices 1 2 3 4 5 6 
#
# 1 111.0364 63.6313 16.0029 0.0000 0.0000 0.0000
# 2 63.6313 111.0373 16.0025 0.0000 0.0000 0.0000
# 3 16.0029 16.0025 95.4074 0.0000 0.0000 0.0000
# 4 0.0000 0.0000 0.0000 38.3397 0.0000 0.0000
# 5 0.0000 0.0000 0.0000 0.0000 38.3395 0.0000
# 6 0.0000 0.0000 0.0000 0.0000 0.0000 24.7453
#
#
#
# Elastic Compliance Matrix: (Units=1/GPa)
#
#
# Indices 1 2 3 4 5 6 
#
# 1 0.013501 -0.007594 -0.000991 0.000000 0.000000 0.000000
# 2 -0.007594 0.013501 -0.000991 0.000000 0.000000 0.000000
# 3 -0.000991 -0.000991 0.010814 0.000000 0.000000 0.000000
# 4 0.000000 0.000000 0.000000 0.026083 0.000000 0.000000
# 5 0.000000 0.000000 0.000000 0.000000 0.026083 0.000000
# 6 0.000000 0.000000 0.000000 0.000000 0.000000 0.040412
#
#
# Mechanical properties :
#
#
# Convention : Reuss Voigt Hill
#
# Bulk Modulus (GPa) = 53.57861 56.52827 55.05344
# Shear Modulus (GPa) = 32.09979 35.07452 33.58716
#
# Velocity S-wave (km/s) = 3.90652 4.08353 3.99600
# Velocity P-wave (km/s) = 6.76907 7.00773 6.88944
#
# Compressibility (1/GPa) = 0.01866417
#
# Stress axis : x y z
#
# Youngs Moduli (GPa) = 74.07028 74.07099 92.47515
#
# Poissons Ratio (x) = 0.56249 0.09162
# Poissons Ratio (y) = 0.56249 0.09161
# Poissons Ratio (z) = 0.07339 0.07338
#
# Static dielectric constant tensor:
#      x y z
#    x 1.849870 0.000000 0.000000 
#    y 0.000000 1.849860 0.000000 
#    z 0.000000 0.000000 1.774550 
# 
# From -- ./inp_files/1559.got.cif
#   From: 2010.05.17/outbox.cif.g08.bks.cpg/sg138_1_cif.got.tgz:1559.got - 2010.05.20 13:08:53.
