data_PCOD9571454
_publ_section_title
;
Structure prediction by ZEFSAII (Michael W. Deem and Ramdas Pophale) SiO2 
 PCOD9571454
Probable space group: I 4/M M M
;
_chemical_formula_sum "Si O2"
_cell_formula_units_Z 176
_cell_length_a 24.029866
_cell_length_b 24.029866
_cell_length_c 18.703149
_cell_angle_alpha 90.000000
_cell_angle_beta 90.000000
_cell_angle_gamma 90.000000
_cell_volume 10799.842743
_symmetry_space_group_name_H-M "I 4/M M M"
_symmetry_group_IT_number 139
_symmetry_cell_setting 'tetragonal'
loop_
_space_group_symop_operation_xyz
x,y,z
-y,x,z
-x,-y,z
y,-x,z
x,-y,-z
-x,y,-z
y,x,-z
-y,-x,-z
-x,-y,-z
y,-x,-z
x,y,-z
-y,x,-z
-x,y,z
x,-y,z
-y,-x,z
y,x,z
1/2+x,1/2+y,1/2+z
1/2-y,1/2+x,1/2+z
1/2-x,1/2-y,1/2+z
1/2+y,1/2-x,1/2+z
1/2+x,1/2-y,1/2-z
1/2-x,1/2+y,1/2-z
1/2+y,1/2+x,1/2-z
1/2-y,1/2-x,1/2-z
1/2-x,1/2-y,1/2-z
1/2+y,1/2-x,1/2-z
1/2+x,1/2+y,1/2-z
1/2-y,1/2+x,1/2-z
1/2-x,1/2+y,1/2+z
1/2+x,1/2-y,1/2+z
1/2-y,1/2-x,1/2+z
1/2+y,1/2+x,1/2+z
loop_
_atom_site_type_symbol
_atom_site_label
_atom_site_fract_x
_atom_site_fract_y
_atom_site_fract_z
Si Si1 0.347152 0.158746 0.917698
Si Si2 0.566074 0.341530 0.000000
Si Si3 0.935097 0.631178 0.192404
Si Si4 0.564531 0.738234 0.724509
Si Si5 0.719201 0.625277 0.580099
Si Si6 0.717893 0.625939 0.131704
O O1 0.371021 0.106200 0.874941
O O2 0.280126 0.153305 0.915222
O O3 0.364256 0.217311 0.884118
O O4 0.364614 0.157598 0.000000
O O5 0.586317 0.307733 0.929707
O O6 0.500000 0.348953 0.000000
O O7 0.600832 0.399169 0.000000
O O8 0.912465 0.587536 0.250000
O O9 0.929015 0.694401 0.222473
O O10 0.000000 0.622978 0.175190
O O11 0.500000 0.725873 0.736265
O O12 0.583954 0.716562 0.647013
O O13 0.600155 0.713686 0.789370
O O14 0.715333 0.599865 0.500000
O O15 0.671964 0.671964 0.586089
O O16 0.683096 0.683096 0.127481
#
# Coordination Sequence:
#
# PCOD9571454 Si02
#       6
#    32  16  32  32  32  32
#     4  10  19  33  52  78 108 136 170 212 269 321
#     4  10  22  37  54  78 105 139 177 213 259 315
#     4  10  20  35  53  73  99 137 182 221 262 309
#     4  10  20  33  50  73 104 140 178 216 260 313
#     4   9  18  31  49  75 107 138 170 211 260 316
#     4  11  20  32  54  80 107 136 170 214 267 324
#
# _framework density 16.296533
#
# number of rings (size 3 to 8) (size 9 to 14) (size 15 to 20)
#    0.000    2.000    2.727    1.636    0.000    1.727 
#    0.000    6.364    0.000    0.000    0.000    1.273 
#    0.000    3.273    0.000    8.000    0.000    0.364 
#
# Total GULP energy -490722.485667 kJ/mol
# GULP energy per Si atom -5576.391883 kJ/mol
# Density = 1.625944 g / cm^3
# Si number density = 16.296533 Si / 1000 Ang^3
#
#
#
# Elastic Constant Matrix: (Units=GPa)
#
#
# Indices 1 2 3 4 5 6 
#
# 1 72.3015 45.2928 44.6053 0.0000 0.0000 0.0000
# 2 45.2928 72.3017 44.6075 0.0000 0.0000 0.0000
# 3 44.6053 44.6075 117.8218 0.0000 0.0000 0.0000
# 4 0.0000 0.0000 0.0000 16.3769 0.0000 0.0000
# 5 0.0000 0.0000 0.0000 0.0000 16.3765 0.0000
# 6 0.0000 0.0000 0.0000 0.0000 0.0000 9.5890
#
#
#
# Elastic Compliance Matrix: (Units=1/GPa)
#
#
# Indices 1 2 3 4 5 6 
#
# 1 0.024477 -0.012547 -0.004516 0.000000 0.000000 0.000000
# 2 -0.012547 0.024478 -0.004517 0.000000 0.000000 0.000000
# 3 -0.004516 -0.004517 0.011907 0.000000 0.000000 0.000000
# 4 0.000000 0.000000 0.000000 0.061062 0.000000 0.000000
# 5 0.000000 0.000000 0.000000 0.000000 0.061063 0.000000
# 6 0.000000 0.000000 0.000000 0.000000 0.000000 0.104287
#
#
# Mechanical properties :
#
#
# Convention : Reuss Voigt Hill
#
# Bulk Modulus (GPa) = 56.49327 59.04848 57.77087
# Shear Modulus (GPa) = 14.86609 16.99644 15.93126
#
# Velocity S-wave (km/s) = 3.02358 3.23297 3.13003
# Velocity P-wave (km/s) = 6.85058 7.08862 6.97062
#
# Compressibility (1/GPa) = 0.01770122
#
# Stress axis : x y z
#
# Youngs Moduli (GPa) = 40.85405 40.85299 83.98115
#
# Poissons Ratio (x) = 0.51259 0.37928
# Poissons Ratio (y) = 0.51261 0.37936
# Poissons Ratio (z) = 0.18451 0.18454
#
# Static dielectric constant tensor:
#      x y z
#    x 1.524080 0.000000 0.000000 
#    y 0.000000 1.524070 0.000000 
#    z 0.000000 0.000000 1.555220 
# 
# From -- ./inp_files/6380.got.cif
#   From: 2010.05.17/outbox.cif.g08.bks.cpg/sg139_4_cif.got.tgz:6380.got - 2010.05.20 13:14:44.
