data_PCOD9571817
_publ_section_title
;
Structure prediction by ZEFSAII (Michael W. Deem and Ramdas Pophale) SiO2 
 PCOD9571817
Probable space group: I 4/M M M
;
_chemical_formula_sum "Si O2"
_cell_formula_units_Z 160
_cell_length_a 17.292042
_cell_length_b 17.292042
_cell_length_c 27.469410
_cell_angle_alpha 90.000000
_cell_angle_beta 90.000000
_cell_angle_gamma 90.000000
_cell_volume 8213.757844
_symmetry_space_group_name_H-M "I 4/M M M"
_symmetry_group_IT_number 139
_symmetry_cell_setting 'tetragonal'
loop_
_space_group_symop_operation_xyz
x,y,z
-y,x,z
-x,-y,z
y,-x,z
x,-y,-z
-x,y,-z
y,x,-z
-y,-x,-z
-x,-y,-z
y,-x,-z
x,y,-z
-y,x,-z
-x,y,z
x,-y,z
-y,-x,z
y,x,z
1/2+x,1/2+y,1/2+z
1/2-y,1/2+x,1/2+z
1/2-x,1/2-y,1/2+z
1/2+y,1/2-x,1/2+z
1/2+x,1/2-y,1/2-z
1/2-x,1/2+y,1/2-z
1/2+y,1/2+x,1/2-z
1/2-y,1/2-x,1/2-z
1/2-x,1/2-y,1/2-z
1/2+y,1/2-x,1/2-z
1/2+x,1/2+y,1/2-z
1/2-y,1/2+x,1/2-z
1/2-x,1/2+y,1/2+z
1/2+x,1/2-y,1/2+z
1/2-y,1/2-x,1/2+z
1/2+y,1/2+x,1/2+z
loop_
_atom_site_type_symbol
_atom_site_label
_atom_site_fract_x
_atom_site_fract_y
_atom_site_fract_z
Si Si1 0.714518 0.087664 0.736747
Si Si2 0.412347 0.712615 0.338527
Si Si3 0.000000 0.409161 0.445720
Si Si4 0.835587 0.355692 0.589264
Si Si5 0.775311 0.094312 0.000000
Si Si6 0.590878 0.711360 0.869915
O O1 0.649729 0.149729 0.750000
O O2 0.776247 0.091340 0.780539
O O3 0.754032 0.100744 0.684614
O O4 0.682683 0.000000 0.736582
O O5 0.500000 0.694062 0.352863
O O6 0.352414 0.647586 0.354718
O O7 0.387847 0.793274 0.362949
O O8 0.079339 0.389783 0.418948
O O9 0.000000 0.500000 0.451537
O O10 0.000000 0.372566 0.500000
O O11 0.777429 0.379863 0.546114
O O12 0.856294 0.265981 0.596212
O O13 0.854537 0.145463 0.000000
O O14 0.785661 0.000000 0.000000
O O15 0.500000 0.715360 0.882313
O O16 0.625921 0.625921 0.871175
#
# Coordination Sequence:
#
# PCOD9571817 Si02
#       6
#    32  32  16  32  16  32
#     4  10  21  37  58  87 121 162 204 247 300 360
#     4  11  23  39  61  89 123 164 207 252 301 358
#     4  11  22  40  64  90 125 155 191 251 310 367
#     4  12  23  40  63  94 121 158 205 248 306 369
#     4  12  26  44  67  95 128 166 208 254 303 362
#     4  11  23  40  62  90 122 161 208 254 306 364
#
# _framework density 19.479513000000001
#
# number of rings (size 3 to 8) (size 9 to 14) (size 15 to 20)
#    0.000    0.900    4.000    4.200    0.000    1.500 
#    0.000    0.000    0.000    6.000    0.000    0.000 
#    0.000    3.200    0.000    0.000    0.000    0.000 
#
# Total GULP energy -446595.729163 kJ/mol
# GULP energy per Si atom -5582.446615 kJ/mol
# Density = 1.943518 g / cm^3
# Si number density = 19.479513 Si / 1000 Ang^3
#
#
#
# Elastic Constant Matrix: (Units=GPa)
#
#
# Indices 1 2 3 4 5 6 
#
# 1 110.5415 101.9743 30.4525 0.0000 0.0000 0.0000
# 2 101.9743 110.5425 30.4519 0.0000 0.0000 0.0000
# 3 30.4525 30.4519 52.6266 0.0000 0.0000 0.0000
# 4 0.0000 0.0000 0.0000 25.9167 0.0000 0.0000
# 5 0.0000 0.0000 0.0000 0.0000 25.9152 0.0000
# 6 0.0000 0.0000 0.0000 0.0000 0.0000 -1.5139
#
#
#
# Elastic Compliance Matrix: (Units=1/GPa)
#
#
# Indices 1 2 3 4 5 6 
#
# 1 0.061179 -0.055538 -0.003265 0.000000 0.000000 0.000000
# 2 -0.055538 0.061178 -0.003263 0.000000 0.000000 0.000000
# 3 -0.003265 -0.003263 0.022779 0.000000 0.000000 0.000000
# 4 0.000000 0.000000 0.000000 0.038585 0.000000 0.000000
# 5 0.000000 0.000000 0.000000 0.000000 0.038587 0.000000
# 6 0.000000 0.000000 0.000000 0.000000 0.000000 -0.660543
#
#
# Mechanical properties :
#
#
# Convention : Reuss Voigt Hill
#
# Bulk Modulus (GPa) = 47.60821 66.60757 57.10789
# Shear Modulus (GPa) = -16.28134 17.45239 0.58552
#
# Velocity S-wave (km/s) = -2.89419 2.99647 0.54885
# Velocity P-wave (km/s) = 3.65031 6.79997 5.45731
#
# Compressibility (1/GPa) = 0.02100478
#
# Stress axis : x y z
#
# Youngs Moduli (GPa) = 16.34540 16.34568 43.89937
#
# Poissons Ratio (x) = 0.90780 0.14334
# Poissons Ratio (y) = 0.90779 0.14325
# Poissons Ratio (z) = 0.05337 0.05334
#
# Static dielectric constant tensor:
#      x y z
#    x 1.699860 0.000000 0.000000 
#    y 0.000000 1.699860 0.000000 
#    z 0.000000 0.000000 1.731010 
# 
# From -- ./inp_files/13028.got.cif
#   From: 2010.05.17/outbox.cif.g08.bks.cpg/sg139_7_cif.got.tgz:13028.got - 2010.05.20 13:14:44.
