data_PCOD9571141
_publ_section_title
;
Structure prediction by ZEFSAII (Michael W. Deem and Ramdas Pophale) SiO2 
 PCOD9571141
Probable space group: I 4/M M M
;
_chemical_formula_sum "Si O2"
_cell_formula_units_Z 176
_cell_length_a 28.594285
_cell_length_b 28.594285
_cell_length_c 14.442719
_cell_angle_alpha 90.000000
_cell_angle_beta 90.000000
_cell_angle_gamma 90.000000
_cell_volume 11808.845609
_symmetry_space_group_name_H-M "I 4/M M M"
_symmetry_group_IT_number 139
_symmetry_cell_setting 'tetragonal'
loop_
_space_group_symop_operation_xyz
x,y,z
-y,x,z
-x,-y,z
y,-x,z
x,-y,-z
-x,y,-z
y,x,-z
-y,-x,-z
-x,-y,-z
y,-x,-z
x,y,-z
-y,x,-z
-x,y,z
x,-y,z
-y,-x,z
y,x,z
1/2+x,1/2+y,1/2+z
1/2-y,1/2+x,1/2+z
1/2-x,1/2-y,1/2+z
1/2+y,1/2-x,1/2+z
1/2+x,1/2-y,1/2-z
1/2-x,1/2+y,1/2-z
1/2+y,1/2+x,1/2-z
1/2-y,1/2-x,1/2-z
1/2-x,1/2-y,1/2-z
1/2+y,1/2-x,1/2-z
1/2+x,1/2+y,1/2-z
1/2-y,1/2+x,1/2-z
1/2-x,1/2+y,1/2+z
1/2+x,1/2-y,1/2+z
1/2-y,1/2-x,1/2+z
1/2+y,1/2+x,1/2+z
loop_
_atom_site_type_symbol
_atom_site_label
_atom_site_fract_x
_atom_site_fract_y
_atom_site_fract_z
Si Si1 0.131966 0.500000 0.206380
Si Si2 0.000000 0.733724 0.611032
Si Si3 0.302395 0.101997 0.891065
Si Si4 0.094144 0.629654 0.609851
Si Si5 0.242496 0.397578 0.107291
Si Si6 0.672942 0.748010 0.265916
Si Si7 0.822849 0.500000 0.392271
O O1 0.185845 0.500000 0.168919
O O2 0.112702 0.451656 0.164367
O O3 0.135807 0.500000 0.317046
O O4 0.049353 0.758847 0.628900
O O5 0.000000 0.721500 0.500000
O O6 0.356036 0.109464 0.858583
O O7 0.267408 0.135772 0.839090
O O8 0.293493 0.047132 0.877462
O O9 0.301913 0.112737 0.000000
O O10 0.088054 0.619845 0.500000
O O11 0.099658 0.685935 0.619133
O O12 0.260537 0.357137 0.173457
O O13 0.251974 0.387445 0.000000
O O14 0.702672 0.702672 0.293456
O O15 0.710515 0.789486 0.250000
O O16 0.838901 0.500000 0.500000
#
# Coordination Sequence:
#
# PCOD9571141 Si02
#       7
#    16  16  32  32  32  32  16
#     4  10  16  24  44  65  87 107 132 181 225 273
#     4   8  14  24  44  70  85 101 141 184 226 271
#     4  10  20  35  49  63  87 113 148 191 229 269
#     4   9  16  27  46  67  84 106 138 180 229 273
#     4   9  16  28  44  64  89 114 142 185 228 263
#     4  11  22  31  43  64  88 118 157 185 219 274
#     4  10  22  32  44  65  82 111 150 183 223 269
#
# _framework density 14.904082000000001
#
# number of rings (size 3 to 8) (size 9 to 14) (size 15 to 20)
#    0.000    2.364    1.818    4.091    0.000    0.727 
#    0.000    1.818    0.000    0.545    0.000    4.455 
#    0.000    0.000    0.000    0.000    0.000    7.273 
#
# Total GULP energy -490554.666811 kJ/mol
# GULP energy per Si atom -5574.484850 kJ/mol
# Density = 1.487016 g / cm^3
# Si number density = 14.904082 Si / 1000 Ang^3
#
#
#
# Elastic Constant Matrix: (Units=GPa)
#
#
# Indices 1 2 3 4 5 6 
#
# 1 69.2371 54.2450 39.4148 0.0000 0.0000 0.0000
# 2 54.2450 69.2379 39.4153 0.0000 0.0000 0.0000
# 3 39.4148 39.4153 60.7023 0.0000 0.0000 0.0000
# 4 0.0000 0.0000 0.0000 15.5504 0.0000 0.0000
# 5 0.0000 0.0000 0.0000 0.0000 15.5498 0.0000
# 6 0.0000 0.0000 0.0000 0.0000 0.0000 5.6243
#
#
#
# Elastic Compliance Matrix: (Units=1/GPa)
#
#
# Indices 1 2 3 4 5 6 
#
# 1 0.040266 -0.026434 -0.008981 0.000000 0.000000 0.000000
# 2 -0.026434 0.040266 -0.008981 0.000000 0.000000 0.000000
# 3 -0.008981 -0.008981 0.028137 0.000000 0.000000 0.000000
# 4 0.000000 0.000000 0.000000 0.064307 0.000000 0.000000
# 5 0.000000 0.000000 0.000000 0.000000 0.064310 0.000000
# 6 0.000000 0.000000 0.000000 0.000000 0.000000 0.177801
#
#
# Mechanical properties :
#
#
# Convention : Reuss Voigt Hill
#
# Bulk Modulus (GPa) = 50.31221 51.70305 51.00763
# Shear Modulus (GPa) = 9.79422 11.75171 10.77296
#
# Velocity S-wave (km/s) = 2.56627 2.81105 2.69145
# Velocity P-wave (km/s) = 6.52776 6.73067 6.62999
#
# Compressibility (1/GPa) = 0.01987589
#
# Stress axis : x y z
#
# Youngs Moduli (GPa) = 24.83482 24.83495 35.54010
#
# Poissons Ratio (x) = 0.65649 0.31919
# Poissons Ratio (y) = 0.65649 0.31920
# Poissons Ratio (z) = 0.22304 0.22305
#
# Static dielectric constant tensor:
#      x y z
#    x 1.495980 0.000000 0.000000 
#    y 0.000000 1.495980 0.000000 
#    z 0.000000 0.000000 1.553650 
# 
# From -- ./inp_files/6458.got.cif
#   From: 2010.05.17/outbox.cif.g08.bks.cpg/sg139_4_cif.got.tgz:6458.got - 2010.05.20 13:14:44.
