data_PCOD9571780
_publ_section_title
;
Structure prediction by ZEFSAII (Michael W. Deem and Ramdas Pophale) SiO2 
 PCOD9571780
Probable space group: I 4/M M M
;
_chemical_formula_sum "Si O2"
_cell_formula_units_Z 224
_cell_length_a 23.469264
_cell_length_b 23.469264
_cell_length_c 24.745723
_cell_angle_alpha 90.000000
_cell_angle_beta 90.000000
_cell_angle_gamma 90.000000
_cell_volume 13630.101431
_symmetry_space_group_name_H-M "I 4/M M M"
_symmetry_group_IT_number 139
_symmetry_cell_setting 'tetragonal'
loop_
_space_group_symop_operation_xyz
x,y,z
-y,x,z
-x,-y,z
y,-x,z
x,-y,-z
-x,y,-z
y,x,-z
-y,-x,-z
-x,-y,-z
y,-x,-z
x,y,-z
-y,x,-z
-x,y,z
x,-y,z
-y,-x,z
y,x,z
1/2+x,1/2+y,1/2+z
1/2-y,1/2+x,1/2+z
1/2-x,1/2-y,1/2+z
1/2+y,1/2-x,1/2+z
1/2+x,1/2-y,1/2-z
1/2-x,1/2+y,1/2-z
1/2+y,1/2+x,1/2-z
1/2-y,1/2-x,1/2-z
1/2-x,1/2-y,1/2-z
1/2+y,1/2-x,1/2-z
1/2+x,1/2+y,1/2-z
1/2-y,1/2+x,1/2-z
1/2-x,1/2+y,1/2+z
1/2+x,1/2-y,1/2+z
1/2-y,1/2-x,1/2+z
1/2+y,1/2+x,1/2+z
loop_
_atom_site_type_symbol
_atom_site_label
_atom_site_fract_x
_atom_site_fract_y
_atom_site_fract_z
Si Si1 0.432015 0.065329 0.907229
Si Si2 0.773173 0.320146 0.165849
Si Si3 0.839084 0.346102 0.939780
Si Si4 0.216355 0.877448 0.061468
Si Si5 0.062692 0.630143 0.207980
Si Si6 0.257449 0.121843 0.221112
Si Si7 0.842069 0.933469 0.161126
O O1 0.500000 0.075983 0.907491
O O2 0.395312 0.113270 0.937021
O O3 0.405797 0.067128 0.846700
O O4 0.423270 0.000000 0.926987
O O5 0.717037 0.282964 0.155333
O O6 0.797017 0.349337 0.111571
O O7 0.821502 0.276536 0.188623
O O8 0.762962 0.363307 0.215620
O O9 0.868172 0.283811 0.933371
O O10 0.812562 0.346834 0.000000
O O11 0.182640 0.817361 0.069801
O O12 0.191056 0.920143 0.105171
O O13 0.204593 0.895683 0.000000
O O14 0.108905 0.608905 0.250000
O O15 0.075017 0.696646 0.201367
O O16 0.000000 0.620472 0.230890
O O17 0.195993 0.099425 0.205277
O O18 0.902896 0.902896 0.157729
O O19 0.845285 0.000000 0.171624
#
# Coordination Sequence:
#
# PCOD9571780 Si02
#       7
#    32  32  32  32  32  32  32
#     4  10  21  36  50  66  95 137 180 217 253 293
#     4  11  20  33  54  78 106 132 159 201 260 318
#     4  11  21  34  53  75  99 130 170 214 258 302
#     4   9  18  33  53  78 107 136 170 216 265 305
#     4  11  19  30  49  75 105 135 173 213 255 298
#     4  11  19  34  54  78 102 134 166 206 255 307
#     4  11  22  36  54  76 104 137 174 213 257 306
#
# _framework density 16.434214000000001
#
# number of rings (size 3 to 8) (size 9 to 14) (size 15 to 20)
#    0.000    1.429    4.286    3.000    0.000    4.286 
#    0.000    2.857    0.000    0.000    0.000    2.000 
#    0.000    0.000    0.000    0.000    0.000    0.143 
#
# Total GULP energy -624885.262712 kJ/mol
# GULP energy per Si atom -5579.332703 kJ/mol
# Density = 1.639681 g / cm^3
# Si number density = 16.434214 Si / 1000 Ang^3
#
#
#
# Elastic Constant Matrix: (Units=GPa)
#
#
# Indices 1 2 3 4 5 6 
#
# 1 73.0625 36.8075 34.2182 0.0000 0.0000 0.0000
# 2 36.8075 73.0625 34.2182 0.0000 0.0000 0.0000
# 3 34.2182 34.2182 112.4372 0.0000 0.0000 0.0000
# 4 0.0000 0.0000 0.0000 12.5382 0.0000 0.0000
# 5 0.0000 0.0000 0.0000 0.0000 12.5382 0.0000
# 6 0.0000 0.0000 0.0000 0.0000 0.0000 23.3533
#
#
#
# Elastic Compliance Matrix: (Units=1/GPa)
#
#
# Indices 1 2 3 4 5 6 
#
# 1 0.019407 -0.008176 -0.003418 0.000000 0.000000 0.000000
# 2 -0.008176 0.019407 -0.003418 0.000000 0.000000 0.000000
# 3 -0.003418 -0.003418 0.010974 0.000000 0.000000 0.000000
# 4 0.000000 0.000000 0.000000 0.079757 0.000000 0.000000
# 5 0.000000 0.000000 0.000000 0.000000 0.079757 0.000000
# 6 0.000000 0.000000 0.000000 0.000000 0.000000 0.042820
#
#
# Mechanical properties :
#
#
# Convention : Reuss Voigt Hill
#
# Bulk Modulus (GPa) = 50.59698 52.11667 51.35683
# Shear Modulus (GPa) = 17.31710 19.90714 18.61212
#
# Velocity S-wave (km/s) = 3.24963 3.48418 3.36895
# Velocity P-wave (km/s) = 6.70332 6.92583 6.81549
#
# Compressibility (1/GPa) = 0.01976402
#
# Stress axis : x y z
#
# Youngs Moduli (GPa) = 51.52912 51.52912 91.12326
#
# Poissons Ratio (x) = 0.42130 0.31144
# Poissons Ratio (y) = 0.42130 0.31144
# Poissons Ratio (z) = 0.17612 0.17612
#
# Static dielectric constant tensor:
#      x y z
#    x 1.552080 0.000000 0.000000 
#    y 0.000000 1.552080 0.000000 
#    z 0.000000 0.000000 1.580330 
# 
# From -- ./inp_files/12173.got.cif
#   From: 2010.05.17/outbox.cif.g08.bks.cpg/sg139_7_cif.got.tgz:12173.got - 2010.05.20 13:14:44.
