data_PCOD9571578
_publ_section_title
;
Structure prediction by ZEFSAII (Michael W. Deem and Ramdas Pophale) SiO2 
 PCOD9571578
Probable space group: I 4/M M M
;
_chemical_formula_sum "Si O2"
_cell_formula_units_Z 116
_cell_length_a 28.279039
_cell_length_b 28.279039
_cell_length_c 8.971255
_cell_angle_alpha 90.000000
_cell_angle_beta 90.000000
_cell_angle_gamma 90.000000
_cell_volume 7174.348928
_symmetry_space_group_name_H-M "I 4/M M M"
_symmetry_group_IT_number 139
_symmetry_cell_setting 'tetragonal'
loop_
_space_group_symop_operation_xyz
x,y,z
-y,x,z
-x,-y,z
y,-x,z
x,-y,-z
-x,y,-z
y,x,-z
-y,-x,-z
-x,-y,-z
y,-x,-z
x,y,-z
-y,x,-z
-x,y,z
x,-y,z
-y,-x,z
y,x,z
1/2+x,1/2+y,1/2+z
1/2-y,1/2+x,1/2+z
1/2-x,1/2-y,1/2+z
1/2+y,1/2-x,1/2+z
1/2+x,1/2-y,1/2-z
1/2-x,1/2+y,1/2-z
1/2+y,1/2+x,1/2-z
1/2-y,1/2-x,1/2-z
1/2-x,1/2-y,1/2-z
1/2+y,1/2-x,1/2-z
1/2+x,1/2+y,1/2-z
1/2-y,1/2+x,1/2-z
1/2-x,1/2+y,1/2+z
1/2+x,1/2-y,1/2+z
1/2-y,1/2-x,1/2+z
1/2+y,1/2+x,1/2+z
loop_
_atom_site_type_symbol
_atom_site_label
_atom_site_fract_x
_atom_site_fract_y
_atom_site_fract_z
Si Si1 0.421650 0.578351 0.178006
Si Si2 0.000000 0.000000 0.241954
Si Si3 0.822989 0.943154 0.169707
Si Si4 0.227183 0.557524 0.171869
Si Si5 0.555833 0.128029 0.321997
O O1 0.458501 0.541500 0.250934
O O2 0.368612 0.567737 0.231193
O O3 0.426894 0.573107 0.000000
O O4 0.774233 0.925826 0.243236
O O5 0.819577 0.000000 0.162461
O O6 0.828959 0.925720 0.000000
O O7 0.228666 0.500000 0.171979
O O8 0.178734 0.570476 0.254375
O O9 0.226932 0.572931 0.000000
O O10 0.561439 0.128549 0.500000
O O11 0.500000 0.121183 0.288940
O O12 0.587080 0.087080 0.250000
#
# Coordination Sequence:
#
# PCOD9571578 Si02
#       5
#    16   4  32  32  32
#     4  12  22  35  50  69  97 136 176 212 255 305
#     4  12  25  36  49  70 105 144 181 218 253 308
#     4  10  20  33  48  69  95 126 165 210 256 302
#     4   9  17  31  51  72  94 125 165 210 253 296
#     4  10  20  33  50  74 105 139 172 208 248 295
#
# _framework density 16.168714999999999
#
# number of rings (size 3 to 8) (size 9 to 14) (size 15 to 20)
#    0.000    1.931    1.379    3.517    0.000    6.345 
#    0.000    2.759    0.000    0.000    0.000    0.966 
#    0.000    0.000    0.000    0.000    0.000    0.000 
#
# Total GULP energy -322972.056995 kJ/mol
# GULP energy per Si atom -5568.483741 kJ/mol
# Density = 1.613191 g / cm^3
# Si number density = 16.168715 Si / 1000 Ang^3
#
#
#
# Elastic Constant Matrix: (Units=GPa)
#
#
# Indices 1 2 3 4 5 6 
#
# 1 80.3490 44.1939 28.2055 0.0000 0.0000 0.0000
# 2 44.1939 80.3491 28.2054 0.0000 0.0000 0.0000
# 3 28.2055 28.2054 52.4014 0.0000 0.0000 0.0000
# 4 0.0000 0.0000 0.0000 23.4248 0.0000 0.0000
# 5 0.0000 0.0000 0.0000 0.0000 23.4247 0.0000
# 6 0.0000 0.0000 0.0000 0.0000 0.0000 20.6204
#
#
#
# Elastic Compliance Matrix: (Units=1/GPa)
#
#
# Indices 1 2 3 4 5 6 
#
# 1 0.019138 -0.008520 -0.005715 0.000000 0.000000 0.000000
# 2 -0.008520 0.019138 -0.005715 0.000000 0.000000 0.000000
# 3 -0.005715 -0.005715 0.025236 0.000000 0.000000 0.000000
# 4 0.000000 0.000000 0.000000 0.042690 0.000000 0.000000
# 5 0.000000 0.000000 0.000000 0.000000 0.042690 0.000000
# 6 0.000000 0.000000 0.000000 0.000000 0.000000 0.048496
#
#
# Mechanical properties :
#
#
# Convention : Reuss Voigt Hill
#
# Bulk Modulus (GPa) = 42.35291 46.03433 44.19362
# Shear Modulus (GPa) = 20.39482 20.99360 20.69421
#
# Velocity S-wave (km/s) = 3.55544 3.60725 3.58144
# Velocity P-wave (km/s) = 6.56552 6.77368 6.67041
#
# Compressibility (1/GPa) = 0.02361113
#
# Stress axis : x y z
#
# Youngs Moduli (GPa) = 52.25110 52.25122 39.62593
#
# Poissons Ratio (x) = 0.44520 0.22647
# Poissons Ratio (y) = 0.44519 0.22647
# Poissons Ratio (z) = 0.29863 0.29863
#
# Static dielectric constant tensor:
#      x y z
#    x 1.524360 0.000000 0.000000 
#    y 0.000000 1.524360 0.000000 
#    z 0.000000 0.000000 1.561650 
# 
# From -- ./inp_files/1515.got.cif
#   From: 2010.05.17/outbox.cif.g08.bks.cpg/sg139_1_cif.got.tgz:1515.got - 2010.05.20 13:14:44.
