data_PCOD9571371
_publ_section_title
;
Structure prediction by ZEFSAII (Michael W. Deem and Ramdas Pophale) SiO2 
 PCOD9571371
Probable space group: I 4/M M M
;
_chemical_formula_sum "Si O2"
_cell_formula_units_Z 192
_cell_length_a 20.467076
_cell_length_b 20.467076
_cell_length_c 26.279452
_cell_angle_alpha 90.000000
_cell_angle_beta 90.000000
_cell_angle_gamma 90.000000
_cell_volume 11008.493978
_symmetry_space_group_name_H-M "I 4/M M M"
_symmetry_group_IT_number 139
_symmetry_cell_setting 'tetragonal'
loop_
_space_group_symop_operation_xyz
x,y,z
-y,x,z
-x,-y,z
y,-x,z
x,-y,-z
-x,y,-z
y,x,-z
-y,-x,-z
-x,-y,-z
y,-x,-z
x,y,-z
-y,x,-z
-x,y,z
x,-y,z
-y,-x,z
y,x,z
1/2+x,1/2+y,1/2+z
1/2-y,1/2+x,1/2+z
1/2-x,1/2-y,1/2+z
1/2+y,1/2-x,1/2+z
1/2+x,1/2-y,1/2-z
1/2-x,1/2+y,1/2-z
1/2+y,1/2+x,1/2-z
1/2-y,1/2-x,1/2-z
1/2-x,1/2-y,1/2-z
1/2+y,1/2-x,1/2-z
1/2+x,1/2+y,1/2-z
1/2-y,1/2+x,1/2-z
1/2-x,1/2+y,1/2+z
1/2+x,1/2-y,1/2+z
1/2-y,1/2-x,1/2+z
1/2+y,1/2+x,1/2+z
loop_
_atom_site_type_symbol
_atom_site_label
_atom_site_fract_x
_atom_site_fract_y
_atom_site_fract_z
Si Si1 0.654738 0.761317 0.945004
Si Si2 0.927836 0.424424 0.881629
Si Si3 0.576340 0.310991 0.646346
Si Si4 0.792536 0.401485 0.558074
Si Si5 0.211383 0.425171 0.154817
Si Si6 0.359519 0.750350 0.744949
O O1 0.695809 0.695809 0.945441
O O2 0.703550 0.822828 0.941675
O O3 0.612913 0.764513 0.894527
O O4 0.619861 0.768530 0.000000
O O5 0.921614 0.500000 0.901791
O O6 0.922392 0.365022 0.922012
O O7 0.867225 0.414466 0.843800
O O8 0.000000 0.419816 0.858274
O O9 0.500000 0.330044 0.654875
O O10 0.627172 0.372829 0.642637
O O11 0.578378 0.264820 0.596328
O O12 0.602505 0.264768 0.692636
O O13 0.782616 0.423086 0.500000
O O14 0.222634 0.500000 0.144747
O O15 0.245813 0.405639 0.206531
O O16 0.308685 0.691316 0.750713
O O17 0.315679 0.815679 0.750000
#
# Coordination Sequence:
#
# PCOD9571371 Si02
#       6
#    32  32  32  32  32  32
#     4   9  17  30  49  73 102 134 166 202 246 296
#     4   9  18  31  47  72 107 145 180 208 243 302
#     4  11  24  40  58  80 106 138 180 230 281 333
#     4  10  20  34  54  78 102 132 173 221 271 322
#     4  10  19  31  49  72 100 133 167 204 243 286
#     4  10  20  35  56  79 102 129 164 208 260 319
#
# _framework density 17.441077
#
# number of rings (size 3 to 8) (size 9 to 14) (size 15 to 20)
#    0.000    2.167    0.000    4.000    0.000    4.500 
#    0.000    5.000    0.000    1.000    0.000    3.500 
#    0.000    3.000    0.000    7.333    0.000    0.333 
#
# Total GULP energy -534586.297073 kJ/mol
# GULP energy per Si atom -5568.607261 kJ/mol
# Density = 1.740138 g / cm^3
# Si number density = 17.441077 Si / 1000 Ang^3
#
#
#
# Elastic Constant Matrix: (Units=GPa)
#
#
# Indices 1 2 3 4 5 6 
#
# 1 75.3663 32.3590 47.0784 0.0000 0.0000 0.0000
# 2 32.3590 75.3663 47.0784 0.0000 0.0000 0.0000
# 3 47.0784 47.0784 107.9285 0.0000 0.0000 0.0000
# 4 0.0000 0.0000 0.0000 79.3476 0.0000 0.0000
# 5 0.0000 0.0000 0.0000 0.0000 79.3476 0.0000
# 6 0.0000 0.0000 0.0000 0.0000 0.0000 13.5536
#
#
#
# Elastic Compliance Matrix: (Units=1/GPa)
#
#
# Indices 1 2 3 4 5 6 
#
# 1 0.019127 -0.004125 -0.006544 0.000000 0.000000 0.000000
# 2 -0.004125 0.019127 -0.006544 0.000000 0.000000 0.000000
# 3 -0.006544 -0.006544 0.014975 0.000000 0.000000 0.000000
# 4 0.000000 0.000000 0.000000 0.012603 0.000000 0.000000
# 5 0.000000 0.000000 0.000000 0.000000 0.012603 0.000000
# 6 0.000000 0.000000 0.000000 0.000000 0.000000 0.073781
#
#
# Mechanical properties :
#
#
# Convention : Reuss Voigt Hill
#
# Bulk Modulus (GPa) = 53.18211 56.85473 55.01842
# Shear Modulus (GPa) = 25.91884 43.25944 34.58914
#
# Velocity S-wave (km/s) = 3.85915 4.98568 4.45814
# Velocity P-wave (km/s) = 7.10043 8.11244 7.62324
#
# Compressibility (1/GPa) = 0.01880331
#
# Stress axis : x y z
#
# Youngs Moduli (GPa) = 52.28117 52.28117 66.77990
#
# Poissons Ratio (x) = 0.21563 0.43702
# Poissons Ratio (y) = 0.21563 0.43702
# Poissons Ratio (z) = 0.34214 0.34214
#
# Static dielectric constant tensor:
#      x y z
#    x 1.627020 0.000000 0.000000 
#    y 0.000000 1.627020 0.000000 
#    z 0.000000 0.000000 1.871460 
# 
# From -- ./inp_files/11964.got.cif
#   From: 2010.05.17/outbox.cif.g08.bks.cpg/sg139_6_cif.got.tgz:11964.got - 2010.05.20 13:14:44.
