data_PCOD9571631
_publ_section_title
;
Structure prediction by ZEFSAII (Michael W. Deem and Ramdas Pophale) SiO2 
 PCOD9571631
Probable space group: I 4/M M M
;
_chemical_formula_sum "Si O2"
_cell_formula_units_Z 104
_cell_length_a 15.991293
_cell_length_b 15.991293
_cell_length_c 22.016413
_cell_angle_alpha 90.000000
_cell_angle_beta 90.000000
_cell_angle_gamma 90.000000
_cell_volume 5630.069096
_symmetry_space_group_name_H-M "I 4/M M M"
_symmetry_group_IT_number 139
_symmetry_cell_setting 'tetragonal'
loop_
_space_group_symop_operation_xyz
x,y,z
-y,x,z
-x,-y,z
y,-x,z
x,-y,-z
-x,y,-z
y,x,-z
-y,-x,-z
-x,-y,-z
y,-x,-z
x,y,-z
-y,x,-z
-x,y,z
x,-y,z
-y,-x,z
y,x,z
1/2+x,1/2+y,1/2+z
1/2-y,1/2+x,1/2+z
1/2-x,1/2-y,1/2+z
1/2+y,1/2-x,1/2+z
1/2+x,1/2-y,1/2-z
1/2-x,1/2+y,1/2-z
1/2+y,1/2+x,1/2-z
1/2-y,1/2-x,1/2-z
1/2-x,1/2-y,1/2-z
1/2+y,1/2-x,1/2-z
1/2+x,1/2+y,1/2-z
1/2-y,1/2+x,1/2-z
1/2-x,1/2+y,1/2+z
1/2+x,1/2-y,1/2+z
1/2-y,1/2-x,1/2+z
1/2+y,1/2+x,1/2+z
loop_
_atom_site_type_symbol
_atom_site_label
_atom_site_fract_x
_atom_site_fract_y
_atom_site_fract_z
Si Si1 0.000000 0.768229 0.930712
Si Si2 0.091990 0.500000 0.384116
Si Si3 0.811417 0.188584 0.615137
Si Si4 0.899708 0.899708 0.500000
Si Si5 0.676570 0.323431 0.426507
Si Si6 0.903240 0.326962 0.307091
O O1 0.085781 0.798891 0.901992
O O2 0.000000 0.668598 0.929618
O O3 0.000000 0.798907 0.000000
O O4 0.099041 0.585514 0.345004
O O5 0.000000 0.500000 0.412479
O O6 0.858362 0.141639 0.560084
O O7 0.744898 0.255103 0.589249
O O8 0.753409 0.126231 0.654666
O O9 0.000000 0.885326 0.500000
O O10 0.673934 0.326067 0.500000
O O11 0.843243 0.343243 0.250000
O O12 0.000000 0.316608 0.287832
#
# Coordination Sequence:
#
# PCOD9571631 Si02
#       6
#    16  16  16   8  16  32
#     4  10  20  36  54  80 115 157 195 256 311 373
#     4  10  20  33  55  85 116 157 196 242 317 380
#     4  12  22  38  64  95 117 156 214 255 294 366
#     4  11  26  48  68  90 130 169 200 250 310 369
#     4  10  20  35  55  80 116 148 194 247 304 361
#     4  11  22  38  60  87 122 160 202 251 308 370
#
# _framework density 18.472242000000001
#
# number of rings (size 3 to 8) (size 9 to 14) (size 15 to 20)
#    0.000    1.308    5.385    1.385    0.000    0.615 
#    0.000    1.538    0.000    0.000    0.000    0.000 
#    0.000    0.000    0.000    0.000    0.000    0.000 
#
# Total GULP energy -289954.679603 kJ/mol
# GULP energy per Si atom -5576.051531 kJ/mol
# Density = 1.843020 g / cm^3
# Si number density = 18.472242 Si / 1000 Ang^3
#
#
#
# Elastic Constant Matrix: (Units=GPa)
#
#
# Indices 1 2 3 4 5 6 
#
# 1 113.6714 70.1172 38.5249 0.0000 0.0000 0.0000
# 2 70.1172 113.6721 38.5250 0.0000 0.0000 0.0000
# 3 38.5249 38.5250 66.0668 0.0000 0.0000 0.0000
# 4 0.0000 0.0000 0.0000 53.5283 0.0000 0.0000
# 5 0.0000 0.0000 0.0000 0.0000 53.5287 0.0000
# 6 0.0000 0.0000 0.0000 0.0000 0.0000 32.9365
#
#
#
# Elastic Compliance Matrix: (Units=1/GPa)
#
#
# Indices 1 2 3 4 5 6 
#
# 1 0.015081 -0.007879 -0.004199 0.000000 0.000000 0.000000
# 2 -0.007879 0.015081 -0.004199 0.000000 0.000000 0.000000
# 3 -0.004199 -0.004199 0.020034 0.000000 0.000000 0.000000
# 4 0.000000 0.000000 0.000000 0.018682 0.000000 0.000000
# 5 0.000000 0.000000 0.000000 0.000000 0.018682 0.000000
# 6 0.000000 0.000000 0.000000 0.000000 0.000000 0.030361
#
#
# Mechanical properties :
#
#
# Convention : Reuss Voigt Hill
#
# Bulk Modulus (GPa) = 56.69168 65.30494 60.99831
# Shear Modulus (GPa) = 31.97851 37.74826 34.86339
#
# Velocity S-wave (km/s) = 4.16524 4.52543 4.34906
# Velocity P-wave (km/s) = 7.34092 7.92059 7.63626
#
# Compressibility (1/GPa) = 0.01763927
#
# Stress axis : x y z
#
# Youngs Moduli (GPa) = 66.31009 66.31050 49.91594
#
# Poissons Ratio (x) = 0.52247 0.20962
# Poissons Ratio (y) = 0.52246 0.20962
# Poissons Ratio (z) = 0.27846 0.27846
#
# Static dielectric constant tensor:
#      x y z
#    x 1.632690 0.000000 0.000000 
#    y 0.000000 1.632690 0.000000 
#    z 0.000000 0.000000 1.650190 
# 
# From -- ./inp_files/11125.got.cif
#   From: 2010.05.17/outbox.cif.g08.bks.cpg/sg139_6_cif.got.tgz:11125.got - 2010.05.20 13:14:44.
