data_PCOD9571547
_publ_section_title
;
Structure prediction by ZEFSAII (Michael W. Deem and Ramdas Pophale) SiO2 
 PCOD9571547
Probable space group: I 4/M M M
;
_chemical_formula_sum "Si O2"
_cell_formula_units_Z 192
_cell_length_a 20.559001
_cell_length_b 20.559001
_cell_length_c 24.809381
_cell_angle_alpha 90.000000
_cell_angle_beta 90.000000
_cell_angle_gamma 90.000000
_cell_volume 10486.243639
_symmetry_space_group_name_H-M "I 4/M M M"
_symmetry_group_IT_number 139
_symmetry_cell_setting 'tetragonal'
loop_
_space_group_symop_operation_xyz
x,y,z
-y,x,z
-x,-y,z
y,-x,z
x,-y,-z
-x,y,-z
y,x,-z
-y,-x,-z
-x,-y,-z
y,-x,-z
x,y,-z
-y,x,-z
-x,y,z
x,-y,z
-y,-x,z
y,x,z
1/2+x,1/2+y,1/2+z
1/2-y,1/2+x,1/2+z
1/2-x,1/2-y,1/2+z
1/2+y,1/2-x,1/2+z
1/2+x,1/2-y,1/2-z
1/2-x,1/2+y,1/2-z
1/2+y,1/2+x,1/2-z
1/2-y,1/2-x,1/2-z
1/2-x,1/2-y,1/2-z
1/2+y,1/2-x,1/2-z
1/2+x,1/2+y,1/2-z
1/2-y,1/2+x,1/2-z
1/2-x,1/2+y,1/2+z
1/2+x,1/2-y,1/2+z
1/2-y,1/2-x,1/2+z
1/2+y,1/2+x,1/2+z
loop_
_atom_site_type_symbol
_atom_site_label
_atom_site_fract_x
_atom_site_fract_y
_atom_site_fract_z
Si Si1 0.784974 0.425873 0.060544
Si Si2 0.778572 0.391026 0.643778
Si Si3 0.812794 0.074965 0.242124
Si Si4 0.075676 0.176362 0.063973
Si Si5 0.069541 0.384482 0.938993
Si Si6 0.651151 0.759439 0.834090
O O1 0.763214 0.500000 0.066943
O O2 0.863736 0.423868 0.065469
O O3 0.757456 0.381146 0.107142
O O4 0.769053 0.403642 0.000000
O O5 0.733161 0.421876 0.689412
O O6 0.726938 0.379115 0.595764
O O7 0.833115 0.429092 0.609713
O O8 0.816543 0.330590 0.670389
O O9 0.873041 0.126960 0.237784
O O10 0.765493 0.099295 0.290383
O O11 0.834209 0.000000 0.250070
O O12 0.104909 0.104909 0.074587
O O13 0.000000 0.183038 0.080292
O O14 0.079008 0.187668 0.000000
O O15 0.000000 0.419694 0.936286
O O16 0.071878 0.354614 0.000000
O O17 0.710111 0.710111 0.829845
#
# Coordination Sequence:
#
# PCOD9571547 Si02
#       6
#    32  32  32  32  32  32
#     4   9  18  32  50  73 101 131 162 201 248 294
#     4  11  20  33  52  75 103 133 167 208 253 297
#     4  11  23  38  57  78 101 131 165 204 250 299
#     4  10  20  32  47  69 100 140 183 224 261 296
#     4   9  17  29  47  72 102 137 174 208 242 284
#     4  10  21  36  54  76 101 129 163 202 247 303
#
# _framework density 18.309702999999999
#
# number of rings (size 3 to 8) (size 9 to 14) (size 15 to 20)
#    0.000    2.000    0.000    4.500    0.000    4.333 
#    0.000    2.500    0.000    2.000    0.000    0.000 
#    0.000   14.667    0.000   15.500    0.000    0.000 
#
# Total GULP energy -534440.960066 kJ/mol
# GULP energy per Si atom -5567.093334 kJ/mol
# Density = 1.826803 g / cm^3
# Si number density = 18.309703 Si / 1000 Ang^3
#
#
#
# Elastic Constant Matrix: (Units=GPa)
#
#
# Indices 1 2 3 4 5 6 
#
# 1 66.9013 21.3473 26.8313 0.0000 0.0000 0.0000
# 2 21.3473 66.9013 26.8313 0.0000 0.0000 0.0000
# 3 26.8313 26.8313 73.9617 0.0000 0.0000 0.0000
# 4 0.0000 0.0000 0.0000 16.2791 0.0000 0.0000
# 5 0.0000 0.0000 0.0000 0.0000 16.2791 0.0000
# 6 0.0000 0.0000 0.0000 0.0000 0.0000 8.5516
#
#
#
# Elastic Compliance Matrix: (Units=1/GPa)
#
#
# Indices 1 2 3 4 5 6 
#
# 1 0.018245 -0.003707 -0.005274 0.000000 0.000000 0.000000
# 2 -0.003707 0.018245 -0.005274 0.000000 0.000000 0.000000
# 3 -0.005274 -0.005274 0.017347 0.000000 0.000000 0.000000
# 4 0.000000 0.000000 0.000000 0.061428 0.000000 0.000000
# 5 0.000000 0.000000 0.000000 0.000000 0.061428 0.000000
# 6 0.000000 0.000000 0.000000 0.000000 0.000000 0.116937
#
#
# Mechanical properties :
#
#
# Convention : Reuss Voigt Hill
#
# Bulk Modulus (GPa) = 39.48238 39.75377 39.61807
# Shear Modulus (GPa) = 15.12471 17.07226 16.09848
#
# Velocity S-wave (km/s) = 2.87722 3.05686 2.96840
# Velocity P-wave (km/s) = 5.71387 5.84963 5.78215
#
# Compressibility (1/GPa) = 0.02532776
#
# Stress axis : x y z
#
# Youngs Moduli (GPa) = 54.80831 54.80831 57.64605
#
# Poissons Ratio (x) = 0.20315 0.30404
# Poissons Ratio (y) = 0.20315 0.30404
# Poissons Ratio (z) = 0.28907 0.28907
#
# Static dielectric constant tensor:
#      x y z
#    x 1.641920 0.000000 0.000000 
#    y 0.000000 1.641920 0.000000 
#    z 0.000000 0.000000 1.644380 
# 
# From -- ./inp_files/11906.got.cif
#   From: 2010.05.17/outbox.cif.g08.bks.cpg/sg139_6_cif.got.tgz:11906.got - 2010.05.20 13:14:44.
