data_PCOD9571602
_publ_section_title
;
Structure prediction by ZEFSAII (Michael W. Deem and Ramdas Pophale) SiO2 
 PCOD9571602
Probable space group: I 4/M M M
;
_chemical_formula_sum "Si O2"
_cell_formula_units_Z 192
_cell_length_a 17.422532
_cell_length_b 17.422532
_cell_length_c 36.898584
_cell_angle_alpha 90.000000
_cell_angle_beta 90.000000
_cell_angle_gamma 90.000000
_cell_volume 11200.366706
_symmetry_space_group_name_H-M "I 4/M M M"
_symmetry_group_IT_number 139
_symmetry_cell_setting 'tetragonal'
loop_
_space_group_symop_operation_xyz
x,y,z
-y,x,z
-x,-y,z
y,-x,z
x,-y,-z
-x,y,-z
y,x,-z
-y,-x,-z
-x,-y,-z
y,-x,-z
x,y,-z
-y,x,-z
-x,y,z
x,-y,z
-y,-x,z
y,x,z
1/2+x,1/2+y,1/2+z
1/2-y,1/2+x,1/2+z
1/2-x,1/2-y,1/2+z
1/2+y,1/2-x,1/2+z
1/2+x,1/2-y,1/2-z
1/2-x,1/2+y,1/2-z
1/2+y,1/2+x,1/2-z
1/2-y,1/2-x,1/2-z
1/2-x,1/2-y,1/2-z
1/2+y,1/2-x,1/2-z
1/2+x,1/2+y,1/2-z
1/2-y,1/2+x,1/2-z
1/2-x,1/2+y,1/2+z
1/2+x,1/2-y,1/2+z
1/2-y,1/2-x,1/2+z
1/2+y,1/2+x,1/2+z
loop_
_atom_site_type_symbol
_atom_site_label
_atom_site_fract_x
_atom_site_fract_y
_atom_site_fract_z
Si Si1 0.500000 0.627519 0.645762
Si Si2 0.673764 0.803123 0.587809
Si Si3 0.272324 0.000000 0.903678
Si Si4 0.410650 0.714056 0.956382
Si Si5 0.832612 0.583644 0.155261
Si Si6 0.500000 0.725346 0.281029
Si Si7 0.259451 0.133193 0.271057
Si Si8 0.000000 0.371752 0.830254
O O1 0.425742 0.574259 0.643671
O O2 0.500000 0.687466 0.613070
O O3 0.500000 0.670365 0.684372
O O4 0.725449 0.725449 0.589048
O O5 0.583815 0.787511 0.578468
O O6 0.716093 0.861972 0.560611
O O7 0.676775 0.847163 0.626652
O O8 0.326363 0.000000 0.868330
O O9 0.500000 0.712630 0.945076
O O10 0.363421 0.636580 0.946418
O O11 0.409152 0.720147 0.000000
O O12 0.815974 0.500000 0.138634
O O13 0.782219 0.596251 0.190933
O O14 0.920354 0.584167 0.169013
O O15 0.573962 0.718284 0.255727
O O16 0.500000 0.810662 0.297943
O O17 0.204626 0.204626 0.278609
O O18 0.333369 0.166632 0.250000
#
# Coordination Sequence:
#
# PCOD9571602 Si02
#       8
#    16  32  16  32  32  16  32  16
#     4  10  20  33  51  73  95 126 172 229 289 338
#     4  10  20  35  55  79 108 143 180 221 273 330
#     4   9  19  33  52  76 105 134 173 218 269 327
#     4   9  18  34  57  86 119 153 189 228 268 311
#     4  11  20  33  49  71  98 128 166 208 258 315
#     4  11  19  35  47  65  93 121 163 212 273 322
#     4  11  22  33  48  67  90 123 166 211 255 312
#     4   9  19  31  47  68  92 123 158 201 255 303
#
# _framework density 17.142295000000001
#
# number of rings (size 3 to 8) (size 9 to 14) (size 15 to 20)
#    0.000    1.917    2.500    2.250    0.000    0.167 
#    0.000    2.500    0.000    1.000    0.000    0.000 
#    0.000    0.000    0.000   10.167    0.000    0.000 
#
# Total GULP energy -534940.053140 kJ/mol
# GULP energy per Si atom -5572.292220 kJ/mol
# Density = 1.710328 g / cm^3
# Si number density = 17.142295 Si / 1000 Ang^3
#
#
#
# Elastic Constant Matrix: (Units=GPa)
#
#
# Indices 1 2 3 4 5 6 
#
# 1 119.2510 50.7581 26.8698 0.0000 0.0000 0.0000
# 2 50.7581 119.2516 26.8700 0.0000 0.0000 0.0000
# 3 26.8698 26.8700 31.6799 0.0000 0.0000 0.0000
# 4 0.0000 0.0000 0.0000 24.0538 0.0000 0.0000
# 5 0.0000 0.0000 0.0000 0.0000 24.0534 0.0000
# 6 0.0000 0.0000 0.0000 0.0000 0.0000 33.1259
#
#
#
# Elastic Compliance Matrix: (Units=1/GPa)
#
#
# Indices 1 2 3 4 5 6 
#
# 1 0.011318 -0.003282 -0.006816 0.000000 0.000000 0.000000
# 2 -0.003282 0.011318 -0.006817 0.000000 0.000000 0.000000
# 3 -0.006816 -0.006817 0.043129 0.000000 0.000000 0.000000
# 4 0.000000 0.000000 0.000000 0.041574 0.000000 0.000000
# 5 0.000000 0.000000 0.000000 0.000000 0.041574 0.000000
# 6 0.000000 0.000000 0.000000 0.000000 0.000000 0.030188
#
#
# Mechanical properties :
#
#
# Convention : Reuss Voigt Hill
#
# Bulk Modulus (GPa) = 31.31238 53.24205 42.27721
# Shear Modulus (GPa) = 22.36378 27.29224 24.82801
#
# Velocity S-wave (km/s) = 3.61584 3.99444 3.80985
# Velocity P-wave (km/s) = 5.97814 7.23881 6.63847
#
# Compressibility (1/GPa) = 0.03193625
#
# Stress axis : x y z
#
# Youngs Moduli (GPa) = 88.35196 88.35219 23.18639
#
# Poissons Ratio (x) = 0.28994 0.15805
# Poissons Ratio (y) = 0.28994 0.15805
# Poissons Ratio (z) = 0.60225 0.60225
#
# Static dielectric constant tensor:
#      x y z
#    x 1.597750 0.000000 0.000000 
#    y 0.000000 1.597750 0.000000 
#    z 0.000000 0.000000 1.554180 
# 
# From -- ./inp_files/14411.got.cif
#   From: 2010.05.17/outbox.cif.g08.bks.cpg/sg139_8_cif.got.tgz:14411.got - 2010.05.20 13:14:44.
