data_PCOD9571990
_publ_section_title
;
Structure prediction by ZEFSAII (Michael W. Deem and Ramdas Pophale) SiO2 
 PCOD9571990
Probable space group: I 4/M C M
;
_chemical_formula_sum "Si O2"
_cell_formula_units_Z 112
_cell_length_a 30.854073
_cell_length_b 30.854073
_cell_length_c 8.947713
_cell_angle_alpha 90.000000
_cell_angle_beta 90.000000
_cell_angle_gamma 90.000000
_cell_volume 8517.988531
_symmetry_space_group_name_H-M "I 4/M C M"
_symmetry_group_IT_number 140
_symmetry_cell_setting 'tetragonal'
loop_
_space_group_symop_operation_xyz
x,y,z
-y,x,z
-x,-y,z
y,-x,z
x,-y,1/2-z
-x,y,1/2-z
y,x,1/2-z
-y,-x,1/2-z
-x,-y,-z
y,-x,-z
x,y,-z
-y,x,-z
-x,y,1/2+z
x,-y,1/2+z
-y,-x,1/2+z
y,x,1/2+z
1/2+x,1/2+y,1/2+z
1/2-y,1/2+x,1/2+z
1/2-x,1/2-y,1/2+z
1/2+y,1/2-x,1/2+z
1/2+x,1/2-y,-z
1/2-x,1/2+y,-z
1/2+y,1/2+x,-z
1/2-y,1/2-x,-z
1/2-x,1/2-y,1/2-z
1/2+y,1/2-x,1/2-z
1/2+x,1/2+y,1/2-z
1/2-y,1/2+x,1/2-z
1/2-x,1/2+y,z
1/2+x,1/2-y,z
1/2-y,1/2-x,z
1/2+y,1/2+x,z
loop_
_atom_site_type_symbol
_atom_site_label
_atom_site_fract_x
_atom_site_fract_y
_atom_site_fract_z
Si Si1 0.000000 0.132288 0.250000
Si Si2 0.222431 0.153838 0.679925
Si Si3 0.479701 0.569371 0.000000
Si Si4 0.159705 0.092986 0.174300
Si Si5 0.284581 0.215420 0.819255
O O1 0.040720 0.156830 0.320461
O O2 0.975447 0.100095 0.361084
O O3 0.187157 0.187157 0.750000
O O4 0.223814 0.156827 0.500000
O O5 0.202471 0.108773 0.737119
O O6 0.267355 0.169923 0.753519
O O7 0.448743 0.528611 0.000000
O O8 0.119058 0.119058 0.250000
O O9 0.161135 0.106395 0.000000
O O10 0.250000 0.250000 0.750000
O O11 0.283377 0.216624 0.000000
#
# Coordination Sequence:
#
# PCOD9571990 Si02
#       5
#    16  32  16  32  16
#     4  12  24  33  48  60  76  98 126 164 208 255
#     4  10  18  28  44  62  82 101 123 148 181 225
#     4  11  22  36  48  60  72  90 122 166 214 258
#     4  11  22  34  47  60  77  99 127 159 200 245
#     4  10  16  26  42  62  86 104 122 142 174 217
#
# _framework density 13.148644000000001
#
# number of rings (size 3 to 8) (size 9 to 14) (size 15 to 20)
#    0.000    1.286    1.429   10.714    4.000    1.143 
#    0.000    0.000    0.000    0.000    0.000    0.000 
#    0.000    0.000    0.000    0.000    0.000    0.000 
#
# Total GULP energy -311860.942502 kJ/mol
# GULP energy per Si atom -5568.945402 kJ/mol
# Density = 1.311872 g / cm^3
# Si number density = 13.148644 Si / 1000 Ang^3
#
#
#
# Elastic Constant Matrix: (Units=GPa)
#
#
# Indices 1 2 3 4 5 6 
#
# 1 42.9166 36.4887 22.3010 0.0000 0.0000 0.0000
# 2 36.4887 42.9163 22.3009 0.0000 0.0000 0.0000
# 3 22.3010 22.3009 128.2733 0.0000 0.0000 0.0000
# 4 0.0000 0.0000 0.0000 15.6193 0.0000 0.0000
# 5 0.0000 0.0000 0.0000 0.0000 15.6194 0.0000
# 6 0.0000 0.0000 0.0000 0.0000 0.0000 -382.7590
#
#
#
# Elastic Compliance Matrix: (Units=1/GPa)
#
#
# Indices 1 2 3 4 5 6 
#
# 1 0.084765 -0.070809 -0.002426 0.000000 0.000000 0.000000
# 2 -0.070809 0.084765 -0.002426 0.000000 0.000000 0.000000
# 3 -0.002426 -0.002426 0.008640 0.000000 0.000000 0.000000
# 4 0.000000 0.000000 0.000000 0.064023 0.000000 0.000000
# 5 0.000000 0.000000 0.000000 0.000000 0.064023 0.000000
# 6 0.000000 0.000000 0.000000 0.000000 0.000000 -0.002613
#
#
# Mechanical properties :
#
#
# Convention : Reuss Voigt Hill
#
# Bulk Modulus (GPa) = 37.24812 41.80973 39.52892
# Shear Modulus (GPa) = 10.77875 -61.43635 -25.32880
#
# Velocity S-wave (km/s) = 2.86625 -6.84295 -4.39377
# Velocity P-wave (km/s) = 6.27247 5.52881 2.09477
#
# Compressibility (1/GPa) = 0.02684699
#
# Stress axis : x y z
#
# Youngs Moduli (GPa) = 11.79732 11.79725 115.74686
#
# Poissons Ratio (x) = 0.83535 0.28085
# Poissons Ratio (y) = 0.83535 0.28085
# Poissons Ratio (z) = 0.02863 0.02863
#
# Static dielectric constant tensor:
#      x y z
#    x 1.462890 0.000000 0.000000 
#    y 0.000000 1.462890 0.000000 
#    z 0.000000 0.000000 1.461820 
# 
# From -- ./inp_files/1439.got.cif
#   From: 2010.05.17/outbox.cif.g08.bks.cpg/sg140_1_cif.got.tgz:1439.got - 2010.06.21 00:45:31.
