data_PCOD9571777
_publ_section_title
;
Structure prediction by ZEFSAII (Michael W. Deem and Ramdas Pophale) SiO2 
 PCOD9571777
Probable space group: I 4/M M M
;
_chemical_formula_sum "Si O2"
_cell_formula_units_Z 176
_cell_length_a 24.402422
_cell_length_b 24.402422
_cell_length_c 16.303001
_cell_angle_alpha 90.000000
_cell_angle_beta 90.000000
_cell_angle_gamma 90.000000
_cell_volume 9708.081681
_symmetry_space_group_name_H-M "I 4/M M M"
_symmetry_group_IT_number 139
_symmetry_cell_setting 'tetragonal'
loop_
_space_group_symop_operation_xyz
x,y,z
-y,x,z
-x,-y,z
y,-x,z
x,-y,-z
-x,y,-z
y,x,-z
-y,-x,-z
-x,-y,-z
y,-x,-z
x,y,-z
-y,x,-z
-x,y,z
x,-y,z
-y,-x,z
y,x,z
1/2+x,1/2+y,1/2+z
1/2-y,1/2+x,1/2+z
1/2-x,1/2-y,1/2+z
1/2+y,1/2-x,1/2+z
1/2+x,1/2-y,1/2-z
1/2-x,1/2+y,1/2-z
1/2+y,1/2+x,1/2-z
1/2-y,1/2-x,1/2-z
1/2-x,1/2-y,1/2-z
1/2+y,1/2-x,1/2-z
1/2+x,1/2+y,1/2-z
1/2-y,1/2+x,1/2-z
1/2-x,1/2+y,1/2+z
1/2+x,1/2-y,1/2+z
1/2-y,1/2-x,1/2+z
1/2+y,1/2+x,1/2+z
loop_
_atom_site_type_symbol
_atom_site_label
_atom_site_fract_x
_atom_site_fract_y
_atom_site_fract_z
Si Si1 0.437653 0.937537 0.099820
Si Si2 0.937795 0.850283 0.598748
Si Si3 0.655304 0.434964 0.500000
Si Si4 0.767768 0.856699 0.316969
Si Si5 0.653395 0.849996 0.594578
Si Si6 0.724158 0.634714 0.623181
O O1 0.500000 0.922870 0.124952
O O2 0.391445 0.894089 0.123637
O O3 0.426492 0.000000 0.127280
O O4 0.437375 0.938536 0.000000
O O5 0.937918 0.847715 0.500000
O O6 0.905201 0.905201 0.622987
O O7 0.902794 0.800179 0.632973
O O8 0.000000 0.849865 0.627990
O O9 0.649715 0.500000 0.500000
O O10 0.597878 0.402123 0.500000
O O11 0.689841 0.412530 0.421969
O O12 0.799120 0.799120 0.332138
O O13 0.705982 0.853897 0.347384
O O14 0.774130 0.869744 0.221202
O O15 0.667911 0.864627 0.500000
O O16 0.634999 0.786796 0.594773
O O17 0.691138 0.691138 0.603279
#
# Coordination Sequence:
#
# PCOD9571777 Si02
#       6
#    32  32  16  32  32  32
#     4   8  16  32  51  72 102 139 178 221 267 313
#     4   9  18  33  52  76 107 142 181 224 271 326
#     4  10  22  41  64  88 115 147 187 239 294 348
#     4  10  21  35  53  77 111 150 182 221 276 334
#     4  11  20  31  54  87 112 143 188 231 272 334
#     4  10  21  38  56  79 112 146 181 226 281 337
#
# _framework density 18.129225999999999
#
# number of rings (size 3 to 8) (size 9 to 14) (size 15 to 20)
#    0.000    2.364    0.909    2.182    0.000    5.727 
#    0.000    2.727    0.000    3.273    0.000   10.182 
#    0.000    0.000    0.000    0.000    0.000    0.000 
#
# Total GULP energy -490937.109298 kJ/mol
# GULP energy per Si atom -5578.830787 kJ/mol
# Density = 1.808796 g / cm^3
# Si number density = 18.129226 Si / 1000 Ang^3
#
#
#
# Elastic Constant Matrix: (Units=GPa)
#
#
# Indices 1 2 3 4 5 6 
#
# 1 4082.3998-3826.3900 36.7364 0.0000 0.0000 0.0000
# 2 -3826.3900 4082.1030 36.5116 0.0000 0.0000 0.0000
# 3 36.7364 36.5116 34.8598 0.0000 0.0000 0.0000
# 4 0.0000 0.0000 0.0000 5.5336 0.0000 0.0000
# 5 0.0000 0.0000 0.0000 0.0000 5.5334 0.0000
# 6 0.0000 0.0000 0.0000 0.0000 0.0000 15.5110
#
#
#
# Elastic Compliance Matrix: (Units=1/GPa)
#
#
# Indices 1 2 3 4 5 6 
#
# 1 0.002858 0.002732 -0.005873 0.000000 0.000000 0.000000
# 2 0.002732 0.002858 -0.005872 0.000000 0.000000 0.000000
# 3 -0.005873 -0.005872 0.041026 0.000000 0.000000 0.000000
# 4 0.000000 0.000000 0.000000 0.180715 0.000000 0.000000
# 5 0.000000 0.000000 0.000000 0.000000 0.180721 0.000000
# 6 0.000000 0.000000 0.000000 0.000000 0.000000 0.064471
#
#
# Mechanical properties :
#
#
# Convention : Reuss Voigt Hill
#
# Bulk Modulus (GPa) = 34.82502 77.00874 55.91688
# Shear Modulus (GPa) = 9.99507 802.14922 406.07215
#
# Velocity S-wave (km/s) = 2.35058 21.05760 14.98245
# Velocity P-wave (km/s) = 5.15926 25.17538 18.17165
#
# Compressibility (1/GPa) = 0.02871498
#
# Stress axis : x y z
#
# Youngs Moduli (GPa) = 349.88981 349.90501 24.37506
#
# Poissons Ratio (x) = -0.95578 0.14315
# Poissons Ratio (y) = -0.95574 0.14313
# Poissons Ratio (z) = 2.05486 2.05462
#
# Static dielectric constant tensor:
#      x y z
#    x 1.606220 0.000000 0.000000 
#    y 0.000000 1.606220 0.000000 
#    z 0.000000 0.000000 1.643020 
# 
# From -- ./inp_files/6140.got.cif
#   From: 2010.05.17/outbox.cif.g08.bks.cpg/sg139_4_cif.got.tgz:6140.got - 2010.05.20 13:14:44.
