data_PCOD9571349
_publ_section_title
;
Structure prediction by ZEFSAII (Michael W. Deem and Ramdas Pophale) SiO2 
 PCOD9571349
Probable space group: I 4/M M M
;
_chemical_formula_sum "Si O2"
_cell_formula_units_Z 160
_cell_length_a 23.139815
_cell_length_b 23.139815
_cell_length_c 18.432550
_cell_angle_alpha 90.000000
_cell_angle_beta 90.000000
_cell_angle_gamma 90.000000
_cell_volume 9869.728035
_symmetry_space_group_name_H-M "I 4/M M M"
_symmetry_group_IT_number 139
_symmetry_cell_setting 'tetragonal'
loop_
_space_group_symop_operation_xyz
x,y,z
-y,x,z
-x,-y,z
y,-x,z
x,-y,-z
-x,y,-z
y,x,-z
-y,-x,-z
-x,-y,-z
y,-x,-z
x,y,-z
-y,x,-z
-x,y,z
x,-y,z
-y,-x,z
y,x,z
1/2+x,1/2+y,1/2+z
1/2-y,1/2+x,1/2+z
1/2-x,1/2-y,1/2+z
1/2+y,1/2-x,1/2+z
1/2+x,1/2-y,1/2-z
1/2-x,1/2+y,1/2-z
1/2+y,1/2+x,1/2-z
1/2-y,1/2-x,1/2-z
1/2-x,1/2-y,1/2-z
1/2+y,1/2-x,1/2-z
1/2+x,1/2+y,1/2-z
1/2-y,1/2+x,1/2-z
1/2-x,1/2+y,1/2+z
1/2+x,1/2-y,1/2+z
1/2-y,1/2-x,1/2+z
1/2+y,1/2+x,1/2+z
loop_
_atom_site_type_symbol
_atom_site_label
_atom_site_fract_x
_atom_site_fract_y
_atom_site_fract_z
Si Si1 0.834580 0.737525 0.582638
Si Si2 0.766254 0.064565 0.694202
Si Si3 0.063355 0.649578 0.788983
Si Si4 0.386525 0.781040 0.413636
Si Si5 0.664288 0.569280 0.336674
O O1 0.855455 0.728416 0.500000
O O2 0.789774 0.789774 0.583330
O O3 0.886771 0.754091 0.635190
O O4 0.798559 0.679920 0.603198
O O5 0.708959 0.062762 0.743717
O O6 0.817018 0.076714 0.752139
O O7 0.774977 0.000000 0.663303
O O8 0.109108 0.609108 0.750000
O O9 0.078204 0.670118 0.870119
O O10 0.000000 0.622891 0.786587
O O11 0.394792 0.782193 0.500000
O O12 0.405312 0.718317 0.383111
O O13 0.658738 0.500000 0.349851
O O14 0.607194 0.607194 0.351521
#
# Coordination Sequence:
#
# PCOD9571349 Si02
#       5
#    32  32  32  32  32
#     4  10  19  30  49  77 105 134 168 210 261 311
#     4   9  18  33  51  73 102 134 172 211 252 307
#     4  10  19  33  52  74 100 132 171 209 248 296
#     4  10  20  35  53  77 106 135 168 211 259 306
#     4  10  21  35  53  76 102 136 174 214 259 307
#
# _framework density 16.211186000000001
#
# number of rings (size 3 to 8) (size 9 to 14) (size 15 to 20)
#    0.000    2.200    2.000    3.000    0.000    3.600 
#    0.000    3.000    0.000    0.600    0.000    2.800 
#    0.000    0.000    0.000   18.600    0.000    0.000 
#
# Total GULP energy -445594.114622 kJ/mol
# GULP energy per Si atom -5569.926433 kJ/mol
# Density = 1.617429 g / cm^3
# Si number density = 16.211186 Si / 1000 Ang^3
#
#
#
# Elastic Constant Matrix: (Units=GPa)
#
#
# Indices 1 2 3 4 5 6 
#
# 1 87.8350 48.9705 43.2482 0.0000 0.0000 0.0000
# 2 48.9705 87.8350 43.2482 0.0000 0.0000 0.0000
# 3 43.2482 43.2482 70.1251 0.0000 0.0000 0.0000
# 4 0.0000 0.0000 0.0000 15.3146 0.0000 0.0000
# 5 0.0000 0.0000 0.0000 0.0000 15.3146 0.0000
# 6 0.0000 0.0000 0.0000 0.0000 0.0000 -0.4791
#
#
#
# Elastic Compliance Matrix: (Units=1/GPa)
#
#
# Indices 1 2 3 4 5 6 
#
# 1 0.018856 -0.006874 -0.007389 0.000000 0.000000 0.000000
# 2 -0.006874 0.018856 -0.007389 0.000000 0.000000 0.000000
# 3 -0.007389 -0.007389 0.023375 0.000000 0.000000 0.000000
# 4 0.000000 0.000000 0.000000 0.065297 0.000000 0.000000
# 5 0.000000 0.000000 0.000000 0.000000 0.065297 0.000000
# 6 0.000000 0.000000 0.000000 0.000000 0.000000 -2.087080
#
#
# Mechanical properties :
#
#
# Convention : Reuss Voigt Hill
#
# Bulk Modulus (GPa) = 56.24183 57.41434 56.82809
# Shear Modulus (GPa) = -2.70832 13.38524 5.33846
#
# Velocity S-wave (km/s) = -1.29394 2.87658 1.81665
# Velocity P-wave (km/s) = 5.70405 6.82102 6.28739
#
# Compressibility (1/GPa) = 0.01778036
#
# Stress axis : x y z
#
# Youngs Moduli (GPa) = 53.03335 53.03335 42.78110
#
# Poissons Ratio (x) = 0.36457 0.31613
# Poissons Ratio (y) = 0.36457 0.31613
# Poissons Ratio (z) = 0.39189 0.39189
#
# Static dielectric constant tensor:
#      x y z
#    x 1.543720 0.000000 0.000000 
#    y 0.000000 1.543720 0.000000 
#    z 0.000000 0.000000 1.551190 
# 
# From -- ./inp_files/5932.got.cif
#   From: 2010.05.17/outbox.cif.g08.bks.cpg/sg139_3_cif.got.tgz:5932.got - 2010.05.20 13:14:44.
