data_PCOD9571922
_publ_section_title
;
Structure prediction by ZEFSAII (Michael W. Deem and Ramdas Pophale) SiO2 
 PCOD9571922
Probable space group: I 4/M M M
;
_chemical_formula_sum "Si O2"
_cell_formula_units_Z 120
_cell_length_a 20.081597
_cell_length_b 20.081597
_cell_length_c 17.214055
_cell_angle_alpha 90.000000
_cell_angle_beta 90.000000
_cell_angle_gamma 90.000000
_cell_volume 6941.921222
_symmetry_space_group_name_H-M "I 4/M M M"
_symmetry_group_IT_number 139
_symmetry_cell_setting 'tetragonal'
loop_
_space_group_symop_operation_xyz
x,y,z
-y,x,z
-x,-y,z
y,-x,z
x,-y,-z
-x,y,-z
y,x,-z
-y,-x,-z
-x,-y,-z
y,-x,-z
x,y,-z
-y,x,-z
-x,y,z
x,-y,z
-y,-x,z
y,x,z
1/2+x,1/2+y,1/2+z
1/2-y,1/2+x,1/2+z
1/2-x,1/2-y,1/2+z
1/2+y,1/2-x,1/2+z
1/2+x,1/2-y,1/2-z
1/2-x,1/2+y,1/2-z
1/2+y,1/2+x,1/2-z
1/2-y,1/2-x,1/2-z
1/2-x,1/2-y,1/2-z
1/2+y,1/2-x,1/2-z
1/2+x,1/2+y,1/2-z
1/2-y,1/2+x,1/2-z
1/2-x,1/2+y,1/2+z
1/2+x,1/2-y,1/2+z
1/2-y,1/2-x,1/2+z
1/2+y,1/2+x,1/2+z
loop_
_atom_site_type_symbol
_atom_site_label
_atom_site_fract_x
_atom_site_fract_y
_atom_site_fract_z
Si Si1 0.823803 0.176198 0.760274
Si Si2 0.923880 0.744496 0.000000
Si Si3 0.311154 0.847556 0.146900
Si Si4 0.598433 0.598433 0.500000
Si Si5 0.696872 0.696872 0.909279
Si Si6 0.926398 0.073603 0.172945
Si Si7 0.080998 0.580998 0.250000
O O1 0.840392 0.251803 0.788377
O O2 0.835206 0.164795 0.668360
O O3 0.872476 0.127525 0.805165
O O4 0.891441 0.717290 0.077685
O O5 0.915103 0.823373 0.000000
O O6 0.000000 0.726014 0.000000
O O7 0.318062 0.774747 0.107981
O O8 0.377447 0.883445 0.179861
O O9 0.571150 0.571150 0.580042
O O10 0.681379 0.681379 0.000000
O O11 0.000000 0.091559 0.201964
O O12 0.091553 0.500000 0.247744
#
# Coordination Sequence:
#
# PCOD9571922 Si02
#       7
#    16  16  32   8  16  16  16
#     4  11  21  36  63  89 113 156 196 240 291 354
#     4  12  22  32  55  87 119 158 192 232 289 352
#     4  11  20  38  60  87 120 152 197 245 293 354
#     4  12  20  33  52  88 128 158 192 220 282 357
#     4  11  20  38  64  89 116 142 185 250 312 349
#     4  11  23  36  53  85 128 160 184 224 282 357
#     4  11  24  41  60  84 120 167 212 255 300 344
#
# _framework density 17.286280000000001
#
# number of rings (size 3 to 8) (size 9 to 14) (size 15 to 20)
#    0.000    0.800    6.667    3.600    0.000    1.600 
#    0.000    0.667    0.000    4.800    0.000    0.933 
#    0.000    0.000    0.000    0.000    0.000    0.000 
#
# Total GULP energy -334279.681235 kJ/mol
# GULP energy per Si atom -5571.328021 kJ/mol
# Density = 1.724694 g / cm^3
# Si number density = 17.286280 Si / 1000 Ang^3
#
#
#
# Elastic Constant Matrix: (Units=GPa)
#
#
# Indices 1 2 3 4 5 6 
#
# 1 87.1087 54.8230 25.6126 0.0000 0.0000 0.0000
# 2 54.8230 87.1087 25.6126 0.0000 0.0000 0.0000
# 3 25.6126 25.6126 119.9787 0.0000 0.0000 0.0000
# 4 0.0000 0.0000 0.0000 5.3648 0.0000 0.0000
# 5 0.0000 0.0000 0.0000 0.0000 5.3648 0.0000
# 6 0.0000 0.0000 0.0000 0.0000 0.0000 25.3457
#
#
#
# Elastic Compliance Matrix: (Units=1/GPa)
#
#
# Indices 1 2 3 4 5 6 
#
# 1 0.019304 -0.011670 -0.001630 0.000000 0.000000 0.000000
# 2 -0.011670 0.019304 -0.001630 0.000000 0.000000 0.000000
# 3 -0.001630 -0.001630 0.009031 0.000000 0.000000 0.000000
# 4 0.000000 0.000000 0.000000 0.186399 0.000000 0.000000
# 5 0.000000 0.000000 0.000000 0.000000 0.186399 0.000000
# 6 0.000000 0.000000 0.000000 0.000000 0.000000 0.039454
#
#
# Mechanical properties :
#
#
# Convention : Reuss Voigt Hill
#
# Bulk Modulus (GPa) = 56.24406 56.25471 56.24939
# Shear Modulus (GPa) = 10.08723 19.75826 14.92275
#
# Velocity S-wave (km/s) = 2.41828 3.38450 2.94134
# Velocity P-wave (km/s) = 6.35648 6.92003 6.64423
#
# Compressibility (1/GPa) = 0.01777965
#
# Stress axis : x y z
#
# Youngs Moduli (GPa) = 51.80373 51.80373 110.73474
#
# Poissons Ratio (x) = 0.60454 0.18046
# Poissons Ratio (y) = 0.60454 0.18046
# Poissons Ratio (z) = 0.08442 0.08442
#
# Static dielectric constant tensor:
#      x y z
#    x 1.583930 0.000000 0.000000 
#    y 0.000000 1.583930 0.000000 
#    z 0.000000 0.000000 1.596110 
# 
# From -- ./inp_files/5405.got.cif
#   From: 2010.05.17/outbox.cif.g08.bks.cpg/sg139_3_cif.got.tgz:5405.got - 2010.05.20 13:14:44.
