data_PCOD9571674
_publ_section_title
;
Structure prediction by ZEFSAII (Michael W. Deem and Ramdas Pophale) SiO2 
 PCOD9571674
Probable space group: I 4/M M M
;
_chemical_formula_sum "Si O2"
_cell_formula_units_Z 160
_cell_length_a 23.669034
_cell_length_b 23.669034
_cell_length_c 15.096048
_cell_angle_alpha 90.000000
_cell_angle_beta 90.000000
_cell_angle_gamma 90.000000
_cell_volume 8457.155872
_symmetry_space_group_name_H-M "I 4/M M M"
_symmetry_group_IT_number 139
_symmetry_cell_setting 'tetragonal'
loop_
_space_group_symop_operation_xyz
x,y,z
-y,x,z
-x,-y,z
y,-x,z
x,-y,-z
-x,y,-z
y,x,-z
-y,-x,-z
-x,-y,-z
y,-x,-z
x,y,-z
-y,x,-z
-x,y,z
x,-y,z
-y,-x,z
y,x,z
1/2+x,1/2+y,1/2+z
1/2-y,1/2+x,1/2+z
1/2-x,1/2-y,1/2+z
1/2+y,1/2-x,1/2+z
1/2+x,1/2-y,1/2-z
1/2-x,1/2+y,1/2-z
1/2+y,1/2+x,1/2-z
1/2-y,1/2-x,1/2-z
1/2-x,1/2-y,1/2-z
1/2+y,1/2-x,1/2-z
1/2+x,1/2+y,1/2-z
1/2-y,1/2+x,1/2-z
1/2-x,1/2+y,1/2+z
1/2+x,1/2-y,1/2+z
1/2-y,1/2-x,1/2+z
1/2+y,1/2+x,1/2+z
loop_
_atom_site_type_symbol
_atom_site_label
_atom_site_fract_x
_atom_site_fract_y
_atom_site_fract_z
Si Si1 0.302774 0.606789 0.271342
Si Si2 0.500000 0.854210 0.395728
Si Si3 0.000000 0.778929 0.890667
Si Si4 0.767165 0.681994 0.596866
Si Si5 0.882271 0.627212 0.353356
Si Si6 0.236461 0.565020 0.900396
O O1 0.362779 0.637222 0.257438
O O2 0.304483 0.553992 0.339378
O O3 0.263493 0.650697 0.323933
O O4 0.271462 0.593334 0.179085
O O5 0.500000 0.850447 0.500000
O O6 0.500000 0.788495 0.365623
O O7 0.439834 0.883161 0.372944
O O8 0.000000 0.784178 0.000000
O O9 0.746368 0.661772 0.500000
O O10 0.747568 0.747568 0.602572
O O11 0.830712 0.661072 0.601745
O O12 0.870789 0.629212 0.250000
O O13 0.932627 0.669054 0.379153
O O14 0.253976 0.500000 0.900369
O O15 0.246125 0.587945 0.000000
#
# Coordination Sequence:
#
# PCOD9571674 Si02
#       6
#    32  16  16  32  32  32
#     4  11  22  38  62  93 126 159 206 257 308 373
#     4  11  22  38  59  85 116 160 208 248 292 360
#     4  11  20  36  63  91 129 169 206 248 300 365
#     4  10  20  34  54  85 123 158 193 239 301 371
#     4  12  23  37  62  85 117 159 205 255 308 365
#     4  11  24  43  64  87 120 161 207 261 318 372
#
# _framework density 18.918890000000001
#
# number of rings (size 3 to 8) (size 9 to 14) (size 15 to 20)
#    0.000    1.000    5.000    2.400    1.400    2.800 
#    0.000    0.500    0.000    2.100    0.000    0.700 
#    0.000    1.600    0.000    0.000    0.000    0.000 
#
# Total GULP energy -445582.266812 kJ/mol
# GULP energy per Si atom -5569.778335 kJ/mol
# Density = 1.887583 g / cm^3
# Si number density = 18.918890 Si / 1000 Ang^3
#
#
#
# Elastic Constant Matrix: (Units=GPa)
#
#
# Indices 1 2 3 4 5 6 
#
# 1 71.5165 37.0082 33.8553 0.0000 0.0000 0.0000
# 2 37.0082 71.5167 33.8554 0.0000 0.0000 0.0000
# 3 33.8553 33.8554 147.1493 0.0000 0.0000 0.0000
# 4 0.0000 0.0000 0.0000 21.9102 0.0000 0.0000
# 5 0.0000 0.0000 0.0000 0.0000 21.9099 0.0000
# 6 0.0000 0.0000 0.0000 0.0000 0.0000 5.1975
#
#
#
# Elastic Compliance Matrix: (Units=1/GPa)
#
#
# Indices 1 2 3 4 5 6 
#
# 1 0.019869 -0.009110 -0.002475 0.000000 0.000000 0.000000
# 2 -0.009110 0.019869 -0.002475 0.000000 0.000000 0.000000
# 3 -0.002475 -0.002475 0.007935 0.000000 0.000000 0.000000
# 4 0.000000 0.000000 0.000000 0.045641 0.000000 0.000000
# 5 0.000000 0.000000 0.000000 0.000000 0.045642 0.000000
# 6 0.000000 0.000000 0.000000 0.000000 0.000000 0.192400
#
#
# Mechanical properties :
#
#
# Convention : Reuss Voigt Hill
#
# Bulk Modulus (GPa) = 51.14763 55.51337 53.33050
# Shear Modulus (GPa) = 13.66148 22.16776 17.91462
#
# Velocity S-wave (km/s) = 2.69012 3.42676 3.08054
# Velocity P-wave (km/s) = 6.06159 6.71293 6.39556
#
# Compressibility (1/GPa) = 0.01955125
#
# Stress axis : x y z
#
# Youngs Moduli (GPa) = 50.33048 50.33056 126.02626
#
# Poissons Ratio (x) = 0.45850 0.31196
# Poissons Ratio (y) = 0.45850 0.31196
# Poissons Ratio (z) = 0.12459 0.12459
#
# Static dielectric constant tensor:
#      x y z
#    x 1.902010 0.000000 0.000000 
#    y 0.000000 1.902000 0.000000 
#    z 0.000000 0.000000 1.673270 
# 
# From -- ./inp_files/5976.got.cif
#   From: 2010.05.17/outbox.cif.g08.bks.cpg/sg139_3_cif.got.tgz:5976.got - 2010.05.20 13:14:44.
