data_PCOD9571585
_publ_section_title
;
Structure prediction by ZEFSAII (Michael W. Deem and Ramdas Pophale) SiO2 
 PCOD9571585
Probable space group: I 4/M M M
;
_chemical_formula_sum "Si O2"
_cell_formula_units_Z 176
_cell_length_a 18.678340
_cell_length_b 18.678340
_cell_length_c 27.920399
_cell_angle_alpha 90.000000
_cell_angle_beta 90.000000
_cell_angle_gamma 90.000000
_cell_volume 9740.879557
_symmetry_space_group_name_H-M "I 4/M M M"
_symmetry_group_IT_number 139
_symmetry_cell_setting 'tetragonal'
loop_
_space_group_symop_operation_xyz
x,y,z
-y,x,z
-x,-y,z
y,-x,z
x,-y,-z
-x,y,-z
y,x,-z
-y,-x,-z
-x,-y,-z
y,-x,-z
x,y,-z
-y,x,-z
-x,y,z
x,-y,z
-y,-x,z
y,x,z
1/2+x,1/2+y,1/2+z
1/2-y,1/2+x,1/2+z
1/2-x,1/2-y,1/2+z
1/2+y,1/2-x,1/2+z
1/2+x,1/2-y,1/2-z
1/2-x,1/2+y,1/2-z
1/2+y,1/2+x,1/2-z
1/2-y,1/2-x,1/2-z
1/2-x,1/2-y,1/2-z
1/2+y,1/2-x,1/2-z
1/2+x,1/2+y,1/2-z
1/2-y,1/2+x,1/2-z
1/2-x,1/2+y,1/2+z
1/2+x,1/2-y,1/2+z
1/2-y,1/2-x,1/2+z
1/2+y,1/2+x,1/2+z
loop_
_atom_site_type_symbol
_atom_site_label
_atom_site_fract_x
_atom_site_fract_y
_atom_site_fract_z
Si Si1 0.202668 0.083485 0.824976
Si Si2 0.583440 0.800895 0.766111
Si Si3 0.300409 0.419874 0.500000
Si Si4 0.415112 0.797116 0.944598
Si Si5 0.915485 0.797828 0.644986
Si Si6 0.917327 0.307770 0.088852
O O1 0.136387 0.136387 0.831287
O O2 0.236987 0.090511 0.772490
O O3 0.265568 0.101149 0.862693
O O4 0.183128 0.000000 0.832875
O O5 0.500000 0.823957 0.765858
O O6 0.635940 0.864061 0.750000
O O7 0.600209 0.766435 0.817671
O O8 0.331233 0.500000 0.500000
O O9 0.360819 0.360819 0.500000
O O10 0.250097 0.412691 0.546270
O O11 0.500000 0.812147 0.942979
O O12 0.402235 0.731490 0.908533
O O13 0.371039 0.864046 0.924399
O O14 0.395232 0.783370 0.000000
O O15 0.864789 0.864789 0.655170
O O16 0.000000 0.814815 0.650192
O O17 0.000000 0.332202 0.092103
#
# Coordination Sequence:
#
# PCOD9571585 Si02
#       6
#    32  32  16  32  32  32
#     4  10  21  36  55  80 110 144 184 229 273 320
#     4  10  21  37  57  83 114 147 183 223 266 319
#     4  10  20  33  49  71 101 137 178 222 264 310
#     4  10  21  37  56  81 111 141 178 225 276 331
#     4  10  22  39  58  82 111 142 181 227 273 326
#     4  10  20  35  53  78 109 141 180 223 266 320
#
# _framework density 18.068183999999999
#
# number of rings (size 3 to 8) (size 9 to 14) (size 15 to 20)
#    0.000    2.000    0.909    2.182    0.000    5.727 
#    0.000    0.909    0.000   13.091    0.000    2.545 
#    0.000    0.000    0.000    0.000    0.000    0.000 
#
# Total GULP energy -491250.339382 kJ/mol
# GULP energy per Si atom -5582.390220 kJ/mol
# Density = 1.802706 g / cm^3
# Si number density = 18.068184 Si / 1000 Ang^3
#
#
#
# Elastic Constant Matrix: (Units=GPa)
#
#
# Indices 1 2 3 4 5 6 
#
# 1 80.0147 74.2810 30.3001 0.0000 0.0000 0.0000
# 2 74.2810 80.0134 30.3008 0.0000 0.0000 0.0000
# 3 30.3001 30.3008 107.1287 0.0000 0.0000 0.0000
# 4 0.0000 0.0000 0.0000 9.7997 0.0000 0.0000
# 5 0.0000 0.0000 0.0000 0.0000 9.8016 0.0000
# 6 0.0000 0.0000 0.0000 0.0000 0.0000 36.6913
#
#
#
# Elastic Compliance Matrix: (Units=1/GPa)
#
#
# Indices 1 2 3 4 5 6 
#
# 1 0.090859 -0.083569 -0.002061 0.000000 0.000000 0.000000
# 2 -0.083569 0.090861 -0.002063 0.000000 0.000000 0.000000
# 3 -0.002061 -0.002063 0.010501 0.000000 0.000000 0.000000
# 4 0.000000 0.000000 0.000000 0.102044 0.000000 0.000000
# 5 0.000000 0.000000 0.000000 0.000000 0.102025 0.000000
# 6 0.000000 0.000000 0.000000 0.000000 0.000000 0.027254
#
#
# Mechanical properties :
#
#
# Convention : Reuss Voigt Hill
#
# Bulk Modulus (GPa) = 59.40226 59.65783 59.53004
# Shear Modulus (GPa) = 8.27073 20.07684 14.17379
#
# Velocity S-wave (km/s) = 2.14183 3.33704 2.80386
# Velocity P-wave (km/s) = 6.25018 6.92370 6.59554
#
# Compressibility (1/GPa) = 0.01683438
#
# Stress axis : x y z
#
# Youngs Moduli (GPa) = 11.00611 11.00585 95.22789
#
# Poissons Ratio (x) = 0.91974 0.19629
# Poissons Ratio (y) = 0.91977 0.19647
# Poissons Ratio (z) = 0.02269 0.02271
#
# Static dielectric constant tensor:
#      x y z
#    x 1.591630 0.000000 0.000000 
#    y 0.000000 1.591630 0.000000 
#    z 0.000000 0.000000 1.652590 
# 
# From -- ./inp_files/13085.got.cif
#   From: 2010.05.17/outbox.cif.g08.bks.cpg/sg139_7_cif.got.tgz:13085.got - 2010.05.20 13:14:44.
