data_PCOD9571731
_publ_section_title
;
Structure prediction by ZEFSAII (Michael W. Deem and Ramdas Pophale) SiO2 
 PCOD9571731
Probable space group: I 4/M M M
;
_chemical_formula_sum "Si O2"
_cell_formula_units_Z 160
_cell_length_a 24.449654
_cell_length_b 24.449654
_cell_length_c 15.578512
_cell_angle_alpha 90.000000
_cell_angle_beta 90.000000
_cell_angle_gamma 90.000000
_cell_volume 9312.609843
_symmetry_space_group_name_H-M "I 4/M M M"
_symmetry_group_IT_number 139
_symmetry_cell_setting 'tetragonal'
loop_
_space_group_symop_operation_xyz
x,y,z
-y,x,z
-x,-y,z
y,-x,z
x,-y,-z
-x,y,-z
y,x,-z
-y,-x,-z
-x,-y,-z
y,-x,-z
x,y,-z
-y,x,-z
-x,y,z
x,-y,z
-y,-x,z
y,x,z
1/2+x,1/2+y,1/2+z
1/2-y,1/2+x,1/2+z
1/2-x,1/2-y,1/2+z
1/2+y,1/2-x,1/2+z
1/2+x,1/2-y,1/2-z
1/2-x,1/2+y,1/2-z
1/2+y,1/2+x,1/2-z
1/2-y,1/2-x,1/2-z
1/2-x,1/2-y,1/2-z
1/2+y,1/2-x,1/2-z
1/2+x,1/2+y,1/2-z
1/2-y,1/2+x,1/2-z
1/2-x,1/2+y,1/2+z
1/2+x,1/2-y,1/2+z
1/2-y,1/2-x,1/2+z
1/2+y,1/2+x,1/2+z
loop_
_atom_site_type_symbol
_atom_site_label
_atom_site_fract_x
_atom_site_fract_y
_atom_site_fract_z
Si Si1 0.064336 0.774373 0.500000
Si Si2 0.230436 0.141321 0.000000
Si Si3 0.763279 0.062319 0.162061
Si Si4 0.173668 0.350691 0.000000
Si Si5 0.157369 0.935398 0.676154
Si Si6 0.904146 0.639821 0.835914
Si Si7 0.935307 0.500000 0.397502
O O1 0.108909 0.725532 0.500000
O O2 0.071848 0.810938 0.414401
O O3 0.000000 0.755226 0.500000
O O4 0.228291 0.103417 0.083763
O O5 0.284765 0.179456 0.000000
O O6 0.178694 0.178694 0.000000
O O7 0.799809 0.075336 0.245829
O O8 0.698216 0.066805 0.176848
O O9 0.776342 0.000000 0.137013
O O10 0.136866 0.360541 0.916081
O O11 0.106194 0.893807 0.681250
O O12 0.141388 0.000000 0.681421
O O13 0.872041 0.627960 0.750000
O O14 0.947914 0.593091 0.855447
O O15 0.923589 0.500000 0.500000
O O16 0.000000 0.500000 0.385476
#
# Coordination Sequence:
#
# PCOD9571731 Si02
#       7
#    16  16  32  16  32  32  16
#     4  10  21  38  58  79 107 147 191 227 276 335
#     4  10  21  35  56  84 112 143 186 231 280 332
#     4  10  20  36  58  81 110 149 187 227 278 332
#     4  10  22  38  55  79 110 146 183 234 286 324
#     4  10  21  37  59  86 113 143 181 225 279 343
#     4  11  22  36  56  79 110 146 191 235 281 334
#     4  11  24  38  52  77 111 149 190 239 290 326
#
# _framework density 17.181004999999999
#
# number of rings (size 3 to 8) (size 9 to 14) (size 15 to 20)
#    0.000    1.700    2.000    2.400    1.400    1.800 
#    0.000    0.000    0.000    8.400    0.000    0.000 
#    0.000    7.200    0.000    0.000    0.000    0.000 
#
# Total GULP energy -446231.080474 kJ/mol
# GULP energy per Si atom -5577.888506 kJ/mol
# Density = 1.714190 g / cm^3
# Si number density = 17.181005 Si / 1000 Ang^3
#
#
#
# Elastic Constant Matrix: (Units=GPa)
#
#
# Indices 1 2 3 4 5 6 
#
# 1 91.0168 75.6639 52.1455 0.0000 0.0000 0.0000
# 2 75.6639 91.0139 52.1460 0.0000 0.0000 0.0000
# 3 52.1455 52.1460 119.7562 0.0000 0.0000 0.0000
# 4 0.0000 0.0000 0.0000 14.0165 0.0000 0.0000
# 5 0.0000 0.0000 0.0000 0.0000 14.0140 0.0000
# 6 0.0000 0.0000 0.0000 0.0000 0.0000 39.5602
#
#
#
# Elastic Compliance Matrix: (Units=1/GPa)
#
#
# Indices 1 2 3 4 5 6 
#
# 1 0.036692 -0.028447 -0.003590 0.000000 0.000000 0.000000
# 2 -0.028447 0.036694 -0.003591 0.000000 0.000000 0.000000
# 3 -0.003590 -0.003591 0.011477 0.000000 0.000000 0.000000
# 4 0.000000 0.000000 0.000000 0.071345 0.000000 0.000000
# 5 0.000000 0.000000 0.000000 0.000000 0.071357 0.000000
# 6 0.000000 0.000000 0.000000 0.000000 0.000000 0.025278
#
#
# Mechanical properties :
#
#
# Convention : Reuss Voigt Hill
#
# Bulk Modulus (GPa) = 73.49130 73.52198 73.50664
# Shear Modulus (GPa) = 15.21439 21.64023 18.42731
#
# Velocity S-wave (km/s) = 2.97902 3.55286 3.27852
# Velocity P-wave (km/s) = 7.39597 7.72760 7.56361
#
# Compressibility (1/GPa) = 0.01360705
#
# Stress axis : x y z
#
# Youngs Moduli (GPa) = 27.25360 27.25226 87.12845
#
# Poissons Ratio (x) = 0.77525 0.31281
# Poissons Ratio (y) = 0.77528 0.31290
# Poissons Ratio (z) = 0.09784 0.09787
#
# Static dielectric constant tensor:
#      x y z
#    x 1.567250 0.000000 0.000000 
#    y 0.000000 1.567250 0.000000 
#    z 0.000000 0.000000 1.566110 
# 
# From -- ./inp_files/6040.got.cif
#   From: 2010.05.17/outbox.cif.g08.bks.cpg/sg139_4_cif.got.tgz:6040.got - 2010.05.20 13:14:44.
