data_PCOD9571859
_publ_section_title
;
Structure prediction by ZEFSAII (Michael W. Deem and Ramdas Pophale) SiO2 
 PCOD9571859
Probable space group: I 4/M M M
;
_chemical_formula_sum "Si O2"
_cell_formula_units_Z 240
_cell_length_a 27.317579
_cell_length_b 27.317579
_cell_length_c 18.481282
_cell_angle_alpha 90.000000
_cell_angle_beta 90.000000
_cell_angle_gamma 90.000000
_cell_volume 13791.658955
_symmetry_space_group_name_H-M "I 4/M M M"
_symmetry_group_IT_number 139
_symmetry_cell_setting 'tetragonal'
loop_
_space_group_symop_operation_xyz
x,y,z
-y,x,z
-x,-y,z
y,-x,z
x,-y,-z
-x,y,-z
y,x,-z
-y,-x,-z
-x,-y,-z
y,-x,-z
x,y,-z
-y,x,-z
-x,y,z
x,-y,z
-y,-x,z
y,x,z
1/2+x,1/2+y,1/2+z
1/2-y,1/2+x,1/2+z
1/2-x,1/2-y,1/2+z
1/2+y,1/2-x,1/2+z
1/2+x,1/2-y,1/2-z
1/2-x,1/2+y,1/2-z
1/2+y,1/2+x,1/2-z
1/2-y,1/2-x,1/2-z
1/2-x,1/2-y,1/2-z
1/2+y,1/2-x,1/2-z
1/2+x,1/2+y,1/2-z
1/2-y,1/2+x,1/2-z
1/2-x,1/2+y,1/2+z
1/2+x,1/2-y,1/2+z
1/2-y,1/2-x,1/2+z
1/2+y,1/2+x,1/2+z
loop_
_atom_site_type_symbol
_atom_site_label
_atom_site_fract_x
_atom_site_fract_y
_atom_site_fract_z
Si Si1 0.558750 0.000000 0.413825
Si Si2 0.278056 0.796494 0.087645
Si Si3 0.097359 0.310892 0.086020
Si Si4 0.559499 0.227193 0.172954
Si Si5 0.138639 0.058480 0.915880
Si Si6 0.230603 0.055834 0.826636
Si Si7 0.782518 0.860937 0.412851
Si Si8 0.612236 0.088309 0.332962
O O1 0.582859 0.045852 0.373508
O O2 0.500000 0.000000 0.406154
O O3 0.569964 0.000000 0.500000
O O4 0.228543 0.771458 0.114172
O O5 0.285902 0.851564 0.109808
O O6 0.322705 0.760788 0.107623
O O7 0.277160 0.796567 0.000000
O O8 0.057127 0.273817 0.114685
O O9 0.098201 0.362647 0.124608
O O10 0.095903 0.316595 0.000000
O O11 0.500000 0.227980 0.165829
O O12 0.575218 0.246384 0.252483
O O13 0.587650 0.264509 0.119475
O O14 0.576875 0.170684 0.163545
O O15 0.089642 0.089642 0.904047
O O16 0.181858 0.076943 0.863329
O O17 0.131011 0.000000 0.906699
O O18 0.153830 0.065790 0.000000
O O19 0.217479 0.000000 0.809803
O O20 0.783551 0.864273 0.500000
O O21 0.833438 0.833438 0.390954
O O22 0.595588 0.095588 0.250000
#
# Coordination Sequence:
#
# PCOD9571859 Si02
#       8
#    16  32  32  32  32  32  32  32
#     4  11  28  48  66  90 114 144 198 256 309 372
#     4   8  15  28  47  73 103 135 172 217 271 327
#     4  11  21  34  56  80 108 148 193 237 284 344
#     4  11  22  38  58  86 115 152 196 241 289 356
#     4   9  18  34  56  82 113 150 192 239 290 342
#     4  10  22  37  52  74 111 149 190 234 286 342
#     4   9  18  34  56  82 114 148 182 228 289 348
#     4  12  24  40  63  85 118 151 192 246 312 357
#
# _framework density 17.401823
#
# number of rings (size 3 to 8) (size 9 to 14) (size 15 to 20)
#    0.000    1.933    3.333    1.600    0.933    3.333 
#    0.000    2.000    0.000    2.400    0.000    0.000 
#    0.000    0.267    0.000    1.467    0.000    0.000 
#
# Total GULP energy -668575.119754 kJ/mol
# GULP energy per Si atom -5571.459331 kJ/mol
# Density = 1.736222 g / cm^3
# Si number density = 17.401823 Si / 1000 Ang^3
#
#
#
# Elastic Constant Matrix: (Units=GPa)
#
#
# Indices 1 2 3 4 5 6 
#
# 1 68.6909 28.8486 33.1753 0.0000 0.0000 0.0000
# 2 28.8486 68.6909 33.1753 0.0000 0.0000 0.0000
# 3 33.1753 33.1753 82.3481 0.0000 0.0000 0.0000
# 4 0.0000 0.0000 0.0000 22.1630 0.0000 0.0000
# 5 0.0000 0.0000 0.0000 0.0000 22.1630 0.0000
# 6 0.0000 0.0000 0.0000 0.0000 0.0000 23.1289
#
#
#
# Elastic Compliance Matrix: (Units=1/GPa)
#
#
# Indices 1 2 3 4 5 6 
#
# 1 0.019611 -0.005488 -0.005689 0.000000 0.000000 0.000000
# 2 -0.005488 0.019611 -0.005689 0.000000 0.000000 0.000000
# 3 -0.005689 -0.005689 0.016728 0.000000 0.000000 0.000000
# 4 0.000000 0.000000 0.000000 0.045120 0.000000 0.000000
# 5 0.000000 0.000000 0.000000 0.000000 0.045120 0.000000
# 6 0.000000 0.000000 0.000000 0.000000 0.000000 0.043236
#
#
# Mechanical properties :
#
#
# Convention : Reuss Voigt Hill
#
# Bulk Modulus (GPa) = 45.01494 45.56979 45.29237
# Shear Modulus (GPa) = 21.68586 21.79303 21.73945
#
# Velocity S-wave (km/s) = 3.53396 3.54268 3.53833
# Velocity P-wave (km/s) = 6.52503 6.55574 6.54040
#
# Compressibility (1/GPa) = 0.02221484
#
# Stress axis : x y z
#
# Youngs Moduli (GPa) = 50.99252 50.99252 59.78085
#
# Poissons Ratio (x) = 0.27986 0.34012
# Poissons Ratio (y) = 0.27986 0.34012
# Poissons Ratio (z) = 0.29012 0.29012
#
# Static dielectric constant tensor:
#      x y z
#    x 1.615020 0.000000 0.000000 
#    y 0.000000 1.615020 0.000000 
#    z 0.000000 0.000000 1.597890 
# 
# From -- ./inp_files/9086.got.cif
#   From: 2010.05.17/outbox.cif.g08.bks.cpg/sg139_5_cif.got.tgz:9086.got - 2010.05.20 13:14:44.
