data_PCOD9571163
_publ_section_title
;
Structure prediction by ZEFSAII (Michael W. Deem and Ramdas Pophale) SiO2 
 PCOD9571163
Probable space group: I 4/M M M
;
_chemical_formula_sum "Si O2"
_cell_formula_units_Z 192
_cell_length_a 22.012723
_cell_length_b 22.012723
_cell_length_c 22.523715
_cell_angle_alpha 90.000000
_cell_angle_beta 90.000000
_cell_angle_gamma 90.000000
_cell_volume 10914.090752
_symmetry_space_group_name_H-M "I 4/M M M"
_symmetry_group_IT_number 139
_symmetry_cell_setting 'tetragonal'
loop_
_space_group_symop_operation_xyz
x,y,z
-y,x,z
-x,-y,z
y,-x,z
x,-y,-z
-x,y,-z
y,x,-z
-y,-x,-z
-x,-y,-z
y,-x,-z
x,y,-z
-y,x,-z
-x,y,z
x,-y,z
-y,-x,z
y,x,z
1/2+x,1/2+y,1/2+z
1/2-y,1/2+x,1/2+z
1/2-x,1/2-y,1/2+z
1/2+y,1/2-x,1/2+z
1/2+x,1/2-y,1/2-z
1/2-x,1/2+y,1/2-z
1/2+y,1/2+x,1/2-z
1/2-y,1/2-x,1/2-z
1/2-x,1/2-y,1/2-z
1/2+y,1/2-x,1/2-z
1/2+x,1/2+y,1/2-z
1/2-y,1/2+x,1/2-z
1/2-x,1/2+y,1/2+z
1/2+x,1/2-y,1/2+z
1/2-y,1/2-x,1/2+z
1/2+y,1/2+x,1/2+z
loop_
_atom_site_type_symbol
_atom_site_label
_atom_site_fract_x
_atom_site_fract_y
_atom_site_fract_z
Si Si1 0.929032 0.766238 0.068180
Si Si2 0.672485 0.428735 0.000000
Si Si3 0.360870 0.881795 0.071119
Si Si4 0.069874 0.500000 0.427370
Si Si5 0.072770 0.738734 0.612324
Si Si6 0.747083 0.849862 0.732519
Si Si7 0.331160 0.571032 0.686649
O O1 0.886632 0.709948 0.087358
O O2 0.924564 0.818988 0.116129
O O3 0.000000 0.744862 0.069034
O O4 0.915503 0.783302 0.000000
O O5 0.712208 0.417416 0.940350
O O6 0.656214 0.500000 0.000000
O O7 0.614955 0.385046 0.000000
O O8 0.395663 0.940688 0.094345
O O9 0.398774 0.823616 0.088630
O O10 0.360421 0.885650 0.000000
O O11 0.071268 0.500000 0.500000
O O12 0.000000 0.500000 0.409729
O O13 0.109981 0.748778 0.672821
O O14 0.000000 0.734791 0.622280
O O15 0.794942 0.794942 0.724860
O O16 0.683153 0.816848 0.750000
O O17 0.774966 0.894155 0.782537
O O18 0.333363 0.500000 0.703089
O O19 0.391740 0.608261 0.702606
#
# Coordination Sequence:
#
# PCOD9571163 Si02
#       7
#    32  16  32  16  32  32  32
#     4   9  17  31  52  77 107 143 181 226 274 320
#     4  10  22  39  58  83 115 147 185 235 290 352
#     4  10  17  29  47  74 109 148 182 218 264 313
#     4   9  16  24  40  66 102 142 181 219 254 304
#     4  11  21  34  55  83 114 146 183 228 282 335
#     4  10  21  38  59  80 107 143 186 230 279 340
#     4  10  21  37  57  81 109 142 184 231 282 339
#
# _framework density 17.591937000000001
#
# number of rings (size 3 to 8) (size 9 to 14) (size 15 to 20)
#    0.000    2.083    1.667    2.500    0.000    1.250 
#    0.000    0.833    0.000    0.000    0.000    4.667 
#    0.000    0.000    0.000    0.000    0.000    0.000 
#
# Total GULP energy -534919.406778 kJ/mol
# GULP energy per Si atom -5572.077154 kJ/mol
# Density = 1.755190 g / cm^3
# Si number density = 17.591937 Si / 1000 Ang^3
#
#
#
# Elastic Constant Matrix: (Units=GPa)
#
#
# Indices 1 2 3 4 5 6 
#
# 1 98.0051 56.8049 38.5059 0.0000 0.0000 0.0000
# 2 56.8049 98.0012 38.5068 0.0000 0.0000 0.0000
# 3 38.5059 38.5068 69.9066 0.0000 0.0000 0.0000
# 4 0.0000 0.0000 0.0000 20.2342 0.0000 0.0000
# 5 0.0000 0.0000 0.0000 0.0000 20.2319 0.0000
# 6 0.0000 0.0000 0.0000 0.0000 0.0000 21.1351
#
#
#
# Elastic Compliance Matrix: (Units=1/GPa)
#
#
# Indices 1 2 3 4 5 6 
#
# 1 0.016585 -0.007688 -0.004901 0.000000 0.000000 0.000000
# 2 -0.007688 0.016586 -0.004902 0.000000 0.000000 0.000000
# 3 -0.004901 -0.004902 0.019704 0.000000 0.000000 0.000000
# 4 0.000000 0.000000 0.000000 0.049421 0.000000 0.000000
# 5 0.000000 0.000000 0.000000 0.000000 0.049427 0.000000
# 6 0.000000 0.000000 0.000000 0.000000 0.000000 0.047315
#
#
# Mechanical properties :
#
#
# Convention : Reuss Voigt Hill
#
# Bulk Modulus (GPa) = 55.88091 59.28311 57.58201
# Shear Modulus (GPa) = 20.83486 21.12658 20.98072
#
# Velocity S-wave (km/s) = 3.44516 3.46920 3.45720
# Velocity P-wave (km/s) = 6.90359 7.05828 6.98136
#
# Compressibility (1/GPa) = 0.01789520
#
# Stress axis : x y z
#
# Youngs Moduli (GPa) = 60.29614 60.29229 50.75078
#
# Poissons Ratio (x) = 0.46350 0.24871
# Poissons Ratio (y) = 0.46353 0.24876
# Poissons Ratio (z) = 0.29549 0.29553
#
# Static dielectric constant tensor:
#      x y z
#    x 1.589880 0.000000 0.000000 
#    y 0.000000 1.589880 0.000000 
#    z 0.000000 0.000000 1.625620 
# 
# From -- ./inp_files/12020.got.cif
#   From: 2010.05.17/outbox.cif.g08.bks.cpg/sg139_7_cif.got.tgz:12020.got - 2010.05.20 13:14:44.
