data_PCOD9571914
_publ_section_title
;
Structure prediction by ZEFSAII (Michael W. Deem and Ramdas Pophale) SiO2 
 PCOD9571914
Probable space group: I 4/M M M
;
_chemical_formula_sum "Si O2"
_cell_formula_units_Z 80
_cell_length_a 17.190056
_cell_length_b 17.190056
_cell_length_c 14.442400
_cell_angle_alpha 90.000000
_cell_angle_beta 90.000000
_cell_angle_gamma 90.000000
_cell_volume 4267.700680
_symmetry_space_group_name_H-M "I 4/M M M"
_symmetry_group_IT_number 139
_symmetry_cell_setting 'tetragonal'
loop_
_space_group_symop_operation_xyz
x,y,z
-y,x,z
-x,-y,z
y,-x,z
x,-y,-z
-x,y,-z
y,x,-z
-y,-x,-z
-x,-y,-z
y,-x,-z
x,y,-z
-y,x,-z
-x,y,z
x,-y,z
-y,-x,z
y,x,z
1/2+x,1/2+y,1/2+z
1/2-y,1/2+x,1/2+z
1/2-x,1/2-y,1/2+z
1/2+y,1/2-x,1/2+z
1/2+x,1/2-y,1/2-z
1/2-x,1/2+y,1/2-z
1/2+y,1/2+x,1/2-z
1/2-y,1/2-x,1/2-z
1/2-x,1/2-y,1/2-z
1/2+y,1/2-x,1/2-z
1/2+x,1/2+y,1/2-z
1/2-y,1/2+x,1/2-z
1/2-x,1/2+y,1/2+z
1/2+x,1/2-y,1/2+z
1/2-y,1/2-x,1/2+z
1/2+y,1/2+x,1/2+z
loop_
_atom_site_type_symbol
_atom_site_label
_atom_site_fract_x
_atom_site_fract_y
_atom_site_fract_z
Si Si1 0.289903 0.407190 0.000000
Si Si2 0.408991 0.000000 0.610572
Si Si3 0.828213 0.659550 0.853752
Si Si4 0.094322 0.224428 0.000000
O O1 0.246153 0.367875 0.912850
O O2 0.282594 0.500000 0.000000
O O3 0.378036 0.378036 0.000000
O O4 0.375589 0.079037 0.650728
O O5 0.500000 0.000000 0.622979
O O6 0.392478 0.000000 0.500000
O O7 0.813039 0.686962 0.750000
O O8 0.875885 0.723815 0.912470
O O9 0.143743 0.143743 0.000000
O O10 0.000000 0.216309 0.000000
#
# Coordination Sequence:
#
# PCOD9571914 Si02
#       4
#    16  16  32  16
#     4  11  23  42  61  87 122 157 204 251 295 351
#     4  11  20  32  54  87 127 161 188 234 292 365
#     4  11  22  38  62  90 122 157 194 243 301 360
#     4  11  25  43  62  88 121 158 205 254 295 351
#
# _framework density 18.745457999999999
#
# number of rings (size 3 to 8) (size 9 to 14) (size 15 to 20)
#    0.000    1.000    6.000    3.600    5.600    3.600 
#    0.000    0.000    0.000    0.000    0.000    5.600 
#    0.000    0.000    0.000    0.000    0.000    0.000 
#
# Total GULP energy -223319.596378 kJ/mol
# GULP energy per Si atom -5582.989909 kJ/mol
# Density = 1.870279 g / cm^3
# Si number density = 18.745458 Si / 1000 Ang^3
#
#
#
# Elastic Constant Matrix: (Units=GPa)
#
#
# Indices 1 2 3 4 5 6 
#
# 1 85.5831 139.6792 45.2403 0.0000 0.0000 0.0000
# 2 139.6792 85.5822 45.2395 0.0000 0.0000 0.0000
# 3 45.2403 45.2395 153.9212 0.0000 0.0000 0.0000
# 4 0.0000 0.0000 0.0000 -10.9997 0.0000 0.0000
# 5 0.0000 0.0000 0.0000 0.0000 -10.9968 0.0000
# 6 0.0000 0.0000 0.0000 0.0000 0.0000 2.8687
#
#
#
# Elastic Compliance Matrix: (Units=1/GPa)
#
#
# Indices 1 2 3 4 5 6 
#
# 1 -0.006726 0.011759 -0.001479 0.000000 0.000000 0.000000
# 2 0.011759 -0.006726 -0.001479 0.000000 0.000000 0.000000
# 3 -0.001479 -0.001479 0.007366 0.000000 0.000000 0.000000
# 4 0.000000 0.000000 0.000000 -0.090911 0.000000 0.000000
# 5 0.000000 0.000000 0.000000 0.000000 -0.090935 0.000000
# 6 0.000000 0.000000 0.000000 0.000000 0.000000 0.348588
#
#
# Mechanical properties :
#
#
# Convention : Reuss Voigt Hill
#
# Bulk Modulus (GPa) = 86.83724 87.26714 87.05219
# Shear Modulus (GPa) = 34.03822 2.50293 18.27057
#
# Velocity S-wave (km/s) = 4.26586 1.15677 3.12535
# Velocity P-wave (km/s) = 8.40764 6.95981 7.71775
#
# Compressibility (1/GPa) = 0.01151580
#
# Stress axis : x y z
#
# Youngs Moduli (GPa) = -148.67784 -148.67692 135.74993
#
# Poissons Ratio (x) = 1.74836 0.20083
# Poissons Ratio (y) = 1.74838 0.20084
# Poissons Ratio (z) = -0.21995 -0.21996
#
# Static dielectric constant tensor:
#      x y z
#    x 1.575680 0.000000 0.000000 
#    y 0.000000 1.575690 0.000000 
#    z 0.000000 0.000000 1.681160 
# 
# From -- ./inp_files/4741.got.cif
#   From: 2010.05.17/outbox.cif.g08.bks.cpg/sg139_3_cif.got.tgz:4741.got - 2010.05.20 13:14:44.
