data_PCOD9571979
_publ_section_title
;
Structure prediction by ZEFSAII (Michael W. Deem and Ramdas Pophale) SiO2 
 PCOD9571979
Probable space group: I 4/M M M
;
_chemical_formula_sum "Si O2"
_cell_formula_units_Z 120
_cell_length_a 21.000000
_cell_length_b 21.000000
_cell_length_c 27.000000
_cell_angle_alpha 90.000000
_cell_angle_beta 90.000000
_cell_angle_gamma 90.000000
_cell_volume 11907.000000
_symmetry_space_group_name_H-M "I 4/M M M"
_symmetry_group_IT_number 139
_symmetry_cell_setting 'tetragonal'
loop_
_space_group_symop_operation_xyz
x,y,z
-y,x,z
-x,-y,z
y,-x,z
x,-y,-z
-x,y,-z
y,x,-z
-y,-x,-z
-x,-y,-z
y,-x,-z
x,y,-z
-y,x,-z
-x,y,z
x,-y,z
-y,-x,z
y,x,z
1/2+x,1/2+y,1/2+z
1/2-y,1/2+x,1/2+z
1/2-x,1/2-y,1/2+z
1/2+y,1/2-x,1/2+z
1/2+x,1/2-y,1/2-z
1/2-x,1/2+y,1/2-z
1/2+y,1/2+x,1/2-z
1/2-y,1/2-x,1/2-z
1/2-x,1/2-y,1/2-z
1/2+y,1/2-x,1/2-z
1/2+x,1/2+y,1/2-z
1/2-y,1/2+x,1/2-z
1/2-x,1/2+y,1/2+z
1/2+x,1/2-y,1/2+z
1/2-y,1/2-x,1/2+z
1/2+y,1/2+x,1/2+z
loop_
_atom_site_type_symbol
_atom_site_label
_atom_site_fract_x
_atom_site_fract_y
_atom_site_fract_z
Si Si1 0.103204 0.795011 0.714609
Si Si2 0.069905 0.832719 0.174606
Si Si3 0.422111 0.072104 0.500000
Si Si4 0.324550 0.572036 0.103184
Si Si5 0.768744 0.667996 0.646411
Si Si6 0.273550 0.164090 0.443506
Si Si7 0.646924 0.109819 0.702087
Si Si8 0.924748 0.570815 0.606615
O O1 0.175363 0.824638 0.715712
O O2 0.074608 0.817773 0.766616
O O3 0.075179 0.821248 0.663090
O O4 0.091760 0.719719 0.710529
O O5 0.097242 0.902759 0.167934
O O6 0.115044 0.784560 0.145676
O O7 0.000000 0.824611 0.156474
O O8 0.500000 0.069332 0.500000
O O9 0.406347 0.100949 0.446595
O O10 0.395904 0.000000 0.500000
O O11 0.331868 0.500000 0.086782
O O12 0.382768 0.617233 0.087452
O O13 0.260159 0.603107 0.081387
O O14 0.734123 0.734123 0.657245
O O15 0.806438 0.677404 0.595745
O O16 0.815198 0.650577 0.690633
O O17 0.293550 0.152482 0.500000
O O18 0.217647 0.217647 0.445677
O O19 0.602823 0.102823 0.750000
O O20 0.616463 0.082140 0.652965
O O21 0.898496 0.500000 0.617979
O O22 0.000000 0.564287 0.598373
#
# Coordination Sequence:
#
# PCOD9571979 Si02
#       8
#    32  32  16  32  32  32  32  32
#     4  10  20  36  56  79 111 149 191 237 287 340
#     4  10  21  36  58  86 117 153 189 231 282 343
#     4   7  12  32  62  76  89 132 188 236 277 330
#     4  10  20  34  54  80 114 155 199 249 301 352
#     4  10  20  37  58  81 108 143 188 235 285 341
#     4   9  18  35  59  83 109 144 186 237 299 355
#     4  12  22  33  52  82 110 148 185 239 287 348
#     4   9  20  38  56  76 105 144 190 235 287 347
#
# _framework density 10.078105000000001
#
# number of rings (size 3 to 8) (size 9 to 14) (size 15 to 20)
#    0.000    2.200    2.667    1.600    0.000    3.200 
#    1.200    0.667    0.000    2.800    0.000    1.867 
#    0.000    0.000    0.000    5.333    0.000    0.000 
#
# Total GULP energy -668538.425262 kJ/mol
# GULP energy per Si atom -5571.153544 kJ/mol
# Density = 1.005517 g / cm^3
# Si number density = 10.078105 Si / 1000 Ang^3
#
#
#
# Elastic Constant Matrix: (Units=GPa)
#
#
# Indices 1 2 3 4 5 6 
#
# 1 62.5568 12.5129 30.2028 0.0000 0.0000 0.0000
# 2 12.5129 62.5568 30.2028 0.0000 0.0000 0.0000
# 3 30.2028 30.2028 107.7150 0.0000 0.0000 0.0000
# 4 0.0000 0.0000 0.0000 16.8721 0.0000 0.0000
# 5 0.0000 0.0000 0.0000 0.0000 16.8721 0.0000
# 6 0.0000 0.0000 0.0000 0.0000 0.0000 11.3653
#
#
#
# Elastic Compliance Matrix: (Units=1/GPa)
#
#
# Indices 1 2 3 4 5 6 
#
# 1 0.018592 -0.001390 -0.004823 0.000000 0.000000 0.000000
# 2 -0.001390 0.018592 -0.004823 0.000000 0.000000 0.000000
# 3 -0.004823 -0.004823 0.011989 0.000000 0.000000 0.000000
# 4 0.000000 0.000000 0.000000 0.059270 0.000000 0.000000
# 5 0.000000 0.000000 0.000000 0.000000 0.059270 0.000000
# 6 0.000000 0.000000 0.000000 0.000000 0.000000 0.087987
#
#
# Mechanical properties :
#
#
# Convention : Reuss Voigt Hill
#
# Bulk Modulus (GPa) = 36.90123 42.07396 39.48760
# Shear Modulus (GPa) = 17.43335 19.68256 18.55796
#
# Velocity S-wave (km/s) = 2.94413 3.12829 3.03761
# Velocity P-wave (km/s) = 5.46851 5.82817 5.65120
#
# Compressibility (1/GPa) = 0.02709937
#
# Stress axis : x y z
#
# Youngs Moduli (GPa) = 53.78568 53.78568 83.41201
#
# Poissons Ratio (x) = 0.07477 0.40233
# Poissons Ratio (y) = 0.07477 0.40233
# Poissons Ratio (z) = 0.25943 0.25943
#
# Static dielectric constant tensor:
#      x y z
#    x 1.758170 0.000000 0.000000 
#    y 0.000000 1.758170 0.000000 
#    z 0.000000 0.000000 1.712910 
# 
# From -- ./inp_files/13397.got.cif
#   From: 2010.05.17/outbox.ucp.g08.bks.cvg/sg139_7_cif.got.tgz:13397.got - 2010.06.11 11:42:03.
