data_PCOD9571045
_publ_section_title
;
Structure prediction by ZEFSAII (Michael W. Deem and Ramdas Pophale) SiO2 
 PCOD9571045
Probable space group: P 42/N C M
;
_chemical_formula_sum "Si O2"
_cell_formula_units_Z 60
_cell_length_a 12.393903
_cell_length_b 12.393903
_cell_length_c 20.462964
_cell_angle_alpha 90.000000
_cell_angle_beta 90.000000
_cell_angle_gamma 90.000000
_cell_volume 3143.291991
_symmetry_space_group_name_H-M "P 42/N C M"
_symmetry_group_IT_number 138
_space_group.IT_coordinate_system_code '2'
_symmetry_cell_setting 'tetragonal'
loop_
_space_group_symop_operation_xyz
x,y,z
1/2-y,x,1/2+z
1/2-x,1/2-y,z
y,1/2-x,1/2+z
1/2+x,-y,1/2-z
-x,1/2+y,1/2-z
1/2+y,1/2+x,-z
-y,-x,-z
-x,-y,-z
1/2+y,-x,1/2-z
1/2+x,1/2+y,-z
-y,1/2+x,1/2-z
1/2-x,y,1/2+z
x,1/2-y,1/2+z
1/2-y,1/2-x,z
y,x,z
loop_
_atom_site_type_symbol
_atom_site_label
_atom_site_fract_x
_atom_site_fract_y
_atom_site_fract_z
Si Si1 0.122179 0.377822 0.680887
Si Si2 0.237795 0.529730 0.918841
Si Si3 0.546620 0.953381 0.178101
Si Si4 0.515704 0.515704 0.079442
Si Si5 0.407711 0.092290 0.009916
Si Si6 0.250000 0.750000 0.500000
Si Si7 0.373715 0.126286 0.161469
O O1 0.086147 0.413854 0.752313
O O2 0.249954 0.397517 0.676707
O O3 0.061589 0.438412 0.621750
O O4 0.145993 0.506101 0.863926
O O5 0.360732 0.507397 0.900658
O O6 0.200380 0.448810 0.976043
O O7 0.239779 0.647306 0.952108
O O8 0.456832 0.043169 0.192236
O O9 0.500000 0.500000 0.000000
O O10 0.390485 0.109516 0.084922
O O11 0.500000 0.000000 0.000000
#
# Coordination Sequence:
#
# PCOD9571045 Si02
#       7
#     8  16   8   8   8   4   8
#     4  11  29  43  69  97 137 185 232 282 338 424
#     4  11  24  39  70  97 145 168 227 279 357 411
#     4  11  26  47  67 100 131 199 224 282 343 427
#     4  12  25  42  65 109 138 169 225 299 350 400
#     4  11  19  42  65  99 124 178 214 275 336 424
#     4  12  20  40  68 110 132 180 218 304 336 408
#     4  11  23  48  71  91 135 178 230 273 337 420
#
# _framework density 19.088269
#
# number of rings (size 3 to 8) (size 9 to 14) (size 15 to 20)
#    0.000    0.800    5.333    1.600    7.467    4.267 
#    0.000    0.000    0.000    0.000    0.000    0.000 
#    0.000    0.000    0.000    0.000    0.000    0.000 
#
# Total GULP energy -335054.207029 kJ/mol
# GULP energy per Si atom -5584.236784 kJ/mol
# Density = 1.904482 g / cm^3
# Si number density = 19.088269 Si / 1000 Ang^3
#
#
#
# Elastic Constant Matrix: (Units=GPa)
#
#
# Indices 1 2 3 4 5 6 
#
# 1 123.2415 132.9283 65.8945 0.0000 0.0000 0.0000
# 2 132.9283 123.2415 65.8945 0.0000 0.0000 0.0000
# 3 65.8945 65.8945 132.6138 0.0000 0.0000 0.0000
# 4 0.0000 0.0000 0.0000 -10.2696 0.0000 0.0000
# 5 0.0000 0.0000 0.0000 0.0000 -10.2696 0.0000
# 6 0.0000 0.0000 0.0000 0.0000 0.0000 38.0569
#
#
#
# Elastic Compliance Matrix: (Units=1/GPa)
#
#
# Indices 1 2 3 4 5 6 
#
# 1 -0.048995 0.054239 -0.002606 0.000000 0.000000 0.000000
# 2 0.054239 -0.048995 -0.002606 0.000000 0.000000 0.000000
# 3 -0.002606 -0.002606 0.010130 0.000000 0.000000 0.000000
# 4 0.000000 0.000000 0.000000 -0.097375 0.000000 0.000000
# 5 0.000000 0.000000 0.000000 0.000000 -0.097375 0.000000
# 6 0.000000 0.000000 0.000000 0.000000 0.000000 0.026276
#
#
# Mechanical properties :
#
#
# Convention : Reuss Voigt Hill
#
# Bulk Modulus (GPa) = 98.08217 100.94795 99.51506
# Shear Modulus (GPa) = -14.24545 11.12884 -1.55830
#
# Velocity S-wave (km/s) = -2.73480 2.41720 -0.90451
# Velocity P-wave (km/s) = 6.44382 7.79680 7.15238
#
# Compressibility (1/GPa) = 0.01019553
#
# Stress axis : x y z
#
# Youngs Moduli (GPa) = -20.41026 -20.41026 98.71376
#
# Poissons Ratio (x) = 1.10704 0.25723
# Poissons Ratio (y) = 1.10704 0.25723
# Poissons Ratio (z) = -0.05319 -0.05319
#
# Static dielectric constant tensor:
#      x y z
#    x 1.656800 0.000000 0.000000 
#    y 0.000000 1.656800 0.000000 
#    z 0.000000 0.000000 1.692870 
# 
# From -- ./inp_files/5924.got.cif
#   From: 2010.05.17/outbox.cif.g08.bks.cpg/sg138_3_cif.got.tgz:5924.got - 2010.05.20 13:08:53.
