data_PCOD9571839
_publ_section_title
;
Structure prediction by ZEFSAII (Michael W. Deem and Ramdas Pophale) SiO2 
 PCOD9571839
Probable space group: I 4/M M M
;
_chemical_formula_sum "Si O2"
_cell_formula_units_Z 168
_cell_length_a 24.620395
_cell_length_b 24.620395
_cell_length_c 14.953394
_cell_angle_alpha 90.000000
_cell_angle_beta 90.000000
_cell_angle_gamma 90.000000
_cell_volume 9064.206877
_symmetry_space_group_name_H-M "I 4/M M M"
_symmetry_group_IT_number 139
_symmetry_cell_setting 'tetragonal'
loop_
_space_group_symop_operation_xyz
x,y,z
-y,x,z
-x,-y,z
y,-x,z
x,-y,-z
-x,y,-z
y,x,-z
-y,-x,-z
-x,-y,-z
y,-x,-z
x,y,-z
-y,x,-z
-x,y,z
x,-y,z
-y,-x,z
y,x,z
1/2+x,1/2+y,1/2+z
1/2-y,1/2+x,1/2+z
1/2-x,1/2-y,1/2+z
1/2+y,1/2-x,1/2+z
1/2+x,1/2-y,1/2-z
1/2-x,1/2+y,1/2-z
1/2+y,1/2+x,1/2-z
1/2-y,1/2-x,1/2-z
1/2-x,1/2-y,1/2-z
1/2+y,1/2-x,1/2-z
1/2+x,1/2+y,1/2-z
1/2-y,1/2+x,1/2-z
1/2-x,1/2+y,1/2+z
1/2+x,1/2-y,1/2+z
1/2-y,1/2-x,1/2+z
1/2+y,1/2+x,1/2+z
loop_
_atom_site_type_symbol
_atom_site_label
_atom_site_fract_x
_atom_site_fract_y
_atom_site_fract_z
Si Si1 0.120206 0.247847 0.725672
Si Si2 0.750000 0.250000 0.250000
Si Si3 0.563407 0.785519 0.603361
Si Si4 0.346112 0.435387 0.105839
Si Si5 0.823306 0.561335 0.097257
Si Si6 0.913684 0.560765 0.352780
O O1 0.184421 0.250239 0.728280
O O2 0.097455 0.250614 0.826507
O O3 0.094118 0.198343 0.668744
O O4 0.098628 0.301218 0.674814
O O5 0.581356 0.781199 0.500000
O O6 0.500000 0.769773 0.608413
O O7 0.565638 0.848839 0.632208
O O8 0.349479 0.500000 0.125105
O O9 0.402822 0.402822 0.117791
O O10 0.331521 0.429982 0.000000
O O11 0.803193 0.500000 0.111955
O O12 0.888109 0.561073 0.098042
O O13 0.804330 0.580291 0.000000
O O14 0.929282 0.500000 0.381385
O O15 0.930805 0.569196 0.250000
#
# Coordination Sequence:
#
# PCOD9571839 Si02
#       6
#    32   8  32  32  32  32
#     4  12  22  43  61  88 124 162 204 257 303 370
#     4  12  28  40  62  88 122 166 208 238 310 376
#     4  10  21  38  63  88 112 155 208 255 305 357
#     4  10  21  39  67 101 136 173 209 252 313 384
#     4  11  23  38  60  87 114 156 207 251 305 368
#     4  11  21  35  53  78 114 155 203 260 318 367
#
# _framework density 18.534441000000001
#
# number of rings (size 3 to 8) (size 9 to 14) (size 15 to 20)
#    0.000    1.143    2.857    4.571    0.000    4.190 
#    0.000    5.238    0.000    0.000    0.000    0.000 
#    0.000    0.000    0.000    4.000    0.000    0.190 
#
# Total GULP energy -468106.398275 kJ/mol
# GULP energy per Si atom -5572.695218 kJ/mol
# Density = 1.849226 g / cm^3
# Si number density = 18.534441 Si / 1000 Ang^3
#
#
#
# Elastic Constant Matrix: (Units=GPa)
#
#
# Indices 1 2 3 4 5 6 
#
# 1 103.3314 57.7496 57.6344 0.0000 0.0000 0.0000
# 2 57.7496 103.3305 57.6347 0.0000 0.0000 0.0000
# 3 57.6344 57.6347 119.4718 0.0000 0.0000 0.0000
# 4 0.0000 0.0000 0.0000 20.5323 0.0000 0.0000
# 5 0.0000 0.0000 0.0000 0.0000 20.5353 0.0000
# 6 0.0000 0.0000 0.0000 0.0000 0.0000 17.3062
#
#
#
# Elastic Compliance Matrix: (Units=1/GPa)
#
#
# Indices 1 2 3 4 5 6 
#
# 1 0.015710 -0.006229 -0.004574 0.000000 0.000000 0.000000
# 2 -0.006229 0.015710 -0.004574 0.000000 0.000000 0.000000
# 3 -0.004574 -0.004574 0.012783 0.000000 0.000000 0.000000
# 4 0.000000 0.000000 0.000000 0.048704 0.000000 0.000000
# 5 0.000000 0.000000 0.000000 0.000000 0.048697 0.000000
# 6 0.000000 0.000000 0.000000 0.000000 0.000000 0.057783
#
#
# Mechanical properties :
#
#
# Convention : Reuss Voigt Hill
#
# Bulk Modulus (GPa) = 74.34894 74.68568 74.51731
# Shear Modulus (GPa) = 21.31086 21.88243 21.59665
#
# Velocity S-wave (km/s) = 3.39455 3.43977 3.41723
# Velocity P-wave (km/s) = 7.45419 7.49394 7.47409
#
# Compressibility (1/GPa) = 0.01345009
#
# Stress axis : x y z
#
# Youngs Moduli (GPa) = 63.65451 63.65348 78.22864
#
# Poissons Ratio (x) = 0.39649 0.35779
# Poissons Ratio (y) = 0.39650 0.35781
# Poissons Ratio (z) = 0.29113 0.29114
#
# Static dielectric constant tensor:
#      x y z
#    x 1.638940 0.000000 0.000000 
#    y 0.000000 1.638940 0.000000 
#    z 0.000000 0.000000 1.671010 
# 
# From -- ./inp_files/6142.got.cif
#   From: 2010.05.17/outbox.cif.g08.bks.cpg/sg139_4_cif.got.tgz:6142.got - 2010.05.20 13:14:44.
