data_PCOD9571761
_publ_section_title
;
Structure prediction by ZEFSAII (Michael W. Deem and Ramdas Pophale) SiO2 
 PCOD9571761
Probable space group: I 4/M M M
;
_chemical_formula_sum "Si O2"
_cell_formula_units_Z 112
_cell_length_a 19.677586
_cell_length_b 19.677586
_cell_length_c 14.122522
_cell_angle_alpha 90.000000
_cell_angle_beta 90.000000
_cell_angle_gamma 90.000000
_cell_volume 5468.344895
_symmetry_space_group_name_H-M "I 4/M M M"
_symmetry_group_IT_number 139
_symmetry_cell_setting 'tetragonal'
loop_
_space_group_symop_operation_xyz
x,y,z
-y,x,z
-x,-y,z
y,-x,z
x,-y,-z
-x,y,-z
y,x,-z
-y,-x,-z
-x,-y,-z
y,-x,-z
x,y,-z
-y,x,-z
-x,y,z
x,-y,z
-y,-x,z
y,x,z
1/2+x,1/2+y,1/2+z
1/2-y,1/2+x,1/2+z
1/2-x,1/2-y,1/2+z
1/2+y,1/2-x,1/2+z
1/2+x,1/2-y,1/2-z
1/2-x,1/2+y,1/2-z
1/2+y,1/2+x,1/2-z
1/2-y,1/2-x,1/2-z
1/2-x,1/2-y,1/2-z
1/2+y,1/2-x,1/2-z
1/2+x,1/2+y,1/2-z
1/2-y,1/2+x,1/2-z
1/2-x,1/2+y,1/2+z
1/2+x,1/2-y,1/2+z
1/2-y,1/2-x,1/2+z
1/2+y,1/2+x,1/2+z
loop_
_atom_site_type_symbol
_atom_site_label
_atom_site_fract_x
_atom_site_fract_y
_atom_site_fract_z
Si Si1 0.811316 0.811316 0.884741
Si Si2 0.184675 0.077114 0.384783
Si Si3 0.080200 0.580200 0.750000
Si Si4 0.422110 0.577891 0.615649
Si Si5 0.655392 0.822201 0.113657
O O1 0.866646 0.866646 0.853796
O O2 0.826900 0.733948 0.856326
O O3 0.811719 0.811719 0.000000
O O4 0.184804 0.074657 0.500000
O O5 0.116267 0.116267 0.357016
O O6 0.250053 0.122079 0.358810
O O7 0.189489 0.000000 0.349931
O O8 0.092415 0.500000 0.745523
O O9 0.118432 0.612276 0.839444
O O10 0.406336 0.500000 0.644156
O O11 0.421578 0.578423 0.500000
O O12 0.653117 0.826181 0.000000
#
# Coordination Sequence:
#
# PCOD9571761 Si02
#       5
#    16  32  16  16  32
#     4   9  17  31  56  87 116 147 194 242 282 345
#     4   9  16  28  49  78 112 148 186 231 287 350
#     4  11  26  43  58  84 118 153 202 255 300 354
#     4   8  14  25  43  73 114 151 181 225 288 349
#     4  10  20  38  62  86 115 153 193 243 300 351
#
# _framework density 20.481518000000001
#
# number of rings (size 3 to 8) (size 9 to 14) (size 15 to 20)
#    0.000    2.571    1.429    1.286    0.000    4.286 
#    0.000    5.714    0.000    0.000    0.000    0.000 
#    0.000    0.000    0.000    0.000    0.000    0.000 
#
# Total GULP energy -312941.468476 kJ/mol
# GULP energy per Si atom -5588.240509 kJ/mol
# Density = 2.043490 g / cm^3
# Si number density = 20.481518 Si / 1000 Ang^3
#
#
#
# Elastic Constant Matrix: (Units=GPa)
#
#
# Indices 1 2 3 4 5 6 
#
# 1 190.1790 122.9305 21.5659 0.0000 0.0000 0.0000
# 2 122.9305 190.1790 21.5659 0.0000 0.0000 0.0000
# 3 21.5659 21.5659 62.1106 0.0000 0.0000 0.0000
# 4 0.0000 0.0000 0.0000 32.5188 0.0000 0.0000
# 5 0.0000 0.0000 0.0000 0.0000 32.5188 0.0000
# 6 0.0000 0.0000 0.0000 0.0000 0.0000 40.9583
#
#
#
# Elastic Compliance Matrix: (Units=1/GPa)
#
#
# Indices 1 2 3 4 5 6 
#
# 1 0.009112 -0.005758 -0.001165 0.000000 0.000000 0.000000
# 2 -0.005758 0.009112 -0.001165 0.000000 0.000000 0.000000
# 3 -0.001165 -0.001165 0.016909 0.000000 0.000000 0.000000
# 4 0.000000 0.000000 0.000000 0.030751 0.000000 0.000000
# 5 0.000000 0.000000 0.000000 0.000000 0.030751 0.000000
# 6 0.000000 0.000000 0.000000 0.000000 0.000000 0.024415
#
#
# Mechanical properties :
#
#
# Convention : Reuss Voigt Hill
#
# Bulk Modulus (GPa) = 52.74556 86.06590 69.40573
# Shear Modulus (GPa) = 34.83213 39.62628 37.22920
#
# Velocity S-wave (km/s) = 4.12838 4.40333 4.26807
# Velocity P-wave (km/s) = 6.96659 8.24408 7.63211
#
# Compressibility (1/GPa) = 0.01895894
#
# Stress axis : x y z
#
# Youngs Moduli (GPa) = 109.74287 109.74283 59.13979
#
# Poissons Ratio (x) = 0.63190 0.06888
# Poissons Ratio (y) = 0.63190 0.06888
# Poissons Ratio (z) = 0.12781 0.12781
#
# Static dielectric constant tensor:
#      x y z
#    x 1.691960 0.000000 0.000000 
#    y 0.000000 1.691960 0.000000 
#    z 0.000000 0.000000 1.751620 
# 
# From -- ./inp_files/7609.got.cif
#   From: 2010.05.17/outbox.cif.g08.bks.cpg/sg139_4_cif.got.tgz:7609.got - 2010.05.20 13:14:44.
