data_PCOD9571555
_publ_section_title
;
Structure prediction by ZEFSAII (Michael W. Deem and Ramdas Pophale) SiO2 
 PCOD9571555
Probable space group: I 4/M M M
;
_chemical_formula_sum "Si O2"
_cell_formula_units_Z 128
_cell_length_a 31.998574
_cell_length_b 31.998574
_cell_length_c 7.746795
_cell_angle_alpha 90.000000
_cell_angle_beta 90.000000
_cell_angle_gamma 90.000000
_cell_volume 7932.011092
_symmetry_space_group_name_H-M "I 4/M M M"
_symmetry_group_IT_number 139
_symmetry_cell_setting 'tetragonal'
loop_
_space_group_symop_operation_xyz
x,y,z
-y,x,z
-x,-y,z
y,-x,z
x,-y,-z
-x,y,-z
y,x,-z
-y,-x,-z
-x,-y,-z
y,-x,-z
x,y,-z
-y,x,-z
-x,y,z
x,-y,z
-y,-x,z
y,x,z
1/2+x,1/2+y,1/2+z
1/2-y,1/2+x,1/2+z
1/2-x,1/2-y,1/2+z
1/2+y,1/2-x,1/2+z
1/2+x,1/2-y,1/2-z
1/2-x,1/2+y,1/2-z
1/2+y,1/2+x,1/2-z
1/2-y,1/2-x,1/2-z
1/2-x,1/2-y,1/2-z
1/2+y,1/2-x,1/2-z
1/2+x,1/2+y,1/2-z
1/2-y,1/2+x,1/2-z
1/2-x,1/2+y,1/2+z
1/2+x,1/2-y,1/2+z
1/2-y,1/2-x,1/2+z
1/2+y,1/2+x,1/2+z
loop_
_atom_site_type_symbol
_atom_site_label
_atom_site_fract_x
_atom_site_fract_y
_atom_site_fract_z
Si Si1 0.228178 0.951360 0.500000
Si Si2 0.746858 0.818628 0.805188
Si Si3 0.636730 0.707276 0.000000
Si Si4 0.949834 0.706106 0.804411
Si Si5 0.615546 0.952574 0.792802
O O1 0.196717 0.912318 0.500000
O O2 0.257339 0.944492 0.667590
O O3 0.213780 0.000000 0.500000
O O4 0.781378 0.781378 0.806532
O O5 0.703778 0.796223 0.750000
O O6 0.764458 0.850742 0.665370
O O7 0.743610 0.834906 0.000000
O O8 0.666972 0.666972 0.000000
O O9 0.934877 0.660854 0.737203
O O10 0.000000 0.700369 0.816526
O O11 0.934722 0.714587 0.000000
O O12 0.577854 0.922147 0.750000
O O13 0.609151 0.000000 0.726444
O O14 0.618586 0.955042 0.000000
#
# Coordination Sequence:
#
# PCOD9571555 Si02
#       5
#    16  32  16  32  32
#     4  10  20  34  54  72  87 121 162 189 227 276
#     4   9  15  26  46  67  92 130 163 187 227 280
#     4  10  20  32  48  74 104 128 157 196 236 281
#     4   8  16  32  50  66  84 111 150 192 230 271
#     4   9  18  30  44  61  82 110 141 183 238 284
#
# _framework density 16.137142999999998
#
# number of rings (size 3 to 8) (size 9 to 14) (size 15 to 20)
#    0.000    3.000    1.250    1.500    1.750    1.750 
#    0.000    2.500    0.000    0.000    0.000    0.000 
#    0.000    0.250    0.000    0.000    0.000    0.000 
#
# Total GULP energy -356332.483555 kJ/mol
# GULP energy per Si atom -5567.695056 kJ/mol
# Density = 1.610041 g / cm^3
# Si number density = 16.137143 Si / 1000 Ang^3
#
#
#
# Elastic Constant Matrix: (Units=GPa)
#
#
# Indices 1 2 3 4 5 6 
#
# 1 62.9332 26.6099 18.0402 0.0000 0.0000 0.0000
# 2 26.6099 62.9312 18.0394 0.0000 0.0000 0.0000
# 3 18.0402 18.0394 85.6452 0.0000 0.0000 0.0000
# 4 0.0000 0.0000 0.0000 -0.5890 0.0000 0.0000
# 5 0.0000 0.0000 0.0000 0.0000 -0.5879 0.0000
# 6 0.0000 0.0000 0.0000 0.0000 0.0000 10.3411
#
#
#
# Elastic Compliance Matrix: (Units=1/GPa)
#
#
# Indices 1 2 3 4 5 6 
#
# 1 0.019867 -0.007664 -0.002571 0.000000 0.000000 0.000000
# 2 -0.007664 0.019868 -0.002570 0.000000 0.000000 0.000000
# 3 -0.002571 -0.002570 0.012759 0.000000 0.000000 0.000000
# 4 0.000000 0.000000 0.000000 -1.697857 0.000000 0.000000
# 5 0.000000 0.000000 0.000000 0.000000 -1.700999 0.000000
# 6 0.000000 0.000000 0.000000 0.000000 0.000000 0.096702
#
#
# Mechanical properties :
#
#
# Convention : Reuss Voigt Hill
#
# Bulk Modulus (GPa) = 37.19649 37.43208 37.31428
# Shear Modulus (GPa) = -1.55517 11.75418 5.09951
#
# Velocity S-wave (km/s) = -0.98276 2.70180 1.77960
# Velocity P-wave (km/s) = 4.67039 5.74278 5.23412
#
# Compressibility (1/GPa) = 0.02688426
#
# Stress axis : x y z
#
# Youngs Moduli (GPa) = 50.33419 50.33276 78.37633
#
# Poissons Ratio (x) = 0.38574 0.20147
# Poissons Ratio (y) = 0.38575 0.20146
# Poissons Ratio (z) = 0.12939 0.12938
#
# Static dielectric constant tensor:
#      x y z
#    x 1.548990 0.000000 0.000000 
#    y 0.000000 1.548990 0.000000 
#    z 0.000000 0.000000 1.576770 
# 
# From -- ./inp_files/1812.got.cif
#   From: 2010.05.17/outbox.cif.g08.bks.cpg/sg139_1_cif.got.tgz:1812.got - 2010.05.20 13:14:44.
