data_PCOD9571976
_publ_section_title
;
Structure prediction by ZEFSAII (Michael W. Deem and Ramdas Pophale) SiO2 
 PCOD9571976
Probable space group: I 4/M M M
;
_chemical_formula_sum "Si O2"
_cell_formula_units_Z 120
_cell_length_a 21.000000
_cell_length_b 21.000000
_cell_length_c 30.000000
_cell_angle_alpha 90.000000
_cell_angle_beta 90.000000
_cell_angle_gamma 90.000000
_cell_volume 13230.000000
_symmetry_space_group_name_H-M "I 4/M M M"
_symmetry_group_IT_number 139
_symmetry_cell_setting 'tetragonal'
loop_
_space_group_symop_operation_xyz
x,y,z
-y,x,z
-x,-y,z
y,-x,z
x,-y,-z
-x,y,-z
y,x,-z
-y,-x,-z
-x,-y,-z
y,-x,-z
x,y,-z
-y,x,-z
-x,y,z
x,-y,z
-y,-x,z
y,x,z
1/2+x,1/2+y,1/2+z
1/2-y,1/2+x,1/2+z
1/2-x,1/2-y,1/2+z
1/2+y,1/2-x,1/2+z
1/2+x,1/2-y,1/2-z
1/2-x,1/2+y,1/2-z
1/2+y,1/2+x,1/2-z
1/2-y,1/2-x,1/2-z
1/2-x,1/2-y,1/2-z
1/2+y,1/2-x,1/2-z
1/2+x,1/2+y,1/2-z
1/2-y,1/2+x,1/2-z
1/2-x,1/2+y,1/2+z
1/2+x,1/2-y,1/2+z
1/2-y,1/2-x,1/2+z
1/2+y,1/2+x,1/2+z
loop_
_atom_site_type_symbol
_atom_site_label
_atom_site_fract_x
_atom_site_fract_y
_atom_site_fract_z
Si Si1 0.323245 0.573570 0.127117
Si Si2 0.819310 0.426880 0.353994
Si Si3 0.428516 0.000000 0.446531
Si Si4 0.878466 0.777292 0.723186
Si Si5 0.574899 0.680112 0.317115
Si Si6 0.141539 0.609287 0.448552
Si Si7 0.365048 0.076144 0.291400
Si Si8 0.637460 0.255383 0.049411
O O1 0.337269 0.500000 0.127760
O O2 0.385323 0.614677 0.116125
O O3 0.298890 0.595588 0.175270
O O4 0.271854 0.590372 0.089328
O O5 0.826299 0.500000 0.338906
O O6 0.748733 0.405814 0.338317
O O7 0.823570 0.424158 0.407641
O O8 0.877685 0.388118 0.331647
O O9 0.395171 0.066405 0.436573
O O10 0.500000 0.000000 0.427127
O O11 0.433966 0.000000 0.500000
O O12 0.806308 0.806308 0.726390
O O13 0.915937 0.809462 0.764071
O O14 0.894117 0.702513 0.724728
O O15 0.500000 0.668205 0.327067
O O16 0.622917 0.622917 0.330434
O O17 0.149701 0.585599 0.500000
O O18 0.159911 0.683084 0.447777
O O19 0.412923 0.087078 0.250000
O O20 0.359427 0.000000 0.301695
O O21 0.696836 0.303165 0.053137
O O22 0.608348 0.264186 0.000000
#
# Coordination Sequence:
#
# PCOD9571976 Si02
#       8
#    32  32  16  32  32  32  32  32
#     4  10  20  33  52  76 103 139 178 223 279 335
#     4  11  24  39  56  82 116 155 195 236 285 341
#     4   9  18  32  50  76 108 138 175 225 275 329
#     4  10  21  38  60  83 111 145 187 239 294 345
#     4  10  21  39  62  89 120 152 190 239 293 351
#     4  10  21  36  57  81 106 144 187 235 290 339
#     4  12  24  38  57  81 115 158 203 243 284 339
#     4   9  19  35  53  76 105 135 176 230 281 333
#
# _framework density 9.0702949999999998
#
# number of rings (size 3 to 8) (size 9 to 14) (size 15 to 20)
#    0.000    1.800    1.333    2.800    1.867    3.600 
#    0.000    0.000    0.000    2.400    0.000    1.867 
#    0.000    0.000    0.000    2.933    0.000    0.000 
#
# Total GULP energy -669105.551452 kJ/mol
# GULP energy per Si atom -5575.879595 kJ/mol
# Density = 0.904965 g / cm^3
# Si number density = 9.070295 Si / 1000 Ang^3
#
#
#
# Elastic Constant Matrix: (Units=GPa)
#
#
# Indices 1 2 3 4 5 6 
#
# 1 87.6676 44.5823 24.4865 0.0000 0.0000 0.0000
# 2 44.5823 87.6696 24.4866 0.0000 0.0000 0.0000
# 3 24.4865 24.4866 82.2472 0.0000 0.0000 0.0000
# 4 0.0000 0.0000 0.0000 -130.8992 0.0000 0.0000
# 5 0.0000 0.0000 0.0000 0.0000 -130.8104 0.0000
# 6 0.0000 0.0000 0.0000 0.0000 0.0000 16.5616
#
#
#
# Elastic Compliance Matrix: (Units=1/GPa)
#
#
# Indices 1 2 3 4 5 6 
#
# 1 0.015854 -0.007355 -0.002530 0.000000 0.000000 0.000000
# 2 -0.007355 0.015854 -0.002530 0.000000 0.000000 0.000000
# 3 -0.002530 -0.002530 0.013665 0.000000 0.000000 0.000000
# 4 0.000000 0.000000 0.000000 -0.007639 0.000000 0.000000
# 5 0.000000 0.000000 0.000000 0.000000 -0.007645 0.000000
# 6 0.000000 0.000000 0.000000 0.000000 0.000000 0.060381
#
#
# Mechanical properties :
#
#
# Convention : Reuss Voigt Hill
#
# Bulk Modulus (GPa) = 48.68273 49.41057 49.04665
# Shear Modulus (GPa) = 40.93414 -38.09434 1.41990
#
# Velocity S-wave (km/s) = 4.75541 -4.58749 0.88567
# Velocity P-wave (km/s) = 7.55291 0.87374 5.30486
#
# Compressibility (1/GPa) = 0.02054117
#
# Stress axis : x y z
#
# Youngs Moduli (GPa) = 63.07577 63.07730 73.17968
#
# Poissons Ratio (x) = 0.46396 0.18516
# Poissons Ratio (y) = 0.46395 0.18515
# Poissons Ratio (z) = 0.15959 0.15959
#
# Static dielectric constant tensor:
#      x y z
#    x 1.620090 0.000000 0.000000 
#    y 0.000000 1.620090 0.000000 
#    z 0.000000 0.000000 1.659000 
# 
# From -- ./inp_files/14661.got.cif
#   From: 2010.05.17/outbox.ucp.g08.bks.cvg/sg139_8_cif.got.tgz:14661.got - 2010.06.11 11:42:03.
