data_PCOD9571791
_publ_section_title
;
Structure prediction by ZEFSAII (Michael W. Deem and Ramdas Pophale) SiO2 
 PCOD9571791
Probable space group: I 4/M M M
;
_chemical_formula_sum "Si O2"
_cell_formula_units_Z 176
_cell_length_a 28.063029
_cell_length_b 28.063029
_cell_length_c 11.171171
_cell_angle_alpha 90.000000
_cell_angle_beta 90.000000
_cell_angle_gamma 90.000000
_cell_volume 8797.672476
_symmetry_space_group_name_H-M "I 4/M M M"
_symmetry_group_IT_number 139
_symmetry_cell_setting 'tetragonal'
loop_
_space_group_symop_operation_xyz
x,y,z
-y,x,z
-x,-y,z
y,-x,z
x,-y,-z
-x,y,-z
y,x,-z
-y,-x,-z
-x,-y,-z
y,-x,-z
x,y,-z
-y,x,-z
-x,y,z
x,-y,z
-y,-x,z
y,x,z
1/2+x,1/2+y,1/2+z
1/2-y,1/2+x,1/2+z
1/2-x,1/2-y,1/2+z
1/2+y,1/2-x,1/2+z
1/2+x,1/2-y,1/2-z
1/2-x,1/2+y,1/2-z
1/2+y,1/2+x,1/2-z
1/2-y,1/2-x,1/2-z
1/2-x,1/2-y,1/2-z
1/2+y,1/2-x,1/2-z
1/2+x,1/2+y,1/2-z
1/2-y,1/2+x,1/2-z
1/2-x,1/2+y,1/2+z
1/2+x,1/2-y,1/2+z
1/2-y,1/2-x,1/2+z
1/2+y,1/2+x,1/2+z
loop_
_atom_site_type_symbol
_atom_site_label
_atom_site_fract_x
_atom_site_fract_y
_atom_site_fract_z
Si Si1 0.691681 0.691681 0.364567
Si Si2 0.624241 0.375760 0.212568
Si Si3 0.391136 0.943928 0.638713
Si Si4 0.199733 0.656469 0.631738
Si Si5 0.298315 0.446392 0.869226
Si Si6 0.054262 0.295735 0.780387
Si Si7 0.055161 0.055161 0.856206
O O1 0.678854 0.678854 0.500000
O O2 0.659600 0.659600 0.281099
O O3 0.747263 0.678410 0.350721
O O4 0.658645 0.410364 0.140729
O O5 0.591592 0.408409 0.297400
O O6 0.398803 0.926914 0.500000
O O7 0.418071 0.918071 0.750000
O O8 0.335497 0.941260 0.676047
O O9 0.404456 0.000000 0.640627
O O10 0.182628 0.673068 0.500000
O O11 0.171532 0.671532 0.750000
O O12 0.198538 0.599077 0.633131
O O13 0.316991 0.500000 0.855607
O O14 0.256978 0.439747 0.773258
O O15 0.275543 0.442313 0.000000
O O16 0.000000 0.300463 0.828522
O O17 0.000000 0.065311 0.823166
O O18 0.058313 0.058313 0.000000
#
# Coordination Sequence:
#
# PCOD9571791 Si02
#       7
#    16  16  32  32  32  32  16
#     4  10  22  41  59  85 125 159 201 262 311 359
#     4  12  19  35  59  86 114 158 208 251 310 365
#     4  10  22  40  63  90 121 158 198 242 296 357
#     4  11  24  43  65  92 125 164 207 255 309 368
#     4  10  21  36  55  83 121 161 204 253 304 363
#     4  10  21  39  62  89 122 159 199 248 305 362
#     4   9  19  35  55  82 115 154 204 258 310 368
#
# _framework density 20.005291
#
# number of rings (size 3 to 8) (size 9 to 14) (size 15 to 20)
#    0.000    1.727    1.818    2.727    0.000    6.727 
#    0.000    2.727    0.000    0.000    0.000    3.818 
#    0.000    0.000    0.000    0.000    0.000    0.000 
#
# Total GULP energy -490764.722424 kJ/mol
# GULP energy per Si atom -5576.871846 kJ/mol
# Density = 1.995976 g / cm^3
# Si number density = 20.005291 Si / 1000 Ang^3
#
#
#
# Elastic Constant Matrix: (Units=GPa)
#
#
# Indices 1 2 3 4 5 6 
#
# 1 75.1568 33.0947 47.3875 0.0000 0.0000 0.0000
# 2 33.0947 75.1568 47.3875 0.0000 0.0000 0.0000
# 3 47.3875 47.3875 113.0730 0.0000 0.0000 0.0000
# 4 0.0000 0.0000 0.0000 8.1011 0.0000 0.0000
# 5 0.0000 0.0000 0.0000 0.0000 8.1011 0.0000
# 6 0.0000 0.0000 0.0000 0.0000 0.0000 33.3462
#
#
#
# Elastic Compliance Matrix: (Units=1/GPa)
#
#
# Indices 1 2 3 4 5 6 
#
# 1 0.019183 -0.004591 -0.006115 0.000000 0.000000 0.000000
# 2 -0.004591 0.019183 -0.006115 0.000000 0.000000 0.000000
# 3 -0.006115 -0.006115 0.013969 0.000000 0.000000 0.000000
# 4 0.000000 0.000000 0.000000 0.123440 0.000000 0.000000
# 5 0.000000 0.000000 0.000000 0.000000 0.123440 0.000000
# 6 0.000000 0.000000 0.000000 0.000000 0.000000 0.029988
#
#
# Mechanical properties :
#
#
# Convention : Reuss Voigt Hill
#
# Bulk Modulus (GPa) = 53.49882 57.68066 55.58974
# Shear Modulus (GPa) = 13.54728 18.94415 16.24572
#
# Velocity S-wave (km/s) = 2.60510 3.08061 2.85278
# Velocity P-wave (km/s) = 5.98741 6.44584 6.22085
#
# Compressibility (1/GPa) = 0.01869200
#
# Stress axis : x y z
#
# Youngs Moduli (GPa) = 52.12954 52.12954 71.58494
#
# Poissons Ratio (x) = 0.23935 0.43775
# Poissons Ratio (y) = 0.23935 0.43775
# Poissons Ratio (z) = 0.31878 0.31878
#
# Static dielectric constant tensor:
#      x y z
#    x 1.718480 0.000000 0.000000 
#    y 0.000000 1.718480 0.000000 
#    z 0.000000 0.000000 1.706790 
# 
# From -- ./inp_files/4078.got.cif
#   From: 2010.05.17/outbox.cif.g08.bks.cpg/sg139_3_cif.got.tgz:4078.got - 2010.05.20 13:14:44.
