data_PCOD9571596
_publ_section_title
;
Structure prediction by ZEFSAII (Michael W. Deem and Ramdas Pophale) SiO2 
 PCOD9571596
Probable space group: I 4/M M M
;
_chemical_formula_sum "Si O2"
_cell_formula_units_Z 160
_cell_length_a 32.077037
_cell_length_b 32.077037
_cell_length_c 7.562719
_cell_angle_alpha 90.000000
_cell_angle_beta 90.000000
_cell_angle_gamma 90.000000
_cell_volume 7781.556126
_symmetry_space_group_name_H-M "I 4/M M M"
_symmetry_group_IT_number 139
_symmetry_cell_setting 'tetragonal'
loop_
_space_group_symop_operation_xyz
x,y,z
-y,x,z
-x,-y,z
y,-x,z
x,-y,-z
-x,y,-z
y,x,-z
-y,-x,-z
-x,-y,-z
y,-x,-z
x,y,-z
-y,x,-z
-x,y,z
x,-y,z
-y,-x,z
y,x,z
1/2+x,1/2+y,1/2+z
1/2-y,1/2+x,1/2+z
1/2-x,1/2-y,1/2+z
1/2+y,1/2-x,1/2+z
1/2+x,1/2-y,1/2-z
1/2-x,1/2+y,1/2-z
1/2+y,1/2+x,1/2-z
1/2-y,1/2-x,1/2-z
1/2-x,1/2-y,1/2-z
1/2+y,1/2-x,1/2-z
1/2+x,1/2+y,1/2-z
1/2-y,1/2+x,1/2-z
1/2-x,1/2+y,1/2+z
1/2+x,1/2-y,1/2+z
1/2-y,1/2-x,1/2+z
1/2+y,1/2+x,1/2+z
loop_
_atom_site_type_symbol
_atom_site_label
_atom_site_fract_x
_atom_site_fract_y
_atom_site_fract_z
Si Si1 0.000000 0.124113 0.713411
Si Si2 0.154147 0.154147 0.799892
Si Si3 0.773909 0.906248 0.205115
Si Si4 0.500000 0.281383 0.300241
Si Si5 0.614480 0.952874 0.287848
Si Si6 0.385822 0.818398 0.210769
Si Si7 0.912579 0.087422 0.286586
O O1 0.000000 0.168828 0.801674
O O2 0.040979 0.099252 0.760961
O O3 0.000000 0.130774 0.500000
O O4 0.128242 0.193543 0.719596
O O5 0.118966 0.118966 0.801885
O O6 0.166811 0.166811 0.000000
O O7 0.771603 0.953933 0.280555
O O8 0.727571 0.888224 0.212649
O O9 0.787155 0.912035 0.000000
O O10 0.500000 0.263294 0.500000
O O11 0.618565 0.954702 0.500000
O O12 0.571932 0.928069 0.250000
O O13 0.652257 0.923714 0.221982
O O14 0.615142 0.000000 0.219535
O O15 0.343790 0.843790 0.250000
O O16 0.389958 0.814576 0.000000
O O17 0.907991 0.092010 0.500000
#
# Coordination Sequence:
#
# PCOD9571596 Si02
#       7
#    16  16  32  16  32  32  16
#     4  10  20  33  50  74 106 144 186 231 277 330
#     4  10  20  36  58  80 109 144 178 224 277 334
#     4  10  21  36  56  85 113 142 181 225 275 329
#     4  10  20  34  55  83 113 144 181 227 276 328
#     4   9  19  35  53  77 109 144 182 220 262 311
#     4  10  21  38  60  82 111 148 182 226 273 323
#     4  10  20  33  50  73 105 144 185 230 278 330
#
# _framework density 20.561439
#
# number of rings (size 3 to 8) (size 9 to 14) (size 15 to 20)
#    0.000    2.200    2.000    0.600    1.400    3.200 
#    0.000    2.500    0.000    0.000    0.000    1.400 
#    0.000    0.000    0.000    0.000    0.000    0.000 
#
# Total GULP energy -446129.431627 kJ/mol
# GULP energy per Si atom -5576.617895 kJ/mol
# Density = 2.051464 g / cm^3
# Si number density = 20.561439 Si / 1000 Ang^3
#
#
#
# Elastic Constant Matrix: (Units=GPa)
#
#
# Indices 1 2 3 4 5 6 
#
# 1 165.6561 76.8824 1.3051 0.0000 0.0000 0.0000
# 2 76.8824 165.6539 1.3060 0.0000 0.0000 0.0000
# 3 1.3051 1.3060 47.2852 0.0000 0.0000 0.0000
# 4 0.0000 0.0000 0.0000 11.0814 0.0000 0.0000
# 5 0.0000 0.0000 0.0000 0.0000 11.0831 0.0000
# 6 0.0000 0.0000 0.0000 0.0000 0.0000 21.4863
#
#
#
# Elastic Compliance Matrix: (Units=1/GPa)
#
#
# Indices 1 2 3 4 5 6 
#
# 1 0.007694 -0.003570 -0.000114 0.000000 0.000000 0.000000
# 2 -0.003570 0.007695 -0.000114 0.000000 0.000000 0.000000
# 3 -0.000114 -0.000114 0.021155 0.000000 0.000000 0.000000
# 4 0.000000 0.000000 0.000000 0.090241 0.000000 0.000000
# 5 0.000000 0.000000 0.000000 0.000000 0.090227 0.000000
# 6 0.000000 0.000000 0.000000 0.000000 0.000000 0.046541
#
#
# Mechanical properties :
#
#
# Convention : Reuss Voigt Hill
#
# Bulk Modulus (GPa) = 34.54509 59.73133 47.13821
# Shear Modulus (GPa) = 17.80635 28.67028 23.23832
#
# Velocity S-wave (km/s) = 2.94599 3.73818 3.36548
# Velocity P-wave (km/s) = 5.33003 6.90979 6.17067
#
# Compressibility (1/GPa) = 0.02894767
#
# Stress axis : x y z
#
# Youngs Moduli (GPa) = 129.96353 129.96173 47.27116
#
# Poissons Ratio (x) = 0.46399 0.00538
# Poissons Ratio (y) = 0.46400 0.00539
# Poissons Ratio (z) = 0.01478 0.01481
#
# Static dielectric constant tensor:
#      x y z
#    x 1.712800 0.000000 0.000000 
#    y 0.000000 1.712800 0.000000 
#    z 0.000000 0.000000 1.805040 
# 
# From -- ./inp_files/2309.got.cif
#   From: 2010.05.17/outbox.cif.g08.bks.cpg/sg139_2_cif.got.tgz:2309.got - 2010.05.20 13:14:44.
