data_PCOD9571342
_publ_section_title
;
Structure prediction by ZEFSAII (Michael W. Deem and Ramdas Pophale) SiO2 
 PCOD9571342
Probable space group: I 4/M M M
;
_chemical_formula_sum "Si O2"
_cell_formula_units_Z 192
_cell_length_a 22.127165
_cell_length_b 22.127165
_cell_length_c 24.632669
_cell_angle_alpha 90.000000
_cell_angle_beta 90.000000
_cell_angle_gamma 90.000000
_cell_volume 12060.436317
_symmetry_space_group_name_H-M "I 4/M M M"
_symmetry_group_IT_number 139
_symmetry_cell_setting 'tetragonal'
loop_
_space_group_symop_operation_xyz
x,y,z
-y,x,z
-x,-y,z
y,-x,z
x,-y,-z
-x,y,-z
y,x,-z
-y,-x,-z
-x,-y,-z
y,-x,-z
x,y,-z
-y,x,-z
-x,y,z
x,-y,z
-y,-x,z
y,x,z
1/2+x,1/2+y,1/2+z
1/2-y,1/2+x,1/2+z
1/2-x,1/2-y,1/2+z
1/2+y,1/2-x,1/2+z
1/2+x,1/2-y,1/2-z
1/2-x,1/2+y,1/2-z
1/2+y,1/2+x,1/2-z
1/2-y,1/2-x,1/2-z
1/2-x,1/2-y,1/2-z
1/2+y,1/2-x,1/2-z
1/2+x,1/2+y,1/2-z
1/2-y,1/2+x,1/2-z
1/2-x,1/2+y,1/2+z
1/2+x,1/2-y,1/2+z
1/2-y,1/2-x,1/2+z
1/2+y,1/2+x,1/2+z
loop_
_atom_site_type_symbol
_atom_site_label
_atom_site_fract_x
_atom_site_fract_y
_atom_site_fract_z
Si Si1 0.724345 0.901292 0.436548
Si Si2 0.931452 0.624177 0.647977
Si Si3 0.072749 0.270883 0.266840
Si Si4 0.928668 0.171464 0.647667
Si Si5 0.195704 0.429922 0.646719
Si Si6 0.230742 0.671727 0.436548
O O1 0.726827 0.916992 0.500000
O O2 0.666680 0.929562 0.405526
O O3 0.783925 0.920285 0.403846
O O4 0.713229 0.829269 0.431468
O O5 0.914673 0.670176 0.696771
O O6 0.877255 0.576796 0.645683
O O7 0.000000 0.601572 0.655693
O O8 0.092383 0.212128 0.300628
O O9 0.092563 0.279953 0.205219
O O10 0.000000 0.267313 0.265261
O O11 0.887133 0.112868 0.642619
O O12 0.000000 0.157815 0.653227
O O13 0.211909 0.500000 0.639438
O O14 0.221254 0.386407 0.600509
O O15 0.235466 0.655227 0.500000
O O16 0.288441 0.711560 0.421073
#
# Coordination Sequence:
#
# PCOD9571342 Si02
#       6
#    32  32  32  32  32  32
#     4   9  17  31  50  68  87 116 157 198 228 256
#     4   9  17  29  45  66  95 128 157 185 217 259
#     4   8  16  31  46  62  86 116 153 189 218 255
#     4  10  20  32  47  67  90 116 147 188 237 285
#     4  10  19  30  47  70  95 123 152 186 228 269
#     4   9  18  32  49  69  92 118 151 190 230 273
#
# _framework density 15.919822
#
# number of rings (size 3 to 8) (size 9 to 14) (size 15 to 20)
#    0.000    2.833    0.000    2.500    0.000    3.833 
#    0.000    0.000    0.000    9.000    0.000    5.833 
#    0.000    0.333    0.000    1.833    0.000    0.000 
#
# Total GULP energy -534813.669133 kJ/mol
# GULP energy per Si atom -5570.975720 kJ/mol
# Density = 1.588359 g / cm^3
# Si number density = 15.919822 Si / 1000 Ang^3
#
#
#
# Elastic Constant Matrix: (Units=GPa)
#
#
# Indices 1 2 3 4 5 6 
#
# 1 55.5228 25.3145 38.6970 0.0000 0.0000 0.0000
# 2 25.3145 55.5228 38.6970 0.0000 0.0000 0.0000
# 3 38.6970 38.6970 81.0653 0.0000 0.0000 0.0000
# 4 0.0000 0.0000 0.0000 17.0637 0.0000 0.0000
# 5 0.0000 0.0000 0.0000 0.0000 17.0637 0.0000
# 6 0.0000 0.0000 0.0000 0.0000 0.0000 7.8748
#
#
#
# Elastic Compliance Matrix: (Units=1/GPa)
#
#
# Indices 1 2 3 4 5 6 
#
# 1 0.027943 -0.005160 -0.010875 0.000000 0.000000 0.000000
# 2 -0.005160 0.027943 -0.010875 0.000000 0.000000 0.000000
# 3 -0.010875 -0.010875 0.022719 0.000000 0.000000 0.000000
# 4 0.000000 0.000000 0.000000 0.058604 0.000000 0.000000
# 5 0.000000 0.000000 0.000000 0.000000 0.058604 0.000000
# 6 0.000000 0.000000 0.000000 0.000000 0.000000 0.126987
#
#
# Mechanical properties :
#
#
# Convention : Reuss Voigt Hill
#
# Bulk Modulus (GPa) = 40.35138 44.16974 42.26056
# Shear Modulus (GPa) = 12.99097 14.36062 13.67579
#
# Velocity S-wave (km/s) = 2.85971 3.00669 2.93412
# Velocity P-wave (km/s) = 6.02541 6.31339 6.17108
#
# Compressibility (1/GPa) = 0.02478230
#
# Stress axis : x y z
#
# Youngs Moduli (GPa) = 35.78697 35.78697 44.01667
#
# Poissons Ratio (x) = 0.18467 0.47870
# Poissons Ratio (y) = 0.18467 0.47870
# Poissons Ratio (z) = 0.38920 0.38920
#
# Static dielectric constant tensor:
#      x y z
#    x 1.525450 0.000000 0.000000 
#    y 0.000000 1.525450 0.000000 
#    z 0.000000 0.000000 1.549650 
# 
# From -- ./inp_files/11921.got.cif
#   From: 2010.05.17/outbox.cif.g08.bks.cpg/sg139_6_cif.got.tgz:11921.got - 2010.05.20 13:14:44.
