data_PCOD9571350
_publ_section_title
;
Structure prediction by ZEFSAII (Michael W. Deem and Ramdas Pophale) SiO2 
 PCOD9571350
Probable space group: I 4/M M M
;
_chemical_formula_sum "Si O2"
_cell_formula_units_Z 208
_cell_length_a 20.705107
_cell_length_b 20.705107
_cell_length_c 30.624728
_cell_angle_alpha 90.000000
_cell_angle_beta 90.000000
_cell_angle_gamma 90.000000
_cell_volume 13128.865480
_symmetry_space_group_name_H-M "I 4/M M M"
_symmetry_group_IT_number 139
_symmetry_cell_setting 'tetragonal'
loop_
_space_group_symop_operation_xyz
x,y,z
-y,x,z
-x,-y,z
y,-x,z
x,-y,-z
-x,y,-z
y,x,-z
-y,-x,-z
-x,-y,-z
y,-x,-z
x,y,-z
-y,x,-z
-x,y,z
x,-y,z
-y,-x,z
y,x,z
1/2+x,1/2+y,1/2+z
1/2-y,1/2+x,1/2+z
1/2-x,1/2-y,1/2+z
1/2+y,1/2-x,1/2+z
1/2+x,1/2-y,1/2-z
1/2-x,1/2+y,1/2-z
1/2+y,1/2+x,1/2-z
1/2-y,1/2-x,1/2-z
1/2-x,1/2-y,1/2-z
1/2+y,1/2-x,1/2-z
1/2+x,1/2+y,1/2-z
1/2-y,1/2+x,1/2-z
1/2-x,1/2+y,1/2+z
1/2+x,1/2-y,1/2+z
1/2-y,1/2-x,1/2+z
1/2+y,1/2+x,1/2+z
loop_
_atom_site_type_symbol
_atom_site_label
_atom_site_fract_x
_atom_site_fract_y
_atom_site_fract_z
Si Si1 0.129473 0.424685 0.295890
Si Si2 0.249173 0.648360 0.119365
Si Si3 0.428133 0.328837 0.051759
Si Si4 0.922160 0.500000 0.449751
Si Si5 0.347324 0.752543 0.722873
Si Si6 0.681773 0.422794 0.200302
Si Si7 0.616982 0.075656 0.384766
O O1 0.142051 0.500000 0.290997
O O2 0.101673 0.398328 0.250000
O O3 0.196565 0.387257 0.305195
O O4 0.081820 0.412796 0.336258
O O5 0.279181 0.720820 0.124740
O O6 0.281044 0.619242 0.075970
O O7 0.278587 0.607553 0.159844
O O8 0.175311 0.627011 0.115295
O O9 0.500000 0.321335 0.068935
O O10 0.400325 0.400325 0.059545
O O11 0.427860 0.317784 0.000000
O O12 0.897915 0.500000 0.500000
O O13 0.906349 0.563486 0.421096
O O14 0.000000 0.500000 0.452207
O O15 0.303286 0.696715 0.701734
O O16 0.297518 0.797518 0.750000
O O17 0.395911 0.718270 0.756793
O O18 0.679912 0.500000 0.198759
O O19 0.611756 0.388245 0.199160
O O20 0.637070 0.000000 0.391712
#
# Coordination Sequence:
#
# PCOD9571350 Si02
#       7
#    32  32  32  16  32  32  32
#     4  11  21  31  47  71 100 130 158 197 250 303
#     4  10  20  32  47  67  91 122 159 201 247 293
#     4   9  17  28  41  59  83 110 145 190 238 287
#     4   9  20  38  56  74  98 128 168 211 247 295
#     4   9  18  31  46  65  90 122 161 199 238 292
#     4  10  19  31  46  65  92 127 169 211 249 291
#     4  11  21  34  52  73  99 129 166 206 249 299
#
# _framework density 15.842954000000001
#
# number of rings (size 3 to 8) (size 9 to 14) (size 15 to 20)
#    0.000    2.077    0.769    4.154    0.000    3.538 
#    0.000    2.308    0.000    2.769    0.000    0.000 
#    0.000    0.000    0.000    0.000    0.000    0.385 
#
# Total GULP energy -579282.556465 kJ/mol
# GULP energy per Si atom -5570.024581 kJ/mol
# Density = 1.580689 g / cm^3
# Si number density = 15.842954 Si / 1000 Ang^3
#
#
#
# Elastic Constant Matrix: (Units=GPa)
#
#
# Indices 1 2 3 4 5 6 
#
# 1 100.0523 42.1464 29.0077 0.0000 0.0000 0.0000
# 2 42.1464 100.0544 29.0075 0.0000 0.0000 0.0000
# 3 29.0077 29.0075 62.3582 0.0000 0.0000 0.0000
# 4 0.0000 0.0000 0.0000 18.2772 0.0000 0.0000
# 5 0.0000 0.0000 0.0000 0.0000 18.2772 0.0000
# 6 0.0000 0.0000 0.0000 0.0000 0.0000 15.7577
#
#
#
# Elastic Compliance Matrix: (Units=1/GPa)
#
#
# Indices 1 2 3 4 5 6 
#
# 1 0.012975 -0.004295 -0.004038 0.000000 0.000000 0.000000
# 2 -0.004295 0.012974 -0.004037 0.000000 0.000000 0.000000
# 3 -0.004038 -0.004037 0.019793 0.000000 0.000000 0.000000
# 4 0.000000 0.000000 0.000000 0.054713 0.000000 0.000000
# 5 0.000000 0.000000 0.000000 0.000000 0.054713 0.000000
# 6 0.000000 0.000000 0.000000 0.000000 0.000000 0.063461
#
#
# Mechanical properties :
#
#
# Convention : Reuss Voigt Hill
#
# Bulk Modulus (GPa) = 47.61507 51.42088 49.51798
# Shear Modulus (GPa) = 19.97055 21.28265 20.62660
#
# Velocity S-wave (km/s) = 3.55425 3.66915 3.61216
# Velocity P-wave (km/s) = 6.85297 7.10474 6.97999
#
# Compressibility (1/GPa) = 0.02100175
#
# Stress axis : x y z
#
# Youngs Moduli (GPa) = 77.07414 77.07615 50.52359
#
# Poissons Ratio (x) = 0.33102 0.20400
# Poissons Ratio (y) = 0.33101 0.20399
# Poissons Ratio (z) = 0.31120 0.31119
#
# Static dielectric constant tensor:
#      x y z
#    x 1.539130 0.000000 0.000000 
#    y 0.000000 1.539130 0.000000 
#    z 0.000000 0.000000 1.545050 
# 
# From -- ./inp_files/14525.got.cif
#   From: 2010.05.17/outbox.cif.g08.bks.cpg/sg139_8_cif.got.tgz:14525.got - 2010.05.20 13:14:44.
