data_PCOD9571395
_publ_section_title
;
Structure prediction by ZEFSAII (Michael W. Deem and Ramdas Pophale) SiO2 
 PCOD9571395
Probable space group: I 4/M M M
;
_chemical_formula_sum "Si O2"
_cell_formula_units_Z 144
_cell_length_a 21.556785
_cell_length_b 21.556785
_cell_length_c 18.292524
_cell_angle_alpha 90.000000
_cell_angle_beta 90.000000
_cell_angle_gamma 90.000000
_cell_volume 8500.444066
_symmetry_space_group_name_H-M "I 4/M M M"
_symmetry_group_IT_number 139
_symmetry_cell_setting 'tetragonal'
loop_
_space_group_symop_operation_xyz
x,y,z
-y,x,z
-x,-y,z
y,-x,z
x,-y,-z
-x,y,-z
y,x,-z
-y,-x,-z
-x,-y,-z
y,-x,-z
x,y,-z
-y,x,-z
-x,y,z
x,-y,z
-y,-x,z
y,x,z
1/2+x,1/2+y,1/2+z
1/2-y,1/2+x,1/2+z
1/2-x,1/2-y,1/2+z
1/2+y,1/2-x,1/2+z
1/2+x,1/2-y,1/2-z
1/2-x,1/2+y,1/2-z
1/2+y,1/2+x,1/2-z
1/2-y,1/2-x,1/2-z
1/2-x,1/2-y,1/2-z
1/2+y,1/2-x,1/2-z
1/2+x,1/2+y,1/2-z
1/2-y,1/2+x,1/2-z
1/2-x,1/2+y,1/2+z
1/2+x,1/2-y,1/2+z
1/2-y,1/2-x,1/2+z
1/2+y,1/2+x,1/2+z
loop_
_atom_site_type_symbol
_atom_site_label
_atom_site_fract_x
_atom_site_fract_y
_atom_site_fract_z
Si Si1 0.163710 0.736753 0.813554
Si Si2 0.569717 0.669046 0.762408
Si Si3 0.208642 0.891771 0.418523
Si Si4 0.000000 0.427667 0.589041
Si Si5 0.375660 0.856328 0.914931
O O1 0.215804 0.784197 0.845202
O O2 0.198091 0.698091 0.750000
O O3 0.111402 0.778588 0.775870
O O4 0.135547 0.687155 0.869396
O O5 0.500000 0.670013 0.735906
O O6 0.604328 0.604328 0.749426
O O7 0.572058 0.682157 0.849474
O O8 0.193741 0.916066 0.500000
O O9 0.176215 0.823786 0.413641
O O10 0.282540 0.888781 0.411968
O O11 0.063337 0.392994 0.612581
O O12 0.000000 0.500000 0.610134
O O13 0.000000 0.424502 0.500000
O O14 0.366295 0.873154 0.000000
#
# Coordination Sequence:
#
# PCOD9571395 Si02
#       5
#    32  32  32  16  32
#     4  10  19  33  51  74 105 135 165 211 266 306
#     4  10  21  35  52  74 102 138 174 213 260 308
#     4   9  17  29  48  77 105 128 165 211 252 302
#     4   9  20  36  50  70 102 138 176 210 242 290
#     4  10  19  31  53  77 100 137 172 205 250 300
#
# _framework density 16.940290000000001
#
# number of rings (size 3 to 8) (size 9 to 14) (size 15 to 20)
#    0.000    2.333    2.222    0.667    1.556    2.889 
#    0.000    0.000    0.000    0.000    0.000    3.111 
#    0.000    0.000    0.000    4.889    0.000    0.000 
#
# Total GULP energy -401289.076619 kJ/mol
# GULP energy per Si atom -5573.459397 kJ/mol
# Density = 1.690173 g / cm^3
# Si number density = 16.940290 Si / 1000 Ang^3
#
#
#
# Elastic Constant Matrix: (Units=GPa)
#
#
# Indices 1 2 3 4 5 6 
#
# 1 122.4786 66.7559 32.6617 0.0000 0.0000 0.0000
# 2 66.7559 122.4786 32.6617 0.0000 0.0000 0.0000
# 3 32.6617 32.6617 42.0435 0.0000 0.0000 0.0000
# 4 0.0000 0.0000 0.0000 14.5592 0.0000 0.0000
# 5 0.0000 0.0000 0.0000 0.0000 14.5592 0.0000
# 6 0.0000 0.0000 0.0000 0.0000 0.0000 18.3892
#
#
#
# Elastic Compliance Matrix: (Units=1/GPa)
#
#
# Indices 1 2 3 4 5 6 
#
# 1 0.012583 -0.005363 -0.005610 0.000000 0.000000 0.000000
# 2 -0.005363 0.012583 -0.005610 0.000000 0.000000 0.000000
# 3 -0.005610 -0.005610 0.032501 0.000000 0.000000 0.000000
# 4 0.000000 0.000000 0.000000 0.068685 0.000000 0.000000
# 5 0.000000 0.000000 0.000000 0.000000 0.068685 0.000000
# 6 0.000000 0.000000 0.000000 0.000000 0.000000 0.054380
#
#
# Mechanical properties :
#
#
# Convention : Reuss Voigt Hill
#
# Bulk Modulus (GPa) = 40.80967 61.23994 51.02480
# Shear Modulus (GPa) = 17.19700 19.82963 18.51331
#
# Velocity S-wave (km/s) = 3.18960 3.42506 3.30943
# Velocity P-wave (km/s) = 6.14063 7.20210 6.69245
#
# Compressibility (1/GPa) = 0.02450400
#
# Stress axis : x y z
#
# Youngs Moduli (GPa) = 79.46959 79.46959 30.76873
#
# Poissons Ratio (x) = 0.42616 0.17260
# Poissons Ratio (y) = 0.42616 0.17260
# Poissons Ratio (z) = 0.44579 0.44579
#
# Static dielectric constant tensor:
#      x y z
#    x 1.569120 0.000000 0.000000 
#    y 0.000000 1.569120 0.000000 
#    z 0.000000 0.000000 1.587880 
# 
# From -- ./inp_files/8165.got.cif
#   From: 2010.05.17/outbox.cif.g08.bks.cpg/sg139_5_cif.got.tgz:8165.got - 2010.05.20 13:14:44.
