data_PCOD9571307
_publ_section_title
;
Structure prediction by ZEFSAII (Michael W. Deem and Ramdas Pophale) SiO2 
 PCOD9571307
Probable space group: I 4/M M M
;
_chemical_formula_sum "Si O2"
_cell_formula_units_Z 224
_cell_length_a 23.785974
_cell_length_b 23.785974
_cell_length_c 23.378087
_cell_angle_alpha 90.000000
_cell_angle_beta 90.000000
_cell_angle_gamma 90.000000
_cell_volume 13226.680110
_symmetry_space_group_name_H-M "I 4/M M M"
_symmetry_group_IT_number 139
_symmetry_cell_setting 'tetragonal'
loop_
_space_group_symop_operation_xyz
x,y,z
-y,x,z
-x,-y,z
y,-x,z
x,-y,-z
-x,y,-z
y,x,-z
-y,-x,-z
-x,-y,-z
y,-x,-z
x,y,-z
-y,x,-z
-x,y,z
x,-y,z
-y,-x,z
y,x,z
1/2+x,1/2+y,1/2+z
1/2-y,1/2+x,1/2+z
1/2-x,1/2-y,1/2+z
1/2+y,1/2-x,1/2+z
1/2+x,1/2-y,1/2-z
1/2-x,1/2+y,1/2-z
1/2+y,1/2+x,1/2-z
1/2-y,1/2-x,1/2-z
1/2-x,1/2-y,1/2-z
1/2+y,1/2-x,1/2-z
1/2+x,1/2+y,1/2-z
1/2-y,1/2+x,1/2-z
1/2-x,1/2+y,1/2+z
1/2+x,1/2-y,1/2+z
1/2-y,1/2-x,1/2+z
1/2+y,1/2+x,1/2+z
loop_
_atom_site_type_symbol
_atom_site_label
_atom_site_fract_x
_atom_site_fract_y
_atom_site_fract_z
Si Si1 0.664793 0.758650 0.500000
Si Si2 0.309789 0.777775 0.372354
Si Si3 0.130847 0.778246 0.674742
Si Si4 0.199964 0.610224 0.276018
Si Si5 0.934643 0.376206 0.583771
Si Si6 0.933385 0.242804 0.436653
Si Si7 0.591497 0.058268 0.190054
Si Si8 0.154487 0.432498 0.500000
O O1 0.694464 0.694464 0.500000
O O2 0.686498 0.783813 0.559671
O O3 0.600517 0.785001 0.500000
O O4 0.281877 0.718124 0.359939
O O5 0.267545 0.823916 0.347697
O O6 0.366721 0.779525 0.336960
O O7 0.166472 0.833529 0.690733
O O8 0.101437 0.748602 0.729312
O O9 0.092791 0.786703 0.618753
O O10 0.159224 0.659224 0.250000
O O11 0.156457 0.561967 0.291765
O O12 0.926410 0.310376 0.571144
O O13 0.925693 0.389972 0.650402
O O14 0.885763 0.411214 0.552132
O O15 0.000000 0.390072 0.568682
O O16 0.910650 0.227688 0.500000
O O17 0.000000 0.232604 0.436957
O O18 0.560600 0.060600 0.250000
O O19 0.578530 0.000000 0.159022
O O20 0.160884 0.500000 0.500000
#
# Coordination Sequence:
#
# PCOD9571307 Si02
#       8
#    16  32  32  32  32  32  32  16
#     4  10  20  33  49  70  94 124 161 205 260 321
#     4   9  17  28  45  67  90 117 149 187 234 291
#     4  10  19  29  47  72  94 117 153 203 257 312
#     4   9  17  31  45  61  88 118 146 188 246 300
#     4  11  22  36  50  66  94 134 175 215 255 296
#     4  10  20  34  50  67  93 130 166 201 250 311
#     4  11  22  33  46  63  84 117 164 211 247 280
#     4  12  23  34  50  71  95 125 167 216 261 308
#
# _framework density 16.935466000000002
#
# number of rings (size 3 to 8) (size 9 to 14) (size 15 to 20)
#    0.000    1.857    0.714    5.786    1.000    5.857 
#    0.000    0.000    0.000    0.000    0.000    0.000 
#    0.000    0.429    0.000    1.571    0.000    0.000 
#
# Total GULP energy -623477.628014 kJ/mol
# GULP energy per Si atom -5566.764536 kJ/mol
# Density = 1.689692 g / cm^3
# Si number density = 16.935466 Si / 1000 Ang^3
#
#
#
# Elastic Constant Matrix: (Units=GPa)
#
#
# Indices 1 2 3 4 5 6 
#
# 1 47.5499 30.3601 7.4867 0.0000 0.0000 0.0000
# 2 30.3601 47.5499 7.4867 0.0000 0.0000 0.0000
# 3 7.4867 7.4867 79.3120 0.0000 0.0000 0.0000
# 4 0.0000 0.0000 0.0000 16.4861 0.0000 0.0000
# 5 0.0000 0.0000 0.0000 0.0000 16.4861 0.0000
# 6 0.0000 0.0000 0.0000 0.0000 0.0000 5.1743
#
#
#
# Elastic Compliance Matrix: (Units=1/GPa)
#
#
# Indices 1 2 3 4 5 6 
#
# 1 0.035623 -0.022551 -0.001234 0.000000 0.000000 0.000000
# 2 -0.022551 0.035623 -0.001234 0.000000 0.000000 0.000000
# 3 -0.001234 -0.001234 0.012841 0.000000 0.000000 0.000000
# 4 0.000000 0.000000 0.000000 0.060657 0.000000 0.000000
# 5 0.000000 0.000000 0.000000 0.000000 0.060657 0.000000
# 6 0.000000 0.000000 0.000000 0.000000 0.000000 0.193265
#
#
# Mechanical properties :
#
#
# Convention : Reuss Voigt Hill
#
# Bulk Modulus (GPa) = 29.36822 29.45321 29.41071
# Shear Modulus (GPa) = 10.86827 16.23449 13.55138
#
# Velocity S-wave (km/s) = 2.53602 3.09950 2.83181
# Velocity P-wave (km/s) = 5.09452 5.49894 5.30059
#
# Compressibility (1/GPa) = 0.03405041
#
# Stress axis : x y z
#
# Youngs Moduli (GPa) = 28.07151 28.07151 77.87314
#
# Poissons Ratio (x) = 0.63304 0.09609
# Poissons Ratio (y) = 0.63304 0.09609
# Poissons Ratio (z) = 0.03464 0.03464
#
# Static dielectric constant tensor:
#      x y z
#    x 1.601090 0.000000 0.000000 
#    y 0.000000 1.601090 0.000000 
#    z 0.000000 0.000000 1.639480 
# 
# From -- ./inp_files/12266.got.cif
#   From: 2010.05.17/outbox.cif.g08.bks.cpg/sg139_7_cif.got.tgz:12266.got - 2010.05.20 13:14:44.
