data_PCOD9571372
_publ_section_title
;
Structure prediction by ZEFSAII (Michael W. Deem and Ramdas Pophale) SiO2 
 PCOD9571372
Probable space group: I 4/M M M
;
_chemical_formula_sum "Si O2"
_cell_formula_units_Z 160
_cell_length_a 32.566700
_cell_length_b 32.566700
_cell_length_c 7.958156
_cell_angle_alpha 90.000000
_cell_angle_beta 90.000000
_cell_angle_gamma 90.000000
_cell_volume 8440.340265
_symmetry_space_group_name_H-M "I 4/M M M"
_symmetry_group_IT_number 139
_symmetry_cell_setting 'tetragonal'
loop_
_space_group_symop_operation_xyz
x,y,z
-y,x,z
-x,-y,z
y,-x,z
x,-y,-z
-x,y,-z
y,x,-z
-y,-x,-z
-x,-y,-z
y,-x,-z
x,y,-z
-y,x,-z
-x,y,z
x,-y,z
-y,-x,z
y,x,z
1/2+x,1/2+y,1/2+z
1/2-y,1/2+x,1/2+z
1/2-x,1/2-y,1/2+z
1/2+y,1/2-x,1/2+z
1/2+x,1/2-y,1/2-z
1/2-x,1/2+y,1/2-z
1/2+y,1/2+x,1/2-z
1/2-y,1/2-x,1/2-z
1/2-x,1/2-y,1/2-z
1/2+y,1/2-x,1/2-z
1/2+x,1/2+y,1/2-z
1/2-y,1/2+x,1/2-z
1/2-x,1/2+y,1/2+z
1/2+x,1/2-y,1/2+z
1/2-y,1/2-x,1/2+z
1/2+y,1/2+x,1/2+z
loop_
_atom_site_type_symbol
_atom_site_label
_atom_site_fract_x
_atom_site_fract_y
_atom_site_fract_z
Si Si1 0.753581 0.814538 0.797356
Si Si2 0.547898 0.547898 0.199131
Si Si3 0.388775 0.611226 0.690413
Si Si4 0.622981 0.810581 0.700187
Si Si5 0.954136 0.730737 0.698949
Si Si6 0.047229 0.823255 0.199220
O O1 0.797382 0.797382 0.736007
O O2 0.720463 0.779538 0.750000
O O3 0.731186 0.854925 0.732593
O O4 0.756061 0.817369 0.000000
O O5 0.500000 0.555867 0.230726
O O6 0.576300 0.576300 0.308918
O O7 0.555471 0.555471 0.000000
O O8 0.376366 0.623635 0.500000
O O9 0.414751 0.649355 0.767871
O O10 0.623624 0.809011 0.500000
O O11 0.650418 0.849583 0.750000
O O12 0.576935 0.805692 0.759983
O O13 0.954288 0.737268 0.500000
O O14 0.943728 0.775010 0.778580
O O15 0.000000 0.720532 0.756416
O O16 0.000000 0.830808 0.264975
O O17 0.045678 0.832350 0.000000
#
# Coordination Sequence:
#
# PCOD9571372 Si02
#       6
#    32  16  16  32  32  32
#     4   8  14  25  41  63  92 127 163 198 240 289
#     4   9  18  30  42  60  88 119 149 187 246 319
#     4  10  19  31  49  72  93 117 156 211 264 313
#     4  10  19  32  53  79 107 137 170 211 255 304
#     4  10  21  37  55  74 100 136 177 217 256 301
#     4   9  18  33  51  70  94 126 165 209 261 318
#
# _framework density 18.956582000000001
#
# number of rings (size 3 to 8) (size 9 to 14) (size 15 to 20)
#    0.000    2.700    0.000    2.100    0.000    4.000 
#    1.800    2.500    0.000    0.000    0.000    0.000 
#    0.000    0.400    0.000    4.200    0.000    1.800 
#
# Total GULP energy -445480.582992 kJ/mol
# GULP energy per Si atom -5568.507287 kJ/mol
# Density = 1.891344 g / cm^3
# Si number density = 18.956582 Si / 1000 Ang^3
#
#
#
# Elastic Constant Matrix: (Units=GPa)
#
#
# Indices 1 2 3 4 5 6 
#
# 1 88.2651 52.1311 5.7131 0.0000 0.0000 0.0000
# 2 52.1311 88.2696 5.7128 0.0000 0.0000 0.0000
# 3 5.7131 5.7128 20.4841 0.0000 0.0000 0.0000
# 4 0.0000 0.0000 0.0000 9.1024 0.0000 0.0000
# 5 0.0000 0.0000 0.0000 0.0000 9.1031 0.0000
# 6 0.0000 0.0000 0.0000 0.0000 0.0000 22.8219
#
#
#
# Elastic Compliance Matrix: (Units=1/GPa)
#
#
# Indices 1 2 3 4 5 6 
#
# 1 0.017481 -0.010193 -0.002033 0.000000 0.000000 0.000000
# 2 -0.010193 0.017480 -0.002032 0.000000 0.000000 0.000000
# 3 -0.002033 -0.002032 0.049952 0.000000 0.000000 0.000000
# 4 0.000000 0.000000 0.000000 0.109861 0.000000 0.000000
# 5 0.000000 0.000000 0.000000 0.000000 0.109852 0.000000
# 6 0.000000 0.000000 0.000000 0.000000 0.000000 0.043817
#
#
# Mechanical properties :
#
#
# Convention : Reuss Voigt Hill
#
# Bulk Modulus (GPa) = 17.73122 36.01476 26.87299
# Shear Modulus (GPa) = 12.63395 17.10294 14.86845
#
# Velocity S-wave (km/s) = 2.58440 3.00695 2.80365
# Velocity P-wave (km/s) = 4.27545 5.57633 4.96865
#
# Compressibility (1/GPa) = 0.05639770
#
# Stress axis : x y z
#
# Youngs Moduli (GPa) = 57.20493 57.20801 20.01919
#
# Poissons Ratio (x) = 0.58309 0.04070
# Poissons Ratio (y) = 0.58306 0.04068
# Poissons Ratio (z) = 0.11629 0.11626
#
# Static dielectric constant tensor:
#      x y z
#    x 1.674860 0.000000 0.000000 
#    y 0.000000 1.674860 0.000000 
#    z 0.000000 0.000000 1.707060 
# 
# From -- ./inp_files/2277.got.cif
#   From: 2010.05.17/outbox.cif.g08.bks.cpg/sg139_2_cif.got.tgz:2277.got - 2010.05.20 13:14:44.
