data_PCOD9571464
_publ_section_title
;
Structure prediction by ZEFSAII (Michael W. Deem and Ramdas Pophale) SiO2 
 PCOD9571464
Probable space group: I 4/M M M
;
_chemical_formula_sum "Si O2"
_cell_formula_units_Z 192
_cell_length_a 19.787811
_cell_length_b 19.787811
_cell_length_c 30.641272
_cell_angle_alpha 90.000000
_cell_angle_beta 90.000000
_cell_angle_gamma 90.000000
_cell_volume 11997.818763
_symmetry_space_group_name_H-M "I 4/M M M"
_symmetry_group_IT_number 139
_symmetry_cell_setting 'tetragonal'
loop_
_space_group_symop_operation_xyz
x,y,z
-y,x,z
-x,-y,z
y,-x,z
x,-y,-z
-x,y,-z
y,x,-z
-y,-x,-z
-x,-y,-z
y,-x,-z
x,y,-z
-y,x,-z
-x,y,z
x,-y,z
-y,-x,z
y,x,z
1/2+x,1/2+y,1/2+z
1/2-y,1/2+x,1/2+z
1/2-x,1/2-y,1/2+z
1/2+y,1/2-x,1/2+z
1/2+x,1/2-y,1/2-z
1/2-x,1/2+y,1/2-z
1/2+y,1/2+x,1/2-z
1/2-y,1/2-x,1/2-z
1/2-x,1/2-y,1/2-z
1/2+y,1/2-x,1/2-z
1/2+x,1/2+y,1/2-z
1/2-y,1/2+x,1/2-z
1/2-x,1/2+y,1/2+z
1/2+x,1/2-y,1/2+z
1/2-y,1/2-x,1/2+z
1/2+y,1/2+x,1/2+z
loop_
_atom_site_type_symbol
_atom_site_label
_atom_site_fract_x
_atom_site_fract_y
_atom_site_fract_z
Si Si1 0.748056 0.637686 0.049072
Si Si2 0.579235 0.811256 0.133876
Si Si3 0.245190 0.136828 0.950753
Si Si4 0.423163 0.192202 0.369714
Si Si5 0.647627 0.759414 0.221927
Si Si6 0.919874 0.191310 0.802272
O O1 0.677387 0.677387 0.054468
O O2 0.765863 0.591912 0.090542
O O3 0.805402 0.696501 0.049213
O O4 0.749777 0.607052 0.000000
O O5 0.500000 0.825394 0.138322
O O6 0.625704 0.877655 0.128604
O O7 0.609030 0.778104 0.177862
O O8 0.176393 0.176393 0.938968
O O9 0.268866 0.083460 0.915529
O O10 0.239293 0.110883 0.000000
O O11 0.500000 0.174730 0.359622
O O12 0.399001 0.247063 0.334185
O O13 0.712308 0.712308 0.211267
O O14 0.677499 0.822501 0.250000
O O15 0.599098 0.717470 0.254093
O O16 0.874158 0.125842 0.811585
O O17 0.000000 0.179623 0.807095
#
# Coordination Sequence:
#
# PCOD9571464 Si02
#       6
#    32  32  32  32  32  32
#     4   8  15  29  49  72  96 123 157 200 253 308
#     4  11  21  32  49  72 101 133 169 216 259 298
#     4   8  14  26  46  69  89 112 151 205 256 294
#     4  10  20  32  46  65  94 134 174 206 242 297
#     4  10  19  33  54  76  96 125 166 210 255 307
#     4  10  20  34  53  76 101 128 161 204 254 310
#
# _framework density 16.002908000000001
#
# number of rings (size 3 to 8) (size 9 to 14) (size 15 to 20)
#    0.000    2.500    1.667    2.500    0.000    2.500 
#    0.000    0.000    0.000    0.000    0.000    4.667 
#    0.000    3.000    0.000   22.833    0.000    1.500 
#
# Total GULP energy -534605.634003 kJ/mol
# GULP energy per Si atom -5568.808688 kJ/mol
# Density = 1.596648 g / cm^3
# Si number density = 16.002908 Si / 1000 Ang^3
#
#
#
# Elastic Constant Matrix: (Units=GPa)
#
#
# Indices 1 2 3 4 5 6 
#
# 1 66.3814 44.1260 40.9892 0.0000 0.0000 0.0000
# 2 44.1260 66.3811 40.9891 0.0000 0.0000 0.0000
# 3 40.9892 40.9891 101.3314 0.0000 0.0000 0.0000
# 4 0.0000 0.0000 0.0000 17.3773 0.0000 0.0000
# 5 0.0000 0.0000 0.0000 0.0000 17.3776 0.0000
# 6 0.0000 0.0000 0.0000 0.0000 0.0000 14.6773
#
#
#
# Elastic Compliance Matrix: (Units=1/GPa)
#
#
# Indices 1 2 3 4 5 6 
#
# 1 0.028931 -0.016002 -0.005230 0.000000 0.000000 0.000000
# 2 -0.016002 0.028931 -0.005230 0.000000 0.000000 0.000000
# 3 -0.005230 -0.005230 0.014100 0.000000 0.000000 0.000000
# 4 0.000000 0.000000 0.000000 0.057546 0.000000 0.000000
# 5 0.000000 0.000000 0.000000 0.000000 0.057545 0.000000
# 6 0.000000 0.000000 0.000000 0.000000 0.000000 0.068132
#
#
# Mechanical properties :
#
#
# Convention : Reuss Voigt Hill
#
# Bulk Modulus (GPa) = 52.52634 54.03363 53.27998
# Shear Modulus (GPa) = 15.90051 17.08574 16.49312
#
# Velocity S-wave (km/s) = 3.15556 3.27106 3.21383
# Velocity P-wave (km/s) = 6.79493 6.93575 6.86570
#
# Compressibility (1/GPa) = 0.01903807
#
# Stress axis : x y z
#
# Youngs Moduli (GPa) = 34.56505 34.56485 70.92413
#
# Poissons Ratio (x) = 0.55311 0.37092
# Poissons Ratio (y) = 0.55312 0.37092
# Poissons Ratio (z) = 0.18077 0.18077
#
# Static dielectric constant tensor:
#      x y z
#    x 1.523400 0.000000 0.000000 
#    y 0.000000 1.523400 0.000000 
#    z 0.000000 0.000000 1.560410 
# 
# From -- ./inp_files/13270.got.cif
#   From: 2010.05.17/outbox.cif.g08.bks.cpg/sg139_7_cif.got.tgz:13270.got - 2010.05.20 13:14:44.
