data_PCOD9571572
_publ_section_title
;
Structure prediction by ZEFSAII (Michael W. Deem and Ramdas Pophale) SiO2 
 PCOD9571572
Probable space group: I 4/M M M
;
_chemical_formula_sum "Si O2"
_cell_formula_units_Z 144
_cell_length_a 20.794837
_cell_length_b 20.794837
_cell_length_c 22.135766
_cell_angle_alpha 90.000000
_cell_angle_beta 90.000000
_cell_angle_gamma 90.000000
_cell_volume 9572.064055
_symmetry_space_group_name_H-M "I 4/M M M"
_symmetry_group_IT_number 139
_symmetry_cell_setting 'tetragonal'
loop_
_space_group_symop_operation_xyz
x,y,z
-y,x,z
-x,-y,z
y,-x,z
x,-y,-z
-x,y,-z
y,x,-z
-y,-x,-z
-x,-y,-z
y,-x,-z
x,y,-z
-y,x,-z
-x,y,z
x,-y,z
-y,-x,z
y,x,z
1/2+x,1/2+y,1/2+z
1/2-y,1/2+x,1/2+z
1/2-x,1/2-y,1/2+z
1/2+y,1/2-x,1/2+z
1/2+x,1/2-y,1/2-z
1/2-x,1/2+y,1/2-z
1/2+y,1/2+x,1/2-z
1/2-y,1/2-x,1/2-z
1/2-x,1/2-y,1/2-z
1/2+y,1/2-x,1/2-z
1/2+x,1/2+y,1/2-z
1/2-y,1/2+x,1/2-z
1/2-x,1/2+y,1/2+z
1/2+x,1/2-y,1/2+z
1/2-y,1/2-x,1/2+z
1/2+y,1/2+x,1/2+z
loop_
_atom_site_type_symbol
_atom_site_label
_atom_site_fract_x
_atom_site_fract_y
_atom_site_fract_z
Si Si1 0.668694 0.226919 0.346625
Si Si2 0.395183 0.500000 0.927421
Si Si3 0.500000 0.129070 0.072557
Si Si4 0.641023 0.924923 0.072630
Si Si5 0.262851 0.500000 0.856538
Si Si6 0.370824 0.268198 0.217329
O O1 0.713845 0.286156 0.369450
O O2 0.622828 0.190453 0.393712
O O3 0.629309 0.251779 0.288326
O O4 0.717913 0.175386 0.317465
O O5 0.437710 0.437710 0.910430
O O6 0.325790 0.500000 0.898143
O O7 0.389734 0.500000 0.000000
O O8 0.433189 0.093136 0.088641
O O9 0.500000 0.198443 0.103654
O O10 0.500000 0.135832 0.000000
O O11 0.652504 0.000000 0.087572
O O12 0.647154 0.917645 0.000000
O O13 0.264381 0.438448 0.814017
O O14 0.337108 0.337108 0.210370
#
# Coordination Sequence:
#
# PCOD9571572 Si02
#       6
#    32  16  16  32  16  32
#     4   9  18  35  51  69  99 127 159 202 247 293
#     4   9  19  34  48  66  99 138 170 207 252 289
#     4  10  20  33  46  71 104 133 166 202 236 277
#     4  10  20  34  52  72  99 133 165 198 244 295
#     4  12  18  29  52  75  94 128 173 210 232 291
#     4   9  19  32  48  71  98 128 158 201 253 288
#
# _framework density 15.043777
#
# number of rings (size 3 to 8) (size 9 to 14) (size 15 to 20)
#    0.000    2.333    2.222    3.000    1.556    1.778 
#    0.000    0.000    0.000    0.000    0.000    0.000 
#    0.000    0.444    0.000    2.444    0.000    0.000 
#
# Total GULP energy -401153.872641 kJ/mol
# GULP energy per Si atom -5571.581564 kJ/mol
# Density = 1.500954 g / cm^3
# Si number density = 15.043777 Si / 1000 Ang^3
#
#
#
# Elastic Constant Matrix: (Units=GPa)
#
#
# Indices 1 2 3 4 5 6 
#
# 1 105.4614 47.9510 46.1676 0.0000 0.0000 0.0000
# 2 47.9510 105.4614 46.1676 0.0000 0.0000 0.0000
# 3 46.1676 46.1676 47.0165 0.0000 0.0000 0.0000
# 4 0.0000 0.0000 0.0000 26.9667 0.0000 0.0000
# 5 0.0000 0.0000 0.0000 0.0000 26.9667 0.0000
# 6 0.0000 0.0000 0.0000 0.0000 0.0000 16.5760
#
#
#
# Elastic Compliance Matrix: (Units=1/GPa)
#
#
# Indices 1 2 3 4 5 6 
#
# 1 0.016663 -0.000725 -0.015650 0.000000 0.000000 0.000000
# 2 -0.000725 0.016663 -0.015650 0.000000 0.000000 0.000000
# 3 -0.015650 -0.015650 0.052004 0.000000 0.000000 0.000000
# 4 0.000000 0.000000 0.000000 0.037083 0.000000 0.000000
# 5 0.000000 0.000000 0.000000 0.000000 0.037083 0.000000
# 6 0.000000 0.000000 0.000000 0.000000 0.000000 0.060328
#
#
# Mechanical properties :
#
#
# Convention : Reuss Voigt Hill
#
# Bulk Modulus (GPa) = 46.99352 59.83462 53.41407
# Shear Modulus (GPa) = 17.18410 21.94542 19.56476
#
# Velocity S-wave (km/s) = 3.38342 3.82353 3.61019
# Velocity P-wave (km/s) = 6.82415 7.70406 7.27742
#
# Compressibility (1/GPa) = 0.02127953
#
# Stress axis : x y z
#
# Youngs Moduli (GPa) = 60.01357 60.01357 19.22938
#
# Poissons Ratio (x) = 0.04352 0.30094
# Poissons Ratio (y) = 0.04352 0.30094
# Poissons Ratio (z) = 0.93921 0.93921
#
# Static dielectric constant tensor:
#      x y z
#    x 1.491030 0.000000 0.000000 
#    y 0.000000 1.491030 0.000000 
#    z 0.000000 0.000000 1.477580 
# 
# From -- ./inp_files/10304.got.cif
#   From: 2010.05.17/outbox.cif.g08.bks.cpg/sg139_6_cif.got.tgz:10304.got - 2010.05.20 13:14:44.
