data_PCOD9571988
_publ_section_title
;
Structure prediction by ZEFSAII (Michael W. Deem and Ramdas Pophale) SiO2 
 PCOD9571988
Probable space group: I 4/M C M
;
_chemical_formula_sum "Si O2"
_cell_formula_units_Z 80
_cell_length_a 26.063605
_cell_length_b 26.063605
_cell_length_c 8.563945
_cell_angle_alpha 90.000000
_cell_angle_beta 90.000000
_cell_angle_gamma 90.000000
_cell_volume 5817.586372
_symmetry_space_group_name_H-M "I 4/M C M"
_symmetry_group_IT_number 140
_symmetry_cell_setting 'tetragonal'
loop_
_space_group_symop_operation_xyz
x,y,z
-y,x,z
-x,-y,z
y,-x,z
x,-y,1/2-z
-x,y,1/2-z
y,x,1/2-z
-y,-x,1/2-z
-x,-y,-z
y,-x,-z
x,y,-z
-y,x,-z
-x,y,1/2+z
x,-y,1/2+z
-y,-x,1/2+z
y,x,1/2+z
1/2+x,1/2+y,1/2+z
1/2-y,1/2+x,1/2+z
1/2-x,1/2-y,1/2+z
1/2+y,1/2-x,1/2+z
1/2+x,1/2-y,-z
1/2-x,1/2+y,-z
1/2+y,1/2+x,-z
1/2-y,1/2-x,-z
1/2-x,1/2-y,1/2-z
1/2+y,1/2-x,1/2-z
1/2+x,1/2+y,1/2-z
1/2-y,1/2+x,1/2-z
1/2-x,1/2+y,z
1/2+x,1/2-y,z
1/2-y,1/2-x,z
1/2+y,1/2+x,z
loop_
_atom_site_type_symbol
_atom_site_label
_atom_site_fract_x
_atom_site_fract_y
_atom_site_fract_z
Si Si1 0.557130 0.360587 0.813043
Si Si2 0.208453 0.708453 0.313398
Si Si3 0.633386 0.716222 0.186814
O O1 0.500000 0.368042 0.750000
O O2 0.594329 0.405672 0.750000
O O3 0.580406 0.306728 0.750645
O O4 0.558410 0.361011 0.000000
O O5 0.250000 0.750000 0.250000
O O6 0.209281 0.709281 0.500000
O O7 0.229593 0.654287 0.250437
O O8 0.674651 0.674651 0.250000
O O9 0.633927 0.716087 0.000000
#
# Coordination Sequence:
#
# PCOD9571988 Si02
#       3
#    32  16  32
#     4  11  21  34  47  61  78 102 134 172 211 248
#     4  10  16  24  38  58  80 102 124 153 190 235
#     4  10  17  27  41  59  79 101 126 158 196 239
#
# _framework density 13.751407
#
# number of rings (size 3 to 8) (size 9 to 14) (size 15 to 20)
#    0.000    1.600    0.000   13.800    0.000    0.400 
#    0.000    2.000    0.000    0.000    0.000    0.000 
#    0.000    0.000    0.000    0.000    0.000    1.000 
#
# Total GULP energy -222957.367243 kJ/mol
# GULP energy per Si atom -5573.934181 kJ/mol
# Density = 1.372011 g / cm^3
# Si number density = 13.751407 Si / 1000 Ang^3
#
#
#
# Elastic Constant Matrix: (Units=GPa)
#
#
# Indices 1 2 3 4 5 6 
#
# 1 59.7818 60.8179 42.8704 0.0000 0.0000 0.0000
# 2 60.8179 59.7792 42.8699 0.0000 0.0000 0.0000
# 3 42.8704 42.8699 179.3084 0.0000 0.0000 0.0000
# 4 0.0000 0.0000 0.0000 19.9716 0.0000 0.0000
# 5 0.0000 0.0000 0.0000 0.0000 19.9716 0.0000
# 6 0.0000 0.0000 0.0000 0.0000 0.0000 19.3466
#
#
#
# Elastic Compliance Matrix: (Units=1/GPa)
#
#
# Indices 1 2 3 4 5 6 
#
# 1 -0.476954 0.486956 -0.002390 0.000000 0.000000 0.000000
# 2 0.486956 -0.476978 -0.002387 0.000000 0.000000 0.000000
# 3 -0.002390 -0.002387 0.006719 0.000000 0.000000 0.000000
# 4 0.000000 0.000000 0.000000 0.050071 0.000000 0.000000
# 5 0.000000 0.000000 0.000000 0.000000 0.050071 0.000000
# 6 0.000000 0.000000 0.000000 0.000000 0.000000 0.051689
#
#
# Mechanical properties :
#
#
# Convention : Reuss Voigt Hill
#
# Bulk Modulus (GPa) = 58.32497 65.77621 62.05059
# Shear Modulus (GPa) = -2.85059 22.01205 9.58073
#
# Velocity S-wave (km/s) = -1.44133 4.00523 2.64239
# Velocity P-wave (km/s) = 6.30365 8.32618 7.38449
#
# Compressibility (1/GPa) = 0.01714532
#
# Stress axis : x y z
#
# Youngs Moduli (GPa) = -2.09664 -2.09653 148.82962
#
# Poissons Ratio (x) = 1.02092 0.35573
# Poissons Ratio (y) = 1.02097 0.35523
# Poissons Ratio (z) = -0.00501 -0.00500
#
# Static dielectric constant tensor:
#      x y z
#    x 1.480370 0.000000 0.000000 
#    y 0.000000 1.480380 0.000000 
#    z 0.000000 0.000000 1.452500 
# 
# From -- ./inp_files/822.got.cif
#   From: 2010.05.17/outbox.cif.g08.bks.cpg/sg140_1_cif.got.tgz:822.got - 2010.06.21 00:45:31.
