data_PCOD9571775
_publ_section_title
;
Structure prediction by ZEFSAII (Michael W. Deem and Ramdas Pophale) SiO2 
 PCOD9571775
Probable space group: I 4/M M M
;
_chemical_formula_sum "Si O2"
_cell_formula_units_Z 96
_cell_length_a 23.818779
_cell_length_b 23.818779
_cell_length_c 7.590389
_cell_angle_alpha 90.000000
_cell_angle_beta 90.000000
_cell_angle_gamma 90.000000
_cell_volume 4306.287522
_symmetry_space_group_name_H-M "I 4/M M M"
_symmetry_group_IT_number 139
_symmetry_cell_setting 'tetragonal'
loop_
_space_group_symop_operation_xyz
x,y,z
-y,x,z
-x,-y,z
y,-x,z
x,-y,-z
-x,y,-z
y,x,-z
-y,-x,-z
-x,-y,-z
y,-x,-z
x,y,-z
-y,x,-z
-x,y,z
x,-y,z
-y,-x,z
y,x,z
1/2+x,1/2+y,1/2+z
1/2-y,1/2+x,1/2+z
1/2-x,1/2-y,1/2+z
1/2+y,1/2-x,1/2+z
1/2+x,1/2-y,1/2-z
1/2-x,1/2+y,1/2-z
1/2+y,1/2+x,1/2-z
1/2-y,1/2-x,1/2-z
1/2-x,1/2-y,1/2-z
1/2+y,1/2-x,1/2-z
1/2+x,1/2+y,1/2-z
1/2-y,1/2+x,1/2-z
1/2-x,1/2+y,1/2+z
1/2+x,1/2-y,1/2+z
1/2-y,1/2-x,1/2+z
1/2+y,1/2+x,1/2+z
loop_
_atom_site_type_symbol
_atom_site_label
_atom_site_fract_x
_atom_site_fract_y
_atom_site_fract_z
Si Si1 0.341884 0.658117 0.214781
Si Si2 0.123949 0.717704 0.288039
Si Si3 0.500000 0.210990 0.805834
Si Si4 0.934823 0.065178 0.714553
Si Si5 0.000000 0.409330 0.794625
O O1 0.277868 0.647267 0.268510
O O2 0.388456 0.611545 0.272314
O O3 0.343602 0.656399 0.000000
O O4 0.118569 0.717065 0.500000
O O5 0.165230 0.665230 0.250000
O O6 0.060152 0.719416 0.216990
O O7 0.500000 0.144471 0.822822
O O8 0.500000 0.239611 0.000000
O O9 0.934239 0.065762 0.500000
O O10 0.000000 0.077724 0.766926
O O11 0.053466 0.446535 0.750000
O O12 0.000000 0.394856 0.000000
#
# Coordination Sequence:
#
# PCOD9571775 Si02
#       5
#    16  32  16  16  16
#     4   9  18  31  51  75 106 145 181 219 267 320
#     4  10  21  36  54  77 107 142 181 223 271 324
#     4  10  21  35  52  76 104 138 180 225 270 319
#     4   8  14  24  43  75 112 145 176 214 263 317
#     4  11  21  34  53  76 104 137 173 216 266 321
#
# _framework density 22.292985000000002
#
# number of rings (size 3 to 8) (size 9 to 14) (size 15 to 20)
#    0.000    2.333    0.000    4.000    2.333    4.000 
#    0.000    0.000    0.000    0.000    0.000    0.000 
#    0.000    0.000    0.000    7.333    0.000    6.667 
#
# Total GULP energy -267510.311564 kJ/mol
# GULP energy per Si atom -5573.131491 kJ/mol
# Density = 2.224225 g / cm^3
# Si number density = 22.292985 Si / 1000 Ang^3
#
#
#
# Elastic Constant Matrix: (Units=GPa)
#
#
# Indices 1 2 3 4 5 6 
#
# 1 166.3670 98.0991 3.1570 0.0000 0.0000 0.0000
# 2 98.0991 166.3682 3.1569 0.0000 0.0000 0.0000
# 3 3.1570 3.1569 78.0195 0.0000 0.0000 0.0000
# 4 0.0000 0.0000 0.0000 20.3504 0.0000 0.0000
# 5 0.0000 0.0000 0.0000 0.0000 20.3834 0.0000
# 6 0.0000 0.0000 0.0000 0.0000 0.0000 81.2488
#
#
#
# Elastic Compliance Matrix: (Units=1/GPa)
#
#
# Indices 1 2 3 4 5 6 
#
# 1 0.009216 -0.005432 -0.000153 0.000000 0.000000 0.000000
# 2 -0.005432 0.009216 -0.000153 0.000000 0.000000 0.000000
# 3 -0.000153 -0.000153 0.012830 0.000000 0.000000 0.000000
# 4 0.000000 0.000000 0.000000 0.049139 0.000000 0.000000
# 5 0.000000 0.000000 0.000000 0.000000 0.049060 0.000000
# 6 0.000000 0.000000 0.000000 0.000000 0.000000 0.012308
#
#
# Mechanical properties :
#
#
# Convention : Reuss Voigt Hill
#
# Bulk Modulus (GPa) = 50.53873 68.84232 59.69052
# Shear Modulus (GPa) = 31.28116 44.81928 38.05022
#
# Velocity S-wave (km/s) = 3.74997 4.48869 4.13586
# Velocity P-wave (km/s) = 6.43966 7.60343 7.04561
#
# Compressibility (1/GPa) = 0.01978681
#
# Stress axis : x y z
#
# Youngs Moduli (GPa) = 108.50120 108.50204 77.94410
#
# Poissons Ratio (x) = 0.58934 0.01194
# Poissons Ratio (y) = 0.58934 0.01194
# Poissons Ratio (z) = 0.01662 0.01662
#
# Static dielectric constant tensor:
#      x y z
#    x 1.893410 0.000000 0.000000 
#    y 0.000000 1.893420 0.000000 
#    z 0.000000 0.000000 1.946850 
# 
# From -- ./inp_files/1174.got.cif
#   From: 2010.05.17/outbox.cif.g08.bks.cpg/sg139_1_cif.got.tgz:1174.got - 2010.05.20 13:14:44.
