data_PCOD9571016
_publ_section_title
;
Structure prediction by ZEFSAII (Michael W. Deem and Ramdas Pophale) SiO2 
 PCOD9571016
Probable space group: P 42/N C M
;
_chemical_formula_sum "Si O2"
_cell_formula_units_Z 72
_cell_length_a 10.031723
_cell_length_b 10.031723
_cell_length_c 29.353460
_cell_angle_alpha 90.000000
_cell_angle_beta 90.000000
_cell_angle_gamma 90.000000
_cell_volume 2953.999136
_symmetry_space_group_name_H-M "P 42/N C M"
_symmetry_group_IT_number 138
_space_group.IT_coordinate_system_code '2'
_symmetry_cell_setting 'tetragonal'
loop_
_space_group_symop_operation_xyz
x,y,z
1/2-y,x,1/2+z
1/2-x,1/2-y,z
y,1/2-x,1/2+z
1/2+x,-y,1/2-z
-x,1/2+y,1/2-z
1/2+y,1/2+x,-z
-y,-x,-z
-x,-y,-z
1/2+y,-x,1/2-z
1/2+x,1/2+y,-z
-y,1/2+x,1/2-z
1/2-x,y,1/2+z
x,1/2-y,1/2+z
1/2-y,1/2-x,z
y,x,z
loop_
_atom_site_type_symbol
_atom_site_label
_atom_site_fract_x
_atom_site_fract_y
_atom_site_fract_z
Si Si1 0.388214 0.111787 0.435246
Si Si2 0.257343 0.470342 0.786500
Si Si3 0.550378 0.327802 0.684094
Si Si4 0.996855 0.211809 0.517145
Si Si5 0.157216 0.623206 0.602399
O O1 0.443011 0.217965 0.473202
O O2 0.503580 0.159566 0.399139
O O3 0.144006 0.355995 0.788360
O O4 0.396368 0.396368 0.798434
O O5 0.192797 0.594894 0.813296
O O6 0.273379 0.518529 0.734302
O O7 0.438110 0.438110 0.672982
O O8 0.549141 0.213025 0.646553
O O9 0.101502 0.101502 0.534684
O O10 0.963839 0.317003 0.556592
O O11 0.867040 0.132961 0.500000
O O12 0.250000 0.750000 0.596498
#
# Coordination Sequence:
#
# PCOD9571016 Si02
#       5
#     8  16  16  16  16
#     4  12  26  46  73 104 143 186 235 300 377 442
#     4   9  20  41  67  95 136 187 245 307 372 447
#     4  10  23  42  65  99 139 187 247 301 370 445
#     4  11  23  44  71  98 137 188 238 289 362 447
#     4  12  25  42  67 103 143 181 242 305 359 442
#
# _framework density 24.373736999999998
#
# number of rings (size 3 to 8) (size 9 to 14) (size 15 to 20)
#    0.000    1.333    2.222    3.000    4.667    0.000 
#    2.000    1.111    0.000    0.000    0.000    0.000 
#    0.000    0.000    0.000    0.000    0.000    0.000 
#
# Total GULP energy -401200.679424 kJ/mol
# GULP energy per Si atom -5572.231659 kJ/mol
# Density = 2.431826 g / cm^3
# Si number density = 24.373737 Si / 1000 Ang^3
#
#
#
# Elastic Constant Matrix: (Units=GPa)
#
#
# Indices 1 2 3 4 5 6 
#
# 1 -6.2665 85.1345 15.9365 0.0000 0.0000 0.0000
# 2 85.1345 -6.2567 15.9350 0.0000 0.0000 0.0000
# 3 15.9365 15.9350 98.0800 0.0000 0.0000 0.0000
# 4 0.0000 0.0000 0.0000 27.7345 0.0000 0.0000
# 5 0.0000 0.0000 0.0000 0.0000 27.7331 0.0000
# 6 0.0000 0.0000 0.0000 0.0000 0.0000 45.0822
#
#
#
# Elastic Compliance Matrix: (Units=1/GPa)
#
#
# Indices 1 2 3 4 5 6 
#
# 1 0.001313 0.012255 -0.002205 0.000000 0.000000 0.000000
# 2 0.012255 0.001315 -0.002205 0.000000 0.000000 0.000000
# 3 -0.002205 -0.002205 0.010912 0.000000 0.000000 0.000000
# 4 0.000000 0.000000 0.000000 0.036056 0.000000 0.000000
# 5 0.000000 0.000000 0.000000 0.000000 0.036058 0.000000
# 6 0.000000 0.000000 0.000000 0.000000 0.000000 0.022182
#
#
# Mechanical properties :
#
#
# Convention : Reuss Voigt Hill
#
# Bulk Modulus (GPa) = 34.20875 35.50766 34.85820
# Shear Modulus (GPa) = 49.07338 18.01337 33.54338
#
# Velocity S-wave (km/s) = 4.49193 2.72149 3.71375
# Velocity P-wave (km/s) = 6.40069 4.94722 5.72031
#
# Compressibility (1/GPa) = 0.02923229
#
# Stress axis : x y z
#
# Youngs Moduli (GPa) = 761.43930 760.55290 91.64062
#
# Poissons Ratio (x) = -9.32092 0.20202
# Poissons Ratio (y) = -9.33178 0.20206
# Poissons Ratio (z) = 1.67861 1.67698
#
# Static dielectric constant tensor:
#      x y z
#    x 1.973420 0.000000 0.000000 
#    y 0.000000 1.973420 0.000000 
#    z 0.000000 0.000000 1.905280 
# 
# From -- ./inp_files/7412.got.cif
#   From: 2010.05.17/outbox.cif.g08.bks.cpg/sg138_4_cif.got.tgz:7412.got - 2010.05.20 13:08:53.
