data_PCOD9571751
_publ_section_title
;
Structure prediction by ZEFSAII (Michael W. Deem and Ramdas Pophale) SiO2 
 PCOD9571751
Probable space group: I 4/M M M
;
_chemical_formula_sum "Si O2"
_cell_formula_units_Z 160
_cell_length_a 20.907420
_cell_length_b 20.907420
_cell_length_c 19.702596
_cell_angle_alpha 90.000000
_cell_angle_beta 90.000000
_cell_angle_gamma 90.000000
_cell_volume 8612.402922
_symmetry_space_group_name_H-M "I 4/M M M"
_symmetry_group_IT_number 139
_symmetry_cell_setting 'tetragonal'
loop_
_space_group_symop_operation_xyz
x,y,z
-y,x,z
-x,-y,z
y,-x,z
x,-y,-z
-x,y,-z
y,x,-z
-y,-x,-z
-x,-y,-z
y,-x,-z
x,y,-z
-y,x,-z
-x,y,z
x,-y,z
-y,-x,z
y,x,z
1/2+x,1/2+y,1/2+z
1/2-y,1/2+x,1/2+z
1/2-x,1/2-y,1/2+z
1/2+y,1/2-x,1/2+z
1/2+x,1/2-y,1/2-z
1/2-x,1/2+y,1/2-z
1/2+y,1/2+x,1/2-z
1/2-y,1/2-x,1/2-z
1/2-x,1/2-y,1/2-z
1/2+y,1/2-x,1/2-z
1/2+x,1/2+y,1/2-z
1/2-y,1/2+x,1/2-z
1/2-x,1/2+y,1/2+z
1/2+x,1/2-y,1/2+z
1/2-y,1/2-x,1/2+z
1/2+y,1/2+x,1/2+z
loop_
_atom_site_type_symbol
_atom_site_label
_atom_site_fract_x
_atom_site_fract_y
_atom_site_fract_z
Si Si1 0.072753 0.619757 0.315707
Si Si2 0.681527 0.422617 0.641318
Si Si3 0.320122 0.077069 0.077727
Si Si4 0.823156 0.076356 0.573633
Si Si5 0.923326 0.763696 0.287098
O O1 0.074698 0.574698 0.250000
O O2 0.125149 0.602855 0.372075
O O3 0.089594 0.688794 0.283948
O O4 0.000000 0.622112 0.343456
O O5 0.669675 0.500000 0.636277
O O6 0.621360 0.378641 0.620157
O O7 0.747432 0.408013 0.601144
O O8 0.698559 0.405500 0.719603
O O9 0.324788 0.000000 0.080665
O O10 0.330187 0.097792 0.000000
O O11 0.794399 0.094587 0.500000
O O12 0.893415 0.106586 0.575552
O O13 0.787909 0.101270 0.640409
O O14 0.825190 0.000000 0.575969
O O15 0.000000 0.770012 0.289586
#
# Coordination Sequence:
#
# PCOD9571751 Si02
#       5
#    32  32  32  32  32
#     4  11  21  36  60  88 114 145 191 235 273 331
#     4  10  20  37  61  86 115 152 194 241 292 346
#     4  10  22  40  59  83 118 155 188 230 293 352
#     4   9  17  29  46  70 102 141 184 230 280 332
#     4   9  18  33  53  78 111 148 185 229 285 341
#
# _framework density 18.577857999999999
#
# number of rings (size 3 to 8) (size 9 to 14) (size 15 to 20)
#    0.000    2.200    2.000    1.200    0.000    3.400 
#    0.000    7.000    0.000    3.600    0.000    2.800 
#    0.000    0.000    0.000    0.000    0.000    0.000 
#
# Total GULP energy -445444.411732 kJ/mol
# GULP energy per Si atom -5568.055147 kJ/mol
# Density = 1.853557 g / cm^3
# Si number density = 18.577858 Si / 1000 Ang^3
#
#
#
# Elastic Constant Matrix: (Units=GPa)
#
#
# Indices 1 2 3 4 5 6 
#
# 1 103.8738 18.4904 30.7070 0.0000 0.0000 0.0000
# 2 18.4904 103.8738 30.7070 0.0000 0.0000 0.0000
# 3 30.7070 30.7070 95.7514 0.0000 0.0000 0.0000
# 4 0.0000 0.0000 0.0000 18.7378 0.0000 0.0000
# 5 0.0000 0.0000 0.0000 0.0000 18.7378 0.0000
# 6 0.0000 0.0000 0.0000 0.0000 0.0000 12.8741
#
#
#
# Elastic Compliance Matrix: (Units=1/GPa)
#
#
# Indices 1 2 3 4 5 6 
#
# 1 0.010726 -0.000986 -0.003124 0.000000 0.000000 0.000000
# 2 -0.000986 0.010726 -0.003124 0.000000 0.000000 0.000000
# 3 -0.003124 -0.003124 0.012447 0.000000 0.000000 0.000000
# 4 0.000000 0.000000 0.000000 0.053368 0.000000 0.000000
# 5 0.000000 0.000000 0.000000 0.000000 0.053368 0.000000
# 6 0.000000 0.000000 0.000000 0.000000 0.000000 0.077676
#
#
# Mechanical properties :
#
#
# Convention : Reuss Voigt Hill
#
# Bulk Modulus (GPa) = 51.45916 51.47866 51.46891
# Shear Modulus (GPa) = 20.89823 24.97623 22.93723
#
# Velocity S-wave (km/s) = 3.35759 3.67060 3.51758
# Velocity P-wave (km/s) = 6.54145 6.76271 6.65300
#
# Compressibility (1/GPa) = 0.01943288
#
# Stress axis : x y z
#
# Youngs Moduli (GPa) = 93.23179 93.23179 80.33972
#
# Poissons Ratio (x) = 0.09192 0.25095
# Poissons Ratio (y) = 0.09192 0.25095
# Poissons Ratio (z) = 0.29122 0.29122
#
# Static dielectric constant tensor:
#      x y z
#    x 1.642330 0.000000 0.000000 
#    y 0.000000 1.642330 0.000000 
#    z 0.000000 0.000000 1.694220 
# 
# From -- ./inp_files/8371.got.cif
#   From: 2010.05.17/outbox.cif.g08.bks.cpg/sg139_5_cif.got.tgz:8371.got - 2010.05.20 13:14:44.
