data_PCOD9571503
_publ_section_title
;
Structure prediction by ZEFSAII (Michael W. Deem and Ramdas Pophale) SiO2 
 PCOD9571503
Probable space group: I 4/M M M
;
_chemical_formula_sum "Si O2"
_cell_formula_units_Z 192
_cell_length_a 24.008915
_cell_length_b 24.008915
_cell_length_c 18.702297
_cell_angle_alpha 90.000000
_cell_angle_beta 90.000000
_cell_angle_gamma 90.000000
_cell_volume 10780.527645
_symmetry_space_group_name_H-M "I 4/M M M"
_symmetry_group_IT_number 139
_symmetry_cell_setting 'tetragonal'
loop_
_space_group_symop_operation_xyz
x,y,z
-y,x,z
-x,-y,z
y,-x,z
x,-y,-z
-x,y,-z
y,x,-z
-y,-x,-z
-x,-y,-z
y,-x,-z
x,y,-z
-y,x,-z
-x,y,z
x,-y,z
-y,-x,z
y,x,z
1/2+x,1/2+y,1/2+z
1/2-y,1/2+x,1/2+z
1/2-x,1/2-y,1/2+z
1/2+y,1/2-x,1/2+z
1/2+x,1/2-y,1/2-z
1/2-x,1/2+y,1/2-z
1/2+y,1/2+x,1/2-z
1/2-y,1/2-x,1/2-z
1/2-x,1/2-y,1/2-z
1/2+y,1/2-x,1/2-z
1/2+x,1/2+y,1/2-z
1/2-y,1/2+x,1/2-z
1/2-x,1/2+y,1/2+z
1/2+x,1/2-y,1/2+z
1/2-y,1/2-x,1/2+z
1/2+y,1/2+x,1/2+z
loop_
_atom_site_type_symbol
_atom_site_label
_atom_site_fract_x
_atom_site_fract_y
_atom_site_fract_z
Si Si1 0.138483 0.861518 0.185105
Si Si2 0.685799 0.840141 0.412315
Si Si3 0.768631 0.231370 0.171721
Si Si4 0.336397 0.061213 0.085218
Si Si5 0.564053 0.703826 0.578225
Si Si6 0.437039 0.562962 0.776394
Si Si7 0.771830 0.063484 0.414065
Si Si8 0.898316 0.101685 0.583792
O O1 0.185331 0.814670 0.191420
O O2 0.168230 0.908024 0.138227
O O3 0.107781 0.892220 0.249597
O O4 0.687693 0.833149 0.500000
O O5 0.705489 0.782916 0.374091
O O6 0.622276 0.856171 0.390770
O O7 0.727050 0.890413 0.390691
O O8 0.750000 0.250000 0.250000
O O9 0.269609 0.065041 0.093679
O O10 0.354391 0.000000 0.114215
O O11 0.347487 0.059256 0.000000
O O12 0.590918 0.695872 0.500000
O O13 0.500000 0.687745 0.573508
O O14 0.423656 0.500000 0.752661
O O15 0.434200 0.565801 0.861975
O O16 0.765560 0.060018 0.500000
O O17 0.833814 0.086791 0.401641
O O18 0.765895 0.000000 0.385823
O O19 0.908953 0.091048 0.500000
#
# Coordination Sequence:
#
# PCOD9571503 Si02
#       8
#    16  32  16  32  32  16  32  16
#     4  12  22  35  53  71 106 151 176 215 268 336
#     4  10  19  34  57  79 106 146 182 217 270 332
#     4  12  26  36  47  77 117 138 172 226 281 327
#     4   8  14  26  46  75 105 131 168 216 256 297
#     4   9  17  30  50  76 101 128 172 221 257 300
#     4  11  26  43  56  75 106 146 189 229 278 340
#     4   9  18  32  54  84 112 139 175 221 273 332
#     4  10  20  38  62  85 104 129 177 238 285 325
#
# _framework density 17.809888999999998
#
# number of rings (size 3 to 8) (size 9 to 14) (size 15 to 20)
#    0.000    2.250    1.667    3.000    2.333    3.000 
#    0.000    0.417    0.000    1.500    0.000    7.000 
#    0.000    0.000    0.000    1.500    0.000    1.667 
#
# Total GULP energy -534461.774444 kJ/mol
# GULP energy per Si atom -5567.310150 kJ/mol
# Density = 1.776935 g / cm^3
# Si number density = 17.809889 Si / 1000 Ang^3
#
#
#
# Elastic Constant Matrix: (Units=GPa)
#
#
# Indices 1 2 3 4 5 6 
#
# 1 103.3831 55.8894 25.2642 0.0000 0.0000 0.0000
# 2 55.8894 103.3844 25.2643 0.0000 0.0000 0.0000
# 3 25.2642 25.2643 44.8570 0.0000 0.0000 0.0000
# 4 0.0000 0.0000 0.0000 12.4128 0.0000 0.0000
# 5 0.0000 0.0000 0.0000 0.0000 12.4128 0.0000
# 6 0.0000 0.0000 0.0000 0.0000 0.0000 13.6123
#
#
#
# Elastic Compliance Matrix: (Units=1/GPa)
#
#
# Indices 1 2 3 4 5 6 
#
# 1 0.014350 -0.006705 -0.004306 0.000000 0.000000 0.000000
# 2 -0.006705 0.014350 -0.004305 0.000000 0.000000 0.000000
# 3 -0.004306 -0.004305 0.027143 0.000000 0.000000 0.000000
# 4 0.000000 0.000000 0.000000 0.080562 0.000000 0.000000
# 5 0.000000 0.000000 0.000000 0.000000 0.080562 0.000000
# 6 0.000000 0.000000 0.000000 0.000000 0.000000 0.073463
#
#
# Mechanical properties :
#
#
# Convention : Reuss Voigt Hill
#
# Bulk Modulus (GPa) = 39.66704 51.60670 45.63687
# Shear Modulus (GPa) = 15.17608 17.36800 16.27204
#
# Velocity S-wave (km/s) = 2.92227 3.12619 3.02595
# Velocity P-wave (km/s) = 5.80578 6.48615 6.15537
#
# Compressibility (1/GPa) = 0.02520985
#
# Stress axis : x y z
#
# Youngs Moduli (GPa) = 69.68699 69.68804 36.84206
#
# Poissons Ratio (x) = 0.46728 0.15862
# Poissons Ratio (y) = 0.46728 0.15862
# Poissons Ratio (z) = 0.30004 0.30004
#
# Static dielectric constant tensor:
#      x y z
#    x 1.515470 0.000000 0.000000 
#    y 0.000000 1.515470 0.000000 
#    z 0.000000 0.000000 -0.866460 
# 
# From -- ./inp_files/10657.got.cif
#   From: 2010.05.17/outbox.cif.g08.bks.cpg/sg139_6_cif.got.tgz:10657.got - 2010.05.20 13:14:44.
