data_PCOD9571396
_publ_section_title
;
Structure prediction by ZEFSAII (Michael W. Deem and Ramdas Pophale) SiO2 
 PCOD9571396
Probable space group: I 4/M M M
;
_chemical_formula_sum "Si O2"
_cell_formula_units_Z 144
_cell_length_a 19.329457
_cell_length_b 19.329457
_cell_length_c 26.240781
_cell_angle_alpha 90.000000
_cell_angle_beta 90.000000
_cell_angle_gamma 90.000000
_cell_volume 9804.288107
_symmetry_space_group_name_H-M "I 4/M M M"
_symmetry_group_IT_number 139
_symmetry_cell_setting 'tetragonal'
loop_
_space_group_symop_operation_xyz
x,y,z
-y,x,z
-x,-y,z
y,-x,z
x,-y,-z
-x,y,-z
y,x,-z
-y,-x,-z
-x,-y,-z
y,-x,-z
x,y,-z
-y,x,-z
-x,y,z
x,-y,z
-y,-x,z
y,x,z
1/2+x,1/2+y,1/2+z
1/2-y,1/2+x,1/2+z
1/2-x,1/2-y,1/2+z
1/2+y,1/2-x,1/2+z
1/2+x,1/2-y,1/2-z
1/2-x,1/2+y,1/2-z
1/2+y,1/2+x,1/2-z
1/2-y,1/2-x,1/2-z
1/2-x,1/2-y,1/2-z
1/2+y,1/2-x,1/2-z
1/2+x,1/2+y,1/2-z
1/2-y,1/2+x,1/2-z
1/2-x,1/2+y,1/2+z
1/2+x,1/2-y,1/2+z
1/2-y,1/2-x,1/2+z
1/2+y,1/2+x,1/2+z
loop_
_atom_site_type_symbol
_atom_site_label
_atom_site_fract_x
_atom_site_fract_y
_atom_site_fract_z
Si Si1 0.419554 0.694403 0.759392
Si Si2 0.347613 0.082900 0.894731
Si Si3 0.693636 0.420172 0.637435
Si Si4 0.916112 0.579631 0.000000
Si Si5 0.082614 0.653806 0.298116
O O1 0.500000 0.676952 0.769501
O O2 0.367535 0.632466 0.772041
O O3 0.414083 0.707676 0.698374
O O4 0.401809 0.765283 0.788268
O O5 0.265340 0.094171 0.891254
O O6 0.380481 0.103931 0.948603
O O7 0.383616 0.123716 0.848948
O O8 0.358812 0.000000 0.887449
O O9 0.673353 0.500000 0.628018
O O10 0.633331 0.366670 0.624382
O O11 0.892102 0.500000 0.000000
O O12 0.000000 0.578182 0.000000
O O13 0.112174 0.612174 0.250000
O O14 0.000000 0.646267 0.300103
#
# Coordination Sequence:
#
# PCOD9571396 Si02
#       5
#    32  32  32  16  32
#     4   9  18  31  46  67  93 121 155 190 228 277
#     4  10  19  32  47  66  92 123 158 193 228 270
#     4   9  17  30  47  67  92 121 154 192 233 278
#     4   9  18  32  49  66  85 117 159 194 223 260
#     4  11  20  29  43  67  96 123 151 184 225 274
#
# _framework density 14.68745
#
# number of rings (size 3 to 8) (size 9 to 14) (size 15 to 20)
#    0.000    2.333    2.222    1.333    0.000    4.222 
#    0.000    2.778    0.000    0.000    0.000    0.000 
#    0.000    4.444    0.000    0.000    0.000   10.222 
#
# Total GULP energy -401403.680336 kJ/mol
# GULP energy per Si atom -5575.051116 kJ/mol
# Density = 1.465402 g / cm^3
# Si number density = 14.687450 Si / 1000 Ang^3
#
#
#
# Elastic Constant Matrix: (Units=GPa)
#
#
# Indices 1 2 3 4 5 6 
#
# 1 96.6597 83.5527 60.2983 0.0000 0.0000 0.0000
# 2 83.5527 96.6597 60.2983 0.0000 0.0000 0.0000
# 3 60.2983 60.2983 103.4701 0.0000 0.0000 0.0000
# 4 0.0000 0.0000 0.0000 17.3091 0.0000 0.0000
# 5 0.0000 0.0000 0.0000 0.0000 17.3091 0.0000
# 6 0.0000 0.0000 0.0000 0.0000 0.0000 26.0531
#
#
#
# Elastic Compliance Matrix: (Units=1/GPa)
#
#
# Indices 1 2 3 4 5 6 
#
# 1 0.042696 -0.033599 -0.005301 0.000000 0.000000 0.000000
# 2 -0.033599 0.042696 -0.005301 0.000000 0.000000 0.000000
# 3 -0.005301 -0.005301 0.015843 0.000000 0.000000 0.000000
# 4 0.000000 0.000000 0.000000 0.057773 0.000000 0.000000
# 5 0.000000 0.000000 0.000000 0.000000 0.057773 0.000000
# 6 0.000000 0.000000 0.000000 0.000000 0.000000 0.038383
#
#
# Mechanical properties :
#
#
# Convention : Reuss Voigt Hill
#
# Bulk Modulus (GPa) = 77.93142 78.34310 78.13726
# Shear Modulus (GPa) = 14.37427 18.31028 16.34228
#
# Velocity S-wave (km/s) = 3.13178 3.53464 3.33929
# Velocity P-wave (km/s) = 8.13956 8.37342 8.25732
#
# Compressibility (1/GPa) = 0.01283180
#
# Stress axis : x y z
#
# Youngs Moduli (GPa) = 23.42156 23.42156 63.11894
#
# Poissons Ratio (x) = 0.78695 0.33460
# Poissons Ratio (y) = 0.78695 0.33460
# Poissons Ratio (z) = 0.12416 0.12416
#
# Static dielectric constant tensor:
#      x y z
#    x 1.477860 0.000000 0.000000 
#    y 0.000000 1.477860 0.000000 
#    z 0.000000 0.000000 1.467250 
# 
# From -- ./inp_files/11482.got.cif
#   From: 2010.05.17/outbox.cif.g08.bks.cpg/sg139_6_cif.got.tgz:11482.got - 2010.05.20 13:14:44.
