data_PCOD9571516
_publ_section_title
;
Structure prediction by ZEFSAII (Michael W. Deem and Ramdas Pophale) SiO2 
 PCOD9571516
Probable space group: I 4/M M M
;
_chemical_formula_sum "Si O2"
_cell_formula_units_Z 160
_cell_length_a 29.926960
_cell_length_b 29.926960
_cell_length_c 10.022694
_cell_angle_alpha 90.000000
_cell_angle_beta 90.000000
_cell_angle_gamma 90.000000
_cell_volume 8976.554615
_symmetry_space_group_name_H-M "I 4/M M M"
_symmetry_group_IT_number 139
_symmetry_cell_setting 'tetragonal'
loop_
_space_group_symop_operation_xyz
x,y,z
-y,x,z
-x,-y,z
y,-x,z
x,-y,-z
-x,y,-z
y,x,-z
-y,-x,-z
-x,-y,-z
y,-x,-z
x,y,-z
-y,x,-z
-x,y,z
x,-y,z
-y,-x,z
y,x,z
1/2+x,1/2+y,1/2+z
1/2-y,1/2+x,1/2+z
1/2-x,1/2-y,1/2+z
1/2+y,1/2-x,1/2+z
1/2+x,1/2-y,1/2-z
1/2-x,1/2+y,1/2-z
1/2+y,1/2+x,1/2-z
1/2-y,1/2-x,1/2-z
1/2-x,1/2-y,1/2-z
1/2+y,1/2-x,1/2-z
1/2+x,1/2+y,1/2-z
1/2-y,1/2+x,1/2-z
1/2-x,1/2+y,1/2+z
1/2+x,1/2-y,1/2+z
1/2-y,1/2-x,1/2+z
1/2+y,1/2+x,1/2+z
loop_
_atom_site_type_symbol
_atom_site_label
_atom_site_fract_x
_atom_site_fract_y
_atom_site_fract_z
Si Si1 0.648356 0.779092 0.000000
Si Si2 0.810143 0.115065 0.000000
Si Si3 0.052069 0.799263 0.241481
Si Si4 0.937923 0.500000 0.336764
Si Si5 0.703475 0.866037 0.000000
Si Si6 0.388691 0.315784 0.000000
Si Si7 0.418417 0.199648 0.237651
Si Si8 0.640558 0.000000 0.651685
O O1 0.689486 0.813839 0.000000
O O2 0.619788 0.790592 0.869427
O O3 0.647652 0.725041 0.000000
O O4 0.818451 0.082937 0.125151
O O5 0.757640 0.129614 0.000000
O O6 0.842179 0.157822 0.000000
O O7 0.078268 0.811014 0.375559
O O8 0.055778 0.745502 0.227945
O O9 0.000000 0.812148 0.239182
O O10 0.944959 0.500000 0.500000
O O11 0.959417 0.540584 0.250000
O O12 0.887717 0.500000 0.288822
O O13 0.684847 0.892658 0.871233
O O14 0.361276 0.361276 0.000000
O O15 0.454717 0.168478 0.167688
O O16 0.619858 0.000000 0.500000
#
# Coordination Sequence:
#
# PCOD9571516 Si02
#       8
#    16  16  32  16  16  16  32  16
#     4  10  20  37  53  77 113 157 190 223 278 340
#     4  10  21  36  54  82 118 152 191 237 279 335
#     4  10  19  35  58  81 112 151 186 231 294 333
#     4  11  25  46  65  82 106 142 186 238 306 377
#     4  10  22  35  53  81 113 153 190 235 282 334
#     4  10  21  34  56  86 116 150 193 237 271 329
#     4  10  21  35  56  79 110 140 187 239 284 346
#     4  12  23  39  60  82 111 146 184 242 309 358
#
# _framework density 17.824210999999998
#
# number of rings (size 3 to 8) (size 9 to 14) (size 15 to 20)
#    0.000    1.700    2.000    3.000    1.400    2.000 
#    0.000    0.000    0.000    7.200    0.000    0.000 
#    0.000   28.000    0.000    0.000    0.000    0.000 
#
# Total GULP energy -445419.907212 kJ/mol
# GULP energy per Si atom -5567.748840 kJ/mol
# Density = 1.778364 g / cm^3
# Si number density = 17.824211 Si / 1000 Ang^3
#
#
#
# Elastic Constant Matrix: (Units=GPa)
#
#
# Indices 1 2 3 4 5 6 
#
# 1 65.5049 33.7328 18.0720 0.0000 0.0000 0.0000
# 2 33.7328 65.4988 18.0699 0.0000 0.0000 0.0000
# 3 18.0720 18.0699 143.6664 0.0000 0.0000 0.0000
# 4 0.0000 0.0000 0.0000 7.4130 0.0000 0.0000
# 5 0.0000 0.0000 0.0000 0.0000 7.3885 0.0000
# 6 0.0000 0.0000 0.0000 0.0000 0.0000 25.6431
#
#
#
# Elastic Compliance Matrix: (Units=1/GPa)
#
#
# Indices 1 2 3 4 5 6 
#
# 1 0.021018 -0.010458 -0.001329 0.000000 0.000000 0.000000
# 2 -0.010458 0.021020 -0.001328 0.000000 0.000000 0.000000
# 3 -0.001329 -0.001328 0.007295 0.000000 0.000000 0.000000
# 4 0.000000 0.000000 0.000000 0.134898 0.000000 0.000000
# 5 0.000000 0.000000 0.000000 0.000000 0.135345 0.000000
# 6 0.000000 0.000000 0.000000 0.000000 0.000000 0.038997
#
#
# Mechanical properties :
#
#
# Convention : Reuss Voigt Hill
#
# Bulk Modulus (GPa) = 43.28435 46.04660 44.66548
# Shear Modulus (GPa) = 12.73874 21.74195 17.24034
#
# Velocity S-wave (km/s) = 2.67626 3.49635 3.11343
# Velocity P-wave (km/s) = 5.82122 6.49531 6.16748
#
# Compressibility (1/GPa) = 0.02310304
#
# Stress axis : x y z
#
# Youngs Moduli (GPa) = 47.57796 47.57382 137.08486
#
# Poissons Ratio (x) = 0.49753 0.18212
# Poissons Ratio (y) = 0.49758 0.18209
# Poissons Ratio (z) = 0.06321 0.06319
#
# Static dielectric constant tensor:
#      x y z
#    x 1.639080 0.000000 0.000000 
#    y 0.000000 1.639090 0.000000 
#    z 0.000000 0.000000 1.636950 
# 
# From -- ./inp_files/2372.got.cif
#   From: 2010.05.17/outbox.cif.g08.bks.cpg/sg139_2_cif.got.tgz:2372.got - 2010.05.20 13:14:44.
