data_PCOD9571784
_publ_section_title
;
Structure prediction by ZEFSAII (Michael W. Deem and Ramdas Pophale) SiO2 
 PCOD9571784
Probable space group: I 4/M M M
;
_chemical_formula_sum "Si O2"
_cell_formula_units_Z 128
_cell_length_a 20.112995
_cell_length_b 20.112995
_cell_length_c 18.617153
_cell_angle_alpha 90.000000
_cell_angle_beta 90.000000
_cell_angle_gamma 90.000000
_cell_volume 7531.244710
_symmetry_space_group_name_H-M "I 4/M M M"
_symmetry_group_IT_number 139
_symmetry_cell_setting 'tetragonal'
loop_
_space_group_symop_operation_xyz
x,y,z
-y,x,z
-x,-y,z
y,-x,z
x,-y,-z
-x,y,-z
y,x,-z
-y,-x,-z
-x,-y,-z
y,-x,-z
x,y,-z
-y,x,-z
-x,y,z
x,-y,z
-y,-x,z
y,x,z
1/2+x,1/2+y,1/2+z
1/2-y,1/2+x,1/2+z
1/2-x,1/2-y,1/2+z
1/2+y,1/2-x,1/2+z
1/2+x,1/2-y,1/2-z
1/2-x,1/2+y,1/2-z
1/2+y,1/2+x,1/2-z
1/2-y,1/2-x,1/2-z
1/2-x,1/2-y,1/2-z
1/2+y,1/2-x,1/2-z
1/2+x,1/2+y,1/2-z
1/2-y,1/2+x,1/2-z
1/2-x,1/2+y,1/2+z
1/2+x,1/2-y,1/2+z
1/2-y,1/2-x,1/2+z
1/2+y,1/2+x,1/2+z
loop_
_atom_site_type_symbol
_atom_site_label
_atom_site_fract_x
_atom_site_fract_y
_atom_site_fract_z
Si Si1 0.260428 0.578033 0.078779
Si Si2 0.075468 0.600381 0.417017
Si Si3 0.170730 0.425852 0.707653
Si Si4 0.079262 0.186575 0.264874
O O1 0.277567 0.500000 0.075300
O O2 0.180615 0.581236 0.085427
O O3 0.291597 0.600459 0.153958
O O4 0.278610 0.607008 0.000000
O O5 0.080657 0.580566 0.500000
O O6 0.135130 0.573221 0.369276
O O7 0.000000 0.582604 0.392596
O O8 0.163344 0.500000 0.740270
O O9 0.128305 0.371696 0.750000
O O10 0.248670 0.410272 0.714526
O O11 0.124263 0.124263 0.243584
O O12 0.000000 0.172110 0.264899
#
# Coordination Sequence:
#
# PCOD9571784 Si02
#       4
#    32  32  32  32
#     4   8  14  28  49  71 100 136 169 204 250 303
#     4   9  17  31  50  73 106 144 177 208 242 289
#     4  11  21  33  49  74 107 139 172 209 252 303
#     4  10  21  36  54  75  99 132 173 218 269 316
#
# _framework density 16.995863
#
# number of rings (size 3 to 8) (size 9 to 14) (size 15 to 20)
#    0.000    2.500    2.500    2.250    0.000    3.500 
#    0.000    1.250    0.000    0.750    0.000    3.500 
#    0.000    0.000    0.000    5.500    0.000    0.000 
#
# Total GULP energy -356292.036991 kJ/mol
# GULP energy per Si atom -5567.063078 kJ/mol
# Density = 1.695718 g / cm^3
# Si number density = 16.995863 Si / 1000 Ang^3
#
#
#
# Elastic Constant Matrix: (Units=GPa)
#
#
# Indices 1 2 3 4 5 6 
#
# 1 89.4753 68.5829 34.1197 0.0000 0.0000 0.0000
# 2 68.5829 89.4746 34.1198 0.0000 0.0000 0.0000
# 3 34.1197 34.1198 80.9187 0.0000 0.0000 0.0000
# 4 0.0000 0.0000 0.0000 14.9503 0.0000 0.0000
# 5 0.0000 0.0000 0.0000 0.0000 14.9502 0.0000
# 6 0.0000 0.0000 0.0000 0.0000 0.0000 28.6025
#
#
#
# Elastic Compliance Matrix: (Units=1/GPa)
#
#
# Indices 1 2 3 4 5 6 
#
# 1 0.027800 -0.020065 -0.003261 0.000000 0.000000 0.000000
# 2 -0.020065 0.027800 -0.003262 0.000000 0.000000 0.000000
# 3 -0.003261 -0.003262 0.015109 0.000000 0.000000 0.000000
# 4 0.000000 0.000000 0.000000 0.066888 0.000000 0.000000
# 5 0.000000 0.000000 0.000000 0.000000 0.066889 0.000000
# 6 0.000000 0.000000 0.000000 0.000000 0.000000 0.034962
#
#
# Mechanical properties :
#
#
# Convention : Reuss Voigt Hill
#
# Bulk Modulus (GPa) = 57.03705 59.27928 58.15816
# Shear Modulus (GPa) = 16.75222 19.90367 18.32794
#
# Velocity S-wave (km/s) = 3.14294 3.42583 3.28743
# Velocity P-wave (km/s) = 6.84127 7.11356 6.97874
#
# Compressibility (1/GPa) = 0.01753246
#
# Stress axis : x y z
#
# Youngs Moduli (GPa) = 35.97141 35.97103 66.18789
#
# Poissons Ratio (x) = 0.72176 0.21586
# Poissons Ratio (y) = 0.72177 0.21588
# Poissons Ratio (z) = 0.11732 0.11732
#
# Static dielectric constant tensor:
#      x y z
#    x 1.578830 0.000000 0.000000 
#    y 0.000000 1.578830 0.000000 
#    z 0.000000 0.000000 1.635040 
# 
# From -- ./inp_files/7972.got.cif
#   From: 2010.05.17/outbox.cif.g08.bks.cpg/sg139_4_cif.got.tgz:7972.got - 2010.05.20 13:14:44.
