data_PCOD9571802
_publ_section_title
;
Structure prediction by ZEFSAII (Michael W. Deem and Ramdas Pophale) SiO2 
 PCOD9571802
Probable space group: I 4/M M M
;
_chemical_formula_sum "Si O2"
_cell_formula_units_Z 160
_cell_length_a 22.256910
_cell_length_b 22.256910
_cell_length_c 17.037127
_cell_angle_alpha 90.000000
_cell_angle_beta 90.000000
_cell_angle_gamma 90.000000
_cell_volume 8439.682330
_symmetry_space_group_name_H-M "I 4/M M M"
_symmetry_group_IT_number 139
_symmetry_cell_setting 'tetragonal'
loop_
_space_group_symop_operation_xyz
x,y,z
-y,x,z
-x,-y,z
y,-x,z
x,-y,-z
-x,y,-z
y,x,-z
-y,-x,-z
-x,-y,-z
y,-x,-z
x,y,-z
-y,x,-z
-x,y,z
x,-y,z
-y,-x,z
y,x,z
1/2+x,1/2+y,1/2+z
1/2-y,1/2+x,1/2+z
1/2-x,1/2-y,1/2+z
1/2+y,1/2-x,1/2+z
1/2+x,1/2-y,1/2-z
1/2-x,1/2+y,1/2-z
1/2+y,1/2+x,1/2-z
1/2-y,1/2-x,1/2-z
1/2-x,1/2-y,1/2-z
1/2+y,1/2-x,1/2-z
1/2+x,1/2+y,1/2-z
1/2-y,1/2+x,1/2-z
1/2-x,1/2+y,1/2+z
1/2+x,1/2-y,1/2+z
1/2-y,1/2-x,1/2+z
1/2+y,1/2+x,1/2+z
loop_
_atom_site_type_symbol
_atom_site_label
_atom_site_fract_x
_atom_site_fract_y
_atom_site_fract_z
Si Si1 0.298641 0.298641 0.859434
Si Si2 0.901373 0.000000 0.879444
Si Si3 0.901578 0.000000 0.310882
Si Si4 0.759602 0.000000 0.878389
Si Si5 0.715978 0.874081 0.912076
Si Si6 0.698330 0.301671 0.313277
Si Si7 0.892930 0.707930 0.589396
Si Si8 0.239926 0.000000 0.311090
O O1 0.320190 0.320190 0.773972
O O2 0.249415 0.249415 0.830173
O O3 0.265089 0.348759 0.907490
O O4 0.901066 0.000000 0.784253
O O5 0.941144 0.058857 0.903219
O O6 0.830805 0.000000 0.902885
O O7 0.831299 0.000000 0.335367
O O8 0.941176 0.941176 0.334948
O O9 0.722238 0.944259 0.910637
O O10 0.758140 0.000000 0.783156
O O11 0.770980 0.856268 0.856395
O O12 0.651864 0.846625 0.886851
O O13 0.725858 0.849256 0.000000
O O14 0.914778 0.698371 0.500000
O O15 0.943593 0.724968 0.651411
#
# Coordination Sequence:
#
# PCOD9571802 Si02
#       8
#    16  16  16  16  32  16  32  16
#     4   9  17  31  53  79 106 137 178 229 279 328
#     4   8  16  32  51  74 109 149 186 224 267 320
#     4   8  16  32  51  74 109 149 186 224 267 320
#     4  11  22  33  56  87 111 144 188 236 284 331
#     4  10  21  37  55  77 110 149 186 227 281 342
#     4   9  17  31  53  79 106 137 178 229 279 328
#     4  10  21  37  55  77 110 149 186 227 281 342
#     4  11  22  33  56  87 111 144 188 236 284 331
#
# _framework density 18.958058999999999
#
# number of rings (size 3 to 8) (size 9 to 14) (size 15 to 20)
#    0.000    2.400    0.000    3.000    2.800    4.800 
#    0.000    0.000    0.000    0.600    0.000    9.800 
#    0.000    0.000    0.000    0.000    0.000    0.000 
#
# Total GULP energy -445623.482961 kJ/mol
# GULP energy per Si atom -5570.293537 kJ/mol
# Density = 1.891491 g / cm^3
# Si number density = 18.958059 Si / 1000 Ang^3
#
#
#
# Elastic Constant Matrix: (Units=GPa)
#
#
# Indices 1 2 3 4 5 6 
#
# 1 93.4052 50.0598 24.3236 0.0000 0.0000 0.0000
# 2 50.0598 93.4052 24.3236 0.0000 0.0000 0.0000
# 3 24.3236 24.3236 74.5784 0.0000 0.0000 0.0000
# 4 0.0000 0.0000 0.0000 15.5217 0.0000 0.0000
# 5 0.0000 0.0000 0.0000 0.0000 15.5217 0.0000
# 6 0.0000 0.0000 0.0000 0.0000 0.0000 19.4469
#
#
#
# Elastic Compliance Matrix: (Units=1/GPa)
#
#
# Indices 1 2 3 4 5 6 
#
# 1 0.015454 -0.007617 -0.002556 0.000000 0.000000 0.000000
# 2 -0.007617 0.015454 -0.002556 0.000000 0.000000 0.000000
# 3 -0.002556 -0.002556 0.015076 0.000000 0.000000 0.000000
# 4 0.000000 0.000000 0.000000 0.064426 0.000000 0.000000
# 5 0.000000 0.000000 0.000000 0.000000 0.064426 0.000000
# 6 0.000000 0.000000 0.000000 0.000000 0.000000 0.051422
#
#
# Mechanical properties :
#
#
# Convention : Reuss Voigt Hill
#
# Bulk Modulus (GPa) = 48.71880 50.97809 49.84844
# Shear Modulus (GPa) = 19.33811 20.94353 20.14082
#
# Velocity S-wave (km/s) = 3.19728 3.32735 3.26297
# Velocity P-wave (km/s) = 6.27568 6.45833 6.36766
#
# Compressibility (1/GPa) = 0.02052596
#
# Stress axis : x y z
#
# Youngs Moduli (GPa) = 64.70910 64.70910 66.33054
#
# Poissons Ratio (x) = 0.49287 0.16954
# Poissons Ratio (y) = 0.49287 0.16954
# Poissons Ratio (z) = 0.16540 0.16540
#
# Static dielectric constant tensor:
#      x y z
#    x 1.705810 0.000000 0.000000 
#    y 0.000000 1.705810 0.000000 
#    z 0.000000 0.000000 1.719810 
# 
# From -- ./inp_files/8533.got.cif
#   From: 2010.05.17/outbox.cif.g08.bks.cpg/sg139_5_cif.got.tgz:8533.got - 2010.05.20 13:14:44.
