data_PCOD9571306
_publ_section_title
;
Structure prediction by ZEFSAII (Michael W. Deem and Ramdas Pophale) SiO2 
 PCOD9571306
Probable space group: I 4/M M M
;
_chemical_formula_sum "Si O2"
_cell_formula_units_Z 160
_cell_length_a 23.530040
_cell_length_b 23.530040
_cell_length_c 16.487469
_cell_angle_alpha 90.000000
_cell_angle_beta 90.000000
_cell_angle_gamma 90.000000
_cell_volume 9128.497961
_symmetry_space_group_name_H-M "I 4/M M M"
_symmetry_group_IT_number 139
_symmetry_cell_setting 'tetragonal'
loop_
_space_group_symop_operation_xyz
x,y,z
-y,x,z
-x,-y,z
y,-x,z
x,-y,-z
-x,y,-z
y,x,-z
-y,-x,-z
-x,-y,-z
y,-x,-z
x,y,-z
-y,x,-z
-x,y,z
x,-y,z
-y,-x,z
y,x,z
1/2+x,1/2+y,1/2+z
1/2-y,1/2+x,1/2+z
1/2-x,1/2-y,1/2+z
1/2+y,1/2-x,1/2+z
1/2+x,1/2-y,1/2-z
1/2-x,1/2+y,1/2-z
1/2+y,1/2+x,1/2-z
1/2-y,1/2-x,1/2-z
1/2-x,1/2-y,1/2-z
1/2+y,1/2-x,1/2-z
1/2+x,1/2+y,1/2-z
1/2-y,1/2+x,1/2-z
1/2-x,1/2+y,1/2+z
1/2+x,1/2-y,1/2+z
1/2-y,1/2-x,1/2+z
1/2+y,1/2+x,1/2+z
loop_
_atom_site_type_symbol
_atom_site_label
_atom_site_fract_x
_atom_site_fract_y
_atom_site_fract_z
Si Si1 0.433125 0.659552 0.326937
Si Si2 0.712943 0.622152 0.831209
Si Si3 0.434589 0.285206 0.000000
Si Si4 0.132613 0.348817 0.662560
Si Si5 0.934401 0.352926 0.500000
Si Si6 0.349301 0.742459 0.405252
O O1 0.500000 0.655091 0.336747
O O2 0.400179 0.599822 0.333181
O O3 0.416223 0.686869 0.240054
O O4 0.403342 0.702233 0.390448
O O5 0.684060 0.684060 0.822969
O O6 0.781033 0.622789 0.827412
O O7 0.696547 0.596837 0.918454
O O8 0.500000 0.303561 0.000000
O O9 0.433819 0.216146 0.000000
O O10 0.122267 0.377734 0.750000
O O11 0.097151 0.369370 0.583952
O O12 0.198995 0.355258 0.641449
O O13 0.000000 0.371415 0.500000
O O14 0.341811 0.755154 0.500000
O O15 0.295050 0.704950 0.377900
#
# Coordination Sequence:
#
# PCOD9571306 Si02
#       6
#    32  32  16  32  16  32
#     4  10  21  36  53  74 103 141 186 239 291 337
#     4  10  19  29  46  72 103 141 181 227 281 337
#     4   9  17  29  43  63  97 143 185 219 261 316
#     4  11  19  32  53  81 113 151 188 221 277 344
#     4   9  20  35  51  77 118 153 177 216 257 312
#     4  10  20  34  53  77 107 142 180 230 290 346
#
# _framework density 17.527528
#
# number of rings (size 3 to 8) (size 9 to 14) (size 15 to 20)
#    0.000    2.000    3.000    1.500    0.000    2.200 
#    0.000    0.000    0.000    0.000    0.000    2.800 
#    0.000   13.200    0.000    0.000    0.000    0.000 
#
# Total GULP energy -446163.695157 kJ/mol
# GULP energy per Si atom -5577.046189 kJ/mol
# Density = 1.748763 g / cm^3
# Si number density = 17.527528 Si / 1000 Ang^3
#
#
#
# Elastic Constant Matrix: (Units=GPa)
#
#
# Indices 1 2 3 4 5 6 
#
# 1 61.9014 27.4395 20.2406 0.0000 0.0000 0.0000
# 2 27.4395 61.9022 20.2410 0.0000 0.0000 0.0000
# 3 20.2406 20.2410 116.1996 0.0000 0.0000 0.0000
# 4 0.0000 0.0000 0.0000 16.6269 0.0000 0.0000
# 5 0.0000 0.0000 0.0000 0.0000 16.6272 0.0000
# 6 0.0000 0.0000 0.0000 0.0000 0.0000 7.7974
#
#
#
# Elastic Compliance Matrix: (Units=1/GPa)
#
#
# Indices 1 2 3 4 5 6 
#
# 1 0.020585 -0.008433 -0.002117 0.000000 0.000000 0.000000
# 2 -0.008433 0.020585 -0.002117 0.000000 0.000000 0.000000
# 3 -0.002117 -0.002117 0.009343 0.000000 0.000000 0.000000
# 4 0.000000 0.000000 0.000000 0.060143 0.000000 0.000000
# 5 0.000000 0.000000 0.000000 0.000000 0.060143 0.000000
# 6 0.000000 0.000000 0.000000 0.000000 0.000000 0.128248
#
#
# Mechanical properties :
#
#
# Convention : Reuss Voigt Hill
#
# Bulk Modulus (GPa) = 39.71322 41.76059 40.73691
# Shear Modulus (GPa) = 15.02528 19.68244 17.35386
#
# Velocity S-wave (km/s) = 2.93104 3.35467 3.14999
# Velocity P-wave (km/s) = 5.84478 6.23559 6.04334
#
# Compressibility (1/GPa) = 0.02518053
#
# Stress axis : x y z
#
# Youngs Moduli (GPa) = 48.57956 48.58012 107.02828
#
# Poissons Ratio (x) = 0.40965 0.22655
# Poissons Ratio (y) = 0.40965 0.22656
# Poissons Ratio (z) = 0.10283 0.10283
#
# Static dielectric constant tensor:
#      x y z
#    x 1.574080 0.000000 0.000000 
#    y 0.000000 1.574080 0.000000 
#    z 0.000000 0.000000 1.628530 
# 
# From -- ./inp_files/8438.got.cif
#   From: 2010.05.17/outbox.cif.g08.bks.cpg/sg139_5_cif.got.tgz:8438.got - 2010.05.20 13:14:44.
