data_PCOD9571507
_publ_section_title
;
Structure prediction by ZEFSAII (Michael W. Deem and Ramdas Pophale) SiO2 
 PCOD9571507
Probable space group: I 4/M M M
;
_chemical_formula_sum "Si O2"
_cell_formula_units_Z 160
_cell_length_a 31.831309
_cell_length_b 31.831309
_cell_length_c 8.443829
_cell_angle_alpha 90.000000
_cell_angle_beta 90.000000
_cell_angle_gamma 90.000000
_cell_volume 8555.559710
_symmetry_space_group_name_H-M "I 4/M M M"
_symmetry_group_IT_number 139
_symmetry_cell_setting 'tetragonal'
loop_
_space_group_symop_operation_xyz
x,y,z
-y,x,z
-x,-y,z
y,-x,z
x,-y,-z
-x,y,-z
y,x,-z
-y,-x,-z
-x,-y,-z
y,-x,-z
x,y,-z
-y,x,-z
-x,y,z
x,-y,z
-y,-x,z
y,x,z
1/2+x,1/2+y,1/2+z
1/2-y,1/2+x,1/2+z
1/2-x,1/2-y,1/2+z
1/2+y,1/2-x,1/2+z
1/2+x,1/2-y,1/2-z
1/2-x,1/2+y,1/2-z
1/2+y,1/2+x,1/2-z
1/2-y,1/2-x,1/2-z
1/2-x,1/2-y,1/2-z
1/2+y,1/2-x,1/2-z
1/2+x,1/2+y,1/2-z
1/2-y,1/2+x,1/2-z
1/2-x,1/2+y,1/2+z
1/2+x,1/2-y,1/2+z
1/2-y,1/2-x,1/2+z
1/2+y,1/2+x,1/2+z
loop_
_atom_site_type_symbol
_atom_site_label
_atom_site_fract_x
_atom_site_fract_y
_atom_site_fract_z
Si Si1 0.230134 0.000000 0.681623
Si Si2 0.951341 0.048660 0.691188
Si Si3 0.153086 0.282255 0.686541
Si Si4 0.707769 0.406744 0.191747
Si Si5 0.089013 0.350870 0.185766
Si Si6 0.500000 0.830606 0.181750
Si Si7 0.884297 0.115704 0.188551
O O1 0.217826 0.954335 0.751308
O O2 0.213434 0.000000 0.500000
O O3 0.280245 0.000000 0.676074
O O4 0.948317 0.051684 0.500000
O O5 0.919032 0.080969 0.766596
O O6 0.000000 0.057609 0.734019
O O7 0.159301 0.277169 0.500000
O O8 0.196209 0.303792 0.750000
O O9 0.130595 0.239436 0.748188
O O10 0.117014 0.316674 0.721518
O O11 0.660533 0.396764 0.239289
O O12 0.712408 0.407820 0.000000
O O13 0.104810 0.395191 0.250000
O O14 0.041155 0.344392 0.227049
O O15 0.097480 0.346295 0.000000
O O16 0.500000 0.845759 0.000000
O O17 0.881093 0.118908 0.000000
#
# Coordination Sequence:
#
# PCOD9571507 Si02
#       7
#    16  16  32  32  32  16  16
#     4   9  18  35  61  87 113 147 191 239 289 342
#     4   9  20  42  70  93 113 149 200 241 278 345
#     4  10  19  34  58  85 115 152 193 241 292 345
#     4  10  21  40  62  85 114 158 204 239 284 349
#     4  11  21  33  51  80 115 154 194 237 291 349
#     4  11  19  35  57  84 116 146 190 243 297 351
#     4  12  27  41  58  89 126 157 189 243 300 345
#
# _framework density 18.70129
#
# number of rings (size 3 to 8) (size 9 to 14) (size 15 to 20)
#    0.000    1.700    2.000    5.100    1.400    2.000 
#    0.000    1.000    0.000    0.300    0.000    2.100 
#    0.000    0.000    0.000    0.000    0.000    0.000 
#
# Total GULP energy -446108.174164 kJ/mol
# GULP energy per Si atom -5576.352177 kJ/mol
# Density = 1.865873 g / cm^3
# Si number density = 18.701290 Si / 1000 Ang^3
#
#
#
# Elastic Constant Matrix: (Units=GPa)
#
#
# Indices 1 2 3 4 5 6 
#
# 1 112.2594 67.1810 7.7601 0.0000 0.0000 0.0000
# 2 67.1810 112.2575 7.7639 0.0000 0.0000 0.0000
# 3 7.7601 7.7639 16.3860 0.0000 0.0000 0.0000
# 4 0.0000 0.0000 0.0000-4932.1451 0.0000 0.0000
# 5 0.0000 0.0000 0.0000 0.0000-6607.3562 0.0000
# 6 0.0000 0.0000 0.0000 0.0000 0.0000 28.9794
#
#
#
# Elastic Compliance Matrix: (Units=1/GPa)
#
#
# Indices 1 2 3 4 5 6 
#
# 1 0.013997 -0.008187 -0.002750 0.000000 0.000000 0.000000
# 2 -0.008187 0.013998 -0.002755 0.000000 0.000000 0.000000
# 3 -0.002750 -0.002755 0.063635 0.000000 0.000000 0.000000
# 4 0.000000 0.000000 0.000000 -0.000203 0.000000 0.000000
# 5 0.000000 0.000000 0.000000 0.000000 -0.000151 0.000000
# 6 0.000000 0.000000 0.000000 0.000000 0.000000 0.034507
#
#
# Mechanical properties :
#
#
# Convention : Reuss Voigt Hill
#
# Bulk Modulus (GPa) = 15.56497 45.14590 30.35543
# Shear Modulus (GPa) = 28.63967 -2291.55785 -1131.45909
#
# Velocity S-wave (km/s) = 3.91759 -35.04294 -24.62377
# Velocity P-wave (km/s) = 5.36697 40.16404 28.14557
#
# Compressibility (1/GPa) = 0.06424683
#
# Stress axis : x y z
#
# Youngs Moduli (GPa) = 71.44285 71.43920 15.71452
#
# Poissons Ratio (x) = 0.58484 0.04321
# Poissons Ratio (y) = 0.58487 0.04330
# Poissons Ratio (z) = 0.19646 0.19684
#
# Static dielectric constant tensor:
#      x y z
#    x 1.658190 0.000000 0.000000 
#    y 0.000000 1.658190 0.000000 
#    z 0.000000 0.000000 1.657160 
# 
# From -- ./inp_files/2334.got.cif
#   From: 2010.05.17/outbox.cif.g08.bks.cpg/sg139_2_cif.got.tgz:2334.got - 2010.05.20 13:14:44.
