data_PCOD9571500
_publ_section_title
;
Structure prediction by ZEFSAII (Michael W. Deem and Ramdas Pophale) SiO2 
 PCOD9571500
Probable space group: I 4/M M M
;
_chemical_formula_sum "Si O2"
_cell_formula_units_Z 136
_cell_length_a 26.292695
_cell_length_b 26.292695
_cell_length_c 10.007678
_cell_angle_alpha 90.000000
_cell_angle_beta 90.000000
_cell_angle_gamma 90.000000
_cell_volume 6918.365950
_symmetry_space_group_name_H-M "I 4/M M M"
_symmetry_group_IT_number 139
_symmetry_cell_setting 'tetragonal'
loop_
_space_group_symop_operation_xyz
x,y,z
-y,x,z
-x,-y,z
y,-x,z
x,-y,-z
-x,y,-z
y,x,-z
-y,-x,-z
-x,-y,-z
y,-x,-z
x,y,-z
-y,x,-z
-x,y,z
x,-y,z
-y,-x,z
y,x,z
1/2+x,1/2+y,1/2+z
1/2-y,1/2+x,1/2+z
1/2-x,1/2-y,1/2+z
1/2+y,1/2-x,1/2+z
1/2+x,1/2-y,1/2-z
1/2-x,1/2+y,1/2-z
1/2+y,1/2+x,1/2-z
1/2-y,1/2-x,1/2-z
1/2-x,1/2-y,1/2-z
1/2+y,1/2-x,1/2-z
1/2+x,1/2+y,1/2-z
1/2-y,1/2+x,1/2-z
1/2-x,1/2+y,1/2+z
1/2+x,1/2-y,1/2+z
1/2-y,1/2-x,1/2+z
1/2+y,1/2+x,1/2+z
loop_
_atom_site_type_symbol
_atom_site_label
_atom_site_fract_x
_atom_site_fract_y
_atom_site_fract_z
Si Si1 0.307122 0.057751 0.500000
Si Si2 0.557736 0.942265 0.750000
Si Si3 0.633348 0.633348 0.765240
Si Si4 0.098582 0.257351 0.000000
Si Si5 0.059702 0.940299 0.348258
Si Si6 0.180816 0.819185 0.000000
Si Si7 0.220058 0.058728 0.284035
Si Si8 0.591964 0.121314 0.500000
O O1 0.270512 0.063184 0.372642
O O2 0.351333 0.098475 0.500000
O O3 0.327994 0.000000 0.500000
O O4 0.500000 0.937013 0.802435
O O5 0.565996 0.901975 0.632029
O O6 0.590800 0.590800 0.740947
O O7 0.656402 0.656402 0.631474
O O8 0.678754 0.600590 0.830684
O O9 0.157966 0.238094 0.000000
O O10 0.071682 0.234569 0.868424
O O11 0.093152 0.317949 0.000000
O O12 0.075049 0.924952 0.500000
O O13 0.000000 0.931320 0.336704
O O14 0.201893 0.000000 0.296921
#
# Coordination Sequence:
#
# PCOD9571500 Si02
#       8
#    16  16  16  16  16   8  32  16
#     4  10  22  38  55  84 118 144 181 235 284 328
#     4  11  24  40  60  91 126 156 184 219 272 338
#     4  10  19  34  56  76 106 147 190 228 285 338
#     4  10  21  38  60  82 106 148 195 232 287 342
#     4   9  18  30  46  73 107 140 180 228 276 336
#     4   8  20  40  54  77 108 138 184 248 284 331
#     4  10  21  36  56  82 114 148 188 238 285 337
#     4  12  23  39  65  88 114 154 192 232 277 333
#
# _framework density 19.657821999999999
#
# number of rings (size 3 to 8) (size 9 to 14) (size 15 to 20)
#    0.000    1.882    0.000    4.235    1.647    4.706 
#    0.000    2.941    0.000    5.647    0.000    0.000 
#    0.000    0.000    0.000    0.000    0.000    0.000 
#
# Total GULP energy -379381.592930 kJ/mol
# GULP energy per Si atom -5579.141073 kJ/mol
# Density = 1.961308 g / cm^3
# Si number density = 19.657822 Si / 1000 Ang^3
#
#
#
# Elastic Constant Matrix: (Units=GPa)
#
#
# Indices 1 2 3 4 5 6 
#
# 1 82.0631 59.5513 6.0901 0.0000 0.0000 0.0000
# 2 59.5513 82.0648 6.0915 0.0000 0.0000 0.0000
# 3 6.0901 6.0915 60.5559 0.0000 0.0000 0.0000
# 4 0.0000 0.0000 0.0000 296.4932 0.0000 0.0000
# 5 0.0000 0.0000 0.0000 0.0000 296.7932 0.0000
# 6 0.0000 0.0000 0.0000 0.0000 0.0000 32.9308
#
#
#
# Elastic Compliance Matrix: (Units=1/GPa)
#
#
# Indices 1 2 3 4 5 6 
#
# 1 0.025771 -0.018648 -0.000716 0.000000 0.000000 0.000000
# 2 -0.018648 0.025771 -0.000717 0.000000 0.000000 0.000000
# 3 -0.000716 -0.000717 0.016658 0.000000 0.000000 0.000000
# 4 0.000000 0.000000 0.000000 0.003373 0.000000 0.000000
# 5 0.000000 0.000000 0.000000 0.000000 0.003369 0.000000
# 6 0.000000 0.000000 0.000000 0.000000 0.000000 0.030367
#
#
# Mechanical properties :
#
#
# Convention : Reuss Voigt Hill
#
# Bulk Modulus (GPa) = 35.66581 40.90549 38.28565
# Shear Modulus (GPa) = 32.29614 135.44016 83.86815
#
# Velocity S-wave (km/s) = 4.05769 8.30954 6.53886
# Velocity P-wave (km/s) = 6.33528 10.62631 8.74798
#
# Compressibility (1/GPa) = 0.02803806
#
# Stress axis : x y z
#
# Youngs Moduli (GPa) = 38.80262 38.80330 60.03199
#
# Poissons Ratio (x) = 0.72361 0.04298
# Poissons Ratio (y) = 0.72360 0.04304
# Poissons Ratio (z) = 0.02778 0.02782
#
# Static dielectric constant tensor:
#      x y z
#    x 1.698390 0.000000 0.000000 
#    y 0.000000 1.698390 0.000000 
#    z 0.000000 0.000000 1.667360 
# 
# From -- ./inp_files/3639.got.cif
#   From: 2010.05.17/outbox.cif.g08.bks.cpg/sg139_2_cif.got.tgz:3639.got - 2010.05.20 13:14:44.
