data_PCOD9571269
_publ_section_title
;
Structure prediction by ZEFSAII (Michael W. Deem and Ramdas Pophale) SiO2 
 PCOD9571269
Probable space group: I 4/M M M
;
_chemical_formula_sum "Si O2"
_cell_formula_units_Z 144
_cell_length_a 22.817453
_cell_length_b 22.817453
_cell_length_c 16.857217
_cell_angle_alpha 90.000000
_cell_angle_beta 90.000000
_cell_angle_gamma 90.000000
_cell_volume 8776.476751
_symmetry_space_group_name_H-M "I 4/M M M"
_symmetry_group_IT_number 139
_symmetry_cell_setting 'tetragonal'
loop_
_space_group_symop_operation_xyz
x,y,z
-y,x,z
-x,-y,z
y,-x,z
x,-y,-z
-x,y,-z
y,x,-z
-y,-x,-z
-x,-y,-z
y,-x,-z
x,y,-z
-y,x,-z
-x,y,z
x,-y,z
-y,-x,z
y,x,z
1/2+x,1/2+y,1/2+z
1/2-y,1/2+x,1/2+z
1/2-x,1/2-y,1/2+z
1/2+y,1/2-x,1/2+z
1/2+x,1/2-y,1/2-z
1/2-x,1/2+y,1/2-z
1/2+y,1/2+x,1/2-z
1/2-y,1/2-x,1/2-z
1/2-x,1/2-y,1/2-z
1/2+y,1/2-x,1/2-z
1/2+x,1/2+y,1/2-z
1/2-y,1/2+x,1/2-z
1/2-x,1/2+y,1/2+z
1/2+x,1/2-y,1/2+z
1/2-y,1/2-x,1/2+z
1/2+y,1/2+x,1/2+z
loop_
_atom_site_type_symbol
_atom_site_label
_atom_site_fract_x
_atom_site_fract_y
_atom_site_fract_z
Si Si1 0.431433 0.333505 0.000000
Si Si2 0.842608 0.747319 0.791067
Si Si3 0.376664 0.065275 0.595394
Si Si4 0.744331 0.432198 0.844019
Si Si5 0.314065 0.066485 0.904683
O O1 0.421220 0.293345 0.077187
O O2 0.500000 0.350679 0.000000
O O3 0.388429 0.388429 0.000000
O O4 0.797040 0.797040 0.817539
O O5 0.803991 0.696010 0.750000
O O6 0.886495 0.771063 0.723863
O O7 0.883629 0.722548 0.860448
O O8 0.367720 0.066648 0.500000
O O9 0.313243 0.074263 0.634977
O O10 0.419963 0.117985 0.615333
O O11 0.397971 0.000000 0.616086
O O12 0.735131 0.500000 0.820392
O O13 0.298920 0.000000 0.880467
O O14 0.307643 0.070677 0.000000
#
# Coordination Sequence:
#
# PCOD9571269 Si02
#       5
#    16  32  32  32  32
#     4  10  20  33  52  78 105 139 179 215 262 318
#     4  11  22  35  51  75 104 135 175 218 264 313
#     4   9  16  29  50  74 102 135 171 208 246 292
#     4  10  18  32  52  74 103 137 173 214 256 306
#     4  10  21  37  55  75 103 139 178 220 267 310
#
# _framework density 16.407495000000001
#
# number of rings (size 3 to 8) (size 9 to 14) (size 15 to 20)
#    0.000    2.000    3.333    1.333    0.000    1.000 
#    0.000    2.222    0.000    0.000    0.000    0.000 
#    0.000    4.000    0.000    9.778    0.000    0.000 
#
# Total GULP energy -401638.025466 kJ/mol
# GULP energy per Si atom -5578.305909 kJ/mol
# Density = 1.637015 g / cm^3
# Si number density = 16.407495 Si / 1000 Ang^3
#
#
#
# Elastic Constant Matrix: (Units=GPa)
#
#
# Indices 1 2 3 4 5 6 
#
# 1 92.6403 64.8000 41.5875 0.0000 0.0000 0.0000
# 2 64.8000 92.6393 41.5867 0.0000 0.0000 0.0000
# 3 41.5875 41.5867 42.4682 0.0000 0.0000 0.0000
# 4 0.0000 0.0000 0.0000 23.5020 0.0000 0.0000
# 5 0.0000 0.0000 0.0000 0.0000 23.5022 0.0000
# 6 0.0000 0.0000 0.0000 0.0000 0.0000 30.3720
#
#
#
# Elastic Compliance Matrix: (Units=1/GPa)
#
#
# Indices 1 2 3 4 5 6 
#
# 1 0.024540 -0.011380 -0.012887 0.000000 0.000000 0.000000
# 2 -0.011380 0.024539 -0.012886 0.000000 0.000000 0.000000
# 3 -0.012887 -0.012886 0.048785 0.000000 0.000000 0.000000
# 4 0.000000 0.000000 0.000000 0.042550 0.000000 0.000000
# 5 0.000000 0.000000 0.000000 0.000000 0.042549 0.000000
# 6 0.000000 0.000000 0.000000 0.000000 0.000000 0.032925
#
#
# Mechanical properties :
#
#
# Convention : Reuss Voigt Hill
#
# Bulk Modulus (GPa) = 42.44782 58.18846 50.31814
# Shear Modulus (GPa) = 16.77590 20.79348 18.78469
#
# Velocity S-wave (km/s) = 3.20105 3.56380 3.38729
# Velocity P-wave (km/s) = 6.29202 7.24402 6.78473
#
# Compressibility (1/GPa) = 0.02355834
#
# Stress axis : x y z
#
# Youngs Moduli (GPa) = 40.75024 40.75072 20.49812
#
# Poissons Ratio (x) = 0.46375 0.26416
# Poissons Ratio (y) = 0.46375 0.26414
# Poissons Ratio (z) = 0.52514 0.52511
#
# Static dielectric constant tensor:
#      x y z
#    x 1.541330 0.000000 0.000000 
#    y 0.000000 1.541330 0.000000 
#    z 0.000000 0.000000 1.553030 
# 
# From -- ./inp_files/8144.got.cif
#   From: 2010.05.17/outbox.cif.g08.bks.cpg/sg139_5_cif.got.tgz:8144.got - 2010.05.20 13:14:44.
