data_PCOD9571567
_publ_section_title
;
Structure prediction by ZEFSAII (Michael W. Deem and Ramdas Pophale) SiO2 
 PCOD9571567
Probable space group: I 4/M M M
;
_chemical_formula_sum "Si O2"
_cell_formula_units_Z 160
_cell_length_a 27.732313
_cell_length_b 27.732313
_cell_length_c 9.965850
_cell_angle_alpha 90.000000
_cell_angle_beta 90.000000
_cell_angle_gamma 90.000000
_cell_volume 7664.547721
_symmetry_space_group_name_H-M "I 4/M M M"
_symmetry_group_IT_number 139
_symmetry_cell_setting 'tetragonal'
loop_
_space_group_symop_operation_xyz
x,y,z
-y,x,z
-x,-y,z
y,-x,z
x,-y,-z
-x,y,-z
y,x,-z
-y,-x,-z
-x,-y,-z
y,-x,-z
x,y,-z
-y,x,-z
-x,y,z
x,-y,z
-y,-x,z
y,x,z
1/2+x,1/2+y,1/2+z
1/2-y,1/2+x,1/2+z
1/2-x,1/2-y,1/2+z
1/2+y,1/2-x,1/2+z
1/2+x,1/2-y,1/2-z
1/2-x,1/2+y,1/2-z
1/2+y,1/2+x,1/2-z
1/2-y,1/2-x,1/2-z
1/2-x,1/2-y,1/2-z
1/2+y,1/2-x,1/2-z
1/2+x,1/2+y,1/2-z
1/2-y,1/2+x,1/2-z
1/2-x,1/2+y,1/2+z
1/2+x,1/2-y,1/2+z
1/2-y,1/2-x,1/2+z
1/2+y,1/2+x,1/2+z
loop_
_atom_site_type_symbol
_atom_site_label
_atom_site_fract_x
_atom_site_fract_y
_atom_site_fract_z
Si Si1 0.000000 0.728181 0.656598
Si Si2 0.324158 0.500000 0.341023
Si Si3 0.898390 0.736610 0.297303
Si Si4 0.444462 0.944462 0.250000
Si Si5 0.376237 0.780025 0.500000
Si Si6 0.126710 0.556257 0.500000
Si Si7 0.077671 0.844440 0.645600
Si Si8 0.229722 0.312503 0.000000
O O1 0.000000 0.771702 0.766061
O O2 0.946967 0.704476 0.678173
O O3 0.000000 0.743369 0.500000
O O4 0.319872 0.500000 0.500000
O O5 0.351543 0.454964 0.275239
O O6 0.892023 0.743157 0.139283
O O7 0.911007 0.788231 0.357848
O O8 0.848848 0.723874 0.372405
O O9 0.500000 0.939403 0.201536
O O10 0.437552 0.906953 0.369929
O O11 0.403651 0.831681 0.500000
O O12 0.318573 0.781355 0.500000
O O13 0.145102 0.500000 0.500000
O O14 0.055738 0.857570 0.500000
O O15 0.126396 0.873605 0.657963
O O16 0.277846 0.277846 0.000000
#
# Coordination Sequence:
#
# PCOD9571567 Si02
#       8
#    16  16  32  16  16  16  32  16
#     4  10  20  40  68  90 119 159 213 269 330 386
#     4  10  20  32  54  93 129 156 188 251 322 372
#     4  11  23  42  67  94 124 166 215 273 326 389
#     4   9  18  38  70 100 129 168 216 266 323 396
#     4  12  30  41  61  95 133 171 211 273 334 392
#     4  10  23  42  64  96 135 172 214 272 333 398
#     4  10  20  38  64  89 119 161 211 258 303 371
#     4  12  26  49  70  89 128 182 231 274 321 392
#
# _framework density 20.875335
#
# number of rings (size 3 to 8) (size 9 to 14) (size 15 to 20)
#    0.000    1.500    2.000    3.600    9.800    4.000 
#    0.000    0.000    2.200    0.300    0.000    2.100 
#    0.000    0.000    0.000    0.000    0.000    0.000 
#
# Total GULP energy -445920.090639 kJ/mol
# GULP energy per Si atom -5574.001133 kJ/mol
# Density = 2.082782 g / cm^3
# Si number density = 20.875335 Si / 1000 Ang^3
#
#
#
# Elastic Constant Matrix: (Units=GPa)
#
#
# Indices 1 2 3 4 5 6 
#
# 1 54.3963 14.4870 23.8477 0.0000 0.0000 0.0000
# 2 14.4870 54.3963 23.8477 0.0000 0.0000 0.0000
# 3 23.8477 23.8477 187.7233 0.0000 0.0000 0.0000
# 4 0.0000 0.0000 0.0000 22.1212 0.0000 0.0000
# 5 0.0000 0.0000 0.0000 0.0000 22.1212 0.0000
# 6 0.0000 0.0000 0.0000 0.0000 0.0000 23.4569
#
#
#
# Elastic Compliance Matrix: (Units=1/GPa)
#
#
# Indices 1 2 3 4 5 6 
#
# 1 0.020487 -0.004570 -0.002022 0.000000 0.000000 0.000000
# 2 -0.004570 0.020487 -0.002022 0.000000 0.000000 0.000000
# 3 -0.002022 -0.002022 0.005841 0.000000 0.000000 0.000000
# 4 0.000000 0.000000 0.000000 0.045206 0.000000 0.000000
# 5 0.000000 0.000000 0.000000 0.000000 0.045206 0.000000
# 6 0.000000 0.000000 0.000000 0.000000 0.000000 0.042631
#
#
# Mechanical properties :
#
#
# Convention : Reuss Voigt Hill
#
# Bulk Modulus (GPa) = 33.79835 46.76449 40.28142
# Shear Modulus (GPa) = 24.16068 29.16207 26.66137
#
# Velocity S-wave (km/s) = 3.40572 3.74165 3.57763
# Velocity P-wave (km/s) = 5.62947 6.41226 6.03357
#
# Compressibility (1/GPa) = 0.02958724
#
# Stress axis : x y z
#
# Youngs Moduli (GPa) = 48.81111 48.81111 171.21097
#
# Poissons Ratio (x) = 0.22305 0.34620
# Poissons Ratio (y) = 0.22305 0.34620
# Poissons Ratio (z) = 0.09870 0.09870
#
# Static dielectric constant tensor:
#      x y z
#    x 1.792330 0.000000 0.000000 
#    y 0.000000 1.792330 0.000000 
#    z 0.000000 0.000000 1.757950 
# 
# From -- ./inp_files/2374.got.cif
#   From: 2010.05.17/outbox.cif.g08.bks.cpg/sg139_2_cif.got.tgz:2374.got - 2010.05.20 13:14:44.
