data_PCOD9571167
_publ_section_title
;
Structure prediction by ZEFSAII (Michael W. Deem and Ramdas Pophale) SiO2 
 PCOD9571167
Probable space group: I 4/M M M
;
_chemical_formula_sum "Si O2"
_cell_formula_units_Z 224
_cell_length_a 25.123457
_cell_length_b 25.123457
_cell_length_c 23.264756
_cell_angle_alpha 90.000000
_cell_angle_beta 90.000000
_cell_angle_gamma 90.000000
_cell_volume 14684.436942
_symmetry_space_group_name_H-M "I 4/M M M"
_symmetry_group_IT_number 139
_symmetry_cell_setting 'tetragonal'
loop_
_space_group_symop_operation_xyz
x,y,z
-y,x,z
-x,-y,z
y,-x,z
x,-y,-z
-x,y,-z
y,x,-z
-y,-x,-z
-x,-y,-z
y,-x,-z
x,y,-z
-y,x,-z
-x,y,z
x,-y,z
-y,-x,z
y,x,z
1/2+x,1/2+y,1/2+z
1/2-y,1/2+x,1/2+z
1/2-x,1/2-y,1/2+z
1/2+y,1/2-x,1/2+z
1/2+x,1/2-y,1/2-z
1/2-x,1/2+y,1/2-z
1/2+y,1/2+x,1/2-z
1/2-y,1/2-x,1/2-z
1/2-x,1/2-y,1/2-z
1/2+y,1/2-x,1/2-z
1/2+x,1/2+y,1/2-z
1/2-y,1/2+x,1/2-z
1/2-x,1/2+y,1/2+z
1/2+x,1/2-y,1/2+z
1/2-y,1/2-x,1/2+z
1/2+y,1/2+x,1/2+z
loop_
_atom_site_type_symbol
_atom_site_label
_atom_site_fract_x
_atom_site_fract_y
_atom_site_fract_z
Si Si1 0.803854 0.440167 0.931687
Si Si2 0.147027 0.765775 0.276518
Si Si3 0.385236 0.614765 0.065778
Si Si4 0.805718 0.058177 0.362019
Si Si5 0.363433 0.273739 0.642272
Si Si6 0.793934 0.206067 0.434351
Si Si7 0.437162 0.348917 0.568045
Si Si8 0.164587 0.312421 0.628133
O O1 0.825115 0.500000 0.920707
O O2 0.744021 0.439500 0.906098
O O3 0.831237 0.390600 0.899990
O O4 0.802394 0.431653 0.000000
O O5 0.202853 0.797148 0.279929
O O6 0.104066 0.796626 0.315589
O O7 0.128587 0.768612 0.210837
O O8 0.154476 0.708521 0.306828
O O9 0.432334 0.641535 0.101228
O O10 0.339252 0.660749 0.066219
O O11 0.397739 0.602262 0.000000
O O12 0.805339 0.000000 0.334650
O O13 0.310383 0.310383 0.633894
O O14 0.409657 0.304081 0.607797
O O15 0.352038 0.213760 0.622348
O O16 0.781121 0.218880 0.500000
O O17 0.816643 0.258347 0.404028
O O18 0.431230 0.335552 0.500000
O O19 0.500000 0.355141 0.579818
O O20 0.403038 0.403038 0.577556
#
# Coordination Sequence:
#
# PCOD9571167 Si02
#       8
#    32  32  16  32  32  16  32  32
#     4   9  17  27  39  58  87 122 159 193 222 259
#     4  10  17  30  44  60  87 117 152 184 227 286
#     4  11  18  28  41  58  85 116 153 199 238 279
#     4  10  18  28  42  60  80 111 153 199 241 278
#     4  10  20  30  46  71  95 122 149 188 239 297
#     4  11  18  24  38  62  91 122 151 184 225 280
#     4   9  19  36  54  73  97 122 153 195 243 297
#     4  11  17  28  41  64  94 127 154 191 232 282
#
# _framework density 15.254244999999999
#
# number of rings (size 3 to 8) (size 9 to 14) (size 15 to 20)
#    0.000    2.000    5.000    1.286    0.000    3.857 
#    0.000    0.714    0.000    0.214    0.000    0.500 
#    0.000    0.571    0.000    3.143    0.000   12.429 
#
# Total GULP energy -623973.724170 kJ/mol
# GULP energy per Si atom -5571.193966 kJ/mol
# Density = 1.521953 g / cm^3
# Si number density = 15.254245 Si / 1000 Ang^3
#
#
#
# Elastic Constant Matrix: (Units=GPa)
#
#
# Indices 1 2 3 4 5 6 
#
# 1 76.3793 35.6389 40.3106 0.0000 0.0000 0.0000
# 2 35.6389 76.3793 40.3106 0.0000 0.0000 0.0000
# 3 40.3106 40.3106 79.8588 0.0000 0.0000 0.0000
# 4 0.0000 0.0000 0.0000 15.5507 0.0000 0.0000
# 5 0.0000 0.0000 0.0000 0.0000 15.5507 0.0000
# 6 0.0000 0.0000 0.0000 0.0000 0.0000 13.6046
#
#
#
# Elastic Compliance Matrix: (Units=1/GPa)
#
#
# Indices 1 2 3 4 5 6 
#
# 1 0.019283 -0.005262 -0.007077 0.000000 0.000000 0.000000
# 2 -0.005262 0.019283 -0.007077 0.000000 0.000000 0.000000
# 3 -0.007077 -0.007077 0.019667 0.000000 0.000000 0.000000
# 4 0.000000 0.000000 0.000000 0.064306 0.000000 0.000000
# 5 0.000000 0.000000 0.000000 0.000000 0.064306 0.000000
# 6 0.000000 0.000000 0.000000 0.000000 0.000000 0.073504
#
#
# Mechanical properties :
#
#
# Convention : Reuss Voigt Hill
#
# Bulk Modulus (GPa) = 51.54833 51.68196 51.61514
# Shear Modulus (GPa) = 16.35858 16.69836 16.52847
#
# Velocity S-wave (km/s) = 3.27830 3.31217 3.29528
# Velocity P-wave (km/s) = 6.94232 6.97002 6.95618
#
# Compressibility (1/GPa) = 0.01939927
#
# Stress axis : x y z
#
# Youngs Moduli (GPa) = 51.85851 51.85861 50.84664
#
# Poissons Ratio (x) = 0.27290 0.35986
# Poissons Ratio (y) = 0.27290 0.35986
# Poissons Ratio (z) = 0.36702 0.36702
#
# Static dielectric constant tensor:
#      x y z
#    x 1.507350 0.000000 0.000000 
#    y 0.000000 1.507350 0.000000 
#    z 0.000000 0.000000 1.527650 
# 
# From -- ./inp_files/12292.got.cif
#   From: 2010.05.17/outbox.cif.g08.bks.cpg/sg139_7_cif.got.tgz:12292.got - 2010.05.20 13:14:44.
