data_PCOD9571262
_publ_section_title
;
Structure prediction by ZEFSAII (Michael W. Deem and Ramdas Pophale) SiO2 
 PCOD9571262
Probable space group: I 4/M M M
;
_chemical_formula_sum "Si O2"
_cell_formula_units_Z 144
_cell_length_a 19.705981
_cell_length_b 19.705981
_cell_length_c 22.883973
_cell_angle_alpha 90.000000
_cell_angle_beta 90.000000
_cell_angle_gamma 90.000000
_cell_volume 8886.434540
_symmetry_space_group_name_H-M "I 4/M M M"
_symmetry_group_IT_number 139
_symmetry_cell_setting 'tetragonal'
loop_
_space_group_symop_operation_xyz
x,y,z
-y,x,z
-x,-y,z
y,-x,z
x,-y,-z
-x,y,-z
y,x,-z
-y,-x,-z
-x,-y,-z
y,-x,-z
x,y,-z
-y,x,-z
-x,y,z
x,-y,z
-y,-x,z
y,x,z
1/2+x,1/2+y,1/2+z
1/2-y,1/2+x,1/2+z
1/2-x,1/2-y,1/2+z
1/2+y,1/2-x,1/2+z
1/2+x,1/2-y,1/2-z
1/2-x,1/2+y,1/2-z
1/2+y,1/2+x,1/2-z
1/2-y,1/2-x,1/2-z
1/2-x,1/2-y,1/2-z
1/2+y,1/2-x,1/2-z
1/2+x,1/2+y,1/2-z
1/2-y,1/2+x,1/2-z
1/2-x,1/2+y,1/2+z
1/2+x,1/2-y,1/2+z
1/2-y,1/2-x,1/2+z
1/2+y,1/2+x,1/2+z
loop_
_atom_site_type_symbol
_atom_site_label
_atom_site_fract_x
_atom_site_fract_y
_atom_site_fract_z
Si Si1 0.080424 0.313080 0.225993
Si Si2 0.234220 0.348357 0.392619
Si Si3 0.919837 0.808144 0.000000
Si Si4 0.373367 0.742548 0.064455
Si Si5 0.424035 0.309544 0.816511
O O1 0.123413 0.376587 0.250000
O O2 0.110311 0.288756 0.164000
O O3 0.090212 0.250928 0.271232
O O4 0.000000 0.327197 0.222085
O O5 0.290107 0.290107 0.377300
O O6 0.267454 0.394687 0.442732
O O7 0.169543 0.309333 0.419511
O O8 0.878826 0.878826 0.000000
O O9 0.000000 0.816789 0.000000
O O10 0.317224 0.682777 0.061662
O O11 0.419896 0.722286 0.118594
O O12 0.404729 0.748404 0.000000
O O13 0.500000 0.335680 0.805780
O O14 0.367909 0.367909 0.811234
#
# Coordination Sequence:
#
# PCOD9571262 Si02
#       5
#    32  32  16  32  32
#     4  11  22  35  53  77 104 137 176 218 265 315
#     4  10  18  31  53  78 103 132 170 220 265 302
#     4  10  20  33  50  76 109 143 178 216 262 314
#     4   9  16  29  51  77 101 127 165 213 260 300
#     4  10  21  35  53  78 106 138 174 212 259 312
#
# _framework density 16.204474000000001
#
# number of rings (size 3 to 8) (size 9 to 14) (size 15 to 20)
#    0.000    2.000    3.333    1.333    0.000    1.889 
#    0.000    0.000    0.000    0.000    0.000    6.222 
#    0.000    7.111    0.000    0.000    0.000    0.000 
#
# Total GULP energy -401480.624100 kJ/mol
# GULP energy per Si atom -5576.119779 kJ/mol
# Density = 1.616759 g / cm^3
# Si number density = 16.204474 Si / 1000 Ang^3
#
#
#
# Elastic Constant Matrix: (Units=GPa)
#
#
# Indices 1 2 3 4 5 6 
#
# 1 85.2579 56.0513 37.1816 0.0000 0.0000 0.0000
# 2 56.0513 85.2579 37.1816 0.0000 0.0000 0.0000
# 3 37.1816 37.1816 117.0019 0.0000 0.0000 0.0000
# 4 0.0000 0.0000 0.0000 15.0518 0.0000 0.0000
# 5 0.0000 0.0000 0.0000 0.0000 15.0518 0.0000
# 6 0.0000 0.0000 0.0000 0.0000 0.0000 15.0308
#
#
#
# Elastic Compliance Matrix: (Units=1/GPa)
#
#
# Indices 1 2 3 4 5 6 
#
# 1 0.021368 -0.012871 -0.002700 0.000000 0.000000 0.000000
# 2 -0.012871 0.021368 -0.002700 0.000000 0.000000 0.000000
# 3 -0.002700 -0.002700 0.010263 0.000000 0.000000 0.000000
# 4 0.000000 0.000000 0.000000 0.066437 0.000000 0.000000
# 5 0.000000 0.000000 0.000000 0.000000 0.066437 0.000000
# 6 0.000000 0.000000 0.000000 0.000000 0.000000 0.066530
#
#
# Mechanical properties :
#
#
# Convention : Reuss Voigt Hill
#
# Bulk Modulus (GPa) = 60.76483 60.92739 60.84611
# Shear Modulus (GPa) = 16.98179 19.50043 18.24111
#
# Velocity S-wave (km/s) = 3.24075 3.47277 3.35876
# Velocity P-wave (km/s) = 7.18216 7.33218 7.25756
#
# Compressibility (1/GPa) = 0.01645689
#
# Stress axis : x y z
#
# Youngs Moduli (GPa) = 46.79823 46.79823 97.43536
#
# Poissons Ratio (x) = 0.60232 0.26312
# Poissons Ratio (y) = 0.60232 0.26312
# Poissons Ratio (z) = 0.12638 0.12638
#
# Static dielectric constant tensor:
#      x y z
#    x 1.521680 0.000000 0.000000 
#    y 0.000000 1.521680 0.000000 
#    z 0.000000 0.000000 1.552220 
# 
# From -- ./inp_files/8158.got.cif
#   From: 2010.05.17/outbox.cif.g08.bks.cpg/sg139_5_cif.got.tgz:8158.got - 2010.05.20 13:14:44.
