data_PCOD9571740
_publ_section_title
;
Structure prediction by ZEFSAII (Michael W. Deem and Ramdas Pophale) SiO2 
 PCOD9571740
Probable space group: I 4/M M M
;
_chemical_formula_sum "Si O2"
_cell_formula_units_Z 152
_cell_length_a 17.785452
_cell_length_b 17.785452
_cell_length_c 26.442524
_cell_angle_alpha 90.000000
_cell_angle_beta 90.000000
_cell_angle_gamma 90.000000
_cell_volume 8364.360085
_symmetry_space_group_name_H-M "I 4/M M M"
_symmetry_group_IT_number 139
_symmetry_cell_setting 'tetragonal'
loop_
_space_group_symop_operation_xyz
x,y,z
-y,x,z
-x,-y,z
y,-x,z
x,-y,-z
-x,y,-z
y,x,-z
-y,-x,-z
-x,-y,-z
y,-x,-z
x,y,-z
-y,x,-z
-x,y,z
x,-y,z
-y,-x,z
y,x,z
1/2+x,1/2+y,1/2+z
1/2-y,1/2+x,1/2+z
1/2-x,1/2-y,1/2+z
1/2+y,1/2-x,1/2+z
1/2+x,1/2-y,1/2-z
1/2-x,1/2+y,1/2-z
1/2+y,1/2+x,1/2-z
1/2-y,1/2-x,1/2-z
1/2-x,1/2-y,1/2-z
1/2+y,1/2-x,1/2-z
1/2+x,1/2+y,1/2-z
1/2-y,1/2+x,1/2-z
1/2-x,1/2+y,1/2+z
1/2+x,1/2-y,1/2+z
1/2-y,1/2-x,1/2+z
1/2+y,1/2+x,1/2+z
loop_
_atom_site_type_symbol
_atom_site_label
_atom_site_fract_x
_atom_site_fract_y
_atom_site_fract_z
Si Si1 0.789956 0.500000 0.240745
Si Si2 0.120960 0.685933 0.110598
Si Si3 0.000000 0.822685 0.000000
Si Si4 0.500000 0.379105 0.283635
Si Si5 0.819547 0.000000 0.108979
Si Si6 0.589841 0.000000 0.833391
Si Si7 0.159021 0.271204 0.300882
Si Si8 0.849197 0.721750 0.000000
O O1 0.708114 0.500000 0.267632
O O2 0.857714 0.500000 0.282235
O O3 0.790024 0.572581 0.205805
O O4 0.070970 0.762220 0.112458
O O5 0.187889 0.691793 0.150304
O O6 0.070015 0.618533 0.132795
O O7 0.147551 0.676832 0.052819
O O8 0.074046 0.770552 0.000000
O O9 0.000000 0.860132 0.945272
O O10 0.573135 0.426866 0.267418
O O11 0.500000 0.374203 0.344225
O O12 0.500000 0.000000 0.823623
O O13 0.315204 0.315204 0.197398
O O14 0.194558 0.305443 0.250000
O O15 0.779132 0.779132 0.000000
#
# Coordination Sequence:
#
# PCOD9571740 Si02
#       8
#    16  32   8  16  16  16  32  16
#     4  12  23  41  55  81 112 153 189 241 294 354
#     4  10  20  38  56  86 112 148 195 234 289 343
#     4   8  18  30  48  77 105 144 190 220 274 316
#     4  11  22  36  56  80 110 149 191 237 294 353
#     4   9  17  35  52  75 113 148 184 231 273 329
#     4  11  23  40  59  84 116 161 191 239 286 352
#     4  11  22  35  56  83 111 143 188 242 293 344
#     4  10  20  36  62  82 111 154 195 240 285 344
#
# _framework density 18.172339999999998
#
# number of rings (size 3 to 8) (size 9 to 14) (size 15 to 20)
#    0.000    1.579    4.211    1.895    1.474    5.895 
#    3.789    1.053    0.000    0.789    0.000    0.000 
#    0.000    0.000    0.000    0.000    0.000   15.368 
#
# Total GULP energy -423870.399813 kJ/mol
# GULP energy per Si atom -5577.242103 kJ/mol
# Density = 1.813098 g / cm^3
# Si number density = 18.172340 Si / 1000 Ang^3
#
#
#
# Elastic Constant Matrix: (Units=GPa)
#
#
# Indices 1 2 3 4 5 6 
#
# 1 24.0480 111.9443 41.1996 0.0000 0.0000 0.0000
# 2 111.9443 24.0733 41.1955 0.0000 0.0000 0.0000
# 3 41.1996 41.1955 126.3039 0.0000 0.0000 0.0000
# 4 0.0000 0.0000 0.0000 23.3392 0.0000 0.0000
# 5 0.0000 0.0000 0.0000 0.0000 23.3394 0.0000
# 6 0.0000 0.0000 0.0000 0.0000 0.0000 26.4651
#
#
#
# Elastic Compliance Matrix: (Units=1/GPa)
#
#
# Indices 1 2 3 4 5 6 
#
# 1 -0.001109 0.010271 -0.002988 0.000000 0.000000 0.000000
# 2 0.010271 -0.001106 -0.002990 0.000000 0.000000 0.000000
# 3 -0.002988 -0.002990 0.009867 0.000000 0.000000 0.000000
# 4 0.000000 0.000000 0.000000 0.042846 0.000000 0.000000
# 5 0.000000 0.000000 0.000000 0.000000 0.042846 0.000000
# 6 0.000000 0.000000 0.000000 0.000000 0.000000 0.037786
#
#
# Mechanical properties :
#
#
# Convention : Reuss Voigt Hill
#
# Bulk Modulus (GPa) = 61.58218 62.56712 62.07465
# Shear Modulus (GPa) = 39.07580 13.30112 26.18846
#
# Velocity S-wave (km/s) = 4.64215 2.70838 3.80032
# Velocity P-wave (km/s) = 7.91797 6.65470 7.31366
#
# Compressibility (1/GPa) = 0.01623846
#
# Stress axis : x y z
#
# Youngs Moduli (GPa) = -901.64007 -904.02172 101.34548
#
# Poissons Ratio (x) = 9.28525 0.30284
# Poissons Ratio (y) = 9.26079 0.30298
# Poissons Ratio (z) = -2.69432 -2.70263
#
# Static dielectric constant tensor:
#      x y z
#    x 1.647850 0.000000 0.000000 
#    y 0.000000 1.647850 0.000000 
#    z 0.000000 0.000000 1.632590 
# 
# From -- ./inp_files/14193.got.cif
#   From: 2010.05.17/outbox.cif.g08.bks.cpg/sg139_8_cif.got.tgz:14193.got - 2010.05.20 13:14:44.
