data_PCOD9571782
_publ_section_title
;
Structure prediction by ZEFSAII (Michael W. Deem and Ramdas Pophale) SiO2 
 PCOD9571782
Probable space group: I 4/M M M
;
_chemical_formula_sum "Si O2"
_cell_formula_units_Z 144
_cell_length_a 29.340280
_cell_length_b 29.340280
_cell_length_c 8.387876
_cell_angle_alpha 90.000000
_cell_angle_beta 90.000000
_cell_angle_gamma 90.000000
_cell_volume 7220.720086
_symmetry_space_group_name_H-M "I 4/M M M"
_symmetry_group_IT_number 139
_symmetry_cell_setting 'tetragonal'
loop_
_space_group_symop_operation_xyz
x,y,z
-y,x,z
-x,-y,z
y,-x,z
x,-y,-z
-x,y,-z
y,x,-z
-y,-x,-z
-x,-y,-z
y,-x,-z
x,y,-z
-y,x,-z
-x,y,z
x,-y,z
-y,-x,z
y,x,z
1/2+x,1/2+y,1/2+z
1/2-y,1/2+x,1/2+z
1/2-x,1/2-y,1/2+z
1/2+y,1/2-x,1/2+z
1/2+x,1/2-y,1/2-z
1/2-x,1/2+y,1/2-z
1/2+y,1/2+x,1/2-z
1/2-y,1/2-x,1/2-z
1/2-x,1/2-y,1/2-z
1/2+y,1/2-x,1/2-z
1/2+x,1/2+y,1/2-z
1/2-y,1/2+x,1/2-z
1/2-x,1/2+y,1/2+z
1/2+x,1/2-y,1/2+z
1/2-y,1/2-x,1/2+z
1/2+y,1/2+x,1/2+z
loop_
_atom_site_type_symbol
_atom_site_label
_atom_site_fract_x
_atom_site_fract_y
_atom_site_fract_z
Si Si1 0.580418 0.778672 0.814591
Si Si2 0.447674 0.322028 0.178807
Si Si3 0.128043 0.055350 0.000000
Si Si4 0.051087 0.375887 0.811413
Si Si5 0.751533 0.178133 0.808919
O O1 0.552220 0.732323 0.792289
O O2 0.564499 0.823457 0.722901
O O3 0.630753 0.762618 0.766457
O O4 0.579078 0.791108 0.000000
O O5 0.500000 0.337586 0.168511
O O6 0.428842 0.346011 0.337946
O O7 0.427079 0.329555 0.000000
O O8 0.078756 0.078756 0.000000
O O9 0.126710 0.000000 0.000000
O O10 0.089382 0.410619 0.750000
O O11 0.000000 0.384391 0.744990
O O12 0.049257 0.381835 0.000000
O O13 0.800809 0.199192 0.764011
O O14 0.714762 0.214762 0.750000
O O15 0.749821 0.174599 0.000000
#
# Coordination Sequence:
#
# PCOD9571782 Si02
#       5
#    32  32  16  32  32
#     4  11  22  37  60  88 119 155 197 249 304 370
#     4   9  20  38  59  86 120 158 198 247 309 367
#     4  10  22  39  62  90 124 166 209 261 315 371
#     4  11  25  43  65  92 122 160 206 259 318 383
#     4  10  21  36  53  75 109 152 195 240 290 347
#
# _framework density 19.942609000000001
#
# number of rings (size 3 to 8) (size 9 to 14) (size 15 to 20)
#    0.000    1.778    0.000    3.333    3.111    5.667 
#    0.000    3.333    0.000    0.000    0.000    3.111 
#    0.000    0.000    0.000    0.000    0.000    0.000 
#
# Total GULP energy -401641.665524 kJ/mol
# GULP energy per Si atom -5578.356466 kJ/mol
# Density = 1.989722 g / cm^3
# Si number density = 19.942609 Si / 1000 Ang^3
#
#
#
# Elastic Constant Matrix: (Units=GPa)
#
#
# Indices 1 2 3 4 5 6 
#
# 1 59.3019 37.1446 33.4411 0.0000 0.0000 0.0000
# 2 37.1446 59.2845 33.4396 0.0000 0.0000 0.0000
# 3 33.4411 33.4396 87.6471 0.0000 0.0000 0.0000
# 4 0.0000 0.0000 0.0000 10.1413 0.0000 0.0000
# 5 0.0000 0.0000 0.0000 0.0000 10.1373 0.0000
# 6 0.0000 0.0000 0.0000 0.0000 0.0000 26.6511
#
#
#
# Elastic Compliance Matrix: (Units=1/GPa)
#
#
# Indices 1 2 3 4 5 6 
#
# 1 0.029620 -0.015525 -0.005378 0.000000 0.000000 0.000000
# 2 -0.015525 0.029630 -0.005381 0.000000 0.000000 0.000000
# 3 -0.005378 -0.005381 0.015515 0.000000 0.000000 0.000000
# 4 0.000000 0.000000 0.000000 0.098606 0.000000 0.000000
# 5 0.000000 0.000000 0.000000 0.000000 0.098645 0.000000
# 6 0.000000 0.000000 0.000000 0.000000 0.000000 0.037522
#
#
# Mechanical properties :
#
#
# Convention : Reuss Voigt Hill
#
# Bulk Modulus (GPa) = 45.05294 46.03158 45.54226
# Shear Modulus (GPa) = 13.53162 16.19984 14.86573
#
# Velocity S-wave (km/s) = 2.60768 2.85322 2.73321
# Velocity P-wave (km/s) = 5.63090 5.82980 5.73121
#
# Compressibility (1/GPa) = 0.02219611
#
# Stress axis : x y z
#
# Youngs Moduli (GPa) = 33.76120 33.74945 64.45578
#
# Poissons Ratio (x) = 0.52395 0.34665
# Poissons Ratio (y) = 0.52413 0.34686
# Poissons Ratio (z) = 0.18157 0.18162
#
# Static dielectric constant tensor:
#      x y z
#    x 1.714550 0.000000 0.000000 
#    y 0.000000 1.714550 0.000000 
#    z 0.000000 0.000000 1.718280 
# 
# From -- ./inp_files/2053.got.cif
#   From: 2010.05.17/outbox.cif.g08.bks.cpg/sg139_2_cif.got.tgz:2053.got - 2010.05.20 13:14:44.
