data_PCOD9571763
_publ_section_title
;
Structure prediction by ZEFSAII (Michael W. Deem and Ramdas Pophale) SiO2 
 PCOD9571763
Probable space group: I 4/M M M
;
_chemical_formula_sum "Si O2"
_cell_formula_units_Z 136
_cell_length_a 24.138690
_cell_length_b 24.138690
_cell_length_c 12.040098
_cell_angle_alpha 90.000000
_cell_angle_beta 90.000000
_cell_angle_gamma 90.000000
_cell_volume 7015.480415
_symmetry_space_group_name_H-M "I 4/M M M"
_symmetry_group_IT_number 139
_symmetry_cell_setting 'tetragonal'
loop_
_space_group_symop_operation_xyz
x,y,z
-y,x,z
-x,-y,z
y,-x,z
x,-y,-z
-x,y,-z
y,x,-z
-y,-x,-z
-x,-y,-z
y,-x,-z
x,y,-z
-y,x,-z
-x,y,z
x,-y,z
-y,-x,z
y,x,z
1/2+x,1/2+y,1/2+z
1/2-y,1/2+x,1/2+z
1/2-x,1/2-y,1/2+z
1/2+y,1/2-x,1/2+z
1/2+x,1/2-y,1/2-z
1/2-x,1/2+y,1/2-z
1/2+y,1/2+x,1/2-z
1/2-y,1/2-x,1/2-z
1/2-x,1/2-y,1/2-z
1/2+y,1/2-x,1/2-z
1/2+x,1/2+y,1/2-z
1/2-y,1/2+x,1/2-z
1/2-x,1/2+y,1/2+z
1/2+x,1/2-y,1/2+z
1/2-y,1/2-x,1/2+z
1/2+y,1/2+x,1/2+z
loop_
_atom_site_type_symbol
_atom_site_label
_atom_site_fract_x
_atom_site_fract_y
_atom_site_fract_z
Si Si1 0.701677 0.298324 0.374108
Si Si2 0.769585 0.000000 0.500000
Si Si3 0.166708 0.000000 0.884605
Si Si4 0.064896 0.064896 0.369387
Si Si5 0.124732 0.220072 0.500000
Si Si6 0.389031 0.610970 0.664494
Si Si7 0.286937 0.127068 0.264779
Si Si8 0.500000 0.768812 0.239337
O O1 0.717579 0.282422 0.500000
O O2 0.654941 0.345060 0.373518
O O3 0.750802 0.330231 0.310624
O O4 0.800511 0.059730 0.500000
O O5 0.730890 0.000000 0.607147
O O6 0.129249 0.947098 0.880217
O O7 0.205543 0.000000 0.779032
O O8 0.200519 0.000000 0.000000
O O9 0.070814 0.070814 0.500000
O O10 0.104033 0.104033 0.297128
O O11 0.000000 0.075565 0.341962
O O12 0.171538 0.171538 0.500000
O O13 0.130049 0.257887 0.612406
O O14 0.348011 0.151990 0.250000
O O15 0.287776 0.062264 0.227005
#
# Coordination Sequence:
#
# PCOD9571763 Si02
#       8
#    16   8  16  16  16  16  32  16
#     4  12  25  39  60  91 126 163 201 253 303 355
#     4   8  20  40  60  85 118 159 204 258 304 356
#     4  12  24  39  56  79 117 164 211 249 291 353
#     4   9  18  36  54  72 101 141 202 268 312 344
#     4  10  20  38  64  94 123 160 211 256 308 362
#     4  12  23  39  55  82 115 160 209 254 301 347
#     4  11  24  41  66  94 124 161 200 252 306 366
#     4  10  22  44  63  87 121 157 199 243 309 369
#
# _framework density 19.385701000000001
#
# number of rings (size 3 to 8) (size 9 to 14) (size 15 to 20)
#    0.000    1.294    4.706    1.765    1.647    0.235 
#    4.235    0.588    0.000    0.529    0.000    0.000 
#    0.000    5.647    0.000    0.000    0.000    0.000 
#
# Total GULP energy -379271.470816 kJ/mol
# GULP energy per Si atom -5577.521630 kJ/mol
# Density = 1.934158 g / cm^3
# Si number density = 19.385701 Si / 1000 Ang^3
#
#
#
# Elastic Constant Matrix: (Units=GPa)
#
#
# Indices 1 2 3 4 5 6 
#
# 1 123.7349 40.5926 9.8627 0.0000 0.0000 0.0000
# 2 40.5926 123.7361 9.8611 0.0000 0.0000 0.0000
# 3 9.8627 9.8611 103.0353 0.0000 0.0000 0.0000
# 4 0.0000 0.0000 0.0000 11.7183 0.0000 0.0000
# 5 0.0000 0.0000 0.0000 0.0000 11.7180 0.0000
# 6 0.0000 0.0000 0.0000 0.0000 0.0000 31.9254
#
#
#
# Elastic Compliance Matrix: (Units=1/GPa)
#
#
# Indices 1 2 3 4 5 6 
#
# 1 0.009092 -0.002936 -0.000589 0.000000 0.000000 0.000000
# 2 -0.002936 0.009092 -0.000589 0.000000 0.000000 0.000000
# 3 -0.000589 -0.000589 0.009818 0.000000 0.000000 0.000000
# 4 0.000000 0.000000 0.000000 0.085337 0.000000 0.000000
# 5 0.000000 0.000000 0.000000 0.000000 0.085339 0.000000
# 6 0.000000 0.000000 0.000000 0.000000 0.000000 0.031323
#
#
# Mechanical properties :
#
#
# Convention : Reuss Voigt Hill
#
# Bulk Modulus (GPa) = 50.57266 52.34878 51.46072
# Shear Modulus (GPa) = 20.42315 30.41833 25.42074
#
# Velocity S-wave (km/s) = 3.24931 3.96550 3.62514
# Velocity P-wave (km/s) = 6.34205 6.93032 6.64270
#
# Compressibility (1/GPa) = 0.01977353
#
# Stress axis : x y z
#
# Youngs Moduli (GPa) = 109.98862 109.98995 101.85158
#
# Poissons Ratio (x) = 0.32290 0.06002
# Poissons Ratio (y) = 0.32289 0.06000
# Poissons Ratio (z) = 0.06482 0.06480
#
# Static dielectric constant tensor:
#      x y z
#    x 1.677280 0.000000 0.000000 
#    y 0.000000 1.677280 0.000000 
#    z 0.000000 0.000000 1.869580 
# 
# From -- ./inp_files/3627.got.cif
#   From: 2010.05.17/outbox.cif.g08.bks.cpg/sg139_2_cif.got.tgz:3627.got - 2010.05.20 13:14:44.
