data_PCOD9571311
_publ_section_title
;
Structure prediction by ZEFSAII (Michael W. Deem and Ramdas Pophale) SiO2 
 PCOD9571311
Probable space group: I 4/M M M
;
_chemical_formula_sum "Si O2"
_cell_formula_units_Z 192
_cell_length_a 23.181720
_cell_length_b 23.181720
_cell_length_c 24.526472
_cell_angle_alpha 90.000000
_cell_angle_beta 90.000000
_cell_angle_gamma 90.000000
_cell_volume 13180.333328
_symmetry_space_group_name_H-M "I 4/M M M"
_symmetry_group_IT_number 139
_symmetry_cell_setting 'tetragonal'
loop_
_space_group_symop_operation_xyz
x,y,z
-y,x,z
-x,-y,z
y,-x,z
x,-y,-z
-x,y,-z
y,x,-z
-y,-x,-z
-x,-y,-z
y,-x,-z
x,y,-z
-y,x,-z
-x,y,z
x,-y,z
-y,-x,z
y,x,z
1/2+x,1/2+y,1/2+z
1/2-y,1/2+x,1/2+z
1/2-x,1/2-y,1/2+z
1/2+y,1/2-x,1/2+z
1/2+x,1/2-y,1/2-z
1/2-x,1/2+y,1/2-z
1/2+y,1/2+x,1/2-z
1/2-y,1/2-x,1/2-z
1/2-x,1/2-y,1/2-z
1/2+y,1/2-x,1/2-z
1/2+x,1/2+y,1/2-z
1/2-y,1/2+x,1/2-z
1/2-x,1/2+y,1/2+z
1/2+x,1/2-y,1/2+z
1/2-y,1/2-x,1/2+z
1/2+y,1/2+x,1/2+z
loop_
_atom_site_type_symbol
_atom_site_label
_atom_site_fract_x
_atom_site_fract_y
_atom_site_fract_z
Si Si1 0.822222 0.274733 0.000000
Si Si2 0.432267 0.852193 0.712050
Si Si3 0.750362 0.249639 0.836860
Si Si4 0.766949 0.064191 0.278347
Si Si5 0.651528 0.173087 0.390602
Si Si6 0.320710 0.679291 0.746368
Si Si7 0.433283 0.226181 0.901492
Si Si8 0.220752 0.872242 0.500000
O O1 0.859258 0.289509 0.054447
O O2 0.770913 0.322948 0.000000
O O3 0.786632 0.213369 0.000000
O O4 0.500000 0.866529 0.701089
O O5 0.400168 0.900168 0.750000
O O6 0.431349 0.794590 0.748570
O O7 0.395897 0.835370 0.657280
O O8 0.790492 0.294885 0.868415
O O9 0.714405 0.285596 0.792760
O O10 0.794586 0.205415 0.808577
O O11 0.806878 0.113011 0.254033
O O12 0.754231 0.073444 0.342038
O O13 0.789971 0.000000 0.270429
O O14 0.671015 0.108339 0.405407
O O15 0.500000 0.211257 0.909231
O O16 0.410914 0.269661 0.947144
O O17 0.161079 0.838922 0.500000
#
# Coordination Sequence:
#
# PCOD9571311 Si02
#       8
#    16  32  16  32  32  16  32  16
#     4   9  18  29  46  72 101 125 154 195 249 309
#     4  11  21  35  50  70  98 131 170 213 256 298
#     4  11  18  25  48  74  94 125 161 189 253 303
#     4  10  20  30  46  71  96 121 154 198 248 298
#     4  11  19  32  48  73  99 128 162 205 248 299
#     4  11  18  28  46  69  98 126 154 196 241 309
#     4  10  19  30  44  62  95 128 154 191 241 291
#     4   9  19  29  43  66  91 120 156 197 234 284
#
# _framework density 14.567157999999999
#
# number of rings (size 3 to 8) (size 9 to 14) (size 15 to 20)
#    0.000    1.667    5.833    0.250    2.333    0.167 
#    0.000    0.417    0.000    0.250    0.000    0.000 
#    0.000    8.000    0.000    0.000    0.000    0.000 
#
# Total GULP energy -534554.212845 kJ/mol
# GULP energy per Si atom -5568.273050 kJ/mol
# Density = 1.453400 g / cm^3
# Si number density = 14.567158 Si / 1000 Ang^3
#
#
#
# Elastic Constant Matrix: (Units=GPa)
#
#
# Indices 1 2 3 4 5 6 
#
# 1 67.9944 40.0548 34.3847 0.0000 0.0000 0.0000
# 2 40.0548 67.9944 34.3848 0.0000 0.0000 0.0000
# 3 34.3847 34.3848 92.3123 0.0000 0.0000 0.0000
# 4 0.0000 0.0000 0.0000 10.8345 0.0000 0.0000
# 5 0.0000 0.0000 0.0000 0.0000 10.8332 0.0000
# 6 0.0000 0.0000 0.0000 0.0000 0.0000 15.6817
#
#
#
# Elastic Compliance Matrix: (Units=1/GPa)
#
#
# Indices 1 2 3 4 5 6 
#
# 1 0.023961 -0.011830 -0.004519 0.000000 0.000000 0.000000
# 2 -0.011830 0.023961 -0.004519 0.000000 0.000000 0.000000
# 3 -0.004519 -0.004519 0.014199 0.000000 0.000000 0.000000
# 4 0.000000 0.000000 0.000000 0.092298 0.000000 0.000000
# 5 0.000000 0.000000 0.000000 0.000000 0.092309 0.000000
# 6 0.000000 0.000000 0.000000 0.000000 0.000000 0.063769
#
#
# Mechanical properties :
#
#
# Convention : Reuss Voigt Hill
#
# Bulk Modulus (GPa) = 49.05183 49.54995 49.30089
# Shear Modulus (GPa) = 13.92653 15.43500 14.68076
#
# Velocity S-wave (km/s) = 3.09532 3.25864 3.17803
# Velocity P-wave (km/s) = 6.82060 6.94601 6.88359
#
# Compressibility (1/GPa) = 0.02038660
#
# Stress axis : x y z
#
# Youngs Moduli (GPa) = 41.73405 41.73404 70.42765
#
# Poissons Ratio (x) = 0.49373 0.31823
# Poissons Ratio (y) = 0.49373 0.31823
# Poissons Ratio (z) = 0.18858 0.18858
#
# Static dielectric constant tensor:
#      x y z
#    x 1.472500 0.000000 0.000000 
#    y 0.000000 1.472500 0.000000 
#    z 0.000000 0.000000 1.519470 
# 
# From -- ./inp_files/12151.got.cif
#   From: 2010.05.17/outbox.cif.g08.bks.cpg/sg139_7_cif.got.tgz:12151.got - 2010.05.20 13:14:44.
