data_PCOD9571278
_publ_section_title
;
Structure prediction by ZEFSAII (Michael W. Deem and Ramdas Pophale) SiO2 
 PCOD9571278
Probable space group: I 4/M M M
;
_chemical_formula_sum "Si O2"
_cell_formula_units_Z 160
_cell_length_a 28.912562
_cell_length_b 28.912562
_cell_length_c 9.866230
_cell_angle_alpha 90.000000
_cell_angle_beta 90.000000
_cell_angle_gamma 90.000000
_cell_volume 8247.539223
_symmetry_space_group_name_H-M "I 4/M M M"
_symmetry_group_IT_number 139
_symmetry_cell_setting 'tetragonal'
loop_
_space_group_symop_operation_xyz
x,y,z
-y,x,z
-x,-y,z
y,-x,z
x,-y,-z
-x,y,-z
y,x,-z
-y,-x,-z
-x,-y,-z
y,-x,-z
x,y,-z
-y,x,-z
-x,y,z
x,-y,z
-y,-x,z
y,x,z
1/2+x,1/2+y,1/2+z
1/2-y,1/2+x,1/2+z
1/2-x,1/2-y,1/2+z
1/2+y,1/2-x,1/2+z
1/2+x,1/2-y,1/2-z
1/2-x,1/2+y,1/2-z
1/2+y,1/2+x,1/2-z
1/2-y,1/2-x,1/2-z
1/2-x,1/2-y,1/2-z
1/2+y,1/2-x,1/2-z
1/2+x,1/2+y,1/2-z
1/2-y,1/2+x,1/2-z
1/2-x,1/2+y,1/2+z
1/2+x,1/2-y,1/2+z
1/2-y,1/2-x,1/2+z
1/2+y,1/2+x,1/2+z
loop_
_atom_site_type_symbol
_atom_site_label
_atom_site_fract_x
_atom_site_fract_y
_atom_site_fract_z
Si Si1 0.553081 0.371358 0.164859
Si Si2 0.948323 0.350816 0.500000
Si Si3 0.916000 0.449919 0.500000
Si Si4 0.445963 0.168032 0.702801
Si Si5 0.287072 0.148508 0.845362
Si Si6 0.125102 0.203324 0.654069
O O1 0.500000 0.374695 0.210961
O O2 0.586189 0.413812 0.210059
O O3 0.577857 0.322582 0.198365
O O4 0.552873 0.372916 0.000000
O O5 0.948186 0.406110 0.500000
O O6 0.928902 0.335591 0.642261
O O7 0.000000 0.332548 0.500000
O O8 0.938803 0.500000 0.500000
O O9 0.881626 0.446739 0.628882
O O10 0.500000 0.184148 0.694598
O O11 0.404794 0.196847 0.639906
O O12 0.322104 0.177897 0.750000
O O13 0.239807 0.144226 0.760900
O O14 0.283693 0.167527 0.000000
O O15 0.119133 0.222564 0.500000
O O16 0.162057 0.162057 0.644321
#
# Coordination Sequence:
#
# PCOD9571278 Si02
#       6
#    32  16  16  32  32  32
#     4   8  14  27  50  83 123 165 205 244 286 334
#     4  10  20  33  50  74 101 135 177 217 264 322
#     4  10  18  33  52  70 101 137 169 215 270 320
#     4  10  22  37  54  78 108 140 175 222 278 335
#     4  12  25  39  61  86 111 144 187 240 292 353
#     4   9  20  39  59  82 117 156 193 235 286 343
#
# _framework density 19.399725
#
# number of rings (size 3 to 8) (size 9 to 14) (size 15 to 20)
#    0.000    2.200    1.000    3.600    2.800    2.000 
#    0.000    1.000    0.000    3.600    0.000    0.000 
#    0.000    0.000    0.000    4.400    0.000    4.400 
#
# Total GULP energy -445435.673949 kJ/mol
# GULP energy per Si atom -5567.945924 kJ/mol
# Density = 1.935557 g / cm^3
# Si number density = 19.399725 Si / 1000 Ang^3
#
#
#
# Elastic Constant Matrix: (Units=GPa)
#
#
# Indices 1 2 3 4 5 6 
#
# 1 73.1427 26.5498 27.6815 0.0000 0.0000 0.0000
# 2 26.5498 73.1453 27.6831 0.0000 0.0000 0.0000
# 3 27.6815 27.6831 127.5028 0.0000 0.0000 0.0000
# 4 0.0000 0.0000 0.0000 39.8945 0.0000 0.0000
# 5 0.0000 0.0000 0.0000 0.0000 39.9303 0.0000
# 6 0.0000 0.0000 0.0000 0.0000 0.0000 -4.7718
#
#
#
# Elastic Compliance Matrix: (Units=1/GPa)
#
#
# Indices 1 2 3 4 5 6 
#
# 1 0.016434 -0.005028 -0.002476 0.000000 0.000000 0.000000
# 2 -0.005028 0.016434 -0.002476 0.000000 0.000000 0.000000
# 3 -0.002476 -0.002476 0.008918 0.000000 0.000000 0.000000
# 4 0.000000 0.000000 0.000000 0.025066 0.000000 0.000000
# 5 0.000000 0.000000 0.000000 0.000000 0.025044 0.000000
# 6 0.000000 0.000000 0.000000 0.000000 0.000000 -0.209563
#
#
# Mechanical properties :
#
#
# Convention : Reuss Voigt Hill
#
# Bulk Modulus (GPa) = 45.81961 48.62440 47.22201
# Shear Modulus (GPa) = -55.29066 27.80235 -13.74416
#
# Velocity S-wave (km/s) = -5.34440 3.78978 -2.66460
# Velocity P-wave (km/s) = 3.79651 6.65348 3.86363
#
# Compressibility (1/GPa) = 0.02182472
#
# Stress axis : x y z
#
# Youngs Moduli (GPa) = 60.84891 60.85061 112.12959
#
# Poissons Ratio (x) = 0.30596 0.27766
# Poissons Ratio (y) = 0.30595 0.27768
# Poissons Ratio (z) = 0.15068 0.15069
#
# Static dielectric constant tensor:
#      x y z
#    x 1.693780 0.000000 0.000000 
#    y 0.000000 1.693780 0.000000 
#    z 0.000000 0.000000 1.698900 
# 
# From -- ./inp_files/2190.got.cif
#   From: 2010.05.17/outbox.cif.g08.bks.cpg/sg139_2_cif.got.tgz:2190.got - 2010.05.20 13:14:44.
