data_PCOD9571232
_publ_section_title
;
Structure prediction by ZEFSAII (Michael W. Deem and Ramdas Pophale) SiO2 
 PCOD9571232
Probable space group: I 4/M M M
;
_chemical_formula_sum "Si O2"
_cell_formula_units_Z 224
_cell_length_a 22.549463
_cell_length_b 22.549463
_cell_length_c 24.865297
_cell_angle_alpha 90.000000
_cell_angle_beta 90.000000
_cell_angle_gamma 90.000000
_cell_volume 12643.463490
_symmetry_space_group_name_H-M "I 4/M M M"
_symmetry_group_IT_number 139
_symmetry_cell_setting 'tetragonal'
loop_
_space_group_symop_operation_xyz
x,y,z
-y,x,z
-x,-y,z
y,-x,z
x,-y,-z
-x,y,-z
y,x,-z
-y,-x,-z
-x,-y,-z
y,-x,-z
x,y,-z
-y,x,-z
-x,y,z
x,-y,z
-y,-x,z
y,x,z
1/2+x,1/2+y,1/2+z
1/2-y,1/2+x,1/2+z
1/2-x,1/2-y,1/2+z
1/2+y,1/2-x,1/2+z
1/2+x,1/2-y,1/2-z
1/2-x,1/2+y,1/2-z
1/2+y,1/2+x,1/2-z
1/2-y,1/2-x,1/2-z
1/2-x,1/2-y,1/2-z
1/2+y,1/2-x,1/2-z
1/2+x,1/2+y,1/2-z
1/2-y,1/2+x,1/2-z
1/2-x,1/2+y,1/2+z
1/2+x,1/2-y,1/2+z
1/2-y,1/2-x,1/2+z
1/2+y,1/2+x,1/2+z
loop_
_atom_site_type_symbol
_atom_site_label
_atom_site_fract_x
_atom_site_fract_y
_atom_site_fract_z
Si Si1 0.000000 0.751239 0.564840
Si Si2 0.280098 0.379035 0.127611
Si Si3 0.067030 0.626959 0.089971
Si Si4 0.436056 0.763098 0.662500
Si Si5 0.200425 0.893002 0.939168
Si Si6 0.000000 0.607410 0.435084
Si Si7 0.252286 0.152040 0.256348
Si Si8 0.814579 0.313966 0.942430
O O1 0.059515 0.776282 0.594079
O O2 0.000000 0.762849 0.500000
O O3 0.000000 0.679095 0.571013
O O4 0.342456 0.342456 0.124973
O O5 0.259169 0.385587 0.189553
O O6 0.229963 0.335798 0.102377
O O7 0.071109 0.668794 0.142621
O O8 0.078442 0.557388 0.092389
O O9 0.124339 0.648968 0.057484
O O10 0.000000 0.637526 0.068569
O O11 0.500000 0.757196 0.688627
O O12 0.433552 0.723287 0.608664
O O13 0.385883 0.743894 0.703023
O O14 0.136243 0.863758 0.931231
O O15 0.248090 0.839252 0.936684
O O16 0.204270 0.917577 0.000000
O O17 0.000000 0.595128 0.500000
O O18 0.204027 0.204027 0.259212
O O19 0.315846 0.184155 0.250000
O O20 0.784314 0.321605 0.000000
#
# Coordination Sequence:
#
# PCOD9571232 Si02
#       8
#    16  32  32  32  32  16  32  32
#     4  11  24  39  58  86 118 147 184 240 300 361
#     4  11  23  38  59  84 111 145 183 236 298 356
#     4  10  20  32  47  72 108 151 198 232 269 317
#     4  10  21  35  52  76 108 145 183 226 276 328
#     4   9  17  29  48  74 105 141 178 218 266 320
#     4  11  21  34  51  74 109 154 200 246 282 315
#     4  10  21  37  59  84 108 141 188 236 283 338
#     4  10  18  30  49  76 108 140 180 226 275 328
#
# _framework density 17.716664999999999
#
# number of rings (size 3 to 8) (size 9 to 14) (size 15 to 20)
#    0.000    1.857    1.429    3.643    1.000    5.143 
#    0.000    4.286    0.000    0.214    0.000    0.500 
#    0.000    4.571    0.000    6.286    0.000    0.286 
#
# Total GULP energy -623854.629672 kJ/mol
# GULP energy per Si atom -5570.130622 kJ/mol
# Density = 1.767634 g / cm^3
# Si number density = 17.716665 Si / 1000 Ang^3
#
#
#
# Elastic Constant Matrix: (Units=GPa)
#
#
# Indices 1 2 3 4 5 6 
#
# 1 52.1175 23.1901 23.7860 0.0000 0.0000 0.0000
# 2 23.1901 52.1171 23.7858 0.0000 0.0000 0.0000
# 3 23.7860 23.7858 91.2422 0.0000 0.0000 0.0000
# 4 0.0000 0.0000 0.0000 15.3641 0.0000 0.0000
# 5 0.0000 0.0000 0.0000 0.0000 15.3612 0.0000
# 6 0.0000 0.0000 0.0000 0.0000 0.0000 17.5967
#
#
#
# Elastic Compliance Matrix: (Units=1/GPa)
#
#
# Indices 1 2 3 4 5 6 
#
# 1 0.025233 -0.009336 -0.004144 0.000000 0.000000 0.000000
# 2 -0.009336 0.025233 -0.004144 0.000000 0.000000 0.000000
# 3 -0.004144 -0.004144 0.013120 0.000000 0.000000 0.000000
# 4 0.000000 0.000000 0.000000 0.065087 0.000000 0.000000
# 5 0.000000 0.000000 0.000000 0.000000 0.065099 0.000000
# 6 0.000000 0.000000 0.000000 0.000000 0.000000 0.056829
#
#
# Mechanical properties :
#
#
# Convention : Reuss Voigt Hill
#
# Bulk Modulus (GPa) = 35.28887 37.44450 36.36669
# Shear Modulus (GPa) = 16.93213 17.97873 17.45543
#
# Velocity S-wave (km/s) = 3.09482 3.18904 3.14228
# Velocity P-wave (km/s) = 5.72121 5.89415 5.80832
#
# Compressibility (1/GPa) = 0.02833754
#
# Stress axis : x y z
#
# Youngs Moduli (GPa) = 39.63060 39.63031 76.21661
#
# Poissons Ratio (x) = 0.37000 0.31585
# Poissons Ratio (y) = 0.37001 0.31585
# Poissons Ratio (z) = 0.16423 0.16423
#
# Static dielectric constant tensor:
#      x y z
#    x 1.633210 0.000000 0.000000 
#    y 0.000000 1.633210 0.000000 
#    z 0.000000 0.000000 1.613140 
# 
# From -- ./inp_files/12283.got.cif
#   From: 2010.05.17/outbox.cif.g08.bks.cpg/sg139_7_cif.got.tgz:12283.got - 2010.05.20 13:14:44.
