data_PCOD9571205
_publ_section_title
;
Structure prediction by ZEFSAII (Michael W. Deem and Ramdas Pophale) SiO2 
 PCOD9571205
Probable space group: I 4/M M M
;
_chemical_formula_sum "Si O2"
_cell_formula_units_Z 144
_cell_length_a 21.503601
_cell_length_b 21.503601
_cell_length_c 17.664189
_cell_angle_alpha 90.000000
_cell_angle_beta 90.000000
_cell_angle_gamma 90.000000
_cell_volume 8168.006770
_symmetry_space_group_name_H-M "I 4/M M M"
_symmetry_group_IT_number 139
_symmetry_cell_setting 'tetragonal'
loop_
_space_group_symop_operation_xyz
x,y,z
-y,x,z
-x,-y,z
y,-x,z
x,-y,-z
-x,y,-z
y,x,-z
-y,-x,-z
-x,-y,-z
y,-x,-z
x,y,-z
-y,x,-z
-x,y,z
x,-y,z
-y,-x,z
y,x,z
1/2+x,1/2+y,1/2+z
1/2-y,1/2+x,1/2+z
1/2-x,1/2-y,1/2+z
1/2+y,1/2-x,1/2+z
1/2+x,1/2-y,1/2-z
1/2-x,1/2+y,1/2-z
1/2+y,1/2+x,1/2-z
1/2-y,1/2-x,1/2-z
1/2-x,1/2-y,1/2-z
1/2+y,1/2-x,1/2-z
1/2+x,1/2+y,1/2-z
1/2-y,1/2+x,1/2-z
1/2-x,1/2+y,1/2+z
1/2+x,1/2-y,1/2+z
1/2-y,1/2-x,1/2+z
1/2+y,1/2+x,1/2+z
loop_
_atom_site_type_symbol
_atom_site_label
_atom_site_fract_x
_atom_site_fract_y
_atom_site_fract_z
Si Si1 0.195439 0.298478 0.090057
Si Si2 0.569940 0.279014 0.585801
Si Si3 0.165213 0.067942 0.244020
Si Si4 0.431459 0.327506 0.000000
Si Si5 0.269061 0.930468 0.639314
O O1 0.250831 0.250831 0.115896
O O2 0.128604 0.265760 0.098342
O O3 0.194623 0.366152 0.128446
O O4 0.205586 0.307822 0.000000
O O5 0.576373 0.304009 0.500000
O O6 0.500000 0.250465 0.590227
O O7 0.572094 0.327807 0.653822
O O8 0.122046 0.122046 0.273840
O O9 0.232838 0.072296 0.281384
O O10 0.139933 0.000000 0.264357
O O11 0.427798 0.283366 0.073534
O O12 0.500000 0.357121 0.000000
O O13 0.376787 0.376787 0.000000
O O14 0.298618 0.000000 0.632740
#
# Coordination Sequence:
#
# PCOD9571205 Si02
#       5
#    32  32  32  16  32
#     4  10  18  29  51  77  98 125 166 208 244 294
#     4   9  19  35  52  71  97 127 157 200 259 308
#     4  10  20  33  49  70  98 130 165 203 244 293
#     4  10  18  29  44  62  91 127 161 197 236 280
#     4  10  20  32  47  70 100 132 162 200 246 287
#
# _framework density 17.629760999999998
#
# number of rings (size 3 to 8) (size 9 to 14) (size 15 to 20)
#    0.000    2.222    1.111    2.667    0.000    2.556 
#    0.000    2.222    0.000    4.667    0.000    6.222 
#    0.000    5.333    0.000    0.222    0.000    0.000 
#
# Total GULP energy -400888.849604 kJ/mol
# GULP energy per Si atom -5567.900689 kJ/mol
# Density = 1.758963 g / cm^3
# Si number density = 17.629761 Si / 1000 Ang^3
#
#
#
# Elastic Constant Matrix: (Units=GPa)
#
#
# Indices 1 2 3 4 5 6 
#
# 1 62.4223 32.5257 -2.7951 0.0000 0.0000 0.0000
# 2 32.5257 62.4223 -2.7951 0.0000 0.0000 0.0000
# 3 -2.7951 -2.7951 46.7685 0.0000 0.0000 0.0000
# 4 0.0000 0.0000 0.0000 16.1439 0.0000 0.0000
# 5 0.0000 0.0000 0.0000 0.0000 16.1439 0.0000
# 6 0.0000 0.0000 0.0000 0.0000 0.0000 16.8813
#
#
#
# Elastic Compliance Matrix: (Units=1/GPa)
#
#
# Indices 1 2 3 4 5 6 
#
# 1 0.022009 -0.011440 0.000632 0.000000 0.000000 0.000000
# 2 -0.011440 0.022009 0.000632 0.000000 0.000000 0.000000
# 3 0.000632 0.000632 0.021457 0.000000 0.000000 0.000000
# 4 0.000000 0.000000 0.000000 0.061943 0.000000 0.000000
# 5 0.000000 0.000000 0.000000 0.000000 0.061943 0.000000
# 6 0.000000 0.000000 0.000000 0.000000 0.000000 0.059237
#
#
# Mechanical properties :
#
#
# Convention : Reuss Voigt Hill
#
# Bulk Modulus (GPa) = 22.16183 25.05379 23.60781
# Shear Modulus (GPa) = 17.60615 19.47900 18.54257
#
# Velocity S-wave (km/s) = 3.16359 3.32760 3.24663
# Velocity P-wave (km/s) = 5.09336 5.38570 5.24157
#
# Compressibility (1/GPa) = 0.04512262
#
# Stress axis : x y z
#
# Youngs Moduli (GPa) = 45.43605 45.43605 46.60396
#
# Poissons Ratio (x) = 0.51977 -0.02944
# Poissons Ratio (y) = 0.51977 -0.02944
# Poissons Ratio (z) = -0.02870 -0.02870
#
# Static dielectric constant tensor:
#      x y z
#    x 1.610670 0.000000 0.000000 
#    y 0.000000 1.610670 0.000000 
#    z 0.000000 0.000000 1.643840 
# 
# From -- ./inp_files/8230.got.cif
#   From: 2010.05.17/outbox.cif.g08.bks.cpg/sg139_5_cif.got.tgz:8230.got - 2010.05.20 13:14:44.
