data_PCOD9571370
_publ_section_title
;
Structure prediction by ZEFSAII (Michael W. Deem and Ramdas Pophale) SiO2 
 PCOD9571370
Probable space group: I 4/M M M
;
_chemical_formula_sum "Si O2"
_cell_formula_units_Z 176
_cell_length_a 27.124364
_cell_length_b 27.124364
_cell_length_c 12.867723
_cell_angle_alpha 90.000000
_cell_angle_beta 90.000000
_cell_angle_gamma 90.000000
_cell_volume 9467.184286
_symmetry_space_group_name_H-M "I 4/M M M"
_symmetry_group_IT_number 139
_symmetry_cell_setting 'tetragonal'
loop_
_space_group_symop_operation_xyz
x,y,z
-y,x,z
-x,-y,z
y,-x,z
x,-y,-z
-x,y,-z
y,x,-z
-y,-x,-z
-x,-y,-z
y,-x,-z
x,y,-z
-y,x,-z
-x,y,z
x,-y,z
-y,-x,z
y,x,z
1/2+x,1/2+y,1/2+z
1/2-y,1/2+x,1/2+z
1/2-x,1/2-y,1/2+z
1/2+y,1/2-x,1/2+z
1/2+x,1/2-y,1/2-z
1/2-x,1/2+y,1/2-z
1/2+y,1/2+x,1/2-z
1/2-y,1/2-x,1/2-z
1/2-x,1/2-y,1/2-z
1/2+y,1/2-x,1/2-z
1/2+x,1/2+y,1/2-z
1/2-y,1/2+x,1/2-z
1/2-x,1/2+y,1/2+z
1/2+x,1/2-y,1/2+z
1/2-y,1/2-x,1/2+z
1/2+y,1/2+x,1/2+z
loop_
_atom_site_type_symbol
_atom_site_label
_atom_site_fract_x
_atom_site_fract_y
_atom_site_fract_z
Si Si1 0.500000 0.059449 0.375697
Si Si2 0.208025 0.440729 0.500000
Si Si3 0.392173 0.313996 0.122036
Si Si4 0.865771 0.942547 0.810655
Si Si5 0.358245 0.073541 0.796712
Si Si6 0.716704 0.054267 0.619101
Si Si7 0.811288 0.111109 0.000000
O O1 0.500000 0.064350 0.500000
O O2 0.545412 0.091649 0.331389
O O3 0.500000 0.000000 0.355767
O O4 0.220838 0.500000 0.500000
O O5 0.176038 0.429796 0.397493
O O6 0.254435 0.404099 0.500000
O O7 0.337735 0.337735 0.138332
O O8 0.427181 0.344228 0.198992
O O9 0.403624 0.256714 0.144313
O O10 0.404061 0.320835 0.000000
O O11 0.920426 0.920426 0.818536
O O12 0.863235 0.000000 0.827754
O O13 0.834057 0.914645 0.898033
O O14 0.374124 0.125877 0.750000
O O15 0.327307 0.052343 0.700619
O O16 0.699345 0.061097 0.500000
O O17 0.741766 0.000000 0.623474
O O18 0.832921 0.167080 0.000000
#
# Coordination Sequence:
#
# PCOD9571370 Si02
#       7
#    16  16  32  32  32  32  16
#     4  11  24  44  65  89 125 165 206 245 287 354
#     4  12  22  42  68  94 122 165 212 256 307 367
#     4   9  18  33  55  84 117 155 202 260 318 367
#     4  10  19  31  48  77 115 158 204 252 308 369
#     4  12  25  40  62  89 123 156 203 246 300 358
#     4  10  20  35  59  88 119 156 203 257 310 364
#     4  10  22  38  63  93 121 152 198 262 320 371
#
# _framework density 18.590533000000001
#
# number of rings (size 3 to 8) (size 9 to 14) (size 15 to 20)
#    0.000    1.545    2.727    2.455    2.545    1.273 
#    0.000    1.818    0.000    4.364    0.000    2.545 
#    0.000    0.000    0.000    0.000    0.000    0.000 
#
# Total GULP energy -490205.902528 kJ/mol
# GULP energy per Si atom -5570.521620 kJ/mol
# Density = 1.854822 g / cm^3
# Si number density = 18.590533 Si / 1000 Ang^3
#
#
#
# Elastic Constant Matrix: (Units=GPa)
#
#
# Indices 1 2 3 4 5 6 
#
# 1 105.3919 50.4496 48.2850 0.0000 0.0000 0.0000
# 2 50.4496 105.3866 48.2837 0.0000 0.0000 0.0000
# 3 48.2850 48.2837 95.6728 0.0000 0.0000 0.0000
# 4 0.0000 0.0000 0.0000 4.4250 0.0000 0.0000
# 5 0.0000 0.0000 0.0000 0.0000 2.9867 0.0000
# 6 0.0000 0.0000 0.0000 0.0000 0.0000 29.3212
#
#
#
# Elastic Compliance Matrix: (Units=1/GPa)
#
#
# Indices 1 2 3 4 5 6 
#
# 1 0.013769 -0.004432 -0.004712 0.000000 0.000000 0.000000
# 2 -0.004432 0.013770 -0.004712 0.000000 0.000000 0.000000
# 3 -0.004712 -0.004712 0.015209 0.000000 0.000000 0.000000
# 4 0.000000 0.000000 0.000000 0.225988 0.000000 0.000000
# 5 0.000000 0.000000 0.000000 0.000000 0.334818 0.000000
# 6 0.000000 0.000000 0.000000 0.000000 0.000000 0.034105
#
#
# Mechanical properties :
#
#
# Convention : Reuss Voigt Hill
#
# Bulk Modulus (GPa) = 66.51726 66.72091 66.61908
# Shear Modulus (GPa) = 7.45843 17.97545 12.71694
#
# Velocity S-wave (km/s) = 2.00516 3.11290 2.61828
# Velocity P-wave (km/s) = 6.42018 6.99198 6.71217
#
# Compressibility (1/GPa) = 0.01503369
#
# Stress axis : x y z
#
# Youngs Moduli (GPa) = 72.62695 72.62334 65.75239
#
# Poissons Ratio (x) = 0.32190 0.30983
# Poissons Ratio (y) = 0.32192 0.30984
# Poissons Ratio (z) = 0.34223 0.34222
#
# Static dielectric constant tensor:
#      x y z
#    x 1.689360 0.000000 0.000000 
#    y 0.000000 1.689330 0.000000 
#    z 0.000000 0.000000 1.639360 
# 
# From -- ./inp_files/4055.got.cif
#   From: 2010.05.17/outbox.cif.g08.bks.cpg/sg139_3_cif.got.tgz:4055.got - 2010.05.20 13:14:44.
