data_PCOD9571903
_publ_section_title
;
Structure prediction by ZEFSAII (Michael W. Deem and Ramdas Pophale) SiO2 
 PCOD9571903
Probable space group: I 4/M M M
;
_chemical_formula_sum "Si O2"
_cell_formula_units_Z 168
_cell_length_a 24.117504
_cell_length_b 24.117504
_cell_length_c 14.385252
_cell_angle_alpha 90.000000
_cell_angle_beta 90.000000
_cell_angle_gamma 90.000000
_cell_volume 8367.239355
_symmetry_space_group_name_H-M "I 4/M M M"
_symmetry_group_IT_number 139
_symmetry_cell_setting 'tetragonal'
loop_
_space_group_symop_operation_xyz
x,y,z
-y,x,z
-x,-y,z
y,-x,z
x,-y,-z
-x,y,-z
y,x,-z
-y,-x,-z
-x,-y,-z
y,-x,-z
x,y,-z
-y,x,-z
-x,y,z
x,-y,z
-y,-x,z
y,x,z
1/2+x,1/2+y,1/2+z
1/2-y,1/2+x,1/2+z
1/2-x,1/2-y,1/2+z
1/2+y,1/2-x,1/2+z
1/2+x,1/2-y,1/2-z
1/2-x,1/2+y,1/2-z
1/2+y,1/2+x,1/2-z
1/2-y,1/2-x,1/2-z
1/2-x,1/2-y,1/2-z
1/2+y,1/2-x,1/2-z
1/2+x,1/2+y,1/2-z
1/2-y,1/2+x,1/2-z
1/2-x,1/2+y,1/2+z
1/2+x,1/2-y,1/2+z
1/2-y,1/2-x,1/2+z
1/2+y,1/2+x,1/2+z
loop_
_atom_site_type_symbol
_atom_site_label
_atom_site_fract_x
_atom_site_fract_y
_atom_site_fract_z
Si Si1 0.065199 0.273762 0.000000
Si Si2 0.565407 0.940869 0.888972
Si Si3 0.437109 0.437109 0.888197
Si Si4 0.827060 0.607085 0.809465
Si Si5 0.772905 0.936846 0.204610
Si Si6 0.151105 0.848896 0.316243
Si Si7 0.291291 0.708710 0.000000
Si Si8 0.679390 0.843078 0.500000
O O1 0.071158 0.238261 0.905409
O O2 0.116448 0.318338 0.000000
O O3 0.000000 0.294980 0.000000
O O4 0.500000 0.943320 0.872867
O O5 0.587031 0.888136 0.836727
O O6 0.590370 0.000000 0.860051
O O7 0.572509 0.935236 0.000000
O O8 0.500000 0.423990 0.857357
O O9 0.392919 0.392919 0.855817
O O10 0.437435 0.437435 0.000000
O O11 0.837212 0.662789 0.750000
O O12 0.787656 0.567317 0.752698
O O13 0.805141 0.621064 0.910417
O O14 0.807480 0.886887 0.252884
O O15 0.794721 0.000000 0.219019
O O16 0.181211 0.818790 0.405416
O O17 0.225350 0.703172 0.000000
#
# Coordination Sequence:
#
# PCOD9571903 Si02
#       8
#    16  32  16  32  32  16   8  16
#     4  10  24  48  70  96 129 173 231 283 342 400
#     4   9  19  35  55  82 119 163 210 263 325 392
#     4   9  18  34  60  95 134 180 228 266 322 402
#     4  12  23  39  62  92 125 165 220 272 336 394
#     4  11  25  44  69 100 135 177 228 286 344 409
#     4  12  23  42  65  99 143 179 222 277 342 410
#     4  12  26  42  66  99 144 178 224 271 332 422
#     4  12  24  44  64  95 130 173 216 276 323 397
#
# _framework density 20.078306999999999
#
# number of rings (size 3 to 8) (size 9 to 14) (size 15 to 20)
#    0.000    1.238    5.238    2.000    0.000    3.429 
#    0.000    3.810    0.000    0.000    0.000    0.000 
#    0.000    6.095    0.000    0.000    0.000    0.000 
#
# Total GULP energy -468324.612182 kJ/mol
# GULP energy per Si atom -5575.293002 kJ/mol
# Density = 2.003261 g / cm^3
# Si number density = 20.078307 Si / 1000 Ang^3
#
#
#
# Elastic Constant Matrix: (Units=GPa)
#
#
# Indices 1 2 3 4 5 6 
#
# 1 69.4812 28.7095 27.9607 0.0000 0.0000 0.0000
# 2 28.7095 69.4797 27.9605 0.0000 0.0000 0.0000
# 3 27.9607 27.9605 137.5851 0.0000 0.0000 0.0000
# 4 0.0000 0.0000 0.0000 44.5819 0.0000 0.0000
# 5 0.0000 0.0000 0.0000 0.0000 44.5866 0.0000
# 6 0.0000 0.0000 0.0000 0.0000 0.0000 39.7639
#
#
#
# Elastic Compliance Matrix: (Units=1/GPa)
#
#
# Indices 1 2 3 4 5 6 
#
# 1 0.018022 -0.006505 -0.002341 0.000000 0.000000 0.000000
# 2 -0.006505 0.018023 -0.002341 0.000000 0.000000 0.000000
# 3 -0.002341 -0.002341 0.008220 0.000000 0.000000 0.000000
# 4 0.000000 0.000000 0.000000 0.022431 0.000000 0.000000
# 5 0.000000 0.000000 0.000000 0.000000 0.022428 0.000000
# 6 0.000000 0.000000 0.000000 0.000000 0.000000 0.025148
#
#
# Mechanical properties :
#
#
# Convention : Reuss Voigt Hill
#
# Bulk Modulus (GPa) = 45.67904 49.53414 47.60659
# Shear Modulus (GPa) = 34.73641 38.58082 36.65862
#
# Velocity S-wave (km/s) = 4.16390 4.38827 4.27755
# Velocity P-wave (km/s) = 6.77622 7.09929 6.93964
#
# Compressibility (1/GPa) = 0.02189188
#
# Stress axis : x y z
#
# Youngs Moduli (GPa) = 55.48740 55.48613 121.66094
#
# Poissons Ratio (x) = 0.36093 0.28476
# Poissons Ratio (y) = 0.36094 0.28476
# Poissons Ratio (z) = 0.12987 0.12987
#
# Static dielectric constant tensor:
#      x y z
#    x 1.696210 0.000000 0.000000 
#    y 0.000000 1.696210 0.000000 
#    z 0.000000 0.000000 1.811690 
# 
# From -- ./inp_files/6209.got.cif
#   From: 2010.05.17/outbox.cif.g08.bks.cpg/sg139_4_cif.got.tgz:6209.got - 2010.05.20 13:14:44.
