data_PCOD9571319
_publ_section_title
;
Structure prediction by ZEFSAII (Michael W. Deem and Ramdas Pophale) SiO2 
 PCOD9571319
Probable space group: I 4/M M M
;
_chemical_formula_sum "Si O2"
_cell_formula_units_Z 160
_cell_length_a 19.221451
_cell_length_b 19.221451
_cell_length_c 25.882835
_cell_angle_alpha 90.000000
_cell_angle_beta 90.000000
_cell_angle_gamma 90.000000
_cell_volume 9562.780372
_symmetry_space_group_name_H-M "I 4/M M M"
_symmetry_group_IT_number 139
_symmetry_cell_setting 'tetragonal'
loop_
_space_group_symop_operation_xyz
x,y,z
-y,x,z
-x,-y,z
y,-x,z
x,-y,-z
-x,y,-z
y,x,-z
-y,-x,-z
-x,-y,-z
y,-x,-z
x,y,-z
-y,x,-z
-x,y,z
x,-y,z
-y,-x,z
y,x,z
1/2+x,1/2+y,1/2+z
1/2-y,1/2+x,1/2+z
1/2-x,1/2-y,1/2+z
1/2+y,1/2-x,1/2+z
1/2+x,1/2-y,1/2-z
1/2-x,1/2+y,1/2-z
1/2+y,1/2+x,1/2-z
1/2-y,1/2-x,1/2-z
1/2-x,1/2-y,1/2-z
1/2+y,1/2-x,1/2-z
1/2+x,1/2+y,1/2-z
1/2-y,1/2+x,1/2-z
1/2-x,1/2+y,1/2+z
1/2+x,1/2-y,1/2+z
1/2-y,1/2-x,1/2+z
1/2+y,1/2+x,1/2+z
loop_
_atom_site_type_symbol
_atom_site_label
_atom_site_fract_x
_atom_site_fract_y
_atom_site_fract_z
Si Si1 0.578225 0.797211 0.403433
Si Si2 0.920827 0.805896 0.191140
Si Si3 0.576632 0.307367 0.500000
Si Si4 0.230641 0.344823 0.903571
Si Si5 0.582571 0.305093 0.000000
Si Si6 0.304977 0.581719 0.189327
O O1 0.500000 0.829045 0.405603
O O2 0.584978 0.756434 0.349293
O O3 0.581374 0.741262 0.449694
O O4 0.647734 0.842214 0.409003
O O5 0.865189 0.865189 0.178631
O O6 0.909964 0.783708 0.250670
O O7 0.000000 0.833292 0.187637
O O8 0.500000 0.340504 0.500000
O O9 0.636635 0.363366 0.500000
O O10 0.268494 0.268494 0.905557
O O11 0.253417 0.380167 0.849948
O O12 0.264711 0.388724 0.949849
O O13 0.500000 0.309317 0.000000
O O14 0.619878 0.380123 0.000000
O O15 0.309970 0.500000 0.177782
O O16 0.378850 0.621150 0.183703
#
# Coordination Sequence:
#
# PCOD9571319 Si02
#       6
#    32  32  16  32  16  32
#     4  10  20  33  49  69  95 127 165 209 249 286
#     4   9  17  29  45  68  98 129 163 202 246 298
#     4  10  19  30  45  65  90 120 153 190 234 284
#     4  10  19  32  52  74  98 130 167 205 245 291
#     4  10  21  36  56  82 108 134 161 192 236 290
#     4   9  18  31  48  72 100 130 162 198 244 298
#
# _framework density 16.731535999999998
#
# number of rings (size 3 to 8) (size 9 to 14) (size 15 to 20)
#    0.000    2.400    0.000    3.000    0.000    2.200 
#    0.000    5.000    0.000   10.200    0.000    0.000 
#    0.000    9.600    0.000    0.000    0.000    0.000 
#
# Total GULP energy -445924.027957 kJ/mol
# GULP energy per Si atom -5574.050349 kJ/mol
# Density = 1.669345 g / cm^3
# Si number density = 16.731536 Si / 1000 Ang^3
#
#
#
# Elastic Constant Matrix: (Units=GPa)
#
#
# Indices 1 2 3 4 5 6 
#
# 1 93.5316 42.1715 30.9117 0.0000 0.0000 0.0000
# 2 42.1715 93.5300 30.9114 0.0000 0.0000 0.0000
# 3 30.9117 30.9114 60.8999 0.0000 0.0000 0.0000
# 4 0.0000 0.0000 0.0000 -116.4290 0.0000 0.0000
# 5 0.0000 0.0000 0.0000 0.0000 -114.4791 0.0000
# 6 0.0000 0.0000 0.0000 0.0000 0.0000 12.5984
#
#
#
# Elastic Compliance Matrix: (Units=1/GPa)
#
#
# Indices 1 2 3 4 5 6 
#
# 1 0.014528 -0.004942 -0.004865 0.000000 0.000000 0.000000
# 2 -0.004942 0.014528 -0.004866 0.000000 0.000000 0.000000
# 3 -0.004865 -0.004866 0.021360 0.000000 0.000000 0.000000
# 4 0.000000 0.000000 0.000000 -0.008589 0.000000 0.000000
# 5 0.000000 0.000000 0.000000 0.000000 -0.008735 0.000000
# 6 0.000000 0.000000 0.000000 0.000000 0.000000 0.079375
#
#
# Mechanical properties :
#
#
# Convention : Reuss Voigt Hill
#
# Bulk Modulus (GPa) = 47.46302 50.66117 49.06210
# Shear Modulus (GPa) = 33.59383 -34.06414 -0.23516
#
# Velocity S-wave (km/s) = 4.48573 -4.51702 -0.37530
# Velocity P-wave (km/s) = 7.43357 1.77200 5.40361
#
# Compressibility (1/GPa) = 0.02106903
#
# Stress axis : x y z
#
# Youngs Moduli (GPa) = 68.83236 68.83117 46.81726
#
# Poissons Ratio (x) = 0.34020 0.22779
# Poissons Ratio (y) = 0.34020 0.22779
# Poissons Ratio (z) = 0.33490 0.33490
#
# Static dielectric constant tensor:
#      x y z
#    x 1.553270 0.000000 0.000000 
#    y 0.000000 1.553270 0.000000 
#    z 0.000000 0.000000 1.575170 
# 
# From -- ./inp_files/12953.got.cif
#   From: 2010.05.17/outbox.cif.g08.bks.cpg/sg139_7_cif.got.tgz:12953.got - 2010.05.20 13:14:44.
