data_PCOD9571309
_publ_section_title
;
Structure prediction by ZEFSAII (Michael W. Deem and Ramdas Pophale) SiO2 
 PCOD9571309
Probable space group: I 4/M M M
;
_chemical_formula_sum "Si O2"
_cell_formula_units_Z 176
_cell_length_a 27.341707
_cell_length_b 27.341707
_cell_length_c 15.310385
_cell_angle_alpha 90.000000
_cell_angle_beta 90.000000
_cell_angle_gamma 90.000000
_cell_volume 11445.568311
_symmetry_space_group_name_H-M "I 4/M M M"
_symmetry_group_IT_number 139
_symmetry_cell_setting 'tetragonal'
loop_
_space_group_symop_operation_xyz
x,y,z
-y,x,z
-x,-y,z
y,-x,z
x,-y,-z
-x,y,-z
y,x,-z
-y,-x,-z
-x,-y,-z
y,-x,-z
x,y,-z
-y,x,-z
-x,y,z
x,-y,z
-y,-x,z
y,x,z
1/2+x,1/2+y,1/2+z
1/2-y,1/2+x,1/2+z
1/2-x,1/2-y,1/2+z
1/2+y,1/2-x,1/2+z
1/2+x,1/2-y,1/2-z
1/2-x,1/2+y,1/2-z
1/2+y,1/2+x,1/2-z
1/2-y,1/2-x,1/2-z
1/2-x,1/2-y,1/2-z
1/2+y,1/2-x,1/2-z
1/2+x,1/2+y,1/2-z
1/2-y,1/2+x,1/2-z
1/2-x,1/2+y,1/2+z
1/2+x,1/2-y,1/2+z
1/2-y,1/2-x,1/2+z
1/2+y,1/2+x,1/2+z
loop_
_atom_site_type_symbol
_atom_site_label
_atom_site_fract_x
_atom_site_fract_y
_atom_site_fract_z
Si Si1 0.226551 0.940865 0.725282
Si Si2 0.776079 0.559077 0.599860
Si Si3 0.000000 0.557150 0.105528
Si Si4 0.361287 0.558115 0.100809
Si Si5 0.116997 0.403654 0.650641
Si Si6 0.813388 0.443298 0.096770
O O1 0.237249 0.926253 0.825185
O O2 0.178705 0.924928 0.671979
O O3 0.274162 0.927621 0.668412
O O4 0.224362 0.000000 0.724219
O O5 0.761597 0.569864 0.500000
O O6 0.783039 0.500000 0.606500
O O7 0.828276 0.583754 0.620575
O O8 0.952400 0.584815 0.140137
O O9 0.000000 0.500000 0.129528
O O10 0.000000 0.560558 0.000000
O O11 0.369928 0.500000 0.111924
O O12 0.410232 0.589769 0.110542
O O13 0.343753 0.564816 0.000000
O O14 0.114149 0.385852 0.750000
O O15 0.090609 0.360565 0.598326
O O16 0.827770 0.500000 0.114994
O O17 0.790897 0.442497 0.000000
#
# Coordination Sequence:
#
# PCOD9571309 Si02
#       6
#    32  32  16  32  32  32
#     4   9  17  30  47  69  93 124 160 199 237 275
#     4  10  19  32  47  62  84 117 161 215 264 301
#     4  11  24  34  40  52  76 114 158 206 261 324
#     4   9  17  30  51  81 116 146 165 181 206 250
#     4  12  22  30  43  58  81 114 156 206 265 313
#     4  10  19  30  43  60  83 114 154 201 249 301
#
# _framework density 15.377129999999999
#
# number of rings (size 3 to 8) (size 9 to 14) (size 15 to 20)
#    0.000    1.909    2.727    2.727    2.545    3.818 
#    0.000    0.909    0.000    0.545    0.000    2.545 
#    0.000    2.909    0.000    7.091    0.000    0.182 
#
# Total GULP energy -490485.672870 kJ/mol
# GULP energy per Si atom -5573.700828 kJ/mol
# Density = 1.534213 g / cm^3
# Si number density = 15.377130 Si / 1000 Ang^3
#
#
#
# Elastic Constant Matrix: (Units=GPa)
#
#
# Indices 1 2 3 4 5 6 
#
# 1 54.2863 29.7347 37.2902 0.0000 0.0000 0.0000
# 2 29.7347 54.2863 37.2903 0.0000 0.0000 0.0000
# 3 37.2902 37.2903 127.1064 0.0000 0.0000 0.0000
# 4 0.0000 0.0000 0.0000 17.2984 0.0000 0.0000
# 5 0.0000 0.0000 0.0000 0.0000 17.2988 0.0000
# 6 0.0000 0.0000 0.0000 0.0000 0.0000 18.9637
#
#
#
# Elastic Compliance Matrix: (Units=1/GPa)
#
#
# Indices 1 2 3 4 5 6 
#
# 1 0.028412 -0.012319 -0.004721 0.000000 0.000000 0.000000
# 2 -0.012319 0.028412 -0.004721 0.000000 0.000000 0.000000
# 3 -0.004721 -0.004721 0.010638 0.000000 0.000000 0.000000
# 4 0.000000 0.000000 0.000000 0.057809 0.000000 0.000000
# 5 0.000000 0.000000 0.000000 0.000000 0.057807 0.000000
# 6 0.000000 0.000000 0.000000 0.000000 0.000000 0.052732
#
#
# Mechanical properties :
#
#
# Convention : Reuss Voigt Hill
#
# Bulk Modulus (GPa) = 41.77480 49.36770 45.57125
# Shear Modulus (GPa) = 17.40272 19.46977 18.43625
#
# Velocity S-wave (km/s) = 3.36777 3.56216 3.46633
# Velocity P-wave (km/s) = 6.50756 7.00664 6.76170
#
# Compressibility (1/GPa) = 0.02393788
#
# Stress axis : x y z
#
# Youngs Moduli (GPa) = 35.19699 35.19693 94.00614
#
# Poissons Ratio (x) = 0.43359 0.44382
# Poissons Ratio (y) = 0.43359 0.44382
# Poissons Ratio (z) = 0.16617 0.16617
#
# Static dielectric constant tensor:
#      x y z
#    x 1.489080 0.000000 0.000000 
#    y 0.000000 1.489080 0.000000 
#    z 0.000000 0.000000 1.571140 
# 
# From -- ./inp_files/6391.got.cif
#   From: 2010.05.17/outbox.cif.g08.bks.cpg/sg139_4_cif.got.tgz:6391.got - 2010.05.20 13:14:44.
