data_PCOD9571945
_publ_section_title
;
Structure prediction by ZEFSAII (Michael W. Deem and Ramdas Pophale) SiO2 
 PCOD9571945
Probable space group: I 4/M M M
;
_chemical_formula_sum "Si O2"
_cell_formula_units_Z 168
_cell_length_a 24.305683
_cell_length_b 24.305683
_cell_length_c 14.897120
_cell_angle_alpha 90.000000
_cell_angle_beta 90.000000
_cell_angle_gamma 90.000000
_cell_volume 8800.715362
_symmetry_space_group_name_H-M "I 4/M M M"
_symmetry_group_IT_number 139
_symmetry_cell_setting 'tetragonal'
loop_
_space_group_symop_operation_xyz
x,y,z
-y,x,z
-x,-y,z
y,-x,z
x,-y,-z
-x,y,-z
y,x,-z
-y,-x,-z
-x,-y,-z
y,-x,-z
x,y,-z
-y,x,-z
-x,y,z
x,-y,z
-y,-x,z
y,x,z
1/2+x,1/2+y,1/2+z
1/2-y,1/2+x,1/2+z
1/2-x,1/2-y,1/2+z
1/2+y,1/2-x,1/2+z
1/2+x,1/2-y,1/2-z
1/2-x,1/2+y,1/2-z
1/2+y,1/2+x,1/2-z
1/2-y,1/2-x,1/2-z
1/2-x,1/2-y,1/2-z
1/2+y,1/2-x,1/2-z
1/2+x,1/2+y,1/2-z
1/2-y,1/2+x,1/2-z
1/2-x,1/2+y,1/2+z
1/2+x,1/2-y,1/2+z
1/2-y,1/2-x,1/2+z
1/2+y,1/2+x,1/2+z
loop_
_atom_site_type_symbol
_atom_site_label
_atom_site_fract_x
_atom_site_fract_y
_atom_site_fract_z
Si Si1 0.500000 0.841895 0.338251
Si Si2 0.816079 0.909419 0.749298
Si Si3 0.500000 0.174224 0.129059
Si Si4 0.832882 0.278108 0.674754
Si Si5 0.500000 0.717102 0.394751
Si Si6 0.694200 0.500000 0.103253
Si Si7 0.113892 0.385732 0.398652
Si Si8 0.782838 0.217163 0.500000
O O1 0.500000 0.823517 0.235885
O O2 0.500000 0.783855 0.391060
O O3 0.445480 0.877405 0.356450
O O4 0.864953 0.864953 0.761703
O O5 0.760452 0.877912 0.721751
O O6 0.804835 0.947517 0.836658
O O7 0.825848 0.948272 0.662449
O O8 0.500000 0.238427 0.100539
O O9 0.552850 0.139322 0.100415
O O10 0.787455 0.287455 0.750000
O O11 0.852590 0.339180 0.652029
O O12 0.815604 0.250785 0.580771
O O13 0.500000 0.700452 0.500000
O O14 0.675500 0.500000 0.000000
O O15 0.134468 0.390366 0.500000
#
# Coordination Sequence:
#
# PCOD9571945 Si02
#       8
#    16  32  16  32  16  16  32   8
#     4  12  24  44  62  90 127 179 224 282 335 392
#     4  11  24  42  68 100 135 173 223 282 342 414
#     4  12  22  40  64  92 127 171 222 278 339 401
#     4  12  24  42  61  94 136 177 225 287 353 421
#     4  11  23  46  68  96 134 178 227 272 333 406
#     4  11  23  40  66  98 136 176 217 268 341 417
#     4  12  24  40  64  91 124 173 230 281 338 402
#     4  12  26  40  60  94 136 174 231 290 357 440
#
# _framework density 19.089357
#
# number of rings (size 3 to 8) (size 9 to 14) (size 15 to 20)
#    0.000    0.381    5.714    4.857    1.333    1.143 
#    1.714    1.905    0.000    4.571    0.000    5.333 
#    0.000    0.000    0.000    0.000    0.000    0.000 
#
# Total GULP energy -467953.862480 kJ/mol
# GULP energy per Si atom -5570.879315 kJ/mol
# Density = 1.904591 g / cm^3
# Si number density = 19.089357 Si / 1000 Ang^3
#
#
#
# Elastic Constant Matrix: (Units=GPa)
#
#
# Indices 1 2 3 4 5 6 
#
# 1 -19.6530 140.2771 33.4373 0.0000 0.0000 0.0000
# 2 140.2771 -19.6520 33.4372 0.0000 0.0000 0.0000
# 3 33.4373 33.4372 190.1092 0.0000 0.0000 0.0000
# 4 0.0000 0.0000 0.0000 31.8997 0.0000 0.0000
# 5 0.0000 0.0000 0.0000 0.0000 31.8998 0.0000
# 6 0.0000 0.0000 0.0000 0.0000 0.0000 30.0292
#
#
#
# Elastic Compliance Matrix: (Units=1/GPa)
#
#
# Indices 1 2 3 4 5 6 
#
# 1 0.001467 0.007719 -0.001616 0.000000 0.000000 0.000000
# 2 0.007719 0.001467 -0.001616 0.000000 0.000000 0.000000
# 3 -0.001616 -0.001616 0.005828 0.000000 0.000000 0.000000
# 4 0.000000 0.000000 0.000000 0.031348 0.000000 0.000000
# 5 0.000000 0.000000 0.000000 0.000000 0.031348 0.000000
# 6 0.000000 0.000000 0.000000 0.000000 0.000000 0.033301
#
#
# Mechanical properties :
#
#
# Convention : Reuss Voigt Hill
#
# Bulk Modulus (GPa) = 56.37726 62.78973 59.58349
# Shear Modulus (GPa) = 49.16639 15.00925 32.08782
#
# Velocity S-wave (km/s) = 5.08053 2.80708 4.10436
# Velocity P-wave (km/s) = 8.00083 6.59319 7.33087
#
# Compressibility (1/GPa) = 0.01773765
#
# Stress axis : x y z
#
# Youngs Moduli (GPa) = 681.87496 681.84669 171.57153
#
# Poissons Ratio (x) = -5.26340 0.27720
# Poissons Ratio (y) = -5.26362 0.27720
# Poissons Ratio (z) = 1.10167 1.10164
#
# Static dielectric constant tensor:
#      x y z
#    x 1.704500 0.000000 0.000000 
#    y 0.000000 1.704500 0.000000 
#    z 0.000000 0.000000 1.677500 
# 
# From -- ./inp_files/6199.got.cif
#   From: 2010.05.17/outbox.cif.g08.bks.cpg/sg139_4_cif.got.tgz:6199.got - 2010.05.20 13:14:44.
