data_PCOD9571443
_publ_section_title
;
Structure prediction by ZEFSAII (Michael W. Deem and Ramdas Pophale) SiO2 
 PCOD9571443
Probable space group: I 4/M M M
;
_chemical_formula_sum "Si O2"
_cell_formula_units_Z 176
_cell_length_a 27.885500
_cell_length_b 27.885500
_cell_length_c 13.838148
_cell_angle_alpha 90.000000
_cell_angle_beta 90.000000
_cell_angle_gamma 90.000000
_cell_volume 10760.559249
_symmetry_space_group_name_H-M "I 4/M M M"
_symmetry_group_IT_number 139
_symmetry_cell_setting 'tetragonal'
loop_
_space_group_symop_operation_xyz
x,y,z
-y,x,z
-x,-y,z
y,-x,z
x,-y,-z
-x,y,-z
y,x,-z
-y,-x,-z
-x,-y,-z
y,-x,-z
x,y,-z
-y,x,-z
-x,y,z
x,-y,z
-y,-x,z
y,x,z
1/2+x,1/2+y,1/2+z
1/2-y,1/2+x,1/2+z
1/2-x,1/2-y,1/2+z
1/2+y,1/2-x,1/2+z
1/2+x,1/2-y,1/2-z
1/2-x,1/2+y,1/2-z
1/2+y,1/2+x,1/2-z
1/2-y,1/2-x,1/2-z
1/2-x,1/2-y,1/2-z
1/2+y,1/2-x,1/2-z
1/2+x,1/2+y,1/2-z
1/2-y,1/2+x,1/2-z
1/2-x,1/2+y,1/2+z
1/2+x,1/2-y,1/2+z
1/2-y,1/2-x,1/2+z
1/2+y,1/2+x,1/2+z
loop_
_atom_site_type_symbol
_atom_site_label
_atom_site_fract_x
_atom_site_fract_y
_atom_site_fract_z
Si Si1 0.201527 0.275763 0.383268
Si Si2 0.000000 0.555412 0.117499
Si Si3 0.375955 0.914160 0.116231
Si Si4 0.856476 0.221645 0.883042
Si Si5 0.694610 0.095480 0.614839
Si Si6 0.554830 0.772731 0.300921
O O1 0.203373 0.275957 0.500000
O O2 0.227778 0.227778 0.349102
O O3 0.234389 0.320862 0.354550
O O4 0.146423 0.281258 0.359824
O O5 0.046248 0.585678 0.148130
O O6 0.000000 0.500000 0.146420
O O7 0.000000 0.555366 0.000000
O O8 0.395789 0.861393 0.138748
O O9 0.323299 0.926239 0.155363
O O10 0.371964 0.916046 0.000000
O O11 0.827070 0.172930 0.859730
O O12 0.907669 0.232286 0.835368
O O13 0.861529 0.223297 0.000000
O O14 0.698724 0.085955 0.500000
O O15 0.718659 0.057794 0.685827
O O16 0.500000 0.764408 0.331255
#
# Coordination Sequence:
#
# PCOD9571443 Si02
#       6
#    32  16  32  32  32  32
#     4   8  14  27  49  74  96 121 156 195 238 294
#     4   9  18  32  50  66  81 113 159 209 265 311
#     4  10  19  33  50  68  92 119 158 212 263 312
#     4   9  18  33  53  79 107 130 156 197 253 316
#     4  10  21  35  49  65  95 134 169 207 248 292
#     4  12  23  33  50  74 101 130 169 209 257 306
#
# _framework density 16.356026
#
# number of rings (size 3 to 8) (size 9 to 14) (size 15 to 20)
#    0.000    2.273    2.727    2.182    0.000    2.909 
#    0.000    3.636    0.000    0.000    0.000    0.000 
#    0.000    0.364    0.000    2.000    0.000    0.000 
#
# Total GULP energy -491238.362430 kJ/mol
# GULP energy per Si atom -5582.254119 kJ/mol
# Density = 1.631880 g / cm^3
# Si number density = 16.356026 Si / 1000 Ang^3
#
#
#
# Elastic Constant Matrix: (Units=GPa)
#
#
# Indices 1 2 3 4 5 6 
#
# 1 71.5794 43.1843 15.8035 0.0000 0.0000 0.0000
# 2 43.1843 71.5794 15.8035 0.0000 0.0000 0.0000
# 3 15.8035 15.8035 59.7207 0.0000 0.0000 0.0000
# 4 0.0000 0.0000 0.0000 13.7911 0.0000 0.0000
# 5 0.0000 0.0000 0.0000 0.0000 13.7911 0.0000
# 6 0.0000 0.0000 0.0000 0.0000 0.0000 18.9893
#
#
#
# Elastic Compliance Matrix: (Units=1/GPa)
#
#
# Indices 1 2 3 4 5 6 
#
# 1 0.022308 -0.012909 -0.002487 0.000000 0.000000 0.000000
# 2 -0.012909 0.022308 -0.002487 0.000000 0.000000 0.000000
# 3 -0.002487 -0.002487 0.018061 0.000000 0.000000 0.000000
# 4 0.000000 0.000000 0.000000 0.072511 0.000000 0.000000
# 5 0.000000 0.000000 0.000000 0.000000 0.072511 0.000000
# 6 0.000000 0.000000 0.000000 0.000000 0.000000 0.052661
#
#
# Mechanical properties :
#
#
# Convention : Reuss Voigt Hill
#
# Bulk Modulus (GPa) = 37.16140 39.16247 38.16193
# Shear Modulus (GPa) = 16.38829 17.85352 17.12090
#
# Velocity S-wave (km/s) = 3.16883 3.30745 3.23888
# Velocity P-wave (km/s) = 6.01317 6.21139 6.11309
#
# Compressibility (1/GPa) = 0.02690964
#
# Stress axis : x y z
#
# Youngs Moduli (GPa) = 44.82715 44.82715 55.36823
#
# Poissons Ratio (x) = 0.57869 0.13770
# Poissons Ratio (y) = 0.57869 0.13770
# Poissons Ratio (z) = 0.11149 0.11149
#
# Static dielectric constant tensor:
#      x y z
#    x 1.542820 0.000000 0.000000 
#    y 0.000000 1.542820 0.000000 
#    z 0.000000 0.000000 1.619610 
# 
# From -- ./inp_files/6416.got.cif
#   From: 2010.05.17/outbox.cif.g08.bks.cpg/sg139_4_cif.got.tgz:6416.got - 2010.05.20 13:14:44.
