data_PCOD9571861
_publ_section_title
;
Structure prediction by ZEFSAII (Michael W. Deem and Ramdas Pophale) SiO2 
 PCOD9571861
Probable space group: I 4/M M M
;
_chemical_formula_sum "Si O2"
_cell_formula_units_Z 160
_cell_length_a 31.488872
_cell_length_b 31.488872
_cell_length_c 8.592644
_cell_angle_alpha 90.000000
_cell_angle_beta 90.000000
_cell_angle_gamma 90.000000
_cell_volume 8520.028080
_symmetry_space_group_name_H-M "I 4/M M M"
_symmetry_group_IT_number 139
_symmetry_cell_setting 'tetragonal'
loop_
_space_group_symop_operation_xyz
x,y,z
-y,x,z
-x,-y,z
y,-x,z
x,-y,-z
-x,y,-z
y,x,-z
-y,-x,-z
-x,-y,-z
y,-x,-z
x,y,-z
-y,x,-z
-x,y,z
x,-y,z
-y,-x,z
y,x,z
1/2+x,1/2+y,1/2+z
1/2-y,1/2+x,1/2+z
1/2-x,1/2-y,1/2+z
1/2+y,1/2-x,1/2+z
1/2+x,1/2-y,1/2-z
1/2-x,1/2+y,1/2-z
1/2+y,1/2+x,1/2-z
1/2-y,1/2-x,1/2-z
1/2-x,1/2-y,1/2-z
1/2+y,1/2-x,1/2-z
1/2+x,1/2+y,1/2-z
1/2-y,1/2+x,1/2-z
1/2-x,1/2+y,1/2+z
1/2+x,1/2-y,1/2+z
1/2-y,1/2-x,1/2+z
1/2+y,1/2+x,1/2+z
loop_
_atom_site_type_symbol
_atom_site_label
_atom_site_fract_x
_atom_site_fract_y
_atom_site_fract_z
Si Si1 0.229795 0.876171 0.678184
Si Si2 0.882796 0.045626 0.000000
Si Si3 0.283447 0.283447 0.683889
Si Si4 0.952250 0.614682 0.187498
Si Si5 0.286649 0.951940 0.187739
Si Si6 0.356797 0.427246 0.828353
O O1 0.242841 0.869149 0.500000
O O2 0.228794 0.830928 0.761833
O O3 0.258788 0.913376 0.749122
O O4 0.182181 0.894654 0.679522
O O5 0.856987 0.048711 0.162697
O O6 0.915871 0.084130 0.000000
O O7 0.905001 0.000000 0.000000
O O8 0.282257 0.282257 0.500000
O O9 0.250000 0.250000 0.750000
O O10 0.916612 0.583389 0.250000
O O11 0.945983 0.663948 0.233436
O O12 0.000000 0.602086 0.237804
O O13 0.951365 0.613646 0.000000
O O14 0.273510 0.000000 0.238095
O O15 0.284582 0.951470 0.000000
O O16 0.400159 0.400159 0.831242
O O17 0.353514 0.448892 0.000000
#
# Coordination Sequence:
#
# PCOD9571861 Si02
#       6
#    32  16  16  32  32  32
#     4  11  22  38  61  86 118 154 192 244 300 352
#     4  10  22  37  58  86 118 154 202 248 303 371
#     4  12  26  42  64  90 122 160 204 247 292 359
#     4   9  19  36  56  79 109 144 183 229 279 332
#     4   9  20  38  57  81 115 155 197 240 293 355
#     4   9  19  36  58  83 114 152 196 246 299 354
#
# _framework density 18.77928
#
# number of rings (size 3 to 8) (size 9 to 14) (size 15 to 20)
#    0.000    2.200    1.000    2.700    2.800    3.900 
#    0.000    7.000    0.000    0.000    0.000    2.800 
#    0.000    0.000    0.000    0.000    0.000    0.000 
#
# Total GULP energy -445889.117257 kJ/mol
# GULP energy per Si atom -5573.613966 kJ/mol
# Density = 1.873654 g / cm^3
# Si number density = 18.779280 Si / 1000 Ang^3
#
#
#
# Elastic Constant Matrix: (Units=GPa)
#
#
# Indices 1 2 3 4 5 6 
#
# 1 92.9794 70.1181 57.0094 0.0000 0.0000 0.0000
# 2 70.1181 92.9774 57.0106 0.0000 0.0000 0.0000
# 3 57.0094 57.0106 133.5753 0.0000 0.0000 0.0000
# 4 0.0000 0.0000 0.0000 -233.2310 0.0000 0.0000
# 5 0.0000 0.0000 0.0000 0.0000 -233.6740 0.0000
# 6 0.0000 0.0000 0.0000 0.0000 0.0000 -1.3278
#
#
#
# Elastic Compliance Matrix: (Units=1/GPa)
#
#
# Indices 1 2 3 4 5 6 
#
# 1 0.026241 -0.017503 -0.003729 0.000000 0.000000 0.000000
# 2 -0.017503 0.026242 -0.003730 0.000000 0.000000 0.000000
# 3 -0.003729 -0.003730 0.010670 0.000000 0.000000 0.000000
# 4 0.000000 0.000000 0.000000 -0.004288 0.000000 0.000000
# 5 0.000000 0.000000 0.000000 0.000000 -0.004279 0.000000
# 6 0.000000 0.000000 0.000000 0.000000 0.000000 -0.753141
#
#
# Mechanical properties :
#
#
# Convention : Reuss Voigt Hill
#
# Bulk Modulus (GPa) = 75.59268 76.42312 76.00790
# Shear Modulus (GPa) = -7.76131 -84.62030 -46.19080
#
# Velocity S-wave (km/s) = -2.03516 -6.71999 -4.96488
# Velocity P-wave (km/s) = 5.90069 4.40764 2.77406
#
# Compressibility (1/GPa) = 0.01322879
#
# Stress axis : x y z
#
# Youngs Moduli (GPa) = 38.10860 38.10695 93.71988
#
# Poissons Ratio (x) = 0.66697 0.34951
# Poissons Ratio (y) = 0.66700 0.34959
# Poissons Ratio (z) = 0.14212 0.14214
#
# Static dielectric constant tensor:
#      x y z
#    x 1.641550 0.000000 0.000000 
#    y 0.000000 1.641550 0.000000 
#    z 0.000000 0.000000 1.683340 
# 
# From -- ./inp_files/2198.got.cif
#   From: 2010.05.17/outbox.cif.g08.bks.cpg/sg139_2_cif.got.tgz:2198.got - 2010.05.20 13:14:44.
