data_PCOD9571485
_publ_section_title
;
Structure prediction by ZEFSAII (Michael W. Deem and Ramdas Pophale) SiO2 
 PCOD9571485
Probable space group: I 4/M M M
;
_chemical_formula_sum "Si O2"
_cell_formula_units_Z 192
_cell_length_a 30.613447
_cell_length_b 30.613447
_cell_length_c 12.532555
_cell_angle_alpha 90.000000
_cell_angle_beta 90.000000
_cell_angle_gamma 90.000000
_cell_volume 11745.299212
_symmetry_space_group_name_H-M "I 4/M M M"
_symmetry_group_IT_number 139
_symmetry_cell_setting 'tetragonal'
loop_
_space_group_symop_operation_xyz
x,y,z
-y,x,z
-x,-y,z
y,-x,z
x,-y,-z
-x,y,-z
y,x,-z
-y,-x,-z
-x,-y,-z
y,-x,-z
x,y,-z
-y,x,-z
-x,y,z
x,-y,z
-y,-x,z
y,x,z
1/2+x,1/2+y,1/2+z
1/2-y,1/2+x,1/2+z
1/2-x,1/2-y,1/2+z
1/2+y,1/2-x,1/2+z
1/2+x,1/2-y,1/2-z
1/2-x,1/2+y,1/2-z
1/2+y,1/2+x,1/2-z
1/2-y,1/2-x,1/2-z
1/2-x,1/2-y,1/2-z
1/2+y,1/2-x,1/2-z
1/2+x,1/2+y,1/2-z
1/2-y,1/2+x,1/2-z
1/2-x,1/2+y,1/2+z
1/2+x,1/2-y,1/2+z
1/2-y,1/2-x,1/2+z
1/2+y,1/2+x,1/2+z
loop_
_atom_site_type_symbol
_atom_site_label
_atom_site_fract_x
_atom_site_fract_y
_atom_site_fract_z
Si Si1 0.051948 0.317527 0.000000
Si Si2 0.787543 0.950446 0.000000
Si Si3 0.719509 0.949771 0.623321
Si Si4 0.178506 0.386154 0.299189
Si Si5 0.256490 0.674470 0.628153
Si Si6 0.950080 0.174867 0.378898
Si Si7 0.172625 0.106555 0.182333
O O1 0.080308 0.330492 0.103779
O O2 0.052936 0.264634 0.000000
O O3 0.000000 0.330054 0.000000
O O4 0.806702 0.928241 0.104082
O O5 0.800459 0.000000 0.000000
O O6 0.706365 0.940975 0.500000
O O7 0.701777 0.914817 0.707084
O O8 0.772199 0.948875 0.625743
O O9 0.706537 0.000000 0.650158
O O10 0.135593 0.364408 0.250000
O O11 0.209556 0.345496 0.338771
O O12 0.260998 0.666745 0.500000
O O13 0.276100 0.723901 0.645152
O O14 0.289889 0.643187 0.691167
O O15 0.940057 0.161770 0.500000
O O16 0.915718 0.159792 0.292279
O O17 0.000000 0.161790 0.354303
O O18 0.131360 0.131360 0.133861
#
# Coordination Sequence:
#
# PCOD9571485 Si02
#       7
#    16  16  32  32  32  32  32
#     4  11  22  39  57  81 108 139 175 220 281 313
#     4  11  19  31  55  77  97 127 173 216 269 319
#     4   9  18  33  51  72 100 134 165 207 268 323
#     4  12  22  33  55  78 107 137 184 223 259 298
#     4  10  19  34  50  67 102 146 188 223 255 293
#     4   9  17  30  47  66  91 127 170 209 258 310
#     4  11  18  28  46  70 101 131 168 209 258 312
#
# _framework density 16.346965999999998
#
# number of rings (size 3 to 8) (size 9 to 14) (size 15 to 20)
#    0.000    1.667    5.000    2.250    1.167    3.333 
#    0.000    0.000    0.000    0.500    0.000    0.000 
#    0.000   21.667    0.000    7.333    0.000    0.000 
#
# Total GULP energy -534682.013770 kJ/mol
# GULP energy per Si atom -5569.604310 kJ/mol
# Density = 1.630976 g / cm^3
# Si number density = 16.346966 Si / 1000 Ang^3
#
#
#
# Elastic Constant Matrix: (Units=GPa)
#
#
# Indices 1 2 3 4 5 6 
#
# 1 49.5971 31.2040 28.4597 0.0000 0.0000 0.0000
# 2 31.2040 49.5917 28.4573 0.0000 0.0000 0.0000
# 3 28.4597 28.4573 72.0550 0.0000 0.0000 0.0000
# 4 0.0000 0.0000 0.0000 -10.3857 0.0000 0.0000
# 5 0.0000 0.0000 0.0000 0.0000 -10.3751 0.0000
# 6 0.0000 0.0000 0.0000 0.0000 0.0000 17.9362
#
#
#
# Elastic Compliance Matrix: (Units=1/GPa)
#
#
# Indices 1 2 3 4 5 6 
#
# 1 0.035760 -0.018614 -0.006773 0.000000 0.000000 0.000000
# 2 -0.018614 0.035763 -0.006772 0.000000 0.000000 0.000000
# 3 -0.006773 -0.006772 0.019228 0.000000 0.000000 0.000000
# 4 0.000000 0.000000 0.000000 -0.096286 0.000000 0.000000
# 5 0.000000 0.000000 0.000000 0.000000 -0.096385 0.000000
# 6 0.000000 0.000000 0.000000 0.000000 0.000000 0.055753
#
#
# Mechanical properties :
#
#
# Convention : Reuss Voigt Hill
#
# Bulk Modulus (GPa) = 37.83189 38.60952 38.22070
# Shear Modulus (GPa) = 185.44118 4.97661 95.20889
#
# Velocity S-wave (km/s) = 10.66241 1.74670 7.63996
# Velocity P-wave (km/s) = 13.22029 5.26669 10.06265
#
# Compressibility (1/GPa) = 0.02643273
#
# Stress axis : x y z
#
# Youngs Moduli (GPa) = 27.96422 27.96163 52.00790
#
# Poissons Ratio (x) = 0.52049 0.35223
# Poissons Ratio (y) = 0.52054 0.35220
# Poissons Ratio (z) = 0.18939 0.18936
#
# Static dielectric constant tensor:
#      x y z
#    x 1.550150 0.000000 0.000000 
#    y 0.000000 1.550150 0.000000 
#    z 0.000000 0.000000 1.571940 
# 
# From -- ./inp_files/4321.got.cif
#   From: 2010.05.17/outbox.cif.g08.bks.cpg/sg139_3_cif.got.tgz:4321.got - 2010.05.20 13:14:44.
