data_PCOD9571528
_publ_section_title
;
Structure prediction by ZEFSAII (Michael W. Deem and Ramdas Pophale) SiO2 
 PCOD9571528
Probable space group: I 4/M M M
;
_chemical_formula_sum "Si O2"
_cell_formula_units_Z 112
_cell_length_a 29.695600
_cell_length_b 29.695600
_cell_length_c 8.243339
_cell_angle_alpha 90.000000
_cell_angle_beta 90.000000
_cell_angle_gamma 90.000000
_cell_volume 7269.212579
_symmetry_space_group_name_H-M "I 4/M M M"
_symmetry_group_IT_number 139
_symmetry_cell_setting 'tetragonal'
loop_
_space_group_symop_operation_xyz
x,y,z
-y,x,z
-x,-y,z
y,-x,z
x,-y,-z
-x,y,-z
y,x,-z
-y,-x,-z
-x,-y,-z
y,-x,-z
x,y,-z
-y,x,-z
-x,y,z
x,-y,z
-y,-x,z
y,x,z
1/2+x,1/2+y,1/2+z
1/2-y,1/2+x,1/2+z
1/2-x,1/2-y,1/2+z
1/2+y,1/2-x,1/2+z
1/2+x,1/2-y,1/2-z
1/2-x,1/2+y,1/2-z
1/2+y,1/2+x,1/2-z
1/2-y,1/2-x,1/2-z
1/2-x,1/2-y,1/2-z
1/2+y,1/2-x,1/2-z
1/2+x,1/2+y,1/2-z
1/2-y,1/2+x,1/2-z
1/2-x,1/2+y,1/2+z
1/2+x,1/2-y,1/2+z
1/2-y,1/2-x,1/2+z
1/2+y,1/2+x,1/2+z
loop_
_atom_site_type_symbol
_atom_site_label
_atom_site_fract_x
_atom_site_fract_y
_atom_site_fract_z
Si Si1 0.445203 0.316608 0.820554
Si Si2 0.054216 0.873071 0.000000
Si Si3 0.551775 0.876112 0.194005
Si Si4 0.721877 0.054598 0.187273
O O1 0.500000 0.316673 0.820893
O O2 0.432496 0.345953 0.663560
O O3 0.430522 0.264930 0.790585
O O4 0.430585 0.332157 0.000000
O O5 0.079630 0.920371 0.000000
O O6 0.000000 0.877459 0.000000
O O7 0.500000 0.882473 0.251848
O O8 0.584013 0.915988 0.250000
O O9 0.568786 0.827532 0.255687
O O10 0.550915 0.874780 0.000000
O O11 0.721415 0.000000 0.197032
O O12 0.729142 0.066803 0.000000
#
# Coordination Sequence:
#
# PCOD9571528 Si02
#       4
#    32  16  32  32
#     4   9  16  28  47  69  92 120 154 195 242 282
#     4  10  20  33  48  70 100 132 165 195 225 267
#     4  10  20  31  42  59  85 121 161 199 240 286
#     4   9  15  26  45  66  87 112 145 190 246 292
#
# _framework density 15.407446999999999
#
# number of rings (size 3 to 8) (size 9 to 14) (size 15 to 20)
#    0.000    2.571    1.429    1.714    0.000    6.143 
#    0.000    1.429    0.000    0.000    0.000    4.000 
#    0.000    1.143    0.571    0.000    0.000    0.000 
#
# Total GULP energy -311797.194816 kJ/mol
# GULP energy per Si atom -5567.807050 kJ/mol
# Density = 1.537238 g / cm^3
# Si number density = 15.407447 Si / 1000 Ang^3
#
#
#
# Elastic Constant Matrix: (Units=GPa)
#
#
# Indices 1 2 3 4 5 6 
#
# 1 46.8006 28.1825 27.3051 0.0000 0.0000 0.0000
# 2 28.1825 46.7861 27.2999 0.0000 0.0000 0.0000
# 3 27.3051 27.2999 103.2723 0.0000 0.0000 0.0000
# 4 0.0000 0.0000 0.0000 9.0144 0.0000 0.0000
# 5 0.0000 0.0000 0.0000 0.0000 9.0121 0.0000
# 6 0.0000 0.0000 0.0000 0.0000 0.0000 -0.9928
#
#
#
# Elastic Compliance Matrix: (Units=1/GPa)
#
#
# Indices 1 2 3 4 5 6 
#
# 1 0.035120 -0.018607 -0.004367 0.000000 0.000000 0.000000
# 2 -0.018607 0.035130 -0.004367 0.000000 0.000000 0.000000
# 3 -0.004367 -0.004367 0.011992 0.000000 0.000000 0.000000
# 4 0.000000 0.000000 0.000000 0.110934 0.000000 0.000000
# 5 0.000000 0.000000 0.000000 0.000000 0.110961 0.000000
# 6 0.000000 0.000000 0.000000 0.000000 0.000000 -1.007254
#
#
# Mechanical properties :
#
#
# Convention : Reuss Voigt Hill
#
# Bulk Modulus (GPa) = 36.28381 40.27045 38.27713
# Shear Modulus (GPa) = -7.82168 11.01152 1.59492
#
# Velocity S-wave (km/s) = -2.25557 2.67627 1.01853
# Velocity P-wave (km/s) = 4.10088 5.97860 5.12644
#
# Compressibility (1/GPa) = 0.02756050
#
# Stress axis : x y z
#
# Youngs Moduli (GPa) = 28.47390 28.46547 83.38787
#
# Poissons Ratio (x) = 0.52966 0.36415
# Poissons Ratio (y) = 0.52981 0.36415
# Poissons Ratio (z) = 0.12434 0.12431
#
# Static dielectric constant tensor:
#      x y z
#    x 1.499650 0.000000 0.000000 
#    y 0.000000 1.499650 0.000000 
#    z 0.000000 0.000000 1.547130 
# 
# From -- ./inp_files/1685.got.cif
#   From: 2010.05.17/outbox.cif.g08.bks.cpg/sg139_1_cif.got.tgz:1685.got - 2010.05.20 13:14:44.
