data_PCOD9571218
_publ_section_title
;
Structure prediction by ZEFSAII (Michael W. Deem and Ramdas Pophale) SiO2 
 PCOD9571218
Probable space group: I 4/M M M
;
_chemical_formula_sum "Si O2"
_cell_formula_units_Z 240
_cell_length_a 23.833600
_cell_length_b 23.833600
_cell_length_c 28.097174
_cell_angle_alpha 90.000000
_cell_angle_beta 90.000000
_cell_angle_gamma 90.000000
_cell_volume 15960.332457
_symmetry_space_group_name_H-M "I 4/M M M"
_symmetry_group_IT_number 139
_symmetry_cell_setting 'tetragonal'
loop_
_space_group_symop_operation_xyz
x,y,z
-y,x,z
-x,-y,z
y,-x,z
x,-y,-z
-x,y,-z
y,x,-z
-y,-x,-z
-x,-y,-z
y,-x,-z
x,y,-z
-y,x,-z
-x,y,z
x,-y,z
-y,-x,z
y,x,z
1/2+x,1/2+y,1/2+z
1/2-y,1/2+x,1/2+z
1/2-x,1/2-y,1/2+z
1/2+y,1/2-x,1/2+z
1/2+x,1/2-y,1/2-z
1/2-x,1/2+y,1/2-z
1/2+y,1/2+x,1/2-z
1/2-y,1/2-x,1/2-z
1/2-x,1/2-y,1/2-z
1/2+y,1/2-x,1/2-z
1/2+x,1/2+y,1/2-z
1/2-y,1/2+x,1/2-z
1/2-x,1/2+y,1/2+z
1/2+x,1/2-y,1/2+z
1/2-y,1/2-x,1/2+z
1/2+y,1/2+x,1/2+z
loop_
_atom_site_type_symbol
_atom_site_label
_atom_site_fract_x
_atom_site_fract_y
_atom_site_fract_z
Si Si1 0.838756 0.435089 0.302785
Si Si2 0.115902 0.621602 0.556081
Si Si3 0.000000 0.565009 0.442094
Si Si4 0.935028 0.842445 0.555552
Si Si5 0.933408 0.276483 0.895275
Si Si6 0.435499 0.155458 0.807198
Si Si7 0.225615 0.565853 0.900445
Si Si8 0.159022 0.934065 0.056873
O O1 0.856350 0.500000 0.309749
O O2 0.787925 0.424552 0.339193
O O3 0.824080 0.428437 0.247200
O O4 0.890106 0.393547 0.314200
O O5 0.119177 0.611642 0.500000
O O6 0.058175 0.592606 0.574583
O O7 0.171940 0.597712 0.579335
O O8 0.105287 0.686412 0.567777
O O9 0.000000 0.500000 0.429553
O O10 0.000000 0.569917 0.500000
O O11 0.929018 0.824558 0.500000
O O12 0.893933 0.893933 0.563809
O O13 0.921912 0.790114 0.589373
O O14 0.000000 0.858343 0.562247
O O15 0.917181 0.215455 0.914881
O O16 0.000000 0.282057 0.905182
O O17 0.500000 0.134955 0.811769
O O18 0.427654 0.203483 0.846642
O O19 0.217020 0.500000 0.914108
O O20 0.107061 0.892940 0.067751
O O21 0.146882 0.000000 0.067006
O O22 0.170117 0.930002 0.000000
#
# Coordination Sequence:
#
# PCOD9571218 Si02
#       8
#    32  32  16  32  32  32  32  32
#     4   9  17  29  45  65  89 120 162 207 248 285
#     4  11  19  27  40  60  87 125 166 197 229 268
#     4   9  18  28  36  52  82 118 161 207 233 253
#     4   9  18  32  51  74  98 122 149 185 230 283
#     4  10  19  31  46  66  93 127 161 194 237 283
#     4   9  17  29  45  65  89 120 161 208 250 283
#     4  10  18  30  46  65  90 124 161 195 236 279
#     4   9  18  33  53  76 100 124 151 186 231 286
#
# _framework density 15.037281
#
# number of rings (size 3 to 8) (size 9 to 14) (size 15 to 20)
#    0.000    2.467    2.000    1.200    0.000    2.400 
#    0.000    3.333    0.000    3.200    0.000    1.867 
#    0.000    0.000    0.000   10.400    0.000    0.267 
#
# Total GULP energy -668489.116111 kJ/mol
# GULP energy per Si atom -5570.742634 kJ/mol
# Density = 1.500306 g / cm^3
# Si number density = 15.037281 Si / 1000 Ang^3
#
#
#
# Elastic Constant Matrix: (Units=GPa)
#
#
# Indices 1 2 3 4 5 6 
#
# 1 78.5347 58.7882 34.0352 0.0000 0.0000 0.0000
# 2 58.7882 78.5347 34.0352 0.0000 0.0000 0.0000
# 3 34.0352 34.0352 52.4679 0.0000 0.0000 0.0000
# 4 0.0000 0.0000 0.0000 18.3760 0.0000 0.0000
# 5 0.0000 0.0000 0.0000 0.0000 18.3760 0.0000
# 6 0.0000 0.0000 0.0000 0.0000 0.0000 19.8583
#
#
#
# Elastic Compliance Matrix: (Units=1/GPa)
#
#
# Indices 1 2 3 4 5 6 
#
# 1 0.030688 -0.019954 -0.006963 0.000000 0.000000 0.000000
# 2 -0.019954 0.030688 -0.006963 0.000000 0.000000 0.000000
# 3 -0.006963 -0.006963 0.028092 0.000000 0.000000 0.000000
# 4 0.000000 0.000000 0.000000 0.054419 0.000000 0.000000
# 5 0.000000 0.000000 0.000000 0.000000 0.054419 0.000000
# 6 0.000000 0.000000 0.000000 0.000000 0.000000 0.050357
#
#
# Mechanical properties :
#
#
# Convention : Reuss Voigt Hill
#
# Bulk Modulus (GPa) = 46.06439 51.47275 48.76857
# Shear Modulus (GPa) = 15.44844 16.83398 16.14121
#
# Velocity S-wave (km/s) = 3.20870 3.34950 3.27985
# Velocity P-wave (km/s) = 6.66540 7.01878 6.84437
#
# Compressibility (1/GPa) = 0.02170874
#
# Stress axis : x y z
#
# Youngs Moduli (GPa) = 32.58637 32.58637 35.59679
#
# Poissons Ratio (x) = 0.65024 0.24785
# Poissons Ratio (y) = 0.65024 0.24785
# Poissons Ratio (z) = 0.22689 0.22689
#
# Static dielectric constant tensor:
#      x y z
#    x 1.485590 0.000000 0.000000 
#    y 0.000000 1.485590 0.000000 
#    z 0.000000 0.000000 1.522450 
# 
# From -- ./inp_files/14629.got.cif
#   From: 2010.05.17/outbox.cif.g08.bks.cpg/sg139_8_cif.got.tgz:14629.got - 2010.05.20 13:14:44.
