data_PCOD9571216
_publ_section_title
;
Structure prediction by ZEFSAII (Michael W. Deem and Ramdas Pophale) SiO2 
 PCOD9571216
Probable space group: I 4/M M M
;
_chemical_formula_sum "Si O2"
_cell_formula_units_Z 160
_cell_length_a 21.595154
_cell_length_b 21.595154
_cell_length_c 15.159563
_cell_angle_alpha 90.000000
_cell_angle_beta 90.000000
_cell_angle_gamma 90.000000
_cell_volume 7069.672457
_symmetry_space_group_name_H-M "I 4/M M M"
_symmetry_group_IT_number 139
_symmetry_cell_setting 'tetragonal'
loop_
_space_group_symop_operation_xyz
x,y,z
-y,x,z
-x,-y,z
y,-x,z
x,-y,-z
-x,y,-z
y,x,-z
-y,-x,-z
-x,-y,-z
y,-x,-z
x,y,-z
-y,x,-z
-x,y,z
x,-y,z
-y,-x,z
y,x,z
1/2+x,1/2+y,1/2+z
1/2-y,1/2+x,1/2+z
1/2-x,1/2-y,1/2+z
1/2+y,1/2-x,1/2+z
1/2+x,1/2-y,1/2-z
1/2-x,1/2+y,1/2-z
1/2+y,1/2+x,1/2-z
1/2-y,1/2-x,1/2-z
1/2-x,1/2-y,1/2-z
1/2+y,1/2-x,1/2-z
1/2+x,1/2+y,1/2-z
1/2-y,1/2+x,1/2-z
1/2-x,1/2+y,1/2+z
1/2+x,1/2-y,1/2+z
1/2-y,1/2-x,1/2+z
1/2+y,1/2+x,1/2+z
loop_
_atom_site_type_symbol
_atom_site_label
_atom_site_fract_x
_atom_site_fract_y
_atom_site_fract_z
Si Si1 0.671130 0.571049 0.892145
Si Si2 0.675614 0.571943 0.606402
Si Si3 0.666102 0.768297 0.327739
Si Si4 0.434494 0.074082 0.603436
Si Si5 0.304157 0.885014 0.598886
O O1 0.660729 0.500000 0.866303
O O2 0.618221 0.618221 0.861199
O O3 0.738747 0.594162 0.861546
O O4 0.670547 0.573283 0.000000
O O5 0.684040 0.575513 0.500000
O O6 0.665751 0.500000 0.629925
O O7 0.616647 0.616647 0.626957
O O8 0.737565 0.600385 0.651115
O O9 0.710338 0.710338 0.313475
O O10 0.683839 0.816162 0.250000
O O11 0.690394 0.811139 0.406649
O O12 0.434874 0.093810 0.500000
O O13 0.500000 0.096123 0.643566
O O14 0.368831 0.093777 0.641006
O O15 0.435626 0.000000 0.604627
O O16 0.303866 0.912759 0.500000
#
# Coordination Sequence:
#
# PCOD9571216 Si02
#       5
#    32  32  32  32  32
#     4   9  17  28  43  65  92 122 158 202 252 304
#     4   9  18  34  58  88 121 157 198 246 301 362
#     4  10  21  36  52  73 105 143 180 221 275 341
#     4   8  14  25  42  66  95 124 154 191 238 293
#     4  10  18  29  49  74  97 124 165 216 266 320
#
# _framework density 22.631883999999999
#
# number of rings (size 3 to 8) (size 9 to 14) (size 15 to 20)
#    0.000    2.800    0.000    2.400    0.000    5.600 
#    0.000    6.000    0.000    0.000    0.000    1.400 
#    0.000    4.800    0.000    0.200    0.000    0.000 
#
# Total GULP energy -445722.086108 kJ/mol
# GULP energy per Si atom -5571.526076 kJ/mol
# Density = 2.258037 g / cm^3
# Si number density = 22.631884 Si / 1000 Ang^3
#
#
#
# Elastic Constant Matrix: (Units=GPa)
#
#
# Indices 1 2 3 4 5 6 
#
# 1 181.6411 102.4471 25.4012 0.0000 0.0000 0.0000
# 2 102.4471 181.6408 25.4017 0.0000 0.0000 0.0000
# 3 25.4012 25.4017 57.0326 0.0000 0.0000 0.0000
# 4 0.0000 0.0000 0.0000 7.5468 0.0000 0.0000
# 5 0.0000 0.0000 0.0000 0.0000 7.5479 0.0000
# 6 0.0000 0.0000 0.0000 0.0000 0.0000 36.0179
#
#
#
# Elastic Compliance Matrix: (Units=1/GPa)
#
#
# Indices 1 2 3 4 5 6 
#
# 1 0.008226 -0.004401 -0.001703 0.000000 0.000000 0.000000
# 2 -0.004401 0.008226 -0.001704 0.000000 0.000000 0.000000
# 3 -0.001703 -0.001704 0.019051 0.000000 0.000000 0.000000
# 4 0.000000 0.000000 0.000000 0.132507 0.000000 0.000000
# 5 0.000000 0.000000 0.000000 0.000000 0.132487 0.000000
# 6 0.000000 0.000000 0.000000 0.000000 0.000000 0.027764
#
#
# Mechanical properties :
#
#
# Convention : Reuss Voigt Hill
#
# Bulk Modulus (GPa) = 50.28471 80.75716 65.52094
# Shear Modulus (GPa) = 14.26511 28.02683 21.14597
#
# Velocity S-wave (km/s) = 2.51332 3.52288 3.06002
# Velocity P-wave (km/s) = 5.53978 7.23242 6.44194
#
# Compressibility (1/GPa) = 0.01988676
#
# Stress axis : x y z
#
# Youngs Moduli (GPa) = 121.56673 121.56624 52.49007
#
# Poissons Ratio (x) = 0.53505 0.08941
# Poissons Ratio (y) = 0.53505 0.08942
# Poissons Ratio (z) = 0.20707 0.20709
#
# Static dielectric constant tensor:
#      x y z
#    x 1.837840 0.000000 0.000000 
#    y 0.000000 1.837850 0.000000 
#    z 0.000000 0.000000 2.111900 
# 
# From -- ./inp_files/8406.got.cif
#   From: 2010.05.17/outbox.cif.g08.bks.cpg/sg139_5_cif.got.tgz:8406.got - 2010.05.20 13:14:44.
