data_PCOD9571680
_publ_section_title
;
Structure prediction by ZEFSAII (Michael W. Deem and Ramdas Pophale) SiO2 
 PCOD9571680
Probable space group: I 4/M M M
;
_chemical_formula_sum "Si O2"
_cell_formula_units_Z 160
_cell_length_a 30.067734
_cell_length_b 30.067734
_cell_length_c 7.462539
_cell_angle_alpha 90.000000
_cell_angle_beta 90.000000
_cell_angle_gamma 90.000000
_cell_volume 6746.647394
_symmetry_space_group_name_H-M "I 4/M M M"
_symmetry_group_IT_number 139
_symmetry_cell_setting 'tetragonal'
loop_
_space_group_symop_operation_xyz
x,y,z
-y,x,z
-x,-y,z
y,-x,z
x,-y,-z
-x,y,-z
y,x,-z
-y,-x,-z
-x,-y,-z
y,-x,-z
x,y,-z
-y,x,-z
-x,y,z
x,-y,z
-y,-x,z
y,x,z
1/2+x,1/2+y,1/2+z
1/2-y,1/2+x,1/2+z
1/2-x,1/2-y,1/2+z
1/2+y,1/2-x,1/2+z
1/2+x,1/2-y,1/2-z
1/2-x,1/2+y,1/2-z
1/2+y,1/2+x,1/2-z
1/2-y,1/2-x,1/2-z
1/2-x,1/2-y,1/2-z
1/2+y,1/2-x,1/2-z
1/2+x,1/2+y,1/2-z
1/2-y,1/2+x,1/2-z
1/2-x,1/2+y,1/2+z
1/2+x,1/2-y,1/2+z
1/2-y,1/2-x,1/2+z
1/2+y,1/2+x,1/2+z
loop_
_atom_site_type_symbol
_atom_site_label
_atom_site_fract_x
_atom_site_fract_y
_atom_site_fract_z
Si Si1 0.549101 0.310612 0.719903
Si Si2 0.950495 0.950495 0.782193
Si Si3 0.878229 0.878229 0.783424
Si Si4 0.550445 0.123785 0.285170
Si Si5 0.718928 0.081065 0.207949
Si Si6 0.321530 0.253056 0.212708
O O1 0.549876 0.312697 0.500000
O O2 0.500000 0.328782 0.770781
O O3 0.595239 0.334366 0.778725
O O4 0.552871 0.259853 0.782378
O O5 0.914918 0.914918 0.732577
O O6 0.000000 0.939563 0.722495
O O7 0.950973 0.950973 0.000000
O O8 0.874295 0.874295 0.000000
O O9 0.548063 0.126843 0.500000
O O10 0.500000 0.118713 0.217870
O O11 0.582475 0.082475 0.250000
O O12 0.572017 0.170066 0.216384
O O13 0.632122 0.235026 0.285479
O O14 0.716478 0.068128 0.000000
O O15 0.299638 0.299638 0.280360
O O16 0.284507 0.215494 0.250000
O O17 0.326709 0.257423 0.000000
#
# Coordination Sequence:
#
# PCOD9571680 Si02
#       6
#    32  16  16  32  32  32
#     4   9  17  28  43  67 101 141 186 234 282 333
#     4   8  12  17  26  42  70 112 158 205 262 324
#     4   9  15  22  35  58  88 126 175 228 276 325
#     4  10  22  40  61  87 118 151 188 231 283 340
#     4  10  20  34  56  81 112 151 190 230 276 333
#     4  10  21  36  54  79 112 149 188 232 278 324
#
# _framework density 23.715484
#
# number of rings (size 3 to 8) (size 9 to 14) (size 15 to 20)
#    0.000    2.500    0.000    2.700    1.400    9.000 
#    0.000    1.000    0.000    1.800    0.000    0.000 
#    0.000    0.000    0.000    0.000    0.000    3.000 
#
# Total GULP energy -446520.445839 kJ/mol
# GULP energy per Si atom -5581.505573 kJ/mol
# Density = 2.366151 g / cm^3
# Si number density = 23.715484 Si / 1000 Ang^3
#
#
#
# Elastic Constant Matrix: (Units=GPa)
#
#
# Indices 1 2 3 4 5 6 
#
# 1 167.9244 89.8123 1.1979 0.0000 0.0000 0.0000
# 2 89.8123 167.9234 1.1962 0.0000 0.0000 0.0000
# 3 1.1979 1.1962 73.8529 0.0000 0.0000 0.0000
# 4 0.0000 0.0000 0.0000 0.8586 0.0000 0.0000
# 5 0.0000 0.0000 0.0000 0.0000 0.8579 0.0000
# 6 0.0000 0.0000 0.0000 0.0000 0.0000 32.4151
#
#
#
# Elastic Compliance Matrix: (Units=1/GPa)
#
#
# Indices 1 2 3 4 5 6 
#
# 1 0.008341 -0.004461 -0.000063 0.000000 0.000000 0.000000
# 2 -0.004461 0.008341 -0.000063 0.000000 0.000000 0.000000
# 3 -0.000063 -0.000063 0.013542 0.000000 0.000000 0.000000
# 4 0.000000 0.000000 0.000000 1.164702 0.000000 0.000000
# 5 0.000000 0.000000 0.000000 0.000000 1.165589 0.000000
# 6 0.000000 0.000000 0.000000 0.000000 0.000000 0.030850
#
#
# Mechanical properties :
#
#
# Convention : Reuss Voigt Hill
#
# Bulk Modulus (GPa) = 47.50158 66.01259 56.75709
# Shear Modulus (GPa) = 2.07680 27.99261 15.03470
#
# Velocity S-wave (km/s) = 0.93681 3.43935 2.52059
# Velocity P-wave (km/s) = 4.60906 6.60817 5.69698
#
# Compressibility (1/GPa) = 0.02105193
#
# Stress axis : x y z
#
# Youngs Moduli (GPa) = 119.88486 119.88419 73.84174
#
# Poissons Ratio (x) = 0.53478 0.00466
# Poissons Ratio (y) = 0.53479 0.00463
# Poissons Ratio (z) = 0.00756 0.00752
#
# Static dielectric constant tensor:
#      x y z
#    x 1.909520 0.000000 0.000000 
#    y 0.000000 1.909510 0.000000 
#    z 0.000000 0.000000 1.983620 
# 
# From -- ./inp_files/3911.got.cif
#   From: 2010.05.17/outbox.cif.g08.bks.cpg/sg139_2_cif.got.tgz:3911.got - 2010.05.20 13:14:44.
