data_PCOD9571049
_publ_section_title
;
Structure prediction by ZEFSAII (Michael W. Deem and Ramdas Pophale) SiO2 
 PCOD9571049
Probable space group: P 42/N C M
;
_chemical_formula_sum "Si O2"
_cell_formula_units_Z 96
_cell_length_a 15.895896
_cell_length_b 15.895896
_cell_length_c 19.043300
_cell_angle_alpha 90.000000
_cell_angle_beta 90.000000
_cell_angle_gamma 90.000000
_cell_volume 4811.851706
_symmetry_space_group_name_H-M "P 42/N C M"
_symmetry_group_IT_number 138
_space_group.IT_coordinate_system_code '2'
_symmetry_cell_setting 'tetragonal'
loop_
_space_group_symop_operation_xyz
x,y,z
1/2-y,x,1/2+z
1/2-x,1/2-y,z
y,1/2-x,1/2+z
1/2+x,-y,1/2-z
-x,1/2+y,1/2-z
1/2+y,1/2+x,-z
-y,-x,-z
-x,-y,-z
1/2+y,-x,1/2-z
1/2+x,1/2+y,-z
-y,1/2+x,1/2-z
1/2-x,y,1/2+z
x,1/2-y,1/2+z
1/2-y,1/2-x,z
y,x,z
loop_
_atom_site_type_symbol
_atom_site_label
_atom_site_fract_x
_atom_site_fract_y
_atom_site_fract_z
Si Si1 0.074816 0.292884 0.753586
Si Si2 0.749725 0.887905 0.097395
Si Si3 0.554129 0.805124 0.451451
Si Si4 0.675071 0.368426 0.252882
Si Si5 0.345591 0.478007 0.653703
Si Si6 0.541169 0.090428 0.652699
O O1 0.166750 0.333251 0.744974
O O2 0.061317 0.285257 0.836391
O O3 0.065333 0.203039 0.718534
O O4 0.013244 0.355198 0.710203
O O5 0.674520 0.825481 0.071836
O O6 0.824667 0.824667 0.120766
O O7 0.785102 0.942148 0.033340
O O8 0.639716 0.860285 0.435356
O O9 0.543859 0.717139 0.410296
O O10 0.479607 0.863135 0.420198
O O11 0.774348 0.360314 0.242910
O O12 0.653712 0.425349 0.320730
O O13 0.633194 0.408560 0.183851
O O14 0.435821 0.435821 0.643658
O O15 0.501385 0.998616 0.650045
#
# Coordination Sequence:
#
# PCOD9571049 Si02
#       6
#    16  16  16  16  16  16
#     4   9  17  30  48  75 110 137 164 199 251 310
#     4   9  16  26  44  72 107 144 166 190 245 316
#     4   9  17  30  48  75 110 137 164 199 251 310
#     4  11  21  35  53  76  99 129 175 220 261 298
#     4  11  20  31  51  80 104 129 170 214 258 303
#     4   9  17  33  53  76 101 130 167 213 260 297
#
# _framework density 19.95074
#
# number of rings (size 3 to 8) (size 9 to 14) (size 15 to 20)
#    0.000    2.333    3.333    3.000    0.000    2.667 
#    0.000    0.000    0.000    2.000    0.000   11.667 
#    0.000    0.000    0.000    0.000    0.000    0.000 
#
# Total GULP energy -535107.454531 kJ/mol
# GULP energy per Si atom -5574.035985 kJ/mol
# Density = 1.990533 g / cm^3
# Si number density = 19.950740 Si / 1000 Ang^3
#
#
#
# Elastic Constant Matrix: (Units=GPa)
#
#
# Indices 1 2 3 4 5 6 
#
# 1 5.3569 40.9673 -14.4744 0.0000 0.0000 0.0000
# 2 40.9673 5.3569 -14.4744 0.0000 0.0000 0.0000
# 3 -14.4744 -14.4744 56.6217 0.0000 0.0000 0.0000
# 4 0.0000 0.0000 0.0000 7.0471 0.0000 0.0000
# 5 0.0000 0.0000 0.0000 0.0000 7.0471 0.0000
# 6 0.0000 0.0000 0.0000 0.0000 0.0000 14.2603
#
#
#
# Elastic Compliance Matrix: (Units=1/GPa)
#
#
# Indices 1 2 3 4 5 6 
#
# 1 -0.001195 0.026886 0.006568 0.000000 0.000000 0.000000
# 2 0.026886 -0.001195 0.006568 0.000000 0.000000 0.000000
# 3 0.006568 0.006568 0.021019 0.000000 0.000000 0.000000
# 4 0.000000 0.000000 0.000000 0.141901 0.000000 0.000000
# 5 0.000000 0.000000 0.000000 0.000000 0.141901 0.000000
# 6 0.000000 0.000000 0.000000 0.000000 0.000000 0.070125
#
#
# Mechanical properties :
#
#
# Convention : Reuss Voigt Hill
#
# Bulk Modulus (GPa) = 10.13468 10.15251 10.14360
# Shear Modulus (GPa) = 15.36554 9.35872 12.36213
#
# Velocity S-wave (km/s) = 2.77821 2.16820 2.49194
# Velocity P-wave (km/s) = 3.92201 3.37164 3.65719
#
# Compressibility (1/GPa) = 0.09867108
#
# Stress axis : x y z
#
# Youngs Moduli (GPa) = -836.61853 -836.61853 47.57638
#
# Poissons Ratio (x) = 22.49365 -0.31246
# Poissons Ratio (y) = 22.49365 -0.31246
# Poissons Ratio (z) = 5.49450 5.49450
#
# Static dielectric constant tensor:
#      x y z
#    x 1.743320 0.000000 0.000000 
#    y 0.000000 1.743320 0.000000 
#    z 0.000000 0.000000 1.705830 
# 
# From -- ./inp_files/6391.got.cif
#   From: 2010.05.17/outbox.cif.g08.bks.cpg/sg138_4_cif.got.tgz:6391.got - 2010.05.20 13:08:53.
