data_PCOD9571211
_publ_section_title
;
Structure prediction by ZEFSAII (Michael W. Deem and Ramdas Pophale) SiO2 
 PCOD9571211
Probable space group: I 4/M M M
;
_chemical_formula_sum "Si O2"
_cell_formula_units_Z 192
_cell_length_a 29.917860
_cell_length_b 29.917860
_cell_length_c 15.942242
_cell_angle_alpha 90.000000
_cell_angle_beta 90.000000
_cell_angle_gamma 90.000000
_cell_volume 14269.555617
_symmetry_space_group_name_H-M "I 4/M M M"
_symmetry_group_IT_number 139
_symmetry_cell_setting 'tetragonal'
loop_
_space_group_symop_operation_xyz
x,y,z
-y,x,z
-x,-y,z
y,-x,z
x,-y,-z
-x,y,-z
y,x,-z
-y,-x,-z
-x,-y,-z
y,-x,-z
x,y,-z
-y,x,-z
-x,y,z
x,-y,z
-y,-x,z
y,x,z
1/2+x,1/2+y,1/2+z
1/2-y,1/2+x,1/2+z
1/2-x,1/2-y,1/2+z
1/2+y,1/2-x,1/2+z
1/2+x,1/2-y,1/2-z
1/2-x,1/2+y,1/2-z
1/2+y,1/2+x,1/2-z
1/2-y,1/2-x,1/2-z
1/2-x,1/2-y,1/2-z
1/2+y,1/2-x,1/2-z
1/2+x,1/2+y,1/2-z
1/2-y,1/2+x,1/2-z
1/2-x,1/2+y,1/2+z
1/2+x,1/2-y,1/2+z
1/2-y,1/2-x,1/2+z
1/2+y,1/2+x,1/2+z
loop_
_atom_site_type_symbol
_atom_site_label
_atom_site_fract_x
_atom_site_fract_y
_atom_site_fract_z
Si Si1 0.550584 0.931223 0.096186
Si Si2 0.247552 0.175933 0.240161
Si Si3 0.670585 0.949605 0.358967
Si Si4 0.949617 0.646057 0.835825
Si Si5 0.136467 0.278089 0.406716
Si Si6 0.866286 0.699141 0.905623
O O1 0.500000 0.942639 0.125290
O O2 0.553630 0.877379 0.096352
O O3 0.592641 0.947175 0.150082
O O4 0.555499 0.946798 0.000000
O O5 0.201918 0.201918 0.220866
O O6 0.285643 0.214358 0.250000
O O7 0.247274 0.151704 0.330027
O O8 0.264553 0.143319 0.166574
O O9 0.658800 0.941702 0.261090
O O10 0.705049 0.913664 0.392226
O O11 0.687218 0.000000 0.368579
O O12 0.910690 0.670479 0.887184
O O13 0.000000 0.660259 0.858878
O O14 0.142706 0.259220 0.500000
O O15 0.165728 0.323782 0.401900
O O16 0.868083 0.717710 0.000000
#
# Coordination Sequence:
#
# PCOD9571211 Si02
#       6
#    32  32  32  32  32  32
#     4  10  20  31  42  57  75  98 133 173 212 254
#     4   9  18  31  46  63  83 101 121 153 195 247
#     4  10  19  30  44  59  77 102 134 169 202 245
#     4  11  21  31  44  59  77 104 138 172 209 252
#     4  10  18  29  47  64  81 103 127 159 201 247
#     4  10  19  30  45  62  81 104 131 161 198 246
#
# _framework density 13.455219
#
# number of rings (size 3 to 8) (size 9 to 14) (size 15 to 20)
#    0.000    2.000    3.333    1.500    0.000    3.333 
#    0.000    4.167    0.000    3.000    0.000    0.000 
#    0.000    0.000    0.000    0.000    0.000    0.000 
#
# Total GULP energy -535383.374488 kJ/mol
# GULP energy per Si atom -5576.910151 kJ/mol
# Density = 1.342459 g / cm^3
# Si number density = 13.455219 Si / 1000 Ang^3
#
#
#
# Elastic Constant Matrix: (Units=GPa)
#
#
# Indices 1 2 3 4 5 6 
#
# 1 34.6531 23.7178 27.1542 0.0000 0.0000 0.0000
# 2 23.7178 34.6528 27.1540 0.0000 0.0000 0.0000
# 3 27.1542 27.1540 86.2094 0.0000 0.0000 0.0000
# 4 0.0000 0.0000 0.0000 2.7697 0.0000 0.0000
# 5 0.0000 0.0000 0.0000 0.0000 2.7697 0.0000
# 6 0.0000 0.0000 0.0000 0.0000 0.0000 12.9480
#
#
#
# Elastic Compliance Matrix: (Units=1/GPa)
#
#
# Indices 1 2 3 4 5 6 
#
# 1 0.057841 -0.033607 -0.007633 0.000000 0.000000 0.000000
# 2 -0.033607 0.057841 -0.007633 0.000000 0.000000 0.000000
# 3 -0.007633 -0.007633 0.016408 0.000000 0.000000 0.000000
# 4 0.000000 0.000000 0.000000 0.361049 0.000000 0.000000
# 5 0.000000 0.000000 0.000000 0.000000 0.361053 0.000000
# 6 0.000000 0.000000 0.000000 0.000000 0.000000 0.077232
#
#
# Mechanical properties :
#
#
# Convention : Reuss Voigt Hill
#
# Bulk Modulus (GPa) = 29.11784 34.61859 31.86821
# Shear Modulus (GPa) = 4.80483 8.86343 6.83413
#
# Velocity S-wave (km/s) = 1.89175 2.56937 2.25615
# Velocity P-wave (km/s) = 5.14385 5.88105 5.52476
#
# Compressibility (1/GPa) = 0.03434321
#
# Stress axis : x y z
#
# Youngs Moduli (GPa) = 17.28887 17.28871 60.94525
#
# Poissons Ratio (x) = 0.58103 0.46520
# Poissons Ratio (y) = 0.58103 0.46520
# Poissons Ratio (z) = 0.13197 0.13197
#
# Static dielectric constant tensor:
#      x y z
#    x 1.424650 0.000000 0.000000 
#    y 0.000000 1.424650 0.000000 
#    z 0.000000 0.000000 1.492650 
# 
# From -- ./inp_files/6618.got.cif
#   From: 2010.05.17/outbox.cif.g08.bks.cpg/sg139_4_cif.got.tgz:6618.got - 2010.05.20 13:14:44.
