data_PCOD9571425
_publ_section_title
;
Structure prediction by ZEFSAII (Michael W. Deem and Ramdas Pophale) SiO2 
 PCOD9571425
Probable space group: I 4/M M M
;
_chemical_formula_sum "Si O2"
_cell_formula_units_Z 192
_cell_length_a 19.564622
_cell_length_b 19.564622
_cell_length_c 26.896479
_cell_angle_alpha 90.000000
_cell_angle_beta 90.000000
_cell_angle_gamma 90.000000
_cell_volume 10295.284526
_symmetry_space_group_name_H-M "I 4/M M M"
_symmetry_group_IT_number 139
_symmetry_cell_setting 'tetragonal'
loop_
_space_group_symop_operation_xyz
x,y,z
-y,x,z
-x,-y,z
y,-x,z
x,-y,-z
-x,y,-z
y,x,-z
-y,-x,-z
-x,-y,-z
y,-x,-z
x,y,-z
-y,x,-z
-x,y,z
x,-y,z
-y,-x,z
y,x,z
1/2+x,1/2+y,1/2+z
1/2-y,1/2+x,1/2+z
1/2-x,1/2-y,1/2+z
1/2+y,1/2-x,1/2+z
1/2+x,1/2-y,1/2-z
1/2-x,1/2+y,1/2-z
1/2+y,1/2+x,1/2-z
1/2-y,1/2-x,1/2-z
1/2-x,1/2-y,1/2-z
1/2+y,1/2-x,1/2-z
1/2+x,1/2+y,1/2-z
1/2-y,1/2+x,1/2-z
1/2-x,1/2+y,1/2+z
1/2+x,1/2-y,1/2+z
1/2-y,1/2-x,1/2+z
1/2+y,1/2+x,1/2+z
loop_
_atom_site_type_symbol
_atom_site_label
_atom_site_fract_x
_atom_site_fract_y
_atom_site_fract_z
Si Si1 0.418892 0.779768 0.349154
Si Si2 0.919587 0.805082 0.648454
Si Si3 0.746844 0.138517 0.745749
Si Si4 0.921706 0.420093 0.389976
Si Si5 0.715014 0.081865 0.445736
Si Si6 0.694051 0.418340 0.443928
O O1 0.500000 0.773404 0.348864
O O2 0.392707 0.742813 0.300091
O O3 0.404744 0.860971 0.351469
O O4 0.394736 0.744907 0.400356
O O5 0.872629 0.872629 0.651622
O O6 0.909544 0.760498 0.698694
O O7 0.894962 0.760181 0.601116
O O8 0.000000 0.821142 0.643058
O O9 0.800568 0.199433 0.737919
O O10 0.672661 0.172661 0.750000
O O11 0.915091 0.500000 0.405004
O O12 0.910180 0.365223 0.433430
O O13 0.000000 0.410392 0.371877
O O14 0.732290 0.110786 0.500000
O O15 0.726234 0.000000 0.447655
O O16 0.720963 0.406073 0.500000
O O17 0.682915 0.500000 0.439280
O O18 0.624177 0.375824 0.439105
#
# Coordination Sequence:
#
# PCOD9571425 Si02
#       6
#    32  32  32  32  32  32
#     4  10  19  32  52  75 102 136 170 207 253 303
#     4  10  21  37  57  81 110 144 184 230 277 327
#     4  10  20  34  53  76 102 134 174 217 262 318
#     4   9  18  32  51  77 106 137 176 217 259 316
#     4   9  18  33  53  76 103 136 173 218 274 330
#     4   9  18  32  50  74 104 137 173 212 253 298
#
# _framework density 18.649315000000001
#
# number of rings (size 3 to 8) (size 9 to 14) (size 15 to 20)
#    0.000    2.500    0.000    2.000    0.000    1.667 
#    0.000    5.833    0.000    1.000    0.000    9.333 
#    0.000    0.000    0.000    0.000    0.000    0.000 
#
# Total GULP energy -534500.484355 kJ/mol
# GULP energy per Si atom -5567.713379 kJ/mol
# Density = 1.860687 g / cm^3
# Si number density = 18.649315 Si / 1000 Ang^3
#
#
#
# Elastic Constant Matrix: (Units=GPa)
#
#
# Indices 1 2 3 4 5 6 
#
# 1 55.1255 26.3267 33.7599 0.0000 0.0000 0.0000
# 2 26.3267 55.1255 33.7599 0.0000 0.0000 0.0000
# 3 33.7599 33.7599 129.3186 0.0000 0.0000 0.0000
# 4 0.0000 0.0000 0.0000 20.6756 0.0000 0.0000
# 5 0.0000 0.0000 0.0000 0.0000 20.6756 0.0000
# 6 0.0000 0.0000 0.0000 0.0000 0.0000 10.7378
#
#
#
# Elastic Compliance Matrix: (Units=1/GPa)
#
#
# Indices 1 2 3 4 5 6 
#
# 1 0.025196 -0.009528 -0.004090 0.000000 0.000000 0.000000
# 2 -0.009528 0.025196 -0.004090 0.000000 0.000000 0.000000
# 3 -0.004090 -0.004090 0.009868 0.000000 0.000000 0.000000
# 4 0.000000 0.000000 0.000000 0.048366 0.000000 0.000000
# 5 0.000000 0.000000 0.000000 0.000000 0.048366 0.000000
# 6 0.000000 0.000000 0.000000 0.000000 0.000000 0.093129
#
#
# Mechanical properties :
#
#
# Convention : Reuss Voigt Hill
#
# Bulk Modulus (GPa) = 40.25278 47.47364 43.86321
# Shear Modulus (GPa) = 17.01728 20.13268 18.57498
#
# Velocity S-wave (km/s) = 3.02402 3.28920 3.15939
# Velocity P-wave (km/s) = 5.81583 6.31952 6.07290
#
# Compressibility (1/GPa) = 0.02484301
#
# Stress axis : x y z
#
# Youngs Moduli (GPa) = 39.68934 39.68934 101.33332
#
# Poissons Ratio (x) = 0.37816 0.41448
# Poissons Ratio (y) = 0.37816 0.41448
# Poissons Ratio (z) = 0.16234 0.16234
#
# Static dielectric constant tensor:
#      x y z
#    x 1.649840 0.000000 0.000000 
#    y 0.000000 1.649840 0.000000 
#    z 0.000000 0.000000 1.690340 
# 
# From -- ./inp_files/11912.got.cif
#   From: 2010.05.17/outbox.cif.g08.bks.cpg/sg139_6_cif.got.tgz:11912.got - 2010.05.20 13:14:44.
