data_PCOD9571107
_publ_section_title
;
Structure prediction by ZEFSAII (Michael W. Deem and Ramdas Pophale) SiO2 
 PCOD9571107
Probable space group: P 42/N C M
;
_chemical_formula_sum "Si O2"
_cell_formula_units_Z 48
_cell_length_a 14.344774
_cell_length_b 14.344774
_cell_length_c 12.052313
_cell_angle_alpha 90.000000
_cell_angle_beta 90.000000
_cell_angle_gamma 90.000000
_cell_volume 2480.035072
_symmetry_space_group_name_H-M "P 42/N C M"
_symmetry_group_IT_number 138
_space_group.IT_coordinate_system_code '2'
_symmetry_cell_setting 'tetragonal'
loop_
_space_group_symop_operation_xyz
x,y,z
1/2-y,x,1/2+z
1/2-x,1/2-y,z
y,1/2-x,1/2+z
1/2+x,-y,1/2-z
-x,1/2+y,1/2-z
1/2+y,1/2+x,-z
-y,-x,-z
-x,-y,-z
1/2+y,-x,1/2-z
1/2+x,1/2+y,-z
-y,1/2+x,1/2-z
1/2-x,y,1/2+z
x,1/2-y,1/2+z
1/2-y,1/2-x,z
y,x,z
loop_
_atom_site_type_symbol
_atom_site_label
_atom_site_fract_x
_atom_site_fract_y
_atom_site_fract_z
Si Si1 0.177364 0.177364 0.664517
Si Si2 0.082749 0.926534 0.867548
Si Si3 0.991613 0.774863 0.713226
Si Si4 0.075770 0.075770 0.463567
O O1 0.250000 0.250000 0.611620
O O2 0.104952 0.234899 0.738868
O O3 0.121682 0.121682 0.571290
O O4 0.041573 0.835866 0.807653
O O5 0.185345 0.949543 0.823615
O O6 0.084238 0.915763 0.000000
O O7 0.012753 0.012753 0.841155
O O8 0.971260 0.843997 0.611249
O O9 0.000000 0.000000 0.500000
#
# Coordination Sequence:
#
# PCOD9571107 Si02
#       4
#     8  16  16   8
#     4  12  24  40  69 105 138 181 244 301 352 420
#     4  11  24  45  71 102 143 188 235 295 363 428
#     4  12  24  45  70 103 142 189 236 298 359 426
#     4  12  26  44  69 105 145 189 237 297 363 414
#
# _framework density 19.354564
#
# number of rings (size 3 to 8) (size 9 to 14) (size 15 to 20)
#    0.000    0.333    5.000    4.000    2.333    3.333 
#    0.000    1.667    0.000    0.000    0.000    0.000 
#    0.000    0.000    0.000    0.000    0.000    0.000 
#
# Total GULP energy -268693.046075 kJ/mol
# GULP energy per Si atom -5597.771793 kJ/mol
# Density = 1.931051 g / cm^3
# Si number density = 19.354564 Si / 1000 Ang^3
#
#
#
# Elastic Constant Matrix: (Units=GPa)
#
#
# Indices 1 2 3 4 5 6 
#
# 1 230.3357 31.0613 78.2171 0.0000 0.0000 0.0000
# 2 31.0613 230.3390 78.2184 0.0000 0.0000 0.0000
# 3 78.2171 78.2184 114.8330 0.0000 0.0000 0.0000
# 4 0.0000 0.0000 0.0000 41.8684 0.0000 0.0000
# 5 0.0000 0.0000 0.0000 0.0000 41.8689 0.0000
# 6 0.0000 0.0000 0.0000 0.0000 0.0000 64.4483
#
#
#
# Elastic Compliance Matrix: (Units=1/GPa)
#
#
# Indices 1 2 3 4 5 6 
#
# 1 0.005738 0.000720 -0.004399 0.000000 0.000000 0.000000
# 2 0.000720 0.005738 -0.004399 0.000000 0.000000 0.000000
# 3 -0.004399 -0.004399 0.014701 0.000000 0.000000 0.000000
# 4 0.000000 0.000000 0.000000 0.023884 0.000000 0.000000
# 5 0.000000 0.000000 0.000000 0.000000 0.023884 0.000000
# 6 0.000000 0.000000 0.000000 0.000000 0.000000 0.015516
#
#
# Mechanical properties :
#
#
# Convention : Reuss Voigt Hill
#
# Bulk Modulus (GPa) = 99.78557 105.61125 102.69841
# Shear Modulus (GPa) = 45.88919 55.50452 50.69686
#
# Velocity S-wave (km/s) = 4.87455 5.36097 5.12354
# Velocity P-wave (km/s) = 9.12963 9.64391 9.39029
#
# Compressibility (1/GPa) = 0.01002149
#
# Stress axis : x y z
#
# Youngs Moduli (GPa) = 174.27160 174.27314 68.02314
#
# Poissons Ratio (x) = -0.12547 0.29923
# Poissons Ratio (y) = -0.12547 0.29923
# Poissons Ratio (z) = 0.76660 0.76661
#
# Static dielectric constant tensor:
#      x y z
#    x 1.650660 0.000000 0.000000 
#    y 0.000000 1.650660 0.000000 
#    z 0.000000 0.000000 1.653810 
# 
# From -- ./inp_files/2393.got.cif
#   From: 2010.05.17/outbox.cif.g08.bks.cpg/sg138_2_cif.got.tgz:2393.got - 2010.05.20 13:08:53.
