data_PCOD9571671
_publ_section_title
;
Structure prediction by ZEFSAII (Michael W. Deem and Ramdas Pophale) SiO2 
 PCOD9571671
Probable space group: I 4/M M M
;
_chemical_formula_sum "Si O2"
_cell_formula_units_Z 128
_cell_length_a 16.641025
_cell_length_b 16.641025
_cell_length_c 21.443189
_cell_angle_alpha 90.000000
_cell_angle_beta 90.000000
_cell_angle_gamma 90.000000
_cell_volume 5938.127518
_symmetry_space_group_name_H-M "I 4/M M M"
_symmetry_group_IT_number 139
_symmetry_cell_setting 'tetragonal'
loop_
_space_group_symop_operation_xyz
x,y,z
-y,x,z
-x,-y,z
y,-x,z
x,-y,-z
-x,y,-z
y,x,-z
-y,-x,-z
-x,-y,-z
y,-x,-z
x,y,-z
-y,x,-z
-x,y,z
x,-y,z
-y,-x,z
y,x,z
1/2+x,1/2+y,1/2+z
1/2-y,1/2+x,1/2+z
1/2-x,1/2-y,1/2+z
1/2+y,1/2-x,1/2+z
1/2+x,1/2-y,1/2-z
1/2-x,1/2+y,1/2-z
1/2+y,1/2+x,1/2-z
1/2-y,1/2-x,1/2-z
1/2-x,1/2-y,1/2-z
1/2+y,1/2-x,1/2-z
1/2+x,1/2+y,1/2-z
1/2-y,1/2+x,1/2-z
1/2-x,1/2+y,1/2+z
1/2+x,1/2-y,1/2+z
1/2-y,1/2-x,1/2+z
1/2+y,1/2+x,1/2+z
loop_
_atom_site_type_symbol
_atom_site_label
_atom_site_fract_x
_atom_site_fract_y
_atom_site_fract_z
Si Si1 0.390231 0.909588 0.571650
Si Si2 0.410452 0.775673 0.246442
Si Si3 0.086333 0.209743 0.608459
Si Si4 0.776773 0.090363 0.115865
O O1 0.415450 0.907267 0.500000
O O2 0.294877 0.913381 0.576031
O O3 0.407452 0.820114 0.599800
O O4 0.414921 0.000000 0.597125
O O5 0.500000 0.812395 0.244927
O O6 0.343103 0.843103 0.250000
O O7 0.401613 0.727888 0.182097
O O8 0.405621 0.723494 0.308843
O O9 0.156468 0.156468 0.583525
O O10 0.000000 0.170154 0.600877
O O11 0.835750 0.164251 0.093895
O O12 0.804300 0.000000 0.096509
#
# Coordination Sequence:
#
# PCOD9571671 Si02
#       4
#    32  32  32  32
#     4  10  22  40  62  89 118 150 193 247 306 362
#     4  10  20  34  55  86 119 153 194 242 300 358
#     4  10  20  34  54  81 114 152 192 236 289 350
#     4  11  24  40  62  91 123 163 206 249 300 358
#
# _framework density 21.555616000000001
#
# number of rings (size 3 to 8) (size 9 to 14) (size 15 to 20)
#    0.000    1.750    2.500    1.500    0.000    4.750 
#    0.000    3.750    0.000    4.500    0.000    5.250 
#    0.000    0.000    0.000    0.000    0.000    0.000 
#
# Total GULP energy -356358.941905 kJ/mol
# GULP energy per Si atom -5568.108467 kJ/mol
# Density = 2.150655 g / cm^3
# Si number density = 21.555616 Si / 1000 Ang^3
#
#
#
# Elastic Constant Matrix: (Units=GPa)
#
#
# Indices 1 2 3 4 5 6 
#
# 1 112.6508 102.2027 6.6354 0.0000 0.0000 0.0000
# 2 102.2027 112.6508 6.6354 0.0000 0.0000 0.0000
# 3 6.6354 6.6354 60.3849 0.0000 0.0000 0.0000
# 4 0.0000 0.0000 0.0000 88.8144 0.0000 0.0000
# 5 0.0000 0.0000 0.0000 0.0000 88.8144 0.0000
# 6 0.0000 0.0000 0.0000 0.0000 0.0000 -453.2966
#
#
#
# Elastic Compliance Matrix: (Units=1/GPa)
#
#
# Indices 1 2 3 4 5 6 
#
# 1 0.050199 -0.045512 -0.000515 0.000000 0.000000 0.000000
# 2 -0.045512 0.050199 -0.000515 0.000000 0.000000 0.000000
# 3 -0.000515 -0.000515 0.016674 0.000000 0.000000 0.000000
# 4 0.000000 0.000000 0.000000 0.011259 0.000000 0.000000
# 5 0.000000 0.000000 0.000000 0.000000 0.011259 0.000000
# 6 0.000000 0.000000 0.000000 0.000000 0.000000 -0.002206
#
#
# Mechanical properties :
#
#
# Convention : Reuss Voigt Hill
#
# Bulk Modulus (GPa) = 41.69076 57.40372 49.54724
# Shear Modulus (GPa) = 20.96756 -43.78605 -11.40925
#
# Velocity S-wave (km/s) = 3.12223 -4.51189 -2.30313
# Velocity P-wave (km/s) = 5.69041 0.67420 3.99539
#
# Compressibility (1/GPa) = 0.02398613
#
# Stress axis : x y z
#
# Youngs Moduli (GPa) = 19.92088 19.92088 59.97504
#
# Poissons Ratio (x) = 0.90665 0.03088
# Poissons Ratio (y) = 0.90665 0.03088
# Poissons Ratio (z) = 0.01026 0.01026
#
# Static dielectric constant tensor:
#      x y z
#    x 1.805500 0.000000 0.000000 
#    y 0.000000 1.805500 0.000000 
#    z 0.000000 0.000000 1.799220 
# 
# From -- ./inp_files/11317.got.cif
#   From: 2010.05.17/outbox.cif.g08.bks.cpg/sg139_6_cif.got.tgz:11317.got - 2010.05.20 13:14:44.
