data_PCOD9571495
_publ_section_title
;
Structure prediction by ZEFSAII (Michael W. Deem and Ramdas Pophale) SiO2 
 PCOD9571495
Probable space group: I 4/M M M
;
_chemical_formula_sum "Si O2"
_cell_formula_units_Z 176
_cell_length_a 19.436023
_cell_length_b 19.436023
_cell_length_c 26.177562
_cell_angle_alpha 90.000000
_cell_angle_beta 90.000000
_cell_angle_gamma 90.000000
_cell_volume 9888.809383
_symmetry_space_group_name_H-M "I 4/M M M"
_symmetry_group_IT_number 139
_symmetry_cell_setting 'tetragonal'
loop_
_space_group_symop_operation_xyz
x,y,z
-y,x,z
-x,-y,z
y,-x,z
x,-y,-z
-x,y,-z
y,x,-z
-y,-x,-z
-x,-y,-z
y,-x,-z
x,y,-z
-y,x,-z
-x,y,z
x,-y,z
-y,-x,z
y,x,z
1/2+x,1/2+y,1/2+z
1/2-y,1/2+x,1/2+z
1/2-x,1/2-y,1/2+z
1/2+y,1/2-x,1/2+z
1/2+x,1/2-y,1/2-z
1/2-x,1/2+y,1/2-z
1/2+y,1/2+x,1/2-z
1/2-y,1/2-x,1/2-z
1/2-x,1/2-y,1/2-z
1/2+y,1/2-x,1/2-z
1/2+x,1/2+y,1/2-z
1/2-y,1/2+x,1/2-z
1/2-x,1/2+y,1/2+z
1/2+x,1/2-y,1/2+z
1/2-y,1/2-x,1/2+z
1/2+y,1/2+x,1/2+z
loop_
_atom_site_type_symbol
_atom_site_label
_atom_site_fract_x
_atom_site_fract_y
_atom_site_fract_z
Si Si1 0.804433 0.919545 0.145616
Si Si2 0.696243 0.078363 0.646064
Si Si3 0.304337 0.418799 0.941635
Si Si4 0.135374 0.752515 0.746093
Si Si5 0.083254 0.421203 0.000000
Si Si6 0.661196 0.081168 0.102539
O O1 0.868081 0.868081 0.138056
O O2 0.770224 0.901361 0.200599
O O3 0.743055 0.907722 0.104809
O O4 0.823816 0.000000 0.144531
O O5 0.748453 0.100008 0.601032
O O6 0.733718 0.085255 0.700091
O O7 0.629497 0.126022 0.644280
O O8 0.675582 0.000000 0.636102
O O9 0.320122 0.500000 0.935524
O O10 0.371297 0.371297 0.935744
O O11 0.278453 0.409200 0.000000
O O12 0.180794 0.819207 0.732129
O O13 0.190067 0.690067 0.750000
O O14 0.100659 0.377498 0.949820
O O15 0.110577 0.500000 0.000000
O O16 0.000000 0.426465 0.000000
O O17 0.649835 0.000000 0.111953
#
# Coordination Sequence:
#
# PCOD9571495 Si02
#       6
#    32  32  32  32  16  32
#     4  10  21  38  60  84 112 145 186 238 290 343
#     4  11  21  32  52  78 108 141 179 226 273 324
#     4   9  19  34  51  75 106 139 177 220 266 317
#     4  10  19  34  55  77 104 141 186 228 274 335
#     4   9  18  34  55  78 107 145 185 222 263 316
#     4  10  21  36  55  79 108 145 186 223 268 330
#
# _framework density 17.797896000000001
#
# number of rings (size 3 to 8) (size 9 to 14) (size 15 to 20)
#    0.000    2.091    1.818    1.636    1.273    2.182 
#    0.000    1.364    0.000    0.000    0.000    2.545 
#    0.000    3.636    0.000    0.000    0.000    0.000 
#
# Total GULP energy -490761.009920 kJ/mol
# GULP energy per Si atom -5576.829658 kJ/mol
# Density = 1.775739 g / cm^3
# Si number density = 17.797896 Si / 1000 Ang^3
#
#
#
# Elastic Constant Matrix: (Units=GPa)
#
#
# Indices 1 2 3 4 5 6 
#
# 1 91.5986 60.5124 37.5242 0.0000 0.0000 0.0000
# 2 60.5124 91.5986 37.5242 0.0000 0.0000 0.0000
# 3 37.5242 37.5242 62.8247 0.0000 0.0000 0.0000
# 4 0.0000 0.0000 0.0000 25.6423 0.0000 0.0000
# 5 0.0000 0.0000 0.0000 0.0000 25.6423 0.0000
# 6 0.0000 0.0000 0.0000 0.0000 0.0000 27.2413
#
#
#
# Elastic Compliance Matrix: (Units=1/GPa)
#
#
# Indices 1 2 3 4 5 6 
#
# 1 0.020745 -0.011424 -0.005567 0.000000 0.000000 0.000000
# 2 -0.011424 0.020745 -0.005567 0.000000 0.000000 0.000000
# 3 -0.005567 -0.005567 0.022568 0.000000 0.000000 0.000000
# 4 0.000000 0.000000 0.000000 0.038998 0.000000 0.000000
# 5 0.000000 0.000000 0.000000 0.000000 0.038998 0.000000
# 6 0.000000 0.000000 0.000000 0.000000 0.000000 0.036709
#
#
# Mechanical properties :
#
#
# Convention : Reuss Voigt Hill
#
# Bulk Modulus (GPa) = 52.79653 57.46039 55.12846
# Shear Modulus (GPa) = 21.72096 23.06927 22.39511
#
# Velocity S-wave (km/s) = 3.49725 3.60416 3.55110
# Velocity P-wave (km/s) = 6.78502 7.04804 6.91778
#
# Compressibility (1/GPa) = 0.01894064
#
# Stress axis : x y z
#
# Youngs Moduli (GPa) = 48.20499 48.20499 44.31102
#
# Poissons Ratio (x) = 0.55069 0.24669
# Poissons Ratio (y) = 0.55069 0.24669
# Poissons Ratio (z) = 0.26837 0.26837
#
# Static dielectric constant tensor:
#      x y z
#    x 1.593400 0.000000 0.000000 
#    y 0.000000 1.593400 0.000000 
#    z 0.000000 0.000000 1.627960 
# 
# From -- ./inp_files/13136.got.cif
#   From: 2010.05.17/outbox.cif.g08.bks.cpg/sg139_7_cif.got.tgz:13136.got - 2010.05.20 13:14:44.
