data_PCOD9571093
_publ_section_title
;
Structure prediction by ZEFSAII (Michael W. Deem and Ramdas Pophale) SiO2 
 PCOD9571093
Probable space group: P 42/N C M
;
_chemical_formula_sum "Si O2"
_cell_formula_units_Z 64
_cell_length_a 12.201455
_cell_length_b 12.201455
_cell_length_c 22.342661
_cell_angle_alpha 90.000000
_cell_angle_beta 90.000000
_cell_angle_gamma 90.000000
_cell_volume 3326.274920
_symmetry_space_group_name_H-M "P 42/N C M"
_symmetry_group_IT_number 138
_space_group.IT_coordinate_system_code '2'
_symmetry_cell_setting 'tetragonal'
loop_
_space_group_symop_operation_xyz
x,y,z
1/2-y,x,1/2+z
1/2-x,1/2-y,z
y,1/2-x,1/2+z
1/2+x,-y,1/2-z
-x,1/2+y,1/2-z
1/2+y,1/2+x,-z
-y,-x,-z
-x,-y,-z
1/2+y,-x,1/2-z
1/2+x,1/2+y,-z
-y,1/2+x,1/2-z
1/2-x,y,1/2+z
x,1/2-y,1/2+z
1/2-y,1/2-x,z
y,x,z
loop_
_atom_site_type_symbol
_atom_site_label
_atom_site_fract_x
_atom_site_fract_y
_atom_site_fract_z
Si Si1 0.289317 0.582121 0.273323
Si Si2 0.660022 0.839979 0.273832
Si Si3 0.264806 0.554658 0.017697
Si Si4 0.159111 0.340890 0.582965
Si Si5 0.946589 0.368406 0.907758
O O1 0.168546 0.627873 0.258074
O O2 0.307183 0.459927 0.249382
O O3 0.315601 0.579104 0.343904
O O4 0.750000 0.750000 0.254656
O O5 0.657603 0.842398 0.345493
O O6 0.313999 0.458698 0.056766
O O7 0.165765 0.599141 0.058837
O O8 0.350634 0.649367 0.000000
O O9 0.216562 0.504986 0.955997
O O10 0.250000 0.250000 0.565038
O O11 0.027512 0.472489 0.901123
#
# Coordination Sequence:
#
# PCOD9571093 Si02
#       5
#    16   8  16   8  16
#     4  11  26  43  70  99 137 185 236 288 356 422
#     4  11  26  47  71 103 141 186 234 292 353 425
#     4  11  24  39  67  98 132 171 229 281 341 402
#     4  11  23  43  65  93 135 179 219 279 347 411
#     4  11  22  43  66  95 129 177 223 281 341 420
#
# _framework density 19.240743999999999
#
# number of rings (size 3 to 8) (size 9 to 14) (size 15 to 20)
#    0.000    1.000    1.250    6.375   12.250    2.000 
#    2.250    0.000    0.000    0.000    0.000    0.000 
#    0.000    0.000    0.000    0.000    0.000    0.000 
#
# Total GULP energy -357612.054982 kJ/mol
# GULP energy per Si atom -5587.688359 kJ/mol
# Density = 1.919695 g / cm^3
# Si number density = 19.240744 Si / 1000 Ang^3
#
#
#
# Elastic Constant Matrix: (Units=GPa)
#
#
# Indices 1 2 3 4 5 6 
#
# 1 119.4377 68.5144 59.1185 0.0000 0.0000 0.0000
# 2 68.5144 119.4387 59.1190 0.0000 0.0000 0.0000
# 3 59.1185 59.1190 163.5077 0.0000 0.0000 0.0000
# 4 0.0000 0.0000 0.0000 32.5383 0.0000 0.0000
# 5 0.0000 0.0000 0.0000 0.0000 32.5389 0.0000
# 6 0.0000 0.0000 0.0000 0.0000 0.0000 26.9861
#
#
#
# Elastic Compliance Matrix: (Units=1/GPa)
#
#
# Indices 1 2 3 4 5 6 
#
# 1 0.013262 -0.006375 -0.002490 0.000000 0.000000 0.000000
# 2 -0.006375 0.013262 -0.002490 0.000000 0.000000 0.000000
# 3 -0.002490 -0.002490 0.007917 0.000000 0.000000 0.000000
# 4 0.000000 0.000000 0.000000 0.030733 0.000000 0.000000
# 5 0.000000 0.000000 0.000000 0.000000 0.030732 0.000000
# 6 0.000000 0.000000 0.000000 0.000000 0.000000 0.037056
#
#
# Mechanical properties :
#
#
# Convention : Reuss Voigt Hill
#
# Bulk Modulus (GPa) = 85.25042 86.20977 85.73009
# Shear Modulus (GPa) = 31.33167 32.78814 32.05990
#
# Velocity S-wave (km/s) = 4.03972 4.13255 4.08640
# Velocity P-wave (km/s) = 8.13404 8.22641 8.18035
#
# Compressibility (1/GPa) = 0.01173015
#
# Stress axis : x y z
#
# Youngs Moduli (GPa) = 75.40267 75.40317 126.31721
#
# Poissons Ratio (x) = 0.48070 0.31454
# Poissons Ratio (y) = 0.48070 0.31454
# Poissons Ratio (z) = 0.18776 0.18776
#
# Static dielectric constant tensor:
#      x y z
#    x 4.214800 0.000000 0.000000 
#    y 0.000000 4.214460 0.000000 
#    z 0.000000 0.000000 1.645700 
# 
# From -- ./inp_files/6784.got.cif
#   From: 2010.05.17/outbox.cif.g08.bks.cpg/sg138_4_cif.got.tgz:6784.got - 2010.05.20 13:08:53.
