data_PCOD9571901
_publ_section_title
;
Structure prediction by ZEFSAII (Michael W. Deem and Ramdas Pophale) SiO2 
 PCOD9571901
Probable space group: I 4/M M M
;
_chemical_formula_sum "Si O2"
_cell_formula_units_Z 104
_cell_length_a 18.620018
_cell_length_b 18.620018
_cell_length_c 15.338497
_cell_angle_alpha 90.000000
_cell_angle_beta 90.000000
_cell_angle_gamma 90.000000
_cell_volume 5317.934681
_symmetry_space_group_name_H-M "I 4/M M M"
_symmetry_group_IT_number 139
_symmetry_cell_setting 'tetragonal'
loop_
_space_group_symop_operation_xyz
x,y,z
-y,x,z
-x,-y,z
y,-x,z
x,-y,-z
-x,y,-z
y,x,-z
-y,-x,-z
-x,-y,-z
y,-x,-z
x,y,-z
-y,x,-z
-x,y,z
x,-y,z
-y,-x,z
y,x,z
1/2+x,1/2+y,1/2+z
1/2-y,1/2+x,1/2+z
1/2-x,1/2-y,1/2+z
1/2+y,1/2-x,1/2+z
1/2+x,1/2-y,1/2-z
1/2-x,1/2+y,1/2-z
1/2+y,1/2+x,1/2-z
1/2-y,1/2-x,1/2-z
1/2-x,1/2-y,1/2-z
1/2+y,1/2-x,1/2-z
1/2+x,1/2+y,1/2-z
1/2-y,1/2+x,1/2-z
1/2-x,1/2+y,1/2+z
1/2+x,1/2-y,1/2+z
1/2-y,1/2-x,1/2+z
1/2+y,1/2+x,1/2+z
loop_
_atom_site_type_symbol
_atom_site_label
_atom_site_fract_x
_atom_site_fract_y
_atom_site_fract_z
Si Si1 0.500000 0.919651 0.602703
Si Si2 0.082914 0.917087 0.298075
Si Si3 0.693039 0.306962 0.298668
Si Si4 0.665685 0.859139 0.148471
Si Si5 0.893246 0.893246 0.500000
Si Si6 0.584044 0.775294 0.000000
O O1 0.500000 0.929033 0.500000
O O2 0.432308 0.872055 0.624750
O O3 0.500000 0.000000 0.642254
O O4 0.141583 0.858418 0.260888
O O5 0.081899 0.918102 0.404074
O O6 0.000000 0.899944 0.270801
O O7 0.750000 0.250000 0.250000
O O8 0.748200 0.353449 0.356414
O O9 0.649851 0.850150 0.250000
O O10 0.626483 0.802459 0.085353
O O11 0.911968 0.809625 0.500000
O O12 0.500000 0.799392 0.000000
#
# Coordination Sequence:
#
# PCOD9571901 Si02
#       6
#    16  16  16  32   8  16
#     4  11  24  42  60  93 134 168 215 273 328 399
#     4  11  24  42  66  97 136 173 221 281 336 397
#     4  10  23  44  63  94 124 168 223 271 324 392
#     4  11  24  40  65  88 127 172 220 265 328 389
#     4  12  22  35  64  92 130 170 216 257 336 398
#     4  12  24  41  62  94 134 171 214 274 322 394
#
# _framework density 19.556463999999998
#
# number of rings (size 3 to 8) (size 9 to 14) (size 15 to 20)
#    0.000    0.923    1.538    6.923    6.462    0.615 
#    0.000    0.000    0.000    0.000    0.000    0.000 
#    0.000    3.692    0.000    0.000    0.000    0.000 
#
# Total GULP energy -289737.515388 kJ/mol
# GULP energy per Si atom -5571.875296 kJ/mol
# Density = 1.951195 g / cm^3
# Si number density = 19.556464 Si / 1000 Ang^3
#
#
#
# Elastic Constant Matrix: (Units=GPa)
#
#
# Indices 1 2 3 4 5 6 
#
# 1 144.5945 76.0889 42.3309 0.0000 0.0000 0.0000
# 2 76.0889 144.5945 42.3311 0.0000 0.0000 0.0000
# 3 42.3309 42.3311 107.4687 0.0000 0.0000 0.0000
# 4 0.0000 0.0000 0.0000 87.6419 0.0000 0.0000
# 5 0.0000 0.0000 0.0000 0.0000 87.6262 0.0000
# 6 0.0000 0.0000 0.0000 0.0000 0.0000 26.5288
#
#
#
# Elastic Compliance Matrix: (Units=1/GPa)
#
#
# Indices 1 2 3 4 5 6 
#
# 1 0.009968 -0.004630 -0.002103 0.000000 0.000000 0.000000
# 2 -0.004630 0.009968 -0.002103 0.000000 0.000000 0.000000
# 3 -0.002103 -0.002103 0.010961 0.000000 0.000000 0.000000
# 4 0.000000 0.000000 0.000000 0.011410 0.000000 0.000000
# 5 0.000000 0.000000 0.000000 0.000000 0.011412 0.000000
# 6 0.000000 0.000000 0.000000 0.000000 0.000000 0.037695
#
#
# Mechanical properties :
#
#
# Convention : Reuss Voigt Hill
#
# Bulk Modulus (GPa) = 75.60260 79.79550 77.69905
# Shear Modulus (GPa) = 44.05577 56.08651 50.07114
#
# Velocity S-wave (km/s) = 4.75146 5.36111 5.06547
# Velocity P-wave (km/s) = 8.29725 8.90018 8.60400
#
# Compressibility (1/GPa) = 0.01322706
#
# Stress axis : x y z
#
# Youngs Moduli (GPa) = 100.32435 100.32423 91.22898
#
# Poissons Ratio (x) = 0.46447 0.19182
# Poissons Ratio (y) = 0.46447 0.19182
# Poissons Ratio (z) = 0.21094 0.21094
#
# Static dielectric constant tensor:
#      x y z
#    x 1.792740 0.000000 0.000000 
#    y 0.000000 1.792740 0.000000 
#    z 0.000000 0.000000 1.667590 
# 
# From -- ./inp_files/7489.got.cif
#   From: 2010.05.17/outbox.cif.g08.bks.cpg/sg139_4_cif.got.tgz:7489.got - 2010.05.20 13:14:44.
