data_PCOD9571955
_publ_section_title
;
Structure prediction by ZEFSAII (Michael W. Deem and Ramdas Pophale) SiO2 
 PCOD9571955
Probable space group: I 4/M M M
;
_chemical_formula_sum "Si O2"
_cell_formula_units_Z 240
_cell_length_a 28.697713
_cell_length_b 28.697713
_cell_length_c 14.447823
_cell_angle_alpha 90.000000
_cell_angle_beta 90.000000
_cell_angle_gamma 90.000000
_cell_volume 11898.630782
_symmetry_space_group_name_H-M "I 4/M M M"
_symmetry_group_IT_number 139
_symmetry_cell_setting 'tetragonal'
loop_
_space_group_symop_operation_xyz
x,y,z
-y,x,z
-x,-y,z
y,-x,z
x,-y,-z
-x,y,-z
y,x,-z
-y,-x,-z
-x,-y,-z
y,-x,-z
x,y,-z
-y,x,-z
-x,y,z
x,-y,z
-y,-x,z
y,x,z
1/2+x,1/2+y,1/2+z
1/2-y,1/2+x,1/2+z
1/2-x,1/2-y,1/2+z
1/2+y,1/2-x,1/2+z
1/2+x,1/2-y,1/2-z
1/2-x,1/2+y,1/2-z
1/2+y,1/2+x,1/2-z
1/2-y,1/2-x,1/2-z
1/2-x,1/2-y,1/2-z
1/2+y,1/2-x,1/2-z
1/2+x,1/2+y,1/2-z
1/2-y,1/2+x,1/2-z
1/2-x,1/2+y,1/2+z
1/2+x,1/2-y,1/2+z
1/2-y,1/2-x,1/2+z
1/2+y,1/2+x,1/2+z
loop_
_atom_site_type_symbol
_atom_site_label
_atom_site_fract_x
_atom_site_fract_y
_atom_site_fract_z
Si Si1 0.556535 0.000000 0.106866
Si Si2 0.126002 0.947483 0.636605
Si Si3 0.119898 0.688072 0.613526
Si Si4 0.947484 0.231471 0.390352
Si Si5 0.447781 0.627477 0.643577
Si Si6 0.303824 0.226822 0.612932
Si Si7 0.124225 0.199429 0.111152
Si Si8 0.445542 0.897664 0.113647
O O1 0.569424 0.050453 0.146019
O O2 0.500000 0.000000 0.107076
O O3 0.572202 0.000000 0.000000
O O4 0.087964 0.912037 0.600458
O O5 0.178548 0.931073 0.619768
O O6 0.119862 0.950185 0.746761
O O7 0.121731 0.000000 0.600524
O O8 0.120833 0.687835 0.500000
O O9 0.088707 0.731364 0.646757
O O10 0.173305 0.694890 0.643331
O O11 0.091558 0.641596 0.641156
O O12 0.951216 0.240761 0.500000
O O13 0.000000 0.235078 0.351073
O O14 0.500000 0.623218 0.606368
O O15 0.411032 0.588969 0.606228
O O16 0.426436 0.679307 0.632813
O O17 0.302471 0.226445 0.500000
O O18 0.259869 0.259869 0.640697
O O19 0.351853 0.252720 0.641507
O O20 0.159481 0.159481 0.147138
O O21 0.126947 0.199619 0.000000
O O22 0.500000 0.888474 0.140234
O O23 0.446210 0.898745 0.000000
#
# Coordination Sequence:
#
# PCOD9571955 Si02
#       8
#    16  32  32  32  32  32  32  32
#     4   7  10  16  26  40  60  90 124 152 180 228
#     4   9  18  31  45  62  84 110 142 178 216 260
#     4   9  15  22  36  56  77 103 136 176 217 252
#     4   9  17  28  41  59  84 112 142 179 222 264
#     4   9  17  29  46  66  86 110 139 171 209 251
#     4   8  14  24  37  54  76 103 136 168 197 235
#     4   8  14  26  44  62  81 108 138 164 193 239
#     4   8  12  18  29  46  69  98 131 162 196 244
#
# _framework density 20.170387999999999
#
# number of rings (size 3 to 8) (size 9 to 14) (size 15 to 20)
#    0.000    3.533    0.000    2.000    0.000    2.933 
#    0.000    2.667    1.467    0.800    0.000    7.467 
#    0.000    0.000    0.000    0.000    0.000    0.000 
#
# Total GULP energy -668162.469848 kJ/mol
# GULP energy per Si atom -5568.020582 kJ/mol
# Density = 2.012448 g / cm^3
# Si number density = 20.170388 Si / 1000 Ang^3
#
#
#
# Elastic Constant Matrix: (Units=GPa)
#
#
# Indices 1 2 3 4 5 6 
#
# 1 145.5659 122.5609 4.6873 0.0000 0.0000 0.0000
# 2 122.5609 145.5659 4.6873 0.0000 0.0000 0.0000
# 3 4.6873 4.6873 45.7908 0.0000 0.0000 0.0000
# 4 0.0000 0.0000 0.0000 9.1082 0.0000 0.0000
# 5 0.0000 0.0000 0.0000 0.0000 9.1082 0.0000
# 6 0.0000 0.0000 0.0000 0.0000 0.0000 17.8770
#
#
#
# Elastic Compliance Matrix: (Units=1/GPa)
#
#
# Indices 1 2 3 4 5 6 
#
# 1 0.023606 -0.019863 -0.000383 0.000000 0.000000 0.000000
# 2 -0.019863 0.023606 -0.000383 0.000000 0.000000 0.000000
# 3 -0.000383 -0.000383 0.021917 0.000000 0.000000 0.000000
# 4 0.000000 0.000000 0.000000 0.109791 0.000000 0.000000
# 5 0.000000 0.000000 0.000000 0.000000 0.109791 0.000000
# 6 0.000000 0.000000 0.000000 0.000000 0.000000 0.055938
#
#
# Mechanical properties :
#
#
# Convention : Reuss Voigt Hill
#
# Bulk Modulus (GPa) = 35.88053 66.75485 51.31769
# Shear Modulus (GPa) = 12.65193 20.88449 16.76821
#
# Velocity S-wave (km/s) = 2.50722 3.22126 2.88640
# Velocity P-wave (km/s) = 5.11946 6.85585 6.05027
#
# Compressibility (1/GPa) = 0.02787027
#
# Stress axis : x y z
#
# Youngs Moduli (GPa) = 42.36238 42.36238 45.62689
#
# Poissons Ratio (x) = 0.84144 0.01748
# Poissons Ratio (y) = 0.84144 0.01748
# Poissons Ratio (z) = 0.01623 0.01623
#
# Static dielectric constant tensor:
#      x y z
#    x 1.720120 0.000000 0.000000 
#    y 0.000000 1.720120 0.000000 
#    z 0.000000 0.000000 1.775220 
# 
# From -- ./inp_files/12397.got.cif
#   From: 2010.05.17/outbox.cif.g08.bks.cpg/sg139_7_cif.got.tgz:12397.got - 2010.05.20 13:14:44.
