data_PCOD9571164
_publ_section_title
;
Structure prediction by ZEFSAII (Michael W. Deem and Ramdas Pophale) SiO2 
 PCOD9571164
Probable space group: I 4/M M M
;
_chemical_formula_sum "Si O2"
_cell_formula_units_Z 224
_cell_length_a 25.193535
_cell_length_b 25.193535
_cell_length_c 23.174909
_cell_angle_alpha 90.000000
_cell_angle_beta 90.000000
_cell_angle_gamma 90.000000
_cell_volume 14709.443960
_symmetry_space_group_name_H-M "I 4/M M M"
_symmetry_group_IT_number 139
_symmetry_cell_setting 'tetragonal'
loop_
_space_group_symop_operation_xyz
x,y,z
-y,x,z
-x,-y,z
y,-x,z
x,-y,-z
-x,y,-z
y,x,-z
-y,-x,-z
-x,-y,-z
y,-x,-z
x,y,-z
-y,x,-z
-x,y,z
x,-y,z
-y,-x,z
y,x,z
1/2+x,1/2+y,1/2+z
1/2-y,1/2+x,1/2+z
1/2-x,1/2-y,1/2+z
1/2+y,1/2-x,1/2+z
1/2+x,1/2-y,1/2-z
1/2-x,1/2+y,1/2-z
1/2+y,1/2+x,1/2-z
1/2-y,1/2-x,1/2-z
1/2-x,1/2-y,1/2-z
1/2+y,1/2-x,1/2-z
1/2+x,1/2+y,1/2-z
1/2-y,1/2+x,1/2-z
1/2-x,1/2+y,1/2+z
1/2+x,1/2-y,1/2+z
1/2-y,1/2-x,1/2+z
1/2+y,1/2+x,1/2+z
loop_
_atom_site_type_symbol
_atom_site_label
_atom_site_fract_x
_atom_site_fract_y
_atom_site_fract_z
Si Si1 0.701043 0.386205 0.322423
Si Si2 0.937960 0.740240 0.656540
Si Si3 0.938969 0.639850 0.887074
Si Si4 0.063786 0.347175 0.431588
Si Si5 0.063054 0.848859 0.287922
Si Si6 0.757008 0.063440 0.064715
Si Si7 0.314355 0.101064 0.229733
O O1 0.666802 0.333199 0.322795
O O2 0.672411 0.425866 0.277164
O O3 0.707875 0.410172 0.385823
O O4 0.760296 0.377735 0.298840
O O5 0.917149 0.705161 0.603432
O O6 0.917875 0.799383 0.671734
O O7 0.930908 0.704716 0.714086
O O8 0.000000 0.747914 0.645654
O O9 0.897508 0.595311 0.906406
O O10 0.927272 0.694788 0.920978
O O11 0.931742 0.655208 0.819681
O O12 0.000000 0.624735 0.898307
O O13 0.072935 0.342558 0.500000
O O14 0.000000 0.352961 0.422564
O O15 0.099577 0.900424 0.297374
O O16 0.000000 0.857933 0.295580
O O17 0.764219 0.000000 0.067893
O O18 0.769026 0.081559 0.000000
O O19 0.351847 0.148154 0.250000
#
# Coordination Sequence:
#
# PCOD9571164 Si02
#       7
#    32  32  32  32  32  32  32
#     4   9  18  29  43  67  95 122 152 190 234 278
#     4   9  17  31  49  68  92 122 157 194 229 274
#     4  10  19  31  47  67  90 117 152 198 246 285
#     4  10  20  32  47  66  88 118 156 194 233 282
#     4   9  17  30  50  75 101 126 152 188 234 283
#     4   9  17  29  46  65  86 119 161 197 228 273
#     4  10  17  29  48  67  87 118 157 195 236 280
#
# _framework density 15.228312000000001
#
# number of rings (size 3 to 8) (size 9 to 14) (size 15 to 20)
#    0.000    2.571    1.429    1.286    0.000    5.286 
#    0.000    0.714    0.000    0.429    0.000    0.000 
#    0.000    0.000    0.000   18.857    0.000    0.000 
#
# Total GULP energy -623543.380238 kJ/mol
# GULP energy per Si atom -5567.351609 kJ/mol
# Density = 1.519365 g / cm^3
# Si number density = 15.228312 Si / 1000 Ang^3
#
#
#
# Elastic Constant Matrix: (Units=GPa)
#
#
# Indices 1 2 3 4 5 6 
#
# 1 67.2071 43.4175 33.6576 0.0000 0.0000 0.0000
# 2 43.4175 67.2096 33.6585 0.0000 0.0000 0.0000
# 3 33.6576 33.6585 80.2082 0.0000 0.0000 0.0000
# 4 0.0000 0.0000 0.0000 15.0048 0.0000 0.0000
# 5 0.0000 0.0000 0.0000 0.0000 15.0062 0.0000
# 6 0.0000 0.0000 0.0000 0.0000 0.0000 21.5372
#
#
#
# Elastic Compliance Matrix: (Units=1/GPa)
#
#
# Indices 1 2 3 4 5 6 
#
# 1 0.027087 -0.014947 -0.005094 0.000000 0.000000 0.000000
# 2 -0.014947 0.027086 -0.005094 0.000000 0.000000 0.000000
# 3 -0.005094 -0.005094 0.016743 0.000000 0.000000 0.000000
# 4 0.000000 0.000000 0.000000 0.066646 0.000000 0.000000
# 5 0.000000 0.000000 0.000000 0.000000 0.066639 0.000000
# 6 0.000000 0.000000 0.000000 0.000000 0.000000 0.046431
#
#
# Mechanical properties :
#
#
# Convention : Reuss Voigt Hill
#
# Bulk Modulus (GPa) = 48.43759 48.45470 48.44615
# Shear Modulus (GPa) = 16.24525 17.23573 16.74049
#
# Velocity S-wave (km/s) = 3.26970 3.36790 3.31917
# Velocity P-wave (km/s) = 6.79200 6.85650 6.82433
#
# Compressibility (1/GPa) = 0.02064512
#
# Stress axis : x y z
#
# Youngs Moduli (GPa) = 36.91865 36.91989 59.72718
#
# Poissons Ratio (x) = 0.55184 0.30425
# Poissons Ratio (y) = 0.55182 0.30425
# Poissons Ratio (z) = 0.18806 0.18807
#
# Static dielectric constant tensor:
#      x y z
#    x 1.492890 0.000000 0.000000 
#    y 0.000000 1.492890 0.000000 
#    z 0.000000 0.000000 1.525530 
# 
# From -- ./inp_files/12163.got.cif
#   From: 2010.05.17/outbox.cif.g08.bks.cpg/sg139_7_cif.got.tgz:12163.got - 2010.05.20 13:14:44.
