data_PCOD9571203
_publ_section_title
;
Structure prediction by ZEFSAII (Michael W. Deem and Ramdas Pophale) SiO2 
 PCOD9571203
Probable space group: I 4/M M M
;
_chemical_formula_sum "Si O2"
_cell_formula_units_Z 128
_cell_length_a 34.367151
_cell_length_b 34.367151
_cell_length_c 8.023718
_cell_angle_alpha 90.000000
_cell_angle_beta 90.000000
_cell_angle_gamma 90.000000
_cell_volume 9476.821898
_symmetry_space_group_name_H-M "I 4/M M M"
_symmetry_group_IT_number 139
_symmetry_cell_setting 'tetragonal'
loop_
_space_group_symop_operation_xyz
x,y,z
-y,x,z
-x,-y,z
y,-x,z
x,-y,-z
-x,y,-z
y,x,-z
-y,-x,-z
-x,-y,-z
y,-x,-z
x,y,-z
-y,x,-z
-x,y,z
x,-y,z
-y,-x,z
y,x,z
1/2+x,1/2+y,1/2+z
1/2-y,1/2+x,1/2+z
1/2-x,1/2-y,1/2+z
1/2+y,1/2-x,1/2+z
1/2+x,1/2-y,1/2-z
1/2-x,1/2+y,1/2-z
1/2+y,1/2+x,1/2-z
1/2-y,1/2-x,1/2-z
1/2-x,1/2-y,1/2-z
1/2+y,1/2-x,1/2-z
1/2+x,1/2+y,1/2-z
1/2-y,1/2+x,1/2-z
1/2-x,1/2+y,1/2+z
1/2+x,1/2-y,1/2+z
1/2-y,1/2-x,1/2+z
1/2+y,1/2+x,1/2+z
loop_
_atom_site_type_symbol
_atom_site_label
_atom_site_fract_x
_atom_site_fract_y
_atom_site_fract_z
Si Si1 0.250286 0.045563 0.500000
Si Si2 0.312938 0.250825 0.799905
Si Si3 0.955798 0.844664 0.500000
Si Si4 0.092891 0.844956 0.816504
Si Si5 0.751671 0.900922 0.811868
O O1 0.202851 0.044966 0.500000
O O2 0.262262 0.069965 0.665379
O O3 0.262567 0.000000 0.500000
O O4 0.290692 0.290692 0.745521
O O5 0.283830 0.216171 0.750000
O O6 0.355597 0.243820 0.726300
O O7 0.316534 0.252483 0.000000
O O8 0.933881 0.857866 0.334629
O O9 0.000000 0.857251 0.500000
O O10 0.134505 0.865496 0.798439
O O11 0.096437 0.798615 0.809419
O O12 0.077377 0.855276 0.000000
O O13 0.738520 0.910987 0.000000
#
# Coordination Sequence:
#
# PCOD9571203 Si02
#       5
#    16  32  16  32  32
#     4   9  18  31  43  59  79 101 136 173 207 250
#     4  10  19  29  41  59  84 113 145 180 215 254
#     4   9  17  27  39  55  75  98 121 150 188 229
#     4   9  17  27  40  57  75  97 123 150 183 229
#     4  10  18  29  44  60  80 106 134 167 209 248
#
# _framework density 13.506637
#
# number of rings (size 3 to 8) (size 9 to 14) (size 15 to 20)
#    0.000    2.500    1.250    1.875    0.000    3.500 
#    0.000    5.000    0.000    0.000    0.000    0.000 
#    0.000    4.000    0.000   11.000    0.000    1.000 
#
# Total GULP energy -356330.288371 kJ/mol
# GULP energy per Si atom -5567.660756 kJ/mol
# Density = 1.347590 g / cm^3
# Si number density = 13.506637 Si / 1000 Ang^3
#
#
#
# Elastic Constant Matrix: (Units=GPa)
#
#
# Indices 1 2 3 4 5 6 
#
# 1 53.3215 6.4445 33.0687 0.0000 0.0000 0.0000
# 2 6.4445 53.3166 33.0656 0.0000 0.0000 0.0000
# 3 33.0687 33.0656 105.6641 0.0000 0.0000 0.0000
# 4 0.0000 0.0000 0.0000 10.4919 0.0000 0.0000
# 5 0.0000 0.0000 0.0000 0.0000 10.4922 0.0000
# 6 0.0000 0.0000 0.0000 0.0000 0.0000 7.1660
#
#
#
# Elastic Compliance Matrix: (Units=1/GPa)
#
#
# Indices 1 2 3 4 5 6 
#
# 1 0.023464 0.002132 -0.008011 0.000000 0.000000 0.000000
# 2 0.002132 0.023466 -0.008010 0.000000 0.000000 0.000000
# 3 -0.008011 -0.008010 0.014478 0.000000 0.000000 0.000000
# 4 0.000000 0.000000 0.000000 0.095312 0.000000 0.000000
# 5 0.000000 0.000000 0.000000 0.000000 0.095309 0.000000
# 6 0.000000 0.000000 0.000000 0.000000 0.000000 0.139548
#
#
# Mechanical properties :
#
#
# Convention : Reuss Voigt Hill
#
# Bulk Modulus (GPa) = 29.73559 39.71775 34.72667
# Shear Modulus (GPa) = 11.61265 14.94491 13.27878
#
# Velocity S-wave (km/s) = 2.93537 3.33000 3.13889
# Velocity P-wave (km/s) = 5.79240 6.65245 6.23727
#
# Compressibility (1/GPa) = 0.03362973
#
# Stress axis : x y z
#
# Youngs Moduli (GPa) = 42.61770 42.61466 69.07200
#
# Poissons Ratio (x) = -0.09084 0.55330
# Poissons Ratio (y) = -0.09085 0.55330
# Poissons Ratio (z) = 0.34139 0.34136
#
# Static dielectric constant tensor:
#      x y z
#    x 1.424190 0.000000 0.000000 
#    y 0.000000 1.424190 0.000000 
#    z 0.000000 0.000000 1.487960 
# 
# From -- ./inp_files/1859.got.cif
#   From: 2010.05.17/outbox.cif.g08.bks.cpg/sg139_1_cif.got.tgz:1859.got - 2010.05.20 13:14:44.
