data_PCOD9571752
_publ_section_title
;
Structure prediction by ZEFSAII (Michael W. Deem and Ramdas Pophale) SiO2 
 PCOD9571752
Probable space group: I 4/M M M
;
_chemical_formula_sum "Si O2"
_cell_formula_units_Z 160
_cell_length_a 30.655724
_cell_length_b 30.655724
_cell_length_c 8.243359
_cell_angle_alpha 90.000000
_cell_angle_beta 90.000000
_cell_angle_gamma 90.000000
_cell_volume 7746.889630
_symmetry_space_group_name_H-M "I 4/M M M"
_symmetry_group_IT_number 139
_symmetry_cell_setting 'tetragonal'
loop_
_space_group_symop_operation_xyz
x,y,z
-y,x,z
-x,-y,z
y,-x,z
x,-y,-z
-x,y,-z
y,x,-z
-y,-x,-z
-x,-y,-z
y,-x,-z
x,y,-z
-y,x,-z
-x,y,z
x,-y,z
-y,-x,z
y,x,z
1/2+x,1/2+y,1/2+z
1/2-y,1/2+x,1/2+z
1/2-x,1/2-y,1/2+z
1/2+y,1/2-x,1/2+z
1/2+x,1/2-y,1/2-z
1/2-x,1/2+y,1/2-z
1/2+y,1/2+x,1/2-z
1/2-y,1/2-x,1/2-z
1/2-x,1/2-y,1/2-z
1/2+y,1/2-x,1/2-z
1/2+x,1/2+y,1/2-z
1/2-y,1/2+x,1/2-z
1/2-x,1/2+y,1/2+z
1/2+x,1/2-y,1/2+z
1/2-y,1/2-x,1/2+z
1/2+y,1/2+x,1/2+z
loop_
_atom_site_type_symbol
_atom_site_label
_atom_site_fract_x
_atom_site_fract_y
_atom_site_fract_z
Si Si1 0.847914 0.284471 0.687441
Si Si2 0.206937 0.206937 0.808070
Si Si3 0.137124 0.137124 0.300720
Si Si4 0.950543 0.378548 0.305911
Si Si5 0.721519 0.938108 0.183794
Si Si6 0.681684 0.546594 0.194149
O O1 0.861623 0.285911 0.500000
O O2 0.830151 0.330151 0.750000
O O3 0.811255 0.248627 0.714509
O O4 0.886565 0.272180 0.804587
O O5 0.170339 0.170339 0.782324
O O6 0.214675 0.214675 0.000000
O O7 0.140663 0.140663 0.500000
O O8 0.088920 0.154183 0.252170
O O9 0.949337 0.379232 0.500000
O O10 0.912012 0.412012 0.250000
O O11 0.945928 0.327169 0.255313
O O12 0.000000 0.392120 0.252446
O O13 0.766348 0.952927 0.268114
O O14 0.721225 0.953117 0.000000
O O15 0.664672 0.500000 0.256794
O O16 0.678190 0.547113 0.000000
#
# Coordination Sequence:
#
# PCOD9571752 Si02
#       6
#    32  16  16  32  32  32
#     4  12  24  39  57  81 118 164 209 252 301 359
#     4  12  23  37  56  84 118 157 204 253 300 351
#     4  10  20  37  61  87 122 166 206 251 308 366
#     4  11  25  45  68  93 123 160 203 254 314 377
#     4  12  24  39  61  91 125 160 203 255 308 366
#     4  10  21  38  62  91 124 164 209 254 305 367
#
# _framework density 20.653449999999999
#
# number of rings (size 3 to 8) (size 9 to 14) (size 15 to 20)
#    0.000    0.800    2.000    6.600    0.000    4.600 
#    0.000    1.000    0.000    0.300    0.000    2.100 
#    0.000    0.000    0.000    2.700    0.000    3.000 
#
# Total GULP energy -446339.888092 kJ/mol
# GULP energy per Si atom -5579.248601 kJ/mol
# Density = 2.060644 g / cm^3
# Si number density = 20.653450 Si / 1000 Ang^3
#
#
#
# Elastic Constant Matrix: (Units=GPa)
#
#
# Indices 1 2 3 4 5 6 
#
# 1 93.8635 95.8051 7.9458 0.0000 0.0000 0.0000
# 2 95.8051 93.8635 7.9458 0.0000 0.0000 0.0000
# 3 7.9458 7.9458 61.1499 0.0000 0.0000 0.0000
# 4 0.0000 0.0000 0.0000 9.5142 0.0000 0.0000
# 5 0.0000 0.0000 0.0000 0.0000 9.5142 0.0000
# 6 0.0000 0.0000 0.0000 0.0000 0.0000 5.4647
#
#
#
# Elastic Compliance Matrix: (Units=1/GPa)
#
#
# Indices 1 2 3 4 5 6 
#
# 1 -0.254863 0.260194 -0.000693 0.000000 0.000000 0.000000
# 2 0.260194 -0.254863 -0.000693 0.000000 0.000000 0.000000
# 3 -0.000693 -0.000693 0.016533 0.000000 0.000000 0.000000
# 4 0.000000 0.000000 0.000000 0.105106 0.000000 0.000000
# 5 0.000000 0.000000 0.000000 0.000000 0.105106 0.000000
# 6 0.000000 0.000000 0.000000 0.000000 0.000000 0.182992
#
#
# Mechanical properties :
#
#
# Convention : Reuss Voigt Hill
#
# Bulk Modulus (GPa) = 40.94413 52.47447 46.70930
# Shear Modulus (GPa) = -8.20391 14.04397 2.92003
#
# Velocity S-wave (km/s) = -1.99519 2.61047 1.19033
# Velocity P-wave (km/s) = 3.81571 5.87779 4.95520
#
# Compressibility (1/GPa) = 0.02442353
#
# Stress axis : x y z
#
# Youngs Moduli (GPa) = -3.92367 -3.92367 60.48411
#
# Poissons Ratio (x) = 1.02091 0.04189
# Poissons Ratio (y) = 1.02091 0.04189
# Poissons Ratio (z) = -0.00272 -0.00272
#
# Static dielectric constant tensor:
#      x y z
#    x 1.661910 0.000000 0.000000 
#    y 0.000000 1.661910 0.000000 
#    z 0.000000 0.000000 1.705250 
# 
# From -- ./inp_files/2181.got.cif
#   From: 2010.05.17/outbox.cif.g08.bks.cpg/sg139_2_cif.got.tgz:2181.got - 2010.05.20 13:14:44.
