data_PCOD9571850
_publ_section_title
;
Structure prediction by ZEFSAII (Michael W. Deem and Ramdas Pophale) SiO2 
 PCOD9571850
Probable space group: I 4/M M M
;
_chemical_formula_sum "Si O2"
_cell_formula_units_Z 160
_cell_length_a 30.296556
_cell_length_b 30.296556
_cell_length_c 8.801177
_cell_angle_alpha 90.000000
_cell_angle_beta 90.000000
_cell_angle_gamma 90.000000
_cell_volume 8078.435834
_symmetry_space_group_name_H-M "I 4/M M M"
_symmetry_group_IT_number 139
_symmetry_cell_setting 'tetragonal'
loop_
_space_group_symop_operation_xyz
x,y,z
-y,x,z
-x,-y,z
y,-x,z
x,-y,-z
-x,y,-z
y,x,-z
-y,-x,-z
-x,-y,-z
y,-x,-z
x,y,-z
-y,x,-z
-x,y,z
x,-y,z
-y,-x,z
y,x,z
1/2+x,1/2+y,1/2+z
1/2-y,1/2+x,1/2+z
1/2-x,1/2-y,1/2+z
1/2+y,1/2-x,1/2+z
1/2+x,1/2-y,1/2-z
1/2-x,1/2+y,1/2-z
1/2+y,1/2+x,1/2-z
1/2-y,1/2-x,1/2-z
1/2-x,1/2-y,1/2-z
1/2+y,1/2-x,1/2-z
1/2+x,1/2+y,1/2-z
1/2-y,1/2+x,1/2-z
1/2-x,1/2+y,1/2+z
1/2+x,1/2-y,1/2+z
1/2-y,1/2-x,1/2+z
1/2+y,1/2+x,1/2+z
loop_
_atom_site_type_symbol
_atom_site_label
_atom_site_fract_x
_atom_site_fract_y
_atom_site_fract_z
Si Si1 0.550702 0.779406 0.000000
Si Si2 0.874554 0.949725 0.500000
Si Si3 0.155223 0.080222 0.168144
Si Si4 0.361113 0.819475 0.500000
Si Si5 0.549963 0.049963 0.250000
Si Si6 0.923933 0.381153 0.500000
Si Si7 0.252049 0.383861 0.747615
Si Si8 0.813911 0.255566 0.500000
O O1 0.557911 0.831888 0.000000
O O2 0.575779 0.760035 0.143771
O O3 0.500000 0.767824 0.000000
O O4 0.913959 0.913959 0.500000
O O5 0.849321 0.942854 0.336258
O O6 0.890752 0.000000 0.500000
O O7 0.116856 0.116856 0.170048
O O8 0.202729 0.103744 0.167273
O O9 0.151079 0.056968 0.000000
O O10 0.377441 0.870169 0.500000
O O11 0.376371 0.790653 0.643373
O O12 0.308151 0.817690 0.500000
O O13 0.500000 0.053103 0.314509
O O14 0.590296 0.057279 0.362559
O O15 0.259705 0.340972 0.852237
O O16 0.765611 0.234390 0.500000
#
# Coordination Sequence:
#
# PCOD9571850 Si02
#       8
#    16  16  32  16  16  16  32  16
#     4  11  24  41  62  86 115 167 215 255 327 404
#     4  10  22  41  68 100 135 176 221 271 333 395
#     4  10  21  39  64  94 129 175 225 273 330 386
#     4  12  24  39  60  91 124 172 206 255 324 392
#     4  11  24  42  68  96 115 148 206 266 325 394
#     4  12  23  41  64  86 128 160 194 256 324 393
#     4  11  22  40  61  86 126 162 209 272 316 383
#     4  11  24  38  60  91 123 166 215 265 316 376
#
# _framework density 19.805814999999999
#
# number of rings (size 3 to 8) (size 9 to 14) (size 15 to 20)
#    0.000    1.100    3.000    4.800    0.000    6.100 
#    0.000    1.500    0.000    0.000    0.000    2.800 
#    0.000    0.000    0.000    0.000    0.000    0.000 
#
# Total GULP energy -446176.434033 kJ/mol
# GULP energy per Si atom -5577.205425 kJ/mol
# Density = 1.976074 g / cm^3
# Si number density = 19.805815 Si / 1000 Ang^3
#
#
#
# Elastic Constant Matrix: (Units=GPa)
#
#
# Indices 1 2 3 4 5 6 
#
# 1 87.9687 16.0439 27.2121 0.0000 0.0000 0.0000
# 2 16.0439 87.9597 27.2093 0.0000 0.0000 0.0000
# 3 27.2121 27.2093 128.8189 0.0000 0.0000 0.0000
# 4 0.0000 0.0000 0.0000-1525.7828 0.0000 0.0000
# 5 0.0000 0.0000 0.0000 0.0000-1513.5954 0.0000
# 6 0.0000 0.0000 0.0000 0.0000 0.0000 21.9535
#
#
#
# Elastic Compliance Matrix: (Units=1/GPa)
#
#
# Indices 1 2 3 4 5 6 
#
# 1 0.012356 -0.001547 -0.002283 0.000000 0.000000 0.000000
# 2 -0.001547 0.012357 -0.002283 0.000000 0.000000 0.000000
# 3 -0.002283 -0.002283 0.008727 0.000000 0.000000 0.000000
# 4 0.000000 0.000000 0.000000 -0.000655 0.000000 0.000000
# 5 0.000000 0.000000 0.000000 0.000000 -0.000661 0.000000
# 6 0.000000 0.000000 0.000000 0.000000 0.000000 0.045551
#
#
# Mechanical properties :
#
#
# Convention : Reuss Voigt Hill
#
# Bulk Modulus (GPa) = 47.14091 49.51978 48.33035
# Shear Modulus (GPa) = 51.55973 -587.86615 -268.15321
#
# Velocity S-wave (km/s) = 5.10775 -17.24701 -11.64839
# Velocity P-wave (km/s) = 7.65759 19.27577 12.50833
#
# Compressibility (1/GPa) = 0.02121300
#
# Stress axis : x y z
#
# Youngs Moduli (GPa) = 80.93086 80.92316 114.58109
#
# Poissons Ratio (x) = 0.12523 0.26162
# Poissons Ratio (y) = 0.12524 0.26162
# Poissons Ratio (z) = 0.18479 0.18477
#
# Static dielectric constant tensor:
#      x y z
#    x 1.657330 0.000000 0.000000 
#    y 0.000000 1.657330 0.000000 
#    z 0.000000 0.000000 1.689100 
# 
# From -- ./inp_files/2366.got.cif
#   From: 2010.05.17/outbox.cif.g08.bks.cpg/sg139_2_cif.got.tgz:2366.got - 2010.05.20 13:14:44.
