data_PCOD9571700
_publ_section_title
;
Structure prediction by ZEFSAII (Michael W. Deem and Ramdas Pophale) SiO2 
 PCOD9571700
Probable space group: I 4/M M M
;
_chemical_formula_sum "Si O2"
_cell_formula_units_Z 144
_cell_length_a 20.252410
_cell_length_b 20.252410
_cell_length_c 17.347396
_cell_angle_alpha 90.000000
_cell_angle_beta 90.000000
_cell_angle_gamma 90.000000
_cell_volume 7115.209866
_symmetry_space_group_name_H-M "I 4/M M M"
_symmetry_group_IT_number 139
_symmetry_cell_setting 'tetragonal'
loop_
_space_group_symop_operation_xyz
x,y,z
-y,x,z
-x,-y,z
y,-x,z
x,-y,-z
-x,y,-z
y,x,-z
-y,-x,-z
-x,-y,-z
y,-x,-z
x,y,-z
-y,x,-z
-x,y,z
x,-y,z
-y,-x,z
y,x,z
1/2+x,1/2+y,1/2+z
1/2-y,1/2+x,1/2+z
1/2-x,1/2-y,1/2+z
1/2+y,1/2-x,1/2+z
1/2+x,1/2-y,1/2-z
1/2-x,1/2+y,1/2-z
1/2+y,1/2+x,1/2-z
1/2-y,1/2-x,1/2-z
1/2-x,1/2-y,1/2-z
1/2+y,1/2-x,1/2-z
1/2+x,1/2+y,1/2-z
1/2-y,1/2+x,1/2-z
1/2-x,1/2+y,1/2+z
1/2+x,1/2-y,1/2+z
1/2-y,1/2-x,1/2+z
1/2+y,1/2+x,1/2+z
loop_
_atom_site_type_symbol
_atom_site_label
_atom_site_fract_x
_atom_site_fract_y
_atom_site_fract_z
Si Si1 0.692877 0.579997 0.500000
Si Si2 0.424712 0.140747 0.089336
Si Si3 0.573290 0.678212 0.253840
Si Si4 0.296215 0.397903 0.084131
Si Si5 0.578240 0.207931 0.357114
O O1 0.677629 0.500000 0.500000
O O2 0.628937 0.628937 0.500000
O O3 0.740667 0.594080 0.426472
O O4 0.500000 0.129169 0.117389
O O5 0.411009 0.218889 0.087311
O O6 0.363443 0.110159 0.134282
O O7 0.421537 0.117103 0.000000
O O8 0.500000 0.666783 0.285330
O O9 0.624494 0.624494 0.283056
O O10 0.571482 0.674864 0.161500
O O11 0.594748 0.751207 0.280025
O O12 0.321864 0.321864 0.087179
O O13 0.318628 0.422900 0.000000
O O14 0.500000 0.197354 0.359286
#
# Coordination Sequence:
#
# PCOD9571700 Si02
#       5
#    16  32  32  32  32
#     4  10  20  35  55  79 113 157 204 254 302 352
#     4  10  20  35  57  85 115 152 197 242 292 355
#     4  10  21  37  58  84 116 154 197 248 302 360
#     4   9  19  36  58  85 114 147 190 240 299 362
#     4  10  21  37  54  80 115 152 197 245 296 353
#
# _framework density 20.238333999999998
#
# number of rings (size 3 to 8) (size 9 to 14) (size 15 to 20)
#    0.000    2.222    1.111    1.333    0.000    4.778 
#    0.000    3.333    0.000    4.000    0.000    6.222 
#    0.000    0.000    0.000    0.000    0.000    0.000 
#
# Total GULP energy -401148.158998 kJ/mol
# GULP energy per Si atom -5571.502208 kJ/mol
# Density = 2.019227 g / cm^3
# Si number density = 20.238334 Si / 1000 Ang^3
#
#
#
# Elastic Constant Matrix: (Units=GPa)
#
#
# Indices 1 2 3 4 5 6 
#
# 1 112.8583 94.2440 26.4387 0.0000 0.0000 0.0000
# 2 94.2440 112.8583 26.4387 0.0000 0.0000 0.0000
# 3 26.4387 26.4387 67.2073 0.0000 0.0000 0.0000
# 4 0.0000 0.0000 0.0000 18.2822 0.0000 0.0000
# 5 0.0000 0.0000 0.0000 0.0000 18.2822 0.0000
# 6 0.0000 0.0000 0.0000 0.0000 0.0000 -79.2967
#
#
#
# Elastic Compliance Matrix: (Units=1/GPa)
#
#
# Indices 1 2 3 4 5 6 
#
# 1 0.029545 -0.024177 -0.002112 0.000000 0.000000 0.000000
# 2 -0.024177 0.029545 -0.002112 0.000000 0.000000 0.000000
# 3 -0.002112 -0.002112 0.016541 0.000000 0.000000 0.000000
# 4 0.000000 0.000000 0.000000 0.054698 0.000000 0.000000
# 5 0.000000 0.000000 0.000000 0.000000 0.054698 0.000000
# 6 0.000000 0.000000 0.000000 0.000000 0.000000 -0.012611
#
#
# Mechanical properties :
#
#
# Convention : Reuss Voigt Hill
#
# Bulk Modulus (GPa) = 53.10766 65.24074 59.17420
# Shear Modulus (GPa) = 21.23205 1.17370 11.20287
#
# Velocity S-wave (km/s) = 3.24250 0.76236 2.35531
# Velocity P-wave (km/s) = 6.34952 5.75162 6.05795
#
# Compressibility (1/GPa) = 0.01882968
#
# Stress axis : x y z
#
# Youngs Moduli (GPa) = 33.84677 33.84677 60.45693
#
# Poissons Ratio (x) = 0.81832 0.12766
# Poissons Ratio (y) = 0.81832 0.12766
# Poissons Ratio (z) = 0.07147 0.07147
#
# Static dielectric constant tensor:
#      x y z
#    x 1.706810 0.000000 0.000000 
#    y 0.000000 1.706810 0.000000 
#    z 0.000000 0.000000 1.806600 
# 
# From -- ./inp_files/8241.got.cif
#   From: 2010.05.17/outbox.cif.g08.bks.cpg/sg139_5_cif.got.tgz:8241.got - 2010.05.20 13:14:44.
