data_PCOD9571838
_publ_section_title
;
Structure prediction by ZEFSAII (Michael W. Deem and Ramdas Pophale) SiO2 
 PCOD9571838
Probable space group: I 4/M M M
;
_chemical_formula_sum "Si O2"
_cell_formula_units_Z 112
_cell_length_a 16.660970
_cell_length_b 16.660970
_cell_length_c 21.022550
_cell_angle_alpha 90.000000
_cell_angle_beta 90.000000
_cell_angle_gamma 90.000000
_cell_volume 5835.605956
_symmetry_space_group_name_H-M "I 4/M M M"
_symmetry_group_IT_number 139
_symmetry_cell_setting 'tetragonal'
loop_
_space_group_symop_operation_xyz
x,y,z
-y,x,z
-x,-y,z
y,-x,z
x,-y,-z
-x,y,-z
y,x,-z
-y,-x,-z
-x,-y,-z
y,-x,-z
x,y,-z
-y,x,-z
-x,y,z
x,-y,z
-y,-x,z
y,x,z
1/2+x,1/2+y,1/2+z
1/2-y,1/2+x,1/2+z
1/2-x,1/2-y,1/2+z
1/2+y,1/2-x,1/2+z
1/2+x,1/2-y,1/2-z
1/2-x,1/2+y,1/2-z
1/2+y,1/2+x,1/2-z
1/2-y,1/2-x,1/2-z
1/2-x,1/2-y,1/2-z
1/2+y,1/2-x,1/2-z
1/2+x,1/2+y,1/2-z
1/2-y,1/2+x,1/2-z
1/2-x,1/2+y,1/2+z
1/2+x,1/2-y,1/2+z
1/2-y,1/2-x,1/2+z
1/2+y,1/2+x,1/2+z
loop_
_atom_site_type_symbol
_atom_site_label
_atom_site_fract_x
_atom_site_fract_y
_atom_site_fract_z
Si Si1 0.730673 0.269327 0.638411
Si Si2 0.667809 0.667809 0.226960
Si Si3 0.407864 0.000000 0.653932
Si Si4 0.635048 0.500000 0.925954
Si Si5 0.264359 0.500000 0.195634
Si Si6 0.092212 0.665046 0.075462
O O1 0.700915 0.299086 0.706888
O O2 0.795696 0.204305 0.661667
O O3 0.658674 0.226664 0.601011
O O4 0.693679 0.576461 0.225525
O O5 0.398832 0.080404 0.611852
O O6 0.500000 0.000000 0.678229
O O7 0.332128 0.000000 0.701824
O O8 0.577109 0.577109 0.914782
O O9 0.709707 0.500000 0.878715
O O10 0.658322 0.500000 0.000000
O O11 0.000000 0.692778 0.086734
O O12 0.102060 0.653198 0.000000
#
# Coordination Sequence:
#
# PCOD9571838 Si02
#       6
#    16  16  16  16  16  32
#     4  11  23  44  60  90 121 164 212 257 304 362
#     4  11  26  39  64  87 123 165 217 260 295 374
#     4  10  21  38  62  94 126 161 200 248 313 370
#     4   9  18  32  52  83 123 160 195 238 293 365
#     4  12  21  42  60  92 123 167 204 257 306 363
#     4  10  21  39  66  95 126 159 201 257 315 372
#
# _framework density 19.192523999999999
#
# number of rings (size 3 to 8) (size 9 to 14) (size 15 to 20)
#    0.000    1.571    4.286    1.286    2.000    3.143 
#    0.000    0.000    3.143    0.429    0.000    2.000 
#    0.000    0.000    0.000    0.000    0.000    0.000 
#
# Total GULP energy -312695.246246 kJ/mol
# GULP energy per Si atom -5583.843683 kJ/mol
# Density = 1.914884 g / cm^3
# Si number density = 19.192524 Si / 1000 Ang^3
#
#
#
# Elastic Constant Matrix: (Units=GPa)
#
#
# Indices 1 2 3 4 5 6 
#
# 1 126.1699 73.4855 25.5855 0.0000 0.0000 0.0000
# 2 73.4855 126.1699 25.5855 0.0000 0.0000 0.0000
# 3 25.5855 25.5855 39.2423 0.0000 0.0000 0.0000
# 4 0.0000 0.0000 0.0000 -70.1269 0.0000 0.0000
# 5 0.0000 0.0000 0.0000 0.0000 -70.1269 0.0000
# 6 0.0000 0.0000 0.0000 0.0000 0.0000 36.7607
#
#
#
# Elastic Compliance Matrix: (Units=1/GPa)
#
#
# Indices 1 2 3 4 5 6 
#
# 1 0.012497 -0.006484 -0.003921 0.000000 0.000000 0.000000
# 2 -0.006484 0.012497 -0.003921 0.000000 0.000000 0.000000
# 3 -0.003921 -0.003921 0.030595 0.000000 0.000000 0.000000
# 4 0.000000 0.000000 0.000000 -0.014260 0.000000 0.000000
# 5 0.000000 0.000000 0.000000 0.000000 -0.014260 0.000000
# 6 0.000000 0.000000 0.000000 0.000000 0.000000 0.027203
#
#
# Mechanical properties :
#
#
# Convention : Reuss Voigt Hill
#
# Bulk Modulus (GPa) = 37.12047 60.09947 48.60997
# Shear Modulus (GPa) = 54.40519 -9.57025 22.41747
#
# Velocity S-wave (km/s) = 5.32997 -2.23546 3.42136
# Velocity P-wave (km/s) = 7.56712 4.97182 6.40235
#
# Compressibility (1/GPa) = 0.02693931
#
# Stress axis : x y z
#
# Youngs Moduli (GPa) = 80.01782 80.01782 32.68484
#
# Poissons Ratio (x) = 0.51881 0.12815
# Poissons Ratio (y) = 0.51881 0.12815
# Poissons Ratio (z) = 0.31373 0.31373
#
# Static dielectric constant tensor:
#      x y z
#    x 1.713080 0.000000 0.000000 
#    y 0.000000 1.713080 0.000000 
#    z 0.000000 0.000000 1.640550 
# 
# From -- ./inp_files/11133.got.cif
#   From: 2010.05.17/outbox.cif.g08.bks.cpg/sg139_6_cif.got.tgz:11133.got - 2010.05.20 13:14:44.
