data_PCOD9571313
_publ_section_title
;
Structure prediction by ZEFSAII (Michael W. Deem and Ramdas Pophale) SiO2 
 PCOD9571313
Probable space group: I 4/M M M
;
_chemical_formula_sum "Si O2"
_cell_formula_units_Z 240
_cell_length_a 21.586096
_cell_length_b 21.586096
_cell_length_c 32.283003
_cell_angle_alpha 90.000000
_cell_angle_beta 90.000000
_cell_angle_gamma 90.000000
_cell_volume 15042.573245
_symmetry_space_group_name_H-M "I 4/M M M"
_symmetry_group_IT_number 139
_symmetry_cell_setting 'tetragonal'
loop_
_space_group_symop_operation_xyz
x,y,z
-y,x,z
-x,-y,z
y,-x,z
x,-y,-z
-x,y,-z
y,x,-z
-y,-x,-z
-x,-y,-z
y,-x,-z
x,y,-z
-y,x,-z
-x,y,z
x,-y,z
-y,-x,z
y,x,z
1/2+x,1/2+y,1/2+z
1/2-y,1/2+x,1/2+z
1/2-x,1/2-y,1/2+z
1/2+y,1/2-x,1/2+z
1/2+x,1/2-y,1/2-z
1/2-x,1/2+y,1/2-z
1/2+y,1/2+x,1/2-z
1/2-y,1/2-x,1/2-z
1/2-x,1/2-y,1/2-z
1/2+y,1/2-x,1/2-z
1/2+x,1/2+y,1/2-z
1/2-y,1/2+x,1/2-z
1/2-x,1/2+y,1/2+z
1/2+x,1/2-y,1/2+z
1/2-y,1/2-x,1/2+z
1/2+y,1/2+x,1/2+z
loop_
_atom_site_type_symbol
_atom_site_label
_atom_site_fract_x
_atom_site_fract_y
_atom_site_fract_z
Si Si1 0.170621 0.071832 0.875774
Si Si2 0.569665 0.272899 0.285877
Si Si3 0.214727 0.112845 0.698352
Si Si4 0.745880 0.148671 0.453444
Si Si5 0.726762 0.830613 0.106639
Si Si6 0.927014 0.572987 0.750000
Si Si7 0.428997 0.324069 0.108863
Si Si8 0.646316 0.842849 0.689483
O O1 0.106588 0.106588 0.884715
O O2 0.183739 0.075519 0.826093
O O3 0.225324 0.112561 0.896515
O O4 0.171913 0.000000 0.887527
O O5 0.500000 0.245242 0.288059
O O6 0.577929 0.302372 0.240780
O O7 0.622941 0.221458 0.290469
O O8 0.175077 0.175077 0.696240
O O9 0.200035 0.076785 0.656111
O O10 0.286207 0.131685 0.699948
O O11 0.732833 0.126554 0.500000
O O12 0.802373 0.197628 0.455699
O O13 0.690215 0.188147 0.433312
O O14 0.770822 0.096772 0.421847
O O15 0.770656 0.770656 0.118775
O O16 0.676784 0.849105 0.141519
O O17 0.915594 0.500000 0.753204
O O18 0.892743 0.599836 0.709296
O O19 0.500000 0.339324 0.099487
O O20 0.383161 0.383161 0.105028
#
# Coordination Sequence:
#
# PCOD9571313 Si02
#       8
#    32  32  32  32  32  16  32  32
#     4   9  18  30  46  69 100 137 173 209 245 288
#     4  10  19  30  44  65  93 128 169 207 247 289
#     4  11  20  30  46  70  96 125 164 210 253 288
#     4   9  17  32  54  77 100 124 153 195 247 295
#     4   9  17  32  50  75 102 125 156 201 253 299
#     4  11  24  38  47  62  94 132 169 202 236 289
#     4  10  21  35  51  73 101 133 167 202 241 287
#     4  11  19  30  47  67  92 125 157 204 248 296
#
# _framework density 15.954717
#
# number of rings (size 3 to 8) (size 9 to 14) (size 15 to 20)
#    0.000    2.067    2.667    1.600    0.000    3.733 
#    0.000    0.000    0.000    0.400    0.000    3.733 
#    0.000    0.000    0.000    7.867    0.000    0.133 
#
# Total GULP energy -668095.900511 kJ/mol
# GULP energy per Si atom -5567.465838 kJ/mol
# Density = 1.591840 g / cm^3
# Si number density = 15.954717 Si / 1000 Ang^3
#
#
#
# Elastic Constant Matrix: (Units=GPa)
#
#
# Indices 1 2 3 4 5 6 
#
# 1 69.5940 28.4022 20.7767 0.0000 0.0000 0.0000
# 2 28.4022 69.5937 20.7767 0.0000 0.0000 0.0000
# 3 20.7767 20.7767 78.0186 0.0000 0.0000 0.0000
# 4 0.0000 0.0000 0.0000 5.8876 0.0000 0.0000
# 5 0.0000 0.0000 0.0000 0.0000 5.8868 0.0000
# 6 0.0000 0.0000 0.0000 0.0000 0.0000 4.1567
#
#
#
# Elastic Compliance Matrix: (Units=1/GPa)
#
#
# Indices 1 2 3 4 5 6 
#
# 1 0.017890 -0.006387 -0.003063 0.000000 0.000000 0.000000
# 2 -0.006387 0.017890 -0.003063 0.000000 0.000000 0.000000
# 3 -0.003063 -0.003063 0.014449 0.000000 0.000000 0.000000
# 4 0.000000 0.000000 0.000000 0.169850 0.000000 0.000000
# 5 0.000000 0.000000 0.000000 0.000000 0.169872 0.000000
# 6 0.000000 0.000000 0.000000 0.000000 0.000000 0.240578
#
#
# Mechanical properties :
#
#
# Convention : Reuss Voigt Hill
#
# Bulk Modulus (GPa) = 39.67889 39.67972 39.67931
# Shear Modulus (GPa) = 7.53061 13.00291 10.26676
#
# Velocity S-wave (km/s) = 2.17491 2.85790 2.53947
# Velocity P-wave (km/s) = 5.58844 5.98451 5.78986
#
# Compressibility (1/GPa) = 0.02520232
#
# Stress axis : x y z
#
# Youngs Moduli (GPa) = 55.89684 55.89664 69.20864
#
# Poissons Ratio (x) = 0.35699 0.21201
# Poissons Ratio (y) = 0.35699 0.21202
# Poissons Ratio (z) = 0.17124 0.17124
#
# Static dielectric constant tensor:
#      x y z
#    x 1.536500 0.000000 0.000000 
#    y 0.000000 1.536510 0.000000 
#    z 0.000000 0.000000 1.561740 
# 
# From -- ./inp_files/14646.got.cif
#   From: 2010.05.17/outbox.cif.g08.bks.cpg/sg139_8_cif.got.tgz:14646.got - 2010.05.20 13:14:44.
