data_PCOD9571657
_publ_section_title
;
Structure prediction by ZEFSAII (Michael W. Deem and Ramdas Pophale) SiO2 
 PCOD9571657
Probable space group: I 4/M M M
;
_chemical_formula_sum "Si O2"
_cell_formula_units_Z 192
_cell_length_a 21.118594
_cell_length_b 21.118594
_cell_length_c 24.449602
_cell_angle_alpha 90.000000
_cell_angle_beta 90.000000
_cell_angle_gamma 90.000000
_cell_volume 10904.400551
_symmetry_space_group_name_H-M "I 4/M M M"
_symmetry_group_IT_number 139
_symmetry_cell_setting 'tetragonal'
loop_
_space_group_symop_operation_xyz
x,y,z
-y,x,z
-x,-y,z
y,-x,z
x,-y,-z
-x,y,-z
y,x,-z
-y,-x,-z
-x,-y,-z
y,-x,-z
x,y,-z
-y,x,-z
-x,y,z
x,-y,z
-y,-x,z
y,x,z
1/2+x,1/2+y,1/2+z
1/2-y,1/2+x,1/2+z
1/2-x,1/2-y,1/2+z
1/2+y,1/2-x,1/2+z
1/2+x,1/2-y,1/2-z
1/2-x,1/2+y,1/2-z
1/2+y,1/2+x,1/2-z
1/2-y,1/2-x,1/2-z
1/2-x,1/2-y,1/2-z
1/2+y,1/2-x,1/2-z
1/2+x,1/2+y,1/2-z
1/2-y,1/2+x,1/2-z
1/2-x,1/2+y,1/2+z
1/2+x,1/2-y,1/2+z
1/2-y,1/2-x,1/2+z
1/2+y,1/2+x,1/2+z
loop_
_atom_site_type_symbol
_atom_site_label
_atom_site_fract_x
_atom_site_fract_y
_atom_site_fract_z
Si Si1 0.427355 0.117274 0.563300
Si Si2 0.148806 0.250252 0.728311
Si Si3 0.822617 0.923887 0.177205
Si Si4 0.325454 0.572193 0.065696
Si Si5 0.196710 0.574403 0.125908
Si Si6 0.269591 0.574556 0.440311
O O1 0.419097 0.096390 0.500000
O O2 0.500000 0.101225 0.579640
O O3 0.371253 0.091658 0.600725
O O4 0.421828 0.193575 0.563687
O O5 0.189674 0.189674 0.708275
O O6 0.199230 0.300771 0.750000
O O7 0.104285 0.224687 0.777123
O O8 0.110701 0.284084 0.680530
O O9 0.890185 0.890185 0.186222
O O10 0.798868 0.903058 0.116665
O O11 0.824803 0.000000 0.180134
O O12 0.339435 0.500000 0.084346
O O13 0.377213 0.622788 0.085675
O O14 0.254356 0.588427 0.084100
O O15 0.327624 0.572187 0.000000
O O16 0.197328 0.500000 0.136668
O O17 0.288056 0.601997 0.500000
O O18 0.285782 0.500000 0.442448
#
# Coordination Sequence:
#
# PCOD9571657 Si02
#       6
#    32  32  32  32  32  32
#     4   9  18  33  53  77 106 140 177 216 259 312
#     4  10  21  37  56  76  98 128 171 220 266 313
#     4  10  20  34  53  77 107 141 175 214 261 316
#     4   9  18  32  50  74 104 137 173 213 257 304
#     4  11  21  33  52  76 104 137 170 208 257 310
#     4   8  15  30  52  75  99 131 172 217 262 306
#
# _framework density 17.607572000000001
#
# number of rings (size 3 to 8) (size 9 to 14) (size 15 to 20)
#    0.000    2.500    0.000    3.500    0.000    2.000 
#    0.000    3.333    0.000    2.000    0.000    4.667 
#    0.000    0.000    0.000    0.000    0.000    0.000 
#
# Total GULP energy -534850.953938 kJ/mol
# GULP energy per Si atom -5571.364104 kJ/mol
# Density = 1.756750 g / cm^3
# Si number density = 17.607572 Si / 1000 Ang^3
#
#
#
# Elastic Constant Matrix: (Units=GPa)
#
#
# Indices 1 2 3 4 5 6 
#
# 1 102.6410 68.0607 63.5003 0.0000 0.0000 0.0000
# 2 68.0607 102.6411 63.4994 0.0000 0.0000 0.0000
# 3 63.5003 63.4994 101.6124 0.0000 0.0000 0.0000
# 4 0.0000 0.0000 0.0000 22.1905 0.0000 0.0000
# 5 0.0000 0.0000 0.0000 0.0000 22.1908 0.0000
# 6 0.0000 0.0000 0.0000 0.0000 0.0000 25.5796
#
#
#
# Elastic Compliance Matrix: (Units=1/GPa)
#
#
# Indices 1 2 3 4 5 6 
#
# 1 0.019934 -0.008985 -0.006842 0.000000 0.000000 0.000000
# 2 -0.008985 0.019933 -0.006842 0.000000 0.000000 0.000000
# 3 -0.006842 -0.006842 0.018393 0.000000 0.000000 0.000000
# 4 0.000000 0.000000 0.000000 0.045064 0.000000 0.000000
# 5 0.000000 0.000000 0.000000 0.000000 0.045064 0.000000
# 6 0.000000 0.000000 0.000000 0.000000 0.000000 0.039094
#
#
# Mechanical properties :
#
#
# Convention : Reuss Voigt Hill
#
# Bulk Modulus (GPa) = 77.38826 77.44615 77.41720
# Shear Modulus (GPa) = 21.08585 21.44779 21.26682
#
# Velocity S-wave (km/s) = 3.46431 3.49392 3.47914
# Velocity P-wave (km/s) = 7.74913 7.76895 7.75905
#
# Compressibility (1/GPa) = 0.01292186
#
# Stress axis : x y z
#
# Youngs Moduli (GPa) = 50.16670 50.16768 54.36941
#
# Poissons Ratio (x) = 0.45075 0.37201
# Poissons Ratio (y) = 0.45074 0.37198
# Poissons Ratio (z) = 0.34325 0.34323
#
# Static dielectric constant tensor:
#      x y z
#    x 1.591540 0.000000 0.000000 
#    y 0.000000 1.591540 0.000000 
#    z 0.000000 0.000000 1.576650 
# 
# From -- ./inp_files/11898.got.cif
#   From: 2010.05.17/outbox.cif.g08.bks.cpg/sg139_6_cif.got.tgz:11898.got - 2010.05.20 13:14:44.
