data_PCOD9571879
_publ_section_title
;
Structure prediction by ZEFSAII (Michael W. Deem and Ramdas Pophale) SiO2 
 PCOD9571879
Probable space group: I 4/M M M
;
_chemical_formula_sum "Si O2"
_cell_formula_units_Z 176
_cell_length_a 22.446890
_cell_length_b 22.446890
_cell_length_c 16.537272
_cell_angle_alpha 90.000000
_cell_angle_beta 90.000000
_cell_angle_gamma 90.000000
_cell_volume 8332.517343
_symmetry_space_group_name_H-M "I 4/M M M"
_symmetry_group_IT_number 139
_symmetry_cell_setting 'tetragonal'
loop_
_space_group_symop_operation_xyz
x,y,z
-y,x,z
-x,-y,z
y,-x,z
x,-y,-z
-x,y,-z
y,x,-z
-y,-x,-z
-x,-y,-z
y,-x,-z
x,y,-z
-y,x,-z
-x,y,z
x,-y,z
-y,-x,z
y,x,z
1/2+x,1/2+y,1/2+z
1/2-y,1/2+x,1/2+z
1/2-x,1/2-y,1/2+z
1/2+y,1/2-x,1/2+z
1/2+x,1/2-y,1/2-z
1/2-x,1/2+y,1/2-z
1/2+y,1/2+x,1/2-z
1/2-y,1/2-x,1/2-z
1/2-x,1/2-y,1/2-z
1/2+y,1/2-x,1/2-z
1/2+x,1/2+y,1/2-z
1/2-y,1/2+x,1/2-z
1/2-x,1/2+y,1/2+z
1/2+x,1/2-y,1/2+z
1/2-y,1/2-x,1/2+z
1/2+y,1/2+x,1/2+z
loop_
_atom_site_type_symbol
_atom_site_label
_atom_site_fract_x
_atom_site_fract_y
_atom_site_fract_z
Si Si1 0.833070 0.068740 0.829894
Si Si2 0.431381 0.070564 0.000000
Si Si3 0.067607 0.840364 0.635072
Si Si4 0.281184 0.119715 0.594598
Si Si5 0.844301 0.256970 0.906486
Si Si6 0.382644 0.932361 0.330907
O O1 0.888321 0.111680 0.857064
O O2 0.835727 0.067484 0.732611
O O3 0.771844 0.101148 0.857444
O O4 0.837184 0.000000 0.858417
O O5 0.405311 0.089628 0.913542
O O6 0.500000 0.094421 0.000000
O O7 0.433651 0.000000 0.000000
O O8 0.096536 0.903465 0.612867
O O9 0.111269 0.788558 0.604565
O O10 0.000000 0.832524 0.605900
O O11 0.294937 0.110128 0.500000
O O12 0.311161 0.182358 0.620021
O O13 0.312976 0.070764 0.650095
O O14 0.793014 0.206987 0.904419
O O15 0.862809 0.265314 0.000000
O O16 0.398708 0.898708 0.250000
O O17 0.404341 0.000000 0.322437
#
# Coordination Sequence:
#
# PCOD9571879 Si02
#       6
#    32  16  32  32  32  32
#     4   9  19  36  58  87 123 162 206 256 310 369
#     4   9  18  36  58  78 107 148 197 253 309 366
#     4  10  22  39  62  92 124 161 203 252 310 372
#     4  11  23  40  61  88 122 157 204 252 308 370
#     4   9  19  36  58  83 116 158 201 247 303 364
#     4  11  23  38  58  84 115 156 202 255 312 370
#
# _framework density 21.122069
#
# number of rings (size 3 to 8) (size 9 to 14) (size 15 to 20)
#    0.000    2.091    0.909    1.636    2.545    3.818 
#    0.000    5.455    0.000    0.000    0.000    3.818 
#    0.000    0.000    0.000    0.000    0.000    0.000 
#
# Total GULP energy -490899.490328 kJ/mol
# GULP energy per Si atom -5578.403299 kJ/mol
# Density = 2.107399 g / cm^3
# Si number density = 21.122069 Si / 1000 Ang^3
#
#
#
# Elastic Constant Matrix: (Units=GPa)
#
#
# Indices 1 2 3 4 5 6 
#
# 1 117.4411 43.0672 29.1235 0.0000 0.0000 0.0000
# 2 43.0672 117.4411 29.1235 0.0000 0.0000 0.0000
# 3 29.1235 29.1235 74.7277 0.0000 0.0000 0.0000
# 4 0.0000 0.0000 0.0000 16.6828 0.0000 0.0000
# 5 0.0000 0.0000 0.0000 0.0000 16.6828 0.0000
# 6 0.0000 0.0000 0.0000 0.0000 0.0000 23.3149
#
#
#
# Elastic Compliance Matrix: (Units=1/GPa)
#
#
# Indices 1 2 3 4 5 6 
#
# 1 0.010351 -0.003095 -0.002828 0.000000 0.000000 0.000000
# 2 -0.003095 0.010351 -0.002828 0.000000 0.000000 0.000000
# 3 -0.002828 -0.002828 0.015586 0.000000 0.000000 0.000000
# 4 0.000000 0.000000 0.000000 0.059942 0.000000 0.000000
# 5 0.000000 0.000000 0.000000 0.000000 0.059942 0.000000
# 6 0.000000 0.000000 0.000000 0.000000 0.000000 0.042891
#
#
# Mechanical properties :
#
#
# Convention : Reuss Voigt Hill
#
# Bulk Modulus (GPa) = 53.22828 56.91535 55.07182
# Shear Modulus (GPa) = 22.43893 25.22247 23.83070
#
# Velocity S-wave (km/s) = 3.26290 3.45937 3.36257
# Velocity P-wave (km/s) = 6.28095 6.55444 6.41915
#
# Compressibility (1/GPa) = 0.01878701
#
# Stress axis : x y z
#
# Youngs Moduli (GPa) = 96.60871 96.60871 64.15906
#
# Poissons Ratio (x) = 0.29896 0.18145
# Poissons Ratio (y) = 0.29896 0.18145
# Poissons Ratio (z) = 0.27321 0.27321
#
# Static dielectric constant tensor:
#      x y z
#    x 1.788120 0.000000 0.000000 
#    y 0.000000 1.788120 0.000000 
#    z 0.000000 0.000000 1.756700 
# 
# From -- ./inp_files/6137.got.cif
#   From: 2010.05.17/outbox.cif.g08.bks.cpg/sg139_4_cif.got.tgz:6137.got - 2010.05.20 13:14:44.
