data_PCOD9571622
_publ_section_title
;
Structure prediction by ZEFSAII (Michael W. Deem and Ramdas Pophale) SiO2 
 PCOD9571622
Probable space group: I 4/M M M
;
_chemical_formula_sum "Si O2"
_cell_formula_units_Z 160
_cell_length_a 18.053633
_cell_length_b 18.053633
_cell_length_c 27.543144
_cell_angle_alpha 90.000000
_cell_angle_beta 90.000000
_cell_angle_gamma 90.000000
_cell_volume 8977.237856
_symmetry_space_group_name_H-M "I 4/M M M"
_symmetry_group_IT_number 139
_symmetry_cell_setting 'tetragonal'
loop_
_space_group_symop_operation_xyz
x,y,z
-y,x,z
-x,-y,z
y,-x,z
x,-y,-z
-x,y,-z
y,x,-z
-y,-x,-z
-x,-y,-z
y,-x,-z
x,y,-z
-y,x,-z
-x,y,z
x,-y,z
-y,-x,z
y,x,z
1/2+x,1/2+y,1/2+z
1/2-y,1/2+x,1/2+z
1/2-x,1/2-y,1/2+z
1/2+y,1/2-x,1/2+z
1/2+x,1/2-y,1/2-z
1/2-x,1/2+y,1/2-z
1/2+y,1/2+x,1/2-z
1/2-y,1/2-x,1/2-z
1/2-x,1/2-y,1/2-z
1/2+y,1/2-x,1/2-z
1/2+x,1/2+y,1/2-z
1/2-y,1/2+x,1/2-z
1/2-x,1/2+y,1/2+z
1/2+x,1/2-y,1/2+z
1/2-y,1/2-x,1/2+z
1/2+y,1/2+x,1/2+z
loop_
_atom_site_type_symbol
_atom_site_label
_atom_site_fract_x
_atom_site_fract_y
_atom_site_fract_z
Si Si1 0.360194 0.170742 0.608560
Si Si2 0.089037 0.500000 0.442583
Si Si3 0.087715 0.693880 0.781092
Si Si4 0.687477 0.687477 0.760114
Si Si5 0.308142 0.580942 0.441927
Si Si6 0.813968 0.813968 0.624241
Si Si7 0.412057 0.587944 0.055011
O O1 0.423220 0.118779 0.582413
O O2 0.388367 0.181826 0.663363
O O3 0.366806 0.246801 0.579423
O O4 0.270987 0.160376 0.611519
O O5 0.111481 0.500000 0.500000
O O6 0.000000 0.500000 0.439904
O O7 0.132610 0.632610 0.750000
O O8 0.115578 0.775081 0.763777
O O9 0.000000 0.685958 0.775391
O O10 0.750000 0.750000 0.750000
O O11 0.678823 0.678823 0.817599
O O12 0.302148 0.579500 0.500000
O O13 0.294134 0.500000 0.422028
O O14 0.388579 0.611422 0.429552
O O15 0.867401 0.867401 0.594642
O O16 0.399464 0.500000 0.059620
O O17 0.390091 0.609910 0.000000
#
# Coordination Sequence:
#
# PCOD9571622 Si02
#       7
#    32  16  32  16  32  16  16
#     4  12  21  39  60  86 120 161 206 251 312 370
#     4  11  26  44  60  84 129 173 207 259 324 389
#     4  11  22  39  62  88 119 163 208 256 314 373
#     4  10  20  41  59  88 125 159 200 260 320 359
#     4  10  20  33  53  80 111 149 194 243 293 347
#     4  12  23  38  70  99 126 160 217 267 311 393
#     4   9  22  46  70  96 133 167 200 260 339 398
#
# _framework density 17.822852999999999
#
# number of rings (size 3 to 8) (size 9 to 14) (size 15 to 20)
#    0.000    1.200    7.000    0.900    0.000    4.400 
#    0.000    3.000    0.000    0.300    0.000    0.000 
#    0.000    0.000    0.000    0.000    0.000    0.000 
#
# Total GULP energy -445606.973706 kJ/mol
# GULP energy per Si atom -5570.087171 kJ/mol
# Density = 1.778229 g / cm^3
# Si number density = 17.822853 Si / 1000 Ang^3
#
#
#
# Elastic Constant Matrix: (Units=GPa)
#
#
# Indices 1 2 3 4 5 6 
#
# 1 131.5553 -0.5907 46.0690 0.0000 0.0000 0.0000
# 2 -0.5907 131.5538 46.0687 0.0000 0.0000 0.0000
# 3 46.0690 46.0687 104.3815 0.0000 0.0000 0.0000
# 4 0.0000 0.0000 0.0000 111.8054 0.0000 0.0000
# 5 0.0000 0.0000 0.0000 0.0000 111.8065 0.0000
# 6 0.0000 0.0000 0.0000 0.0000 0.0000 14.9894
#
#
#
# Elastic Compliance Matrix: (Units=1/GPa)
#
#
# Indices 1 2 3 4 5 6 
#
# 1 0.009321 0.001753 -0.004888 0.000000 0.000000 0.000000
# 2 0.001753 0.009321 -0.004888 0.000000 0.000000 0.000000
# 3 -0.004888 -0.004888 0.013895 0.000000 0.000000 0.000000
# 4 0.000000 0.000000 0.000000 0.008944 0.000000 0.000000
# 5 0.000000 0.000000 0.000000 0.000000 0.008944 0.000000
# 6 0.000000 0.000000 0.000000 0.000000 0.000000 0.066714
#
#
# Mechanical properties :
#
#
# Convention : Reuss Voigt Hill
#
# Bulk Modulus (GPa) = 60.63325 61.17607 60.90466
# Shear Modulus (GPa) = 36.05434 66.11650 51.08542
#
# Velocity S-wave (km/s) = 4.50258 6.09730 5.35958
# Velocity P-wave (km/s) = 7.81823 9.16343 8.51743
#
# Compressibility (1/GPa) = 0.01649260
#
# Stress axis : x y z
#
# Youngs Moduli (GPa) = 107.28662 107.28530 71.97043
#
# Poissons Ratio (x) = -0.18812 0.35177
# Poissons Ratio (y) = -0.18812 0.35177
# Poissons Ratio (z) = 0.52438 0.52438
#
# Static dielectric constant tensor:
#      x y z
#    x 1.628600 0.000000 0.000000 
#    y 0.000000 1.628600 0.000000 
#    z 0.000000 0.000000 1.638740 
# 
# From -- ./inp_files/13046.got.cif
#   From: 2010.05.17/outbox.cif.g08.bks.cpg/sg139_7_cif.got.tgz:13046.got - 2010.05.20 13:14:44.
