data_PCOD9571652
_publ_section_title
;
Structure prediction by ZEFSAII (Michael W. Deem and Ramdas Pophale) SiO2 
 PCOD9571652
Probable space group: I 4/M M M
;
_chemical_formula_sum "Si O2"
_cell_formula_units_Z 176
_cell_length_a 18.873305
_cell_length_b 18.873305
_cell_length_c 29.249362
_cell_angle_alpha 90.000000
_cell_angle_beta 90.000000
_cell_angle_gamma 90.000000
_cell_volume 10418.670761
_symmetry_space_group_name_H-M "I 4/M M M"
_symmetry_group_IT_number 139
_symmetry_cell_setting 'tetragonal'
loop_
_space_group_symop_operation_xyz
x,y,z
-y,x,z
-x,-y,z
y,-x,z
x,-y,-z
-x,y,-z
y,x,-z
-y,-x,-z
-x,-y,-z
y,-x,-z
x,y,-z
-y,x,-z
-x,y,z
x,-y,z
-y,-x,z
y,x,z
1/2+x,1/2+y,1/2+z
1/2-y,1/2+x,1/2+z
1/2-x,1/2-y,1/2+z
1/2+y,1/2-x,1/2+z
1/2+x,1/2-y,1/2-z
1/2-x,1/2+y,1/2-z
1/2+y,1/2+x,1/2-z
1/2-y,1/2-x,1/2-z
1/2-x,1/2-y,1/2-z
1/2+y,1/2-x,1/2-z
1/2+x,1/2+y,1/2-z
1/2-y,1/2+x,1/2-z
1/2-x,1/2+y,1/2+z
1/2+x,1/2-y,1/2+z
1/2-y,1/2-x,1/2+z
1/2+y,1/2+x,1/2+z
loop_
_atom_site_type_symbol
_atom_site_label
_atom_site_fract_x
_atom_site_fract_y
_atom_site_fract_z
Si Si1 0.268031 0.148836 0.361852
Si Si2 0.500000 0.618664 0.444944
Si Si3 0.079227 0.801332 0.718491
Si Si4 0.500000 0.082416 0.584087
Si Si5 0.417271 0.158554 0.050552
Si Si6 0.754754 0.500000 0.379493
Si Si7 0.248665 0.129487 0.188344
O O1 0.207543 0.207543 0.371125
O O2 0.234261 0.087412 0.331007
O O3 0.304690 0.123792 0.408128
O O4 0.325023 0.184891 0.328219
O O5 0.430902 0.569099 0.433706
O O6 0.500000 0.628398 0.500000
O O7 0.500000 0.695487 0.420029
O O8 0.134900 0.865100 0.719698
O O9 0.100260 0.749201 0.760135
O O10 0.000000 0.826316 0.726488
O O11 0.573519 0.085027 0.556603
O O12 0.500000 0.159931 0.609533
O O13 0.500000 0.000000 0.605307
O O14 0.500000 0.179001 0.053349
O O15 0.390184 0.177225 0.000000
O O16 0.739880 0.432365 0.348048
O O17 0.182158 0.182158 0.186318
#
# Coordination Sequence:
#
# PCOD9571652 Si02
#       7
#    32  16  32  16  32  16  32
#     4  10  20  35  54  76 103 136 172 214 260 311
#     4   9  20  38  56  79 115 157 199 239 279 326
#     4  10  20  35  55  78 106 138 174 213 265 323
#     4  10  21  36  54  76 106 140 178 220 271 317
#     4  10  20  35  54  76 102 134 171 212 262 316
#     4  12  19  34  58  80 110 144 188 229 269 327
#     4  10  20  34  52  80 109 138 177 222 266 315
#
# _framework density 16.892749999999999
#
# number of rings (size 3 to 8) (size 9 to 14) (size 15 to 20)
#    0.000    1.909    2.727    2.182    0.000    4.545 
#    0.000    0.000    0.000    0.000    0.000    0.000 
#    0.000    0.000    0.000   16.909    0.000    0.000 
#
# Total GULP energy -489963.701203 kJ/mol
# GULP energy per Si atom -5567.769332 kJ/mol
# Density = 1.685430 g / cm^3
# Si number density = 16.892750 Si / 1000 Ang^3
#
#
#
# Elastic Constant Matrix: (Units=GPa)
#
#
# Indices 1 2 3 4 5 6 
#
# 1 71.2692 13.2055 46.9519 0.0000 0.0000 0.0000
# 2 13.2055 71.2692 46.9519 0.0000 0.0000 0.0000
# 3 46.9519 46.9519 119.8453 0.0000 0.0000 0.0000
# 4 0.0000 0.0000 0.0000 116.4445 0.0000 0.0000
# 5 0.0000 0.0000 0.0000 0.0000 116.4445 0.0000
# 6 0.0000 0.0000 0.0000 0.0000 0.0000 33.3641
#
#
#
# Elastic Compliance Matrix: (Units=1/GPa)
#
#
# Indices 1 2 3 4 5 6 
#
# 1 0.019097 0.001874 -0.008216 0.000000 0.000000 0.000000
# 2 0.001874 0.019097 -0.008216 0.000000 0.000000 0.000000
# 3 -0.008216 -0.008216 0.014781 0.000000 0.000000 0.000000
# 4 0.000000 0.000000 0.000000 0.008588 0.000000 0.000000
# 5 0.000000 0.000000 0.000000 0.000000 0.008588 0.000000
# 6 0.000000 0.000000 0.000000 0.000000 0.000000 0.029972
#
#
# Mechanical properties :
#
#
# Convention : Reuss Voigt Hill
#
# Bulk Modulus (GPa) = 41.91133 52.95580 47.43357
# Shear Modulus (GPa) = 36.44578 63.60224 50.02401
#
# Velocity S-wave (km/s) = 4.64991 6.14267 5.44766
# Velocity P-wave (km/s) = 7.32755 9.04025 8.22858
#
# Compressibility (1/GPa) = 0.02385990
#
# Stress axis : x y z
#
# Youngs Moduli (GPa) = 52.36559 52.36559 67.65269
#
# Poissons Ratio (x) = -0.09813 0.55581
# Poissons Ratio (y) = -0.09813 0.55581
# Poissons Ratio (z) = 0.43022 0.43022
#
# Static dielectric constant tensor:
#      x y z
#    x 1.575100 0.000000 0.000000 
#    y 0.000000 1.575100 0.000000 
#    z 0.000000 0.000000 1.565090 
# 
# From -- ./inp_files/13179.got.cif
#   From: 2010.05.17/outbox.cif.g08.bks.cpg/sg139_7_cif.got.tgz:13179.got - 2010.05.20 13:14:44.
