data_PCOD9571212
_publ_section_title
;
Structure prediction by ZEFSAII (Michael W. Deem and Ramdas Pophale) SiO2 
 PCOD9571212
Probable space group: I 4/M M M
;
_chemical_formula_sum "Si O2"
_cell_formula_units_Z 192
_cell_length_a 22.015958
_cell_length_b 22.015958
_cell_length_c 25.728034
_cell_angle_alpha 90.000000
_cell_angle_beta 90.000000
_cell_angle_gamma 90.000000
_cell_volume 12470.439998
_symmetry_space_group_name_H-M "I 4/M M M"
_symmetry_group_IT_number 139
_symmetry_cell_setting 'tetragonal'
loop_
_space_group_symop_operation_xyz
x,y,z
-y,x,z
-x,-y,z
y,-x,z
x,-y,-z
-x,y,-z
y,x,-z
-y,-x,-z
-x,-y,-z
y,-x,-z
x,y,-z
-y,x,-z
-x,y,z
x,-y,z
-y,-x,z
y,x,z
1/2+x,1/2+y,1/2+z
1/2-y,1/2+x,1/2+z
1/2-x,1/2-y,1/2+z
1/2+y,1/2-x,1/2+z
1/2+x,1/2-y,1/2-z
1/2-x,1/2+y,1/2-z
1/2+y,1/2+x,1/2-z
1/2-y,1/2-x,1/2-z
1/2-x,1/2-y,1/2-z
1/2+y,1/2-x,1/2-z
1/2+x,1/2+y,1/2-z
1/2-y,1/2+x,1/2-z
1/2-x,1/2+y,1/2+z
1/2+x,1/2-y,1/2+z
1/2-y,1/2-x,1/2+z
1/2+y,1/2+x,1/2+z
loop_
_atom_site_type_symbol
_atom_site_label
_atom_site_fract_x
_atom_site_fract_y
_atom_site_fract_z
Si Si1 0.856734 0.429539 0.295135
Si Si2 0.361036 0.776590 0.101671
Si Si3 0.333708 0.570441 0.060675
Si Si4 0.715117 0.189759 0.000000
Si Si5 0.071747 0.599897 0.399207
Si Si6 0.680736 0.775187 0.306150
Si Si7 0.432923 0.849888 0.500000
O O1 0.845595 0.500000 0.281594
O O2 0.894528 0.394528 0.250000
O O3 0.897535 0.426423 0.347251
O O4 0.795417 0.390119 0.306243
O O5 0.392509 0.712073 0.096592
O O6 0.412975 0.828239 0.101607
O O7 0.318540 0.788063 0.150996
O O8 0.319507 0.785939 0.050873
O O9 0.333516 0.500000 0.073055
O O10 0.399516 0.600485 0.064441
O O11 0.313784 0.577492 0.000000
O O12 0.782463 0.217538 0.000000
O O13 0.702308 0.118037 0.000000
O O14 0.107321 0.575682 0.449651
O O15 0.000000 0.588314 0.401550
O O16 0.707108 0.707108 0.315116
O O17 0.704400 0.795601 0.250000
O O18 0.500000 0.823770 0.500000
#
# Coordination Sequence:
#
# PCOD9571212 Si02
#       7
#    32  32  32  16  32  32  16
#     4  10  20  32  47  67  91 120 153 187 221 265
#     4  10  18  30  47  66  87 111 150 195 232 269
#     4  10  19  29  43  63  89 121 156 197 242 284
#     4  10  18  29  47  66  83 108 143 183 221 257
#     4  10  20  31  44  63  88 120 151 180 215 257
#     4   9  18  32  49  67  89 116 147 189 237 278
#     4  10  21  32  42  61  89 118 145 175 209 253
#
# _framework density 15.396409
#
# number of rings (size 3 to 8) (size 9 to 14) (size 15 to 20)
#    0.000    2.167    0.833    3.250    0.000    2.667 
#    0.000    1.667    0.000    0.000    0.000    0.000 
#    0.000    0.500    0.000    0.000    0.000   26.000 
#
# Total GULP energy -534978.327190 kJ/mol
# GULP energy per Si atom -5572.690908 kJ/mol
# Density = 1.536137 g / cm^3
# Si number density = 15.396409 Si / 1000 Ang^3
#
#
#
# Elastic Constant Matrix: (Units=GPa)
#
#
# Indices 1 2 3 4 5 6 
#
# 1 83.0152 68.8570 17.3051 0.0000 0.0000 0.0000
# 2 68.8570 83.0164 17.3047 0.0000 0.0000 0.0000
# 3 17.3051 17.3047 93.2580 0.0000 0.0000 0.0000
# 4 0.0000 0.0000 0.0000 13.9903 0.0000 0.0000
# 5 0.0000 0.0000 0.0000 0.0000 13.9891 0.0000
# 6 0.0000 0.0000 0.0000 0.0000 0.0000 8.1325
#
#
#
# Elastic Compliance Matrix: (Units=1/GPa)
#
#
# Indices 1 2 3 4 5 6 
#
# 1 0.038752 -0.031876 -0.001276 0.000000 0.000000 0.000000
# 2 -0.031876 0.038751 -0.001276 0.000000 0.000000 0.000000
# 3 -0.001276 -0.001276 0.011196 0.000000 0.000000 0.000000
# 4 0.000000 0.000000 0.000000 0.071478 0.000000 0.000000
# 5 0.000000 0.000000 0.000000 0.000000 0.071484 0.000000
# 6 0.000000 0.000000 0.000000 0.000000 0.000000 0.122963
#
#
# Mechanical properties :
#
#
# Convention : Reuss Voigt Hill
#
# Bulk Modulus (GPa) = 50.39372 51.80259 51.09815
# Shear Modulus (GPa) = 11.62536 17.61058 14.61797
#
# Velocity S-wave (km/s) = 2.75083 3.38570 3.08464
# Velocity P-wave (km/s) = 6.54915 7.00020 6.77843
#
# Compressibility (1/GPa) = 0.01984374
#
# Stress axis : x y z
#
# Youngs Moduli (GPa) = 25.80525 25.80571 89.31443
#
# Poissons Ratio (x) = 0.82259 0.11396
# Poissons Ratio (y) = 0.82258 0.11392
# Poissons Ratio (z) = 0.03293 0.03292
#
# Static dielectric constant tensor:
#      x y z
#    x 1.519300 0.000000 0.000000 
#    y 0.000000 1.519300 0.000000 
#    z 0.000000 0.000000 1.518580 
# 
# From -- ./inp_files/13367.got.cif
#   From: 2010.05.17/outbox.cif.g08.bks.cpg/sg139_7_cif.got.tgz:13367.got - 2010.05.20 13:14:44.
