data_PCOD9571933
_publ_section_title
;
Structure prediction by ZEFSAII (Michael W. Deem and Ramdas Pophale) SiO2 
 PCOD9571933
Probable space group: I 4/M M M
;
_chemical_formula_sum "Si O2"
_cell_formula_units_Z 128
_cell_length_a 25.879561
_cell_length_b 25.879561
_cell_length_c 10.585199
_cell_angle_alpha 90.000000
_cell_angle_beta 90.000000
_cell_angle_gamma 90.000000
_cell_volume 7089.454787
_symmetry_space_group_name_H-M "I 4/M M M"
_symmetry_group_IT_number 139
_symmetry_cell_setting 'tetragonal'
loop_
_space_group_symop_operation_xyz
x,y,z
-y,x,z
-x,-y,z
y,-x,z
x,-y,-z
-x,y,-z
y,x,-z
-y,-x,-z
-x,-y,-z
y,-x,-z
x,y,-z
-y,x,-z
-x,y,z
x,-y,z
-y,-x,z
y,x,z
1/2+x,1/2+y,1/2+z
1/2-y,1/2+x,1/2+z
1/2-x,1/2-y,1/2+z
1/2+y,1/2-x,1/2+z
1/2+x,1/2-y,1/2-z
1/2-x,1/2+y,1/2-z
1/2+y,1/2+x,1/2-z
1/2-y,1/2-x,1/2-z
1/2-x,1/2-y,1/2-z
1/2+y,1/2-x,1/2-z
1/2+x,1/2+y,1/2-z
1/2-y,1/2+x,1/2-z
1/2-x,1/2+y,1/2+z
1/2+x,1/2-y,1/2+z
1/2-y,1/2-x,1/2+z
1/2+y,1/2+x,1/2+z
loop_
_atom_site_type_symbol
_atom_site_label
_atom_site_fract_x
_atom_site_fract_y
_atom_site_fract_z
Si Si1 0.760056 0.326417 0.000000
Si Si2 0.938755 0.561808 0.000000
Si Si3 0.898882 0.265592 0.741413
Si Si4 0.154168 0.758389 0.000000
Si Si5 0.915728 0.000000 0.346590
Si Si6 0.000000 0.205215 0.652863
Si Si7 0.389098 0.889098 0.250000
O O1 0.756366 0.359694 0.873901
O O2 0.813342 0.294905 0.000000
O O3 0.714960 0.285041 0.000000
O O4 0.912776 0.585233 0.124788
O O5 0.932195 0.500000 0.000000
O O6 0.000000 0.573107 0.000000
O O7 0.878526 0.242352 0.872421
O O8 0.950955 0.236662 0.703159
O O9 0.901067 0.327806 0.754308
O O10 0.194900 0.805101 0.000000
O O11 0.949492 0.949492 0.308020
O O12 0.915479 0.000000 0.500000
O O13 0.855577 0.000000 0.307617
O O14 0.000000 0.206205 0.500000
#
# Coordination Sequence:
#
# PCOD9571933 Si02
#       7
#    16  16  32  16  16  16  16
#     4  11  21  40  67  91 121 166 219 262 308 384
#     4  11  26  44  64  90 113 156 224 278 321 384
#     4  12  24  41  61  94 129 170 213 263 328 396
#     4  11  23  42  63  91 129 170 213 260 318 394
#     4   8  16  35  61  89 124 163 203 256 321 373
#     4  11  25  39  62  97 131 165 221 274 318 382
#     4  12  24  41  65  86 126 170 204 262 340 392
#
# _framework density 18.054984999999999
#
# number of rings (size 3 to 8) (size 9 to 14) (size 15 to 20)
#    0.000    1.000    3.750    3.375    3.500    5.500 
#    0.000    0.000    0.000    0.000    0.000    0.000 
#    0.000    3.000    0.000    0.000    0.000    0.000 
#
# Total GULP energy -357597.747419 kJ/mol
# GULP energy per Si atom -5587.464803 kJ/mol
# Density = 1.801389 g / cm^3
# Si number density = 18.054985 Si / 1000 Ang^3
#
#
#
# Elastic Constant Matrix: (Units=GPa)
#
#
# Indices 1 2 3 4 5 6 
#
# 1 107.2187 90.4563 52.6882 0.0000 0.0000 0.0000
# 2 90.4563 107.2540 52.7026 0.0000 0.0000 0.0000
# 3 52.6882 52.7026 157.0468 0.0000 0.0000 0.0000
# 4 0.0000 0.0000 0.0000 46.3915 0.0000 0.0000
# 5 0.0000 0.0000 0.0000 0.0000 46.3877 0.0000
# 6 0.0000 0.0000 0.0000 0.0000 0.0000 13.0192
#
#
#
# Elastic Compliance Matrix: (Units=1/GPa)
#
#
# Indices 1 2 3 4 5 6 
#
# 1 0.032882 -0.026717 -0.002066 0.000000 0.000000 0.000000
# 2 -0.026717 0.032873 -0.002068 0.000000 0.000000 0.000000
# 3 -0.002066 -0.002068 0.007755 0.000000 0.000000 0.000000
# 4 0.000000 0.000000 0.000000 0.021556 0.000000 0.000000
# 5 0.000000 0.000000 0.000000 0.000000 0.021557 0.000000
# 6 0.000000 0.000000 0.000000 0.000000 0.000000 0.076810
#
#
# Mechanical properties :
#
#
# Convention : Reuss Voigt Hill
#
# Bulk Modulus (GPa) = 84.69435 84.80154 84.74794
# Shear Modulus (GPa) = 19.29975 32.87118 26.08546
#
# Velocity S-wave (km/s) = 3.27302 4.27150 3.80515
# Velocity P-wave (km/s) = 7.82908 8.44974 8.14532
#
# Compressibility (1/GPa) = 0.01180716
#
# Stress axis : x y z
#
# Youngs Moduli (GPa) = 30.41158 30.42025 128.95464
#
# Poissons Ratio (x) = 0.81274 0.26640
# Poissons Ratio (y) = 0.81251 0.26670
# Poissons Ratio (z) = 0.06283 0.06291
#
# Static dielectric constant tensor:
#      x y z
#    x 1.617420 0.000000 0.000000 
#    y 0.000000 1.617420 0.000000 
#    z 0.000000 0.000000 1.579680 
# 
# From -- ./inp_files/3528.got.cif
#   From: 2010.05.17/outbox.cif.g08.bks.cpg/sg139_2_cif.got.tgz:3528.got - 2010.05.20 13:14:44.
