data_PCOD9571707
_publ_section_title
;
Structure prediction by ZEFSAII (Michael W. Deem and Ramdas Pophale) SiO2 
 PCOD9571707
Probable space group: I 4/M M M
;
_chemical_formula_sum "Si O2"
_cell_formula_units_Z 232
_cell_length_a 26.316779
_cell_length_b 26.316779
_cell_length_c 14.674660
_cell_angle_alpha 90.000000
_cell_angle_beta 90.000000
_cell_angle_gamma 90.000000
_cell_volume 10163.271201
_symmetry_space_group_name_H-M "I 4/M M M"
_symmetry_group_IT_number 139
_symmetry_cell_setting 'tetragonal'
loop_
_space_group_symop_operation_xyz
x,y,z
-y,x,z
-x,-y,z
y,-x,z
x,-y,-z
-x,y,-z
y,x,-z
-y,-x,-z
-x,-y,-z
y,-x,-z
x,y,-z
-y,x,-z
-x,y,z
x,-y,z
-y,-x,z
y,x,z
1/2+x,1/2+y,1/2+z
1/2-y,1/2+x,1/2+z
1/2-x,1/2-y,1/2+z
1/2+y,1/2-x,1/2+z
1/2+x,1/2-y,1/2-z
1/2-x,1/2+y,1/2-z
1/2+y,1/2+x,1/2-z
1/2-y,1/2-x,1/2-z
1/2-x,1/2-y,1/2-z
1/2+y,1/2-x,1/2-z
1/2+x,1/2+y,1/2-z
1/2-y,1/2+x,1/2-z
1/2-x,1/2+y,1/2+z
1/2+x,1/2-y,1/2+z
1/2-y,1/2-x,1/2+z
1/2+y,1/2+x,1/2+z
loop_
_atom_site_type_symbol
_atom_site_label
_atom_site_fract_x
_atom_site_fract_y
_atom_site_fract_z
Si Si1 0.555017 0.364362 0.140745
Si Si2 0.939654 0.748199 0.154537
Si Si3 0.274941 0.805510 0.394288
Si Si4 0.058587 0.140441 0.862444
Si Si5 0.846088 0.620406 0.604388
Si Si6 0.248841 0.080507 0.367844
Si Si7 0.057505 0.559239 0.388818
Si Si8 0.000000 0.707396 0.500000
O O1 0.500000 0.385626 0.115837
O O2 0.600640 0.399361 0.109149
O O3 0.557449 0.361626 0.251433
O O4 0.558894 0.306678 0.108598
O O5 0.921804 0.802742 0.115899
O O6 0.921039 0.698193 0.104926
O O7 0.923732 0.743495 0.259922
O O8 0.000000 0.751554 0.152245
O O9 0.283935 0.791261 0.500000
O O10 0.238450 0.761551 0.355235
O O11 0.329938 0.819337 0.353185
O O12 0.248263 0.860360 0.392459
O O13 0.096426 0.096426 0.893471
O O14 0.000000 0.133852 0.892345
O O15 0.858821 0.634315 0.500000
O O16 0.897531 0.596051 0.643617
O O17 0.288382 0.045219 0.421179
O O18 0.058416 0.560188 0.500000
O O19 0.065610 0.500000 0.362832
O O20 0.000000 0.574081 0.361905
#
# Coordination Sequence:
#
# PCOD9571707 Si02
#       8
#    32  32  32  32  32  32  32   8
#     4   9  16  28  46  71 102 136 179 225 275 331
#     4  10  20  35  56  84 116 145 184 237 281 330
#     4  10  22  39  57  81 115 152 195 245 290 342
#     4   8  15  27  45  72 105 141 183 232 282 331
#     4  10  21  37  56  83 115 155 193 227 282 344
#     4  11  20  37  57  81 107 142 190 239 289 332
#     4   8  14  28  51  81 114 146 183 225 271 335
#     4  12  20  36  62  84 103 140 193 238 286 340
#
# _framework density 22.827296
#
# number of rings (size 3 to 8) (size 9 to 14) (size 15 to 20)
#    0.000    2.483    2.069    2.069    0.000    2.759 
#    1.241    2.069    0.000    0.000    0.000    0.483 
#    0.000    2.207    0.000    6.690    0.000    2.069 
#
# Total GULP energy -646629.541430 kJ/mol
# GULP energy per Si atom -5574.392599 kJ/mol
# Density = 2.277534 g / cm^3
# Si number density = 22.827296 Si / 1000 Ang^3
#
#
#
# Elastic Constant Matrix: (Units=GPa)
#
#
# Indices 1 2 3 4 5 6 
#
# 1 80.9944 72.2618 15.6046 0.0000 0.0000 0.0000
# 2 72.2618 80.9944 15.6046 0.0000 0.0000 0.0000
# 3 15.6046 15.6046 80.6674 0.0000 0.0000 0.0000
# 4 0.0000 0.0000 0.0000 -1.8454 0.0000 0.0000
# 5 0.0000 0.0000 0.0000 0.0000 -1.8454 0.0000
# 6 0.0000 0.0000 0.0000 0.0000 0.0000 7.0467
#
#
#
# Elastic Compliance Matrix: (Units=1/GPa)
#
#
# Indices 1 2 3 4 5 6 
#
# 1 0.060653 -0.053860 -0.001314 0.000000 0.000000 0.000000
# 2 -0.053860 0.060653 -0.001314 0.000000 0.000000 0.000000
# 3 -0.001314 -0.001314 0.012905 0.000000 0.000000 0.000000
# 4 0.000000 0.000000 0.000000 -0.541900 0.000000 0.000000
# 5 0.000000 0.000000 0.000000 0.000000 -0.541900 0.000000
# 6 0.000000 0.000000 0.000000 0.000000 0.000000 0.141910
#
#
# Mechanical properties :
#
#
# Convention : Reuss Voigt Hill
#
# Bulk Modulus (GPa) = 47.09384 49.95536 48.52460
# Shear Modulus (GPa) = -7.27143 9.95021 1.33939
#
# Velocity S-wave (km/s) = -1.78671 2.09006 0.76683
# Velocity P-wave (km/s) = 4.05202 5.26840 4.69973
#
# Compressibility (1/GPa) = 0.02123420
#
# Stress axis : x y z
#
# Youngs Moduli (GPa) = 16.48723 16.48723 77.48971
#
# Poissons Ratio (x) = 0.88801 0.10182
# Poissons Ratio (y) = 0.88801 0.10182
# Poissons Ratio (z) = 0.02166 0.02166
#
# Static dielectric constant tensor:
#      x y z
#    x 1.868120 0.000000 0.000000 
#    y 0.000000 1.868120 0.000000 
#    z 0.000000 0.000000 1.859500 
# 
# From -- ./inp_files/9070.got.cif
#   From: 2010.05.17/outbox.cif.g08.bks.cpg/sg139_5_cif.got.tgz:9070.got - 2010.05.20 13:14:44.
