data_PCOD9571741
_publ_section_title
;
Structure prediction by ZEFSAII (Michael W. Deem and Ramdas Pophale) SiO2 
 PCOD9571741
Probable space group: I 4/M M M
;
_chemical_formula_sum "Si O2"
_cell_formula_units_Z 128
_cell_length_a 25.662967
_cell_length_b 25.662967
_cell_length_c 10.785413
_cell_angle_alpha 90.000000
_cell_angle_beta 90.000000
_cell_angle_gamma 90.000000
_cell_volume 7103.142231
_symmetry_space_group_name_H-M "I 4/M M M"
_symmetry_group_IT_number 139
_symmetry_cell_setting 'tetragonal'
loop_
_space_group_symop_operation_xyz
x,y,z
-y,x,z
-x,-y,z
y,-x,z
x,-y,-z
-x,y,-z
y,x,-z
-y,-x,-z
-x,-y,-z
y,-x,-z
x,y,-z
-y,x,-z
-x,y,z
x,-y,z
-y,-x,z
y,x,z
1/2+x,1/2+y,1/2+z
1/2-y,1/2+x,1/2+z
1/2-x,1/2-y,1/2+z
1/2+y,1/2-x,1/2+z
1/2+x,1/2-y,1/2-z
1/2-x,1/2+y,1/2-z
1/2+y,1/2+x,1/2-z
1/2-y,1/2-x,1/2-z
1/2-x,1/2-y,1/2-z
1/2+y,1/2-x,1/2-z
1/2+x,1/2+y,1/2-z
1/2-y,1/2+x,1/2-z
1/2-x,1/2+y,1/2+z
1/2+x,1/2-y,1/2+z
1/2-y,1/2-x,1/2+z
1/2+y,1/2+x,1/2+z
loop_
_atom_site_type_symbol
_atom_site_label
_atom_site_fract_x
_atom_site_fract_y
_atom_site_fract_z
Si Si1 0.761380 0.321878 0.000000
Si Si2 0.061297 0.622033 0.000000
Si Si3 0.893594 0.259620 0.731572
Si Si4 0.125404 0.724446 0.000000
Si Si5 0.915620 0.000000 0.650561
Si Si6 0.000000 0.205565 0.650133
Si Si7 0.384553 0.884553 0.250000
O O1 0.745532 0.353592 0.877570
O O2 0.733176 0.266825 0.000000
O O3 0.823067 0.311579 0.000000
O O4 0.077406 0.683511 0.000000
O O5 0.086117 0.599274 0.125178
O O6 0.000000 0.616466 0.000000
O O7 0.894446 0.322834 0.731815
O O8 0.948854 0.234615 0.699826
O O9 0.876076 0.245035 0.870780
O O10 0.949201 0.949201 0.689002
O O11 0.915520 0.000000 0.500000
O O12 0.855389 0.000000 0.688497
O O13 0.000000 0.207940 0.500000
#
# Coordination Sequence:
#
# PCOD9571741 Si02
#       7
#    16  16  32  16  16  16  16
#     4  12  22  39  62  83 121 172 207 243 306 375
#     4  10  20  36  62  88 106 155 199 243 295 352
#     4  11  21  39  56  89 123 159 202 252 305 364
#     4  10  22  38  55  86 123 151 209 251 300 364
#     4   8  16  35  59  83 118 158 194 249 316 361
#     4  11  23  33  60  95 126 156 211 254 310 366
#     4  10  20  38  59  83 122 148 198 256 300 356
#
# _framework density 18.020194
#
# number of rings (size 3 to 8) (size 9 to 14) (size 15 to 20)
#    0.000    1.625    6.250    0.375    7.000    3.000 
#    0.000    0.625    0.000    1.125    0.000    0.875 
#    0.000    4.000    0.000    0.000    0.000    0.000 
#
# Total GULP energy -356929.902380 kJ/mol
# GULP energy per Si atom -5577.029725 kJ/mol
# Density = 1.797918 g / cm^3
# Si number density = 18.020194 Si / 1000 Ang^3
#
#
#
# Elastic Constant Matrix: (Units=GPa)
#
#
# Indices 1 2 3 4 5 6 
#
# 1 80.0771 66.3030 28.3659 0.0000 0.0000 0.0000
# 2 66.3030 80.0870 28.3711 0.0000 0.0000 0.0000
# 3 28.3659 28.3711 156.0965 0.0000 0.0000 0.0000
# 4 0.0000 0.0000 0.0000 2.3932 0.0000 0.0000
# 5 0.0000 0.0000 0.0000 0.0000 2.4042 0.0000
# 6 0.0000 0.0000 0.0000 0.0000 0.0000 18.1783
#
#
#
# Elastic Compliance Matrix: (Units=1/GPa)
#
#
# Indices 1 2 3 4 5 6 
#
# 1 0.039964 -0.032612 -0.001335 0.000000 0.000000 0.000000
# 2 -0.032612 0.039959 -0.001336 0.000000 0.000000 0.000000
# 3 -0.001335 -0.001336 0.006892 0.000000 0.000000 0.000000
# 4 0.000000 0.000000 0.000000 0.417850 0.000000 0.000000
# 5 0.000000 0.000000 0.000000 0.000000 0.415938 0.000000
# 6 0.000000 0.000000 0.000000 0.000000 0.000000 0.055011
#
#
# Mechanical properties :
#
#
# Convention : Reuss Voigt Hill
#
# Bulk Modulus (GPa) = 61.54852 62.48227 62.01539
# Shear Modulus (GPa) = 4.75468 17.47652 11.11560
#
# Velocity S-wave (km/s) = 1.62612 3.11759 2.48632
# Velocity P-wave (km/s) = 6.14452 6.90709 6.53693
#
# Compressibility (1/GPa) = 0.01624734
#
# Stress axis : x y z
#
# Youngs Moduli (GPa) = 25.02282 25.02551 145.10122
#
# Poissons Ratio (x) = 0.81614 0.19368
# Poissons Ratio (y) = 0.81605 0.19391
# Poissons Ratio (z) = 0.03340 0.03344
#
# Static dielectric constant tensor:
#      x y z
#    x 1.595290 0.000000 0.000000 
#    y 0.000000 1.595290 0.000000 
#    z 0.000000 0.000000 1.660580 
# 
# From -- ./inp_files/3529.got.cif
#   From: 2010.05.17/outbox.cif.g08.bks.cpg/sg139_2_cif.got.tgz:3529.got - 2010.05.20 13:14:44.
