data_PCOD9571810
_publ_section_title
;
Structure prediction by ZEFSAII (Michael W. Deem and Ramdas Pophale) SiO2 
 PCOD9571810
Probable space group: I 4/M M M
;
_chemical_formula_sum "Si O2"
_cell_formula_units_Z 96
_cell_length_a 24.705172
_cell_length_b 24.705172
_cell_length_c 8.620364
_cell_angle_alpha 90.000000
_cell_angle_beta 90.000000
_cell_angle_gamma 90.000000
_cell_volume 5261.400579
_symmetry_space_group_name_H-M "I 4/M M M"
_symmetry_group_IT_number 139
_symmetry_cell_setting 'tetragonal'
loop_
_space_group_symop_operation_xyz
x,y,z
-y,x,z
-x,-y,z
y,-x,z
x,-y,-z
-x,y,-z
y,x,-z
-y,-x,-z
-x,-y,-z
y,-x,-z
x,y,-z
-y,x,-z
-x,y,z
x,-y,z
-y,-x,z
y,x,z
1/2+x,1/2+y,1/2+z
1/2-y,1/2+x,1/2+z
1/2-x,1/2-y,1/2+z
1/2+y,1/2-x,1/2+z
1/2+x,1/2-y,1/2-z
1/2-x,1/2+y,1/2-z
1/2+y,1/2+x,1/2-z
1/2-y,1/2-x,1/2-z
1/2-x,1/2-y,1/2-z
1/2+y,1/2-x,1/2-z
1/2+x,1/2+y,1/2-z
1/2-y,1/2+x,1/2-z
1/2-x,1/2+y,1/2+z
1/2+x,1/2-y,1/2+z
1/2-y,1/2-x,1/2+z
1/2+y,1/2+x,1/2+z
loop_
_atom_site_type_symbol
_atom_site_label
_atom_site_fract_x
_atom_site_fract_y
_atom_site_fract_z
Si Si1 0.643979 0.063302 0.814701
Si Si2 0.349643 0.349643 0.686405
Si Si3 0.353049 0.230184 0.815358
Si Si4 0.437966 0.562035 0.311051
O O1 0.588626 0.088626 0.750000
O O2 0.691467 0.097792 0.735634
O O3 0.648560 0.000000 0.782155
O O4 0.646590 0.071791 0.000000
O O5 0.349552 0.349552 0.500000
O O6 0.361902 0.289480 0.746625
O O7 0.393909 0.393909 0.740053
O O8 0.299173 0.200828 0.750000
O O9 0.348904 0.232886 0.000000
O O10 0.425486 0.500000 0.263442
O O11 0.437598 0.562403 0.500000
#
# Coordination Sequence:
#
# PCOD9571810 Si02
#       4
#    32  16  32  16
#     4  10  21  37  57  81 110 145 185 228 275 326
#     4  11  21  34  56  85 113 142 179 222 269 327
#     4  11  22  37  56  79 110 145 182 226 275 325
#     4   8  16  33  56  81 108 138 174 217 262 308
#
# _framework density 18.246092000000001
#
# number of rings (size 3 to 8) (size 9 to 14) (size 15 to 20)
#    0.000    1.833    0.000    7.500    0.000    4.333 
#    0.000    5.000    0.000    3.000    0.000    4.667 
#    0.000    0.000    0.000    0.000    0.000    0.000 
#
# Total GULP energy -268099.112310 kJ/mol
# GULP energy per Si atom -5585.398173 kJ/mol
# Density = 1.820456 g / cm^3
# Si number density = 18.246092 Si / 1000 Ang^3
#
#
#
# Elastic Constant Matrix: (Units=GPa)
#
#
# Indices 1 2 3 4 5 6 
#
# 1 141.3770 89.4845 53.7798 0.0000 0.0000 0.0000
# 2 89.4845 141.3771 53.7729 0.0000 0.0000 0.0000
# 3 53.7798 53.7729 97.3617 0.0000 0.0000 0.0000
# 4 0.0000 0.0000 0.0000 27.5590 0.0000 0.0000
# 5 0.0000 0.0000 0.0000 0.0000 27.5593 0.0000
# 6 0.0000 0.0000 0.0000 0.0000 0.0000 24.8240
#
#
#
# Elastic Compliance Matrix: (Units=1/GPa)
#
#
# Indices 1 2 3 4 5 6 
#
# 1 0.012552 -0.006719 -0.003222 0.000000 0.000000 0.000000
# 2 -0.006719 0.012551 -0.003221 0.000000 0.000000 0.000000
# 3 -0.003222 -0.003221 0.013830 0.000000 0.000000 0.000000
# 4 0.000000 0.000000 0.000000 0.036286 0.000000 0.000000
# 5 0.000000 0.000000 0.000000 0.000000 0.036285 0.000000
# 6 0.000000 0.000000 0.000000 0.000000 0.000000 0.040284
#
#
# Mechanical properties :
#
#
# Convention : Reuss Voigt Hill
#
# Bulk Modulus (GPa) = 79.31070 86.02113 82.66592
# Shear Modulus (GPa) = 27.42519 28.19371 27.80945
#
# Velocity S-wave (km/s) = 3.88115 3.93516 3.90825
# Velocity P-wave (km/s) = 7.97785 8.23982 8.10989
#
# Compressibility (1/GPa) = 0.01260864
#
# Stress axis : x y z
#
# Youngs Moduli (GPa) = 79.66901 79.67446 72.30862
#
# Poissons Ratio (x) = 0.53534 0.23300
# Poissons Ratio (y) = 0.53531 0.23287
# Poissons Ratio (z) = 0.25672 0.25659
#
# Static dielectric constant tensor:
#      x y z
#    x 1.614970 0.000000 0.000000 
#    y 0.000000 1.614970 0.000000 
#    z 0.000000 0.000000 1.616180 
# 
# From -- ./inp_files/1128.got.cif
#   From: 2010.05.17/outbox.cif.g08.bks.cpg/sg139_1_cif.got.tgz:1128.got - 2010.05.20 13:14:44.
