data_PCOD9571548
_publ_section_title
;
Structure prediction by ZEFSAII (Michael W. Deem and Ramdas Pophale) SiO2 
 PCOD9571548
Probable space group: I 4/M M M
;
_chemical_formula_sum "Si O2"
_cell_formula_units_Z 96
_cell_length_a 13.500562
_cell_length_b 13.500562
_cell_length_c 31.731685
_cell_angle_alpha 90.000000
_cell_angle_beta 90.000000
_cell_angle_gamma 90.000000
_cell_volume 5783.581098
_symmetry_space_group_name_H-M "I 4/M M M"
_symmetry_group_IT_number 139
_symmetry_cell_setting 'tetragonal'
loop_
_space_group_symop_operation_xyz
x,y,z
-y,x,z
-x,-y,z
y,-x,z
x,-y,-z
-x,y,-z
y,x,-z
-y,-x,-z
-x,-y,-z
y,-x,-z
x,y,-z
-y,x,-z
-x,y,z
x,-y,z
-y,-x,z
y,x,z
1/2+x,1/2+y,1/2+z
1/2-y,1/2+x,1/2+z
1/2-x,1/2-y,1/2+z
1/2+y,1/2-x,1/2+z
1/2+x,1/2-y,1/2-z
1/2-x,1/2+y,1/2-z
1/2+y,1/2+x,1/2-z
1/2-y,1/2-x,1/2-z
1/2-x,1/2-y,1/2-z
1/2+y,1/2-x,1/2-z
1/2+x,1/2+y,1/2-z
1/2-y,1/2+x,1/2-z
1/2-x,1/2+y,1/2+z
1/2+x,1/2-y,1/2+z
1/2-y,1/2-x,1/2+z
1/2+y,1/2+x,1/2+z
loop_
_atom_site_type_symbol
_atom_site_label
_atom_site_fract_x
_atom_site_fract_y
_atom_site_fract_z
Si Si1 0.114468 0.379806 0.046710
Si Si2 0.116996 0.718377 0.210120
Si Si3 0.618386 0.222294 0.132454
O O1 0.114003 0.500000 0.046199
O O2 0.179959 0.352014 0.086606
O O3 0.000000 0.348555 0.052404
O O4 0.147924 0.347163 0.000000
O O5 0.179692 0.820309 0.210271
O O6 0.155323 0.655323 0.250000
O O7 0.148433 0.658881 0.168187
O O8 0.000000 0.733915 0.212081
O O9 0.500000 0.230432 0.134809
O O10 0.673742 0.326259 0.139330
#
# Coordination Sequence:
#
# PCOD9571548 Si02
#       3
#    32  32  32
#     4   8  14  26  45  67  89 116 154 200 247 291
#     4  10  21  36  54  77 102 128 161 199 240 288
#     4  10  20  32  47  69  97 130 168 207 246 290
#
# _framework density 16.598713
#
# number of rings (size 3 to 8) (size 9 to 14) (size 15 to 20)
#    0.000    2.667    0.000    3.000    0.000    5.000 
#    0.000    0.000    0.000    6.000    0.000    4.667 
#    0.000    0.000    0.000   31.000    0.000    1.667 
#
# Total GULP energy -267486.141907 kJ/mol
# GULP energy per Si atom -5572.627956 kJ/mol
# Density = 1.656093 g / cm^3
# Si number density = 16.598713 Si / 1000 Ang^3
#
#
#
# Elastic Constant Matrix: (Units=GPa)
#
#
# Indices 1 2 3 4 5 6 
#
# 1 92.9873 68.4332 50.7213 0.0000 0.0000 0.0000
# 2 68.4332 92.9873 50.7213 0.0000 0.0000 0.0000
# 3 50.7213 50.7213 124.3262 0.0000 0.0000 0.0000
# 4 0.0000 0.0000 0.0000 21.4278 0.0000 0.0000
# 5 0.0000 0.0000 0.0000 0.0000 21.4278 0.0000
# 6 0.0000 0.0000 0.0000 0.0000 0.0000 5.5514
#
#
#
# Elastic Compliance Matrix: (Units=1/GPa)
#
#
# Indices 1 2 3 4 5 6 
#
# 1 0.024529 -0.016198 -0.003399 0.000000 0.000000 0.000000
# 2 -0.016198 0.024529 -0.003399 0.000000 0.000000 0.000000
# 3 -0.003399 -0.003399 0.010817 0.000000 0.000000 0.000000
# 4 0.000000 0.000000 0.000000 0.046668 0.000000 0.000000
# 5 0.000000 0.000000 0.000000 0.000000 0.046668 0.000000
# 6 0.000000 0.000000 0.000000 0.000000 0.000000 0.180134
#
#
# Mechanical properties :
#
#
# Convention : Reuss Voigt Hill
#
# Bulk Modulus (GPa) = 72.02892 72.22809 72.12850
# Shear Modulus (GPa) = 13.02208 19.04307 16.03258
#
# Velocity S-wave (km/s) = 2.80397 3.39080 3.11125
# Velocity P-wave (km/s) = 7.34653 7.67716 7.51366
#
# Compressibility (1/GPa) = 0.01388331
#
# Stress axis : x y z
#
# Youngs Moduli (GPa) = 40.76866 40.76866 92.45104
#
# Poissons Ratio (x) = 0.66036 0.31422
# Poissons Ratio (y) = 0.66036 0.31422
# Poissons Ratio (z) = 0.13856 0.13856
#
# Static dielectric constant tensor:
#      x y z
#    x 1.534710 0.000000 0.000000 
#    y 0.000000 1.534710 0.000000 
#    z 0.000000 0.000000 1.582290 
# 
# From -- ./inp_files/13642.got.cif
#   From: 2010.05.17/outbox.cif.g08.bks.cpg/sg139_7_cif.got.tgz:13642.got - 2010.05.20 13:14:44.
