data_PCOD9571842
_publ_section_title
;
Structure prediction by ZEFSAII (Michael W. Deem and Ramdas Pophale) SiO2 
 PCOD9571842
Probable space group: I 4/M M M
;
_chemical_formula_sum "Si O2"
_cell_formula_units_Z 160
_cell_length_a 31.863294
_cell_length_b 31.863294
_cell_length_c 8.766803
_cell_angle_alpha 90.000000
_cell_angle_beta 90.000000
_cell_angle_gamma 90.000000
_cell_volume 8900.667738
_symmetry_space_group_name_H-M "I 4/M M M"
_symmetry_group_IT_number 139
_symmetry_cell_setting 'tetragonal'
loop_
_space_group_symop_operation_xyz
x,y,z
-y,x,z
-x,-y,z
y,-x,z
x,-y,-z
-x,y,-z
y,x,-z
-y,-x,-z
-x,-y,-z
y,-x,-z
x,y,-z
-y,x,-z
-x,y,z
x,-y,z
-y,-x,z
y,x,z
1/2+x,1/2+y,1/2+z
1/2-y,1/2+x,1/2+z
1/2-x,1/2-y,1/2+z
1/2+y,1/2-x,1/2+z
1/2+x,1/2-y,1/2-z
1/2-x,1/2+y,1/2-z
1/2+y,1/2+x,1/2-z
1/2-y,1/2-x,1/2-z
1/2-x,1/2-y,1/2-z
1/2+y,1/2-x,1/2-z
1/2+x,1/2+y,1/2-z
1/2-y,1/2+x,1/2-z
1/2-x,1/2+y,1/2+z
1/2+x,1/2-y,1/2+z
1/2-y,1/2-x,1/2+z
1/2+y,1/2+x,1/2+z
loop_
_atom_site_type_symbol
_atom_site_label
_atom_site_fract_x
_atom_site_fract_y
_atom_site_fract_z
Si Si1 0.000000 0.119841 0.319381
Si Si2 0.150871 0.150871 0.825104
Si Si3 0.771538 0.902871 0.316219
Si Si4 0.500000 0.284834 0.814979
Si Si5 0.548245 0.886704 0.316310
Si Si6 0.383363 0.817999 0.683589
Si Si7 0.920060 0.079941 0.827760
O O1 0.000000 0.167187 0.263094
O O2 0.959507 0.097266 0.259408
O O3 0.000000 0.121271 0.500000
O O4 0.126755 0.190564 0.746999
O O5 0.115317 0.115317 0.829803
O O6 0.162269 0.162269 0.000000
O O7 0.774651 0.902527 0.500000
O O8 0.770448 0.952757 0.267267
O O9 0.727583 0.884794 0.257540
O O10 0.500000 0.281230 0.000000
O O11 0.548440 0.889962 0.500000
O O12 0.500000 0.885131 0.264280
O O13 0.574049 0.925952 0.250000
O O14 0.574678 0.844914 0.276665
O O15 0.380726 0.815313 0.500000
O O16 0.345170 0.845170 0.750000
O O17 0.931328 0.068673 0.000000
#
# Coordination Sequence:
#
# PCOD9571842 Si02
#       7
#    16  16  32  16  32  32  16
#     4  11  21  38  60  81 111 155 198 237 287 352
#     4  11  23  39  59  87 119 153 190 234 292 351
#     4  11  22  39  62  90 120 154 194 239 288 344
#     4   9  20  35  56  88 121 151 190 237 288 344
#     4   9  19  35  54  79 114 154 196 240 287 338
#     4  10  21  39  61  86 118 156 195 240 292 347
#     4  11  23  38  56  82 116 151 191 244 295 343
#
# _framework density 17.976179999999999
#
# number of rings (size 3 to 8) (size 9 to 14) (size 15 to 20)
#    0.000    1.800    2.000    2.100    1.400    2.400 
#    0.000    4.000    0.000    0.000    0.000    0.000 
#    0.000    0.000    0.000    0.000    0.000    0.000 
#
# Total GULP energy -445955.104302 kJ/mol
# GULP energy per Si atom -5574.438804 kJ/mol
# Density = 1.793527 g / cm^3
# Si number density = 17.976180 Si / 1000 Ang^3
#
#
#
# Elastic Constant Matrix: (Units=GPa)
#
#
# Indices 1 2 3 4 5 6 
#
# 1 152.3955 53.3778 40.6420 0.0000 0.0000 0.0000
# 2 53.3778 152.3949 40.6423 0.0000 0.0000 0.0000
# 3 40.6420 40.6423 58.0221 0.0000 0.0000 0.0000
# 4 0.0000 0.0000 0.0000 28.8532 0.0000 0.0000
# 5 0.0000 0.0000 0.0000 0.0000 28.8537 0.0000
# 6 0.0000 0.0000 0.0000 0.0000 0.0000 20.6258
#
#
#
# Elastic Compliance Matrix: (Units=1/GPa)
#
#
# Indices 1 2 3 4 5 6 
#
# 1 0.008409 -0.001690 -0.004706 0.000000 0.000000 0.000000
# 2 -0.001690 0.008409 -0.004706 0.000000 0.000000 0.000000
# 3 -0.004706 -0.004706 0.023828 0.000000 0.000000 0.000000
# 4 0.000000 0.000000 0.000000 0.034658 0.000000 0.000000
# 5 0.000000 0.000000 0.000000 0.000000 0.034658 0.000000
# 6 0.000000 0.000000 0.000000 0.000000 0.000000 0.048483
#
#
# Mechanical properties :
#
#
# Convention : Reuss Voigt Hill
#
# Bulk Modulus (GPa) = 54.22851 70.23741 62.23296
# Shear Modulus (GPa) = 26.76705 30.87656 28.82181
#
# Velocity S-wave (km/s) = 3.86298 4.14894 4.00851
# Velocity P-wave (km/s) = 7.08020 7.88092 7.49126
#
# Compressibility (1/GPa) = 0.01844048
#
# Stress axis : x y z
#
# Youngs Moduli (GPa) = 118.92069 118.91955 41.96768
#
# Poissons Ratio (x) = 0.20100 0.19751
# Poissons Ratio (y) = 0.20100 0.19751
# Poissons Ratio (z) = 0.55966 0.55967
#
# Static dielectric constant tensor:
#      x y z
#    x 1.600570 0.000000 0.000000 
#    y 0.000000 1.600570 0.000000 
#    z 0.000000 0.000000 1.618140 
# 
# From -- ./inp_files/2307.got.cif
#   From: 2010.05.17/outbox.cif.g08.bks.cpg/sg139_2_cif.got.tgz:2307.got - 2010.05.20 13:14:44.
