data_PCOD9571291
_publ_section_title
;
Structure prediction by ZEFSAII (Michael W. Deem and Ramdas Pophale) SiO2 
 PCOD9571291
Probable space group: I 4/M M M
;
_chemical_formula_sum "Si O2"
_cell_formula_units_Z 132
_cell_length_a 32.005328
_cell_length_b 32.005328
_cell_length_c 8.047446
_cell_angle_alpha 90.000000
_cell_angle_beta 90.000000
_cell_angle_gamma 90.000000
_cell_volume 8243.329047
_symmetry_space_group_name_H-M "I 4/M M M"
_symmetry_group_IT_number 139
_symmetry_cell_setting 'tetragonal'
loop_
_space_group_symop_operation_xyz
x,y,z
-y,x,z
-x,-y,z
y,-x,z
x,-y,-z
-x,y,-z
y,x,-z
-y,-x,-z
-x,-y,-z
y,-x,-z
x,y,-z
-y,x,-z
-x,y,z
x,-y,z
-y,-x,z
y,x,z
1/2+x,1/2+y,1/2+z
1/2-y,1/2+x,1/2+z
1/2-x,1/2-y,1/2+z
1/2+y,1/2-x,1/2+z
1/2+x,1/2-y,1/2-z
1/2-x,1/2+y,1/2-z
1/2+y,1/2+x,1/2-z
1/2-y,1/2-x,1/2-z
1/2-x,1/2-y,1/2-z
1/2+y,1/2-x,1/2-z
1/2+x,1/2+y,1/2-z
1/2-y,1/2+x,1/2-z
1/2-x,1/2+y,1/2+z
1/2+x,1/2-y,1/2+z
1/2-y,1/2-x,1/2+z
1/2+y,1/2+x,1/2+z
loop_
_atom_site_type_symbol
_atom_site_label
_atom_site_fract_x
_atom_site_fract_y
_atom_site_fract_z
Si Si1 0.050350 0.117865 0.500000
Si Si2 0.500000 0.000000 0.250000
Si Si3 0.500000 0.097792 0.190056
Si Si4 0.326053 0.550771 0.684399
Si Si5 0.765308 0.549300 0.200423
Si Si6 0.418982 0.145773 0.200304
O O1 0.074117 0.074117 0.500000
O O2 0.062927 0.144112 0.336073
O O3 0.000000 0.113395 0.500000
O O4 0.500000 0.952328 0.182477
O O5 0.457693 0.117045 0.264968
O O6 0.500000 0.112885 0.000000
O O7 0.339295 0.564333 0.500000
O O8 0.325690 0.500000 0.686212
O O9 0.278175 0.563325 0.719815
O O10 0.771772 0.500000 0.237430
O O11 0.806761 0.573528 0.255257
O O12 0.761077 0.552469 0.000000
O O13 0.376347 0.123654 0.250000
O O14 0.420298 0.145995 0.000000
#
# Coordination Sequence:
#
# PCOD9571291 Si02
#       6
#    16   4  16  32  32  32
#     4  10  20  35  54  80 116 152 182 208 234 264
#     4  12  18  28  44  42  68 116 166 220 250 292
#     4  10  19  29  37  52  71 107 158 202 252 305
#     4   9  17  30  50  76 102 133 174 215 255 293
#     4   9  15  27  47  64  85 121 160 206 265 321
#     4  10  19  30  41  57  83 114 152 201 259 319
#
# _framework density 16.012947
#
# number of rings (size 3 to 8) (size 9 to 14) (size 15 to 20)
#    0.000    2.424    3.636    0.182    0.000    1.576 
#    0.000    0.606    0.000    0.000    0.000    3.394 
#    0.000    0.970    0.485    0.000    0.000    0.000 
#
# Total GULP energy -367482.046714 kJ/mol
# GULP energy per Si atom -5567.909799 kJ/mol
# Density = 1.597650 g / cm^3
# Si number density = 16.012947 Si / 1000 Ang^3
#
#
#
# Elastic Constant Matrix: (Units=GPa)
#
#
# Indices 1 2 3 4 5 6 
#
# 1 59.5461 35.3549 31.4577 0.0000 0.0000 0.0000
# 2 35.3549 59.5441 31.4587 0.0000 0.0000 0.0000
# 3 31.4577 31.4587 69.4111 0.0000 0.0000 0.0000
# 4 0.0000 0.0000 0.0000 12.6726 0.0000 0.0000
# 5 0.0000 0.0000 0.0000 0.0000 12.6724 0.0000
# 6 0.0000 0.0000 0.0000 0.0000 0.0000 14.6635
#
#
#
# Elastic Compliance Matrix: (Units=1/GPa)
#
#
# Indices 1 2 3 4 5 6 
#
# 1 0.028200 -0.013138 -0.006826 0.000000 0.000000 0.000000
# 2 -0.013138 0.028202 -0.006828 0.000000 0.000000 0.000000
# 3 -0.006826 -0.006828 0.020595 0.000000 0.000000 0.000000
# 4 0.000000 0.000000 0.000000 0.078911 0.000000 0.000000
# 5 0.000000 0.000000 0.000000 0.000000 0.078912 0.000000
# 6 0.000000 0.000000 0.000000 0.000000 0.000000 0.068196
#
#
# Mechanical properties :
#
#
# Convention : Reuss Voigt Hill
#
# Bulk Modulus (GPa) = 42.70925 42.78264 42.74595
# Shear Modulus (GPa) = 13.72100 14.01703 13.86901
#
# Velocity S-wave (km/s) = 2.93041 2.96185 2.94617
# Velocity P-wave (km/s) = 6.17894 6.20260 6.19078
#
# Compressibility (1/GPa) = 0.02341413
#
# Stress axis : x y z
#
# Youngs Moduli (GPa) = 35.46044 35.45822 48.55509
#
# Poissons Ratio (x) = 0.46584 0.33145
# Poissons Ratio (y) = 0.46587 0.33152
# Poissons Ratio (z) = 0.24207 0.24210
#
# Static dielectric constant tensor:
#      x y z
#    x 1.522600 0.000000 0.000000 
#    y 0.000000 1.522610 0.000000 
#    z 0.000000 0.000000 1.588590 
# 
# From -- ./inp_files/1892.got.cif
#   From: 2010.05.17/outbox.cif.g08.bks.cpg/sg139_1_cif.got.tgz:1892.got - 2010.05.20 13:14:44.
