data_PCOD9571021
_publ_section_title
;
Structure prediction by ZEFSAII (Michael W. Deem and Ramdas Pophale) SiO2 
 PCOD9571021
Probable space group: P 42/N C M
;
_chemical_formula_sum "Si O2"
_cell_formula_units_Z 88
_cell_length_a 14.333000
_cell_length_b 14.333000
_cell_length_c 22.568949
_cell_angle_alpha 90.000000
_cell_angle_beta 90.000000
_cell_angle_gamma 90.000000
_cell_volume 4636.449533
_symmetry_space_group_name_H-M "P 42/N C M"
_symmetry_group_IT_number 138
_space_group.IT_coordinate_system_code '2'
_symmetry_cell_setting 'tetragonal'
loop_
_space_group_symop_operation_xyz
x,y,z
1/2-y,x,1/2+z
1/2-x,1/2-y,z
y,1/2-x,1/2+z
1/2+x,-y,1/2-z
-x,1/2+y,1/2-z
1/2+y,1/2+x,-z
-y,-x,-z
-x,-y,-z
1/2+y,-x,1/2-z
1/2+x,1/2+y,-z
-y,1/2+x,1/2-z
1/2-x,y,1/2+z
x,1/2-y,1/2+z
1/2-y,1/2-x,z
y,x,z
loop_
_atom_site_type_symbol
_atom_site_label
_atom_site_fract_x
_atom_site_fract_y
_atom_site_fract_z
Si Si1 0.754085 0.904439 0.301820
Si Si2 0.627569 0.127569 0.000000
Si Si3 0.052426 0.302744 0.063129
Si Si4 0.470630 0.889039 0.439993
Si Si5 0.403036 0.736651 0.732806
Si Si6 0.355095 0.770294 0.607231
O O1 0.664206 0.835795 0.308368
O O2 0.837653 0.837653 0.277964
O O3 0.788936 0.939944 0.366216
O O4 0.733233 0.997055 0.264533
O O5 0.630547 0.214244 0.954046
O O6 0.637282 0.035126 0.960278
O O7 0.146297 0.353704 0.043157
O O8 0.032946 0.198747 0.041906
O O9 0.431711 0.931711 0.500000
O O10 0.380521 0.861265 0.402945
O O11 0.535248 0.964753 0.408389
O O12 0.332646 0.652681 0.750872
O O13 0.417277 0.736898 0.661743
O O14 0.250000 0.750000 0.626919
#
# Coordination Sequence:
#
# PCOD9571021 Si02
#       6
#    16   8  16  16  16  16
#     4  10  23  44  67  91 125 173 222 264 317 386
#     4  12  22  38  62 100 124 168 208 258 318 392
#     4  11  22  38  61  91 126 162 207 263 313 371
#     4  11  22  37  59  89 121 162 212 253 304 378
#     4  11  22  38  61  95 129 158 207 271 322 373
#     4  12  20  38  65  88 128 167 204 262 324 376
#
# _framework density 18.980039999999999
#
# number of rings (size 3 to 8) (size 9 to 14) (size 15 to 20)
#    0.000    0.909    5.455    3.273    0.000    2.545 
#    0.000    1.818    0.000    0.000    0.000    0.000 
#    0.000    0.000    0.000    0.000    0.000    0.000 
#
# Total GULP energy -491081.136245 kJ/mol
# GULP energy per Si atom -5580.467457 kJ/mol
# Density = 1.893684 g / cm^3
# Si number density = 18.980040 Si / 1000 Ang^3
#
#
#
# Elastic Constant Matrix: (Units=GPa)
#
#
# Indices 1 2 3 4 5 6 
#
# 1 114.6425 65.9034 47.6889 0.0000 0.0000 0.0000
# 2 65.9034 114.6425 47.6889 0.0000 0.0000 0.0000
# 3 47.6889 47.6889 80.0117 0.0000 0.0000 0.0000
# 4 0.0000 0.0000 0.0000 -14.1827 0.0000 0.0000
# 5 0.0000 0.0000 0.0000 0.0000 -14.1827 0.0000
# 6 0.0000 0.0000 0.0000 0.0000 0.0000 40.7754
#
#
#
# Elastic Compliance Matrix: (Units=1/GPa)
#
#
# Indices 1 2 3 4 5 6 
#
# 1 0.014301 -0.006217 -0.004818 0.000000 0.000000 0.000000
# 2 -0.006217 0.014301 -0.004818 0.000000 0.000000 0.000000
# 3 -0.004818 -0.004818 0.018242 0.000000 0.000000 0.000000
# 4 0.000000 0.000000 0.000000 -0.070508 0.000000 0.000000
# 5 0.000000 0.000000 0.000000 0.000000 -0.070508 0.000000
# 6 0.000000 0.000000 0.000000 0.000000 0.000000 0.024525
#
#
# Mechanical properties :
#
#
# Convention : Reuss Voigt Hill
#
# Bulk Modulus (GPa) = 66.06420 70.20658 68.13539
# Shear Modulus (GPa) = -151.99353 12.34968 -69.82193
#
# Velocity S-wave (km/s) = -8.95849 2.55358 -6.07181
# Velocity P-wave (km/s) = 8.49255 6.76494 3.63035
#
# Compressibility (1/GPa) = 0.01513679
#
# Stress axis : x y z
#
# Youngs Moduli (GPa) = 69.92620 69.92620 54.81889
#
# Poissons Ratio (x) = 0.43470 0.26414
# Poissons Ratio (y) = 0.43470 0.26414
# Poissons Ratio (z) = 0.33693 0.33693
#
# Static dielectric constant tensor:
#      x y z
#    x 1.729020 0.000000 0.000000 
#    y 0.000000 1.729020 0.000000 
#    z 0.000000 0.000000 1.683880 
# 
# From -- ./inp_files/6158.got.cif
#   From: 2010.05.17/outbox.cif.g08.bks.cpg/sg138_4_cif.got.tgz:6158.got - 2010.05.20 13:08:53.
