data_PCOD9571985
_publ_section_title
;
Structure prediction by ZEFSAII (Michael W. Deem and Ramdas Pophale) SiO2 
 PCOD9571985
Probable space group: I 4/M M M
;
_chemical_formula_sum "Si O2"
_cell_formula_units_Z 72
_cell_length_a 18.000000
_cell_length_b 18.000000
_cell_length_c 24.000000
_cell_angle_alpha 90.000000
_cell_angle_beta 90.000000
_cell_angle_gamma 90.000000
_cell_volume 7776.000000
_symmetry_space_group_name_H-M "I 4/M M M"
_symmetry_group_IT_number 139
_symmetry_cell_setting 'tetragonal'
loop_
_space_group_symop_operation_xyz
x,y,z
-y,x,z
-x,-y,z
y,-x,z
x,-y,-z
-x,y,-z
y,x,-z
-y,-x,-z
-x,-y,-z
y,-x,-z
x,y,-z
-y,x,-z
-x,y,z
x,-y,z
-y,-x,z
y,x,z
1/2+x,1/2+y,1/2+z
1/2-y,1/2+x,1/2+z
1/2-x,1/2-y,1/2+z
1/2+y,1/2-x,1/2+z
1/2+x,1/2-y,1/2-z
1/2-x,1/2+y,1/2-z
1/2+y,1/2+x,1/2-z
1/2-y,1/2-x,1/2-z
1/2-x,1/2-y,1/2-z
1/2+y,1/2-x,1/2-z
1/2+x,1/2+y,1/2-z
1/2-y,1/2+x,1/2-z
1/2-x,1/2+y,1/2+z
1/2+x,1/2-y,1/2+z
1/2-y,1/2-x,1/2+z
1/2+y,1/2+x,1/2+z
loop_
_atom_site_type_symbol
_atom_site_label
_atom_site_fract_x
_atom_site_fract_y
_atom_site_fract_z
Si Si1 0.289254 0.585751 0.125735
Si Si2 0.627251 0.246028 0.248177
Si Si3 0.083186 0.500000 0.432538
Si Si4 0.848183 0.667156 0.066843
Si Si5 0.702379 0.583924 0.633014
O O1 0.300409 0.500000 0.108658
O O2 0.363250 0.636751 0.121766
O O3 0.261511 0.587140 0.190012
O O4 0.224321 0.626015 0.090446
O O5 0.694479 0.305522 0.248941
O O6 0.665266 0.165266 0.250000
O O7 0.584260 0.262915 0.304909
O O8 0.081138 0.500000 0.500000
O O9 0.122713 0.423375 0.417238
O O10 0.000000 0.500000 0.410623
O O11 0.863271 0.745871 0.095607
O O12 0.843381 0.672963 0.000000
O O13 0.700949 0.500000 0.611199
O O14 0.621677 0.621677 0.636017
#
# Coordination Sequence:
#
# PCOD9571985 Si02
#       5
#    32  32  16  32  32
#     4  11  23  39  61  88 120 159 201 246 296 353
#     4   9  17  34  59  85 113 147 190 240 293 346
#     4   9  18  34  56  82 113 145 181 235 297 351
#     4  11  22  38  60  87 116 151 198 248 298 353
#     4  11  22  37  59  86 118 155 195 240 290 350
#
# _framework density 9.2592590000000001
#
# number of rings (size 3 to 8) (size 9 to 14) (size 15 to 20)
#    0.000    1.667    3.333    2.000    0.000    3.556 
#    0.000    0.000    0.000    4.000    0.000    4.667 
#    0.000    0.000    0.000    0.000    0.000    0.000 
#
# Total GULP energy -401634.230256 kJ/mol
# GULP energy per Si atom -5578.253198 kJ/mol
# Density = 0.923818 g / cm^3
# Si number density = 9.259259 Si / 1000 Ang^3
#
#
#
# Elastic Constant Matrix: (Units=GPa)
#
#
# Indices 1 2 3 4 5 6 
#
# 1 103.9370 80.8761 32.4091 0.0000 0.0000 0.0000
# 2 80.8761 103.9370 32.4091 0.0000 0.0000 0.0000
# 3 32.4091 32.4091 90.1586 0.0000 0.0000 0.0000
# 4 0.0000 0.0000 0.0000 18.1465 0.0000 0.0000
# 5 0.0000 0.0000 0.0000 0.0000 18.1465 0.0000
# 6 0.0000 0.0000 0.0000 0.0000 0.0000 15.3224
#
#
#
# Elastic Compliance Matrix: (Units=1/GPa)
#
#
# Indices 1 2 3 4 5 6 
#
# 1 0.024777 -0.018586 -0.002226 0.000000 0.000000 0.000000
# 2 -0.018586 0.024777 -0.002226 0.000000 0.000000 0.000000
# 3 -0.002226 -0.002226 0.012692 0.000000 0.000000 0.000000
# 4 0.000000 0.000000 0.000000 0.055107 0.000000 0.000000
# 5 0.000000 0.000000 0.000000 0.000000 0.055107 0.000000
# 6 0.000000 0.000000 0.000000 0.000000 0.000000 0.065264
#
#
# Mechanical properties :
#
#
# Convention : Reuss Voigt Hill
#
# Bulk Modulus (GPa) = 61.83509 65.49123 63.66316
# Shear Modulus (GPa) = 17.28969 20.47898 18.88434
#
# Velocity S-wave (km/s) = 3.05887 3.32906 3.19682
# Velocity P-wave (km/s) = 6.77783 7.08653 6.93390
#
# Compressibility (1/GPa) = 0.01617205
#
# Stress axis : x y z
#
# Youngs Moduli (GPa) = 40.35922 40.35922 78.79204
#
# Poissons Ratio (x) = 0.75012 0.17536
# Poissons Ratio (y) = 0.75012 0.17536
# Poissons Ratio (z) = 0.08982 0.08982
#
# Static dielectric constant tensor:
#      x y z
#    x 1.651840 0.000000 0.000000 
#    y 0.000000 1.651840 0.000000 
#    z 0.000000 0.000000 1.631300 
# 
# From -- ./inp_files/11502.got.cif
#   From: 2010.05.17/outbox.ucp.g08.bks.cvg/sg139_6_cif.got.tgz:11502.got - 2010.06.11 11:42:03.
