data_PCOD9571351
_publ_section_title
;
Structure prediction by ZEFSAII (Michael W. Deem and Ramdas Pophale) SiO2 
 PCOD9571351
Probable space group: I 4/M M M
;
_chemical_formula_sum "Si O2"
_cell_formula_units_Z 240
_cell_length_a 20.738460
_cell_length_b 20.738460
_cell_length_c 30.655396
_cell_angle_alpha 90.000000
_cell_angle_beta 90.000000
_cell_angle_gamma 90.000000
_cell_volume 13184.386847
_symmetry_space_group_name_H-M "I 4/M M M"
_symmetry_group_IT_number 139
_symmetry_cell_setting 'tetragonal'
loop_
_space_group_symop_operation_xyz
x,y,z
-y,x,z
-x,-y,z
y,-x,z
x,-y,-z
-x,y,-z
y,x,-z
-y,-x,-z
-x,-y,-z
y,-x,-z
x,y,-z
-y,x,-z
-x,y,z
x,-y,z
-y,-x,z
y,x,z
1/2+x,1/2+y,1/2+z
1/2-y,1/2+x,1/2+z
1/2-x,1/2-y,1/2+z
1/2+y,1/2-x,1/2+z
1/2+x,1/2-y,1/2-z
1/2-x,1/2+y,1/2-z
1/2+y,1/2+x,1/2-z
1/2-y,1/2-x,1/2-z
1/2-x,1/2-y,1/2-z
1/2+y,1/2-x,1/2-z
1/2+x,1/2+y,1/2-z
1/2-y,1/2+x,1/2-z
1/2-x,1/2+y,1/2+z
1/2+x,1/2-y,1/2+z
1/2-y,1/2-x,1/2+z
1/2+y,1/2+x,1/2+z
loop_
_atom_site_type_symbol
_atom_site_label
_atom_site_fract_x
_atom_site_fract_y
_atom_site_fract_z
Si Si1 0.429748 0.070253 0.750000
Si Si2 0.367547 0.137241 0.178192
Si Si3 0.573721 0.256382 0.225667
Si Si4 0.116838 0.222077 0.176568
Si Si5 0.684786 0.926394 0.405594
Si Si6 0.715675 0.178973 0.947749
Si Si7 0.681255 0.574605 0.414815
Si Si8 0.826113 0.071577 0.637442
O O1 0.500000 0.077122 0.769815
O O2 0.380626 0.079086 0.789140
O O3 0.380193 0.199609 0.208573
O O4 0.294736 0.133516 0.163076
O O5 0.415014 0.141140 0.137383
O O6 0.500000 0.232785 0.222284
O O7 0.587273 0.276877 0.274982
O O8 0.579963 0.311351 0.189001
O O9 0.182257 0.182257 0.179095
O O10 0.075821 0.190807 0.137779
O O11 0.677234 0.859494 0.432636
O O12 0.757750 0.925061 0.386988
O O13 0.674000 0.000000 0.423333
O O14 0.757718 0.242283 0.932346
O O15 0.758551 0.116913 0.933221
O O16 0.715450 0.180667 0.000000
O O17 0.679468 0.500000 0.429555
O O18 0.617064 0.617064 0.425010
O O19 0.873767 0.126234 0.621904
O O20 0.852970 0.000000 0.630850
#
# Coordination Sequence:
#
# PCOD9571351 Si02
#       8
#    16  32  32  32  32  32  32  32
#     4  11  22  34  47  66  98 140 183 222 260 305
#     4  11  20  32  48  72 103 139 183 228 273 320
#     4  10  19  31  46  67 101 141 183 233 281 322
#     4  11  21  32  51  78 106 142 185 232 277 325
#     4  10  20  35  55  81 112 146 185 228 276 326
#     4  10  21  39  63  89 115 144 179 223 275 333
#     4  10  22  40  62  89 117 146 181 222 274 334
#     4   9  18  30  47  71 103 144 186 232 279 323
#
# _framework density 18.203348999999999
#
# number of rings (size 3 to 8) (size 9 to 14) (size 15 to 20)
#    0.000    1.800    2.667    3.200    0.000    4.533 
#    0.000    0.000    0.000    0.400    0.000    4.667 
#    0.000    0.000    0.000   12.400    0.000    0.000 
#
# Total GULP energy -668529.263429 kJ/mol
# GULP energy per Si atom -5571.077195 kJ/mol
# Density = 1.816192 g / cm^3
# Si number density = 18.203349 Si / 1000 Ang^3
#
#
#
# Elastic Constant Matrix: (Units=GPa)
#
#
# Indices 1 2 3 4 5 6 
#
# 1 101.3874 50.6461 17.4898 0.0000 0.0000 0.0000
# 2 50.6461 101.3866 17.4899 0.0000 0.0000 0.0000
# 3 17.4898 17.4899 55.5906 0.0000 0.0000 0.0000
# 4 0.0000 0.0000 0.0000 15.8054 0.0000 0.0000
# 5 0.0000 0.0000 0.0000 0.0000 15.8052 0.0000
# 6 0.0000 0.0000 0.0000 0.0000 0.0000 9.0001
#
#
#
# Elastic Compliance Matrix: (Units=1/GPa)
#
#
# Indices 1 2 3 4 5 6 
#
# 1 0.013399 -0.006309 -0.002231 0.000000 0.000000 0.000000
# 2 -0.006309 0.013399 -0.002231 0.000000 0.000000 0.000000
# 3 -0.002231 -0.002231 0.019392 0.000000 0.000000 0.000000
# 4 0.000000 0.000000 0.000000 0.063270 0.000000 0.000000
# 5 0.000000 0.000000 0.000000 0.000000 0.063270 0.000000
# 6 0.000000 0.000000 0.000000 0.000000 0.000000 0.111110
#
#
# Mechanical properties :
#
#
# Convention : Reuss Voigt Hill
#
# Bulk Modulus (GPa) = 40.56727 47.73513 44.15120
# Shear Modulus (GPa) = 15.94393 19.63805 17.79099
#
# Velocity S-wave (km/s) = 2.96274 3.28810 3.12965
# Velocity P-wave (km/s) = 5.83419 6.37931 6.11283
#
# Compressibility (1/GPa) = 0.02465042
#
# Stress axis : x y z
#
# Youngs Moduli (GPa) = 74.63065 74.62996 51.56656
#
# Poissons Ratio (x) = 0.47081 0.11504
# Poissons Ratio (y) = 0.47081 0.11504
# Poissons Ratio (z) = 0.16649 0.16650
#
# Static dielectric constant tensor:
#      x y z
#    x 1.644420 0.000000 0.000000 
#    y 0.000000 1.644420 0.000000 
#    z 0.000000 0.000000 1.640140 
# 
# From -- ./inp_files/14664.got.cif
#   From: 2010.05.17/outbox.cif.g08.bks.cpg/sg139_8_cif.got.tgz:14664.got - 2010.05.20 13:14:44.
