data_PCOD9571821
_publ_section_title
;
Structure prediction by ZEFSAII (Michael W. Deem and Ramdas Pophale) SiO2 
 PCOD9571821
Probable space group: I 4/M M M
;
_chemical_formula_sum "Si O2"
_cell_formula_units_Z 96
_cell_length_a 22.953639
_cell_length_b 22.953639
_cell_length_c 8.512274
_cell_angle_alpha 90.000000
_cell_angle_beta 90.000000
_cell_angle_gamma 90.000000
_cell_volume 4484.857915
_symmetry_space_group_name_H-M "I 4/M M M"
_symmetry_group_IT_number 139
_symmetry_cell_setting 'tetragonal'
loop_
_space_group_symop_operation_xyz
x,y,z
-y,x,z
-x,-y,z
y,-x,z
x,-y,-z
-x,y,-z
y,x,-z
-y,-x,-z
-x,-y,-z
y,-x,-z
x,y,-z
-y,x,-z
-x,y,z
x,-y,z
-y,-x,z
y,x,z
1/2+x,1/2+y,1/2+z
1/2-y,1/2+x,1/2+z
1/2-x,1/2-y,1/2+z
1/2+y,1/2-x,1/2+z
1/2+x,1/2-y,1/2-z
1/2-x,1/2+y,1/2-z
1/2+y,1/2+x,1/2-z
1/2-y,1/2-x,1/2-z
1/2-x,1/2-y,1/2-z
1/2+y,1/2-x,1/2-z
1/2+x,1/2+y,1/2-z
1/2-y,1/2+x,1/2-z
1/2-x,1/2+y,1/2+z
1/2+x,1/2-y,1/2+z
1/2-y,1/2-x,1/2+z
1/2+y,1/2+x,1/2+z
loop_
_atom_site_type_symbol
_atom_site_label
_atom_site_fract_x
_atom_site_fract_y
_atom_site_fract_z
Si Si1 0.343260 0.432362 0.323203
Si Si2 0.149996 0.757469 0.320208
Si Si3 0.567798 0.155373 0.312168
O O1 0.320387 0.417028 0.500000
O O2 0.338786 0.500000 0.304795
O O3 0.408559 0.408559 0.318350
O O4 0.307049 0.398814 0.194108
O O5 0.162747 0.741293 0.500000
O O6 0.207362 0.792639 0.255472
O O7 0.115456 0.704225 0.239730
O O8 0.566953 0.154829 0.500000
O O9 0.500000 0.166000 0.259751
O O10 0.594605 0.094605 0.250000
#
# Coordination Sequence:
#
# PCOD9571821 Si02
#       3
#    32  32  32
#     4   9  17  29  46  70 103 145 193 245 300 358
#     4  10  21  37  59  88 121 158 200 247 302 362
#     4  11  25  44  67  95 126 163 207 254 307 367
#
# _framework density 21.405362
#
# number of rings (size 3 to 8) (size 9 to 14) (size 15 to 20)
#    0.000    2.000    0.000    3.000    0.000   10.667 
#    0.000    3.333    0.000    0.000    0.000    4.667 
#    0.000    0.000    0.000    0.000    0.000    0.000 
#
# Total GULP energy -267274.610222 kJ/mol
# GULP energy per Si atom -5568.221046 kJ/mol
# Density = 2.135664 g / cm^3
# Si number density = 21.405362 Si / 1000 Ang^3
#
#
#
# Elastic Constant Matrix: (Units=GPa)
#
#
# Indices 1 2 3 4 5 6 
#
# 1 55.8330 134.5154 33.6614 0.0000 0.0000 0.0000
# 2 134.5154 55.8330 33.6614 0.0000 0.0000 0.0000
# 3 33.6614 33.6614 46.7562 0.0000 0.0000 0.0000
# 4 0.0000 0.0000 0.0000 27.5685 0.0000 0.0000
# 5 0.0000 0.0000 0.0000 0.0000 27.5685 0.0000
# 6 0.0000 0.0000 0.0000 0.0000 0.0000 25.5543
#
#
#
# Elastic Compliance Matrix: (Units=1/GPa)
#
#
# Indices 1 2 3 4 5 6 
#
# 1 -0.002831 0.009879 -0.005074 0.000000 0.000000 0.000000
# 2 0.009879 -0.002831 -0.005074 0.000000 0.000000 0.000000
# 3 -0.005074 -0.005074 0.028694 0.000000 0.000000 0.000000
# 4 0.000000 0.000000 0.000000 0.036273 0.000000 0.000000
# 5 0.000000 0.000000 0.000000 0.000000 0.036273 0.000000
# 6 0.000000 0.000000 0.000000 0.000000 0.000000 0.039132
#
#
# Mechanical properties :
#
#
# Convention : Reuss Voigt Hill
#
# Bulk Modulus (GPa) = 44.45787 62.45541 53.45664
# Shear Modulus (GPa) = 35.02659 13.24386 24.13522
#
# Velocity S-wave (km/s) = 4.04957 2.49010 3.36152
# Velocity P-wave (km/s) = 6.53299 6.12440 6.33199
#
# Compressibility (1/GPa) = 0.02249321
#
# Stress axis : x y z
#
# Youngs Moduli (GPa) = -353.28577 -353.28577 34.85079
#
# Poissons Ratio (x) = 3.49002 0.17684
# Poissons Ratio (y) = 3.49002 0.17684
# Poissons Ratio (z) = -1.79265 -1.79265
#
# Static dielectric constant tensor:
#      x y z
#    x 1.794390 0.000000 0.000000 
#    y 0.000000 1.794390 0.000000 
#    z 0.000000 0.000000 1.827020 
# 
# From -- ./inp_files/1093.got.cif
#   From: 2010.05.17/outbox.cif.g08.bks.cpg/sg139_1_cif.got.tgz:1093.got - 2010.05.20 13:14:44.
