data_PCOD9571268
_publ_section_title
;
Structure prediction by ZEFSAII (Michael W. Deem and Ramdas Pophale) SiO2 
 PCOD9571268
Probable space group: I 4/M M M
;
_chemical_formula_sum "Si O2"
_cell_formula_units_Z 176
_cell_length_a 27.471480
_cell_length_b 27.471480
_cell_length_c 14.189996
_cell_angle_alpha 90.000000
_cell_angle_beta 90.000000
_cell_angle_gamma 90.000000
_cell_volume 10708.937589
_symmetry_space_group_name_H-M "I 4/M M M"
_symmetry_group_IT_number 139
_symmetry_cell_setting 'tetragonal'
loop_
_space_group_symop_operation_xyz
x,y,z
-y,x,z
-x,-y,z
y,-x,z
x,-y,-z
-x,y,-z
y,x,-z
-y,-x,-z
-x,-y,-z
y,-x,-z
x,y,-z
-y,x,-z
-x,y,z
x,-y,z
-y,-x,z
y,x,z
1/2+x,1/2+y,1/2+z
1/2-y,1/2+x,1/2+z
1/2-x,1/2-y,1/2+z
1/2+y,1/2-x,1/2+z
1/2+x,1/2-y,1/2-z
1/2-x,1/2+y,1/2-z
1/2+y,1/2+x,1/2-z
1/2-y,1/2-x,1/2-z
1/2-x,1/2-y,1/2-z
1/2+y,1/2-x,1/2-z
1/2+x,1/2+y,1/2-z
1/2-y,1/2+x,1/2-z
1/2-x,1/2+y,1/2+z
1/2+x,1/2-y,1/2+z
1/2-y,1/2-x,1/2+z
1/2+y,1/2+x,1/2+z
loop_
_atom_site_type_symbol
_atom_site_label
_atom_site_fract_x
_atom_site_fract_y
_atom_site_fract_z
Si Si1 0.358166 0.120174 0.500000
Si Si2 0.677043 0.756266 0.000000
Si Si3 0.793156 0.868973 0.685196
Si Si4 0.054828 0.729347 0.793735
Si Si5 0.943093 0.626085 0.689396
Si Si6 0.128573 0.053872 0.386660
Si Si7 0.194803 0.554375 0.500000
O O1 0.312569 0.158509 0.500000
O O2 0.360588 0.086130 0.406673
O O3 0.406165 0.152852 0.500000
O O4 0.652538 0.734255 0.905824
O O5 0.732494 0.732494 0.000000
O O6 0.824549 0.824549 0.728466
O O7 0.758152 0.899636 0.751823
O O8 0.831406 0.908735 0.648320
O O9 0.057268 0.674779 0.752785
O O10 0.058926 0.726228 0.905851
O O11 0.000000 0.748086 0.768949
O O12 0.915359 0.584642 0.750000
O O13 0.000000 0.613868 0.670224
O O14 0.131676 0.052684 0.500000
O O15 0.076304 0.076304 0.361737
O O16 0.135821 0.000000 0.349541
O O17 0.173074 0.500000 0.500000
#
# Coordination Sequence:
#
# PCOD9571268 Si02
#       7
#    16  16  32  32  32  32  16
#     4  12  21  38  62  85 116 141 186 230 272 330
#     4  10  20  33  51  80 115 148 176 218 280 327
#     4  10  18  32  51  75 106 140 177 223 273 320
#     4  10  20  36  56  79 105 142 183 220 270 329
#     4  11  23  38  58  84 113 144 184 230 281 332
#     4   9  16  25  39  63  97 136 174 213 258 312
#     4  10  22  39  61  79 103 141 177 217 273 335
#
# _framework density 16.43487
#
# number of rings (size 3 to 8) (size 9 to 14) (size 15 to 20)
#    0.000    1.818    4.545    0.818    0.000    0.364 
#    0.000    2.273    0.000    4.909    0.000    0.000 
#    0.000    0.000    0.000    0.000    0.000   54.545 
#
# Total GULP energy -490031.034883 kJ/mol
# GULP energy per Si atom -5568.534487 kJ/mol
# Density = 1.639746 g / cm^3
# Si number density = 16.434870 Si / 1000 Ang^3
#
#
#
# Elastic Constant Matrix: (Units=GPa)
#
#
# Indices 1 2 3 4 5 6 
#
# 1 95.1577 58.7074 33.2550 0.0000 0.0000 0.0000
# 2 58.7074 95.1587 33.2564 0.0000 0.0000 0.0000
# 3 33.2550 33.2564 77.8776 0.0000 0.0000 0.0000
# 4 0.0000 0.0000 0.0000 14.0721 0.0000 0.0000
# 5 0.0000 0.0000 0.0000 0.0000 14.0707 0.0000
# 6 0.0000 0.0000 0.0000 0.0000 0.0000 30.6006
#
#
#
# Elastic Compliance Matrix: (Units=1/GPa)
#
#
# Indices 1 2 3 4 5 6 
#
# 1 0.017702 -0.009732 -0.003403 0.000000 0.000000 0.000000
# 2 -0.009732 0.017702 -0.003404 0.000000 0.000000 0.000000
# 3 -0.003403 -0.003404 0.015747 0.000000 0.000000 0.000000
# 4 0.000000 0.000000 0.000000 0.071063 0.000000 0.000000
# 5 0.000000 0.000000 0.000000 0.000000 0.071069 0.000000
# 6 0.000000 0.000000 0.000000 0.000000 0.000000 0.032679
#
#
# Mechanical properties :
#
#
# Convention : Reuss Voigt Hill
#
# Bulk Modulus (GPa) = 55.32794 57.62575 56.47685
# Shear Modulus (GPa) = 18.86321 21.28038 20.07180
#
# Velocity S-wave (km/s) = 3.39153 3.60228 3.49849
# Velocity P-wave (km/s) = 7.00533 7.24162 7.12446
#
# Compressibility (1/GPa) = 0.01807405
#
# Stress axis : x y z
#
# Youngs Moduli (GPa) = 56.48976 56.48958 63.50223
#
# Poissons Ratio (x) = 0.54975 0.21612
# Poissons Ratio (y) = 0.54975 0.21615
# Poissons Ratio (z) = 0.19225 0.19228
#
# Static dielectric constant tensor:
#      x y z
#    x 1.567930 0.000000 0.000000 
#    y 0.000000 1.567930 0.000000 
#    z 0.000000 0.000000 1.540510 
# 
# From -- ./inp_files/4084.got.cif
#   From: 2010.05.17/outbox.cif.g08.bks.cpg/sg139_3_cif.got.tgz:4084.got - 2010.05.20 13:14:44.
