data_PCOD9571375
_publ_section_title
;
Structure prediction by ZEFSAII (Michael W. Deem and Ramdas Pophale) SiO2 
 PCOD9571375
Probable space group: I 4/M M M
;
_chemical_formula_sum "Si O2"
_cell_formula_units_Z 128
_cell_length_a 20.214045
_cell_length_b 20.214045
_cell_length_c 15.632354
_cell_angle_alpha 90.000000
_cell_angle_beta 90.000000
_cell_angle_gamma 90.000000
_cell_volume 6387.498889
_symmetry_space_group_name_H-M "I 4/M M M"
_symmetry_group_IT_number 139
_symmetry_cell_setting 'tetragonal'
loop_
_space_group_symop_operation_xyz
x,y,z
-y,x,z
-x,-y,z
y,-x,z
x,-y,-z
-x,y,-z
y,x,-z
-y,-x,-z
-x,-y,-z
y,-x,-z
x,y,-z
-y,x,-z
-x,y,z
x,-y,z
-y,-x,z
y,x,z
1/2+x,1/2+y,1/2+z
1/2-y,1/2+x,1/2+z
1/2-x,1/2-y,1/2+z
1/2+y,1/2-x,1/2+z
1/2+x,1/2-y,1/2-z
1/2-x,1/2+y,1/2-z
1/2+y,1/2+x,1/2-z
1/2-y,1/2-x,1/2-z
1/2-x,1/2-y,1/2-z
1/2+y,1/2-x,1/2-z
1/2+x,1/2+y,1/2-z
1/2-y,1/2+x,1/2-z
1/2-x,1/2+y,1/2+z
1/2+x,1/2-y,1/2+z
1/2-y,1/2-x,1/2+z
1/2+y,1/2+x,1/2+z
loop_
_atom_site_type_symbol
_atom_site_label
_atom_site_fract_x
_atom_site_fract_y
_atom_site_fract_z
Si Si1 0.195650 0.342616 0.340663
Si Si2 0.118926 0.773074 0.409083
Si Si3 0.072430 0.421178 0.601689
Si Si4 0.422947 0.312102 0.275341
O O1 0.194204 0.305797 0.250000
O O2 0.174282 0.284588 0.404276
O O3 0.133481 0.391505 0.348416
O O4 0.262369 0.385118 0.340761
O O5 0.082461 0.764940 0.500000
O O6 0.158361 0.841640 0.411459
O O7 0.080736 0.776532 0.318881
O O8 0.079657 0.407512 0.500000
O O9 0.072072 0.500000 0.611335
O O10 0.000000 0.395562 0.628970
O O11 0.500000 0.322341 0.296323
O O12 0.379104 0.379104 0.272190
#
# Coordination Sequence:
#
# PCOD9571375 Si02
#       4
#    32  32  32  32
#     4  10  19  31  49  73 102 134 168 209 258 316
#     4   9  18  33  53  76 101 128 160 204 261 325
#     4   9  18  31  45  65  97 133 166 203 249 304
#     4  10  21  36  54  77 106 142 186 234 279 322
#
# _framework density 20.039141999999998
#
# number of rings (size 3 to 8) (size 9 to 14) (size 15 to 20)
#    0.000    2.500    0.000    3.000    0.000    8.750 
#    0.000    1.250    0.000    0.000    0.000    3.500 
#    0.000    0.000    0.000   15.500    0.000    0.000 
#
# Total GULP energy -356399.452463 kJ/mol
# GULP energy per Si atom -5568.741445 kJ/mol
# Density = 1.999353 g / cm^3
# Si number density = 20.039142 Si / 1000 Ang^3
#
#
#
# Elastic Constant Matrix: (Units=GPa)
#
#
# Indices 1 2 3 4 5 6 
#
# 1 93.4706 54.2524 4.3745 0.0000 0.0000 0.0000
# 2 54.2524 93.4721 4.3750 0.0000 0.0000 0.0000
# 3 4.3745 4.3750 28.5760 0.0000 0.0000 0.0000
# 4 0.0000 0.0000 0.0000 10.2856 0.0000 0.0000
# 5 0.0000 0.0000 0.0000 0.0000 10.2852 0.0000
# 6 0.0000 0.0000 0.0000 0.0000 0.0000 30.6029
#
#
#
# Elastic Compliance Matrix: (Units=1/GPa)
#
#
# Indices 1 2 3 4 5 6 
#
# 1 0.016165 -0.009333 -0.001046 0.000000 0.000000 0.000000
# 2 -0.009333 0.016164 -0.001046 0.000000 0.000000 0.000000
# 3 -0.001046 -0.001046 0.035315 0.000000 0.000000 0.000000
# 4 0.000000 0.000000 0.000000 0.097223 0.000000 0.000000
# 5 0.000000 0.000000 0.000000 0.000000 0.097227 0.000000
# 6 0.000000 0.000000 0.000000 0.000000 0.000000 0.032677
#
#
# Mechanical properties :
#
#
# Convention : Reuss Voigt Hill
#
# Bulk Modulus (GPa) = 22.32443 37.94694 30.13569
# Shear Modulus (GPa) = 15.03525 20.40253 17.71889
#
# Velocity S-wave (km/s) = 2.74212 3.19428 2.97680
# Velocity P-wave (km/s) = 4.60328 5.70807 5.18519
#
# Compressibility (1/GPa) = 0.04479398
#
# Stress axis : x y z
#
# Youngs Moduli (GPa) = 61.86317 61.86406 28.31692
#
# Poissons Ratio (x) = 0.57739 0.02961
# Poissons Ratio (y) = 0.57738 0.02962
# Poissons Ratio (z) = 0.06469 0.06471
#
# Static dielectric constant tensor:
#      x y z
#    x 1.728250 0.000000 0.000000 
#    y 0.000000 1.728250 0.000000 
#    z 0.000000 0.000000 1.768330 
# 
# From -- ./inp_files/7974.got.cif
#   From: 2010.05.17/outbox.cif.g08.bks.cpg/sg139_4_cif.got.tgz:7974.got - 2010.05.20 13:14:44.
