data_PCOD9571977
_publ_section_title
;
Structure prediction by ZEFSAII (Michael W. Deem and Ramdas Pophale) SiO2 
 PCOD9571977
Probable space group: I 4/M M M
;
_chemical_formula_sum "Si O2"
_cell_formula_units_Z 88
_cell_length_a 27.000000
_cell_length_b 27.000000
_cell_length_c 15.000000
_cell_angle_alpha 90.000000
_cell_angle_beta 90.000000
_cell_angle_gamma 90.000000
_cell_volume 10935.000000
_symmetry_space_group_name_H-M "I 4/M M M"
_symmetry_group_IT_number 139
_symmetry_cell_setting 'tetragonal'
loop_
_space_group_symop_operation_xyz
x,y,z
-y,x,z
-x,-y,z
y,-x,z
x,-y,-z
-x,y,-z
y,x,-z
-y,-x,-z
-x,-y,-z
y,-x,-z
x,y,-z
-y,x,-z
-x,y,z
x,-y,z
-y,-x,z
y,x,z
1/2+x,1/2+y,1/2+z
1/2-y,1/2+x,1/2+z
1/2-x,1/2-y,1/2+z
1/2+y,1/2-x,1/2+z
1/2+x,1/2-y,1/2-z
1/2-x,1/2+y,1/2-z
1/2+y,1/2+x,1/2-z
1/2-y,1/2-x,1/2-z
1/2-x,1/2-y,1/2-z
1/2+y,1/2-x,1/2-z
1/2+x,1/2+y,1/2-z
1/2-y,1/2+x,1/2-z
1/2-x,1/2+y,1/2+z
1/2+x,1/2-y,1/2+z
1/2-y,1/2-x,1/2+z
1/2+y,1/2+x,1/2+z
loop_
_atom_site_type_symbol
_atom_site_label
_atom_site_fract_x
_atom_site_fract_y
_atom_site_fract_z
Si Si1 0.198768 0.274640 0.392566
Si Si2 0.000000 0.556445 0.107053
Si Si3 0.379035 0.905258 0.151167
Si Si4 0.858497 0.224144 0.892590
Si Si5 0.699846 0.088573 0.601437
Si Si6 0.556756 0.774471 0.298589
O O1 0.203004 0.274954 0.500000
O O2 0.226719 0.226719 0.356704
O O3 0.230032 0.322512 0.364482
O O4 0.141347 0.275779 0.375050
O O5 0.048457 0.585212 0.138096
O O6 0.000000 0.500000 0.138680
O O7 0.000000 0.556407 0.000000
O O8 0.384650 0.884650 0.250000
O O9 0.397993 0.858555 0.095416
O O10 0.322903 0.924446 0.145876
O O11 0.825258 0.174743 0.880283
O O12 0.906891 0.231009 0.832110
O O13 0.868583 0.228154 0.000000
O O14 0.714577 0.071880 0.500000
O O15 0.712132 0.058468 0.691940
O O16 0.500000 0.764360 0.321210
#
# Coordination Sequence:
#
# PCOD9571977 Si02
#       6
#    32  16  32  32  32  32
#     4   8  14  26  47  74  98 122 156 195 238 293
#     4  11  24  36  48  64  78 108 160 214 267 311
#     4  10  21  34  48  65  89 120 160 212 259 303
#     4   9  18  33  53  78 105 130 159 201 254 312
#     4  10  20  34  50  67  97 133 166 206 247 293
#     4  11  22  35  50  75 100 130 170 206 258 309
#
# _framework density 8.0475539999999999
#
# number of rings (size 3 to 8) (size 9 to 14) (size 15 to 20)
#    0.000    2.273    2.727    1.636    1.273    2.909 
#    0.000    1.818    0.000    0.000    0.000    0.000 
#    0.000    0.364    0.000    2.000    0.000    0.000 
#
# Total GULP energy -490081.506574 kJ/mol
# GULP energy per Si atom -5569.108029 kJ/mol
# Density = 0.802924 g / cm^3
# Si number density = 8.047554 Si / 1000 Ang^3
#
#
#
# Elastic Constant Matrix: (Units=GPa)
#
#
# Indices 1 2 3 4 5 6 
#
# 1 50.9188 35.4492 5.1551 0.0000 0.0000 0.0000
# 2 35.4492 50.9188 5.1551 0.0000 0.0000 0.0000
# 3 5.1551 5.1551 51.6683 0.0000 0.0000 0.0000
# 4 0.0000 0.0000 0.0000 19.0329 0.0000 0.0000
# 5 0.0000 0.0000 0.0000 0.0000 19.0329 0.0000
# 6 0.0000 0.0000 0.0000 0.0000 0.0000 16.1523
#
#
#
# Elastic Compliance Matrix: (Units=1/GPa)
#
#
# Indices 1 2 3 4 5 6 
#
# 1 0.038181 -0.026463 -0.001169 0.000000 0.000000 0.000000
# 2 -0.026463 0.038181 -0.001169 0.000000 0.000000 0.000000
# 3 -0.001169 -0.001169 0.019588 0.000000 0.000000 0.000000
# 4 0.000000 0.000000 0.000000 0.052541 0.000000 0.000000
# 5 0.000000 0.000000 0.000000 0.000000 0.052541 0.000000
# 6 0.000000 0.000000 0.000000 0.000000 0.000000 0.061911
#
#
# Mechanical properties :
#
#
# Convention : Reuss Voigt Hill
#
# Bulk Modulus (GPa) = 26.07774 27.22495 26.65135
# Shear Modulus (GPa) = 15.00040 18.02672 16.51356
#
# Velocity S-wave (km/s) = 3.05615 3.35029 3.20660
# Velocity P-wave (km/s) = 5.35639 5.64957 5.50493
#
# Compressibility (1/GPa) = 0.03834687
#
# Stress axis : x y z
#
# Youngs Moduli (GPa) = 26.19134 26.19134 51.05293
#
# Poissons Ratio (x) = 0.69309 0.05969
# Poissons Ratio (y) = 0.69309 0.05969
# Poissons Ratio (z) = 0.03062 0.03062
#
# Static dielectric constant tensor:
#      x y z
#    x 1.557520 0.000000 0.000000 
#    y 0.000000 1.557520 0.000000 
#    z 0.000000 0.000000 1.595390 
# 
# From -- ./inp_files/6415.got.cif
#   From: 2010.05.17/outbox.ucp.g08.bks.cvg/sg139_4_cif.got.tgz:6415.got - 2010.06.11 11:42:03.
