data_PCOD9571162
_publ_section_title
;
Structure prediction by ZEFSAII (Michael W. Deem and Ramdas Pophale) SiO2 
 PCOD9571162
Probable space group: I 4/M M M
;
_chemical_formula_sum "Si O2"
_cell_formula_units_Z 192
_cell_length_a 22.765270
_cell_length_b 22.765270
_cell_length_c 23.544944
_cell_angle_alpha 90.000000
_cell_angle_beta 90.000000
_cell_angle_gamma 90.000000
_cell_volume 12202.344243
_symmetry_space_group_name_H-M "I 4/M M M"
_symmetry_group_IT_number 139
_symmetry_cell_setting 'tetragonal'
loop_
_space_group_symop_operation_xyz
x,y,z
-y,x,z
-x,-y,z
y,-x,z
x,-y,-z
-x,y,-z
y,x,-z
-y,-x,-z
-x,-y,-z
y,-x,-z
x,y,-z
-y,x,-z
-x,y,z
x,-y,z
-y,-x,z
y,x,z
1/2+x,1/2+y,1/2+z
1/2-y,1/2+x,1/2+z
1/2-x,1/2-y,1/2+z
1/2+y,1/2-x,1/2+z
1/2+x,1/2-y,1/2-z
1/2-x,1/2+y,1/2-z
1/2+y,1/2+x,1/2-z
1/2-y,1/2-x,1/2-z
1/2-x,1/2-y,1/2-z
1/2+y,1/2-x,1/2-z
1/2+x,1/2+y,1/2-z
1/2-y,1/2+x,1/2-z
1/2-x,1/2+y,1/2+z
1/2+x,1/2-y,1/2+z
1/2-y,1/2-x,1/2+z
1/2+y,1/2+x,1/2+z
loop_
_atom_site_type_symbol
_atom_site_label
_atom_site_fract_x
_atom_site_fract_y
_atom_site_fract_z
Si Si1 0.069334 0.744356 0.563468
Si Si2 0.000000 0.569808 0.434567
Si Si3 0.431633 0.335295 0.162009
Si Si4 0.876724 0.618090 0.566274
Si Si5 0.667343 0.430726 0.292958
Si Si6 0.754641 0.569982 0.393425
Si Si7 0.070035 0.168900 0.000000
O O1 0.075781 0.770383 0.500000
O O2 0.083605 0.787876 0.614379
O O3 0.109519 0.687057 0.566589
O O4 0.000000 0.727338 0.568948
O O5 0.937332 0.589939 0.410115
O O6 0.000000 0.500000 0.436221
O O7 0.000000 0.593187 0.500000
O O8 0.500000 0.349752 0.155079
O O9 0.392002 0.392002 0.154541
O O10 0.423582 0.314425 0.227076
O O11 0.870002 0.598618 0.500000
O O12 0.816925 0.601336 0.597621
O O13 0.652695 0.500000 0.301819
O O14 0.611381 0.388620 0.303071
O O15 0.719766 0.415431 0.335860
O O16 0.766016 0.500000 0.394149
O O17 0.709721 0.582272 0.445193
O O18 0.111999 0.111999 0.000000
O O19 0.000000 0.154208 0.000000
#
# Coordination Sequence:
#
# PCOD9571162 Si02
#       7
#    32  16  32  32  32  32  16
#     4   9  17  31  51  73 100 131 162 198 241 292
#     4   9  16  24  42  72 102 124 155 205 252 290
#     4   9  18  33  53  75  99 125 159 201 247 297
#     4  10  17  29  47  71  99 132 164 202 247 293
#     4   9  18  33  52  73  97 127 165 207 250 299
#     4  10  19  31  48  70 100 132 163 202 252 301
#     4  10  20  33  48  67  93 129 169 211 258 300
#
# _framework density 15.734681999999999
#
# number of rings (size 3 to 8) (size 9 to 14) (size 15 to 20)
#    0.000    2.583    1.667    1.000    0.000    1.417 
#    0.000    4.167    0.000    5.000    0.000    2.333 
#    0.000    0.000    0.000    0.000    0.000    0.000 
#
# Total GULP energy -534600.151281 kJ/mol
# GULP energy per Si atom -5568.751576 kJ/mol
# Density = 1.569887 g / cm^3
# Si number density = 15.734682 Si / 1000 Ang^3
#
#
#
# Elastic Constant Matrix: (Units=GPa)
#
#
# Indices 1 2 3 4 5 6 
#
# 1 81.7963 60.3007 60.0331 0.0000 0.0000 0.0000
# 2 60.3007 81.7963 60.0331 0.0000 0.0000 0.0000
# 3 60.0331 60.0331 91.3573 0.0000 0.0000 0.0000
# 4 0.0000 0.0000 0.0000 19.6415 0.0000 0.0000
# 5 0.0000 0.0000 0.0000 0.0000 19.6415 0.0000
# 6 0.0000 0.0000 0.0000 0.0000 0.0000 25.7625
#
#
#
# Elastic Compliance Matrix: (Units=1/GPa)
#
#
# Indices 1 2 3 4 5 6 
#
# 1 0.031172 -0.015349 -0.010398 0.000000 0.000000 0.000000
# 2 -0.015349 0.031172 -0.010398 0.000000 0.000000 0.000000
# 3 -0.010398 -0.010398 0.024611 0.000000 0.000000 0.000000
# 4 0.000000 0.000000 0.000000 0.050913 0.000000 0.000000
# 5 0.000000 0.000000 0.000000 0.000000 0.050913 0.000000
# 6 0.000000 0.000000 0.000000 0.000000 0.000000 0.038816
#
#
# Mechanical properties :
#
#
# Convention : Reuss Voigt Hill
#
# Bulk Modulus (GPa) = 68.18265 68.40930 68.29598
# Shear Modulus (GPa) = 16.40555 17.98129 17.19342
#
# Velocity S-wave (km/s) = 3.23249 3.38417 3.30920
# Velocity P-wave (km/s) = 7.57356 7.67081 7.62234
#
# Compressibility (1/GPa) = 0.01466649
#
# Stress axis : x y z
#
# Youngs Moduli (GPa) = 32.07997 32.07997 40.63178
#
# Poissons Ratio (x) = 0.49239 0.42248
# Poissons Ratio (y) = 0.49239 0.42248
# Poissons Ratio (z) = 0.33356 0.33356
#
# Static dielectric constant tensor:
#      x y z
#    x 1.514980 0.000000 0.000000 
#    y 0.000000 1.514980 0.000000 
#    z 0.000000 0.000000 1.538330 
# 
# From -- ./inp_files/12031.got.cif
#   From: 2010.05.17/outbox.cif.g08.bks.cpg/sg139_7_cif.got.tgz:12031.got - 2010.05.20 13:14:44.
