data_PCOD9571180
_publ_section_title
;
Structure prediction by ZEFSAII (Michael W. Deem and Ramdas Pophale) SiO2 
 PCOD9571180
Probable space group: I 4/M M M
;
_chemical_formula_sum "Si O2"
_cell_formula_units_Z 176
_cell_length_a 18.984757
_cell_length_b 18.984757
_cell_length_c 28.047897
_cell_angle_alpha 90.000000
_cell_angle_beta 90.000000
_cell_angle_gamma 90.000000
_cell_volume 10109.051038
_symmetry_space_group_name_H-M "I 4/M M M"
_symmetry_group_IT_number 139
_symmetry_cell_setting 'tetragonal'
loop_
_space_group_symop_operation_xyz
x,y,z
-y,x,z
-x,-y,z
y,-x,z
x,-y,-z
-x,y,-z
y,x,-z
-y,-x,-z
-x,-y,-z
y,-x,-z
x,y,-z
-y,x,-z
-x,y,z
x,-y,z
-y,-x,z
y,x,z
1/2+x,1/2+y,1/2+z
1/2-y,1/2+x,1/2+z
1/2-x,1/2-y,1/2+z
1/2+y,1/2-x,1/2+z
1/2+x,1/2-y,1/2-z
1/2-x,1/2+y,1/2-z
1/2+y,1/2+x,1/2-z
1/2-y,1/2-x,1/2-z
1/2-x,1/2-y,1/2-z
1/2+y,1/2-x,1/2-z
1/2+x,1/2+y,1/2-z
1/2-y,1/2+x,1/2-z
1/2-x,1/2+y,1/2+z
1/2+x,1/2-y,1/2+z
1/2-y,1/2-x,1/2+z
1/2+y,1/2+x,1/2+z
loop_
_atom_site_type_symbol
_atom_site_label
_atom_site_fract_x
_atom_site_fract_y
_atom_site_fract_z
Si Si1 0.745824 0.625539 0.946318
Si Si2 0.802403 0.079495 0.653010
Si Si3 0.693476 0.582617 0.500000
Si Si4 0.767663 0.349003 0.591079
Si Si5 0.303184 0.917446 0.265813
Si Si6 0.918467 0.200576 0.822571
O O1 0.690599 0.690599 0.950324
O O2 0.715614 0.579851 0.903162
O O3 0.818841 0.658273 0.926841
O O4 0.752644 0.596109 0.000000
O O5 0.864100 0.135901 0.661499
O O6 0.733042 0.100024 0.683417
O O7 0.822003 0.000000 0.667885
O O8 0.692336 0.500000 0.500000
O O9 0.616251 0.616251 0.500000
O O10 0.732715 0.612030 0.453617
O O11 0.719410 0.280591 0.602140
O O12 0.757873 0.397496 0.637039
O O13 0.365546 0.865546 0.250000
O O14 0.239883 0.910071 0.227681
O O15 0.324866 0.000000 0.266189
O O16 0.865681 0.134320 0.826391
O O17 0.000000 0.179719 0.828660
#
# Coordination Sequence:
#
# PCOD9571180 Si02
#       6
#    32  32  16  32  32  32
#     4   9  16  29  50  73  96 126 169 218 264 307
#     4  10  21  35  53  79 110 143 178 215 257 310
#     4  10  18  27  40  60  91 127 164 206 252 308
#     4   9  16  28  45  66  91 123 166 214 260 300
#     4  10  21  37  56  80 107 134 171 215 262 315
#     4  10  20  32  48  71 101 138 178 218 259 307
#
# _framework density 17.410140999999999
#
# number of rings (size 3 to 8) (size 9 to 14) (size 15 to 20)
#    0.000    2.364    0.909    2.182    0.000    3.909 
#    0.000    0.000    0.000    6.545    0.000    2.545 
#    0.000    0.727    0.000    0.000    0.000    0.000 
#
# Total GULP energy -490210.500885 kJ/mol
# GULP energy per Si atom -5570.573874 kJ/mol
# Density = 1.737051 g / cm^3
# Si number density = 17.410141 Si / 1000 Ang^3
#
#
#
# Elastic Constant Matrix: (Units=GPa)
#
#
# Indices 1 2 3 4 5 6 
#
# 1 70.5614 52.9766 16.2827 0.0000 0.0000 0.0000
# 2 52.9766 70.5614 16.2827 0.0000 0.0000 0.0000
# 3 16.2827 16.2827 103.7008 0.0000 0.0000 0.0000
# 4 0.0000 0.0000 0.0000 9.8621 0.0000 0.0000
# 5 0.0000 0.0000 0.0000 0.0000 9.8621 0.0000
# 6 0.0000 0.0000 0.0000 0.0000 0.0000 15.8934
#
#
#
# Elastic Compliance Matrix: (Units=1/GPa)
#
#
# Indices 1 2 3 4 5 6 
#
# 1 0.032656 -0.024212 -0.001326 0.000000 0.000000 0.000000
# 2 -0.024212 0.032656 -0.001326 0.000000 0.000000 0.000000
# 3 -0.001326 -0.001326 0.010059 0.000000 0.000000 0.000000
# 4 0.000000 0.000000 0.000000 0.101398 0.000000 0.000000
# 5 0.000000 0.000000 0.000000 0.000000 0.101398 0.000000
# 6 0.000000 0.000000 0.000000 0.000000 0.000000 0.062919
#
#
# Mechanical properties :
#
#
# Convention : Reuss Voigt Hill
#
# Bulk Modulus (GPa) = 46.20142 46.21199 46.20671
# Shear Modulus (GPa) = 12.43694 17.74229 15.08962
#
# Velocity S-wave (km/s) = 2.67563 3.19576 2.94720
# Velocity P-wave (km/s) = 6.01166 6.34176 6.17892
#
# Compressibility (1/GPa) = 0.02164435
#
# Stress axis : x y z
#
# Youngs Moduli (GPa) = 30.62244 30.62244 99.40857
#
# Poissons Ratio (x) = 0.74142 0.13180
# Poissons Ratio (y) = 0.74142 0.13180
# Poissons Ratio (z) = 0.04060 0.04060
#
# Static dielectric constant tensor:
#      x y z
#    x 1.581250 0.000000 0.000000 
#    y 0.000000 1.581250 0.000000 
#    z 0.000000 0.000000 1.629660 
# 
# From -- ./inp_files/13135.got.cif
#   From: 2010.05.17/outbox.cif.g08.bks.cpg/sg139_7_cif.got.tgz:13135.got - 2010.05.20 13:14:44.
