data_PCOD9571001
_publ_section_title
;
Structure prediction by ZEFSAII (Michael W. Deem and Ramdas Pophale) SiO2 
 PCOD9571001
Probable space group: P 42/N C M
;
_chemical_formula_sum "Si O2"
_cell_formula_units_Z 48
_cell_length_a 11.166934
_cell_length_b 11.166934
_cell_length_c 19.627110
_cell_angle_alpha 90.000000
_cell_angle_beta 90.000000
_cell_angle_gamma 90.000000
_cell_volume 2447.508761
_symmetry_space_group_name_H-M "P 42/N C M"
_symmetry_group_IT_number 138
_space_group.IT_coordinate_system_code '2'
_symmetry_cell_setting 'tetragonal'
loop_
_space_group_symop_operation_xyz
x,y,z
1/2-y,x,1/2+z
1/2-x,1/2-y,z
y,1/2-x,1/2+z
1/2+x,-y,1/2-z
-x,1/2+y,1/2-z
1/2+y,1/2+x,-z
-y,-x,-z
-x,-y,-z
1/2+y,-x,1/2-z
1/2+x,1/2+y,-z
-y,1/2+x,1/2-z
1/2-x,y,1/2+z
x,1/2-y,1/2+z
1/2-y,1/2-x,z
y,x,z
loop_
_atom_site_type_symbol
_atom_site_label
_atom_site_fract_x
_atom_site_fract_y
_atom_site_fract_z
Si Si1 0.014125 0.485875 0.121301
Si Si2 0.874988 0.625013 0.014464
Si Si3 0.572103 0.301703 0.733580
Si Si4 0.152337 0.347664 0.321780
Si Si5 0.595558 0.904443 0.530276
O O1 0.116080 0.546984 0.167948
O O2 0.921881 0.578120 0.087524
O O3 0.069910 0.430091 0.053524
O O4 0.736219 0.583394 0.011208
O O5 0.671381 0.372018 0.778549
O O6 0.450163 0.289447 0.775232
O O7 0.250000 0.250000 0.342875
O O8 0.092994 0.407006 0.387765
O O9 0.500000 0.000000 0.500000
#
# Coordination Sequence:
#
# PCOD9571001 Si02
#       5
#     8   8  16   8   8
#     4  10  22  43  65  91 129 169 202 268 328 377
#     4  10  22  44  65  90 133 166 215 271 328 392
#     4  10  23  40  65  94 124 163 216 264 315 397
#     4  11  23  40  66  90 131 170 203 270 339 381
#     4  11  24  40  64  95 123 171 218 268 323 402
#
# _framework density 19.61178
#
# number of rings (size 3 to 8) (size 9 to 14) (size 15 to 20)
#    0.000    1.667    1.667    2.000    9.333    0.000 
#   12.000    1.667    0.000    0.000    0.000    0.000 
#    0.000    0.000    0.000    0.000    0.000    0.000 
#
# Total GULP energy -267540.576369 kJ/mol
# GULP energy per Si atom -5573.762008 kJ/mol
# Density = 1.956714 g / cm^3
# Si number density = 19.611780 Si / 1000 Ang^3
#
#
#
# Elastic Constant Matrix: (Units=GPa)
#
#
# Indices 1 2 3 4 5 6 
#
# 1 77.0303 53.6915 45.0197 0.0000 0.0000 0.0000
# 2 53.6915 77.0303 45.0197 0.0000 0.0000 0.0000
# 3 45.0197 45.0197 100.8787 0.0000 0.0000 0.0000
# 4 0.0000 0.0000 0.0000 0.3522 0.0000 0.0000
# 5 0.0000 0.0000 0.0000 0.0000 0.3522 0.0000
# 6 0.0000 0.0000 0.0000 0.0000 0.0000 36.2025
#
#
#
# Elastic Compliance Matrix: (Units=1/GPa)
#
#
# Indices 1 2 3 4 5 6 
#
# 1 0.026946 -0.015901 -0.004929 0.000000 0.000000 0.000000
# 2 -0.015901 0.026946 -0.004929 0.000000 0.000000 0.000000
# 3 -0.004929 -0.004929 0.014312 0.000000 0.000000 0.000000
# 4 0.000000 0.000000 0.000000 2.839343 0.000000 0.000000
# 5 0.000000 0.000000 0.000000 0.000000 2.839343 0.000000
# 6 0.000000 0.000000 0.000000 0.000000 0.000000 0.027622
#
#
# Mechanical properties :
#
#
# Convention : Reuss Voigt Hill
#
# Bulk Modulus (GPa) = 59.93093 60.26678 60.09886
# Shear Modulus (GPa) = 0.85740 14.79528 7.82634
#
# Velocity S-wave (km/s) = 0.66192 2.74963 1.99982
# Velocity P-wave (km/s) = 5.58652 6.39353 6.00360
#
# Compressibility (1/GPa) = 0.01668588
#
# Stress axis : x y z
#
# Youngs Moduli (GPa) = 37.11135 37.11135 69.86980
#
# Poissons Ratio (x) = 0.59011 0.34439
# Poissons Ratio (y) = 0.59011 0.34439
# Poissons Ratio (z) = 0.18292 0.18292
#
# Static dielectric constant tensor:
#      x y z
#    x 1.725380 0.000000 0.000000 
#    y 0.000000 1.725380 0.000000 
#    z 0.000000 0.000000 1.645450 
# 
# From -- ./inp_files/4792.got.cif
#   From: 2010.05.17/outbox.cif.g08.bks.cpg/sg138_3_cif.got.tgz:4792.got - 2010.05.20 13:08:53.
