data_PCOD9571384
_publ_section_title
;
Structure prediction by ZEFSAII (Michael W. Deem and Ramdas Pophale) SiO2 
 PCOD9571384
Probable space group: I 4/M M M
;
_chemical_formula_sum "Si O2"
_cell_formula_units_Z 160
_cell_length_a 24.115395
_cell_length_b 24.115395
_cell_length_c 15.546330
_cell_angle_alpha 90.000000
_cell_angle_beta 90.000000
_cell_angle_gamma 90.000000
_cell_volume 9041.003595
_symmetry_space_group_name_H-M "I 4/M M M"
_symmetry_group_IT_number 139
_symmetry_cell_setting 'tetragonal'
loop_
_space_group_symop_operation_xyz
x,y,z
-y,x,z
-x,-y,z
y,-x,z
x,-y,-z
-x,y,-z
y,x,-z
-y,-x,-z
-x,-y,-z
y,-x,-z
x,y,-z
-y,x,-z
-x,y,z
x,-y,z
-y,-x,z
y,x,z
1/2+x,1/2+y,1/2+z
1/2-y,1/2+x,1/2+z
1/2-x,1/2-y,1/2+z
1/2+y,1/2-x,1/2+z
1/2+x,1/2-y,1/2-z
1/2-x,1/2+y,1/2-z
1/2+y,1/2+x,1/2-z
1/2-y,1/2-x,1/2-z
1/2-x,1/2-y,1/2-z
1/2+y,1/2-x,1/2-z
1/2+x,1/2+y,1/2-z
1/2-y,1/2+x,1/2-z
1/2-x,1/2+y,1/2+z
1/2+x,1/2-y,1/2+z
1/2-y,1/2-x,1/2+z
1/2+y,1/2+x,1/2+z
loop_
_atom_site_type_symbol
_atom_site_label
_atom_site_fract_x
_atom_site_fract_y
_atom_site_fract_z
Si Si1 0.766813 0.674957 0.671901
Si Si2 0.318724 0.226516 0.000000
Si Si3 0.937355 0.243814 0.251245
Si Si4 0.656368 0.565162 0.100048
Si Si5 0.566785 0.831356 0.000000
Si Si6 0.130953 0.561499 0.184178
O O1 0.711987 0.711987 0.683137
O O2 0.807396 0.692605 0.750000
O O3 0.795434 0.694934 0.584178
O O4 0.749402 0.610973 0.680912
O O5 0.385269 0.215875 0.000000
O O6 0.288078 0.288078 0.000000
O O7 0.920694 0.202404 0.328579
O O8 0.940670 0.304313 0.292995
O O9 0.000000 0.229235 0.221291
O O10 0.644134 0.500000 0.109871
O O11 0.603247 0.603247 0.115151
O O12 0.672794 0.573123 0.000000
O O13 0.576368 0.868584 0.084158
O O14 0.500000 0.813688 0.000000
O O15 0.107161 0.500000 0.194441
O O16 0.101433 0.601433 0.250000
#
# Coordination Sequence:
#
# PCOD9571384 Si02
#       6
#    32  16  32  32  16  32
#     4  10  20  35  53  74 104 138 173 217 269 323
#     4  10  20  34  55  81 110 143 178 221 270 321
#     4  10  19  31  50  73 102 136 173 216 265 316
#     4   9  18  31  47  71 103 139 179 221 263 311
#     4  10  20  34  55  80 107 140 174 213 266 319
#     4  10  21  36  55  77 102 135 172 215 266 317
#
# _framework density 17.697151000000002
#
# number of rings (size 3 to 8) (size 9 to 14) (size 15 to 20)
#    0.000    2.200    0.000    3.600    1.400    0.400 
#    1.800    3.000    0.000    5.400    0.000    0.000 
#    0.000    0.200    0.000    0.000    0.000   60.000 
#
# Total GULP energy -446120.197830 kJ/mol
# GULP energy per Si atom -5576.502473 kJ/mol
# Density = 1.765687 g / cm^3
# Si number density = 17.697151 Si / 1000 Ang^3
#
#
#
# Elastic Constant Matrix: (Units=GPa)
#
#
# Indices 1 2 3 4 5 6 
#
# 1 71.4816 61.3805 49.7960 0.0000 0.0000 0.0000
# 2 61.3805 71.4832 49.7949 0.0000 0.0000 0.0000
# 3 49.7960 49.7949 95.4072 0.0000 0.0000 0.0000
# 4 0.0000 0.0000 0.0000 14.0214 0.0000 0.0000
# 5 0.0000 0.0000 0.0000 0.0000 14.0204 0.0000
# 6 0.0000 0.0000 0.0000 0.0000 0.0000 12.2845
#
#
#
# Elastic Compliance Matrix: (Units=1/GPa)
#
#
# Indices 1 2 3 4 5 6 
#
# 1 0.055679 -0.043314 -0.006454 0.000000 0.000000 0.000000
# 2 -0.043314 0.055676 -0.006451 0.000000 0.000000 0.000000
# 3 -0.006454 -0.006451 0.017217 0.000000 0.000000 0.000000
# 4 0.000000 0.000000 0.000000 0.071320 0.000000 0.000000
# 5 0.000000 0.000000 0.000000 0.000000 0.071325 0.000000
# 6 0.000000 0.000000 0.000000 0.000000 0.000000 0.081403
#
#
# Mechanical properties :
#
#
# Convention : Reuss Voigt Hill
#
# Bulk Modulus (GPa) = 61.98541 62.25721 62.12131
# Shear Modulus (GPa) = 10.62842 13.22530 11.92686
#
# Velocity S-wave (km/s) = 2.45332 2.73667 2.59886
# Velocity P-wave (km/s) = 6.56709 6.72617 6.64711
#
# Compressibility (1/GPa) = 0.01613283
#
# Stress axis : x y z
#
# Youngs Moduli (GPa) = 17.96003 17.96111 58.08178
#
# Poissons Ratio (x) = 0.77797 0.37487
# Poissons Ratio (y) = 0.77792 0.37471
# Poissons Ratio (z) = 0.11592 0.11587
#
# Static dielectric constant tensor:
#      x y z
#    x 1.629970 0.000000 0.000000 
#    y 0.000000 1.629970 0.000000 
#    z 0.000000 0.000000 1.617060 
# 
# From -- ./inp_files/5975.got.cif
#   From: 2010.05.17/outbox.cif.g08.bks.cpg/sg139_3_cif.got.tgz:5975.got - 2010.05.20 13:14:44.
