data_PCOD9571768
_publ_section_title
;
Structure prediction by ZEFSAII (Michael W. Deem and Ramdas Pophale) SiO2 
 PCOD9571768
Probable space group: I 4/M M M
;
_chemical_formula_sum "Si O2"
_cell_formula_units_Z 84
_cell_length_a 11.527351
_cell_length_b 11.527351
_cell_length_c 31.411097
_cell_angle_alpha 90.000000
_cell_angle_beta 90.000000
_cell_angle_gamma 90.000000
_cell_volume 4173.900949
_symmetry_space_group_name_H-M "I 4/M M M"
_symmetry_group_IT_number 139
_symmetry_cell_setting 'tetragonal'
loop_
_space_group_symop_operation_xyz
x,y,z
-y,x,z
-x,-y,z
y,-x,z
x,-y,-z
-x,y,-z
y,x,-z
-y,-x,-z
-x,-y,-z
y,-x,-z
x,y,-z
-y,x,-z
-x,y,z
x,-y,z
-y,-x,z
y,x,z
1/2+x,1/2+y,1/2+z
1/2-y,1/2+x,1/2+z
1/2-x,1/2-y,1/2+z
1/2+y,1/2-x,1/2+z
1/2+x,1/2-y,1/2-z
1/2-x,1/2+y,1/2-z
1/2+y,1/2+x,1/2-z
1/2-y,1/2-x,1/2-z
1/2-x,1/2-y,1/2-z
1/2+y,1/2-x,1/2-z
1/2+x,1/2+y,1/2-z
1/2-y,1/2+x,1/2-z
1/2-x,1/2+y,1/2+z
1/2+x,1/2-y,1/2+z
1/2-y,1/2-x,1/2+z
1/2+y,1/2+x,1/2+z
loop_
_atom_site_type_symbol
_atom_site_label
_atom_site_fract_x
_atom_site_fract_y
_atom_site_fract_z
Si Si1 0.500000 0.862161 0.063719
Si Si2 0.741739 0.258262 0.800384
Si Si3 0.752753 0.752753 0.453602
Si Si4 0.364983 0.364983 0.626926
Si Si5 0.500000 0.500000 0.127169
Si Si6 0.232421 0.500000 0.153649
O O1 0.386962 0.788959 0.048817
O O2 0.500000 0.858354 0.115267
O O3 0.500000 0.000000 0.050898
O O4 0.750000 0.250000 0.750000
O O5 0.825744 0.174257 0.826516
O O6 0.772183 0.386681 0.817129
O O7 0.709462 0.709462 0.500000
O O8 0.700207 0.700207 0.410735
O O9 0.500000 0.341598 0.621756
O O10 0.357604 0.500000 0.130672
#
# Coordination Sequence:
#
# PCOD9571768 Si02
#       6
#    16  16  16  16   4  16
#     4  12  25  46  73 104 147 186 234 291 358 422
#     4  11  24  40  66  99 136 176 236 287 347 414
#     4  12  26  45  73 104 139 183 232 288 354 423
#     4  11  25  45  67  94 134 182 230 285 345 415
#     4   8  16  36  64  92 125 164 236 264 353 408
#     4  10  20  41  66  95 132 187 220 289 351 418
#
# _framework density 20.125060000000001
#
# number of rings (size 3 to 8) (size 9 to 14) (size 15 to 20)
#    0.000    0.952    3.810    2.857    2.667    4.190 
#    0.000    1.905    0.000    0.000    0.000    0.000 
#    0.000    0.000    0.000    0.000    0.000    0.000 
#
# Total GULP energy -233943.395109 kJ/mol
# GULP energy per Si atom -5570.080836 kJ/mol
# Density = 2.007925 g / cm^3
# Si number density = 20.125060 Si / 1000 Ang^3
#
#
#
# Elastic Constant Matrix: (Units=GPa)
#
#
# Indices 1 2 3 4 5 6 
#
# 1 194.7206 -25.6684 28.0214 0.0000 0.0000 0.0000
# 2 -25.6684 194.7206 28.0214 0.0000 0.0000 0.0000
# 3 28.0214 28.0214 163.7972 0.0000 0.0000 0.0000
# 4 0.0000 0.0000 0.0000 -16.4679 0.0000 0.0000
# 5 0.0000 0.0000 0.0000 0.0000 -16.4679 0.0000
# 6 0.0000 0.0000 0.0000 0.0000 0.0000 27.4994
#
#
#
# Elastic Compliance Matrix: (Units=1/GPa)
#
#
# Indices 1 2 3 4 5 6 
#
# 1 0.005404 0.000867 -0.001073 0.000000 0.000000 0.000000
# 2 0.000867 0.005404 -0.001073 0.000000 0.000000 0.000000
# 3 -0.001073 -0.001073 0.006472 0.000000 0.000000 0.000000
# 4 0.000000 0.000000 0.000000 -0.060724 0.000000 0.000000
# 5 0.000000 0.000000 0.000000 0.000000 -0.060724 0.000000
# 6 0.000000 0.000000 0.000000 0.000000 0.000000 0.036364
#
#
# Mechanical properties :
#
#
# Convention : Reuss Voigt Hill
#
# Bulk Modulus (GPa) = 67.92128 68.22079 68.07104
# Shear Modulus (GPa) = -82.86660 33.77031 -24.54814
#
# Velocity S-wave (km/s) = -6.42380 4.10081 -3.49632
# Velocity P-wave (km/s) = 4.60407 7.50961 4.19505
#
# Compressibility (1/GPa) = 0.01472293
#
# Stress axis : x y z
#
# Youngs Moduli (GPa) = 185.04106 185.04106 154.50773
#
# Poissons Ratio (x) = -0.16039 0.16576
# Poissons Ratio (y) = -0.16039 0.16576
# Poissons Ratio (z) = 0.19851 0.19851
#
# Static dielectric constant tensor:
#      x y z
#    x 1.730970 0.000000 0.000000 
#    y 0.000000 1.730970 0.000000 
#    z 0.000000 0.000000 1.679220 
# 
# From -- ./inp_files/13615.got.cif
#   From: 2010.05.17/outbox.cif.g08.bks.cpg/sg139_7_cif.got.tgz:13615.got - 2010.05.20 13:14:44.
