data_PCOD9571514
_publ_section_title
;
Structure prediction by ZEFSAII (Michael W. Deem and Ramdas Pophale) SiO2 
 PCOD9571514
Probable space group: I 4/M M M
;
_chemical_formula_sum "Si O2"
_cell_formula_units_Z 160
_cell_length_a 30.844420
_cell_length_b 30.844420
_cell_length_c 7.858171
_cell_angle_alpha 90.000000
_cell_angle_beta 90.000000
_cell_angle_gamma 90.000000
_cell_volume 7476.092936
_symmetry_space_group_name_H-M "I 4/M M M"
_symmetry_group_IT_number 139
_symmetry_cell_setting 'tetragonal'
loop_
_space_group_symop_operation_xyz
x,y,z
-y,x,z
-x,-y,z
y,-x,z
x,-y,-z
-x,y,-z
y,x,-z
-y,-x,-z
-x,-y,-z
y,-x,-z
x,y,-z
-y,x,-z
-x,y,z
x,-y,z
-y,-x,z
y,x,z
1/2+x,1/2+y,1/2+z
1/2-y,1/2+x,1/2+z
1/2-x,1/2-y,1/2+z
1/2+y,1/2-x,1/2+z
1/2+x,1/2-y,1/2-z
1/2-x,1/2+y,1/2-z
1/2+y,1/2+x,1/2-z
1/2-y,1/2-x,1/2-z
1/2-x,1/2-y,1/2-z
1/2+y,1/2-x,1/2-z
1/2+x,1/2+y,1/2-z
1/2-y,1/2+x,1/2-z
1/2-x,1/2+y,1/2+z
1/2+x,1/2-y,1/2+z
1/2-y,1/2-x,1/2+z
1/2+y,1/2+x,1/2+z
loop_
_atom_site_type_symbol
_atom_site_label
_atom_site_fract_x
_atom_site_fract_y
_atom_site_fract_z
Si Si1 0.848800 0.284196 0.691979
Si Si2 0.205345 0.205345 0.799090
Si Si3 0.132007 0.132007 0.201955
Si Si4 0.950893 0.378337 0.204931
Si Si5 0.720756 0.938791 0.192088
Si Si6 0.683037 0.547475 0.292116
O O1 0.864694 0.286082 0.500000
O O2 0.829383 0.329383 0.750000
O O3 0.812586 0.247907 0.710750
O O4 0.887514 0.272618 0.813414
O O5 0.168671 0.168671 0.781410
O O6 0.212886 0.212886 0.000000
O O7 0.087469 0.153499 0.269769
O O8 0.124622 0.124622 0.000000
O O9 0.912666 0.412666 0.250000
O O10 0.945639 0.327823 0.266670
O O11 0.000000 0.392444 0.256260
O O12 0.949851 0.375905 0.000000
O O13 0.766781 0.952677 0.271324
O O14 0.719025 0.955684 0.000000
O O15 0.686134 0.551716 0.500000
O O16 0.664367 0.500000 0.254413
#
# Coordination Sequence:
#
# PCOD9571514 Si02
#       6
#    32  16  16  32  32  32
#     4  12  24  36  51  76 110 150 189 227 272 325
#     4  11  20  36  55  75 105 144 189 233 272 316
#     4   9  16  28  50  80 109 139 182 231 274 323
#     4  10  22  39  59  83 109 140 182 232 286 343
#     4  10  19  35  57  81 109 142 182 229 278 330
#     4   9  16  28  51  81 110 143 185 231 275 323
#
# _framework density 21.401551999999999
#
# number of rings (size 3 to 8) (size 9 to 14) (size 15 to 20)
#    0.000    1.800    2.000    3.600    0.000    5.400 
#    0.000    1.000    0.000    2.100    0.000    2.100 
#    0.000    0.000    0.000    0.000    0.000    2.300 
#
# Total GULP energy -446062.037005 kJ/mol
# GULP energy per Si atom -5575.775463 kJ/mol
# Density = 2.135284 g / cm^3
# Si number density = 21.401552 Si / 1000 Ang^3
#
#
#
# Elastic Constant Matrix: (Units=GPa)
#
#
# Indices 1 2 3 4 5 6 
#
# 1 231.8931 -17.8642 10.9509 0.0000 0.0000 0.0000
# 2 -17.8642 231.8931 10.9509 0.0000 0.0000 0.0000
# 3 10.9509 10.9509 57.1320 0.0000 0.0000 0.0000
# 4 0.0000 0.0000 0.0000 6.3931 0.0000 0.0000
# 5 0.0000 0.0000 0.0000 0.0000 6.3931 0.0000
# 6 0.0000 0.0000 0.0000 0.0000 0.0000 15.6931
#
#
#
# Elastic Compliance Matrix: (Units=1/GPa)
#
#
# Indices 1 2 3 4 5 6 
#
# 1 0.004385 0.000381 -0.000913 0.000000 0.000000 0.000000
# 2 0.000381 0.004385 -0.000913 0.000000 0.000000 0.000000
# 3 -0.000913 -0.000913 0.017854 0.000000 0.000000 0.000000
# 4 0.000000 0.000000 0.000000 0.156419 0.000000 0.000000
# 5 0.000000 0.000000 0.000000 0.000000 0.156419 0.000000
# 6 0.000000 0.000000 0.000000 0.000000 0.000000 0.063722
#
#
# Mechanical properties :
#
#
# Convention : Reuss Voigt Hill
#
# Bulk Modulus (GPa) = 42.13885 58.77705 50.45795
# Shear Modulus (GPa) = 12.07774 40.15457 26.11615
#
# Velocity S-wave (km/s) = 2.37816 4.33626 3.49706
# Velocity P-wave (km/s) = 5.22238 7.25220 6.31932
#
# Compressibility (1/GPa) = 0.02373107
#
# Stress axis : x y z
#
# Youngs Moduli (GPa) = 228.05975 228.05975 56.01134
#
# Poissons Ratio (x) = -0.08687 0.05117
# Poissons Ratio (y) = -0.08687 0.05117
# Poissons Ratio (z) = 0.20833 0.20833
#
# Static dielectric constant tensor:
#      x y z
#    x 1.790520 0.000000 0.000000 
#    y 0.000000 1.790520 0.000000 
#    z 0.000000 0.000000 1.811330 
# 
# From -- ./inp_files/2210.got.cif
#   From: 2010.05.17/outbox.cif.g08.bks.cpg/sg139_2_cif.got.tgz:2210.got - 2010.05.20 13:14:44.
