data_PCOD9571664
_publ_section_title
;
Structure prediction by ZEFSAII (Michael W. Deem and Ramdas Pophale) SiO2 
 PCOD9571664
Probable space group: I 4/M M M
;
_chemical_formula_sum "Si O2"
_cell_formula_units_Z 112
_cell_length_a 19.783907
_cell_length_b 19.783907
_cell_length_c 16.058103
_cell_angle_alpha 90.000000
_cell_angle_beta 90.000000
_cell_angle_gamma 90.000000
_cell_volume 6285.189306
_symmetry_space_group_name_H-M "I 4/M M M"
_symmetry_group_IT_number 139
_symmetry_cell_setting 'tetragonal'
loop_
_space_group_symop_operation_xyz
x,y,z
-y,x,z
-x,-y,z
y,-x,z
x,-y,-z
-x,y,-z
y,x,-z
-y,-x,-z
-x,-y,-z
y,-x,-z
x,y,-z
-y,x,-z
-x,y,z
x,-y,z
-y,-x,z
y,x,z
1/2+x,1/2+y,1/2+z
1/2-y,1/2+x,1/2+z
1/2-x,1/2-y,1/2+z
1/2+y,1/2-x,1/2+z
1/2+x,1/2-y,1/2-z
1/2-x,1/2+y,1/2-z
1/2+y,1/2+x,1/2-z
1/2-y,1/2-x,1/2-z
1/2-x,1/2-y,1/2-z
1/2+y,1/2-x,1/2-z
1/2+x,1/2+y,1/2-z
1/2-y,1/2+x,1/2-z
1/2-x,1/2+y,1/2+z
1/2+x,1/2-y,1/2+z
1/2-y,1/2-x,1/2+z
1/2+y,1/2+x,1/2+z
loop_
_atom_site_type_symbol
_atom_site_label
_atom_site_fract_x
_atom_site_fract_y
_atom_site_fract_z
Si Si1 0.808187 0.922852 0.731876
Si Si2 0.578062 0.000000 0.400073
Si Si3 0.376713 0.829952 0.158896
Si Si4 0.738680 0.375863 0.409369
O O1 0.869114 0.869114 0.725503
O O2 0.746873 0.901790 0.670357
O O3 0.778221 0.918351 0.826499
O O4 0.828892 0.000000 0.715937
O O5 0.619781 0.064579 0.369372
O O6 0.500000 0.000000 0.370704
O O7 0.577049 0.000000 0.500000
O O8 0.352290 0.852290 0.250000
O O9 0.311660 0.841391 0.101573
O O10 0.735685 0.410670 0.500000
O O11 0.683016 0.316985 0.409175
#
# Coordination Sequence:
#
# PCOD9571664 Si02
#       4
#    32  16  32  32
#     4  10  20  35  55  81 109 145 191 236 283 334
#     4  11  24  36  50  78 111 143 179 220 272 342
#     4  10  20  34  54  75 106 145 183 226 273 333
#     4   9  18  33  54  78 104 136 178 227 277 334
#
# _framework density 17.819671
#
# number of rings (size 3 to 8) (size 9 to 14) (size 15 to 20)
#    0.000    2.143    1.429    1.714    2.000    5.429 
#    0.000    0.000    0.000    0.000    0.000    4.000 
#    0.000    1.143    0.000    0.000    0.000    0.000 
#
# Total GULP energy -312196.516799 kJ/mol
# GULP energy per Si atom -5574.937800 kJ/mol
# Density = 1.777911 g / cm^3
# Si number density = 17.819671 Si / 1000 Ang^3
#
#
#
# Elastic Constant Matrix: (Units=GPa)
#
#
# Indices 1 2 3 4 5 6 
#
# 1 111.6746 48.6693 13.4597 0.0000 0.0000 0.0000
# 2 48.6693 111.6746 13.4597 0.0000 0.0000 0.0000
# 3 13.4597 13.4597 29.5466 0.0000 0.0000 0.0000
# 4 0.0000 0.0000 0.0000 6.4041 0.0000 0.0000
# 5 0.0000 0.0000 0.0000 0.0000 6.4041 0.0000
# 6 0.0000 0.0000 0.0000 0.0000 0.0000 4.7425
#
#
#
# Elastic Compliance Matrix: (Units=1/GPa)
#
#
# Indices 1 2 3 4 5 6 
#
# 1 0.011312 -0.004559 -0.003076 0.000000 0.000000 0.000000
# 2 -0.004559 0.011312 -0.003076 0.000000 0.000000 0.000000
# 3 -0.003076 -0.003076 0.036648 0.000000 0.000000 0.000000
# 4 0.000000 0.000000 0.000000 0.156151 0.000000 0.000000
# 5 0.000000 0.000000 0.000000 0.000000 0.156151 0.000000
# 6 0.000000 0.000000 0.000000 0.000000 0.000000 0.210858
#
#
# Mechanical properties :
#
#
# Convention : Reuss Voigt Hill
#
# Bulk Modulus (GPa) = 26.42111 44.89702 35.65907
# Shear Modulus (GPa) = 8.11067 15.33060 11.72063
#
# Velocity S-wave (km/s) = 2.13574 2.93630 2.56742
# Velocity P-wave (km/s) = 4.57613 6.06182 5.37060
#
# Compressibility (1/GPa) = 0.03784852
#
# Stress axis : x y z
#
# Youngs Moduli (GPa) = 88.39875 88.39875 27.28690
#
# Poissons Ratio (x) = 0.40304 0.08394
# Poissons Ratio (y) = 0.40304 0.08394
# Poissons Ratio (z) = 0.27194 0.27194
#
# Static dielectric constant tensor:
#      x y z
#    x 1.591340 0.000000 0.000000 
#    y 0.000000 1.591340 0.000000 
#    z 0.000000 0.000000 1.634760 
# 
# From -- ./inp_files/7552.got.cif
#   From: 2010.05.17/outbox.cif.g08.bks.cpg/sg139_4_cif.got.tgz:7552.got - 2010.05.20 13:14:44.
