data_PCOD9571716
_publ_section_title
;
Structure prediction by ZEFSAII (Michael W. Deem and Ramdas Pophale) SiO2 
 PCOD9571716
Probable space group: I 4/M M M
;
_chemical_formula_sum "Si O2"
_cell_formula_units_Z 128
_cell_length_a 22.244172
_cell_length_b 22.244172
_cell_length_c 13.382590
_cell_angle_alpha 90.000000
_cell_angle_beta 90.000000
_cell_angle_gamma 90.000000
_cell_volume 6621.748195
_symmetry_space_group_name_H-M "I 4/M M M"
_symmetry_group_IT_number 139
_symmetry_cell_setting 'tetragonal'
loop_
_space_group_symop_operation_xyz
x,y,z
-y,x,z
-x,-y,z
y,-x,z
x,-y,-z
-x,y,-z
y,x,-z
-y,-x,-z
-x,-y,-z
y,-x,-z
x,y,-z
-y,x,-z
-x,y,z
x,-y,z
-y,-x,z
y,x,z
1/2+x,1/2+y,1/2+z
1/2-y,1/2+x,1/2+z
1/2-x,1/2-y,1/2+z
1/2+y,1/2-x,1/2+z
1/2+x,1/2-y,1/2-z
1/2-x,1/2+y,1/2-z
1/2+y,1/2+x,1/2-z
1/2-y,1/2-x,1/2-z
1/2-x,1/2-y,1/2-z
1/2+y,1/2-x,1/2-z
1/2+x,1/2+y,1/2-z
1/2-y,1/2+x,1/2-z
1/2-x,1/2+y,1/2+z
1/2+x,1/2-y,1/2+z
1/2-y,1/2-x,1/2+z
1/2+y,1/2+x,1/2+z
loop_
_atom_site_type_symbol
_atom_site_label
_atom_site_fract_x
_atom_site_fract_y
_atom_site_fract_z
Si Si1 0.331294 0.427547 0.825845
Si Si2 0.071929 0.780269 0.110643
Si Si3 0.928877 0.400266 0.500000
Si Si4 0.927499 0.261306 0.500000
Si Si5 0.645689 0.932693 0.182476
O O1 0.339291 0.500000 0.831736
O O2 0.390586 0.390586 0.854913
O O3 0.314457 0.410570 0.711798
O O4 0.276968 0.410894 0.901383
O O5 0.081014 0.709950 0.134252
O O6 0.000000 0.788922 0.104668
O O7 0.096505 0.795628 0.000000
O O8 0.906784 0.330356 0.500000
O O9 0.902898 0.433433 0.404624
O O10 0.000000 0.400163 0.500000
O O11 0.000000 0.264001 0.500000
O O12 0.620916 0.879085 0.250000
O O13 0.649649 0.000000 0.230526
#
# Coordination Sequence:
#
# PCOD9571716 Si02
#       5
#    32  32  16  16  32
#     4  10  20  35  59  86 112 141 174 220 274 331
#     4   9  18  35  55  76 105 147 193 221 254 323
#     4  11  21  33  52  76 104 141 183 228 273 312
#     4   9  19  36  54  78 110 148 189 217 257 331
#     4  11  21  33  50  76 108 143 182 227 277 325
#
# _framework density 19.330242999999999
#
# number of rings (size 3 to 8) (size 9 to 14) (size 15 to 20)
#    0.000    2.000    1.250    3.000    0.000    7.000 
#    0.000    0.000    0.000   10.500    0.000    3.500 
#    0.000    0.000    0.000    0.000    0.000    0.000 
#
# Total GULP energy -356729.682655 kJ/mol
# GULP energy per Si atom -5573.901291 kJ/mol
# Density = 1.928625 g / cm^3
# Si number density = 19.330243 Si / 1000 Ang^3
#
#
#
# Elastic Constant Matrix: (Units=GPa)
#
#
# Indices 1 2 3 4 5 6 
#
# 1 65.1926 40.3227 17.3155 0.0000 0.0000 0.0000
# 2 40.3227 65.1932 17.3150 0.0000 0.0000 0.0000
# 3 17.3155 17.3150 90.9190 0.0000 0.0000 0.0000
# 4 0.0000 0.0000 0.0000 19.3792 0.0000 0.0000
# 5 0.0000 0.0000 0.0000 0.0000 19.3791 0.0000
# 6 0.0000 0.0000 0.0000 0.0000 0.0000 7.5502
#
#
#
# Elastic Compliance Matrix: (Units=1/GPa)
#
#
# Indices 1 2 3 4 5 6 
#
# 1 0.025159 -0.015050 -0.001925 0.000000 0.000000 0.000000
# 2 -0.015050 0.025159 -0.001925 0.000000 0.000000 0.000000
# 3 -0.001925 -0.001925 0.011732 0.000000 0.000000 0.000000
# 4 0.000000 0.000000 0.000000 0.051602 0.000000 0.000000
# 5 0.000000 0.000000 0.000000 0.000000 0.051602 0.000000
# 6 0.000000 0.000000 0.000000 0.000000 0.000000 0.132447
#
#
# Mechanical properties :
#
#
# Convention : Reuss Voigt Hill
#
# Bulk Modulus (GPa) = 41.23817 41.24570 41.24193
# Shear Modulus (GPa) = 14.55246 19.01846 16.78546
#
# Velocity S-wave (km/s) = 2.74676 3.14007 2.94998
# Velocity P-wave (km/s) = 5.60708 5.87626 5.74325
#
# Compressibility (1/GPa) = 0.02424938
#
# Stress axis : x y z
#
# Youngs Moduli (GPa) = 39.74704 39.74757 85.23602
#
# Poissons Ratio (x) = 0.59819 0.16411
# Poissons Ratio (y) = 0.59818 0.16409
# Poissons Ratio (z) = 0.07653 0.07652
#
# Static dielectric constant tensor:
#      x y z
#    x 1.649300 0.000000 0.000000 
#    y 0.000000 1.649300 0.000000 
#    z 0.000000 0.000000 1.780890 
# 
# From -- ./inp_files/3438.got.cif
#   From: 2010.05.17/outbox.cif.g08.bks.cpg/sg139_2_cif.got.tgz:3438.got - 2010.05.20 13:14:44.
