data_PCOD9571200
_publ_section_title
;
Structure prediction by ZEFSAII (Michael W. Deem and Ramdas Pophale) SiO2 
 PCOD9571200
Probable space group: I 4/M M M
;
_chemical_formula_sum "Si O2"
_cell_formula_units_Z 160
_cell_length_a 18.049690
_cell_length_b 18.049690
_cell_length_c 29.630119
_cell_angle_alpha 90.000000
_cell_angle_beta 90.000000
_cell_angle_gamma 90.000000
_cell_volume 9653.235258
_symmetry_space_group_name_H-M "I 4/M M M"
_symmetry_group_IT_number 139
_symmetry_cell_setting 'tetragonal'
loop_
_space_group_symop_operation_xyz
x,y,z
-y,x,z
-x,-y,z
y,-x,z
x,-y,-z
-x,y,-z
y,x,-z
-y,-x,-z
-x,-y,-z
y,-x,-z
x,y,-z
-y,x,-z
-x,y,z
x,-y,z
-y,-x,z
y,x,z
1/2+x,1/2+y,1/2+z
1/2-y,1/2+x,1/2+z
1/2-x,1/2-y,1/2+z
1/2+y,1/2-x,1/2+z
1/2+x,1/2-y,1/2-z
1/2-x,1/2+y,1/2-z
1/2+y,1/2+x,1/2-z
1/2-y,1/2-x,1/2-z
1/2-x,1/2-y,1/2-z
1/2+y,1/2-x,1/2-z
1/2+x,1/2+y,1/2-z
1/2-y,1/2+x,1/2-z
1/2-x,1/2+y,1/2+z
1/2+x,1/2-y,1/2+z
1/2-y,1/2-x,1/2+z
1/2+y,1/2+x,1/2+z
loop_
_atom_site_type_symbol
_atom_site_label
_atom_site_fract_x
_atom_site_fract_y
_atom_site_fract_z
Si Si1 0.208810 0.914853 0.894877
Si Si2 0.312118 0.815123 0.551699
Si Si3 0.416031 0.214270 0.202510
Si Si4 0.085330 0.207409 0.391702
Si Si5 0.361171 0.238386 0.700565
O O1 0.137624 0.862377 0.902702
O O2 0.276249 0.881229 0.924070
O O3 0.231978 0.904960 0.842505
O O4 0.194506 0.000000 0.905390
O O5 0.327317 0.835553 0.500000
O O6 0.248360 0.751640 0.551789
O O7 0.276659 0.881386 0.580463
O O8 0.500000 0.183883 0.201520
O O9 0.409567 0.271187 0.161119
O O10 0.400963 0.249710 0.251579
O O11 0.348942 0.156289 0.196204
O O12 0.136982 0.136982 0.400947
O O13 0.000000 0.194482 0.403229
O O14 0.283315 0.283315 0.700935
#
# Coordination Sequence:
#
# PCOD9571200 Si02
#       5
#    32  32  32  32  32
#     4  10  20  34  54  79 106 134 167 208 255 309
#     4   9  18  34  54  74  97 129 172 215 253 300
#     4  10  18  28  48  75 102 132 172 219 259 296
#     4  10  19  32  51  77 107 138 175 216 258 304
#     4  10  18  31  51  72 101 140 181 215 248 303
#
# _framework density 16.574753999999999
#
# number of rings (size 3 to 8) (size 9 to 14) (size 15 to 20)
#    0.000    2.200    2.000    3.000    0.000    1.200 
#    0.000    0.000    0.000   12.000    0.000    9.800 
#    0.000    0.000    0.000    0.000    0.000    0.000 
#
# Total GULP energy -445862.513936 kJ/mol
# GULP energy per Si atom -5573.281424 kJ/mol
# Density = 1.653703 g / cm^3
# Si number density = 16.574754 Si / 1000 Ang^3
#
#
#
# Elastic Constant Matrix: (Units=GPa)
#
#
# Indices 1 2 3 4 5 6 
#
# 1 110.3801 49.5307 37.9259 0.0000 0.0000 0.0000
# 2 49.5307 110.3801 37.9259 0.0000 0.0000 0.0000
# 3 37.9259 37.9259 94.5233 0.0000 0.0000 0.0000
# 4 0.0000 0.0000 0.0000 6.6793 0.0000 0.0000
# 5 0.0000 0.0000 0.0000 0.0000 6.6793 0.0000
# 6 0.0000 0.0000 0.0000 0.0000 0.0000 12.4105
#
#
#
# Elastic Compliance Matrix: (Units=1/GPa)
#
#
# Indices 1 2 3 4 5 6 
#
# 1 0.012079 -0.004355 -0.003099 0.000000 0.000000 0.000000
# 2 -0.004355 0.012079 -0.003099 0.000000 0.000000 0.000000
# 3 -0.003099 -0.003099 0.013066 0.000000 0.000000 0.000000
# 4 0.000000 0.000000 0.000000 0.149716 0.000000 0.000000
# 5 0.000000 0.000000 0.000000 0.000000 0.149716 0.000000
# 6 0.000000 0.000000 0.000000 0.000000 0.000000 0.080577
#
#
# Mechanical properties :
#
#
# Convention : Reuss Voigt Hill
#
# Bulk Modulus (GPa) = 62.04467 62.89426 62.46947
# Shear Modulus (GPa) = 11.26859 17.81389 14.54124
#
# Velocity S-wave (km/s) = 2.61025 3.28191 2.96516
# Velocity P-wave (km/s) = 6.82635 7.23806 7.03521
#
# Compressibility (1/GPa) = 0.01611742
#
# Stress axis : x y z
#
# Youngs Moduli (GPa) = 82.79028 82.79028 76.53363
#
# Poissons Ratio (x) = 0.36058 0.23717
# Poissons Ratio (y) = 0.36058 0.23717
# Poissons Ratio (z) = 0.25656 0.25656
#
# Static dielectric constant tensor:
#      x y z
#    x 1.547340 0.000000 0.000000 
#    y 0.000000 1.547340 0.000000 
#    z 0.000000 0.000000 1.575720 
# 
# From -- ./inp_files/12910.got.cif
#   From: 2010.05.17/outbox.cif.g08.bks.cpg/sg139_7_cif.got.tgz:12910.got - 2010.05.20 13:14:44.
