data_PCOD9571120
_publ_section_title
;
Structure prediction by ZEFSAII (Michael W. Deem and Ramdas Pophale) SiO2 
 PCOD9571120
Probable space group: P 42/N C M
;
_chemical_formula_sum "Si O2"
_cell_formula_units_Z 56
_cell_length_a 17.180920
_cell_length_b 17.180920
_cell_length_c 8.254029
_cell_angle_alpha 90.000000
_cell_angle_beta 90.000000
_cell_angle_gamma 90.000000
_cell_volume 2436.457396
_symmetry_space_group_name_H-M "P 42/N C M"
_symmetry_group_IT_number 138
_space_group.IT_coordinate_system_code '2'
_symmetry_cell_setting 'tetragonal'
loop_
_space_group_symop_operation_xyz
x,y,z
1/2-y,x,1/2+z
1/2-x,1/2-y,z
y,1/2-x,1/2+z
1/2+x,-y,1/2-z
-x,1/2+y,1/2-z
1/2+y,1/2+x,-z
-y,-x,-z
-x,-y,-z
1/2+y,-x,1/2-z
1/2+x,1/2+y,-z
-y,1/2+x,1/2-z
1/2-x,y,1/2+z
x,1/2-y,1/2+z
1/2-y,1/2-x,z
y,x,z
loop_
_atom_site_type_symbol
_atom_site_label
_atom_site_fract_x
_atom_site_fract_y
_atom_site_fract_z
Si Si1 0.027980 0.472021 0.181425
Si Si2 0.111781 0.388220 0.925911
Si Si3 0.685594 0.685594 0.332906
Si Si4 0.845246 0.053394 0.102168
Si Si5 0.778930 0.524676 0.290216
O O1 0.077645 0.528460 0.297260
O O2 0.088786 0.411215 0.107284
O O3 0.000000 0.500000 0.000000
O O4 0.041362 0.350298 0.830360
O O5 0.175038 0.324963 0.972611
O O6 0.750000 0.750000 0.308709
O O7 0.727547 0.603237 0.283102
O O8 0.774663 0.047196 0.230828
O O9 0.870328 0.129673 0.000000
O O10 0.815760 0.992206 0.965454
#
# Coordination Sequence:
#
# PCOD9571120 Si02
#       5
#     8   8   8  16  16
#     4  12  24  42  63  98 141 189 233 280 347 427
#     4  12  23  39  63  99 143 180 227 283 332 413
#     4  12  24  35  64  99 148 187 227 271 336 406
#     4  12  25  44  70  99 139 186 234 296 358 422
#     4  12  24  43  66 103 141 185 239 285 351 426
#
# _framework density 22.984192
#
# number of rings (size 3 to 8) (size 9 to 14) (size 15 to 20)
#    0.000    0.000    7.143    3.000    2.000    0.000 
#    0.000    0.000    0.000    2.571    0.000    0.000 
#    0.000    0.000    0.000    0.000    0.000    0.000 
#
# Total GULP energy -311762.703707 kJ/mol
# GULP energy per Si atom -5567.191138 kJ/mol
# Density = 2.293188 g / cm^3
# Si number density = 22.984192 Si / 1000 Ang^3
#
#
#
# Elastic Constant Matrix: (Units=GPa)
#
#
# Indices 1 2 3 4 5 6 
#
# 1 62.2266 61.2888 34.4906 0.0000 0.0000 0.0000
# 2 61.2888 62.2239 34.4889 0.0000 0.0000 0.0000
# 3 34.4906 34.4889 122.7837 0.0000 0.0000 0.0000
# 4 0.0000 0.0000 0.0000 51.5543 0.0000 0.0000
# 5 0.0000 0.0000 0.0000 0.0000 51.5550 0.0000
# 6 0.0000 0.0000 0.0000 0.0000 0.0000 29.8797
#
#
#
# Elastic Compliance Matrix: (Units=1/GPa)
#
#
# Indices 1 2 3 4 5 6 
#
# 1 0.538716 -0.529122 -0.002702 0.000000 0.000000 0.000000
# 2 -0.529122 0.538734 -0.002693 0.000000 0.000000 0.000000
# 3 -0.002702 -0.002693 0.009660 0.000000 0.000000 0.000000
# 4 0.000000 0.000000 0.000000 0.019397 0.000000 0.000000
# 5 0.000000 0.000000 0.000000 0.000000 0.019397 0.000000
# 6 0.000000 0.000000 0.000000 0.000000 0.000000 0.033468
#
#
# Mechanical properties :
#
#
# Convention : Reuss Voigt Hill
#
# Bulk Modulus (GPa) = 55.32317 56.41898 55.87108
# Shear Modulus (GPa) = 2.23771 34.39552 18.31661
#
# Velocity S-wave (km/s) = 0.98777 3.87264 2.82604
# Velocity P-wave (km/s) = 5.04215 6.67807 5.91692
#
# Compressibility (1/GPa) = 0.01807561
#
# Stress axis : x y z
#
# Youngs Moduli (GPa) = 1.85627 1.85620 103.52204
#
# Poissons Ratio (x) = 0.98216 0.27969
# Poissons Ratio (y) = 0.98219 0.27878
# Poissons Ratio (z) = 0.00502 0.00500
#
# Static dielectric constant tensor:
#      x y z
#    x 2.390430 0.000000 0.000000 
#    y 0.000000 2.390430 0.000000 
#    z 0.000000 0.000000 1.863280 
# 
# From -- ./inp_files/1217.got.cif
#   From: 2010.05.17/outbox.cif.g08.bks.cpg/sg138_1_cif.got.tgz:1217.got - 2010.05.20 13:08:53.
