data_PCOD9571297
_publ_section_title
;
Structure prediction by ZEFSAII (Michael W. Deem and Ramdas Pophale) SiO2 
 PCOD9571297
Probable space group: I 4/M M M
;
_chemical_formula_sum "Si O2"
_cell_formula_units_Z 128
_cell_length_a 30.103069
_cell_length_b 30.103069
_cell_length_c 8.917649
_cell_angle_alpha 90.000000
_cell_angle_beta 90.000000
_cell_angle_gamma 90.000000
_cell_volume 8081.126824
_symmetry_space_group_name_H-M "I 4/M M M"
_symmetry_group_IT_number 139
_symmetry_cell_setting 'tetragonal'
loop_
_space_group_symop_operation_xyz
x,y,z
-y,x,z
-x,-y,z
y,-x,z
x,-y,-z
-x,y,-z
y,x,-z
-y,-x,-z
-x,-y,-z
y,-x,-z
x,y,-z
-y,x,-z
-x,y,z
x,-y,z
-y,-x,z
y,x,z
1/2+x,1/2+y,1/2+z
1/2-y,1/2+x,1/2+z
1/2-x,1/2-y,1/2+z
1/2+y,1/2-x,1/2+z
1/2+x,1/2-y,1/2-z
1/2-x,1/2+y,1/2-z
1/2+y,1/2+x,1/2-z
1/2-y,1/2-x,1/2-z
1/2-x,1/2-y,1/2-z
1/2+y,1/2-x,1/2-z
1/2+x,1/2+y,1/2-z
1/2-y,1/2+x,1/2-z
1/2-x,1/2+y,1/2+z
1/2+x,1/2-y,1/2+z
1/2-y,1/2-x,1/2+z
1/2+y,1/2+x,1/2+z
loop_
_atom_site_type_symbol
_atom_site_label
_atom_site_fract_x
_atom_site_fract_y
_atom_site_fract_z
Si Si1 0.448205 0.306990 0.818399
Si Si2 0.379556 0.052445 0.320911
Si Si3 0.447569 0.447569 0.665410
Si Si4 0.113631 0.886370 0.325374
Si Si5 0.946265 0.712961 0.828613
O O1 0.500000 0.317099 0.772839
O O2 0.411387 0.342548 0.764148
O O3 0.435880 0.258379 0.757741
O O4 0.448170 0.307031 0.000000
O O5 0.379252 0.057075 0.500000
O O6 0.418451 0.081550 0.250000
O O7 0.332058 0.067540 0.254558
O O8 0.385348 0.000000 0.285700
O O9 0.500000 0.439933 0.671998
O O10 0.431772 0.431772 0.500000
O O11 0.423618 0.423618 0.800064
O O12 0.122304 0.877697 0.500000
O O13 0.000000 0.711473 0.832294
O O14 0.930205 0.713902 0.000000
#
# Coordination Sequence:
#
# PCOD9571297 Si02
#       5
#    32  32  16  16  32
#     4   9  17  29  44  63  89 119 152 193 240 286
#     4  10  20  33  50  73 102 134 164 193 224 259
#     4   9  18  30  40  52  76 111 147 183 226 279
#     4  10  19  29  43  64  87 113 148 191 238 287
#     4   9  17  30  48  68  90 119 157 197 234 273
#
# _framework density 15.839373999999999
#
# number of rings (size 3 to 8) (size 9 to 14) (size 15 to 20)
#    0.000    2.625    0.000    2.625    0.000    7.250 
#    0.000    4.375    0.000    0.000    0.000    0.875 
#    0.000    0.000    0.000    0.000    0.000    0.000 
#
# Total GULP energy -356301.977219 kJ/mol
# GULP energy per Si atom -5567.218394 kJ/mol
# Density = 1.580332 g / cm^3
# Si number density = 15.839374 Si / 1000 Ang^3
#
#
#
# Elastic Constant Matrix: (Units=GPa)
#
#
# Indices 1 2 3 4 5 6 
#
# 1 110.2880 43.3633 34.2244 0.0000 0.0000 0.0000
# 2 43.3633 110.3139 34.2151 0.0000 0.0000 0.0000
# 3 34.2244 34.2151 29.1786 0.0000 0.0000 0.0000
# 4 0.0000 0.0000 0.0000 19.7465 0.0000 0.0000
# 5 0.0000 0.0000 0.0000 0.0000 19.7464 0.0000
# 6 0.0000 0.0000 0.0000 0.0000 0.0000 14.0562
#
#
#
# Elastic Compliance Matrix: (Units=1/GPa)
#
#
# Indices 1 2 3 4 5 6 
#
# 1 0.014286 -0.000658 -0.015986 0.000000 0.000000 0.000000
# 2 -0.000658 0.014277 -0.015970 0.000000 0.000000 0.000000
# 3 -0.015986 -0.015970 0.071748 0.000000 0.000000 0.000000
# 4 0.000000 0.000000 0.000000 0.050642 0.000000 0.000000
# 5 0.000000 0.000000 0.000000 0.000000 0.050642 0.000000
# 6 0.000000 0.000000 0.000000 0.000000 0.000000 0.071143
#
#
# Mechanical properties :
#
#
# Convention : Reuss Voigt Hill
#
# Bulk Modulus (GPa) = 28.50223 52.59847 40.55035
# Shear Modulus (GPa) = 14.29965 19.90832 17.10399
#
# Velocity S-wave (km/s) = 3.00791 3.54911 3.28966
# Velocity P-wave (km/s) = 5.48607 7.07633 6.33133
#
# Compressibility (1/GPa) = 0.03508497
#
# Stress axis : x y z
#
# Youngs Moduli (GPa) = 69.99645 70.04408 13.93771
#
# Poissons Ratio (x) = 0.04607 0.22280
# Poissons Ratio (y) = 0.04604 0.22258
# Poissons Ratio (z) = 1.11894 1.11857
#
# Static dielectric constant tensor:
#      x y z
#    x 1.523490 0.000000 0.000000 
#    y 0.000000 1.523490 0.000000 
#    z 0.000000 0.000000 1.555070 
# 
# From -- ./inp_files/1842.got.cif
#   From: 2010.05.17/outbox.cif.g08.bks.cpg/sg139_1_cif.got.tgz:1842.got - 2010.05.20 13:14:44.
