data_PCOD9571062
_publ_section_title
;
Structure prediction by ZEFSAII (Michael W. Deem and Ramdas Pophale) SiO2 
 PCOD9571062
Probable space group: P 42/N C M
;
_chemical_formula_sum "Si O2"
_cell_formula_units_Z 96
_cell_length_a 21.025329
_cell_length_b 21.025329
_cell_length_c 12.020373
_cell_angle_alpha 90.000000
_cell_angle_beta 90.000000
_cell_angle_gamma 90.000000
_cell_volume 5313.779694
_symmetry_space_group_name_H-M "P 42/N C M"
_symmetry_group_IT_number 138
_space_group.IT_coordinate_system_code '2'
_symmetry_cell_setting 'tetragonal'
loop_
_space_group_symop_operation_xyz
x,y,z
1/2-y,x,1/2+z
1/2-x,1/2-y,z
y,1/2-x,1/2+z
1/2+x,-y,1/2-z
-x,1/2+y,1/2-z
1/2+y,1/2+x,-z
-y,-x,-z
-x,-y,-z
1/2+y,-x,1/2-z
1/2+x,1/2+y,-z
-y,1/2+x,1/2-z
1/2-x,y,1/2+z
x,1/2-y,1/2+z
1/2-y,1/2-x,z
y,x,z
loop_
_atom_site_type_symbol
_atom_site_label
_atom_site_fract_x
_atom_site_fract_y
_atom_site_fract_z
Si Si1 0.147851 0.751427 0.035244
Si Si2 0.897850 0.504013 0.521449
Si Si3 0.597728 0.157919 0.313954
Si Si4 0.794872 0.032866 0.390049
Si Si5 0.996402 0.396491 0.948676
Si Si6 0.524327 0.336827 0.203801
O O1 0.129830 0.773376 0.159791
O O2 0.194657 0.694657 0.000000
O O3 0.185095 0.814906 0.000000
O O4 0.082656 0.737299 0.974180
O O5 0.931490 0.568511 0.564751
O O6 0.853680 0.463281 0.605220
O O7 0.867725 0.513829 0.399795
O O8 0.954434 0.454434 0.500000
O O9 0.572125 0.159261 0.190277
O O10 0.645135 0.098135 0.322904
O O11 0.838984 0.988931 0.465763
O O12 0.737886 0.009746 0.310696
O O13 0.987062 0.366483 0.825586
O O14 0.052745 0.447256 0.943192
O O15 0.935494 0.435494 0.000000
#
# Coordination Sequence:
#
# PCOD9571062 Si02
#       6
#    16  16  16  16  16  16
#     4  11  22  35  49  74 115 160 209 244 280 338
#     4   9  18  34  57  79 105 141 186 243 302 352
#     4  11  21  36  49  82 112 154 198 252 290 344
#     4  12  23  36  58  79 117 157 199 250 303 348
#     4  11  24  42  61  86 120 164 211 255 309 369
#     4  11  21  38  58  80 116 149 201 245 297 352
#
# _framework density 18.066236
#
# number of rings (size 3 to 8) (size 9 to 14) (size 15 to 20)
#    0.000    1.167    5.000    2.500    2.333    1.333 
#    0.000    1.667    0.000    0.000    0.000    0.000 
#    0.000    5.333    0.000    0.000    0.000    0.000 
#
# Total GULP energy -534470.507966 kJ/mol
# GULP energy per Si atom -5567.401125 kJ/mol
# Density = 1.802512 g / cm^3
# Si number density = 18.066236 Si / 1000 Ang^3
#
#
#
# Elastic Constant Matrix: (Units=GPa)
#
#
# Indices 1 2 3 4 5 6 
#
# 1 57.7307 38.4286 34.0390 0.0000 0.0000 0.0000
# 2 38.4286 57.7300 34.0392 0.0000 0.0000 0.0000
# 3 34.0390 34.0392 90.1542 0.0000 0.0000 0.0000
# 4 0.0000 0.0000 0.0000 17.7880 0.0000 0.0000
# 5 0.0000 0.0000 0.0000 0.0000 17.7882 0.0000
# 6 0.0000 0.0000 0.0000 0.0000 0.0000 22.6657
#
#
#
# Elastic Compliance Matrix: (Units=1/GPa)
#
#
# Indices 1 2 3 4 5 6 
#
# 1 0.033001 -0.018808 -0.005359 0.000000 0.000000 0.000000
# 2 -0.018808 0.033001 -0.005359 0.000000 0.000000 0.000000
# 3 -0.005359 -0.005359 0.015139 0.000000 0.000000 0.000000
# 4 0.000000 0.000000 0.000000 0.056218 0.000000 0.000000
# 5 0.000000 0.000000 0.000000 0.000000 0.056217 0.000000
# 6 0.000000 0.000000 0.000000 0.000000 0.000000 0.044120
#
#
# Mechanical properties :
#
#
# Convention : Reuss Voigt Hill
#
# Bulk Modulus (GPa) = 45.26956 46.51429 45.89192
# Shear Modulus (GPa) = 16.44141 18.25557 17.34849
#
# Velocity S-wave (km/s) = 3.02000 3.18225 3.10219
# Velocity P-wave (km/s) = 6.10512 6.26935 6.18778
#
# Compressibility (1/GPa) = 0.02208990
#
# Stress axis : x y z
#
# Youngs Moduli (GPa) = 30.30223 30.30166 66.05541
#
# Poissons Ratio (x) = 0.56991 0.35398
# Poissons Ratio (y) = 0.56992 0.35400
# Poissons Ratio (z) = 0.16238 0.16239
#
# Static dielectric constant tensor:
#      x y z
#    x 1.670550 0.000000 0.000000 
#    y 0.000000 1.670550 0.000000 
#    z 0.000000 0.000000 1.680860 
# 
# From -- ./inp_files/3143.got.cif
#   From: 2010.05.17/outbox.cif.g08.bks.cpg/sg138_2_cif.got.tgz:3143.got - 2010.05.20 13:08:53.
