data_PCOD9571583
_publ_section_title
;
Structure prediction by ZEFSAII (Michael W. Deem and Ramdas Pophale) SiO2 
 PCOD9571583
Probable space group: I 4/M M M
;
_chemical_formula_sum "Si O2"
_cell_formula_units_Z 160
_cell_length_a 33.970451
_cell_length_b 33.970451
_cell_length_c 7.791700
_cell_angle_alpha 90.000000
_cell_angle_beta 90.000000
_cell_angle_gamma 90.000000
_cell_volume 8991.555891
_symmetry_space_group_name_H-M "I 4/M M M"
_symmetry_group_IT_number 139
_symmetry_cell_setting 'tetragonal'
loop_
_space_group_symop_operation_xyz
x,y,z
-y,x,z
-x,-y,z
y,-x,z
x,-y,-z
-x,y,-z
y,x,-z
-y,-x,-z
-x,-y,-z
y,-x,-z
x,y,-z
-y,x,-z
-x,y,z
x,-y,z
-y,-x,z
y,x,z
1/2+x,1/2+y,1/2+z
1/2-y,1/2+x,1/2+z
1/2-x,1/2-y,1/2+z
1/2+y,1/2-x,1/2+z
1/2+x,1/2-y,1/2-z
1/2-x,1/2+y,1/2-z
1/2+y,1/2+x,1/2-z
1/2-y,1/2-x,1/2-z
1/2-x,1/2-y,1/2-z
1/2+y,1/2-x,1/2-z
1/2+x,1/2+y,1/2-z
1/2-y,1/2+x,1/2-z
1/2-x,1/2+y,1/2+z
1/2+x,1/2-y,1/2+z
1/2-y,1/2-x,1/2+z
1/2+y,1/2+x,1/2+z
loop_
_atom_site_type_symbol
_atom_site_label
_atom_site_fract_x
_atom_site_fract_y
_atom_site_fract_z
Si Si1 0.806090 0.370112 0.203421
Si Si2 0.562513 0.500000 0.290331
Si Si3 0.500000 0.349377 0.289626
Si Si4 0.296328 0.428014 0.707971
Si Si5 0.841960 0.779213 0.703502
Si Si6 0.290083 0.043933 0.794315
O O1 0.841819 0.341819 0.250000
O O2 0.764781 0.351590 0.275087
O O3 0.812943 0.415611 0.255146
O O4 0.801476 0.370584 0.000000
O O5 0.537975 0.537975 0.236937
O O6 0.563176 0.500000 0.500000
O O7 0.606408 0.500000 0.228578
O O8 0.500000 0.348479 0.500000
O O9 0.460177 0.327743 0.236021
O O10 0.295976 0.426471 0.500000
O O11 0.301408 0.383588 0.771554
O O12 0.254047 0.445139 0.765509
O O13 0.834868 0.774887 0.500000
O O14 0.805544 0.805544 0.772934
O O15 0.301656 0.000000 0.730633
O O16 0.288894 0.041157 0.000000
#
# Coordination Sequence:
#
# PCOD9571583 Si02
#       6
#    32  16  16  32  32  32
#     4  10  20  33  49  70  96 127 163 203 240 279
#     4   8  14  23  32  45  71 106 138 170 218 279
#     4   9  15  24  40  61  85 108 138 184 235 283
#     4   9  16  27  44  67  90 112 144 189 236 283
#     4   9  19  34  47  62  90 126 160 197 240 284
#     4   9  16  29  49  70  95 126 153 185 234 284
#
# _framework density 17.794474000000001
#
# number of rings (size 3 to 8) (size 9 to 14) (size 15 to 20)
#    0.000    2.900    1.000    0.900    0.000    2.800 
#    0.000    2.500    0.000    0.000    0.000    0.000 
#    0.000    0.400    0.000    8.600    0.000    5.400 
#
# Total GULP energy -445479.686137 kJ/mol
# GULP energy per Si atom -5568.496077 kJ/mol
# Density = 1.775397 g / cm^3
# Si number density = 17.794474 Si / 1000 Ang^3
#
#
#
# Elastic Constant Matrix: (Units=GPa)
#
#
# Indices 1 2 3 4 5 6 
#
# 1 109.1853 85.6150 3.6289 0.0000 0.0000 0.0000
# 2 85.6150 109.1853 3.6289 0.0000 0.0000 0.0000
# 3 3.6289 3.6289 23.5445 0.0000 0.0000 0.0000
# 4 0.0000 0.0000 0.0000 13.6502 0.0000 0.0000
# 5 0.0000 0.0000 0.0000 0.0000 13.6502 0.0000
# 6 0.0000 0.0000 0.0000 0.0000 0.0000 605.1852
#
#
#
# Elastic Compliance Matrix: (Units=1/GPa)
#
#
# Indices 1 2 3 4 5 6 
#
# 1 0.023795 -0.018632 -0.000796 0.000000 0.000000 0.000000
# 2 -0.018632 0.023795 -0.000796 0.000000 0.000000 0.000000
# 3 -0.000796 -0.000796 0.042718 0.000000 0.000000 0.000000
# 4 0.000000 0.000000 0.000000 0.073259 0.000000 0.000000
# 5 0.000000 0.000000 0.000000 0.000000 0.073259 0.000000
# 6 0.000000 0.000000 0.000000 0.000000 0.000000 0.001652
#
#
# Mechanical properties :
#
#
# Convention : Reuss Voigt Hill
#
# Bulk Modulus (GPa) = 20.05567 47.51785 33.78676
# Shear Modulus (GPa) = 16.91793 136.43327 76.67560
#
# Velocity S-wave (km/s) = 3.08675 8.76574 6.57139
# Velocity P-wave (km/s) = 4.89890 11.36717 8.75248
#
# Compressibility (1/GPa) = 0.04986122
#
# Stress axis : x y z
#
# Youngs Moduli (GPa) = 42.02618 42.02618 23.40925
#
# Poissons Ratio (x) = 0.78301 0.01863
# Poissons Ratio (y) = 0.78301 0.01863
# Poissons Ratio (z) = 0.03344 0.03344
#
# Static dielectric constant tensor:
#      x y z
#    x 1.438400 0.000000 0.000000 
#    y 0.000000 1.438400 0.000000 
#    z 0.000000 0.000000 1.653180 
# 
# From -- ./inp_files/2177.got.cif
#   From: 2010.05.17/outbox.cif.g08.bks.cpg/sg139_2_cif.got.tgz:2177.got - 2010.05.20 13:14:44.
