data_PCOD9571243
_publ_section_title
;
Structure prediction by ZEFSAII (Michael W. Deem and Ramdas Pophale) SiO2 
 PCOD9571243
Probable space group: I 4/M M M
;
_chemical_formula_sum "Si O2"
_cell_formula_units_Z 208
_cell_length_a 21.339408
_cell_length_b 21.339408
_cell_length_c 31.652283
_cell_angle_alpha 90.000000
_cell_angle_beta 90.000000
_cell_angle_gamma 90.000000
_cell_volume 14413.510675
_symmetry_space_group_name_H-M "I 4/M M M"
_symmetry_group_IT_number 139
_symmetry_cell_setting 'tetragonal'
loop_
_space_group_symop_operation_xyz
x,y,z
-y,x,z
-x,-y,z
y,-x,z
x,-y,-z
-x,y,-z
y,x,-z
-y,-x,-z
-x,-y,-z
y,-x,-z
x,y,-z
-y,x,-z
-x,y,z
x,-y,z
-y,-x,z
y,x,z
1/2+x,1/2+y,1/2+z
1/2-y,1/2+x,1/2+z
1/2-x,1/2-y,1/2+z
1/2+y,1/2-x,1/2+z
1/2+x,1/2-y,1/2-z
1/2-x,1/2+y,1/2-z
1/2+y,1/2+x,1/2-z
1/2-y,1/2-x,1/2-z
1/2-x,1/2-y,1/2-z
1/2+y,1/2-x,1/2-z
1/2+x,1/2+y,1/2-z
1/2-y,1/2+x,1/2-z
1/2-x,1/2+y,1/2+z
1/2+x,1/2-y,1/2+z
1/2-y,1/2-x,1/2+z
1/2+y,1/2+x,1/2+z
loop_
_atom_site_type_symbol
_atom_site_label
_atom_site_fract_x
_atom_site_fract_y
_atom_site_fract_z
Si Si1 0.574707 0.799328 0.451659
Si Si2 0.073409 0.573409 0.250000
Si Si3 0.751937 0.651158 0.772276
Si Si4 0.675002 0.426874 0.296114
Si Si5 0.123122 0.357204 0.329034
Si Si6 0.570058 0.926596 0.092782
Si Si7 0.759282 0.136574 0.128606
O O1 0.593403 0.788334 0.500000
O O2 0.500000 0.788151 0.447846
O O3 0.584709 0.872370 0.438950
O O4 0.610641 0.757190 0.417571
O O5 0.083359 0.500000 0.240959
O O6 0.112932 0.594437 0.290594
O O7 0.697149 0.697149 0.788748
O O8 0.802795 0.697206 0.750000
O O9 0.721520 0.606681 0.737154
O O10 0.789292 0.613282 0.807981
O O11 0.670878 0.500000 0.288487
O O12 0.609297 0.390704 0.292082
O O13 0.701762 0.411952 0.342715
O O14 0.080220 0.381622 0.367107
O O15 0.193277 0.355689 0.347409
O O16 0.500000 0.918555 0.075212
O O17 0.575547 0.000000 0.106510
O O18 0.799906 0.200095 0.127773
#
# Coordination Sequence:
#
# PCOD9571243 Si02
#       7
#    32  16  32  32  32  32  32
#     4   9  18  31  47  66  85 107 136 170 209 255
#     4  11  22  30  37  56  88 122 153 182 212 243
#     4  10  18  31  45  62  86 112 145 182 218 258
#     4  10  20  32  47  65  85 113 146 180 219 260
#     4  11  18  28  42  60  83 114 144 181 212 251
#     4   9  18  30  42  59  86 117 147 176 205 242
#     4  10  19  31  47  65  84 107 136 173 220 264
#
# _framework density 14.430904999999999
#
# number of rings (size 3 to 8) (size 9 to 14) (size 15 to 20)
#    0.000    2.077    2.308    1.846    0.000    6.308 
#    0.000    1.538    0.000    0.000    0.000    0.000 
#    0.000    0.000    0.000   14.308    0.000    0.000 
#
# Total GULP energy -579633.582376 kJ/mol
# GULP energy per Si atom -5573.399831 kJ/mol
# Density = 1.439806 g / cm^3
# Si number density = 14.430905 Si / 1000 Ang^3
#
#
#
# Elastic Constant Matrix: (Units=GPa)
#
#
# Indices 1 2 3 4 5 6 
#
# 1 81.7197 39.9819 33.6659 0.0000 0.0000 0.0000
# 2 39.9819 81.7193 33.6656 0.0000 0.0000 0.0000
# 3 33.6659 33.6656 84.1819 0.0000 0.0000 0.0000
# 4 0.0000 0.0000 0.0000 13.5006 0.0000 0.0000
# 5 0.0000 0.0000 0.0000 0.0000 13.5006 0.0000
# 6 0.0000 0.0000 0.0000 0.0000 0.0000 20.4893
#
#
#
# Elastic Compliance Matrix: (Units=1/GPa)
#
#
# Indices 1 2 3 4 5 6 
#
# 1 0.017255 -0.006704 -0.004220 0.000000 0.000000 0.000000
# 2 -0.006704 0.017255 -0.004220 0.000000 0.000000 0.000000
# 3 -0.004220 -0.004220 0.015254 0.000000 0.000000 0.000000
# 4 0.000000 0.000000 0.000000 0.074071 0.000000 0.000000
# 5 0.000000 0.000000 0.000000 0.000000 0.074071 0.000000
# 6 0.000000 0.000000 0.000000 0.000000 0.000000 0.048806
#
#
# Mechanical properties :
#
#
# Convention : Reuss Voigt Hill
#
# Bulk Modulus (GPa) = 51.33964 51.36087 51.35025
# Shear Modulus (GPa) = 17.63722 18.85193 18.24457
#
# Velocity S-wave (km/s) = 3.49977 3.61828 3.55952
# Velocity P-wave (km/s) = 7.21003 7.28863 7.24944
#
# Compressibility (1/GPa) = 0.01947813
#
# Stress axis : x y z
#
# Youngs Moduli (GPa) = 57.95330 57.95312 65.55623
#
# Poissons Ratio (x) = 0.38851 0.27663
# Poissons Ratio (y) = 0.38851 0.27662
# Poissons Ratio (z) = 0.24455 0.24454
#
# Static dielectric constant tensor:
#      x y z
#    x 1.475150 0.000000 0.000000 
#    y 0.000000 1.475150 0.000000 
#    z 0.000000 0.000000 1.477010 
# 
# From -- ./inp_files/14517.got.cif
#   From: 2010.05.17/outbox.cif.g08.bks.cpg/sg139_8_cif.got.tgz:14517.got - 2010.05.20 13:14:44.
