data_PCOD9571943
_publ_section_title
;
Structure prediction by ZEFSAII (Michael W. Deem and Ramdas Pophale) SiO2 
 PCOD9571943
Probable space group: I 4/M M M
;
_chemical_formula_sum "Si O2"
_cell_formula_units_Z 128
_cell_length_a 21.248610
_cell_length_b 21.248610
_cell_length_c 14.139129
_cell_angle_alpha 90.000000
_cell_angle_beta 90.000000
_cell_angle_gamma 90.000000
_cell_volume 6383.865197
_symmetry_space_group_name_H-M "I 4/M M M"
_symmetry_group_IT_number 139
_symmetry_cell_setting 'tetragonal'
loop_
_space_group_symop_operation_xyz
x,y,z
-y,x,z
-x,-y,z
y,-x,z
x,-y,-z
-x,y,-z
y,x,-z
-y,-x,-z
-x,-y,-z
y,-x,-z
x,y,-z
-y,x,-z
-x,y,z
x,-y,z
-y,-x,z
y,x,z
1/2+x,1/2+y,1/2+z
1/2-y,1/2+x,1/2+z
1/2-x,1/2-y,1/2+z
1/2+y,1/2-x,1/2+z
1/2+x,1/2-y,1/2-z
1/2-x,1/2+y,1/2-z
1/2+y,1/2+x,1/2-z
1/2-y,1/2-x,1/2-z
1/2-x,1/2-y,1/2-z
1/2+y,1/2-x,1/2-z
1/2+x,1/2+y,1/2-z
1/2-y,1/2+x,1/2-z
1/2-x,1/2+y,1/2+z
1/2+x,1/2-y,1/2+z
1/2-y,1/2-x,1/2+z
1/2+y,1/2+x,1/2+z
loop_
_atom_site_type_symbol
_atom_site_label
_atom_site_fract_x
_atom_site_fract_y
_atom_site_fract_z
Si Si1 0.893273 0.393273 0.750000
Si Si2 0.424854 0.679107 0.218783
Si Si3 0.000000 0.424094 0.893205
Si Si4 0.208180 0.624905 0.890249
Si Si5 0.742323 0.636039 0.395900
O O1 0.941504 0.400708 0.834614
O O2 0.829773 0.408708 0.806508
O O3 0.500000 0.673341 0.203210
O O4 0.387195 0.612806 0.226013
O O5 0.389581 0.720096 0.137092
O O6 0.410963 0.718782 0.315137
O O7 0.000000 0.500000 0.891841
O O8 0.000000 0.402127 0.000000
O O9 0.178496 0.695183 0.877434
O O10 0.196621 0.607320 0.000000
O O11 0.750738 0.606685 0.500000
O O12 0.686929 0.686929 0.400380
#
# Coordination Sequence:
#
# PCOD9571943 Si02
#       5
#    16  32  16  32  32
#     4  12  21  40  59  92 126 164 212 264 320 382
#     4  11  24  42  63  91 128 171 223 278 328 387
#     4  11  24  42  60  80 120 178 223 258 307 379
#     4  11  23  38  63  96 128 162 201 257 328 393
#     4   9  18  37  65  94 124 158 196 249 322 395
#
# _framework density 20.050549
#
# number of rings (size 3 to 8) (size 9 to 14) (size 15 to 20)
#    0.000    1.375    3.750    1.500    1.750    4.750 
#    0.000    0.000    0.000    0.000    0.000    5.250 
#    0.000    0.000    0.000    0.000    0.000    0.000 
#
# Total GULP energy -356495.624187 kJ/mol
# GULP energy per Si atom -5570.244128 kJ/mol
# Density = 2.000491 g / cm^3
# Si number density = 20.050549 Si / 1000 Ang^3
#
#
#
# Elastic Constant Matrix: (Units=GPa)
#
#
# Indices 1 2 3 4 5 6 
#
# 1 85.5454 42.2051 39.3947 0.0000 0.0000 0.0000
# 2 42.2051 85.5454 39.3947 0.0000 0.0000 0.0000
# 3 39.3947 39.3947 152.7669 0.0000 0.0000 0.0000
# 4 0.0000 0.0000 0.0000 30.5325 0.0000 0.0000
# 5 0.0000 0.0000 0.0000 0.0000 30.5325 0.0000
# 6 0.0000 0.0000 0.0000 0.0000 0.0000 20.2569
#
#
#
# Elastic Compliance Matrix: (Units=1/GPa)
#
#
# Indices 1 2 3 4 5 6 
#
# 1 0.016191 -0.006883 -0.002400 0.000000 0.000000 0.000000
# 2 -0.006883 0.016191 -0.002400 0.000000 0.000000 0.000000
# 3 -0.002400 -0.002400 0.007784 0.000000 0.000000 0.000000
# 4 0.000000 0.000000 0.000000 0.032752 0.000000 0.000000
# 5 0.000000 0.000000 0.000000 0.000000 0.032752 0.000000
# 6 0.000000 0.000000 0.000000 0.000000 0.000000 0.049366
#
#
# Mechanical properties :
#
#
# Convention : Reuss Voigt Hill
#
# Bulk Modulus (GPa) = 59.52789 62.87187 61.19988
# Shear Modulus (GPa) = 27.17374 29.78860 28.48117
#
# Velocity S-wave (km/s) = 3.68538 3.85863 3.77300
# Velocity P-wave (km/s) = 6.91829 7.16078 7.04058
#
# Compressibility (1/GPa) = 0.01679885
#
# Stress axis : x y z
#
# Youngs Moduli (GPa) = 61.76392 61.76392 128.47039
#
# Poissons Ratio (x) = 0.42509 0.30837
# Poissons Ratio (y) = 0.42509 0.30837
# Poissons Ratio (z) = 0.14825 0.14825
#
# Static dielectric constant tensor:
#      x y z
#    x 1.810770 0.000000 0.000000 
#    y 0.000000 1.810770 0.000000 
#    z 0.000000 0.000000 1.747810 
# 
# From -- ./inp_files/5458.got.cif
#   From: 2010.05.17/outbox.cif.g08.bks.cpg/sg139_3_cif.got.tgz:5458.got - 2010.05.20 13:14:44.
