data_PCOD9571256
_publ_section_title
;
Structure prediction by ZEFSAII (Michael W. Deem and Ramdas Pophale) SiO2 
 PCOD9571256
Probable space group: I 4/M M M
;
_chemical_formula_sum "Si O2"
_cell_formula_units_Z 96
_cell_length_a 22.519913
_cell_length_b 22.519913
_cell_length_c 10.489092
_cell_angle_alpha 90.000000
_cell_angle_beta 90.000000
_cell_angle_gamma 90.000000
_cell_volume 5319.506102
_symmetry_space_group_name_H-M "I 4/M M M"
_symmetry_group_IT_number 139
_symmetry_cell_setting 'tetragonal'
loop_
_space_group_symop_operation_xyz
x,y,z
-y,x,z
-x,-y,z
y,-x,z
x,-y,-z
-x,y,-z
y,x,-z
-y,-x,-z
-x,-y,-z
y,-x,-z
x,y,-z
-y,x,-z
-x,y,z
x,-y,z
-y,-x,z
y,x,z
1/2+x,1/2+y,1/2+z
1/2-y,1/2+x,1/2+z
1/2-x,1/2-y,1/2+z
1/2+y,1/2-x,1/2+z
1/2+x,1/2-y,1/2-z
1/2-x,1/2+y,1/2-z
1/2+y,1/2+x,1/2-z
1/2-y,1/2-x,1/2-z
1/2-x,1/2-y,1/2-z
1/2+y,1/2-x,1/2-z
1/2+x,1/2+y,1/2-z
1/2-y,1/2+x,1/2-z
1/2-x,1/2+y,1/2+z
1/2+x,1/2-y,1/2+z
1/2-y,1/2-x,1/2+z
1/2+y,1/2+x,1/2+z
loop_
_atom_site_type_symbol
_atom_site_label
_atom_site_fract_x
_atom_site_fract_y
_atom_site_fract_z
Si Si1 0.626813 0.220620 0.242348
Si Si2 0.569625 0.172359 0.500000
Si Si3 0.431165 0.338019 0.153344
Si Si4 0.570524 0.846951 0.000000
O O1 0.693740 0.193740 0.250000
O O2 0.596867 0.202146 0.374669
O O3 0.611741 0.288837 0.215366
O O4 0.594334 0.186840 0.125309
O O5 0.500000 0.178410 0.500000
O O6 0.590097 0.103737 0.500000
O O7 0.500000 0.332137 0.193922
O O8 0.402294 0.402294 0.178450
O O9 0.429906 0.328755 0.000000
O O10 0.500000 0.849481 0.000000
#
# Coordination Sequence:
#
# PCOD9571256 Si02
#       4
#    32  16  32  16
#     4  10  20  34  54  78 106 142 183 225 270 327
#     4  10  20  31  47  75 106 138 180 230 275 320
#     4  10  20  35  58  84 111 146 185 228 278 331
#     4  10  18  31  51  71 100 144 186 226 275 328
#
# _framework density 18.046790000000001
#
# number of rings (size 3 to 8) (size 9 to 14) (size 15 to 20)
#    0.000    2.000    1.667    3.000    0.000    1.333 
#    0.000    2.500    0.000    6.000    0.000    0.000 
#    0.000    4.000    0.000    0.000    0.000    0.000 
#
# Total GULP energy -267569.220581 kJ/mol
# GULP energy per Si atom -5574.358762 kJ/mol
# Density = 1.800571 g / cm^3
# Si number density = 18.046790 Si / 1000 Ang^3
#
#
#
# Elastic Constant Matrix: (Units=GPa)
#
#
# Indices 1 2 3 4 5 6 
#
# 1 77.8277 74.5781 18.3759 0.0000 0.0000 0.0000
# 2 74.5781 77.8277 18.3759 0.0000 0.0000 0.0000
# 3 18.3759 18.3759 103.0771 0.0000 0.0000 0.0000
# 4 0.0000 0.0000 0.0000 -108.9696 0.0000 0.0000
# 5 0.0000 0.0000 0.0000 0.0000 -108.9696 0.0000
# 6 0.0000 0.0000 0.0000 0.0000 0.0000 16.6739
#
#
#
# Elastic Compliance Matrix: (Units=1/GPa)
#
#
# Indices 1 2 3 4 5 6 
#
# 1 0.157293 -0.150437 -0.001222 0.000000 0.000000 0.000000
# 2 -0.150437 0.157293 -0.001222 0.000000 0.000000 0.000000
# 3 -0.001222 -0.001222 0.010137 0.000000 0.000000 0.000000
# 4 0.000000 0.000000 0.000000 -0.009177 0.000000 0.000000
# 5 0.000000 0.000000 0.000000 0.000000 -0.009177 0.000000
# 6 0.000000 0.000000 0.000000 0.000000 0.000000 0.059974
#
#
# Mechanical properties :
#
#
# Convention : Reuss Voigt Hill
#
# Bulk Modulus (GPa) = 52.74114 53.48803 53.11459
# Shear Modulus (GPa) = 7.37001 -30.42621 -11.52810
#
# Velocity S-wave (km/s) = 2.02304 -4.11050 -2.53017
# Velocity P-wave (km/s) = 5.89449 2.67854 4.57819
#
# Compressibility (1/GPa) = 0.01896053
#
# Stress axis : x y z
#
# Youngs Moduli (GPa) = 6.35757 6.35757 98.64583
#
# Poissons Ratio (x) = 0.95641 0.12057
# Poissons Ratio (y) = 0.95641 0.12057
# Poissons Ratio (z) = 0.00777 0.00777
#
# Static dielectric constant tensor:
#      x y z
#    x 1.622780 0.000000 0.000000 
#    y 0.000000 1.622780 0.000000 
#    z 0.000000 0.000000 1.606990 
# 
# From -- ./inp_files/1159.got.cif
#   From: 2010.05.17/outbox.cif.g08.bks.cpg/sg139_1_cif.got.tgz:1159.got - 2010.05.20 13:14:44.
