data_PCOD9571787
_publ_section_title
;
Structure prediction by ZEFSAII (Michael W. Deem and Ramdas Pophale) SiO2 
 PCOD9571787
Probable space group: I 4/M M M
;
_chemical_formula_sum "Si O2"
_cell_formula_units_Z 192
_cell_length_a 20.322363
_cell_length_b 20.322363
_cell_length_c 25.656791
_cell_angle_alpha 90.000000
_cell_angle_beta 90.000000
_cell_angle_gamma 90.000000
_cell_volume 10596.214605
_symmetry_space_group_name_H-M "I 4/M M M"
_symmetry_group_IT_number 139
_symmetry_cell_setting 'tetragonal'
loop_
_space_group_symop_operation_xyz
x,y,z
-y,x,z
-x,-y,z
y,-x,z
x,-y,-z
-x,y,-z
y,x,-z
-y,-x,-z
-x,-y,-z
y,-x,-z
x,y,-z
-y,x,-z
-x,y,z
x,-y,z
-y,-x,z
y,x,z
1/2+x,1/2+y,1/2+z
1/2-y,1/2+x,1/2+z
1/2-x,1/2-y,1/2+z
1/2+y,1/2-x,1/2+z
1/2+x,1/2-y,1/2-z
1/2-x,1/2+y,1/2-z
1/2+y,1/2+x,1/2-z
1/2-y,1/2-x,1/2-z
1/2-x,1/2-y,1/2-z
1/2+y,1/2-x,1/2-z
1/2+x,1/2+y,1/2-z
1/2-y,1/2+x,1/2-z
1/2-x,1/2+y,1/2+z
1/2+x,1/2-y,1/2+z
1/2-y,1/2-x,1/2+z
1/2+y,1/2+x,1/2+z
loop_
_atom_site_type_symbol
_atom_site_label
_atom_site_fract_x
_atom_site_fract_y
_atom_site_fract_z
Si Si1 0.075703 0.332258 0.593827
Si Si2 0.423678 0.830737 0.783625
Si Si3 0.191745 0.423168 0.559177
Si Si4 0.683370 0.576114 0.627806
Si Si5 0.424136 0.683067 0.246637
Si Si6 0.817664 0.075284 0.563170
O O1 0.080103 0.346701 0.655349
O O2 0.128193 0.378014 0.565811
O O3 0.090189 0.255243 0.584017
O O4 0.000000 0.343156 0.576774
O O5 0.500000 0.838257 0.766636
O O6 0.376479 0.876479 0.750000
O O7 0.406640 0.753930 0.776605
O O8 0.216902 0.417222 0.500000
O O9 0.174939 0.500000 0.568229
O O10 0.248883 0.404661 0.599696
O O11 0.669514 0.500000 0.613907
O O12 0.624743 0.624743 0.612528
O O13 0.690025 0.579110 0.690449
O O14 0.500000 0.667814 0.232768
O O15 0.374002 0.625998 0.230797
O O16 0.814788 0.077177 0.500000
O O17 0.872178 0.127823 0.580351
O O18 0.834162 0.000000 0.578431
#
# Coordination Sequence:
#
# PCOD9571787 Si02
#       6
#    32  32  32  32  32  32
#     4  10  21  36  54  76 102 133 169 209 253 302
#     4  10  21  36  54  76 102 133 169 209 253 302
#     4  10  21  36  54  76 102 133 169 209 253 302
#     4   9  18  33  53  77 105 136 170 209 252 298
#     4   9  18  33  53  77 105 136 170 209 252 298
#     4   9  18  33  53  77 105 136 170 209 252 298
#
# _framework density 18.119679000000001
#
# number of rings (size 3 to 8) (size 9 to 14) (size 15 to 20)
#    0.000    2.500    0.000    1.500    0.000    6.000 
#    0.000    5.000    0.000    0.000    0.000    7.000 
#    0.000    0.000    0.000    0.000    0.000    0.000 
#
# Total GULP energy -535703.773379 kJ/mol
# GULP energy per Si atom -5580.247639 kJ/mol
# Density = 1.807844 g / cm^3
# Si number density = 18.119679 Si / 1000 Ang^3
#
#
#
# Elastic Constant Matrix: (Units=GPa)
#
#
# Indices 1 2 3 4 5 6 
#
# 1 49.2176 36.9109 8.0023 0.0000 0.0000 0.0000
# 2 36.9109 49.2176 8.0023 0.0000 0.0000 0.0000
# 3 8.0023 8.0023 17.9448 0.0000 0.0000 0.0000
# 4 0.0000 0.0000 0.0000 20.5181 0.0000 0.0000
# 5 0.0000 0.0000 0.0000 0.0000 20.5181 0.0000
# 6 0.0000 0.0000 0.0000 0.0000 0.0000 42.4782
#
#
#
# Elastic Compliance Matrix: (Units=1/GPa)
#
#
# Indices 1 2 3 4 5 6 
#
# 1 0.046958 -0.034298 -0.005645 0.000000 0.000000 0.000000
# 2 -0.034298 0.046958 -0.005645 0.000000 0.000000 0.000000
# 3 -0.005645 -0.005645 0.060761 0.000000 0.000000 0.000000
# 4 0.000000 0.000000 0.000000 0.048737 0.000000 0.000000
# 5 0.000000 0.000000 0.000000 0.000000 0.048737 0.000000
# 6 0.000000 0.000000 0.000000 0.000000 0.000000 0.023541
#
#
# Mechanical properties :
#
#
# Convention : Reuss Voigt Hill
#
# Bulk Modulus (GPa) = 15.74829 24.69014 20.21922
# Shear Modulus (GPa) = 12.88532 20.93387 16.90959
#
# Velocity S-wave (km/s) = 2.66958 3.40267 3.05817
# Velocity P-wave (km/s) = 4.26759 5.39382 4.86342
#
# Compressibility (1/GPa) = 0.06349894
#
# Stress axis : x y z
#
# Youngs Moduli (GPa) = 21.29561 21.29561 16.45781
#
# Poissons Ratio (x) = 0.73041 0.09291
# Poissons Ratio (y) = 0.73041 0.09291
# Poissons Ratio (z) = 0.12022 0.12022
#
# Static dielectric constant tensor:
#      x y z
#    x 1.597140 0.000000 0.000000 
#    y 0.000000 1.597140 0.000000 
#    z 0.000000 0.000000 1.631730 
# 
# From -- ./inp_files/11913.got.cif
#   From: 2010.05.17/outbox.cif.g08.bks.cpg/sg139_6_cif.got.tgz:11913.got - 2010.05.20 13:14:44.
