data_PCOD9571008
_publ_section_title
;
Structure prediction by ZEFSAII (Michael W. Deem and Ramdas Pophale) SiO2 
 PCOD9571008
Probable space group: P 42/N C M
;
_chemical_formula_sum "Si O2"
_cell_formula_units_Z 112
_cell_length_a 13.742728
_cell_length_b 13.742728
_cell_length_c 27.819684
_cell_angle_alpha 90.000000
_cell_angle_beta 90.000000
_cell_angle_gamma 90.000000
_cell_volume 5254.097097
_symmetry_space_group_name_H-M "P 42/N C M"
_symmetry_group_IT_number 138
_space_group.IT_coordinate_system_code '2'
_symmetry_cell_setting 'tetragonal'
loop_
_space_group_symop_operation_xyz
x,y,z
1/2-y,x,1/2+z
1/2-x,1/2-y,z
y,1/2-x,1/2+z
1/2+x,-y,1/2-z
-x,1/2+y,1/2-z
1/2+y,1/2+x,-z
-y,-x,-z
-x,-y,-z
1/2+y,-x,1/2-z
1/2+x,1/2+y,-z
-y,1/2+x,1/2-z
1/2-x,y,1/2+z
x,1/2-y,1/2+z
1/2-y,1/2-x,z
y,x,z
loop_
_atom_site_type_symbol
_atom_site_label
_atom_site_fract_x
_atom_site_fract_y
_atom_site_fract_z
Si Si1 0.050604 0.895080 0.916178
Si Si2 0.901860 0.281927 0.239377
Si Si3 0.411673 0.245347 0.804667
Si Si4 0.399178 0.552393 0.553043
Si Si5 0.270357 0.068909 0.518134
Si Si6 0.361074 0.785455 0.864592
Si Si7 0.717059 0.946533 0.588412
O O1 0.076691 0.807141 0.881477
O O2 0.013115 0.849957 0.966582
O O3 0.144343 0.963031 0.918049
O O4 0.962544 0.962544 0.898044
O O5 0.850778 0.176166 0.234228
O O6 0.905477 0.322482 0.185354
O O7 0.999729 0.269571 0.269272
O O8 0.350048 0.149953 0.790806
O O9 0.335636 0.335636 0.803961
O O10 0.448875 0.232937 0.859735
O O11 0.401253 0.598748 0.500000
O O12 0.502208 0.502208 0.562822
O O13 0.319558 0.464982 0.550493
O O14 0.364205 0.627453 0.593126
O O15 0.329746 0.170255 0.525363
O O16 0.233076 0.063308 0.463363
O O17 0.250000 0.750000 0.859242
O O18 0.649164 0.850837 0.590477
#
# Coordination Sequence:
#
# PCOD9571008 Si02
#       7
#    16  16  16  16  16  16  16
#     4   9  18  33  56  89 124 157 201 256 309 365
#     4  11  23  42  66  91 123 158 209 273 323 375
#     4  10  23  41  61  92 130 167 213 267 326 390
#     4  10  24  42  58  87 130 166 201 248 303 373
#     4   9  18  33  57  88 121 165 212 253 298 358
#     4  11  23  40  66  90 120 160 206 254 311 375
#     4   9  17  31  56  87 123 163 204 253 306 360
#
# _framework density 21.316699
#
# number of rings (size 3 to 8) (size 9 to 14) (size 15 to 20)
#    0.000    2.143    1.429    1.286    2.000    4.571 
#    0.000    2.857    0.000    0.000    0.000    0.000 
#    0.000    0.000    0.000    0.000    0.000    0.000 
#
# Total GULP energy -624969.465591 kJ/mol
# GULP energy per Si atom -5580.084514 kJ/mol
# Density = 2.126818 g / cm^3
# Si number density = 21.316699 Si / 1000 Ang^3
#
#
#
# Elastic Constant Matrix: (Units=GPa)
#
#
# Indices 1 2 3 4 5 6 
#
# 1 72.0108 31.6057 29.4369 0.0000 0.0000 0.0000
# 2 31.6057 72.0109 29.4370 0.0000 0.0000 0.0000
# 3 29.4369 29.4370 109.6612 0.0000 0.0000 0.0000
# 4 0.0000 0.0000 0.0000 23.1271 0.0000 0.0000
# 5 0.0000 0.0000 0.0000 0.0000 23.1273 0.0000
# 6 0.0000 0.0000 0.0000 0.0000 0.0000 20.6449
#
#
#
# Elastic Compliance Matrix: (Units=1/GPa)
#
#
# Indices 1 2 3 4 5 6 
#
# 1 0.018069 -0.006681 -0.003057 0.000000 0.000000 0.000000
# 2 -0.006681 0.018069 -0.003057 0.000000 0.000000 0.000000
# 3 -0.003057 -0.003057 0.010760 0.000000 0.000000 0.000000
# 4 0.000000 0.000000 0.000000 0.043239 0.000000 0.000000
# 5 0.000000 0.000000 0.000000 0.000000 0.043239 0.000000
# 6 0.000000 0.000000 0.000000 0.000000 0.000000 0.048438
#
#
# Mechanical properties :
#
#
# Convention : Reuss Voigt Hill
#
# Bulk Modulus (GPa) = 46.93013 48.29357 47.61185
# Shear Modulus (GPa) = 23.30940 24.26006 23.78473
#
# Velocity S-wave (km/s) = 3.31037 3.37720 3.34395
# Velocity P-wave (km/s) = 6.05598 6.15725 6.10683
#
# Compressibility (1/GPa) = 0.02130827
#
# Stress axis : x y z
#
# Youngs Moduli (GPa) = 55.34464 55.34464 92.93537
#
# Poissons Ratio (x) = 0.36974 0.28409
# Poissons Ratio (y) = 0.36974 0.28410
# Poissons Ratio (z) = 0.16918 0.16918
#
# Static dielectric constant tensor:
#      x y z
#    x 1.782450 0.000000 0.000000 
#    y 0.000000 1.782450 0.000000 
#    z 0.000000 0.000000 1.788890 
# 
# From -- ./inp_files/7563.got.cif
#   From: 2010.05.17/outbox.cif.g08.bks.cpg/sg138_4_cif.got.tgz:7563.got - 2010.05.20 13:08:53.
