data_PCOD9571085
_publ_section_title
;
Structure prediction by ZEFSAII (Michael W. Deem and Ramdas Pophale) SiO2 
 PCOD9571085
Probable space group: P 42/N C M
;
_chemical_formula_sum "Si O2"
_cell_formula_units_Z 52
_cell_length_a 10.746393
_cell_length_b 10.746393
_cell_length_c 21.162647
_cell_angle_alpha 90.000000
_cell_angle_beta 90.000000
_cell_angle_gamma 90.000000
_cell_volume 2443.967495
_symmetry_space_group_name_H-M "P 42/N C M"
_symmetry_group_IT_number 138
_space_group.IT_coordinate_system_code '2'
_symmetry_cell_setting 'tetragonal'
loop_
_space_group_symop_operation_xyz
x,y,z
1/2-y,x,1/2+z
1/2-x,1/2-y,z
y,1/2-x,1/2+z
1/2+x,-y,1/2-z
-x,1/2+y,1/2-z
1/2+y,1/2+x,-z
-y,-x,-z
-x,-y,-z
1/2+y,-x,1/2-z
1/2+x,1/2+y,-z
-y,1/2+x,1/2-z
1/2-x,y,1/2+z
x,1/2-y,1/2+z
1/2-y,1/2-x,z
y,x,z
loop_
_atom_site_type_symbol
_atom_site_label
_atom_site_fract_x
_atom_site_fract_y
_atom_site_fract_z
Si Si1 0.922029 0.381542 0.590939
Si Si2 0.195926 0.496012 0.192692
Si Si3 0.507128 0.709250 0.666264
Si Si4 0.750000 0.250000 0.500000
O O1 0.804669 0.465684 0.612135
O O2 0.868838 0.272440 0.545713
O O3 0.031417 0.468584 0.564926
O O4 0.972871 0.319107 0.654650
O O5 0.128699 0.371302 0.169436
O O6 0.220935 0.481889 0.266843
O O7 0.102113 0.609290 0.178855
O O8 0.631673 0.631673 0.652324
#
# Coordination Sequence:
#
# PCOD9571085 Si02
#       4
#    16  16  16   4
#     4  12  25  44  68  92 124 170 216 265 321 375
#     4  11  22  39  66  99 135 168 202 255 322 389
#     4  11  22  39  66  99 135 168 202 255 322 389
#     4  12  26  48  68  86 128 166 226 278 310 370
#
# _framework density 21.276879999999998
#
# number of rings (size 3 to 8) (size 9 to 14) (size 15 to 20)
#    0.000    0.615    6.154    2.308    0.000    4.308 
#    0.000    3.077    0.000    3.692    0.000    0.000 
#    0.000    0.000    0.000    0.000    0.000    0.000 
#
# Total GULP energy -290546.102958 kJ/mol
# GULP energy per Si atom -5587.425057 kJ/mol
# Density = 2.122845 g / cm^3
# Si number density = 21.276880 Si / 1000 Ang^3
#
#
#
# Elastic Constant Matrix: (Units=GPa)
#
#
# Indices 1 2 3 4 5 6 
#
# 1 44.7878 102.5181 15.1771 0.0000 0.0000 0.0000
# 2 102.5181 44.7878 15.1771 0.0000 0.0000 0.0000
# 3 15.1771 15.1771 67.6294 0.0000 0.0000 0.0000
# 4 0.0000 0.0000 0.0000 -2.8022 0.0000 0.0000
# 5 0.0000 0.0000 0.0000 0.0000 -2.8022 0.0000
# 6 0.0000 0.0000 0.0000 0.0000 0.0000 51.5998
#
#
#
# Elastic Compliance Matrix: (Units=1/GPa)
#
#
# Indices 1 2 3 4 5 6 
#
# 1 -0.005102 0.012220 -0.001597 0.000000 0.000000 0.000000
# 2 0.012220 -0.005102 -0.001597 0.000000 0.000000 0.000000
# 3 -0.001597 -0.001597 0.015503 0.000000 0.000000 0.000000
# 4 0.000000 0.000000 0.000000 -0.356862 0.000000 0.000000
# 5 0.000000 0.000000 0.000000 0.000000 -0.356862 0.000000
# 6 0.000000 0.000000 0.000000 0.000000 0.000000 0.019380
#
#
# Mechanical properties :
#
#
# Convention : Reuss Voigt Hill
#
# Bulk Modulus (GPa) = 42.82735 46.99439 44.91087
# Shear Modulus (GPa) = -7.14989 10.82127 1.83569
#
# Velocity S-wave (km/s) = -1.83513 2.25765 0.92986
# Velocity P-wave (km/s) = 3.96005 5.37875 4.72298
#
# Compressibility (1/GPa) = 0.02334957
#
# Stress axis : x y z
#
# Youngs Moduli (GPa) = -195.99781 -195.99781 64.50198
#
# Poissons Ratio (x) = 2.39506 0.10303
# Poissons Ratio (y) = 2.39506 0.10303
# Poissons Ratio (z) = -0.31307 -0.31307
#
# Static dielectric constant tensor:
#      x y z
#    x 1.782030 0.000000 0.000000 
#    y 0.000000 1.782030 0.000000 
#    z 0.000000 0.000000 1.774800 
# 
# From -- ./inp_files/5698.got.cif
#   From: 2010.05.17/outbox.cif.g08.bks.cpg/sg138_3_cif.got.tgz:5698.got - 2010.05.20 13:08:53.
