data_PCOD9571418
_publ_section_title
;
Structure prediction by ZEFSAII (Michael W. Deem and Ramdas Pophale) SiO2 
 PCOD9571418
Probable space group: I 4/M M M
;
_chemical_formula_sum "Si O2"
_cell_formula_units_Z 160
_cell_length_a 23.080939
_cell_length_b 23.080939
_cell_length_c 15.920352
_cell_angle_alpha 90.000000
_cell_angle_beta 90.000000
_cell_angle_gamma 90.000000
_cell_volume 8481.245063
_symmetry_space_group_name_H-M "I 4/M M M"
_symmetry_group_IT_number 139
_symmetry_cell_setting 'tetragonal'
loop_
_space_group_symop_operation_xyz
x,y,z
-y,x,z
-x,-y,z
y,-x,z
x,-y,-z
-x,y,-z
y,x,-z
-y,-x,-z
-x,-y,-z
y,-x,-z
x,y,-z
-y,x,-z
-x,y,z
x,-y,z
-y,-x,z
y,x,z
1/2+x,1/2+y,1/2+z
1/2-y,1/2+x,1/2+z
1/2-x,1/2-y,1/2+z
1/2+y,1/2-x,1/2+z
1/2+x,1/2-y,1/2-z
1/2-x,1/2+y,1/2-z
1/2+y,1/2+x,1/2-z
1/2-y,1/2-x,1/2-z
1/2-x,1/2-y,1/2-z
1/2+y,1/2-x,1/2-z
1/2+x,1/2+y,1/2-z
1/2-y,1/2+x,1/2-z
1/2-x,1/2+y,1/2+z
1/2+x,1/2-y,1/2+z
1/2-y,1/2-x,1/2+z
1/2+y,1/2+x,1/2+z
loop_
_atom_site_type_symbol
_atom_site_label
_atom_site_fract_x
_atom_site_fract_y
_atom_site_fract_z
Si Si1 0.280253 0.812811 0.654793
Si Si2 0.409464 0.063671 0.845528
Si Si3 0.435298 0.342272 0.602360
Si Si4 0.563625 0.808650 0.098656
Si Si5 0.094929 0.286826 0.902981
O O1 0.222431 0.777570 0.632440
O O2 0.296940 0.796940 0.750000
O O3 0.279539 0.881892 0.644132
O O4 0.335442 0.791531 0.601013
O O5 0.430240 0.069761 0.750000
O O6 0.430808 0.121413 0.892111
O O7 0.339755 0.069477 0.849993
O O8 0.426071 0.000000 0.878161
O O9 0.433011 0.342147 0.500000
O O10 0.500000 0.360260 0.626767
O O11 0.386039 0.386039 0.632496
O O12 0.423661 0.276176 0.627643
O O13 0.500000 0.791819 0.130237
O O14 0.567820 0.795144 0.000000
O O15 0.076233 0.294402 0.000000
#
# Coordination Sequence:
#
# PCOD9571418 Si02
#       5
#    32  32  32  32  32
#     4  10  20  34  53  76 101 129 164 207 253 301
#     4  11  22  34  49  69  95 130 169 206 247 295
#     4   9  17  28  43  65  92 121 153 190 234 285
#     4  10  21  35  51  73 101 133 169 209 251 297
#     4  10  19  32  51  72  95 124 162 209 252 289
#
# _framework density 18.865155000000001
#
# number of rings (size 3 to 8) (size 9 to 14) (size 15 to 20)
#    0.000    2.000    0.000    6.600    0.000    6.400 
#    0.000    3.000    0.000    0.000    0.000    0.000 
#    0.000    0.400    0.000    2.200    0.000    0.000 
#
# Total GULP energy -446660.695930 kJ/mol
# GULP energy per Si atom -5583.258699 kJ/mol
# Density = 1.882222 g / cm^3
# Si number density = 18.865155 Si / 1000 Ang^3
#
#
#
# Elastic Constant Matrix: (Units=GPa)
#
#
# Indices 1 2 3 4 5 6 
#
# 1 114.2646 64.5410 10.2814 0.0000 0.0000 0.0000
# 2 64.5410 114.2646 10.2813 0.0000 0.0000 0.0000
# 3 10.2814 10.2813 28.1845 0.0000 0.0000 0.0000
# 4 0.0000 0.0000 0.0000 21.7587 0.0000 0.0000
# 5 0.0000 0.0000 0.0000 0.0000 21.7619 0.0000
# 6 0.0000 0.0000 0.0000 0.0000 0.0000 -0.5400
#
#
#
# Elastic Compliance Matrix: (Units=1/GPa)
#
#
# Indices 1 2 3 4 5 6 
#
# 1 0.012974 -0.007137 -0.002129 0.000000 0.000000 0.000000
# 2 -0.007137 0.012974 -0.002129 0.000000 0.000000 0.000000
# 3 -0.002129 -0.002129 0.037034 0.000000 0.000000 0.000000
# 4 0.000000 0.000000 0.000000 0.045959 0.000000 0.000000
# 5 0.000000 0.000000 0.000000 0.000000 0.045952 0.000000
# 6 0.000000 0.000000 0.000000 0.000000 0.000000 -1.851982
#
#
# Mechanical properties :
#
#
# Convention : Reuss Voigt Hill
#
# Bulk Modulus (GPa) = 24.88098 47.43567 36.15833
# Shear Modulus (GPa) = -3.01042 20.03680 8.51319
#
# Velocity S-wave (km/s) = -1.26460 3.26253 2.12661
# Velocity P-wave (km/s) = 3.32944 6.27625 5.02377
#
# Compressibility (1/GPa) = 0.04019134
#
# Stress axis : x y z
#
# Youngs Moduli (GPa) = 77.07503 77.07502 27.00216
#
# Poissons Ratio (x) = 0.55007 0.05750
# Poissons Ratio (y) = 0.55007 0.05750
# Poissons Ratio (z) = 0.16413 0.16413
#
# Static dielectric constant tensor:
#      x y z
#    x 1.665340 0.000000 0.000000 
#    y 0.000000 1.665340 0.000000 
#    z 0.000000 0.000000 1.808920 
# 
# From -- ./inp_files/5895.got.cif
#   From: 2010.05.17/outbox.cif.g08.bks.cpg/sg139_3_cif.got.tgz:5895.got - 2010.05.20 13:14:44.
