data_PCOD9571089
_publ_section_title
;
Structure prediction by ZEFSAII (Michael W. Deem and Ramdas Pophale) SiO2 
 PCOD9571089
Probable space group: P 42/N C M
;
_chemical_formula_sum "Si O2"
_cell_formula_units_Z 48
_cell_length_a 15.417087
_cell_length_b 15.417087
_cell_length_c 9.545446
_cell_angle_alpha 90.000000
_cell_angle_beta 90.000000
_cell_angle_gamma 90.000000
_cell_volume 2268.824334
_symmetry_space_group_name_H-M "P 42/N C M"
_symmetry_group_IT_number 138
_space_group.IT_coordinate_system_code '2'
_symmetry_cell_setting 'tetragonal'
loop_
_space_group_symop_operation_xyz
x,y,z
1/2-y,x,1/2+z
1/2-x,1/2-y,z
y,1/2-x,1/2+z
1/2+x,-y,1/2-z
-x,1/2+y,1/2-z
1/2+y,1/2+x,-z
-y,-x,-z
-x,-y,-z
1/2+y,-x,1/2-z
1/2+x,1/2+y,-z
-y,1/2+x,1/2-z
1/2-x,y,1/2+z
x,1/2-y,1/2+z
1/2-y,1/2-x,z
y,x,z
loop_
_atom_site_type_symbol
_atom_site_label
_atom_site_fract_x
_atom_site_fract_y
_atom_site_fract_z
Si Si1 0.434936 0.434936 0.918378
Si Si2 0.935175 0.935175 0.416107
Si Si3 0.501161 0.242827 0.542553
Si Si4 0.230002 0.612596 0.792089
O O1 0.446506 0.446506 0.751641
O O2 0.500000 0.500000 0.000000
O O3 0.336697 0.455391 0.964912
O O4 0.954484 0.835131 0.452356
O O5 0.000000 0.000000 0.500000
O O6 0.588350 0.259344 0.452762
O O7 0.527503 0.214793 0.698891
O O8 0.155120 0.680633 0.760079
#
# Coordination Sequence:
#
# PCOD9571089 Si02
#       4
#     8   8  16  16
#     4  12  28  49  76 107 147 198 242 300 365 429
#     4  12  28  49  76 107 147 198 242 300 365 429
#     4  12  26  44  70 106 144 188 244 295 356 435
#     4  11  22  40  68 103 142 182 232 303 374 429
#
# _framework density 21.156331999999999
#
# number of rings (size 3 to 8) (size 9 to 14) (size 15 to 20)
#    0.000    0.333    3.333    6.000    4.667    3.333 
#    0.000    1.667    0.000    0.000    0.000    0.000 
#    0.000    0.000    0.000    0.000    0.000    0.000 
#
# Total GULP energy -268661.462027 kJ/mol
# GULP energy per Si atom -5597.113792 kJ/mol
# Density = 2.110818 g / cm^3
# Si number density = 21.156332 Si / 1000 Ang^3
#
#
#
# Elastic Constant Matrix: (Units=GPa)
#
#
# Indices 1 2 3 4 5 6 
#
# 1 71.6844 107.3876 51.6928 0.0000 0.0000 0.0000
# 2 107.3876 71.6844 51.6928 0.0000 0.0000 0.0000
# 3 51.6928 51.6928 114.3438 0.0000 0.0000 0.0000
# 4 0.0000 0.0000 0.0000 35.1671 0.0000 0.0000
# 5 0.0000 0.0000 0.0000 0.0000 35.1671 0.0000
# 6 0.0000 0.0000 0.0000 0.0000 0.0000 20.1972
#
#
#
# Elastic Compliance Matrix: (Units=1/GPa)
#
#
# Indices 1 2 3 4 5 6 
#
# 1 -0.010226 0.017783 -0.003416 0.000000 0.000000 0.000000
# 2 0.017783 -0.010226 -0.003416 0.000000 0.000000 0.000000
# 3 -0.003416 -0.003416 0.011834 0.000000 0.000000 0.000000
# 4 0.000000 0.000000 0.000000 0.028436 0.000000 0.000000
# 5 0.000000 0.000000 0.000000 0.000000 0.028436 0.000000
# 6 0.000000 0.000000 0.000000 0.000000 0.000000 0.049512
#
#
# Mechanical properties :
#
#
# Convention : Reuss Voigt Hill
#
# Bulk Modulus (GPa) = 75.28535 75.47322 75.37929
# Shear Modulus (GPa) = 62.27219 21.23559 41.75389
#
# Velocity S-wave (km/s) = 5.43122 3.17163 4.44733
# Velocity P-wave (km/s) = 8.65988 7.01169 7.87900
#
# Compressibility (1/GPa) = 0.01328280
#
# Stress axis : x y z
#
# Youngs Moduli (GPa) = -97.79001 -97.79001 84.49943
#
# Poissons Ratio (x) = 1.73897 0.28867
# Poissons Ratio (y) = 1.73897 0.28867
# Poissons Ratio (z) = -0.33407 -0.33407
#
# Static dielectric constant tensor:
#      x y z
#    x 1.761640 0.000000 0.000000 
#    y 0.000000 1.761640 0.000000 
#    z 0.000000 0.000000 1.754680 
# 
# From -- ./inp_files/1032.got.cif
#   From: 2010.05.17/outbox.cif.g08.bks.cpg/sg138_1_cif.got.tgz:1032.got - 2010.05.20 13:08:53.
