data_PCOD9571925
_publ_section_title
;
Structure prediction by ZEFSAII (Michael W. Deem and Ramdas Pophale) SiO2 
 PCOD9571925
Probable space group: I 4/M M M
;
_chemical_formula_sum "Si O2"
_cell_formula_units_Z 160
_cell_length_a 24.537758
_cell_length_b 24.537758
_cell_length_c 15.611105
_cell_angle_alpha 90.000000
_cell_angle_beta 90.000000
_cell_angle_gamma 90.000000
_cell_volume 9399.470794
_symmetry_space_group_name_H-M "I 4/M M M"
_symmetry_group_IT_number 139
_symmetry_cell_setting 'tetragonal'
loop_
_space_group_symop_operation_xyz
x,y,z
-y,x,z
-x,-y,z
y,-x,z
x,-y,-z
-x,y,-z
y,x,-z
-y,-x,-z
-x,-y,-z
y,-x,-z
x,y,-z
-y,x,-z
-x,y,z
x,-y,z
-y,-x,z
y,x,z
1/2+x,1/2+y,1/2+z
1/2-y,1/2+x,1/2+z
1/2-x,1/2-y,1/2+z
1/2+y,1/2-x,1/2+z
1/2+x,1/2-y,1/2-z
1/2-x,1/2+y,1/2-z
1/2+y,1/2+x,1/2-z
1/2-y,1/2-x,1/2-z
1/2-x,1/2-y,1/2-z
1/2+y,1/2-x,1/2-z
1/2+x,1/2+y,1/2-z
1/2-y,1/2+x,1/2-z
1/2-x,1/2+y,1/2+z
1/2+x,1/2-y,1/2+z
1/2-y,1/2-x,1/2+z
1/2+y,1/2+x,1/2+z
loop_
_atom_site_type_symbol
_atom_site_label
_atom_site_fract_x
_atom_site_fract_y
_atom_site_fract_z
Si Si1 0.919014 0.435389 0.000000
Si Si2 0.434732 0.203317 0.000000
Si Si3 0.272330 0.433594 0.830614
Si Si4 0.638285 0.212994 0.689421
Si Si5 0.160103 0.839898 0.396475
Si Si6 0.878838 0.560342 0.328020
Si Si7 0.247394 0.752607 0.101785
O O1 0.943568 0.416015 0.088787
O O2 0.918512 0.500000 0.000000
O O3 0.857281 0.413573 0.000000
O O4 0.420305 0.232312 0.911145
O O5 0.500000 0.201976 0.000000
O O6 0.276501 0.500000 0.821950
O O7 0.250631 0.401243 0.747424
O O8 0.324721 0.399348 0.860464
O O9 0.673590 0.173590 0.750000
O O10 0.596086 0.172772 0.643810
O O11 0.686173 0.239755 0.633970
O O12 0.159899 0.840102 0.500000
O O13 0.206575 0.793426 0.369527
O O14 0.861917 0.500000 0.298661
O O15 0.910582 0.589419 0.250000
O O16 0.249318 0.750683 0.000000
#
# Coordination Sequence:
#
# PCOD9571925 Si02
#       7
#    16  16  32  32  16  32  16
#     4  11  23  36  54  75 102 146 198 250 296 339
#     4   9  18  32  51  80 111 143 191 237 276 335
#     4  11  21  35  57  86 120 157 193 233 285 347
#     4  11  21  37  57  81 116 145 189 239 292 347
#     4  11  21  33  59  88 121 155 192 239 287 348
#     4  11  24  38  56  78 107 150 198 245 291 338
#     4  11  24  38  60  87 115 152 191 241 309 359
#
# _framework density 17.022234999999998
#
# number of rings (size 3 to 8) (size 9 to 14) (size 15 to 20)
#    0.000    1.200    3.000    4.800    1.400    3.400 
#    0.000    0.000    0.000    0.300    0.000    0.700 
#    0.000    0.000    0.000    0.900    0.000    0.000 
#
# Total GULP energy -445755.583514 kJ/mol
# GULP energy per Si atom -5571.944794 kJ/mol
# Density = 1.698349 g / cm^3
# Si number density = 17.022235 Si / 1000 Ang^3
#
#
#
# Elastic Constant Matrix: (Units=GPa)
#
#
# Indices 1 2 3 4 5 6 
#
# 1 88.6426 62.4821 29.0139 0.0000 0.0000 0.0000
# 2 62.4821 88.6433 29.0158 0.0000 0.0000 0.0000
# 3 29.0139 29.0158 70.0016 0.0000 0.0000 0.0000
# 4 0.0000 0.0000 0.0000 19.4708 0.0000 0.0000
# 5 0.0000 0.0000 0.0000 0.0000 19.4716 0.0000
# 6 0.0000 0.0000 0.0000 0.0000 0.0000 18.3948
#
#
#
# Elastic Compliance Matrix: (Units=1/GPa)
#
#
# Indices 1 2 3 4 5 6 
#
# 1 0.023047 -0.015178 -0.003261 0.000000 0.000000 0.000000
# 2 -0.015178 0.023047 -0.003262 0.000000 0.000000 0.000000
# 3 -0.003261 -0.003262 0.016989 0.000000 0.000000 0.000000
# 4 0.000000 0.000000 0.000000 0.051359 0.000000 0.000000
# 5 0.000000 0.000000 0.000000 0.000000 0.051357 0.000000
# 6 0.000000 0.000000 0.000000 0.000000 0.000000 0.054363
#
#
# Mechanical properties :
#
#
# Convention : Reuss Voigt Hill
#
# Bulk Modulus (GPa) = 50.81017 54.25681 52.53349
# Shear Modulus (GPa) = 18.50988 19.91916 19.21452
#
# Velocity S-wave (km/s) = 3.30114 3.42451 3.36339
# Velocity P-wave (km/s) = 6.66664 6.89780 6.78321
#
# Compressibility (1/GPa) = 0.01968110
#
# Stress axis : x y z
#
# Youngs Moduli (GPa) = 43.38923 43.38875 58.86035
#
# Poissons Ratio (x) = 0.65855 0.19196
# Poissons Ratio (y) = 0.65855 0.19203
# Poissons Ratio (z) = 0.14150 0.14155
#
# Static dielectric constant tensor:
#      x y z
#    x 1.622870 0.000000 0.000000 
#    y 0.000000 1.622870 0.000000 
#    z 0.000000 0.000000 1.612700 
# 
# From -- ./inp_files/3993.got.cif
#   From: 2010.05.17/outbox.cif.g08.bks.cpg/sg139_2_cif.got.tgz:3993.got - 2010.05.20 13:14:44.
