data_PCOD9571881
_publ_section_title
;
Structure prediction by ZEFSAII (Michael W. Deem and Ramdas Pophale) SiO2 
 PCOD9571881
Probable space group: I 4/M M M
;
_chemical_formula_sum "Si O2"
_cell_formula_units_Z 160
_cell_length_a 31.923261
_cell_length_b 31.923261
_cell_length_c 8.005006
_cell_angle_alpha 90.000000
_cell_angle_beta 90.000000
_cell_angle_gamma 90.000000
_cell_volume 8157.858331
_symmetry_space_group_name_H-M "I 4/M M M"
_symmetry_group_IT_number 139
_symmetry_cell_setting 'tetragonal'
loop_
_space_group_symop_operation_xyz
x,y,z
-y,x,z
-x,-y,z
y,-x,z
x,-y,-z
-x,y,-z
y,x,-z
-y,-x,-z
-x,-y,-z
y,-x,-z
x,y,-z
-y,x,-z
-x,y,z
x,-y,z
-y,-x,z
y,x,z
1/2+x,1/2+y,1/2+z
1/2-y,1/2+x,1/2+z
1/2-x,1/2-y,1/2+z
1/2+y,1/2-x,1/2+z
1/2+x,1/2-y,1/2-z
1/2-x,1/2+y,1/2-z
1/2+y,1/2+x,1/2-z
1/2-y,1/2-x,1/2-z
1/2-x,1/2-y,1/2-z
1/2+y,1/2-x,1/2-z
1/2+x,1/2+y,1/2-z
1/2-y,1/2+x,1/2-z
1/2-x,1/2+y,1/2+z
1/2+x,1/2-y,1/2+z
1/2-y,1/2-x,1/2+z
1/2+y,1/2+x,1/2+z
loop_
_atom_site_type_symbol
_atom_site_label
_atom_site_fract_x
_atom_site_fract_y
_atom_site_fract_z
Si Si1 0.659386 0.000000 0.690603
Si Si2 0.500000 0.067293 0.300983
Si Si3 0.216150 0.216150 0.698578
Si Si4 0.161236 0.407082 0.806798
Si Si5 0.126979 0.251697 0.195416
Si Si6 0.162605 0.092781 0.804166
Si Si7 0.048812 0.882367 0.500000
O O1 0.668648 0.953932 0.769634
O O2 0.676504 0.000000 0.500000
O O3 0.609318 0.000000 0.697011
O O4 0.500000 0.075119 0.500000
O O5 0.460052 0.039949 0.250000
O O6 0.212108 0.212108 0.500000
O O7 0.250000 0.250000 0.750000
O O8 0.233170 0.172684 0.769507
O O9 0.122849 0.377152 0.750000
O O10 0.205157 0.382677 0.788033
O O11 0.152315 0.415147 0.000000
O O12 0.097751 0.211778 0.234014
O O13 0.123095 0.261300 0.000000
O O14 0.137030 0.137030 0.787295
O O15 0.142364 0.062840 0.666798
O O16 0.157933 0.080540 0.000000
O O17 0.074905 0.925096 0.500000
O O18 0.000000 0.889396 0.500000
#
# Coordination Sequence:
#
# PCOD9571881 Si02
#       7
#    16  16  16  32  32  32  16
#     4  10  23  43  62  82 111 152 200 248 302 365
#     4  11  21  34  57  86 112 138 178 236 298 360
#     4  12  24  36  58  88 122 160 202 251 304 373
#     4  11  24  42  62  87 120 160 203 254 312 375
#     4  11  22  39  61  87 122 160 204 256 310 372
#     4   9  19  37  62  91 125 165 211 262 316 375
#     4  10  22  39  64  96 132 174 222 271 327 389
#
# _framework density 19.612991000000001
#
# number of rings (size 3 to 8) (size 9 to 14) (size 15 to 20)
#    0.000    1.500    1.000    4.500    2.800    3.700 
#    1.800    0.000    0.000    0.000    0.000    2.800 
#    0.000    0.000    0.000    0.000    0.000    0.000 
#
# Total GULP energy -446295.305620 kJ/mol
# GULP energy per Si atom -5578.691320 kJ/mol
# Density = 1.956835 g / cm^3
# Si number density = 19.612991 Si / 1000 Ang^3
#
#
#
# Elastic Constant Matrix: (Units=GPa)
#
#
# Indices 1 2 3 4 5 6 
#
# 1 112.5023 40.8714 22.6509 0.0000 0.0000 0.0000
# 2 40.8714 112.4989 22.6503 0.0000 0.0000 0.0000
# 3 22.6509 22.6503 53.6148 0.0000 0.0000 0.0000
# 4 0.0000 0.0000 0.0000 17.4818 0.0000 0.0000
# 5 0.0000 0.0000 0.0000 0.0000 17.4827 0.0000
# 6 0.0000 0.0000 0.0000 0.0000 0.0000 41.8711
#
#
#
# Elastic Compliance Matrix: (Units=1/GPa)
#
#
# Indices 1 2 3 4 5 6 
#
# 1 0.010705 -0.003256 -0.003147 0.000000 0.000000 0.000000
# 2 -0.003256 0.010705 -0.003147 0.000000 0.000000 0.000000
# 3 -0.003147 -0.003147 0.021311 0.000000 0.000000 0.000000
# 4 0.000000 0.000000 0.000000 0.057202 0.000000 0.000000
# 5 0.000000 0.000000 0.000000 0.000000 0.057199 0.000000
# 6 0.000000 0.000000 0.000000 0.000000 0.000000 0.023883
#
#
# Mechanical properties :
#
#
# Convention : Reuss Voigt Hill
#
# Bulk Modulus (GPa) = 42.33495 50.10681 46.22088
# Shear Modulus (GPa) = 24.04078 28.19666 26.11872
#
# Velocity S-wave (km/s) = 3.50488 3.79575 3.65321
# Velocity P-wave (km/s) = 6.16530 6.69429 6.43523
#
# Compressibility (1/GPa) = 0.02362114
#
# Stress axis : x y z
#
# Youngs Moduli (GPa) = 93.41351 93.41087 46.92452
#
# Poissons Ratio (x) = 0.30410 0.14768
# Poissons Ratio (y) = 0.30411 0.14768
# Poissons Ratio (z) = 0.29400 0.29399
#
# Static dielectric constant tensor:
#      x y z
#    x 1.688000 0.000000 0.000000 
#    y 0.000000 1.688000 0.000000 
#    z 0.000000 0.000000 1.732250 
# 
# From -- ./inp_files/2303.got.cif
#   From: 2010.05.17/outbox.cif.g08.bks.cpg/sg139_2_cif.got.tgz:2303.got - 2010.05.20 13:14:44.
