data_PCOD9571736
_publ_section_title
;
Structure prediction by ZEFSAII (Michael W. Deem and Ramdas Pophale) SiO2 
 PCOD9571736
Probable space group: I 4/M M M
;
_chemical_formula_sum "Si O2"
_cell_formula_units_Z 160
_cell_length_a 31.947714
_cell_length_b 31.947714
_cell_length_c 7.927630
_cell_angle_alpha 90.000000
_cell_angle_beta 90.000000
_cell_angle_gamma 90.000000
_cell_volume 8091.386533
_symmetry_space_group_name_H-M "I 4/M M M"
_symmetry_group_IT_number 139
_symmetry_cell_setting 'tetragonal'
loop_
_space_group_symop_operation_xyz
x,y,z
-y,x,z
-x,-y,z
y,-x,z
x,-y,-z
-x,y,-z
y,x,-z
-y,-x,-z
-x,-y,-z
y,-x,-z
x,y,-z
-y,x,-z
-x,y,z
x,-y,z
-y,-x,z
y,x,z
1/2+x,1/2+y,1/2+z
1/2-y,1/2+x,1/2+z
1/2-x,1/2-y,1/2+z
1/2+y,1/2-x,1/2+z
1/2+x,1/2-y,1/2-z
1/2-x,1/2+y,1/2-z
1/2+y,1/2+x,1/2-z
1/2-y,1/2-x,1/2-z
1/2-x,1/2-y,1/2-z
1/2+y,1/2-x,1/2-z
1/2+x,1/2+y,1/2-z
1/2-y,1/2+x,1/2-z
1/2-x,1/2+y,1/2+z
1/2+x,1/2-y,1/2+z
1/2-y,1/2-x,1/2+z
1/2+y,1/2+x,1/2+z
loop_
_atom_site_type_symbol
_atom_site_label
_atom_site_fract_x
_atom_site_fract_y
_atom_site_fract_z
Si Si1 0.000000 0.113566 0.806693
Si Si2 0.152121 0.152121 0.809426
Si Si3 0.774154 0.906418 0.199507
Si Si4 0.500000 0.286147 0.305966
Si Si5 0.547446 0.885810 0.203212
Si Si6 0.384907 0.817960 0.202231
Si Si7 0.910569 0.089432 0.313081
O O1 0.958758 0.098416 0.715278
O O2 0.000000 0.163707 0.809474
O O3 0.000000 0.098571 0.000000
O O4 0.127024 0.191740 0.731651
O O5 0.116582 0.116582 0.814388
O O6 0.164819 0.164819 0.000000
O O7 0.774547 0.954340 0.269892
O O8 0.727892 0.888559 0.221592
O O9 0.784679 0.910949 0.000000
O O10 0.500000 0.269752 0.500000
O O11 0.500000 0.884236 0.266974
O O12 0.571925 0.928076 0.250000
O O13 0.576466 0.847300 0.262274
O O14 0.546211 0.883520 0.000000
O O15 0.343111 0.843111 0.250000
O O16 0.387195 0.814578 0.000000
O O17 0.897520 0.102481 0.500000
#
# Coordination Sequence:
#
# PCOD9571736 Si02
#       7
#    16  16  32  16  32  32  16
#     4  11  21  40  62  79 109 159 202 231 283 356
#     4  10  20  38  62  84 114 156 192 226 280 354
#     4  10  20  36  59  89 116 146 190 235 277 334
#     4   9  18  33  58  88 115 145 190 235 274 334
#     4   9  19  35  53  76 109 146 185 226 272 328
#     4  10  21  38  59  82 113 152 188 233 286 338
#     4  12  24  37  55  85 119 148 188 248 298 336
#
# _framework density 19.774114000000001
#
# number of rings (size 3 to 8) (size 9 to 14) (size 15 to 20)
#    0.000    2.000    2.000    1.800    1.400    2.400 
#    0.000    2.500    0.000    0.000    0.000    0.000 
#    0.000    0.000    0.000    0.000    0.000    0.000 
#
# Total GULP energy -446242.299592 kJ/mol
# GULP energy per Si atom -5578.028745 kJ/mol
# Density = 1.972911 g / cm^3
# Si number density = 19.774114 Si / 1000 Ang^3
#
#
#
# Elastic Constant Matrix: (Units=GPa)
#
#
# Indices 1 2 3 4 5 6 
#
# 1 149.9191 70.6859 -1.9355 0.0000 0.0000 0.0000
# 2 70.6859 149.9154 -1.9353 0.0000 0.0000 0.0000
# 3 -1.9355 -1.9353 36.6828 0.0000 0.0000 0.0000
# 4 0.0000 0.0000 0.0000 6.9661 0.0000 0.0000
# 5 0.0000 0.0000 0.0000 0.0000 6.9673 0.0000
# 6 0.0000 0.0000 0.0000 0.0000 0.0000 20.4379
#
#
#
# Elastic Compliance Matrix: (Units=1/GPa)
#
#
# Indices 1 2 3 4 5 6 
#
# 1 0.008579 -0.004042 0.000239 0.000000 0.000000 0.000000
# 2 -0.004042 0.008579 0.000239 0.000000 0.000000 0.000000
# 3 0.000239 0.000239 0.027286 0.000000 0.000000 0.000000
# 4 0.000000 0.000000 0.000000 0.143552 0.000000 0.000000
# 5 0.000000 0.000000 0.000000 0.000000 0.143528 0.000000
# 6 0.000000 0.000000 0.000000 0.000000 0.000000 0.048929
#
#
# Mechanical properties :
#
#
# Convention : Reuss Voigt Hill
#
# Bulk Modulus (GPa) = 26.79673 52.23862 39.51768
# Shear Modulus (GPa) = 12.49940 24.85441 18.67691
#
# Velocity S-wave (km/s) = 2.51691 3.54915 3.07663
# Velocity P-wave (km/s) = 4.69332 6.57802 5.71391
#
# Compressibility (1/GPa) = 0.03731798
#
# Stress axis : x y z
#
# Youngs Moduli (GPa) = 116.56184 116.55899 36.64885
#
# Poissons Ratio (x) = 0.47113 -0.00877
# Poissons Ratio (y) = 0.47114 -0.00877
# Poissons Ratio (z) = -0.02791 -0.02790
#
# Static dielectric constant tensor:
#      x y z
#    x 1.676970 0.000000 0.000000 
#    y 0.000000 1.676970 0.000000 
#    z 0.000000 0.000000 1.733050 
# 
# From -- ./inp_files/2313.got.cif
#   From: 2010.05.17/outbox.cif.g08.bks.cpg/sg139_2_cif.got.tgz:2313.got - 2010.05.20 13:14:44.
