data_PCOD9571119
_publ_section_title
;
Structure prediction by ZEFSAII (Michael W. Deem and Ramdas Pophale) SiO2 
 PCOD9571119
Probable space group: P 42/N C M
;
_chemical_formula_sum "Si O2"
_cell_formula_units_Z 56
_cell_length_a 13.680718
_cell_length_b 13.680718
_cell_length_c 14.025064
_cell_angle_alpha 90.000000
_cell_angle_beta 90.000000
_cell_angle_gamma 90.000000
_cell_volume 2624.959659
_symmetry_space_group_name_H-M "P 42/N C M"
_symmetry_group_IT_number 138
_space_group.IT_coordinate_system_code '2'
_symmetry_cell_setting 'tetragonal'
loop_
_space_group_symop_operation_xyz
x,y,z
1/2-y,x,1/2+z
1/2-x,1/2-y,z
y,1/2-x,1/2+z
1/2+x,-y,1/2-z
-x,1/2+y,1/2-z
1/2+y,1/2+x,-z
-y,-x,-z
-x,-y,-z
1/2+y,-x,1/2-z
1/2+x,1/2+y,-z
-y,1/2+x,1/2-z
1/2-x,y,1/2+z
x,1/2-y,1/2+z
1/2-y,1/2-x,z
y,x,z
loop_
_atom_site_type_symbol
_atom_site_label
_atom_site_fract_x
_atom_site_fract_y
_atom_site_fract_z
Si Si1 0.076444 0.423557 0.954201
Si Si2 0.814009 0.096081 0.636011
Si Si3 0.763165 0.035256 0.845222
Si Si4 0.831494 0.668507 0.861704
Si Si5 0.368895 0.631106 0.000000
O O1 0.150554 0.489265 0.894818
O O2 0.134180 0.365821 0.034344
O O3 0.000000 0.500000 0.000000
O O4 0.797316 0.088016 0.748877
O O5 0.899631 0.173432 0.615718
O O6 0.719811 0.128231 0.575950
O O7 0.717654 0.929879 0.819785
O O8 0.846110 0.040001 0.928246
O O9 0.750000 0.750000 0.864302
#
# Coordination Sequence:
#
# PCOD9571119 Si02
#       5
#     8  16  16   8   8
#     4  12  22  46  74  94 133 191 236 281 352 415
#     4  12  23  40  72 107 140 176 230 289 348 416
#     4  12  24  43  69 106 141 180 229 287 351 414
#     4  12  28  50  68  94 145 196 234 284 350 420
#     4  12  23  40  73 112 141 170 223 298 351 406
#
# _framework density 21.333660999999999
#
# number of rings (size 3 to 8) (size 9 to 14) (size 15 to 20)
#    0.000    0.000    8.571    2.571    2.000    0.000 
#    2.571    0.714    0.000    0.000    0.000    0.000 
#    0.000    0.000    0.000    0.000    0.000    0.000 
#
# Total GULP energy -312806.960765 kJ/mol
# GULP energy per Si atom -5585.838585 kJ/mol
# Density = 2.128510 g / cm^3
# Si number density = 21.333661 Si / 1000 Ang^3
#
#
#
# Elastic Constant Matrix: (Units=GPa)
#
#
# Indices 1 2 3 4 5 6 
#
# 1 61.5321 46.3033 10.5380 0.0000 0.0000 0.0000
# 2 46.3033 61.5328 10.5382 0.0000 0.0000 0.0000
# 3 10.5380 10.5382 109.2189 0.0000 0.0000 0.0000
# 4 0.0000 0.0000 0.0000 24.4898 0.0000 0.0000
# 5 0.0000 0.0000 0.0000 0.0000 24.4899 0.0000
# 6 0.0000 0.0000 0.0000 0.0000 0.0000 35.3451
#
#
#
# Elastic Compliance Matrix: (Units=1/GPa)
#
#
# Indices 1 2 3 4 5 6 
#
# 1 0.037558 -0.028106 -0.000912 0.000000 0.000000 0.000000
# 2 -0.028106 0.037557 -0.000912 0.000000 0.000000 0.000000
# 3 -0.000912 -0.000912 0.009332 0.000000 0.000000 0.000000
# 4 0.000000 0.000000 0.000000 0.040833 0.000000 0.000000
# 5 0.000000 0.000000 0.000000 0.000000 0.040833 0.000000
# 6 0.000000 0.000000 0.000000 0.000000 0.000000 0.028292
#
#
# Mechanical properties :
#
#
# Convention : Reuss Voigt Hill
#
# Bulk Modulus (GPa) = 40.67137 40.78253 40.72695
# Shear Modulus (GPa) = 19.05039 27.85859 23.45449
#
# Velocity S-wave (km/s) = 2.99151 3.61758 3.31934
# Velocity P-wave (km/s) = 5.57117 6.05039 5.81572
#
# Compressibility (1/GPa) = 0.02458732
#
# Stress axis : x y z
#
# Youngs Moduli (GPa) = 26.62557 26.62587 107.15927
#
# Poissons Ratio (x) = 0.74835 0.09772
# Poissons Ratio (y) = 0.74834 0.09773
# Poissons Ratio (z) = 0.02428 0.02428
#
# Static dielectric constant tensor:
#      x y z
#    x 1.811690 0.000000 0.000000 
#    y 0.000000 1.811700 0.000000 
#    z 0.000000 0.000000 1.760580 
# 
# From -- ./inp_files/2539.got.cif
#   From: 2010.05.17/outbox.cif.g08.bks.cpg/sg138_2_cif.got.tgz:2539.got - 2010.05.20 13:08:53.
