data_PCOD9571669
_publ_section_title
;
Structure prediction by ZEFSAII (Michael W. Deem and Ramdas Pophale) SiO2 
 PCOD9571669
Probable space group: I 4/M M M
;
_chemical_formula_sum "Si O2"
_cell_formula_units_Z 160
_cell_length_a 24.632271
_cell_length_b 24.632271
_cell_length_c 14.066217
_cell_angle_alpha 90.000000
_cell_angle_beta 90.000000
_cell_angle_gamma 90.000000
_cell_volume 8534.659928
_symmetry_space_group_name_H-M "I 4/M M M"
_symmetry_group_IT_number 139
_symmetry_cell_setting 'tetragonal'
loop_
_space_group_symop_operation_xyz
x,y,z
-y,x,z
-x,-y,z
y,-x,z
x,-y,-z
-x,y,-z
y,x,-z
-y,-x,-z
-x,-y,-z
y,-x,-z
x,y,-z
-y,x,-z
-x,y,z
x,-y,z
-y,-x,z
y,x,z
1/2+x,1/2+y,1/2+z
1/2-y,1/2+x,1/2+z
1/2-x,1/2-y,1/2+z
1/2+y,1/2-x,1/2+z
1/2+x,1/2-y,1/2-z
1/2-x,1/2+y,1/2-z
1/2+y,1/2+x,1/2-z
1/2-y,1/2-x,1/2-z
1/2-x,1/2-y,1/2-z
1/2+y,1/2-x,1/2-z
1/2+x,1/2+y,1/2-z
1/2-y,1/2+x,1/2-z
1/2-x,1/2+y,1/2+z
1/2+x,1/2-y,1/2+z
1/2-y,1/2-x,1/2+z
1/2+y,1/2+x,1/2+z
loop_
_atom_site_type_symbol
_atom_site_label
_atom_site_fract_x
_atom_site_fract_y
_atom_site_fract_z
Si Si1 0.619874 0.168106 0.113459
Si Si2 0.062022 0.439197 0.614460
Si Si3 0.562479 0.250139 0.748453
Si Si4 0.938936 0.151436 0.393559
Si Si5 0.754628 0.664934 0.613849
O O1 0.606281 0.105685 0.138485
O O2 0.580700 0.203553 0.178196
O O3 0.682790 0.181988 0.132253
O O4 0.609807 0.175397 0.000000
O O5 0.061955 0.441666 0.500000
O O6 0.073428 0.500000 0.649163
O O7 0.000000 0.424236 0.640882
O O8 0.500000 0.242633 0.716476
O O9 0.565768 0.304284 0.812072
O O10 0.607647 0.253476 0.666486
O O11 0.931452 0.175881 0.500000
O O12 0.895031 0.104970 0.381911
O O13 0.000000 0.128987 0.390546
O O14 0.749822 0.657936 0.500000
O O15 0.710855 0.710855 0.643304
#
# Coordination Sequence:
#
# PCOD9571669 Si02
#       5
#    32  32  32  32  32
#     4  10  20  34  54  80 111 146 182 222 270 329
#     4   8  14  26  46  73 106 144 182 218 258 307
#     4  11  22  35  55  82 111 142 176 222 280 335
#     4   9  18  32  51  78 110 141 172 206 252 318
#     4  10  23  42  60  78 103 142 194 244 286 329
#
# _framework density 18.747084999999998
#
# number of rings (size 3 to 8) (size 9 to 14) (size 15 to 20)
#    0.000    2.400    0.000    3.000    0.000    5.800 
#    0.000    5.000    0.000    0.000    0.000    2.800 
#    0.000    0.000    0.000   18.600    0.000    0.400 
#
# Total GULP energy -446500.034792 kJ/mol
# GULP energy per Si atom -5581.250435 kJ/mol
# Density = 1.870442 g / cm^3
# Si number density = 18.747085 Si / 1000 Ang^3
#
#
#
# Elastic Constant Matrix: (Units=GPa)
#
#
# Indices 1 2 3 4 5 6 
#
# 1 87.6333 50.4008 13.7345 0.0000 0.0000 0.0000
# 2 50.4008 87.6333 13.7345 0.0000 0.0000 0.0000
# 3 13.7345 13.7345 59.8943 0.0000 0.0000 0.0000
# 4 0.0000 0.0000 0.0000 13.8886 0.0000 0.0000
# 5 0.0000 0.0000 0.0000 0.0000 13.8886 0.0000
# 6 0.0000 0.0000 0.0000 0.0000 0.0000 28.1792
#
#
#
# Elastic Compliance Matrix: (Units=1/GPa)
#
#
# Indices 1 2 3 4 5 6 
#
# 1 0.017225 -0.009634 -0.001741 0.000000 0.000000 0.000000
# 2 -0.009634 0.017225 -0.001741 0.000000 0.000000 0.000000
# 3 -0.001741 -0.001741 0.017494 0.000000 0.000000 0.000000
# 4 0.000000 0.000000 0.000000 0.072002 0.000000 0.000000
# 5 0.000000 0.000000 0.000000 0.000000 0.072002 0.000000
# 6 0.000000 0.000000 0.000000 0.000000 0.000000 0.035487
#
#
# Mechanical properties :
#
#
# Convention : Reuss Voigt Hill
#
# Bulk Modulus (GPa) = 38.88998 43.43337 41.16168
# Shear Modulus (GPa) = 18.78036 21.67734 20.22885
#
# Velocity S-wave (km/s) = 3.16852 3.40414 3.28844
# Velocity P-wave (km/s) = 5.84599 6.21846 6.03510
#
# Compressibility (1/GPa) = 0.02571356
#
# Stress axis : x y z
#
# Youngs Moduli (GPa) = 58.05647 58.05647 57.16117
#
# Poissons Ratio (x) = 0.55929 0.09950
# Poissons Ratio (y) = 0.55929 0.09950
# Poissons Ratio (z) = 0.10106 0.10106
#
# Static dielectric constant tensor:
#      x y z
#    x 1.615860 0.000000 0.000000 
#    y 0.000000 1.615860 0.000000 
#    z 0.000000 0.000000 1.680550 
# 
# From -- ./inp_files/5934.got.cif
#   From: 2010.05.17/outbox.cif.g08.bks.cpg/sg139_3_cif.got.tgz:5934.got - 2010.05.20 13:14:44.
