data_PCOD9571336
_publ_section_title
;
Structure prediction by ZEFSAII (Michael W. Deem and Ramdas Pophale) SiO2 
 PCOD9571336
Probable space group: I 4/M M M
;
_chemical_formula_sum "Si O2"
_cell_formula_units_Z 160
_cell_length_a 18.653757
_cell_length_b 18.653757
_cell_length_c 27.287704
_cell_angle_alpha 90.000000
_cell_angle_beta 90.000000
_cell_angle_gamma 90.000000
_cell_volume 9495.101802
_symmetry_space_group_name_H-M "I 4/M M M"
_symmetry_group_IT_number 139
_symmetry_cell_setting 'tetragonal'
loop_
_space_group_symop_operation_xyz
x,y,z
-y,x,z
-x,-y,z
y,-x,z
x,-y,-z
-x,y,-z
y,x,-z
-y,-x,-z
-x,-y,-z
y,-x,-z
x,y,-z
-y,x,-z
-x,y,z
x,-y,z
-y,-x,z
y,x,z
1/2+x,1/2+y,1/2+z
1/2-y,1/2+x,1/2+z
1/2-x,1/2-y,1/2+z
1/2+y,1/2-x,1/2+z
1/2+x,1/2-y,1/2-z
1/2-x,1/2+y,1/2-z
1/2+y,1/2+x,1/2-z
1/2-y,1/2-x,1/2-z
1/2-x,1/2-y,1/2-z
1/2+y,1/2-x,1/2-z
1/2+x,1/2+y,1/2-z
1/2-y,1/2+x,1/2-z
1/2-x,1/2+y,1/2+z
1/2+x,1/2-y,1/2+z
1/2-y,1/2-x,1/2+z
1/2+y,1/2+x,1/2+z
loop_
_atom_site_type_symbol
_atom_site_label
_atom_site_fract_x
_atom_site_fract_y
_atom_site_fract_z
Si Si1 0.798553 0.914834 0.345311
Si Si2 0.085867 0.275981 0.446528
Si Si3 0.918292 0.800239 0.942152
Si Si4 0.582186 0.143830 0.598603
Si Si5 0.356535 0.085485 0.300990
O O1 0.865004 0.865004 0.331234
O O2 0.772126 0.893197 0.400094
O O3 0.728074 0.903993 0.311816
O O4 0.815488 0.000000 0.345165
O O5 0.114204 0.254566 0.500000
O O6 0.106886 0.357677 0.434761
O O7 0.000000 0.272284 0.447707
O O8 0.860555 0.860555 0.930049
O O9 0.909493 0.728659 0.910545
O O10 0.000000 0.826450 0.936081
O O11 0.909771 0.781391 0.000000
O O12 0.500000 0.124800 0.586560
O O13 0.600605 0.120795 0.653890
O O14 0.381335 0.118666 0.250000
O O15 0.369821 0.000000 0.301557
#
# Coordination Sequence:
#
# PCOD9571336 Si02
#       5
#    32  32  32  32  32
#     4   9  19  35  53  75 101 127 161 203 243 287
#     4   9  18  31  46  67  98 135 169 199 235 281
#     4   9  18  32  49  70  97 129 166 207 248 291
#     4  10  19  30  46  71 100 127 160 201 243 292
#     4  10  21  36  54  76 100 128 163 201 241 287
#
# _framework density 16.850794
#
# number of rings (size 3 to 8) (size 9 to 14) (size 15 to 20)
#    0.000    2.600    0.000    3.000    0.000    8.200 
#    0.000    2.000    0.000    0.000    0.000    2.800 
#    0.000    6.400    0.000    0.000    0.000    0.000 
#
# Total GULP energy -445905.499967 kJ/mol
# GULP energy per Si atom -5573.818750 kJ/mol
# Density = 1.681244 g / cm^3
# Si number density = 16.850794 Si / 1000 Ang^3
#
#
#
# Elastic Constant Matrix: (Units=GPa)
#
#
# Indices 1 2 3 4 5 6 
#
# 1 73.3971 64.8063 39.9475 0.0000 0.0000 0.0000
# 2 64.8063 73.3961 39.9479 0.0000 0.0000 0.0000
# 3 39.9475 39.9479 89.2874 0.0000 0.0000 0.0000
# 4 0.0000 0.0000 0.0000 13.8116 0.0000 0.0000
# 5 0.0000 0.0000 0.0000 0.0000 13.8127 0.0000
# 6 0.0000 0.0000 0.0000 0.0000 0.0000 44.9933
#
#
#
# Elastic Compliance Matrix: (Units=1/GPa)
#
#
# Indices 1 2 3 4 5 6 
#
# 1 0.063085 -0.053325 -0.004366 0.000000 0.000000 0.000000
# 2 -0.053325 0.063086 -0.004367 0.000000 0.000000 0.000000
# 3 -0.004366 -0.004367 0.015107 0.000000 0.000000 0.000000
# 4 0.000000 0.000000 0.000000 0.072403 0.000000 0.000000
# 5 0.000000 0.000000 0.000000 0.000000 0.072397 0.000000
# 6 0.000000 0.000000 0.000000 0.000000 0.000000 0.022226
#
#
# Mechanical properties :
#
#
# Convention : Reuss Voigt Hill
#
# Bulk Modulus (GPa) = 58.27325 58.38710 58.33017
# Shear Modulus (GPa) = 11.41182 20.61544 16.01363
#
# Velocity S-wave (km/s) = 2.60518 3.50152 3.08607
# Velocity P-wave (km/s) = 6.61107 7.14648 6.88399
#
# Compressibility (1/GPa) = 0.01716053
#
# Stress axis : x y z
#
# Youngs Moduli (GPa) = 15.85167 15.85127 66.19356
#
# Poissons Ratio (x) = 0.84528 0.28901
# Poissons Ratio (y) = 0.84530 0.28909
# Poissons Ratio (z) = 0.06921 0.06923
#
# Static dielectric constant tensor:
#      x y z
#    x 1.557050 0.000000 0.000000 
#    y 0.000000 1.557050 0.000000 
#    z 0.000000 0.000000 1.576850 
# 
# From -- ./inp_files/12903.got.cif
#   From: 2010.05.17/outbox.cif.g08.bks.cpg/sg139_7_cif.got.tgz:12903.got - 2010.05.20 13:14:44.
