data_PCOD9571490
_publ_section_title
;
Structure prediction by ZEFSAII (Michael W. Deem and Ramdas Pophale) SiO2 
 PCOD9571490
Probable space group: I 4/M M M
;
_chemical_formula_sum "Si O2"
_cell_formula_units_Z 160
_cell_length_a 30.647421
_cell_length_b 30.647421
_cell_length_c 10.312103
_cell_angle_alpha 90.000000
_cell_angle_beta 90.000000
_cell_angle_gamma 90.000000
_cell_volume 9685.791381
_symmetry_space_group_name_H-M "I 4/M M M"
_symmetry_group_IT_number 139
_symmetry_cell_setting 'tetragonal'
loop_
_space_group_symop_operation_xyz
x,y,z
-y,x,z
-x,-y,z
y,-x,z
x,-y,-z
-x,y,-z
y,x,-z
-y,-x,-z
-x,-y,-z
y,-x,-z
x,y,-z
-y,x,-z
-x,y,z
x,-y,z
-y,-x,z
y,x,z
1/2+x,1/2+y,1/2+z
1/2-y,1/2+x,1/2+z
1/2-x,1/2-y,1/2+z
1/2+y,1/2-x,1/2+z
1/2+x,1/2-y,1/2-z
1/2-x,1/2+y,1/2-z
1/2+y,1/2+x,1/2-z
1/2-y,1/2-x,1/2-z
1/2-x,1/2-y,1/2-z
1/2+y,1/2-x,1/2-z
1/2+x,1/2+y,1/2-z
1/2-y,1/2+x,1/2-z
1/2-x,1/2+y,1/2+z
1/2+x,1/2-y,1/2+z
1/2-y,1/2-x,1/2+z
1/2+y,1/2+x,1/2+z
loop_
_atom_site_type_symbol
_atom_site_label
_atom_site_fract_x
_atom_site_fract_y
_atom_site_fract_z
Si Si1 0.799752 0.049008 0.000000
Si Si2 0.291150 0.947029 0.500000
Si Si3 0.550840 0.195724 0.500000
Si Si4 0.318714 0.889972 0.746000
Si Si5 0.400292 0.331673 0.249738
Si Si6 0.239813 0.169736 0.343683
Si Si7 0.813091 0.050997 0.500000
O O1 0.747780 0.046756 0.000000
O O2 0.813673 0.074432 0.127759
O O3 0.817623 0.000000 0.000000
O O4 0.310992 0.922807 0.625405
O O5 0.238877 0.937916 0.500000
O O6 0.297148 0.000000 0.500000
O O7 0.500000 0.178815 0.500000
O O8 0.580071 0.184809 0.626083
O O9 0.364446 0.864446 0.750000
O O10 0.282047 0.851267 0.727497
O O11 0.375634 0.375634 0.284417
O O12 0.364342 0.297317 0.198980
O O13 0.431190 0.335953 0.127180
O O14 0.247072 0.168915 0.500000
O O15 0.217211 0.217211 0.314111
O O16 0.814493 0.000000 0.500000
#
# Coordination Sequence:
#
# PCOD9571490 Si02
#       7
#    16  16  16  32  32  32  16
#     4  11  21  34  50  73 105 139 178 215 267 326
#     4  11  21  38  58  78 106 146 185 217 271 328
#     4  11  23  38  54  80 116 144 171 225 293 324
#     4  12  22  37  57  82 111 144 192 228 260 316
#     4  11  19  32  50  74 107 139 176 215 262 311
#     4  10  19  34  53  74 108 151 193 225 254 298
#     4  11  19  32  56  79  99 131 180 221 267 320
#
# _framework density 16.519043
#
# number of rings (size 3 to 8) (size 9 to 14) (size 15 to 20)
#    0.000    1.000    6.000    2.400    0.000    3.600 
#    0.000    0.500    0.000    0.000    0.000    0.000 
#    0.000   56.000    0.000    0.000    0.000    0.000 
#
# Total GULP energy -445855.136835 kJ/mol
# GULP energy per Si atom -5573.189210 kJ/mol
# Density = 1.648144 g / cm^3
# Si number density = 16.519043 Si / 1000 Ang^3
#
#
#
# Elastic Constant Matrix: (Units=GPa)
#
#
# Indices 1 2 3 4 5 6 
#
# 1 79.5673 52.1217 34.6519 0.0000 0.0000 0.0000
# 2 52.1217 79.5673 34.6519 0.0000 0.0000 0.0000
# 3 34.6519 34.6519 103.4928 0.0000 0.0000 0.0000
# 4 0.0000 0.0000 0.0000 77.8689 0.0000 0.0000
# 5 0.0000 0.0000 0.0000 0.0000 77.8689 0.0000
# 6 0.0000 0.0000 0.0000 0.0000 0.0000 22.5290
#
#
#
# Elastic Compliance Matrix: (Units=1/GPa)
#
#
# Indices 1 2 3 4 5 6 
#
# 1 0.022827 -0.013609 -0.003086 0.000000 0.000000 0.000000
# 2 -0.013609 0.022827 -0.003086 0.000000 0.000000 0.000000
# 3 -0.003086 -0.003086 0.011729 0.000000 0.000000 0.000000
# 4 0.000000 0.000000 0.000000 0.012842 0.000000 0.000000
# 5 0.000000 0.000000 0.000000 0.000000 0.012842 0.000000
# 6 0.000000 0.000000 0.000000 0.000000 0.000000 0.044387
#
#
# Mechanical properties :
#
#
# Convention : Reuss Voigt Hill
#
# Bulk Modulus (GPa) = 56.11798 56.16427 56.14112
# Shear Modulus (GPa) = 28.90884 45.06684 36.98784
#
# Velocity S-wave (km/s) = 4.18788 5.22886 4.73705
# Velocity P-wave (km/s) = 7.57825 8.39810 7.99869
#
# Compressibility (1/GPa) = 0.01781960
#
# Stress axis : x y z
#
# Youngs Moduli (GPa) = 43.80818 43.80818 85.25657
#
# Poissons Ratio (x) = 0.59618 0.26313
# Poissons Ratio (y) = 0.59618 0.26313
# Poissons Ratio (z) = 0.13521 0.13521
#
# Static dielectric constant tensor:
#      x y z
#    x 1.529210 0.000000 0.000000 
#    y 0.000000 1.529210 0.000000 
#    z 0.000000 0.000000 1.540560 
# 
# From -- ./inp_files/2304.got.cif
#   From: 2010.05.17/outbox.cif.g08.bks.cpg/sg139_2_cif.got.tgz:2304.got - 2010.05.20 13:14:44.
