data_PCOD9571651
_publ_section_title
;
Structure prediction by ZEFSAII (Michael W. Deem and Ramdas Pophale) SiO2 
 PCOD9571651
Probable space group: I 4/M M M
;
_chemical_formula_sum "Si O2"
_cell_formula_units_Z 160
_cell_length_a 24.093632
_cell_length_b 24.093632
_cell_length_c 13.764894
_cell_angle_alpha 90.000000
_cell_angle_beta 90.000000
_cell_angle_gamma 90.000000
_cell_volume 7990.563679
_symmetry_space_group_name_H-M "I 4/M M M"
_symmetry_group_IT_number 139
_symmetry_cell_setting 'tetragonal'
loop_
_space_group_symop_operation_xyz
x,y,z
-y,x,z
-x,-y,z
y,-x,z
x,-y,-z
-x,y,-z
y,x,-z
-y,-x,-z
-x,-y,-z
y,-x,-z
x,y,-z
-y,x,-z
-x,y,z
x,-y,z
-y,-x,z
y,x,z
1/2+x,1/2+y,1/2+z
1/2-y,1/2+x,1/2+z
1/2-x,1/2-y,1/2+z
1/2+y,1/2-x,1/2+z
1/2+x,1/2-y,1/2-z
1/2-x,1/2+y,1/2-z
1/2+y,1/2+x,1/2-z
1/2-y,1/2-x,1/2-z
1/2-x,1/2-y,1/2-z
1/2+y,1/2-x,1/2-z
1/2+x,1/2+y,1/2-z
1/2-y,1/2+x,1/2-z
1/2-x,1/2+y,1/2+z
1/2+x,1/2-y,1/2+z
1/2-y,1/2-x,1/2+z
1/2+y,1/2+x,1/2+z
loop_
_atom_site_type_symbol
_atom_site_label
_atom_site_fract_x
_atom_site_fract_y
_atom_site_fract_z
Si Si1 0.936012 0.847047 0.212891
Si Si2 0.563027 0.180911 0.818687
Si Si3 0.649782 0.264544 0.614112
Si Si4 0.205244 0.115649 0.384874
Si Si5 0.650599 0.899818 0.889311
O O1 0.903530 0.903530 0.188236
O O2 0.901053 0.797490 0.162876
O O3 0.927003 0.834314 0.326932
O O4 0.000000 0.846683 0.186154
O O5 0.500000 0.192511 0.849379
O O6 0.601749 0.233844 0.843323
O O7 0.591643 0.129209 0.872813
O O8 0.562892 0.165071 0.704038
O O9 0.643675 0.274837 0.500000
O O10 0.706209 0.293792 0.647576
O O11 0.646483 0.198901 0.623841
O O12 0.206393 0.107607 0.500000
O O13 0.175936 0.175936 0.366804
O O14 0.655221 0.921875 0.000000
#
# Coordination Sequence:
#
# PCOD9571651 Si02
#       5
#    32  32  32  32  32
#     4  10  20  34  52  78 113 154 201 250 297 347
#     4  11  23  39  61  90 124 160 199 245 297 357
#     4   9  18  34  56  83 116 153 193 241 300 361
#     4  10  21  36  55  82 116 157 202 245 293 346
#     4  10  22  38  59  90 121 153 197 245 298 362
#
# _framework density 20.023617999999999
#
# number of rings (size 3 to 8) (size 9 to 14) (size 15 to 20)
#    0.000    2.000    2.000    1.200    0.000    4.600 
#    0.000    6.000    0.000    4.800    0.000   11.200 
#    0.000    0.000    0.000    0.000    0.000    0.000 
#
# Total GULP energy -445628.415968 kJ/mol
# GULP energy per Si atom -5570.355200 kJ/mol
# Density = 1.997804 g / cm^3
# Si number density = 20.023618 Si / 1000 Ang^3
#
#
#
# Elastic Constant Matrix: (Units=GPa)
#
#
# Indices 1 2 3 4 5 6 
#
# 1 64.9257 53.4873 17.3943 0.0000 0.0000 0.0000
# 2 53.4873 64.9257 17.3943 0.0000 0.0000 0.0000
# 3 17.3943 17.3943 66.6524 0.0000 0.0000 0.0000
# 4 0.0000 0.0000 0.0000 11.1548 0.0000 0.0000
# 5 0.0000 0.0000 0.0000 0.0000 11.1548 0.0000
# 6 0.0000 0.0000 0.0000 0.0000 0.0000 5.6437
#
#
#
# Elastic Compliance Matrix: (Units=1/GPa)
#
#
# Indices 1 2 3 4 5 6 
#
# 1 0.048285 -0.039139 -0.002387 0.000000 0.000000 0.000000
# 2 -0.039139 0.048285 -0.002387 0.000000 0.000000 0.000000
# 3 -0.002387 -0.002387 0.016249 0.000000 0.000000 0.000000
# 4 0.000000 0.000000 0.000000 0.089647 0.000000 0.000000
# 5 0.000000 0.000000 0.000000 0.000000 0.089647 0.000000
# 6 0.000000 0.000000 0.000000 0.000000 0.000000 0.177188
#
#
# Mechanical properties :
#
#
# Convention : Reuss Voigt Hill
#
# Bulk Modulus (GPa) = 40.00965 41.45059 40.73012
# Shear Modulus (GPa) = 8.84236 12.80588 10.82412
#
# Velocity S-wave (km/s) = 2.10370 2.53165 2.32753
# Velocity P-wave (km/s) = 5.09169 5.41216 5.25437
#
# Compressibility (1/GPa) = 0.02499397
#
# Stress axis : x y z
#
# Youngs Moduli (GPa) = 20.71018 20.71018 61.54212
#
# Poissons Ratio (x) = 0.81058 0.14689
# Poissons Ratio (y) = 0.81058 0.14689
# Poissons Ratio (z) = 0.04943 0.04943
#
# Static dielectric constant tensor:
#      x y z
#    x 1.707120 0.000000 0.000000 
#    y 0.000000 1.707120 0.000000 
#    z 0.000000 0.000000 1.764850 
# 
# From -- ./inp_files/5917.got.cif
#   From: 2010.05.17/outbox.cif.g08.bks.cpg/sg139_3_cif.got.tgz:5917.got - 2010.05.20 13:14:44.
