data_PCOD9571404
_publ_section_title
;
Structure prediction by ZEFSAII (Michael W. Deem and Ramdas Pophale) SiO2 
 PCOD9571404
Probable space group: I 4/M M M
;
_chemical_formula_sum "Si O2"
_cell_formula_units_Z 192
_cell_length_a 28.407888
_cell_length_b 28.407888
_cell_length_c 14.812463
_cell_angle_alpha 90.000000
_cell_angle_beta 90.000000
_cell_angle_gamma 90.000000
_cell_volume 11953.777631
_symmetry_space_group_name_H-M "I 4/M M M"
_symmetry_group_IT_number 139
_symmetry_cell_setting 'tetragonal'
loop_
_space_group_symop_operation_xyz
x,y,z
-y,x,z
-x,-y,z
y,-x,z
x,-y,-z
-x,y,-z
y,x,-z
-y,-x,-z
-x,-y,-z
y,-x,-z
x,y,-z
-y,x,-z
-x,y,z
x,-y,z
-y,-x,z
y,x,z
1/2+x,1/2+y,1/2+z
1/2-y,1/2+x,1/2+z
1/2-x,1/2-y,1/2+z
1/2+y,1/2-x,1/2+z
1/2+x,1/2-y,1/2-z
1/2-x,1/2+y,1/2-z
1/2+y,1/2+x,1/2-z
1/2-y,1/2-x,1/2-z
1/2-x,1/2-y,1/2-z
1/2+y,1/2-x,1/2-z
1/2+x,1/2+y,1/2-z
1/2-y,1/2+x,1/2-z
1/2-x,1/2+y,1/2+z
1/2+x,1/2-y,1/2+z
1/2-y,1/2-x,1/2+z
1/2+y,1/2+x,1/2+z
loop_
_atom_site_type_symbol
_atom_site_label
_atom_site_fract_x
_atom_site_fract_y
_atom_site_fract_z
Si Si1 0.289312 0.710689 0.392593
Si Si2 0.113967 0.812085 0.398248
Si Si3 0.826753 0.946920 0.770164
Si Si4 0.713457 0.052791 0.214869
Si Si5 0.601408 0.201070 0.896304
Si Si6 0.299804 0.149530 0.892089
Si Si7 0.630944 0.369057 0.394341
O O1 0.281255 0.718746 0.500000
O O2 0.313824 0.759124 0.358294
O O3 0.329132 0.670869 0.380911
O O4 0.098539 0.823222 0.500000
O O5 0.164879 0.835122 0.384019
O O6 0.079085 0.833266 0.324977
O O7 0.115440 0.756078 0.390442
O O8 0.770340 0.947889 0.783682
O O9 0.850540 0.915806 0.846682
O O10 0.844244 0.000000 0.769111
O O11 0.694890 0.063910 0.316234
O O12 0.701664 0.098503 0.154813
O O13 0.698068 0.000000 0.186161
O O14 0.648689 0.171661 0.879047
O O15 0.585401 0.192265 0.000000
O O16 0.291900 0.143642 0.000000
O O17 0.624320 0.375681 0.500000
#
# Coordination Sequence:
#
# PCOD9571404 Si02
#       7
#    16  32  32  32  32  32  16
#     4   9  18  30  46  69  98 133 162 195 239 287
#     4   9  17  30  49  73  99 125 155 192 236 291
#     4  10  20  33  49  69  93 124 164 207 249 292
#     4  10  20  33  48  69  98 133 173 206 236 279
#     4   9  19  32  48  72 102 133 162 196 237 287
#     4  10  19  32  49  73 104 134 166 200 241 290
#     4  11  20  34  50  67  96 126 164 207 246 295
#
# _framework density 16.061869000000002
#
# number of rings (size 3 to 8) (size 9 to 14) (size 15 to 20)
#    0.000    2.333    2.500    0.500    1.167    1.333 
#    0.000    5.833    0.000    0.250    0.000    0.583 
#    0.000    6.667    0.000   14.667    0.000    0.333 
#
# Total GULP energy -534799.582270 kJ/mol
# GULP energy per Si atom -5570.828982 kJ/mol
# Density = 1.602531 g / cm^3
# Si number density = 16.061869 Si / 1000 Ang^3
#
#
#
# Elastic Constant Matrix: (Units=GPa)
#
#
# Indices 1 2 3 4 5 6 
#
# 1 45.8948 40.0621 34.3888 0.0000 0.0000 0.0000
# 2 40.0621 45.8945 34.3897 0.0000 0.0000 0.0000
# 3 34.3888 34.3897 52.5325 0.0000 0.0000 0.0000
# 4 0.0000 0.0000 0.0000 15.7116 0.0000 0.0000
# 5 0.0000 0.0000 0.0000 0.0000 15.7116 0.0000
# 6 0.0000 0.0000 0.0000 0.0000 0.0000 6.2999
#
#
#
# Elastic Compliance Matrix: (Units=1/GPa)
#
#
# Indices 1 2 3 4 5 6 
#
# 1 0.097938 -0.073511 -0.015989 0.000000 0.000000 0.000000
# 2 -0.073511 0.097945 -0.015996 0.000000 0.000000 0.000000
# 3 -0.015989 -0.015996 0.039975 0.000000 0.000000 0.000000
# 4 0.000000 0.000000 0.000000 0.063647 0.000000 0.000000
# 5 0.000000 0.000000 0.000000 0.000000 0.063647 0.000000
# 6 0.000000 0.000000 0.000000 0.000000 0.000000 0.158732
#
#
# Mechanical properties :
#
#
# Convention : Reuss Voigt Hill
#
# Bulk Modulus (GPa) = 40.21868 40.22255 40.22062
# Shear Modulus (GPa) = 6.74613 9.91003 8.32808
#
# Velocity S-wave (km/s) = 2.05163 2.48663 2.27953
# Velocity P-wave (km/s) = 5.54134 5.77417 5.65895
#
# Compressibility (1/GPa) = 0.02486407
#
# Stress axis : x y z
#
# Youngs Moduli (GPa) = 10.21049 10.20985 25.01587
#
# Poissons Ratio (x) = 0.75054 0.39999
# Poissons Ratio (y) = 0.75058 0.40016
# Poissons Ratio (z) = 0.16326 0.16332
#
# Static dielectric constant tensor:
#      x y z
#    x 1.524860 0.000000 0.000000 
#    y 0.000000 1.524860 0.000000 
#    z 0.000000 0.000000 1.579300 
# 
# From -- ./inp_files/6514.got.cif
#   From: 2010.05.17/outbox.cif.g08.bks.cpg/sg139_4_cif.got.tgz:6514.got - 2010.05.20 13:14:44.
