data_PCOD9571020
_publ_section_title
;
Structure prediction by ZEFSAII (Michael W. Deem and Ramdas Pophale) SiO2 
 PCOD9571020
Probable space group: P 42/N C M
;
_chemical_formula_sum "Si O2"
_cell_formula_units_Z 60
_cell_length_a 11.556041
_cell_length_b 11.556041
_cell_length_c 22.723548
_cell_angle_alpha 90.000000
_cell_angle_beta 90.000000
_cell_angle_gamma 90.000000
_cell_volume 3034.549947
_symmetry_space_group_name_H-M "P 42/N C M"
_symmetry_group_IT_number 138
_space_group.IT_coordinate_system_code '2'
_symmetry_cell_setting 'tetragonal'
loop_
_space_group_symop_operation_xyz
x,y,z
1/2-y,x,1/2+z
1/2-x,1/2-y,z
y,1/2-x,1/2+z
1/2+x,-y,1/2-z
-x,1/2+y,1/2-z
1/2+y,1/2+x,-z
-y,-x,-z
-x,-y,-z
1/2+y,-x,1/2-z
1/2+x,1/2+y,-z
-y,1/2+x,1/2-z
1/2-x,y,1/2+z
x,1/2-y,1/2+z
1/2-y,1/2-x,z
y,x,z
loop_
_atom_site_type_symbol
_atom_site_label
_atom_site_fract_x
_atom_site_fract_y
_atom_site_fract_z
Si Si1 0.349045 0.349045 0.539038
Si Si2 0.543000 0.957001 0.842909
Si Si3 0.484892 0.682440 0.032504
Si Si4 0.750000 0.250000 0.250000
Si Si5 0.231993 0.548813 0.837395
Si Si6 0.339166 0.339166 0.768075
O O1 0.250000 0.250000 0.548461
O O2 0.398456 0.398456 0.600101
O O3 0.452539 0.287531 0.502246
O O4 0.562968 0.094442 0.841887
O O5 0.595033 0.904968 0.783379
O O6 0.583591 0.583591 0.037726
O O7 0.446258 0.719032 0.097170
O O8 0.376847 0.623154 0.000000
O O9 0.854616 0.281074 0.293304
O O10 0.268893 0.427600 0.808870
O O11 0.250000 0.250000 0.739758
#
# Coordination Sequence:
#
# PCOD9571020 Si02
#       6
#     8   8  16   4  16   8
#     4  10  24  47  69 100 142 178 233 286 346 432
#     4  12  26  45  67 104 137 179 234 295 343 414
#     4  10  23  43  71 102 135 184 229 283 355 422
#     4  12  28  44  62 108 144 172 232 302 344 404
#     4  12  25  44  70  98 140 181 233 290 348 418
#     4  12  25  45  73 100 133 193 234 278 360 419
#
# _framework density 19.772290000000002
#
# number of rings (size 3 to 8) (size 9 to 14) (size 15 to 20)
#    0.000    0.800    5.333    1.200    3.733    2.133 
#    0.000    0.000    0.000    0.000    0.000    0.000 
#    0.000    0.000    0.000    0.000    0.000    0.000 
#
# Total GULP energy -335533.110725 kJ/mol
# GULP energy per Si atom -5592.218512 kJ/mol
# Density = 1.972729 g / cm^3
# Si number density = 19.772290 Si / 1000 Ang^3
#
#
#
# Elastic Constant Matrix: (Units=GPa)
#
#
# Indices 1 2 3 4 5 6 
#
# 1 89.0511 58.7507 76.6330 0.0000 0.0000 0.0000
# 2 58.7507 89.0476 76.6329 0.0000 0.0000 0.0000
# 3 76.6330 76.6329 193.7476 0.0000 0.0000 0.0000
# 4 0.0000 0.0000 0.0000 34.5168 0.0000 0.0000
# 5 0.0000 0.0000 0.0000 0.0000 34.5173 0.0000
# 6 0.0000 0.0000 0.0000 0.0000 0.0000 29.3478
#
#
#
# Elastic Compliance Matrix: (Units=1/GPa)
#
#
# Indices 1 2 3 4 5 6 
#
# 1 0.022237 -0.010767 -0.004537 0.000000 0.000000 0.000000
# 2 -0.010767 0.022238 -0.004537 0.000000 0.000000 0.000000
# 3 -0.004537 -0.004537 0.008750 0.000000 0.000000 0.000000
# 4 0.000000 0.000000 0.000000 0.028971 0.000000 0.000000
# 5 0.000000 0.000000 0.000000 0.000000 0.028971 0.000000
# 6 0.000000 0.000000 0.000000 0.000000 0.000000 0.034074
#
#
# Mechanical properties :
#
#
# Convention : Reuss Voigt Hill
#
# Bulk Modulus (GPa) = 73.83473 88.43107 81.13290
# Shear Modulus (GPa) = 26.39371 30.33167 28.36269
#
# Velocity S-wave (km/s) = 3.65757 3.92094 3.79154
# Velocity P-wave (km/s) = 7.43375 8.08209 7.76469
#
# Compressibility (1/GPa) = 0.01354376
#
# Stress axis : x y z
#
# Youngs Moduli (GPa) = 44.96993 44.96735 114.28058
#
# Poissons Ratio (x) = 0.48417 0.51846
# Poissons Ratio (y) = 0.48419 0.51852
# Poissons Ratio (z) = 0.20402 0.20403
#
# Static dielectric constant tensor:
#      x y z
#    x 1.700140 0.000000 0.000000 
#    y 0.000000 1.700140 0.000000 
#    z 0.000000 0.000000 1.632230 
# 
# From -- ./inp_files/5899.got.cif
#   From: 2010.05.17/outbox.cif.g08.bks.cpg/sg138_3_cif.got.tgz:5899.got - 2010.05.20 13:08:53.
