data_PCOD9571077
_publ_section_title
;
Structure prediction by ZEFSAII (Michael W. Deem and Ramdas Pophale) SiO2 
 PCOD9571077
Probable space group: P 42/N C M
;
_chemical_formula_sum "Si O2"
_cell_formula_units_Z 96
_cell_length_a 22.141673
_cell_length_b 22.141673
_cell_length_c 8.952823
_cell_angle_alpha 90.000000
_cell_angle_beta 90.000000
_cell_angle_gamma 90.000000
_cell_volume 4389.154451
_symmetry_space_group_name_H-M "P 42/N C M"
_symmetry_group_IT_number 138
_space_group.IT_coordinate_system_code '2'
_symmetry_cell_setting 'tetragonal'
loop_
_space_group_symop_operation_xyz
x,y,z
1/2-y,x,1/2+z
1/2-x,1/2-y,z
y,1/2-x,1/2+z
1/2+x,-y,1/2-z
-x,1/2+y,1/2-z
1/2+y,1/2+x,-z
-y,-x,-z
-x,-y,-z
1/2+y,-x,1/2-z
1/2+x,1/2+y,-z
-y,1/2+x,1/2-z
1/2-x,y,1/2+z
x,1/2-y,1/2+z
1/2-y,1/2-x,z
y,x,z
loop_
_atom_site_type_symbol
_atom_site_label
_atom_site_fract_x
_atom_site_fract_y
_atom_site_fract_z
Si Si1 0.616699 0.473116 0.941496
Si Si2 0.956625 0.700339 0.940851
Si Si3 0.990123 0.411528 0.898461
Si Si4 0.316571 0.415556 0.902190
Si Si5 0.344800 0.754741 0.798457
Si Si6 0.420976 0.737632 0.045352
O O1 0.615642 0.472927 0.762055
O O2 0.668078 0.428939 0.005279
O O3 0.553010 0.446991 0.000000
O O4 0.640070 0.537277 0.007069
O O5 0.941358 0.693396 0.765960
O O6 0.021287 0.728602 0.983818
O O7 0.965493 0.634583 0.014951
O O8 0.913221 0.750967 0.016787
O O9 0.028056 0.471945 0.864800
O O10 0.933300 0.433300 0.000000
O O11 0.352647 0.352647 0.895340
O O12 0.308257 0.694097 0.769402
O O13 0.360247 0.761934 0.970060
O O14 0.409516 0.753076 0.718512
#
# Coordination Sequence:
#
# PCOD9571077 Si02
#       6
#    16  16  16  16  16  16
#     4  11  22  38  61  91 129 170 216 271 334 405
#     4  11  23  42  66  94 128 167 217 274 338 412
#     4  11  24  41  65  98 133 169 211 265 332 405
#     4  11  24  43  69  97 130 176 222 276 347 414
#     4  11  22  35  52  76 113 162 213 264 319 383
#     4  11  22  37  56  82 114 156 208 262 322 385
#
# _framework density 21.872095999999999
#
# number of rings (size 3 to 8) (size 9 to 14) (size 15 to 20)
#    0.000    1.000    0.000    9.000    0.000    6.667 
#    0.000    0.833    0.000    4.000    0.000    0.000 
#    0.000    0.000    0.000    0.000    0.000    0.000 
#
# Total GULP energy -536164.793382 kJ/mol
# GULP energy per Si atom -5585.049931 kJ/mol
# Density = 2.182231 g / cm^3
# Si number density = 21.872096 Si / 1000 Ang^3
#
#
#
# Elastic Constant Matrix: (Units=GPa)
#
#
# Indices 1 2 3 4 5 6 
#
# 1 77.1629 37.5658 29.6802 0.0000 0.0000 0.0000
# 2 37.5658 77.1613 29.6807 0.0000 0.0000 0.0000
# 3 29.6802 29.6807 138.3626 0.0000 0.0000 0.0000
# 4 0.0000 0.0000 0.0000 14.4700 0.0000 0.0000
# 5 0.0000 0.0000 0.0000 0.0000 14.4708 0.0000
# 6 0.0000 0.0000 0.0000 0.0000 0.0000 39.2167
#
#
#
# Elastic Compliance Matrix: (Units=1/GPa)
#
#
# Indices 1 2 3 4 5 6 
#
# 1 0.017529 -0.007725 -0.002103 0.000000 0.000000 0.000000
# 2 -0.007725 0.017530 -0.002103 0.000000 0.000000 0.000000
# 3 -0.002103 -0.002103 0.008130 0.000000 0.000000 0.000000
# 4 0.000000 0.000000 0.000000 0.069109 0.000000 0.000000
# 5 0.000000 0.000000 0.000000 0.000000 0.069105 0.000000
# 6 0.000000 0.000000 0.000000 0.000000 0.000000 0.025499
#
#
# Mechanical properties :
#
#
# Convention : Reuss Voigt Hill
#
# Bulk Modulus (GPa) = 51.74393 54.06000 52.90197
# Shear Modulus (GPa) = 21.07865 26.68216 23.88041
#
# Velocity S-wave (km/s) = 3.10776 3.49652 3.30786
# Velocity P-wave (km/s) = 6.04867 6.40866 6.23127
#
# Compressibility (1/GPa) = 0.01932594
#
# Stress axis : x y z
#
# Youngs Moduli (GPa) = 57.04684 57.04536 123.00575
#
# Poissons Ratio (x) = 0.44069 0.25869
# Poissons Ratio (y) = 0.44070 0.25871
# Poissons Ratio (z) = 0.11997 0.11998
#
# Static dielectric constant tensor:
#      x y z
#    x 1.834280 0.000000 0.000000 
#    y 0.000000 1.834280 0.000000 
#    z 0.000000 0.000000 1.757300 
# 
# From -- ./inp_files/1706.got.cif
#   From: 2010.05.17/outbox.cif.g08.bks.cpg/sg138_1_cif.got.tgz:1706.got - 2010.05.20 13:08:53.
