data_PCOD9571661
_publ_section_title
;
Structure prediction by ZEFSAII (Michael W. Deem and Ramdas Pophale) SiO2 
 PCOD9571661
Probable space group: I 4/M M M
;
_chemical_formula_sum "Si O2"
_cell_formula_units_Z 176
_cell_length_a 19.320752
_cell_length_b 19.320752
_cell_length_c 27.460270
_cell_angle_alpha 90.000000
_cell_angle_beta 90.000000
_cell_angle_gamma 90.000000
_cell_volume 10250.684221
_symmetry_space_group_name_H-M "I 4/M M M"
_symmetry_group_IT_number 139
_symmetry_cell_setting 'tetragonal'
loop_
_space_group_symop_operation_xyz
x,y,z
-y,x,z
-x,-y,z
y,-x,z
x,-y,-z
-x,y,-z
y,x,-z
-y,-x,-z
-x,-y,-z
y,-x,-z
x,y,-z
-y,x,-z
-x,y,z
x,-y,z
-y,-x,z
y,x,z
1/2+x,1/2+y,1/2+z
1/2-y,1/2+x,1/2+z
1/2-x,1/2-y,1/2+z
1/2+y,1/2-x,1/2+z
1/2+x,1/2-y,1/2-z
1/2-x,1/2+y,1/2-z
1/2+y,1/2+x,1/2-z
1/2-y,1/2-x,1/2-z
1/2-x,1/2-y,1/2-z
1/2+y,1/2-x,1/2-z
1/2+x,1/2+y,1/2-z
1/2-y,1/2+x,1/2-z
1/2-x,1/2+y,1/2+z
1/2+x,1/2-y,1/2+z
1/2-y,1/2-x,1/2+z
1/2+y,1/2+x,1/2+z
loop_
_atom_site_type_symbol
_atom_site_label
_atom_site_fract_x
_atom_site_fract_y
_atom_site_fract_z
Si Si1 0.420546 0.810487 0.768023
Si Si2 0.315803 0.575314 0.942670
Si Si3 0.350474 0.763929 0.596250
Si Si4 0.175549 0.422103 0.116891
Si Si5 0.196861 0.083083 0.000000
Si Si6 0.806340 0.918146 0.191195
O O1 0.500000 0.828316 0.755689
O O2 0.369462 0.869462 0.750000
O O3 0.415400 0.805988 0.826127
O O4 0.404198 0.740501 0.738825
O O5 0.349709 0.500000 0.937757
O O6 0.365403 0.634597 0.924205
O O7 0.244934 0.574662 0.914295
O O8 0.302267 0.586259 0.000000
O O9 0.273365 0.726636 0.594721
O O10 0.355286 0.847533 0.600727
O O11 0.389565 0.737133 0.547959
O O12 0.387240 0.733026 0.644201
O O13 0.141518 0.500000 0.111059
O O14 0.122847 0.122847 0.000000
O O15 0.190981 0.000000 0.000000
O O16 0.878294 0.878294 0.195299
O O17 0.814689 0.000000 0.185708
#
# Coordination Sequence:
#
# PCOD9571661 Si02
#       6
#    32  32  32  32  16  32
#     4  10  20  36  56  80 109 140 179 224 270 317
#     4   9  18  31  48  72 103 139 179 223 268 315
#     4  10  20  35  57  82 109 144 185 228 272 321
#     4  10  20  34  53  79 110 144 181 224 271 320
#     4  10  22  39  61  87 113 143 178 222 274 326
#     4  10  21  36  56  81 110 143 179 223 274 327
#
# _framework density 17.169585999999999
#
# number of rings (size 3 to 8) (size 9 to 14) (size 15 to 20)
#    0.000    2.182    1.818    1.091    1.273    2.455 
#    0.000    0.909    0.000    6.000    0.000    5.091 
#    0.000    0.000    0.000    0.000    0.000    0.000 
#
# Total GULP energy -489988.678114 kJ/mol
# GULP energy per Si atom -5568.053160 kJ/mol
# Density = 1.713051 g / cm^3
# Si number density = 17.169586 Si / 1000 Ang^3
#
#
#
# Elastic Constant Matrix: (Units=GPa)
#
#
# Indices 1 2 3 4 5 6 
#
# 1 107.6885 49.5506 31.4476 0.0000 0.0000 0.0000
# 2 49.5506 107.6885 31.4476 0.0000 0.0000 0.0000
# 3 31.4476 31.4476 47.2501 0.0000 0.0000 0.0000
# 4 0.0000 0.0000 0.0000 9.1278 0.0000 0.0000
# 5 0.0000 0.0000 0.0000 0.0000 9.1278 0.0000
# 6 0.0000 0.0000 0.0000 0.0000 0.0000 66.2457
#
#
#
# Elastic Compliance Matrix: (Units=1/GPa)
#
#
# Indices 1 2 3 4 5 6 
#
# 1 0.012934 -0.004267 -0.005768 0.000000 0.000000 0.000000
# 2 -0.004267 0.012934 -0.005768 0.000000 0.000000 0.000000
# 3 -0.005768 -0.005768 0.028842 0.000000 0.000000 0.000000
# 4 0.000000 0.000000 0.000000 0.109556 0.000000 0.000000
# 5 0.000000 0.000000 0.000000 0.000000 0.109556 0.000000
# 6 0.000000 0.000000 0.000000 0.000000 0.000000 0.015095
#
#
# Mechanical properties :
#
#
# Convention : Reuss Voigt Hill
#
# Bulk Modulus (GPa) = 43.28467 54.16871 48.72669
# Shear Modulus (GPa) = 15.23345 26.91234 21.07290
#
# Velocity S-wave (km/s) = 2.98188 3.96339 3.50714
# Velocity P-wave (km/s) = 6.09264 7.24999 6.69637
#
# Compressibility (1/GPa) = 0.02310287
#
# Stress axis : x y z
#
# Youngs Moduli (GPa) = 77.31687 77.31687 34.67116
#
# Poissons Ratio (x) = 0.32989 0.20000
# Poissons Ratio (y) = 0.32989 0.20000
# Poissons Ratio (z) = 0.44600 0.44600
#
# Static dielectric constant tensor:
#      x y z
#    x 1.578090 0.000000 0.000000 
#    y 0.000000 1.578090 0.000000 
#    z 0.000000 0.000000 1.559490 
# 
# From -- ./inp_files/13086.got.cif
#   From: 2010.05.17/outbox.cif.g08.bks.cpg/sg139_7_cif.got.tgz:13086.got - 2010.05.20 13:14:44.
