data_PCOD9571803
_publ_section_title
;
Structure prediction by ZEFSAII (Michael W. Deem and Ramdas Pophale) SiO2 
 PCOD9571803
Probable space group: I 4/M M M
;
_chemical_formula_sum "Si O2"
_cell_formula_units_Z 160
_cell_length_a 18.827558
_cell_length_b 18.827558
_cell_length_c 27.228439
_cell_angle_alpha 90.000000
_cell_angle_beta 90.000000
_cell_angle_gamma 90.000000
_cell_volume 9651.853744
_symmetry_space_group_name_H-M "I 4/M M M"
_symmetry_group_IT_number 139
_symmetry_cell_setting 'tetragonal'
loop_
_space_group_symop_operation_xyz
x,y,z
-y,x,z
-x,-y,z
y,-x,z
x,-y,-z
-x,y,-z
y,x,-z
-y,-x,-z
-x,-y,-z
y,-x,-z
x,y,-z
-y,x,-z
-x,y,z
x,-y,z
-y,-x,z
y,x,z
1/2+x,1/2+y,1/2+z
1/2-y,1/2+x,1/2+z
1/2-x,1/2-y,1/2+z
1/2+y,1/2-x,1/2+z
1/2+x,1/2-y,1/2-z
1/2-x,1/2+y,1/2-z
1/2+y,1/2+x,1/2-z
1/2-y,1/2-x,1/2-z
1/2-x,1/2-y,1/2-z
1/2+y,1/2-x,1/2-z
1/2+x,1/2+y,1/2-z
1/2-y,1/2+x,1/2-z
1/2-x,1/2+y,1/2+z
1/2+x,1/2-y,1/2+z
1/2-y,1/2-x,1/2+z
1/2+y,1/2+x,1/2+z
loop_
_atom_site_type_symbol
_atom_site_label
_atom_site_fract_x
_atom_site_fract_y
_atom_site_fract_z
Si Si1 0.642445 0.816831 0.129607
Si Si2 0.180471 0.583798 0.716075
Si Si3 0.918555 0.918555 0.559560
Si Si4 0.584153 0.079340 0.946803
Si Si5 0.799186 0.200815 0.440743
Si Si6 0.918878 0.799092 0.297546
O O1 0.685362 0.864067 0.169189
O O2 0.597132 0.873207 0.099925
O O3 0.680786 0.773464 0.086514
O O4 0.599397 0.757929 0.160092
O O5 0.167494 0.500000 0.705154
O O6 0.117412 0.617412 0.750000
O O7 0.252498 0.588253 0.747896
O O8 0.920035 0.920035 0.500000
O O9 0.859499 0.859499 0.571907
O O10 0.000000 0.901612 0.575533
O O11 0.500000 0.073384 0.950665
O O12 0.614112 0.000000 0.940666
O O13 0.609671 0.107936 0.000000
O O14 0.794987 0.205014 0.500000
O O15 0.862522 0.862522 0.299128
O O16 0.000000 0.823675 0.302181
#
# Coordination Sequence:
#
# PCOD9571803 Si02
#       6
#    32  32  16  32  16  32
#     4  11  20  34  52  73 105 138 174 213 258 315
#     4   9  20  35  57  81 105 134 170 211 261 319
#     4   8  16  33  52  65  85 124 174 226 269 297
#     4   9  18  32  50  72  99 134 175 218 262 303
#     4  11  23  34  48  77 105 140 184 225 266 309
#     4  10  21  37  55  78 104 134 174 213 262 317
#
# _framework density 16.577126
#
# number of rings (size 3 to 8) (size 9 to 14) (size 15 to 20)
#    0.000    2.300    1.000    2.700    1.400    4.000 
#    0.000    2.000    0.000    0.000    0.000    0.000 
#    0.000    0.000    0.000    0.000    0.000    8.800 
#
# Total GULP energy -445385.145825 kJ/mol
# GULP energy per Si atom -5567.314323 kJ/mol
# Density = 1.653940 g / cm^3
# Si number density = 16.577126 Si / 1000 Ang^3
#
#
#
# Elastic Constant Matrix: (Units=GPa)
#
#
# Indices 1 2 3 4 5 6 
#
# 1 77.5681 59.5769 50.3639 0.0000 0.0000 0.0000
# 2 59.5769 77.5678 50.3634 0.0000 0.0000 0.0000
# 3 50.3639 50.3634 109.2896 0.0000 0.0000 0.0000
# 4 0.0000 0.0000 0.0000 25.0474 0.0000 0.0000
# 5 0.0000 0.0000 0.0000 0.0000 25.0473 0.0000
# 6 0.0000 0.0000 0.0000 0.0000 0.0000 36.3086
#
#
#
# Elastic Compliance Matrix: (Units=1/GPa)
#
#
# Indices 1 2 3 4 5 6 
#
# 1 0.033303 -0.022281 -0.005079 0.000000 0.000000 0.000000
# 2 -0.022281 0.033303 -0.005079 0.000000 0.000000 0.000000
# 3 -0.005079 -0.005079 0.013831 0.000000 0.000000 0.000000
# 4 0.000000 0.000000 0.000000 0.039924 0.000000 0.000000
# 5 0.000000 0.000000 0.000000 0.000000 0.039924 0.000000
# 6 0.000000 0.000000 0.000000 0.000000 0.000000 0.027542
#
#
# Mechanical properties :
#
#
# Convention : Reuss Voigt Hill
#
# Bulk Modulus (GPa) = 64.27399 65.00377 64.63888
# Shear Modulus (GPa) = 19.38800 24.22208 21.80504
#
# Velocity S-wave (km/s) = 3.42360 3.82668 3.63074
# Velocity P-wave (km/s) = 7.38139 7.66960 7.52687
#
# Compressibility (1/GPa) = 0.01555839
#
# Stress axis : x y z
#
# Youngs Moduli (GPa) = 30.02758 30.02766 72.29962
#
# Poissons Ratio (x) = 0.66903 0.36724
# Poissons Ratio (y) = 0.66903 0.36722
# Poissons Ratio (z) = 0.15252 0.15251
#
# Static dielectric constant tensor:
#      x y z
#    x 1.584210 0.000000 0.000000 
#    y 0.000000 1.584210 0.000000 
#    z 0.000000 0.000000 1.616320 
# 
# From -- ./inp_files/12958.got.cif
#   From: 2010.05.17/outbox.cif.g08.bks.cpg/sg139_7_cif.got.tgz:12958.got - 2010.05.20 13:14:44.
