data_PCOD9571014
_publ_section_title
;
Structure prediction by ZEFSAII (Michael W. Deem and Ramdas Pophale) SiO2 
 PCOD9571014
Probable space group: P 42/N C M
;
_chemical_formula_sum "Si O2"
_cell_formula_units_Z 64
_cell_length_a 18.725319
_cell_length_b 18.725319
_cell_length_c 10.024599
_cell_angle_alpha 90.000000
_cell_angle_beta 90.000000
_cell_angle_gamma 90.000000
_cell_volume 3515.001050
_symmetry_space_group_name_H-M "P 42/N C M"
_symmetry_group_IT_number 138
_space_group.IT_coordinate_system_code '2'
_symmetry_cell_setting 'tetragonal'
loop_
_space_group_symop_operation_xyz
x,y,z
1/2-y,x,1/2+z
1/2-x,1/2-y,z
y,1/2-x,1/2+z
1/2+x,-y,1/2-z
-x,1/2+y,1/2-z
1/2+y,1/2+x,-z
-y,-x,-z
-x,-y,-z
1/2+y,-x,1/2-z
1/2+x,1/2+y,-z
-y,1/2+x,1/2-z
1/2-x,y,1/2+z
x,1/2-y,1/2+z
1/2-y,1/2-x,z
y,x,z
loop_
_atom_site_type_symbol
_atom_site_label
_atom_site_fract_x
_atom_site_fract_y
_atom_site_fract_z
Si Si1 0.058109 0.178489 0.018435
Si Si2 0.898600 0.319985 0.610577
Si Si3 0.150337 0.909890 0.637460
Si Si4 0.686226 0.932314 0.793374
O O1 0.112510 0.112510 0.033792
O O2 0.076554 0.243171 0.117923
O O3 0.976455 0.159607 0.053265
O O4 0.061164 0.203192 0.864187
O O5 0.841245 0.341245 0.500000
O O6 0.883507 0.364016 0.743905
O O7 0.895985 0.235479 0.634500
O O8 0.114277 0.885724 0.500000
O O9 0.146394 0.994586 0.664164
O O10 0.633959 0.866042 0.812205
#
# Coordination Sequence:
#
# PCOD9571014 Si02
#       4
#    16  16  16  16
#     4  10  23  42  65  91 121 159 200 248 305 363
#     4  11  22  40  61  88 122 162 204 248 297 354
#     4  11  24  38  60  91 124 160 205 250 297 353
#     4  10  23  43  64  91 123 157 201 250 303 364
#
# _framework density 18.207675999999999
#
# number of rings (size 3 to 8) (size 9 to 14) (size 15 to 20)
#    0.000    1.500    2.500    1.500   10.500    6.500 
#    0.000    2.500    0.000    0.000    0.000    0.000 
#    0.000    0.000    0.000    0.000    0.000    0.000 
#
# Total GULP energy -357547.736056 kJ/mol
# GULP energy per Si atom -5586.683376 kJ/mol
# Density = 1.816623 g / cm^3
# Si number density = 18.207676 Si / 1000 Ang^3
#
#
#
# Elastic Constant Matrix: (Units=GPa)
#
#
# Indices 1 2 3 4 5 6 
#
# 1 50.6942 39.4993 25.8621 0.0000 0.0000 0.0000
# 2 39.4993 50.6977 25.8660 0.0000 0.0000 0.0000
# 3 25.8621 25.8660 98.4587 0.0000 0.0000 0.0000
# 4 0.0000 0.0000 0.0000 28.7556 0.0000 0.0000
# 5 0.0000 0.0000 0.0000 0.0000 28.7548 0.0000
# 6 0.0000 0.0000 0.0000 0.0000 0.0000 49.9377
#
#
#
# Elastic Compliance Matrix: (Units=1/GPa)
#
#
# Indices 1 2 3 4 5 6 
#
# 1 0.051184 -0.038130 -0.003428 0.000000 0.000000 0.000000
# 2 -0.038130 0.051182 -0.003431 0.000000 0.000000 0.000000
# 3 -0.003428 -0.003431 0.011958 0.000000 0.000000 0.000000
# 4 0.000000 0.000000 0.000000 0.034776 0.000000 0.000000
# 5 0.000000 0.000000 0.000000 0.000000 0.034777 0.000000
# 6 0.000000 0.000000 0.000000 0.000000 0.000000 0.020025
#
#
# Mechanical properties :
#
#
# Convention : Reuss Voigt Hill
#
# Bulk Modulus (GPa) = 41.06912 42.47837 41.77374
# Shear Modulus (GPa) = 16.55662 28.73114 22.64388
#
# Velocity S-wave (km/s) = 3.01877 3.97667 3.53036
# Velocity P-wave (km/s) = 5.89538 6.66827 6.29370
#
# Compressibility (1/GPa) = 0.02434920
#
# Stress axis : x y z
#
# Youngs Moduli (GPa) = 19.53733 19.53795 83.62534
#
# Poissons Ratio (x) = 0.74497 0.28663
# Poissons Ratio (y) = 0.74495 0.28689
# Poissons Ratio (z) = 0.06696 0.06703
#
# Static dielectric constant tensor:
#      x y z
#    x 1.602110 0.000000 0.000000 
#    y 0.000000 1.602110 0.000000 
#    z 0.000000 0.000000 1.617240 
# 
# From -- ./inp_files/1408.got.cif
#   From: 2010.05.17/outbox.cif.g08.bks.cpg/sg138_1_cif.got.tgz:1408.got - 2010.05.20 13:08:53.
