data_PCOD9571937
_publ_section_title
;
Structure prediction by ZEFSAII (Michael W. Deem and Ramdas Pophale) SiO2 
 PCOD9571937
Probable space group: I 4/M M M
;
_chemical_formula_sum "Si O2"
_cell_formula_units_Z 176
_cell_length_a 27.600852
_cell_length_b 27.600852
_cell_length_c 14.204344
_cell_angle_alpha 90.000000
_cell_angle_beta 90.000000
_cell_angle_gamma 90.000000
_cell_volume 10820.969132
_symmetry_space_group_name_H-M "I 4/M M M"
_symmetry_group_IT_number 139
_symmetry_cell_setting 'tetragonal'
loop_
_space_group_symop_operation_xyz
x,y,z
-y,x,z
-x,-y,z
y,-x,z
x,-y,-z
-x,y,-z
y,x,-z
-y,-x,-z
-x,-y,-z
y,-x,-z
x,y,-z
-y,x,-z
-x,y,z
x,-y,z
-y,-x,z
y,x,z
1/2+x,1/2+y,1/2+z
1/2-y,1/2+x,1/2+z
1/2-x,1/2-y,1/2+z
1/2+y,1/2-x,1/2+z
1/2+x,1/2-y,1/2-z
1/2-x,1/2+y,1/2-z
1/2+y,1/2+x,1/2-z
1/2-y,1/2-x,1/2-z
1/2-x,1/2-y,1/2-z
1/2+y,1/2-x,1/2-z
1/2+x,1/2+y,1/2-z
1/2-y,1/2+x,1/2-z
1/2-x,1/2+y,1/2+z
1/2+x,1/2-y,1/2+z
1/2-y,1/2-x,1/2+z
1/2+y,1/2+x,1/2+z
loop_
_atom_site_type_symbol
_atom_site_label
_atom_site_fract_x
_atom_site_fract_y
_atom_site_fract_z
Si Si1 0.653102 0.265502 0.290889
Si Si2 0.051125 0.448876 0.250000
Si Si3 0.444188 0.771905 0.698033
Si Si4 0.223488 0.305693 0.895688
Si Si5 0.945123 0.324433 0.393533
Si Si6 0.085844 0.626742 0.109226
O O1 0.686035 0.313966 0.293300
O O2 0.596473 0.269424 0.313783
O O3 0.659313 0.240459 0.187914
O O4 0.678665 0.226862 0.360782
O O5 0.052970 0.500000 0.197887
O O6 0.053602 0.405445 0.177722
O O7 0.500000 0.762685 0.669388
O O8 0.444832 0.787069 0.808038
O O9 0.422257 0.818671 0.643703
O O10 0.267480 0.267480 0.901644
O O11 0.214819 0.326102 0.000000
O O12 0.941002 0.304823 0.500000
O O13 0.900651 0.362136 0.379613
O O14 0.000000 0.346969 0.389083
O O15 0.073189 0.623203 0.000000
#
# Coordination Sequence:
#
# PCOD9571937 Si02
#       6
#    32  16  32  32  32  32
#     4   9  19  33  48  69  93 118 152 190 225 272
#     4  11  22  34  48  66  87 114 156 206 247 280
#     4  11  22  35  49  68  95 122 150 189 237 283
#     4   8  15  28  47  71  95 118 147 184 226 268
#     4   9  18  32  50  69  89 119 159 196 231 273
#     4  11  22  35  50  65  86 118 155 193 236 279
#
# _framework density 16.264716
#
# number of rings (size 3 to 8) (size 9 to 14) (size 15 to 20)
#    0.000    2.273    1.818    2.182    5.091    4.000 
#    0.000    0.909    0.000    0.000    0.000    0.000 
#    0.000    0.364    0.000    0.000    0.000    0.000 
#
# Total GULP energy -490189.317600 kJ/mol
# GULP energy per Si atom -5570.333155 kJ/mol
# Density = 1.622770 g / cm^3
# Si number density = 16.264716 Si / 1000 Ang^3
#
#
#
# Elastic Constant Matrix: (Units=GPa)
#
#
# Indices 1 2 3 4 5 6 
#
# 1 79.8954 44.2396 9.6288 0.0000 0.0000 0.0000
# 2 44.2396 79.8958 9.6285 0.0000 0.0000 0.0000
# 3 9.6288 9.6285 52.3549 0.0000 0.0000 0.0000
# 4 0.0000 0.0000 0.0000 3.7311 0.0000 0.0000
# 5 0.0000 0.0000 0.0000 0.0000 3.7319 0.0000
# 6 0.0000 0.0000 0.0000 0.0000 0.0000 17.8979
#
#
#
# Elastic Compliance Matrix: (Units=1/GPa)
#
#
# Indices 1 2 3 4 5 6 
#
# 1 0.018169 -0.009877 -0.001525 0.000000 0.000000 0.000000
# 2 -0.009877 0.018169 -0.001525 0.000000 0.000000 0.000000
# 3 -0.001525 -0.001525 0.019661 0.000000 0.000000 0.000000
# 4 0.000000 0.000000 0.000000 0.268016 0.000000 0.000000
# 5 0.000000 0.000000 0.000000 0.000000 0.267957 0.000000
# 6 0.000000 0.000000 0.000000 0.000000 0.000000 0.055872
#
#
# Mechanical properties :
#
#
# Convention : Reuss Voigt Hill
#
# Bulk Modulus (GPa) = 33.17213 37.68222 35.42717
# Shear Modulus (GPa) = 7.31265 14.98214 11.14740
#
# Velocity S-wave (km/s) = 2.12268 3.03833 2.62080
# Velocity P-wave (km/s) = 5.14268 5.96045 5.56660
#
# Compressibility (1/GPa) = 0.03014579
#
# Stress axis : x y z
#
# Youngs Moduli (GPa) = 55.03843 55.03882 50.86119
#
# Poissons Ratio (x) = 0.54360 0.07757
# Poissons Ratio (y) = 0.54360 0.07756
# Poissons Ratio (z) = 0.08394 0.08393
#
# Static dielectric constant tensor:
#      x y z
#    x 1.577430 0.000000 0.000000 
#    y 0.000000 1.577430 0.000000 
#    z 0.000000 0.000000 1.580450 
# 
# From -- ./inp_files/6418.got.cif
#   From: 2010.05.17/outbox.cif.g08.bks.cpg/sg139_4_cif.got.tgz:6418.got - 2010.05.20 13:14:44.
