data_PCOD9571678
_publ_section_title
;
Structure prediction by ZEFSAII (Michael W. Deem and Ramdas Pophale) SiO2 
 PCOD9571678
Probable space group: I 4/M M M
;
_chemical_formula_sum "Si O2"
_cell_formula_units_Z 112
_cell_length_a 16.656469
_cell_length_b 16.656469
_cell_length_c 21.922441
_cell_angle_alpha 90.000000
_cell_angle_beta 90.000000
_cell_angle_gamma 90.000000
_cell_volume 6082.117299
_symmetry_space_group_name_H-M "I 4/M M M"
_symmetry_group_IT_number 139
_symmetry_cell_setting 'tetragonal'
loop_
_space_group_symop_operation_xyz
x,y,z
-y,x,z
-x,-y,z
y,-x,z
x,-y,-z
-x,y,-z
y,x,-z
-y,-x,-z
-x,-y,-z
y,-x,-z
x,y,-z
-y,x,-z
-x,y,z
x,-y,z
-y,-x,z
y,x,z
1/2+x,1/2+y,1/2+z
1/2-y,1/2+x,1/2+z
1/2-x,1/2-y,1/2+z
1/2+y,1/2-x,1/2+z
1/2+x,1/2-y,1/2-z
1/2-x,1/2+y,1/2-z
1/2+y,1/2+x,1/2-z
1/2-y,1/2-x,1/2-z
1/2-x,1/2-y,1/2-z
1/2+y,1/2-x,1/2-z
1/2+x,1/2+y,1/2-z
1/2-y,1/2+x,1/2-z
1/2-x,1/2+y,1/2+z
1/2+x,1/2-y,1/2+z
1/2-y,1/2-x,1/2+z
1/2+y,1/2+x,1/2+z
loop_
_atom_site_type_symbol
_atom_site_label
_atom_site_fract_x
_atom_site_fract_y
_atom_site_fract_z
Si Si1 0.350185 0.649816 0.651349
Si Si2 0.000000 0.609313 0.069136
Si Si3 0.716563 0.283438 0.144017
Si Si4 0.595605 0.595605 0.216257
Si Si5 0.500000 0.701762 0.430494
Si Si6 0.910940 0.322630 0.572746
O O1 0.282559 0.717442 0.668188
O O2 0.387761 0.612240 0.712375
O O3 0.421559 0.682904 0.609029
O O4 0.914266 0.587721 0.097243
O O5 0.000000 0.703680 0.063657
O O6 0.000000 0.577848 0.000000
O O7 0.657892 0.342109 0.183707
O O8 0.656263 0.229872 0.104128
O O9 0.500000 0.610738 0.203092
O O10 0.500000 0.667117 0.500000
O O11 0.895355 0.327080 0.500000
O O12 0.000000 0.288016 0.581574
#
# Coordination Sequence:
#
# PCOD9571678 Si02
#       6
#    16  16  16  16  16  32
#     4  12  23  41  63  88 126 161 197 251 302 366
#     4   9  17  32  54  84 122 159 189 231 294 367
#     4  12  23  37  61  88 115 156 204 256 304 357
#     4  11  25  46  65  81 113 159 218 266 304 351
#     4  11  22  36  62 100 131 159 192 237 304 379
#     4  10  20  34  55  85 120 156 195 242 300 364
#
# _framework density 18.414639999999999
#
# number of rings (size 3 to 8) (size 9 to 14) (size 15 to 20)
#    0.000    1.286    4.286    2.571    0.000    3.143 
#    0.000    0.714    0.000    0.000    0.000    6.000 
#    0.000    0.000    0.000    0.000    0.000    0.000 
#
# Total GULP energy -311809.462823 kJ/mol
# GULP energy per Si atom -5568.026122 kJ/mol
# Density = 1.837273 g / cm^3
# Si number density = 18.414640 Si / 1000 Ang^3
#
#
#
# Elastic Constant Matrix: (Units=GPa)
#
#
# Indices 1 2 3 4 5 6 
#
# 1 129.3356 66.6721 37.5485 0.0000 0.0000 0.0000
# 2 66.6721 129.3356 37.5485 0.0000 0.0000 0.0000
# 3 37.5485 37.5485 51.0274 0.0000 0.0000 0.0000
# 4 0.0000 0.0000 0.0000 26.0359 0.0000 0.0000
# 5 0.0000 0.0000 0.0000 0.0000 26.0359 0.0000
# 6 0.0000 0.0000 0.0000 0.0000 0.0000 15.9926
#
#
#
# Elastic Compliance Matrix: (Units=1/GPa)
#
#
# Indices 1 2 3 4 5 6 
#
# 1 0.011532 -0.004427 -0.005228 0.000000 0.000000 0.000000
# 2 -0.004427 0.011532 -0.005228 0.000000 0.000000 0.000000
# 3 -0.005228 -0.005228 0.027292 0.000000 0.000000 0.000000
# 4 0.000000 0.000000 0.000000 0.038409 0.000000 0.000000
# 5 0.000000 0.000000 0.000000 0.000000 0.038409 0.000000
# 6 0.000000 0.000000 0.000000 0.000000 0.000000 0.062529
#
#
# Mechanical properties :
#
#
# Convention : Reuss Voigt Hill
#
# Bulk Modulus (GPa) = 48.57009 65.91519 57.24264
# Shear Modulus (GPa) = 22.09167 24.80816 23.44991
#
# Velocity S-wave (km/s) = 3.46740 3.67440 3.57240
# Velocity P-wave (km/s) = 6.51640 7.33991 6.94038
#
# Compressibility (1/GPa) = 0.02058880
#
# Stress axis : x y z
#
# Youngs Moduli (GPa) = 86.71830 86.71830 36.64138
#
# Poissons Ratio (x) = 0.38387 0.19157
# Poissons Ratio (y) = 0.38387 0.19157
# Poissons Ratio (z) = 0.45338 0.45338
#
# Static dielectric constant tensor:
#      x y z
#    x 1.702060 0.000000 0.000000 
#    y 0.000000 1.702060 0.000000 
#    z 0.000000 0.000000 1.612950 
# 
# From -- ./inp_files/11136.got.cif
#   From: 2010.05.17/outbox.cif.g08.bks.cpg/sg139_6_cif.got.tgz:11136.got - 2010.05.20 13:14:44.
