data_PCOD9571887
_publ_section_title
;
Structure prediction by ZEFSAII (Michael W. Deem and Ramdas Pophale) SiO2 
 PCOD9571887
Probable space group: I 4/M M M
;
_chemical_formula_sum "Si O2"
_cell_formula_units_Z 104
_cell_length_a 18.167693
_cell_length_b 18.167693
_cell_length_c 17.374509
_cell_angle_alpha 90.000000
_cell_angle_beta 90.000000
_cell_angle_gamma 90.000000
_cell_volume 5734.718511
_symmetry_space_group_name_H-M "I 4/M M M"
_symmetry_group_IT_number 139
_symmetry_cell_setting 'tetragonal'
loop_
_space_group_symop_operation_xyz
x,y,z
-y,x,z
-x,-y,z
y,-x,z
x,-y,-z
-x,y,-z
y,x,-z
-y,-x,-z
-x,-y,-z
y,-x,-z
x,y,-z
-y,x,-z
-x,y,z
x,-y,z
-y,-x,z
y,x,z
1/2+x,1/2+y,1/2+z
1/2-y,1/2+x,1/2+z
1/2-x,1/2-y,1/2+z
1/2+y,1/2-x,1/2+z
1/2+x,1/2-y,1/2-z
1/2-x,1/2+y,1/2-z
1/2+y,1/2+x,1/2-z
1/2-y,1/2-x,1/2-z
1/2-x,1/2-y,1/2-z
1/2+y,1/2-x,1/2-z
1/2+x,1/2+y,1/2-z
1/2-y,1/2+x,1/2-z
1/2-x,1/2+y,1/2+z
1/2+x,1/2-y,1/2+z
1/2-y,1/2-x,1/2+z
1/2+y,1/2+x,1/2+z
loop_
_atom_site_type_symbol
_atom_site_label
_atom_site_fract_x
_atom_site_fract_y
_atom_site_fract_z
Si Si1 0.912902 0.500000 0.591766
Si Si2 0.346387 0.859607 0.341389
Si Si3 0.000000 0.267876 0.411877
Si Si4 0.500000 0.623475 0.000000
Si Si5 0.915845 0.915845 0.093590
Si Si6 0.204120 0.795881 0.907566
O O1 0.903943 0.500000 0.500000
O O2 0.877215 0.427320 0.626656
O O3 0.000000 0.500000 0.609465
O O4 0.351041 0.851041 0.250000
O O5 0.295587 0.927776 0.368154
O O6 0.317404 0.784254 0.377624
O O7 0.000000 0.300372 0.500000
O O8 0.000000 0.180416 0.428310
O O9 0.428915 0.571086 0.000000
O O10 0.856246 0.856246 0.119164
O O11 0.000000 0.898628 0.117287
O O12 0.915405 0.915405 0.000000
O O13 0.204350 0.795651 0.000000
#
# Coordination Sequence:
#
# PCOD9571887 Si02
#       6
#    16  32  16   8  16  16
#     4  11  23  40  65  91 125 168 221 257 308 399
#     4  12  25  41  61  95 133 174 211 268 336 395
#     4  10  22  40  69  93 129 172 218 272 336 397
#     4   9  22  42  74 105 122 164 232 287 334 400
#     4   8  16  34  57  82 113 153 203 262 315 362
#     4  11  24  39  64  90 125 163 225 263 321 391
#
# _framework density 18.135152999999999
#
# number of rings (size 3 to 8) (size 9 to 14) (size 15 to 20)
#    0.462    1.000    1.538    4.615    4.308    0.000 
#    0.000    0.000    0.000    0.000    0.000    0.000 
#    0.000    0.000    0.000    0.000    0.000    0.000 
#
# Total GULP energy -290419.119194 kJ/mol
# GULP energy per Si atom -5584.983061 kJ/mol
# Density = 1.809388 g / cm^3
# Si number density = 18.135153 Si / 1000 Ang^3
#
#
#
# Elastic Constant Matrix: (Units=GPa)
#
#
# Indices 1 2 3 4 5 6 
#
# 1 183.5181 124.3536 67.9143 0.0000 0.0000 0.0000
# 2 124.3536 183.5163 67.9136 0.0000 0.0000 0.0000
# 3 67.9143 67.9136 106.1581 0.0000 0.0000 0.0000
# 4 0.0000 0.0000 0.0000 21.6865 0.0000 0.0000
# 5 0.0000 0.0000 0.0000 0.0000 21.6874 0.0000
# 6 0.0000 0.0000 0.0000 0.0000 0.0000 36.2217
#
#
#
# Elastic Compliance Matrix: (Units=1/GPa)
#
#
# Indices 1 2 3 4 5 6 
#
# 1 0.010714 -0.006188 -0.002895 0.000000 0.000000 0.000000
# 2 -0.006188 0.010714 -0.002895 0.000000 0.000000 0.000000
# 3 -0.002895 -0.002895 0.013124 0.000000 0.000000 0.000000
# 4 0.000000 0.000000 0.000000 0.046112 0.000000 0.000000
# 5 0.000000 0.000000 0.000000 0.000000 0.046110 0.000000
# 6 0.000000 0.000000 0.000000 0.000000 0.000000 0.027608
#
#
# Mechanical properties :
#
#
# Convention : Reuss Voigt Hill
#
# Bulk Modulus (GPa) = 94.38804 110.39506 102.39155
# Shear Modulus (GPa) = 27.49221 30.11985 28.80603
#
# Velocity S-wave (km/s) = 3.89776 4.07978 3.98981
# Velocity P-wave (km/s) = 8.50980 9.12132 8.82086
#
# Compressibility (1/GPa) = 0.01059456
#
# Stress axis : x y z
#
# Youngs Moduli (GPa) = 93.33755 93.33692 76.19549
#
# Poissons Ratio (x) = 0.57761 0.22059
# Poissons Ratio (y) = 0.57762 0.22059
# Poissons Ratio (z) = 0.27022 0.27022
#
# Static dielectric constant tensor:
#      x y z
#    x 1.601120 0.000000 0.000000 
#    y 0.000000 1.601120 0.000000 
#    z 0.000000 0.000000 1.590410 
# 
# From -- ./inp_files/7518.got.cif
#   From: 2010.05.17/outbox.cif.g08.bks.cpg/sg139_4_cif.got.tgz:7518.got - 2010.05.20 13:14:44.
