data_PCOD9571832
_publ_section_title
;
Structure prediction by ZEFSAII (Michael W. Deem and Ramdas Pophale) SiO2 
 PCOD9571832
Probable space group: I 4/M M M
;
_chemical_formula_sum "Si O2"
_cell_formula_units_Z 176
_cell_length_a 18.492319
_cell_length_b 18.492319
_cell_length_c 25.178898
_cell_angle_alpha 90.000000
_cell_angle_beta 90.000000
_cell_angle_gamma 90.000000
_cell_volume 8610.323559
_symmetry_space_group_name_H-M "I 4/M M M"
_symmetry_group_IT_number 139
_symmetry_cell_setting 'tetragonal'
loop_
_space_group_symop_operation_xyz
x,y,z
-y,x,z
-x,-y,z
y,-x,z
x,-y,-z
-x,y,-z
y,x,-z
-y,-x,-z
-x,-y,-z
y,-x,-z
x,y,-z
-y,x,-z
-x,y,z
x,-y,z
-y,-x,z
y,x,z
1/2+x,1/2+y,1/2+z
1/2-y,1/2+x,1/2+z
1/2-x,1/2-y,1/2+z
1/2+y,1/2-x,1/2+z
1/2+x,1/2-y,1/2-z
1/2-x,1/2+y,1/2-z
1/2+y,1/2+x,1/2-z
1/2-y,1/2-x,1/2-z
1/2-x,1/2-y,1/2-z
1/2+y,1/2-x,1/2-z
1/2+x,1/2+y,1/2-z
1/2-y,1/2+x,1/2-z
1/2-x,1/2+y,1/2+z
1/2+x,1/2-y,1/2+z
1/2-y,1/2-x,1/2+z
1/2+y,1/2+x,1/2+z
loop_
_atom_site_type_symbol
_atom_site_label
_atom_site_fract_x
_atom_site_fract_y
_atom_site_fract_z
Si Si1 0.144902 0.355229 0.561083
Si Si2 0.083819 0.200422 0.910935
Si Si3 0.420202 0.915017 0.662672
Si Si4 0.805163 0.917081 0.782576
Si Si5 0.166542 0.666542 0.250000
Si Si6 0.583096 0.301634 0.935479
O O1 0.123516 0.365480 0.500000
O O2 0.229064 0.374813 0.567598
O O3 0.102047 0.406015 0.601452
O O4 0.124877 0.272923 0.576476
O O5 0.129006 0.129006 0.925662
O O6 0.084017 0.205625 0.846573
O O7 0.000000 0.199535 0.928131
O O8 0.500000 0.888179 0.677935
O O9 0.362935 0.874585 0.698371
O O10 0.416756 0.000000 0.672337
O O11 0.884501 0.884501 0.772064
O O12 0.747667 0.861096 0.758167
O O13 0.795577 0.000000 0.764675
O O14 0.500000 0.299844 0.916528
O O15 0.630254 0.369747 0.916471
O O16 0.580538 0.305884 0.000000
#
# Coordination Sequence:
#
# PCOD9571832 Si02
#       6
#    32  32  32  32  16  32
#     4  11  22  38  59  84 119 161 203 250 302 359
#     4  10  21  38  60  88 121 158 202 250 301 358
#     4  11  23  37  57  87 121 160 203 248 302 361
#     4  10  21  38  62  92 126 162 202 249 301 360
#     4  12  21  39  64  90 122 155 196 252 307 358
#     4   9  18  33  54  81 113 150 194 244 297 354
#
# _framework density 20.440577999999999
#
# number of rings (size 3 to 8) (size 9 to 14) (size 15 to 20)
#    0.000    1.636    1.818    3.545    0.000    4.909 
#    0.000    3.636    0.000    0.000    0.000    1.273 
#    0.000    4.364    0.000    0.182    0.000    0.000 
#
# Total GULP energy -491506.463793 kJ/mol
# GULP energy per Si atom -5585.300725 kJ/mol
# Density = 2.039405 g / cm^3
# Si number density = 20.440578 Si / 1000 Ang^3
#
#
#
# Elastic Constant Matrix: (Units=GPa)
#
#
# Indices 1 2 3 4 5 6 
#
# 1 106.6965 82.4733 15.4018 0.0000 0.0000 0.0000
# 2 82.4733 106.6965 15.4018 0.0000 0.0000 0.0000
# 3 15.4018 15.4018 39.2014 0.0000 0.0000 0.0000
# 4 0.0000 0.0000 0.0000 64.7499 0.0000 0.0000
# 5 0.0000 0.0000 0.0000 0.0000 64.7499 0.0000
# 6 0.0000 0.0000 0.0000 0.0000 0.0000 31.1650
#
#
#
# Elastic Compliance Matrix: (Units=1/GPa)
#
#
# Indices 1 2 3 4 5 6 
#
# 1 0.023465 -0.017818 -0.002219 0.000000 0.000000 0.000000
# 2 -0.017818 0.023465 -0.002219 0.000000 0.000000 0.000000
# 3 -0.002219 -0.002219 0.027253 0.000000 0.000000 0.000000
# 4 0.000000 0.000000 0.000000 0.015444 0.000000 0.000000
# 5 0.000000 0.000000 0.000000 0.000000 0.015444 0.000000
# 6 0.000000 0.000000 0.000000 0.000000 0.000000 0.032087
#
#
# Mechanical properties :
#
#
# Convention : Reuss Voigt Hill
#
# Bulk Modulus (GPa) = 33.70124 53.23867 43.46996
# Shear Modulus (GPa) = 26.10148 41.42079 33.76114
#
# Velocity S-wave (km/s) = 3.57731 4.50644 4.06849
# Velocity P-wave (km/s) = 5.79535 7.29242 6.58656
#
# Compressibility (1/GPa) = 0.02967250
#
# Stress axis : x y z
#
# Youngs Moduli (GPa) = 42.61636 42.61636 36.69346
#
# Poissons Ratio (x) = 0.75932 0.08142
# Poissons Ratio (y) = 0.75932 0.08142
# Poissons Ratio (z) = 0.09456 0.09456
#
# Static dielectric constant tensor:
#      x y z
#    x 1.726290 0.000000 0.000000 
#    y 0.000000 1.726290 0.000000 
#    z 0.000000 0.000000 1.733280 
# 
# From -- ./inp_files/13095.got.cif
#   From: 2010.05.17/outbox.cif.g08.bks.cpg/sg139_7_cif.got.tgz:13095.got - 2010.05.20 13:14:44.
