data_PCOD9571660
_publ_section_title
;
Structure prediction by ZEFSAII (Michael W. Deem and Ramdas Pophale) SiO2 
 PCOD9571660
Probable space group: I 4/M M M
;
_chemical_formula_sum "Si O2"
_cell_formula_units_Z 240
_cell_length_a 20.296311
_cell_length_b 20.296311
_cell_length_c 33.088010
_cell_angle_alpha 90.000000
_cell_angle_beta 90.000000
_cell_angle_gamma 90.000000
_cell_volume 13630.282787
_symmetry_space_group_name_H-M "I 4/M M M"
_symmetry_group_IT_number 139
_symmetry_cell_setting 'tetragonal'
loop_
_space_group_symop_operation_xyz
x,y,z
-y,x,z
-x,-y,z
y,-x,z
x,-y,-z
-x,y,-z
y,x,-z
-y,-x,-z
-x,-y,-z
y,-x,-z
x,y,-z
-y,x,-z
-x,y,z
x,-y,z
-y,-x,z
y,x,z
1/2+x,1/2+y,1/2+z
1/2-y,1/2+x,1/2+z
1/2-x,1/2-y,1/2+z
1/2+y,1/2-x,1/2+z
1/2+x,1/2-y,1/2-z
1/2-x,1/2+y,1/2-z
1/2+y,1/2+x,1/2-z
1/2-y,1/2-x,1/2-z
1/2-x,1/2-y,1/2-z
1/2+y,1/2-x,1/2-z
1/2+x,1/2+y,1/2-z
1/2-y,1/2+x,1/2-z
1/2-x,1/2+y,1/2+z
1/2+x,1/2-y,1/2+z
1/2-y,1/2-x,1/2+z
1/2+y,1/2+x,1/2+z
loop_
_atom_site_type_symbol
_atom_site_label
_atom_site_fract_x
_atom_site_fract_y
_atom_site_fract_z
Si Si1 0.723700 0.381398 0.697343
Si Si2 0.617254 0.173805 0.074101
Si Si3 0.676381 0.430699 0.385960
Si Si4 0.923571 0.317687 0.733211
Si Si5 0.220701 0.329700 0.838897
Si Si6 0.500000 0.079313 0.950578
Si Si7 0.074175 0.819247 0.548398
Si Si8 0.782794 0.427582 0.544186
O O1 0.660930 0.339071 0.712269
O O2 0.702495 0.425174 0.659568
O O3 0.761762 0.418546 0.732413
O O4 0.774619 0.328683 0.678551
O O5 0.644160 0.192284 0.118586
O O6 0.560884 0.118164 0.069827
O O7 0.592718 0.243543 0.057005
O O8 0.674164 0.137571 0.048973
O O9 0.640626 0.500000 0.391091
O O10 0.630273 0.369728 0.393145
O O11 0.734317 0.428056 0.418250
O O12 0.879116 0.379116 0.750000
O O13 0.888495 0.286327 0.693689
O O14 0.000000 0.335598 0.726182
O O15 0.291443 0.291443 0.842494
O O16 0.500000 0.000000 0.944059
O O17 0.500000 0.089661 0.000000
O O18 0.072230 0.826632 0.500000
O O19 0.129425 0.870576 0.563894
O O20 0.000000 0.832420 0.564011
O O21 0.750180 0.425754 0.500000
O O22 0.818627 0.500000 0.545626
#
# Coordination Sequence:
#
# PCOD9571660 Si02
#       8
#    32  32  32  32  32  16  32  32
#     4   9  17  35  59  81 106 138 183 235 283 332
#     4  12  21  36  59  83 116 148 192 246 292 346
#     4  10  20  34  53  78 109 143 184 232 281 337
#     4  10  21  36  57  82 115 153 190 227 278 343
#     4  10  21  36  56  84 114 146 190 240 294 348
#     4  11  24  40  58  82 119 169 211 245 296 366
#     4  10  21  36  54  77 105 141 185 237 297 351
#     4  10  21  36  55  80 111 148 190 235 285 340
#
# _framework density 17.607852000000001
#
# number of rings (size 3 to 8) (size 9 to 14) (size 15 to 20)
#    0.000    1.800    2.000    2.800    0.933    3.867 
#    0.000    1.333    0.000    0.000    0.000    1.867 
#    0.000    2.400    0.000    0.267    0.000    0.133 
#
# Total GULP energy -668198.248432 kJ/mol
# GULP energy per Si atom -5568.318737 kJ/mol
# Density = 1.756778 g / cm^3
# Si number density = 17.607852 Si / 1000 Ang^3
#
#
#
# Elastic Constant Matrix: (Units=GPa)
#
#
# Indices 1 2 3 4 5 6 
#
# 1 98.2469 57.4366 30.9524 0.0000 0.0000 0.0000
# 2 57.4366 98.2469 30.9524 0.0000 0.0000 0.0000
# 3 30.9524 30.9524 60.6742 0.0000 0.0000 0.0000
# 4 0.0000 0.0000 0.0000 22.1525 0.0000 0.0000
# 5 0.0000 0.0000 0.0000 0.0000 22.1525 0.0000
# 6 0.0000 0.0000 0.0000 0.0000 0.0000 60.7864
#
#
#
# Elastic Compliance Matrix: (Units=1/GPa)
#
#
# Indices 1 2 3 4 5 6 
#
# 1 0.016281 -0.008223 -0.004111 0.000000 0.000000 0.000000
# 2 -0.008223 0.016281 -0.004111 0.000000 0.000000 0.000000
# 3 -0.004111 -0.004111 0.020675 0.000000 0.000000 0.000000
# 4 0.000000 0.000000 0.000000 0.045142 0.000000 0.000000
# 5 0.000000 0.000000 0.000000 0.000000 0.045142 0.000000
# 6 0.000000 0.000000 0.000000 0.000000 0.000000 0.016451
#
#
# Mechanical properties :
#
#
# Convention : Reuss Voigt Hill
#
# Bulk Modulus (GPa) = 49.14343 55.09452 52.11897
# Shear Modulus (GPa) = 25.04477 30.20671 27.62574
#
# Velocity S-wave (km/s) = 3.77552 4.14638 3.96529
# Velocity P-wave (km/s) = 6.85395 7.36756 7.11539
#
# Compressibility (1/GPa) = 0.02034860
#
# Stress axis : x y z
#
# Youngs Moduli (GPa) = 61.42241 61.42241 48.36656
#
# Poissons Ratio (x) = 0.50507 0.19882
# Poissons Ratio (y) = 0.50507 0.19882
# Poissons Ratio (z) = 0.25248 0.25248
#
# Static dielectric constant tensor:
#      x y z
#    x 1.613500 0.000000 0.000000 
#    y 0.000000 1.613500 0.000000 
#    z 0.000000 0.000000 1.611010 
# 
# From -- ./inp_files/14637.got.cif
#   From: 2010.05.17/outbox.cif.g08.bks.cpg/sg139_8_cif.got.tgz:14637.got - 2010.05.20 13:14:44.
