data_PCOD9571007
_publ_section_title
;
Structure prediction by ZEFSAII (Michael W. Deem and Ramdas Pophale) SiO2 
 PCOD9571007
Probable space group: P 42/N C M
;
_chemical_formula_sum "Si O2"
_cell_formula_units_Z 96
_cell_length_a 14.561967
_cell_length_b 14.561967
_cell_length_c 23.565893
_cell_angle_alpha 90.000000
_cell_angle_beta 90.000000
_cell_angle_gamma 90.000000
_cell_volume 4997.168417
_symmetry_space_group_name_H-M "P 42/N C M"
_symmetry_group_IT_number 138
_space_group.IT_coordinate_system_code '2'
_symmetry_cell_setting 'tetragonal'
loop_
_space_group_symop_operation_xyz
x,y,z
1/2-y,x,1/2+z
1/2-x,1/2-y,z
y,1/2-x,1/2+z
1/2+x,-y,1/2-z
-x,1/2+y,1/2-z
1/2+y,1/2+x,-z
-y,-x,-z
-x,-y,-z
1/2+y,-x,1/2-z
1/2+x,1/2+y,-z
-y,1/2+x,1/2-z
1/2-x,y,1/2+z
x,1/2-y,1/2+z
1/2-y,1/2-x,z
y,x,z
loop_
_atom_site_type_symbol
_atom_site_label
_atom_site_fract_x
_atom_site_fract_y
_atom_site_fract_z
Si Si1 0.832103 0.983283 0.894043
Si Si2 0.035667 0.310760 0.472408
Si Si3 0.327918 0.172083 0.917668
Si Si4 0.329448 0.170553 0.790244
Si Si5 0.293308 0.617949 0.773663
Si Si6 0.791470 0.555897 0.788014
Si Si7 0.200536 0.650309 0.401190
O O1 0.924540 0.924540 0.880973
O O2 0.754451 0.957361 0.848947
O O3 0.839100 0.092313 0.890854
O O4 0.809409 0.963341 0.959667
O O5 0.095353 0.404648 0.455865
O O6 0.090425 0.223014 0.449411
O O7 0.932167 0.299525 0.447721
O O8 0.250000 0.250000 0.913139
O O9 0.354423 0.145578 0.854035
O O10 0.250000 0.250000 0.791736
O O11 0.287615 0.087163 0.755503
O O12 0.204305 0.640715 0.735743
O O13 0.336406 0.529847 0.744156
O O14 0.264722 0.614066 0.839581
O O15 0.863647 0.636354 0.793030
O O16 0.250000 0.750000 0.413706
#
# Coordination Sequence:
#
# PCOD9571007 Si02
#       7
#    16  16   8   8  16  16  16
#     4  11  23  40  63  94 130 168 218 267 324 387
#     4  10  23  40  64  96 127 169 221 270 321 393
#     4   9  18  38  62  91 127 168 205 266 338 389
#     4   9  18  34  56  88 122 150 196 250 310 376
#     4  11  21  42  62  87 125 161 206 257 319 385
#     4  11  22  37  62  96 126 162 203 263 321 388
#     4  12  23  41  69  91 126 174 219 274 326 383
#
# _framework density 19.21088
#
# number of rings (size 3 to 8) (size 9 to 14) (size 15 to 20)
#    0.000    1.333    4.167    2.000    1.167    5.333 
#    1.500    0.000    5.500    1.000    0.000    0.000 
#    0.000    0.000    0.000    0.000    0.000    0.000 
#
# Total GULP energy -534949.572767 kJ/mol
# GULP energy per Si atom -5572.391383 kJ/mol
# Density = 1.916715 g / cm^3
# Si number density = 19.210880 Si / 1000 Ang^3
#
#
#
# Elastic Constant Matrix: (Units=GPa)
#
#
# Indices 1 2 3 4 5 6 
#
# 1 80.1619 37.2607 30.7558 0.0000 0.0000 0.0000
# 2 37.2607 80.1619 30.7558 0.0000 0.0000 0.0000
# 3 30.7558 30.7558 107.1119 0.0000 0.0000 0.0000
# 4 0.0000 0.0000 0.0000 -21.5099 0.0000 0.0000
# 5 0.0000 0.0000 0.0000 0.0000 -21.5099 0.0000
# 6 0.0000 0.0000 0.0000 0.0000 0.0000 1.8478
#
#
#
# Elastic Compliance Matrix: (Units=1/GPa)
#
#
# Indices 1 2 3 4 5 6 
#
# 1 0.016667 -0.006643 -0.002878 0.000000 0.000000 0.000000
# 2 -0.006643 0.016667 -0.002878 0.000000 0.000000 0.000000
# 3 -0.002878 -0.002878 0.010989 0.000000 0.000000 0.000000
# 4 0.000000 0.000000 0.000000 -0.046490 0.000000 0.000000
# 5 0.000000 0.000000 0.000000 0.000000 -0.046490 0.000000
# 6 0.000000 0.000000 0.000000 0.000000 0.000000 0.541183
#
#
# Mechanical properties :
#
#
# Convention : Reuss Voigt Hill
#
# Bulk Modulus (GPa) = 51.21924 51.66449 51.44187
# Shear Modulus (GPa) = 9.54506 3.00982 6.27744
#
# Velocity S-wave (km/s) = 2.23145 1.25305 1.80963
# Velocity P-wave (km/s) = 5.77569 5.38936 5.58587
#
# Compressibility (1/GPa) = 0.01952391
#
# Stress axis : x y z
#
# Youngs Moduli (GPa) = 59.99989 59.99989 91.00050
#
# Poissons Ratio (x) = 0.39856 0.26192
# Poissons Ratio (y) = 0.39856 0.26192
# Poissons Ratio (z) = 0.17270 0.17270
#
# Static dielectric constant tensor:
#      x y z
#    x 1.153530 0.000000 0.000000 
#    y 0.000000 1.153530 0.000000 
#    z 0.000000 0.000000 1.737330 
# 
# From -- ./inp_files/6275.got.cif
#   From: 2010.05.17/outbox.cif.g08.bks.cpg/sg138_4_cif.got.tgz:6275.got - 2010.05.20 13:08:53.
