data_PCOD9571636
_publ_section_title
;
Structure prediction by ZEFSAII (Michael W. Deem and Ramdas Pophale) SiO2 
 PCOD9571636
Probable space group: I 4/M M M
;
_chemical_formula_sum "Si O2"
_cell_formula_units_Z 144
_cell_length_a 30.203444
_cell_length_b 30.203444
_cell_length_c 7.715975
_cell_angle_alpha 90.000000
_cell_angle_beta 90.000000
_cell_angle_gamma 90.000000
_cell_volume 7038.882989
_symmetry_space_group_name_H-M "I 4/M M M"
_symmetry_group_IT_number 139
_symmetry_cell_setting 'tetragonal'
loop_
_space_group_symop_operation_xyz
x,y,z
-y,x,z
-x,-y,z
y,-x,z
x,-y,-z
-x,y,-z
y,x,-z
-y,-x,-z
-x,-y,-z
y,-x,-z
x,y,-z
-y,x,-z
-x,y,z
x,-y,z
-y,-x,z
y,x,z
1/2+x,1/2+y,1/2+z
1/2-y,1/2+x,1/2+z
1/2-x,1/2-y,1/2+z
1/2+y,1/2-x,1/2+z
1/2+x,1/2-y,1/2-z
1/2-x,1/2+y,1/2-z
1/2+y,1/2+x,1/2-z
1/2-y,1/2-x,1/2-z
1/2-x,1/2-y,1/2-z
1/2+y,1/2-x,1/2-z
1/2+x,1/2+y,1/2-z
1/2-y,1/2+x,1/2-z
1/2-x,1/2+y,1/2+z
1/2+x,1/2-y,1/2+z
1/2-y,1/2-x,1/2+z
1/2+y,1/2+x,1/2+z
loop_
_atom_site_type_symbol
_atom_site_label
_atom_site_fract_x
_atom_site_fract_y
_atom_site_fract_z
Si Si1 0.450243 0.784394 0.795113
Si Si2 0.378194 0.448429 0.211236
Si Si3 0.212567 0.787434 0.291894
Si Si4 0.111039 0.793392 0.712415
Si Si5 0.049570 0.620526 0.205452
O O1 0.500000 0.784221 0.721554
O O2 0.419901 0.746158 0.724336
O O3 0.431259 0.833280 0.771835
O O4 0.453756 0.776069 0.000000
O O5 0.373501 0.500000 0.268456
O O6 0.424193 0.424193 0.260615
O O7 0.338620 0.414514 0.264346
O O8 0.376697 0.449695 0.000000
O O9 0.212213 0.787788 0.500000
O O10 0.250000 0.750000 0.250000
O O11 0.218433 0.838778 0.233401
O O12 0.112497 0.795133 0.500000
O O13 0.079473 0.579473 0.250000
O O14 0.000000 0.615803 0.278232
O O15 0.046832 0.623938 0.000000
#
# Coordination Sequence:
#
# PCOD9571636 Si02
#       5
#    32  32  16  32  32
#     4   9  17  30  50  74  97 125 166 211 251 296
#     4   9  15  23  38  63  97 137 177 213 252 301
#     4  10  20  34  50  68  95 129 167 209 256 306
#     4   9  16  29  47  67  93 129 170 211 254 303
#     4  10  21  36  53  74 101 131 163 202 250 303
#
# _framework density 20.457792000000001
#
# number of rings (size 3 to 8) (size 9 to 14) (size 15 to 20)
#    0.000    2.667    1.111    1.333    0.000    5.333 
#    0.000    5.556    0.000    0.000    0.000    0.000 
#    0.000    0.000    0.000    0.000    0.000    2.000 
#
# Total GULP energy -401060.284464 kJ/mol
# GULP energy per Si atom -5570.281729 kJ/mol
# Density = 2.041123 g / cm^3
# Si number density = 20.457792 Si / 1000 Ang^3
#
#
#
# Elastic Constant Matrix: (Units=GPa)
#
#
# Indices 1 2 3 4 5 6 
#
# 1 124.9722 114.5135 4.0566 0.0000 0.0000 0.0000
# 2 114.5135 124.9720 4.0566 0.0000 0.0000 0.0000
# 3 4.0566 4.0566 30.3320 0.0000 0.0000 0.0000
# 4 0.0000 0.0000 0.0000 -11.6595 0.0000 0.0000
# 5 0.0000 0.0000 0.0000 0.0000 -11.6595 0.0000
# 6 0.0000 0.0000 0.0000 0.0000 0.0000 38.4021
#
#
#
# Elastic Compliance Matrix: (Units=1/GPa)
#
#
# Indices 1 2 3 4 5 6 
#
# 1 0.049905 -0.045710 -0.000561 0.000000 0.000000 0.000000
# 2 -0.045710 0.049905 -0.000561 0.000000 0.000000 0.000000
# 3 -0.000561 -0.000561 0.033119 0.000000 0.000000 0.000000
# 4 0.000000 0.000000 0.000000 -0.085767 0.000000 0.000000
# 5 0.000000 0.000000 0.000000 0.000000 -0.085767 0.000000
# 6 0.000000 0.000000 0.000000 0.000000 0.000000 0.026040
#
#
# Mechanical properties :
#
#
# Convention : Reuss Voigt Hill
#
# Bulk Modulus (GPa) = 25.46875 58.39218 41.93046
# Shear Modulus (GPa) = 53.08622 13.52658 33.30640
#
# Velocity S-wave (km/s) = 5.09956 2.57416 4.03929
# Velocity P-wave (km/s) = 6.86662 6.11881 6.50347
#
# Compressibility (1/GPa) = 0.03926381
#
# Stress axis : x y z
#
# Youngs Moduli (GPa) = 20.03819 20.03817 30.19457
#
# Poissons Ratio (x) = 0.91595 0.01694
# Poissons Ratio (y) = 0.91595 0.01694
# Poissons Ratio (z) = 0.01124 0.01124
#
# Static dielectric constant tensor:
#      x y z
#    x 1.731290 0.000000 0.000000 
#    y 0.000000 1.731290 0.000000 
#    z 0.000000 0.000000 1.698900 
# 
# From -- ./inp_files/2001.got.cif
#   From: 2010.05.17/outbox.cif.g08.bks.cpg/sg139_2_cif.got.tgz:2001.got - 2010.05.20 13:14:44.
