data_PCOD9571992
_publ_section_title
;
Structure prediction by ZEFSAII (Michael W. Deem and Ramdas Pophale) SiO2 
 PCOD9571992
Probable space group: I 4/M C M
;
_chemical_formula_sum "Si O2"
_cell_formula_units_Z 192
_cell_length_a 24.923253
_cell_length_b 24.923253
_cell_length_c 14.718499
_cell_angle_alpha 90.000000
_cell_angle_beta 90.000000
_cell_angle_gamma 90.000000
_cell_volume 9142.668536
_symmetry_space_group_name_H-M "I 4/M C M"
_symmetry_group_IT_number 140
_symmetry_cell_setting 'tetragonal'
loop_
_space_group_symop_operation_xyz
x,y,z
-y,x,z
-x,-y,z
y,-x,z
x,-y,1/2-z
-x,y,1/2-z
y,x,1/2-z
-y,-x,1/2-z
-x,-y,-z
y,-x,-z
x,y,-z
-y,x,-z
-x,y,1/2+z
x,-y,1/2+z
-y,-x,1/2+z
y,x,1/2+z
1/2+x,1/2+y,1/2+z
1/2-y,1/2+x,1/2+z
1/2-x,1/2-y,1/2+z
1/2+y,1/2-x,1/2+z
1/2+x,1/2-y,-z
1/2-x,1/2+y,-z
1/2+y,1/2+x,-z
1/2-y,1/2-x,-z
1/2-x,1/2-y,1/2-z
1/2+y,1/2-x,1/2-z
1/2+x,1/2+y,1/2-z
1/2-y,1/2+x,1/2-z
1/2-x,1/2+y,z
1/2+x,1/2-y,z
1/2-y,1/2-x,z
1/2+y,1/2+x,z
loop_
_atom_site_type_symbol
_atom_site_label
_atom_site_fract_x
_atom_site_fract_y
_atom_site_fract_z
Si Si1 0.263217 0.453874 0.104040
Si Si2 0.044897 0.544897 0.888528
Si Si3 0.529383 0.645654 0.160550
Si Si4 0.011789 0.346996 0.891080
Si Si5 0.376268 0.714306 0.261086
Si Si6 0.452506 0.575263 0.500000
Si Si7 0.796394 0.703607 0.739785
Si Si8 0.638699 0.138699 0.108268
O O1 0.319694 0.484054 0.110506
O O2 0.215407 0.494167 0.136216
O O3 0.267105 0.401261 0.165297
O O4 0.252095 0.439510 0.000000
O O5 0.103718 0.524629 0.855887
O O6 0.000000 0.500000 0.864760
O O7 0.045941 0.545941 0.000000
O O8 0.500000 0.621815 0.250000
O O9 0.573516 0.688646 0.189618
O O10 0.559072 0.605394 0.093327
O O11 0.075160 0.354295 0.872782
O O12 0.004342 0.349425 0.000000
O O13 0.332678 0.667323 0.250000
O O14 0.345713 0.764731 0.305479
O O15 0.429368 0.516667 0.500000
O O16 0.750000 0.750000 0.750000
O O17 0.823363 0.676638 0.830072
O O18 0.647598 0.147598 0.000000
#
# Coordination Sequence:
#
# PCOD9571992 Si02
#       8
#    32  16  32  32  32  16  16  16
#     4  10  19  35  56  85 113 156 209 258 301 371
#     4   9  14  22  37  68 113 153 184 238 317 382
#     4  10  23  40  63  90 127 167 209 248 305 378
#     4   9  16  25  45  75 112 147 195 250 312 370
#     4  10  22  37  59  86 118 160 205 255 311 361
#     4  11  26  44  68 101 130 160 201 255 314 374
#     4  10  20  36  54  82 121 156 206 266 309 362
#     4  10  16  27  50  79 109 154 200 264 323 366
#
# _framework density 21.000433999999998
#
# number of rings (size 3 to 8) (size 9 to 14) (size 15 to 20)
#    0.000    2.167    3.333    0.000    4.667    0.000 
#    0.000    1.667    1.833    0.000    0.000    0.000 
#    0.000    0.000    0.000    0.000    0.000    0.000 
#
# Total GULP energy -534872.204870 kJ/mol
# GULP energy per Si atom -5571.585467 kJ/mol
# Density = 2.095264 g / cm^3
# Si number density = 21.000434 Si / 1000 Ang^3
#
#
#
# Elastic Constant Matrix: (Units=GPa)
#
#
# Indices 1 2 3 4 5 6 
#
# 1 80.9248 13.8285 22.2069 0.0000 0.0000 0.0000
# 2 13.8285 80.9244 22.2060 0.0000 0.0000 0.0000
# 3 22.2069 22.2060 67.2681 0.0000 0.0000 0.0000
# 4 0.0000 0.0000 0.0000 12.6648 0.0000 0.0000
# 5 0.0000 0.0000 0.0000 0.0000 12.6643 0.0000
# 6 0.0000 0.0000 0.0000 0.0000 0.0000 42.0633
#
#
#
# Elastic Compliance Matrix: (Units=1/GPa)
#
#
# Indices 1 2 3 4 5 6 
#
# 1 0.013695 -0.001209 -0.004122 0.000000 0.000000 0.000000
# 2 -0.001209 0.013695 -0.004122 0.000000 0.000000 0.000000
# 3 -0.004122 -0.004122 0.017587 0.000000 0.000000 0.000000
# 4 0.000000 0.000000 0.000000 0.078959 0.000000 0.000000
# 5 0.000000 0.000000 0.000000 0.000000 0.078962 0.000000
# 6 0.000000 0.000000 0.000000 0.000000 0.000000 0.023774
#
#
# Mechanical properties :
#
#
# Convention : Reuss Voigt Hill
#
# Bulk Modulus (GPa) = 38.35594 38.40002 38.37798
# Shear Modulus (GPa) = 19.66433 24.87020 22.26726
#
# Velocity S-wave (km/s) = 3.06335 3.44506 3.25979
# Velocity P-wave (km/s) = 5.55123 5.84377 5.69937
#
# Compressibility (1/GPa) = 0.02607158
#
# Stress axis : x y z
#
# Youngs Moduli (GPa) = 73.02008 73.02019 56.85947
#
# Poissons Ratio (x) = 0.08829 0.23437
# Poissons Ratio (y) = 0.08829 0.23436
# Poissons Ratio (z) = 0.30098 0.30096
#
# Static dielectric constant tensor:
#      x y z
#    x 1.788080 0.000000 0.000000 
#    y 0.000000 1.788080 0.000000 
#    z 0.000000 0.000000 1.804080 
# 
# From -- ./inp_files/5231.got.cif
#   From: 2010.05.17/outbox.cif.g08.bks.cpg/sg140_3_cif.got.tgz:5231.got - 2010.06.21 00:45:31.
