data_PCOD9571468
_publ_section_title
;
Structure prediction by ZEFSAII (Michael W. Deem and Ramdas Pophale) SiO2 
 PCOD9571468
Probable space group: I 4/M M M
;
_chemical_formula_sum "Si O2"
_cell_formula_units_Z 144
_cell_length_a 21.616587
_cell_length_b 21.616587
_cell_length_c 17.040376
_cell_angle_alpha 90.000000
_cell_angle_beta 90.000000
_cell_angle_gamma 90.000000
_cell_volume 7962.572939
_symmetry_space_group_name_H-M "I 4/M M M"
_symmetry_group_IT_number 139
_symmetry_cell_setting 'tetragonal'
loop_
_space_group_symop_operation_xyz
x,y,z
-y,x,z
-x,-y,z
y,-x,z
x,-y,-z
-x,y,-z
y,x,-z
-y,-x,-z
-x,-y,-z
y,-x,-z
x,y,-z
-y,x,-z
-x,y,z
x,-y,z
-y,-x,z
y,x,z
1/2+x,1/2+y,1/2+z
1/2-y,1/2+x,1/2+z
1/2-x,1/2-y,1/2+z
1/2+y,1/2-x,1/2+z
1/2+x,1/2-y,1/2-z
1/2-x,1/2+y,1/2-z
1/2+y,1/2+x,1/2-z
1/2-y,1/2-x,1/2-z
1/2-x,1/2-y,1/2-z
1/2+y,1/2-x,1/2-z
1/2+x,1/2+y,1/2-z
1/2-y,1/2+x,1/2-z
1/2-x,1/2+y,1/2+z
1/2+x,1/2-y,1/2+z
1/2-y,1/2-x,1/2+z
1/2+y,1/2+x,1/2+z
loop_
_atom_site_type_symbol
_atom_site_label
_atom_site_fract_x
_atom_site_fract_y
_atom_site_fract_z
Si Si1 0.742746 0.642931 0.851176
Si Si2 0.169294 0.571068 0.732538
Si Si3 0.924514 0.819934 0.500000
Si Si4 0.568757 0.338288 0.594982
Si Si5 0.636649 0.214943 0.407695
O O1 0.685415 0.685415 0.824195
O O2 0.776359 0.604525 0.782650
O O3 0.796749 0.689526 0.881397
O O4 0.717826 0.600147 0.922969
O O5 0.168566 0.500000 0.752270
O O6 0.105779 0.605779 0.750000
O O7 0.179552 0.584525 0.641097
O O8 0.884916 0.884916 0.500000
O O9 0.000000 0.826149 0.500000
O O10 0.564529 0.340616 0.500000
O O11 0.500000 0.324768 0.625613
O O12 0.596770 0.403231 0.622568
O O13 0.618695 0.285334 0.611114
O O14 0.631728 0.206217 0.500000
#
# Coordination Sequence:
#
# PCOD9571468 Si02
#       5
#    32  32  16  32  32
#     4  10  20  35  56  83 111 141 179 227 284 334
#     4  10  22  37  55  79 108 145 187 229 277 331
#     4  10  20  35  58  84 113 147 178 216 268 328
#     4   9  17  27  41  63  93 131 171 211 255 305
#     4  10  19  33  54  80 109 138 176 231 282 334
#
# _framework density 18.084607999999999
#
# number of rings (size 3 to 8) (size 9 to 14) (size 15 to 20)
#    0.000    2.222    1.111    2.000    0.000    7.667 
#    0.000    1.111    0.000    0.000    0.000    3.111 
#    0.000    5.333    0.000    0.222    0.000    0.000 
#
# Total GULP energy -401063.235011 kJ/mol
# GULP energy per Si atom -5570.322708 kJ/mol
# Density = 1.804345 g / cm^3
# Si number density = 18.084608 Si / 1000 Ang^3
#
#
#
# Elastic Constant Matrix: (Units=GPa)
#
#
# Indices 1 2 3 4 5 6 
#
# 1 100.8323 80.0725 17.5382 0.0000 0.0000 0.0000
# 2 80.0725 100.8323 17.5382 0.0000 0.0000 0.0000
# 3 17.5382 17.5382 29.0378 0.0000 0.0000 0.0000
# 4 0.0000 0.0000 0.0000 4.3926 0.0000 0.0000
# 5 0.0000 0.0000 0.0000 0.0000 4.3926 0.0000
# 6 0.0000 0.0000 0.0000 0.0000 0.0000 9.0936
#
#
#
# Elastic Compliance Matrix: (Units=1/GPa)
#
#
# Indices 1 2 3 4 5 6 
#
# 1 0.027215 -0.020954 -0.003782 0.000000 0.000000 0.000000
# 2 -0.020954 0.027215 -0.003782 0.000000 0.000000 0.000000
# 3 -0.003782 -0.003782 0.039006 0.000000 0.000000 0.000000
# 4 0.000000 0.000000 0.000000 0.227655 0.000000 0.000000
# 5 0.000000 0.000000 0.000000 0.000000 0.227655 0.000000
# 6 0.000000 0.000000 0.000000 0.000000 0.000000 0.109968
#
#
# Mechanical properties :
#
#
# Convention : Reuss Voigt Hill
#
# Bulk Modulus (GPa) = 27.47120 51.22226 39.34673
# Shear Modulus (GPa) = 6.86923 11.27932 9.07427
#
# Velocity S-wave (km/s) = 1.95106 2.50010 2.24245
# Velocity P-wave (km/s) = 4.50543 6.05964 5.33938
#
# Compressibility (1/GPa) = 0.03640176
#
# Stress axis : x y z
#
# Youngs Moduli (GPa) = 36.74383 36.74383 25.63719
#
# Poissons Ratio (x) = 0.76995 0.09695
# Poissons Ratio (y) = 0.76995 0.09695
# Poissons Ratio (z) = 0.13895 0.13895
#
# Static dielectric constant tensor:
#      x y z
#    x 1.630100 0.000000 0.000000 
#    y 0.000000 1.630100 0.000000 
#    z 0.000000 0.000000 1.632460 
# 
# From -- ./inp_files/8149.got.cif
#   From: 2010.05.17/outbox.cif.g08.bks.cpg/sg139_5_cif.got.tgz:8149.got - 2010.05.20 13:14:44.
