data_PCOD9571790
_publ_section_title
;
Structure prediction by ZEFSAII (Michael W. Deem and Ramdas Pophale) SiO2 
 PCOD9571790
Probable space group: I 4/M M M
;
_chemical_formula_sum "Si O2"
_cell_formula_units_Z 144
_cell_length_a 17.742681
_cell_length_b 17.742681
_cell_length_c 24.913143
_cell_angle_alpha 90.000000
_cell_angle_beta 90.000000
_cell_angle_gamma 90.000000
_cell_volume 7842.725406
_symmetry_space_group_name_H-M "I 4/M M M"
_symmetry_group_IT_number 139
_symmetry_cell_setting 'tetragonal'
loop_
_space_group_symop_operation_xyz
x,y,z
-y,x,z
-x,-y,z
y,-x,z
x,-y,-z
-x,y,-z
y,x,-z
-y,-x,-z
-x,-y,-z
y,-x,-z
x,y,-z
-y,x,-z
-x,y,z
x,-y,z
-y,-x,z
y,x,z
1/2+x,1/2+y,1/2+z
1/2-y,1/2+x,1/2+z
1/2-x,1/2-y,1/2+z
1/2+y,1/2-x,1/2+z
1/2+x,1/2-y,1/2-z
1/2-x,1/2+y,1/2-z
1/2+y,1/2+x,1/2-z
1/2-y,1/2-x,1/2-z
1/2-x,1/2-y,1/2-z
1/2+y,1/2-x,1/2-z
1/2+x,1/2+y,1/2-z
1/2-y,1/2+x,1/2-z
1/2-x,1/2+y,1/2+z
1/2+x,1/2-y,1/2+z
1/2-y,1/2-x,1/2+z
1/2+y,1/2+x,1/2+z
loop_
_atom_site_type_symbol
_atom_site_label
_atom_site_fract_x
_atom_site_fract_y
_atom_site_fract_z
Si Si1 0.413673 0.704924 0.563555
Si Si2 0.341974 0.846384 0.611760
Si Si3 0.792403 0.089940 0.673827
Si Si4 0.590295 0.000000 0.563245
Si Si5 0.191312 0.587808 0.276042
O O1 0.420627 0.692910 0.500000
O O2 0.500000 0.712430 0.584702
O O3 0.365509 0.634491 0.586371
O O4 0.364243 0.780642 0.570906
O O5 0.257647 0.870905 0.627404
O O6 0.372923 0.809327 0.666826
O O7 0.381138 0.924302 0.592971
O O8 0.874769 0.125232 0.673005
O O9 0.752890 0.109746 0.731162
O O10 0.789711 0.000000 0.668047
O O11 0.500000 0.000000 0.564526
O O12 0.613712 0.000000 0.500000
O O13 0.197160 0.500000 0.284137
O O14 0.111887 0.611887 0.250000
#
# Coordination Sequence:
#
# PCOD9571790 Si02
#       5
#    32  32  32  16  32
#     4  10  21  36  55  80 110 147 191 235 281 337
#     4  11  20  36  55  81 114 150 187 236 291 343
#     4  10  21  38  57  82 113 147 192 239 289 351
#     4  11  22  34  54  84 119 157 195 239 290 352
#     4   9  19  31  48  75 107 142 177 216 267 329
#
# _framework density 18.360963999999999
#
# number of rings (size 3 to 8) (size 9 to 14) (size 15 to 20)
#    0.000    1.889    1.111    3.333    1.556    7.333 
#    0.000    1.111    0.000    0.000    0.000    3.111 
#    0.000    0.889    0.000    0.000    0.000    0.000 
#
# Total GULP energy -400937.616655 kJ/mol
# GULP energy per Si atom -5568.578009 kJ/mol
# Density = 1.831917 g / cm^3
# Si number density = 18.360964 Si / 1000 Ang^3
#
#
#
# Elastic Constant Matrix: (Units=GPa)
#
#
# Indices 1 2 3 4 5 6 
#
# 1 83.0150 59.8377 21.0841 0.0000 0.0000 0.0000
# 2 59.8377 83.0150 21.0841 0.0000 0.0000 0.0000
# 3 21.0841 21.0841 34.8454 0.0000 0.0000 0.0000
# 4 0.0000 0.0000 0.0000 10.1042 0.0000 0.0000
# 5 0.0000 0.0000 0.0000 0.0000 10.1042 0.0000
# 6 0.0000 0.0000 0.0000 0.0000 0.0000 31.2376
#
#
#
# Elastic Compliance Matrix: (Units=1/GPa)
#
#
# Indices 1 2 3 4 5 6 
#
# 1 0.025834 -0.017312 -0.005157 0.000000 0.000000 0.000000
# 2 -0.017312 0.025834 -0.005157 0.000000 0.000000 0.000000
# 3 -0.005157 -0.005157 0.034939 0.000000 0.000000 0.000000
# 4 0.000000 0.000000 0.000000 0.098969 0.000000 0.000000
# 5 0.000000 0.000000 0.000000 0.000000 0.098969 0.000000
# 6 0.000000 0.000000 0.000000 0.000000 0.000000 0.032013
#
#
# Mechanical properties :
#
#
# Convention : Reuss Voigt Hill
#
# Bulk Modulus (GPa) = 31.89121 44.98748 38.43934
# Shear Modulus (GPa) = 13.08010 16.88047 14.98028
#
# Velocity S-wave (km/s) = 2.67195 3.03540 2.85945
# Velocity P-wave (km/s) = 5.18901 6.06957 5.64648
#
# Compressibility (1/GPa) = 0.03135661
#
# Stress axis : x y z
#
# Youngs Moduli (GPa) = 38.70853 38.70853 28.62159
#
# Poissons Ratio (x) = 0.67011 0.14759
# Poissons Ratio (y) = 0.67011 0.14759
# Poissons Ratio (z) = 0.19961 0.19961
#
# Static dielectric constant tensor:
#      x y z
#    x 1.638150 0.000000 0.000000 
#    y 0.000000 1.638150 0.000000 
#    z 0.000000 0.000000 1.696780 
# 
# From -- ./inp_files/11456.got.cif
#   From: 2010.05.17/outbox.cif.g08.bks.cpg/sg139_6_cif.got.tgz:11456.got - 2010.05.20 13:14:44.
