data_PCOD9571071
_publ_section_title
;
Structure prediction by ZEFSAII (Michael W. Deem and Ramdas Pophale) SiO2 
 PCOD9571071
Probable space group: P 42/N C M
;
_chemical_formula_sum "Si O2"
_cell_formula_units_Z 96
_cell_length_a 22.843381
_cell_length_b 22.843381
_cell_length_c 9.700725
_cell_angle_alpha 90.000000
_cell_angle_beta 90.000000
_cell_angle_gamma 90.000000
_cell_volume 5062.032858
_symmetry_space_group_name_H-M "P 42/N C M"
_symmetry_group_IT_number 138
_space_group.IT_coordinate_system_code '2'
_symmetry_cell_setting 'tetragonal'
loop_
_space_group_symop_operation_xyz
x,y,z
1/2-y,x,1/2+z
1/2-x,1/2-y,z
y,1/2-x,1/2+z
1/2+x,-y,1/2-z
-x,1/2+y,1/2-z
1/2+y,1/2+x,-z
-y,-x,-z
-x,-y,-z
1/2+y,-x,1/2-z
1/2+x,1/2+y,-z
-y,1/2+x,1/2-z
1/2-x,y,1/2+z
x,1/2-y,1/2+z
1/2-y,1/2-x,z
y,x,z
loop_
_atom_site_type_symbol
_atom_site_label
_atom_site_fract_x
_atom_site_fract_y
_atom_site_fract_z
Si Si1 0.918473 0.272806 0.195264
Si Si2 0.419071 0.209671 0.589449
Si Si3 0.252450 0.342413 0.840571
Si Si4 0.610365 0.986258 0.261911
Si Si5 0.988332 0.286626 0.933414
Si Si6 0.882751 0.139566 0.159421
O O1 0.969916 0.255221 0.305564
O O2 0.888460 0.209258 0.182120
O O3 0.883830 0.326547 0.260150
O O4 0.935286 0.292980 0.040758
O O5 0.371705 0.214906 0.468679
O O6 0.389075 0.229599 0.731084
O O7 0.451843 0.148814 0.622082
O O8 0.466043 0.254782 0.531548
O O9 0.197654 0.302347 0.886452
O O10 0.298524 0.298524 0.770299
O O11 0.652795 0.987349 0.127666
O O12 0.608882 0.055324 0.299084
O O13 0.550312 0.949689 0.243958
O O14 0.873013 0.126988 0.000000
#
# Coordination Sequence:
#
# PCOD9571071 Si02
#       6
#    16  16  16  16  16  16
#     4  11  22  42  69  98 129 170 207 268 333 393
#     4  12  20  37  61  83 121 170 216 263 321 388
#     4  11  23  35  52  83 120 160 213 279 334 376
#     4  11  24  40  65  97 131 177 225 270 323 394
#     4  11  21  41  64  94 129 171 217 264 325 393
#     4  11  23  44  70 100 137 169 217 270 333 398
#
# _framework density 18.964713
#
# number of rings (size 3 to 8) (size 9 to 14) (size 15 to 20)
#    0.000    0.833    6.667    2.000    0.000    5.333 
#    0.000    2.500    0.000    0.000    0.000    0.000 
#    0.000    0.000    0.000    0.000    0.000    0.000 
#
# Total GULP energy -535140.967072 kJ/mol
# GULP energy per Si atom -5574.385074 kJ/mol
# Density = 1.892155 g / cm^3
# Si number density = 18.964713 Si / 1000 Ang^3
#
#
#
# Elastic Constant Matrix: (Units=GPa)
#
#
# Indices 1 2 3 4 5 6 
#
# 1 109.6362 75.5696 36.4119 0.0000 0.0000 0.0000
# 2 75.5696 109.6375 36.4118 0.0000 0.0000 0.0000
# 3 36.4119 36.4118 90.4015 0.0000 0.0000 0.0000
# 4 0.0000 0.0000 0.0000 -10.3490 0.0000 0.0000
# 5 0.0000 0.0000 0.0000 0.0000 -10.3359 0.0000
# 6 0.0000 0.0000 0.0000 0.0000 0.0000 21.7070
#
#
#
# Elastic Compliance Matrix: (Units=1/GPa)
#
#
# Indices 1 2 3 4 5 6 
#
# 1 0.017885 -0.011469 -0.002584 0.000000 0.000000 0.000000
# 2 -0.011469 0.017884 -0.002584 0.000000 0.000000 0.000000
# 3 -0.002584 -0.002584 0.013143 0.000000 0.000000 0.000000
# 4 0.000000 0.000000 0.000000 -0.096628 0.000000 0.000000
# 5 0.000000 0.000000 0.000000 0.000000 -0.096750 0.000000
# 6 0.000000 0.000000 0.000000 0.000000 0.000000 0.046068
#
#
# Mechanical properties :
#
#
# Convention : Reuss Voigt Hill
#
# Bulk Modulus (GPa) = 63.94611 67.38464 65.66537
# Shear Modulus (GPa) = -83.45869 10.95653 -36.25108
#
# Velocity S-wave (km/s) = -6.64100 2.40621 -4.37682
# Velocity P-wave (km/s) = 5.00122 6.58244 3.02625
#
# Compressibility (1/GPa) = 0.01563817
#
# Stress axis : x y z
#
# Youngs Moduli (GPa) = 55.91381 55.91457 76.08419
#
# Poissons Ratio (x) = 0.64129 0.19661
# Poissons Ratio (y) = 0.64128 0.19660
# Poissons Ratio (z) = 0.14448 0.14448
#
# Static dielectric constant tensor:
#      x y z
#    x 1.696980 0.000000 0.000000 
#    y 0.000000 1.696980 0.000000 
#    z 0.000000 0.000000 1.659460 
# 
# From -- ./inp_files/1707.got.cif
#   From: 2010.05.17/outbox.cif.g08.bks.cpg/sg138_1_cif.got.tgz:1707.got - 2010.05.20 13:08:53.
