data_PCOD9571720
_publ_section_title
;
Structure prediction by ZEFSAII (Michael W. Deem and Ramdas Pophale) SiO2 
 PCOD9571720
Probable space group: I 4/M M M
;
_chemical_formula_sum "Si O2"
_cell_formula_units_Z 128
_cell_length_a 21.704177
_cell_length_b 21.704177
_cell_length_c 13.242246
_cell_angle_alpha 90.000000
_cell_angle_beta 90.000000
_cell_angle_gamma 90.000000
_cell_volume 6238.042028
_symmetry_space_group_name_H-M "I 4/M M M"
_symmetry_group_IT_number 139
_symmetry_cell_setting 'tetragonal'
loop_
_space_group_symop_operation_xyz
x,y,z
-y,x,z
-x,-y,z
y,-x,z
x,-y,-z
-x,y,-z
y,x,-z
-y,-x,-z
-x,-y,-z
y,-x,-z
x,y,-z
-y,x,-z
-x,y,z
x,-y,z
-y,-x,z
y,x,z
1/2+x,1/2+y,1/2+z
1/2-y,1/2+x,1/2+z
1/2-x,1/2-y,1/2+z
1/2+y,1/2-x,1/2+z
1/2+x,1/2-y,1/2-z
1/2-x,1/2+y,1/2-z
1/2+y,1/2+x,1/2-z
1/2-y,1/2-x,1/2-z
1/2-x,1/2-y,1/2-z
1/2+y,1/2-x,1/2-z
1/2+x,1/2+y,1/2-z
1/2-y,1/2+x,1/2-z
1/2-x,1/2+y,1/2+z
1/2+x,1/2-y,1/2+z
1/2-y,1/2-x,1/2+z
1/2+y,1/2+x,1/2+z
loop_
_atom_site_type_symbol
_atom_site_label
_atom_site_fract_x
_atom_site_fract_y
_atom_site_fract_z
Si Si1 0.573234 0.092864 0.500000
Si Si2 0.329829 0.429012 0.669047
Si Si3 0.234792 0.425782 0.500000
Si Si4 0.112846 0.211785 0.615330
Si Si5 0.070154 0.345621 0.317885
O O1 0.500000 0.088966 0.500000
O O2 0.593977 0.164538 0.500000
O O3 0.603594 0.063114 0.403634
O O4 0.340618 0.500000 0.645351
O O5 0.386922 0.386922 0.640174
O O6 0.271591 0.407517 0.601341
O O7 0.318573 0.421424 0.788853
O O8 0.232900 0.500000 0.500000
O O9 0.091662 0.198152 0.500000
O O10 0.182050 0.182050 0.621285
O O11 0.099298 0.283515 0.635773
O O12 0.121682 0.378319 0.250000
O O13 0.000000 0.333178 0.275145
#
# Coordination Sequence:
#
# PCOD9571720 Si02
#       5
#    16  32  16  32  32
#     4  11  23  39  60  86 118 160 209 256 306 372
#     4  10  20  35  59  88 122 163 207 263 327 393
#     4   9  19  38  58  82 117 159 208 253 307 376
#     4  10  22  42  66  93 123 164 222 277 325 378
#     4  12  25  41  63  92 128 171 213 263 323 386
#
# _framework density 20.519259000000002
#
# number of rings (size 3 to 8) (size 9 to 14) (size 15 to 20)
#    0.000    1.500    1.250    3.750    0.000    6.500 
#    0.000    2.500    0.000    2.250    0.000    3.500 
#    0.000    0.000    0.000    0.000    0.000    0.000 
#
# Total GULP energy -356734.148976 kJ/mol
# GULP energy per Si atom -5573.971078 kJ/mol
# Density = 2.047256 g / cm^3
# Si number density = 20.519259 Si / 1000 Ang^3
#
#
#
# Elastic Constant Matrix: (Units=GPa)
#
#
# Indices 1 2 3 4 5 6 
#
# 1 114.1679 58.5583 17.2383 0.0000 0.0000 0.0000
# 2 58.5583 114.1698 17.2398 0.0000 0.0000 0.0000
# 3 17.2383 17.2398 77.0792 0.0000 0.0000 0.0000
# 4 0.0000 0.0000 0.0000 31.5885 0.0000 0.0000
# 5 0.0000 0.0000 0.0000 0.0000 31.5884 0.0000
# 6 0.0000 0.0000 0.0000 0.0000 0.0000 23.7199
#
#
#
# Elastic Compliance Matrix: (Units=1/GPa)
#
#
# Indices 1 2 3 4 5 6 
#
# 1 0.012021 -0.005961 -0.001355 0.000000 0.000000 0.000000
# 2 -0.005961 0.012021 -0.001356 0.000000 0.000000 0.000000
# 3 -0.001355 -0.001356 0.013580 0.000000 0.000000 0.000000
# 4 0.000000 0.000000 0.000000 0.031657 0.000000 0.000000
# 5 0.000000 0.000000 0.000000 0.000000 0.031657 0.000000
# 6 0.000000 0.000000 0.000000 0.000000 0.000000 0.042159
#
#
# Mechanical properties :
#
#
# Convention : Reuss Voigt Hill
#
# Bulk Modulus (GPa) = 49.31311 54.60996 51.96154
# Shear Modulus (GPa) = 29.90462 31.53805 30.72134
#
# Velocity S-wave (km/s) = 3.82172 3.92471 3.87356
# Velocity P-wave (km/s) = 6.59991 6.87092 6.73678
#
# Compressibility (1/GPa) = 0.02027858
#
# Stress axis : x y z
#
# Youngs Moduli (GPa) = 83.18657 83.18752 73.63807
#
# Poissons Ratio (x) = 0.49589 0.09979
# Poissons Ratio (y) = 0.49588 0.09982
# Poissons Ratio (z) = 0.11273 0.11276
#
# Static dielectric constant tensor:
#      x y z
#    x 1.726790 0.000000 0.000000 
#    y 0.000000 1.726790 0.000000 
#    z 0.000000 0.000000 1.817650 
# 
# From -- ./inp_files/5439.got.cif
#   From: 2010.05.17/outbox.cif.g08.bks.cpg/sg139_3_cif.got.tgz:5439.got - 2010.05.20 13:14:44.
