data_PCOD9571542
_publ_section_title
;
Structure prediction by ZEFSAII (Michael W. Deem and Ramdas Pophale) SiO2 
 PCOD9571542
Probable space group: I 4/M M M
;
_chemical_formula_sum "Si O2"
_cell_formula_units_Z 160
_cell_length_a 23.957964
_cell_length_b 23.957964
_cell_length_c 18.160286
_cell_angle_alpha 90.000000
_cell_angle_beta 90.000000
_cell_angle_gamma 90.000000
_cell_volume 10423.714308
_symmetry_space_group_name_H-M "I 4/M M M"
_symmetry_group_IT_number 139
_symmetry_cell_setting 'tetragonal'
loop_
_space_group_symop_operation_xyz
x,y,z
-y,x,z
-x,-y,z
y,-x,z
x,-y,-z
-x,y,-z
y,x,-z
-y,-x,-z
-x,-y,-z
y,-x,-z
x,y,-z
-y,x,-z
-x,y,z
x,-y,z
-y,-x,z
y,x,z
1/2+x,1/2+y,1/2+z
1/2-y,1/2+x,1/2+z
1/2-x,1/2-y,1/2+z
1/2+y,1/2-x,1/2+z
1/2+x,1/2-y,1/2-z
1/2-x,1/2+y,1/2-z
1/2+y,1/2+x,1/2-z
1/2-y,1/2-x,1/2-z
1/2-x,1/2-y,1/2-z
1/2+y,1/2-x,1/2-z
1/2+x,1/2+y,1/2-z
1/2-y,1/2+x,1/2-z
1/2-x,1/2+y,1/2+z
1/2+x,1/2-y,1/2+z
1/2-y,1/2-x,1/2+z
1/2+y,1/2+x,1/2+z
loop_
_atom_site_type_symbol
_atom_site_label
_atom_site_fract_x
_atom_site_fract_y
_atom_site_fract_z
Si Si1 0.908866 0.563074 0.087827
Si Si2 0.247244 0.663691 0.413505
Si Si3 0.437773 0.794588 0.171856
Si Si4 0.151258 0.758050 0.582701
Si Si5 0.819140 0.563443 0.339765
O O1 0.929437 0.500000 0.108488
O O2 0.844254 0.564266 0.112178
O O3 0.932817 0.618276 0.126785
O O4 0.915392 0.568575 0.000000
O O5 0.255544 0.651040 0.500000
O O6 0.303002 0.696999 0.386937
O O7 0.197350 0.709151 0.409494
O O8 0.222864 0.609170 0.373697
O O9 0.500000 0.771266 0.173311
O O10 0.393219 0.750074 0.146078
O O11 0.426454 0.820446 0.251998
O O12 0.127198 0.753108 0.500000
O O13 0.184660 0.815341 0.587642
O O14 0.799368 0.500000 0.352491
#
# Coordination Sequence:
#
# PCOD9571542 Si02
#       5
#    32  32  32  32  32
#     4  10  20  33  48  64  86 121 163 202 238 275
#     4   9  18  32  49  69  92 118 151 192 237 282
#     4  10  20  32  46  67  96 125 154 191 235 279
#     4   9  17  30  50  73  93 117 155 196 231 277
#     4  11  22  33  47  69  95 122 158 199 236 280
#
# _framework density 15.349615
#
# number of rings (size 3 to 8) (size 9 to 14) (size 15 to 20)
#    0.000    2.200    2.000    3.000    0.000    4.000 
#    0.000    3.000    0.000    3.600    0.000    0.000 
#    0.000    0.800    0.000    8.800    0.000    6.400 
#
# Total GULP energy -445618.711454 kJ/mol
# GULP energy per Si atom -5570.233893 kJ/mol
# Density = 1.531468 g / cm^3
# Si number density = 15.349615 Si / 1000 Ang^3
#
#
#
# Elastic Constant Matrix: (Units=GPa)
#
#
# Indices 1 2 3 4 5 6 
#
# 1 70.5524 46.7763 42.5839 0.0000 0.0000 0.0000
# 2 46.7763 70.5524 42.5839 0.0000 0.0000 0.0000
# 3 42.5839 42.5839 71.9423 0.0000 0.0000 0.0000
# 4 0.0000 0.0000 0.0000 21.3973 0.0000 0.0000
# 5 0.0000 0.0000 0.0000 0.0000 21.3973 0.0000
# 6 0.0000 0.0000 0.0000 0.0000 0.0000 14.8080
#
#
#
# Elastic Compliance Matrix: (Units=1/GPa)
#
#
# Indices 1 2 3 4 5 6 
#
# 1 0.028502 -0.013558 -0.008846 0.000000 0.000000 0.000000
# 2 -0.013558 0.028502 -0.008846 0.000000 0.000000 0.000000
# 3 -0.008846 -0.008846 0.024372 0.000000 0.000000 0.000000
# 4 0.000000 0.000000 0.000000 0.046735 0.000000 0.000000
# 5 0.000000 0.000000 0.000000 0.000000 0.046735 0.000000
# 6 0.000000 0.000000 0.000000 0.000000 0.000000 0.067531
#
#
# Mechanical properties :
#
#
# Convention : Reuss Voigt Hill
#
# Bulk Modulus (GPa) = 52.97361 52.99281 52.98321
# Shear Modulus (GPa) = 16.06862 16.92739 16.49800
#
# Velocity S-wave (km/s) = 3.23900 3.32443 3.28199
# Velocity P-wave (km/s) = 6.96954 7.02386 6.99675
#
# Compressibility (1/GPa) = 0.01887733
#
# Stress axis : x y z
#
# Youngs Moduli (GPa) = 35.08582 35.08582 41.03103
#
# Poissons Ratio (x) = 0.47568 0.36295
# Poissons Ratio (y) = 0.47568 0.36295
# Poissons Ratio (z) = 0.31036 0.31036
#
# Static dielectric constant tensor:
#      x y z
#    x 1.518770 0.000000 0.000000 
#    y 0.000000 1.518770 0.000000 
#    z 0.000000 0.000000 1.529080 
# 
# From -- ./inp_files/5891.got.cif
#   From: 2010.05.17/outbox.cif.g08.bks.cpg/sg139_3_cif.got.tgz:5891.got - 2010.05.20 13:14:44.
