data_PCOD9571101
_publ_section_title
;
Structure prediction by ZEFSAII (Michael W. Deem and Ramdas Pophale) SiO2 
 PCOD9571101
Probable space group: P 42/N C M
;
_chemical_formula_sum "Si O2"
_cell_formula_units_Z 48
_cell_length_a 13.990067
_cell_length_b 13.990067
_cell_length_c 12.613683
_cell_angle_alpha 90.000000
_cell_angle_beta 90.000000
_cell_angle_gamma 90.000000
_cell_volume 2468.774945
_symmetry_space_group_name_H-M "P 42/N C M"
_symmetry_group_IT_number 138
_space_group.IT_coordinate_system_code '2'
_symmetry_cell_setting 'tetragonal'
loop_
_space_group_symop_operation_xyz
x,y,z
1/2-y,x,1/2+z
1/2-x,1/2-y,z
y,1/2-x,1/2+z
1/2+x,-y,1/2-z
-x,1/2+y,1/2-z
1/2+y,1/2+x,-z
-y,-x,-z
-x,-y,-z
1/2+y,-x,1/2-z
1/2+x,1/2+y,-z
-y,1/2+x,1/2-z
1/2-x,y,1/2+z
x,1/2-y,1/2+z
1/2-y,1/2-x,z
y,x,z
loop_
_atom_site_type_symbol
_atom_site_label
_atom_site_fract_x
_atom_site_fract_y
_atom_site_fract_z
Si Si1 0.827585 0.827585 0.353070
Si Si2 0.728644 0.998497 0.226353
Si Si3 0.573470 0.573470 0.556846
Si Si4 0.666697 0.331116 0.124279
O O1 0.750000 0.750000 0.388503
O O2 0.774590 0.905588 0.279350
O O3 0.874619 0.874619 0.457687
O O4 0.648787 0.977056 0.136884
O O5 0.804209 0.067004 0.170139
O O6 0.694199 0.066997 0.321423
O O7 0.500000 0.500000 0.500000
O O8 0.750000 0.250000 0.142358
O O9 0.659525 0.340476 0.000000
#
# Coordination Sequence:
#
# PCOD9571101 Si02
#       4
#     8  16   8  16
#     4  12  28  48  69 101 144 191 230 283 356 426
#     4  12  23  48  69 103 142 183 235 294 350 427
#     4  12  28  44  79 103 139 191 245 287 357 425
#     4  11  23  42  72 104 138 179 231 297 359 415
#
# _framework density 19.442843
#
# number of rings (size 3 to 8) (size 9 to 14) (size 15 to 20)
#    0.000    0.333    5.000    4.000    7.000    0.000 
#    0.000    1.667    0.000    0.000    0.000    0.000 
#    0.000    0.000    0.000    0.000    0.000    0.000 
#
# Total GULP energy -268059.040389 kJ/mol
# GULP energy per Si atom -5584.563341 kJ/mol
# Density = 1.939859 g / cm^3
# Si number density = 19.442843 Si / 1000 Ang^3
#
#
#
# Elastic Constant Matrix: (Units=GPa)
#
#
# Indices 1 2 3 4 5 6 
#
# 1 137.4631 78.5259 76.4505 0.0000 0.0000 0.0000
# 2 78.5259 137.4626 76.4500 0.0000 0.0000 0.0000
# 3 76.4505 76.4500 201.2273 0.0000 0.0000 0.0000
# 4 0.0000 0.0000 0.0000 23.5936 0.0000 0.0000
# 5 0.0000 0.0000 0.0000 0.0000 23.5949 0.0000
# 6 0.0000 0.0000 0.0000 0.0000 0.0000 48.1899
#
#
#
# Elastic Compliance Matrix: (Units=1/GPa)
#
#
# Indices 1 2 3 4 5 6 
#
# 1 0.011650 -0.005317 -0.002406 0.000000 0.000000 0.000000
# 2 -0.005317 0.011650 -0.002406 0.000000 0.000000 0.000000
# 3 -0.002406 -0.002406 0.006798 0.000000 0.000000 0.000000
# 4 0.000000 0.000000 0.000000 0.042384 0.000000 0.000000
# 5 0.000000 0.000000 0.000000 0.000000 0.042382 0.000000
# 6 0.000000 0.000000 0.000000 0.000000 0.000000 0.020751
#
#
# Mechanical properties :
#
#
# Convention : Reuss Voigt Hill
#
# Bulk Modulus (GPa) = 101.62906 104.33396 102.98151
# Shear Modulus (GPa) = 31.41606 35.39079 33.40342
#
# Velocity S-wave (km/s) = 4.02408 4.27106 4.14941
# Velocity P-wave (km/s) = 8.60088 8.83748 8.71998
#
# Compressibility (1/GPa) = 0.00983971
#
# Stress axis : x y z
#
# Youngs Moduli (GPa) = 85.83526 85.83519 147.10748
#
# Poissons Ratio (x) = 0.45639 0.35396
# Poissons Ratio (y) = 0.45639 0.35395
# Poissons Ratio (z) = 0.20653 0.20653
#
# Static dielectric constant tensor:
#      x y z
#    x 1.558630 0.000000 0.000000 
#    y 0.000000 1.558640 0.000000 
#    z 0.000000 0.000000 1.663220 
# 
# From -- ./inp_files/2422.got.cif
#   From: 2010.05.17/outbox.cif.g08.bks.cpg/sg138_2_cif.got.tgz:2422.got - 2010.05.20 13:08:53.
