data_PCOD9571886
_publ_section_title
;
Structure prediction by ZEFSAII (Michael W. Deem and Ramdas Pophale) SiO2 
 PCOD9571886
Probable space group: I 4/M M M
;
_chemical_formula_sum "Si O2"
_cell_formula_units_Z 160
_cell_length_a 21.453739
_cell_length_b 21.453739
_cell_length_c 16.700804
_cell_angle_alpha 90.000000
_cell_angle_beta 90.000000
_cell_angle_gamma 90.000000
_cell_volume 7686.760767
_symmetry_space_group_name_H-M "I 4/M M M"
_symmetry_group_IT_number 139
_symmetry_cell_setting 'tetragonal'
loop_
_space_group_symop_operation_xyz
x,y,z
-y,x,z
-x,-y,z
y,-x,z
x,-y,-z
-x,y,-z
y,x,-z
-y,-x,-z
-x,-y,-z
y,-x,-z
x,y,-z
-y,x,-z
-x,y,z
x,-y,z
-y,-x,z
y,x,z
1/2+x,1/2+y,1/2+z
1/2-y,1/2+x,1/2+z
1/2-x,1/2-y,1/2+z
1/2+y,1/2-x,1/2+z
1/2+x,1/2-y,1/2-z
1/2-x,1/2+y,1/2-z
1/2+y,1/2+x,1/2-z
1/2-y,1/2-x,1/2-z
1/2-x,1/2-y,1/2-z
1/2+y,1/2-x,1/2-z
1/2+x,1/2+y,1/2-z
1/2-y,1/2+x,1/2-z
1/2-x,1/2+y,1/2+z
1/2+x,1/2-y,1/2+z
1/2-y,1/2-x,1/2+z
1/2+y,1/2+x,1/2+z
loop_
_atom_site_type_symbol
_atom_site_label
_atom_site_fract_x
_atom_site_fract_y
_atom_site_fract_z
Si Si1 0.384261 0.384261 0.310763
Si Si2 0.571055 0.766505 0.904700
Si Si3 0.781548 0.781548 0.173325
Si Si4 0.837968 0.361551 0.655688
Si Si5 0.500000 0.333513 0.409217
Si Si6 0.500000 0.184693 0.592234
Si Si7 0.665314 0.665314 0.911801
Si Si8 0.072042 0.927959 0.363056
O O1 0.332064 0.332064 0.300646
O O2 0.440217 0.355987 0.361398
O O3 0.409538 0.409538 0.226934
O O4 0.500000 0.758976 0.873422
O O5 0.601691 0.833143 0.888555
O O6 0.624721 0.719887 0.871165
O O7 0.568365 0.754735 0.000000
O O8 0.750000 0.750000 0.250000
O O9 0.821371 0.724913 0.132059
O O10 0.849621 0.349621 0.750000
O O11 0.832126 0.434700 0.635458
O O12 0.500000 0.357755 0.500000
O O13 0.500000 0.259348 0.411519
O O14 0.500000 0.161123 0.500000
O O15 0.613128 0.613128 0.919737
O O16 0.687375 0.687375 0.000000
O O17 0.000000 0.915262 0.375855
#
# Coordination Sequence:
#
# PCOD9571886 Si02
#       8
#    16  32  16  32  16  16  16  16
#     4  12  22  43  62  89 131 168 224 269 319 385
#     4  10  22  41  65  94 129 168 208 257 319 385
#     4  10  23  40  60  98 132 161 213 269 328 382
#     4  11  24  41  68  97 131 169 219 269 328 386
#     4  11  24  41  64  94 131 180 224 268 324 383
#     4  11  24  44  66  98 134 170 214 272 339 394
#     4  10  22  40  63  95 127 160 207 256 316 388
#     4  11  24  37  55  84 123 169 214 259 308 367
#
# _framework density 20.815009
#
# number of rings (size 3 to 8) (size 9 to 14) (size 15 to 20)
#    0.000    1.300    3.000    2.100    7.000    1.400 
#    0.000    3.000    0.000    1.800    0.000    0.000 
#    0.000    0.000    0.000    0.000    0.000    0.000 
#
# Total GULP energy -446534.259863 kJ/mol
# GULP energy per Si atom -5581.678248 kJ/mol
# Density = 2.076763 g / cm^3
# Si number density = 20.815009 Si / 1000 Ang^3
#
#
#
# Elastic Constant Matrix: (Units=GPa)
#
#
# Indices 1 2 3 4 5 6 
#
# 1 132.6997 67.1385 19.0103 0.0000 0.0000 0.0000
# 2 67.1385 132.6997 19.0103 0.0000 0.0000 0.0000
# 3 19.0103 19.0103 65.4627 0.0000 0.0000 0.0000
# 4 0.0000 0.0000 0.0000 24.4596 0.0000 0.0000
# 5 0.0000 0.0000 0.0000 0.0000 24.4596 0.0000
# 6 0.0000 0.0000 0.0000 0.0000 0.0000 37.8269
#
#
#
# Elastic Compliance Matrix: (Units=1/GPa)
#
#
# Indices 1 2 3 4 5 6 
#
# 1 0.010275 -0.004978 -0.001538 0.000000 0.000000 0.000000
# 2 -0.004978 0.010275 -0.001538 0.000000 0.000000 0.000000
# 3 -0.001538 -0.001538 0.016169 0.000000 0.000000 0.000000
# 4 0.000000 0.000000 0.000000 0.040884 0.000000 0.000000
# 5 0.000000 0.000000 0.000000 0.000000 0.040884 0.000000
# 6 0.000000 0.000000 0.000000 0.000000 0.000000 0.026436
#
#
# Mechanical properties :
#
#
# Convention : Reuss Voigt Hill
#
# Bulk Modulus (GPa) = 48.52014 60.13114 54.32564
# Shear Modulus (GPa) = 29.77937 32.39607 31.08772
#
# Velocity S-wave (km/s) = 3.78652 3.94938 3.86881
# Velocity P-wave (km/s) = 6.51750 7.05322 6.79064
#
# Compressibility (1/GPa) = 0.02061000
#
# Stress axis : x y z
#
# Youngs Moduli (GPa) = 97.32544 97.32544 61.84589
#
# Poissons Ratio (x) = 0.48450 0.09513
# Poissons Ratio (y) = 0.48450 0.09513
# Poissons Ratio (z) = 0.14970 0.14970
#
# Static dielectric constant tensor:
#      x y z
#    x 1.752070 0.000000 0.000000 
#    y 0.000000 1.752070 0.000000 
#    z 0.000000 0.000000 1.776760 
# 
# From -- ./inp_files/8527.got.cif
#   From: 2010.05.17/outbox.cif.g08.bks.cpg/sg139_5_cif.got.tgz:8527.got - 2010.05.20 13:14:44.
