data_PCOD9571482
_publ_section_title
;
Structure prediction by ZEFSAII (Michael W. Deem and Ramdas Pophale) SiO2 
 PCOD9571482
Probable space group: I 4/M M M
;
_chemical_formula_sum "Si O2"
_cell_formula_units_Z 176
_cell_length_a 24.672954
_cell_length_b 24.672954
_cell_length_c 15.347180
_cell_angle_alpha 90.000000
_cell_angle_beta 90.000000
_cell_angle_gamma 90.000000
_cell_volume 9342.667329
_symmetry_space_group_name_H-M "I 4/M M M"
_symmetry_group_IT_number 139
_symmetry_cell_setting 'tetragonal'
loop_
_space_group_symop_operation_xyz
x,y,z
-y,x,z
-x,-y,z
y,-x,z
x,-y,-z
-x,y,-z
y,x,-z
-y,-x,-z
-x,-y,-z
y,-x,-z
x,y,-z
-y,x,-z
-x,y,z
x,-y,z
-y,-x,z
y,x,z
1/2+x,1/2+y,1/2+z
1/2-y,1/2+x,1/2+z
1/2-x,1/2-y,1/2+z
1/2+y,1/2-x,1/2+z
1/2+x,1/2-y,1/2-z
1/2-x,1/2+y,1/2-z
1/2+y,1/2+x,1/2-z
1/2-y,1/2-x,1/2-z
1/2-x,1/2-y,1/2-z
1/2+y,1/2-x,1/2-z
1/2+x,1/2+y,1/2-z
1/2-y,1/2+x,1/2-z
1/2-x,1/2+y,1/2+z
1/2+x,1/2-y,1/2+z
1/2-y,1/2-x,1/2+z
1/2+y,1/2+x,1/2+z
loop_
_atom_site_type_symbol
_atom_site_label
_atom_site_fract_x
_atom_site_fract_y
_atom_site_fract_z
Si Si1 0.219247 0.305691 0.648895
Si Si2 0.146185 0.395995 0.100571
Si Si3 0.565449 0.934552 0.750000
Si Si4 0.238520 0.936303 0.402686
Si Si5 0.651742 0.561476 0.233974
Si Si6 0.194343 0.896076 0.902928
O O1 0.251481 0.251481 0.616503
O O2 0.205538 0.294463 0.750000
O O3 0.164265 0.328099 0.606777
O O4 0.260891 0.354687 0.633435
O O5 0.097653 0.409611 0.166724
O O6 0.199240 0.430817 0.125255
O O7 0.131004 0.407104 0.000000
O O8 0.500000 0.925816 0.745742
O O9 0.233337 0.912540 0.500000
O O10 0.195472 0.914390 0.334083
O O11 0.227110 0.000000 0.408173
O O12 0.636969 0.500000 0.211088
O O13 0.599934 0.599934 0.235416
O O14 0.680815 0.561787 0.327893
O O15 0.140521 0.859480 0.910683
O O16 0.208717 0.915768 0.000000
#
# Coordination Sequence:
#
# PCOD9571482 Si02
#       6
#    32  32  16  32  32  32
#     4  10  19  33  56  88 126 160 189 231 292 359
#     4  11  22  38  63  93 122 157 201 247 301 365
#     4  11  26  46  65  86 118 162 211 268 326 375
#     4   9  19  36  57  81 111 147 187 235 291 351
#     4  10  21  36  56  82 112 152 199 246 298 354
#     4   9  18  33  51  74 110 152 189 228 281 344
#
# _framework density 18.838303
#
# number of rings (size 3 to 8) (size 9 to 14) (size 15 to 20)
#    0.000    2.091    0.909    2.182    0.000    5.636 
#    0.000    2.727    0.000    2.182    0.000    5.091 
#    0.000    0.000    0.000    0.000    0.000    0.000 
#
# Total GULP energy -490107.692436 kJ/mol
# GULP energy per Si atom -5569.405596 kJ/mol
# Density = 1.879543 g / cm^3
# Si number density = 18.838303 Si / 1000 Ang^3
#
#
#
# Elastic Constant Matrix: (Units=GPa)
#
#
# Indices 1 2 3 4 5 6 
#
# 1 75.8099 51.0435 50.3005 0.0000 0.0000 0.0000
# 2 51.0435 75.8098 50.3022 0.0000 0.0000 0.0000
# 3 50.3005 50.3022 89.2353 0.0000 0.0000 0.0000
# 4 0.0000 0.0000 0.0000 17.5320 0.0000 0.0000
# 5 0.0000 0.0000 0.0000 0.0000 17.5327 0.0000
# 6 0.0000 0.0000 0.0000 0.0000 0.0000 21.5943
#
#
#
# Elastic Compliance Matrix: (Units=1/GPa)
#
#
# Indices 1 2 3 4 5 6 
#
# 1 0.027316 -0.013061 -0.008035 0.000000 0.000000 0.000000
# 2 -0.013061 0.027317 -0.008037 0.000000 0.000000 0.000000
# 3 -0.008035 -0.008037 0.020266 0.000000 0.000000 0.000000
# 4 0.000000 0.000000 0.000000 0.057039 0.000000 0.000000
# 5 0.000000 0.000000 0.000000 0.000000 0.057036 0.000000
# 6 0.000000 0.000000 0.000000 0.000000 0.000000 0.046309
#
#
# Mechanical properties :
#
#
# Convention : Reuss Voigt Hill
#
# Bulk Modulus (GPa) = 60.11750 60.46084 60.28917
# Shear Modulus (GPa) = 16.71715 17.27904 16.99810
#
# Velocity S-wave (km/s) = 2.98216 3.03186 3.00712
# Velocity P-wave (km/s) = 6.62113 6.66488 6.64304
#
# Compressibility (1/GPa) = 0.01663409
#
# Stress axis : x y z
#
# Youngs Moduli (GPa) = 36.60822 36.60663 49.34318
#
# Poissons Ratio (x) = 0.47810 0.39650
# Poissons Ratio (y) = 0.47812 0.39657
# Poissons Ratio (z) = 0.29416 0.29420
#
# Static dielectric constant tensor:
#      x y z
#    x 1.675180 0.000000 0.000000 
#    y 0.000000 1.675180 0.000000 
#    z 0.000000 0.000000 1.711080 
# 
# From -- ./inp_files/6110.got.cif
#   From: 2010.05.17/outbox.cif.g08.bks.cpg/sg139_4_cif.got.tgz:6110.got - 2010.05.20 13:14:44.
