data_PCOD9571509
_publ_section_title
;
Structure prediction by ZEFSAII (Michael W. Deem and Ramdas Pophale) SiO2 
 PCOD9571509
Probable space group: I 4/M M M
;
_chemical_formula_sum "Si O2"
_cell_formula_units_Z 192
_cell_length_a 31.702607
_cell_length_b 31.702607
_cell_length_c 12.545275
_cell_angle_alpha 90.000000
_cell_angle_beta 90.000000
_cell_angle_gamma 90.000000
_cell_volume 12608.695011
_symmetry_space_group_name_H-M "I 4/M M M"
_symmetry_group_IT_number 139
_symmetry_cell_setting 'tetragonal'
loop_
_space_group_symop_operation_xyz
x,y,z
-y,x,z
-x,-y,z
y,-x,z
x,-y,-z
-x,y,-z
y,x,-z
-y,-x,-z
-x,-y,-z
y,-x,-z
x,y,-z
-y,x,-z
-x,y,z
x,-y,z
-y,-x,z
y,x,z
1/2+x,1/2+y,1/2+z
1/2-y,1/2+x,1/2+z
1/2-x,1/2-y,1/2+z
1/2+y,1/2-x,1/2+z
1/2+x,1/2-y,1/2-z
1/2-x,1/2+y,1/2-z
1/2+y,1/2+x,1/2-z
1/2-y,1/2-x,1/2-z
1/2-x,1/2-y,1/2-z
1/2+y,1/2-x,1/2-z
1/2+x,1/2+y,1/2-z
1/2-y,1/2+x,1/2-z
1/2-x,1/2+y,1/2+z
1/2+x,1/2-y,1/2+z
1/2-y,1/2-x,1/2+z
1/2+y,1/2+x,1/2+z
loop_
_atom_site_type_symbol
_atom_site_label
_atom_site_fract_x
_atom_site_fract_y
_atom_site_fract_z
Si Si1 0.654907 0.413054 0.379251
Si Si2 0.820423 0.111794 0.500000
Si Si3 0.141051 0.702269 0.700054
Si Si4 0.690660 0.545349 0.817741
Si Si5 0.340974 0.272761 0.376927
Si Si6 0.285554 0.952953 0.627879
Si Si7 0.817889 0.253062 0.500000
O O1 0.652716 0.428974 0.500000
O O2 0.611855 0.388145 0.354045
O O3 0.667736 0.447014 0.292959
O O4 0.691560 0.377328 0.375780
O O5 0.862929 0.137072 0.500000
O O6 0.818652 0.083233 0.603545
O O7 0.782520 0.145324 0.500000
O O8 0.160049 0.660049 0.750000
O O9 0.146008 0.737798 0.791879
O O10 0.092622 0.696035 0.661536
O O11 0.171239 0.718892 0.603834
O O12 0.678694 0.500000 0.863955
O O13 0.741245 0.545615 0.809968
O O14 0.337312 0.257538 0.500000
O O15 0.297514 0.297514 0.349227
O O16 0.277109 0.950584 0.500000
O O17 0.305805 0.000000 0.645195
O O18 0.773601 0.226399 0.500000
#
# Coordination Sequence:
#
# PCOD9571509 Si02
#       7
#    32  16  32  32  32  32  16
#     4   9  17  30  45  60  86 123 161 194 233 285
#     4  11  19  31  51  69  97 125 158 204 246 288
#     4  12  22  33  50  71  98 130 172 221 248 284
#     4  11  18  28  47  69  93 118 157 201 247 296
#     4   9  18  31  44  61  91 135 174 199 236 284
#     4  10  19  35  54  71  96 126 164 209 251 294
#     4  11  22  35  47  69 102 138 183 214 244 277
#
# _framework density 15.227588000000001
#
# number of rings (size 3 to 8) (size 9 to 14) (size 15 to 20)
#    0.000    1.667    5.000    2.250    1.167    4.333 
#    0.000    0.000    0.000    0.500    0.000    0.000 
#    0.000   14.000    0.000    9.167    0.000    0.000 
#
# Total GULP energy -534873.057338 kJ/mol
# GULP energy per Si atom -5571.594347 kJ/mol
# Density = 1.519293 g / cm^3
# Si number density = 15.227588 Si / 1000 Ang^3
#
#
#
# Elastic Constant Matrix: (Units=GPa)
#
#
# Indices 1 2 3 4 5 6 
#
# 1 61.0622 25.8244 22.1955 0.0000 0.0000 0.0000
# 2 25.8244 61.0630 22.1960 0.0000 0.0000 0.0000
# 3 22.1955 22.1960 58.3182 0.0000 0.0000 0.0000
# 4 0.0000 0.0000 0.0000 16.2600 0.0000 0.0000
# 5 0.0000 0.0000 0.0000 0.0000 16.2855 0.0000
# 6 0.0000 0.0000 0.0000 0.0000 0.0000 13.1425
#
#
#
# Elastic Compliance Matrix: (Units=1/GPa)
#
#
# Indices 1 2 3 4 5 6 
#
# 1 0.021333 -0.007045 -0.005438 0.000000 0.000000 0.000000
# 2 -0.007045 0.021333 -0.005438 0.000000 0.000000 0.000000
# 3 -0.005438 -0.005438 0.021287 0.000000 0.000000 0.000000
# 4 0.000000 0.000000 0.000000 0.061500 0.000000 0.000000
# 5 0.000000 0.000000 0.000000 0.000000 0.061404 0.000000
# 6 0.000000 0.000000 0.000000 0.000000 0.000000 0.076089
#
#
# Mechanical properties :
#
#
# Convention : Reuss Voigt Hill
#
# Bulk Modulus (GPa) = 35.57414 35.65280 35.61347
# Shear Modulus (GPa) = 16.22544 16.48610 16.35577
#
# Velocity S-wave (km/s) = 3.26779 3.29393 3.28088
# Velocity P-wave (km/s) = 6.13598 6.15879 6.14740
#
# Compressibility (1/GPa) = 0.02811031
#
# Stress axis : x y z
#
# Youngs Moduli (GPa) = 46.87593 46.87626 46.97810
#
# Poissons Ratio (x) = 0.33026 0.25545
# Poissons Ratio (y) = 0.33026 0.25546
# Poissons Ratio (z) = 0.25490 0.25491
#
# Static dielectric constant tensor:
#      x y z
#    x 1.514670 0.000000 0.000000 
#    y 0.000000 1.514670 0.000000 
#    z 0.000000 0.000000 1.525330 
# 
# From -- ./inp_files/4315.got.cif
#   From: 2010.05.17/outbox.cif.g08.bks.cpg/sg139_3_cif.got.tgz:4315.got - 2010.05.20 13:14:44.
