data_PCOD9571010
_publ_section_title
;
Structure prediction by ZEFSAII (Michael W. Deem and Ramdas Pophale) SiO2 
 PCOD9571010
Probable space group: P 42/N C M
;
_chemical_formula_sum "Si O2"
_cell_formula_units_Z 36
_cell_length_a 12.208183
_cell_length_b 12.208183
_cell_length_c 10.094299
_cell_angle_alpha 90.000000
_cell_angle_beta 90.000000
_cell_angle_gamma 90.000000
_cell_volume 1504.451619
_symmetry_space_group_name_H-M "P 42/N C M"
_symmetry_group_IT_number 138
_space_group.IT_coordinate_system_code '2'
_symmetry_cell_setting 'tetragonal'
loop_
_space_group_symop_operation_xyz
x,y,z
1/2-y,x,1/2+z
1/2-x,1/2-y,z
y,1/2-x,1/2+z
1/2+x,-y,1/2-z
-x,1/2+y,1/2-z
1/2+y,1/2+x,-z
-y,-x,-z
-x,-y,-z
1/2+y,-x,1/2-z
1/2+x,1/2+y,-z
-y,1/2+x,1/2-z
1/2-x,y,1/2+z
x,1/2-y,1/2+z
1/2-y,1/2-x,z
y,x,z
loop_
_atom_site_type_symbol
_atom_site_label
_atom_site_fract_x
_atom_site_fract_y
_atom_site_fract_z
Si Si1 0.250000 0.750000 0.250000
Si Si2 0.861198 0.462920 0.838047
Si Si3 0.077019 0.253356 0.415932
O O1 0.335412 0.670933 0.326688
O O2 0.984638 0.515363 0.840206
O O3 0.806784 0.515905 0.707496
O O4 0.801875 0.506790 0.969204
O O5 0.149991 0.350010 0.479635
O O6 0.162610 0.162610 0.365665
#
# Coordination Sequence:
#
# PCOD9571010 Si02
#       3
#     4  16  16
#     4  12  28  46  68  98 132 174 220 270 324 386
#     4  10  23  41  63  93 130 172 218 268 322 382
#     4   9  18  37  66  98 132 171 216 267 324 386
#
# _framework density 23.928984
#
# number of rings (size 3 to 8) (size 9 to 14) (size 15 to 20)
#    0.000    2.222    0.000    1.333    0.000   14.222 
#    0.000    8.889    0.000    0.000    0.000    0.000 
#    0.000    0.000    0.000    0.000    0.000    0.000 
#
# Total GULP energy -201073.591950 kJ/mol
# GULP energy per Si atom -5585.377554 kJ/mol
# Density = 2.387452 g / cm^3
# Si number density = 23.928984 Si / 1000 Ang^3
#
#
#
# Elastic Constant Matrix: (Units=GPa)
#
#
# Indices 1 2 3 4 5 6 
#
# 1 154.0103 80.2424 49.7075 0.0000 0.0000 0.0000
# 2 80.2424 154.0103 49.7075 0.0000 0.0000 0.0000
# 3 49.7075 49.7075 89.8207 0.0000 0.0000 0.0000
# 4 0.0000 0.0000 0.0000 28.7528 0.0000 0.0000
# 5 0.0000 0.0000 0.0000 0.0000 28.7528 0.0000
# 6 0.0000 0.0000 0.0000 0.0000 0.0000 46.6550
#
#
#
# Elastic Compliance Matrix: (Units=1/GPa)
#
#
# Indices 1 2 3 4 5 6 
#
# 1 0.009568 -0.003988 -0.003088 0.000000 0.000000 0.000000
# 2 -0.003988 0.009568 -0.003088 0.000000 0.000000 0.000000
# 3 -0.003088 -0.003088 0.014551 0.000000 0.000000 0.000000
# 4 0.000000 0.000000 0.000000 0.034779 0.000000 0.000000
# 5 0.000000 0.000000 0.000000 0.000000 0.034779 0.000000
# 6 0.000000 0.000000 0.000000 0.000000 0.000000 0.021434
#
#
# Mechanical properties :
#
#
# Convention : Reuss Voigt Hill
#
# Bulk Modulus (GPa) = 74.85707 84.12845 79.49276
# Shear Modulus (GPa) = 33.45414 35.37773 34.41593
#
# Velocity S-wave (km/s) = 3.74312 3.84923 3.79654
# Velocity P-wave (km/s) = 7.07334 7.41548 7.24643
#
# Compressibility (1/GPa) = 0.01335879
#
# Stress axis : x y z
#
# Youngs Moduli (GPa) = 104.51900 104.51900 68.72524
#
# Poissons Ratio (x) = 0.41686 0.21220
# Poissons Ratio (y) = 0.41686 0.21220
# Poissons Ratio (z) = 0.32271 0.32271
#
# Static dielectric constant tensor:
#      x y z
#    x 1.985690 0.000000 0.000000 
#    y 0.000000 1.985690 0.000000 
#    z 0.000000 0.000000 1.814430 
# 
# From -- ./inp_files/2184.got.cif
#   From: 2010.05.17/outbox.cif.g08.bks.cpg/sg138_2_cif.got.tgz:2184.got - 2010.05.20 13:08:53.
