data_PCOD9571932
_publ_section_title
;
Structure prediction by ZEFSAII (Michael W. Deem and Ramdas Pophale) SiO2 
 PCOD9571932
Probable space group: I 4/M M M
;
_chemical_formula_sum "Si O2"
_cell_formula_units_Z 84
_cell_length_a 14.790231
_cell_length_b 14.790231
_cell_length_c 22.164123
_cell_angle_alpha 90.000000
_cell_angle_beta 90.000000
_cell_angle_gamma 90.000000
_cell_volume 4848.422586
_symmetry_space_group_name_H-M "I 4/M M M"
_symmetry_group_IT_number 139
_symmetry_cell_setting 'tetragonal'
loop_
_space_group_symop_operation_xyz
x,y,z
-y,x,z
-x,-y,z
y,-x,z
x,-y,-z
-x,y,-z
y,x,-z
-y,-x,-z
-x,-y,-z
y,-x,-z
x,y,-z
-y,x,-z
-x,y,z
x,-y,z
-y,-x,z
y,x,z
1/2+x,1/2+y,1/2+z
1/2-y,1/2+x,1/2+z
1/2-x,1/2-y,1/2+z
1/2+y,1/2-x,1/2+z
1/2+x,1/2-y,1/2-z
1/2-x,1/2+y,1/2-z
1/2+y,1/2+x,1/2-z
1/2-y,1/2-x,1/2-z
1/2-x,1/2-y,1/2-z
1/2+y,1/2-x,1/2-z
1/2+x,1/2+y,1/2-z
1/2-y,1/2+x,1/2-z
1/2-x,1/2+y,1/2+z
1/2+x,1/2-y,1/2+z
1/2-y,1/2-x,1/2+z
1/2+y,1/2+x,1/2+z
loop_
_atom_site_type_symbol
_atom_site_label
_atom_site_fract_x
_atom_site_fract_y
_atom_site_fract_z
Si Si1 0.107252 0.392749 0.250000
Si Si2 0.500000 0.894042 0.428181
Si Si3 0.665020 0.185993 0.123734
Si Si4 0.500000 0.299072 0.928638
Si Si5 0.000000 0.000000 0.615040
O O1 0.120068 0.500000 0.262600
O O2 0.166908 0.364844 0.192579
O O3 0.500000 0.900374 0.500000
O O4 0.412077 0.840603 0.406557
O O5 0.500000 0.000000 0.404898
O O6 0.757926 0.242075 0.120914
O O7 0.588221 0.242668 0.089021
O O8 0.500000 0.389827 0.890708
O O9 0.500000 0.321225 0.000000
#
# Coordination Sequence:
#
# PCOD9571932 Si02
#       5
#    16  16  32  16   4
#     4  11  21  40  66  90 120 160 208 264 312 358
#     4  11  22  39  62  92 128 163 205 256 302 360
#     4  12  24  39  62  93 124 160 207 257 310 369
#     4  12  23  36  59  91 129 165 199 244 305 382
#     4  12  25  40  56  88 140 180 196 232 317 410
#
# _framework density 17.325223999999999
#
# number of rings (size 3 to 8) (size 9 to 14) (size 15 to 20)
#    0.000    0.381    7.619    2.571    0.000    2.286 
#    0.000    0.000    0.000    0.571    0.000    1.333 
#    0.000    0.000    0.000    0.000    0.000    0.000 
#
# Total GULP energy -234096.101757 kJ/mol
# GULP energy per Si atom -5573.716709 kJ/mol
# Density = 1.728579 g / cm^3
# Si number density = 17.325224 Si / 1000 Ang^3
#
#
#
# Elastic Constant Matrix: (Units=GPa)
#
#
# Indices 1 2 3 4 5 6 
#
# 1 132.4462 46.4517 -0.8554 0.0000 0.0000 0.0000
# 2 46.4517 132.4460 -0.8560 0.0000 0.0000 0.0000
# 3 -0.8554 -0.8560 37.2190 0.0000 0.0000 0.0000
# 4 0.0000 0.0000 0.0000 -269.8896 0.0000 0.0000
# 5 0.0000 0.0000 0.0000 0.0000 -269.8816 0.0000
# 6 0.0000 0.0000 0.0000 0.0000 0.0000 21.3492
#
#
#
# Elastic Compliance Matrix: (Units=1/GPa)
#
#
# Indices 1 2 3 4 5 6 
#
# 1 0.008610 -0.003019 0.000128 0.000000 0.000000 0.000000
# 2 -0.003019 0.008610 0.000129 0.000000 0.000000 0.000000
# 3 0.000128 0.000129 0.026874 0.000000 0.000000 0.000000
# 4 0.000000 0.000000 0.000000 -0.003705 0.000000 0.000000
# 5 0.000000 0.000000 0.000000 0.000000 -0.003705 0.000000
# 6 0.000000 0.000000 0.000000 0.000000 0.000000 0.046840
#
#
# Mechanical properties :
#
#
# Convention : Reuss Voigt Hill
#
# Bulk Modulus (GPa) = 25.92681 43.51017 34.71849
# Shear Modulus (GPa) = 49.06606 -86.52633 -18.73014
#
# Velocity S-wave (km/s) = 5.32748 -7.07466 -3.29156
# Velocity P-wave (km/s) = 7.26911 6.44718 2.37423
#
# Compressibility (1/GPa) = 0.03857012
#
# Stress axis : x y z
#
# Youngs Moduli (GPa) = 116.14628 116.14609 37.21082
#
# Poissons Ratio (x) = 0.35062 -0.00478
# Poissons Ratio (y) = 0.35063 -0.00479
# Poissons Ratio (z) = -0.01492 -0.01494
#
# Static dielectric constant tensor:
#      x y z
#    x 1.964130 0.000000 0.000000 
#    y 0.000000 1.964090 0.000000 
#    z 0.000000 0.000000 1.614700 
# 
# From -- ./inp_files/9403.got.cif
#   From: 2010.05.17/outbox.cif.g08.bks.cpg/sg139_5_cif.got.tgz:9403.got - 2010.05.20 13:14:44.
