data_PCOD9571772
_publ_section_title
;
Structure prediction by ZEFSAII (Michael W. Deem and Ramdas Pophale) SiO2 
 PCOD9571772
Probable space group: I 4/M M M
;
_chemical_formula_sum "Si O2"
_cell_formula_units_Z 240
_cell_length_a 21.308802
_cell_length_b 21.308802
_cell_length_c 28.016254
_cell_angle_alpha 90.000000
_cell_angle_beta 90.000000
_cell_angle_gamma 90.000000
_cell_volume 12721.201568
_symmetry_space_group_name_H-M "I 4/M M M"
_symmetry_group_IT_number 139
_symmetry_cell_setting 'tetragonal'
loop_
_space_group_symop_operation_xyz
x,y,z
-y,x,z
-x,-y,z
y,-x,z
x,-y,-z
-x,y,-z
y,x,-z
-y,-x,-z
-x,-y,-z
y,-x,-z
x,y,-z
-y,x,-z
-x,y,z
x,-y,z
-y,-x,z
y,x,z
1/2+x,1/2+y,1/2+z
1/2-y,1/2+x,1/2+z
1/2-x,1/2-y,1/2+z
1/2+y,1/2-x,1/2+z
1/2+x,1/2-y,1/2-z
1/2-x,1/2+y,1/2-z
1/2+y,1/2+x,1/2-z
1/2-y,1/2-x,1/2-z
1/2-x,1/2-y,1/2-z
1/2+y,1/2-x,1/2-z
1/2+x,1/2+y,1/2-z
1/2-y,1/2+x,1/2-z
1/2-x,1/2+y,1/2+z
1/2+x,1/2-y,1/2+z
1/2-y,1/2-x,1/2+z
1/2+y,1/2+x,1/2+z
loop_
_atom_site_type_symbol
_atom_site_label
_atom_site_fract_x
_atom_site_fract_y
_atom_site_fract_z
Si Si1 0.179910 0.925701 0.942273
Si Si2 0.256455 0.638437 0.917847
Si Si3 0.429026 0.322501 0.000000
Si Si4 0.826942 0.928645 0.344805
Si Si5 0.274612 0.828877 0.797389
Si Si6 0.569126 0.074640 0.054319
Si Si7 0.071025 0.169459 0.230072
Si Si8 0.310908 0.127290 0.099661
O O1 0.122108 0.877892 0.929835
O O2 0.244738 0.902110 0.917480
O O3 0.168653 0.000000 0.930831
O O4 0.187896 0.922089 0.000000
O O5 0.306438 0.693563 0.920853
O O6 0.278718 0.586451 0.954979
O O7 0.266306 0.605918 0.866377
O O8 0.190966 0.670797 0.927813
O O9 0.500000 0.344309 0.000000
O O10 0.380521 0.380521 0.000000
O O11 0.886979 0.886979 0.359948
O O12 0.826246 0.929221 0.287635
O O13 0.831708 0.000000 0.361579
O O14 0.235380 0.764621 0.807120
O O15 0.315420 0.815420 0.750000
O O16 0.223829 0.882853 0.786782
O O17 0.307629 0.851872 0.845280
O O18 0.500000 0.099282 0.069627
O O19 0.628072 0.086540 0.088074
O O20 0.563925 0.000000 0.051147
O O21 0.581085 0.097825 0.000000
O O22 0.103617 0.103617 0.216841
O O23 0.000000 0.175189 0.212501
#
# Coordination Sequence:
#
# PCOD9571772 Si02
#       8
#    32  32  16  32  32  32  32  32
#     4  10  22  39  61  91 126 161 199 242 291 354
#     4  10  21  34  48  72 106 140 175 227 286 331
#     4  10  22  37  52  74 107 147 188 230 278 336
#     4   9  17  31  50  72 102 140 184 234 289 347
#     4  10  21  38  57  78 108 147 192 238 289 348
#     4   9  20  39  60  84 116 151 186 226 278 342
#     4   9  18  32  52  78 107 140 178 226 282 342
#     4  12  22  35  60  89 111 147 194 244 289 344
#
# _framework density 18.866142
#
# number of rings (size 3 to 8) (size 9 to 14) (size 15 to 20)
#    0.000    2.133    0.000    3.600    1.867    5.800 
#    0.000    2.667    0.000    2.400    0.000    2.800 
#    0.000    0.000    0.000    0.000    0.000    0.000 
#
# Total GULP energy -668898.449308 kJ/mol
# GULP energy per Si atom -5574.153744 kJ/mol
# Density = 1.882320 g / cm^3
# Si number density = 18.866142 Si / 1000 Ang^3
#
#
#
# Elastic Constant Matrix: (Units=GPa)
#
#
# Indices 1 2 3 4 5 6 
#
# 1 109.5653 58.3184 40.6692 0.0000 0.0000 0.0000
# 2 58.3184 109.5653 40.6692 0.0000 0.0000 0.0000
# 3 40.6692 40.6692 62.5181 0.0000 0.0000 0.0000
# 4 0.0000 0.0000 0.0000 16.8563 0.0000 0.0000
# 5 0.0000 0.0000 0.0000 0.0000 16.8563 0.0000
# 6 0.0000 0.0000 0.0000 0.0000 0.0000 22.4496
#
#
#
# Elastic Compliance Matrix: (Units=1/GPa)
#
#
# Indices 1 2 3 4 5 6 
#
# 1 0.014106 -0.005408 -0.005658 0.000000 0.000000 0.000000
# 2 -0.005408 0.014106 -0.005658 0.000000 0.000000 0.000000
# 3 -0.005658 -0.005658 0.023357 0.000000 0.000000 0.000000
# 4 0.000000 0.000000 0.000000 0.059325 0.000000 0.000000
# 5 0.000000 0.000000 0.000000 0.000000 0.059325 0.000000
# 6 0.000000 0.000000 0.000000 0.000000 0.000000 0.044544
#
#
# Mechanical properties :
#
#
# Convention : Reuss Voigt Hill
#
# Bulk Modulus (GPa) = 55.18758 62.32913 58.75836
# Shear Modulus (GPa) = 19.66571 20.69860 20.18215
#
# Velocity S-wave (km/s) = 3.23210 3.31589 3.27426
# Velocity P-wave (km/s) = 6.57604 6.91154 6.74588
#
# Compressibility (1/GPa) = 0.01812002
#
# Stress axis : x y z
#
# Youngs Moduli (GPa) = 70.89392 70.89392 42.81424
#
# Poissons Ratio (x) = 0.38338 0.24225
# Poissons Ratio (y) = 0.38338 0.24225
# Poissons Ratio (z) = 0.40112 0.40112
#
# Static dielectric constant tensor:
#      x y z
#    x 1.683800 0.000000 0.000000 
#    y 0.000000 1.683800 0.000000 
#    z 0.000000 0.000000 1.737080 
# 
# From -- ./inp_files/13427.got.cif
#   From: 2010.05.17/outbox.cif.g08.bks.cpg/sg139_7_cif.got.tgz:13427.got - 2010.05.20 13:14:44.
