data_PCOD9571345
_publ_section_title
;
Structure prediction by ZEFSAII (Michael W. Deem and Ramdas Pophale) SiO2 
 PCOD9571345
Probable space group: I 4/M M M
;
_chemical_formula_sum "Si O2"
_cell_formula_units_Z 176
_cell_length_a 19.960851
_cell_length_b 19.960851
_cell_length_c 26.924821
_cell_angle_alpha 90.000000
_cell_angle_beta 90.000000
_cell_angle_gamma 90.000000
_cell_volume 10727.806473
_symmetry_space_group_name_H-M "I 4/M M M"
_symmetry_group_IT_number 139
_symmetry_cell_setting 'tetragonal'
loop_
_space_group_symop_operation_xyz
x,y,z
-y,x,z
-x,-y,z
y,-x,z
x,-y,-z
-x,y,-z
y,x,-z
-y,-x,-z
-x,-y,-z
y,-x,-z
x,y,-z
-y,x,-z
-x,y,z
x,-y,z
-y,-x,z
y,x,z
1/2+x,1/2+y,1/2+z
1/2-y,1/2+x,1/2+z
1/2-x,1/2-y,1/2+z
1/2+y,1/2-x,1/2+z
1/2+x,1/2-y,1/2-z
1/2-x,1/2+y,1/2-z
1/2+y,1/2+x,1/2-z
1/2-y,1/2-x,1/2-z
1/2-x,1/2-y,1/2-z
1/2+y,1/2-x,1/2-z
1/2+x,1/2+y,1/2-z
1/2-y,1/2+x,1/2-z
1/2-x,1/2+y,1/2+z
1/2+x,1/2-y,1/2+z
1/2-y,1/2-x,1/2+z
1/2+y,1/2+x,1/2+z
loop_
_atom_site_type_symbol
_atom_site_label
_atom_site_fract_x
_atom_site_fract_y
_atom_site_fract_z
Si Si1 0.818994 0.707970 0.193238
Si Si2 0.314686 0.575791 0.342721
Si Si3 0.877342 0.667904 0.402979
Si Si4 0.423027 0.686595 0.059999
Si Si5 0.500000 0.080347 0.940337
Si Si6 0.623804 0.736264 0.445008
O O1 0.752264 0.752264 0.181166
O O2 0.814347 0.685654 0.250000
O O3 0.880572 0.759103 0.185825
O O4 0.828028 0.648480 0.153782
O O5 0.318943 0.500000 0.325629
O O6 0.384087 0.615914 0.338768
O O7 0.290911 0.578995 0.400209
O O8 0.901381 0.741376 0.419295
O O9 0.811864 0.645457 0.433763
O O10 0.935593 0.615210 0.415334
O O11 0.500000 0.672065 0.074147
O O12 0.371167 0.628834 0.075773
O O13 0.420595 0.690429 0.000000
O O14 0.500000 0.000000 0.934060
O O15 0.500000 0.094452 0.000000
O O16 0.594341 0.730334 0.500000
O O17 0.690509 0.690509 0.443163
#
# Coordination Sequence:
#
# PCOD9571345 Si02
#       6
#    32  32  32  32  16  32
#     4   9  19  37  59  81 102 129 174 229 277 317
#     4   9  18  32  50  76 106 137 171 210 257 313
#     4  11  19  33  54  75 102 135 177 220 270 321
#     4  10  19  30  47  72 103 139 175 213 258 311
#     4  11  24  38  52  74 111 151 183 217 264 330
#     4   9  17  29  49  76 102 131 174 224 262 299
#
# _framework density 16.405963
#
# number of rings (size 3 to 8) (size 9 to 14) (size 15 to 20)
#    0.000    2.273    0.909    4.364    0.000    5.091 
#    1.636    0.909    0.000    0.000    0.000    2.545 
#    0.000    4.364    0.000    0.000    0.000    0.000 
#
# Total GULP energy -490718.243669 kJ/mol
# GULP energy per Si atom -5576.343678 kJ/mol
# Density = 1.636862 g / cm^3
# Si number density = 16.405963 Si / 1000 Ang^3
#
#
#
# Elastic Constant Matrix: (Units=GPa)
#
#
# Indices 1 2 3 4 5 6 
#
# 1 119.4968 55.0071 37.7202 0.0000 0.0000 0.0000
# 2 55.0071 119.4967 37.7201 0.0000 0.0000 0.0000
# 3 37.7202 37.7201 93.5977 0.0000 0.0000 0.0000
# 4 0.0000 0.0000 0.0000 8.2589 0.0000 0.0000
# 5 0.0000 0.0000 0.0000 0.0000 8.2577 0.0000
# 6 0.0000 0.0000 0.0000 0.0000 0.0000 2.3287
#
#
#
# Elastic Compliance Matrix: (Units=1/GPa)
#
#
# Indices 1 2 3 4 5 6 
#
# 1 0.011223 -0.004283 -0.002797 0.000000 0.000000 0.000000
# 2 -0.004283 0.011223 -0.002797 0.000000 0.000000 0.000000
# 3 -0.002797 -0.002797 0.012938 0.000000 0.000000 0.000000
# 4 0.000000 0.000000 0.000000 0.121082 0.000000 0.000000
# 5 0.000000 0.000000 0.000000 0.000000 0.121099 0.000000
# 6 0.000000 0.000000 0.000000 0.000000 0.000000 0.429429
#
#
# Mechanical properties :
#
#
# Convention : Reuss Voigt Hill
#
# Bulk Modulus (GPa) = 63.97698 65.94290 64.95994
# Shear Modulus (GPa) = 6.83099 17.24530 12.03815
#
# Velocity S-wave (km/s) = 2.04273 3.24568 2.71175
# Velocity P-wave (km/s) = 6.68166 7.37073 7.03463
#
# Compressibility (1/GPa) = 0.01563062
#
# Stress axis : x y z
#
# Youngs Moduli (GPa) = 89.10302 89.10305 77.29078
#
# Poissons Ratio (x) = 0.38166 0.21616
# Poissons Ratio (y) = 0.38166 0.21616
# Poissons Ratio (z) = 0.24919 0.24919
#
# Static dielectric constant tensor:
#      x y z
#    x 1.541460 0.000000 0.000000 
#    y 0.000000 1.541460 0.000000 
#    z 0.000000 0.000000 1.552680 
# 
# From -- ./inp_files/13082.got.cif
#   From: 2010.05.17/outbox.cif.g08.bks.cpg/sg139_7_cif.got.tgz:13082.got - 2010.05.20 13:14:44.
