data_PCOD9571633
_publ_section_title
;
Structure prediction by ZEFSAII (Michael W. Deem and Ramdas Pophale) SiO2 
 PCOD9571633
Probable space group: I 4/M M M
;
_chemical_formula_sum "Si O2"
_cell_formula_units_Z 136
_cell_length_a 25.062425
_cell_length_b 25.062425
_cell_length_c 12.083652
_cell_angle_alpha 90.000000
_cell_angle_beta 90.000000
_cell_angle_gamma 90.000000
_cell_volume 7590.045687
_symmetry_space_group_name_H-M "I 4/M M M"
_symmetry_group_IT_number 139
_symmetry_cell_setting 'tetragonal'
loop_
_space_group_symop_operation_xyz
x,y,z
-y,x,z
-x,-y,z
y,-x,z
x,-y,-z
-x,y,-z
y,x,-z
-y,-x,-z
-x,-y,-z
y,-x,-z
x,y,-z
-y,x,-z
-x,y,z
x,-y,z
-y,-x,z
y,x,z
1/2+x,1/2+y,1/2+z
1/2-y,1/2+x,1/2+z
1/2-x,1/2-y,1/2+z
1/2+y,1/2-x,1/2+z
1/2+x,1/2-y,1/2-z
1/2-x,1/2+y,1/2-z
1/2+y,1/2+x,1/2-z
1/2-y,1/2-x,1/2-z
1/2-x,1/2-y,1/2-z
1/2+y,1/2-x,1/2-z
1/2+x,1/2+y,1/2-z
1/2-y,1/2+x,1/2-z
1/2-x,1/2+y,1/2+z
1/2+x,1/2-y,1/2+z
1/2-y,1/2-x,1/2+z
1/2+y,1/2+x,1/2+z
loop_
_atom_site_type_symbol
_atom_site_label
_atom_site_fract_x
_atom_site_fract_y
_atom_site_fract_z
Si Si1 0.500000 0.644371 0.629562
Si Si2 0.181870 0.181870 0.632586
Si Si3 0.000000 0.252689 0.242034
Si Si4 0.222462 0.393581 0.131355
Si Si5 0.107886 0.392115 0.250000
Si Si6 0.937066 0.062935 0.500000
Si Si7 0.000000 0.368463 0.868917
Si Si8 0.898119 0.101882 0.262081
O O1 0.500000 0.630624 0.500000
O O2 0.500000 0.707420 0.649921
O O3 0.448384 0.622822 0.693499
O O4 0.171651 0.171651 0.500000
O O5 0.241936 0.159802 0.651753
O O6 0.146310 0.146310 0.714947
O O7 0.053980 0.249674 0.315239
O O8 0.000000 0.309288 0.181969
O O9 0.162945 0.391287 0.180531
O O10 0.219689 0.401135 0.000000
O O11 0.106376 0.445094 0.324648
O O12 0.914493 0.085508 0.386179
O O13 0.000000 0.072889 0.500000
O O14 0.000000 0.367591 0.000000
#
# Coordination Sequence:
#
# PCOD9571633 Si02
#       8
#    16  16  16  32  16   8  16  16
#     4  12  25  39  55  80 120 164 206 249 298 366
#     4  10  20  33  58  88 116 148 193 254 308 347
#     4  10  20  36  60  85 112 156 198 244 291 343
#     4  10  20  36  58  88 119 151 195 249 300 348
#     4  10  22  38  62  88 120 158 188 228 286 354
#     4  11  22  36  54  78 108 146 202 260 306 356
#     4  10  21  40  62  88 119 151 187 225 275 347
#     4  12  22  38  58  82 115 154 201 255 312 353
#
# _framework density 17.918206000000001
#
# number of rings (size 3 to 8) (size 9 to 14) (size 15 to 20)
#    0.000    1.471    4.118    1.765    0.000    0.941 
#    2.118    2.941    0.000    0.000    0.000    0.000 
#    0.000    0.000    0.000    0.000    0.000    0.000 
#
# Total GULP energy -379249.156186 kJ/mol
# GULP energy per Si atom -5577.193473 kJ/mol
# Density = 1.787742 g / cm^3
# Si number density = 17.918206 Si / 1000 Ang^3
#
#
#
# Elastic Constant Matrix: (Units=GPa)
#
#
# Indices 1 2 3 4 5 6 
#
# 1 84.9572 23.0996 35.0323 0.0000 0.0000 0.0000
# 2 23.0996 84.9584 35.0325 0.0000 0.0000 0.0000
# 3 35.0323 35.0325 126.4187 0.0000 0.0000 0.0000
# 4 0.0000 0.0000 0.0000 21.0896 0.0000 0.0000
# 5 0.0000 0.0000 0.0000 0.0000 21.0908 0.0000
# 6 0.0000 0.0000 0.0000 0.0000 0.0000 30.7648
#
#
#
# Elastic Compliance Matrix: (Units=1/GPa)
#
#
# Indices 1 2 3 4 5 6 
#
# 1 0.013724 -0.002442 -0.003126 0.000000 0.000000 0.000000
# 2 -0.002442 0.013724 -0.003126 0.000000 0.000000 0.000000
# 3 -0.003126 -0.003126 0.009643 0.000000 0.000000 0.000000
# 4 0.000000 0.000000 0.000000 0.047417 0.000000 0.000000
# 5 0.000000 0.000000 0.000000 0.000000 0.047414 0.000000
# 6 0.000000 0.000000 0.000000 0.000000 0.000000 0.032505
#
#
# Mechanical properties :
#
#
# Convention : Reuss Voigt Hill
#
# Bulk Modulus (GPa) = 50.75954 53.62923 52.19439
# Shear Modulus (GPa) = 26.54179 28.13370 27.33775
#
# Velocity S-wave (km/s) = 3.85291 3.96677 3.91025
# Velocity P-wave (km/s) = 6.94141 7.13970 7.04125
#
# Compressibility (1/GPa) = 0.01970073
#
# Stress axis : x y z
#
# Youngs Moduli (GPa) = 72.86614 72.86720 103.70355
#
# Poissons Ratio (x) = 0.17796 0.32420
# Poissons Ratio (y) = 0.17796 0.32420
# Poissons Ratio (z) = 0.22780 0.22780
#
# Static dielectric constant tensor:
#      x y z
#    x 1.608460 0.000000 0.000000 
#    y 0.000000 1.608470 0.000000 
#    z 0.000000 0.000000 1.573040 
# 
# From -- ./inp_files/3629.got.cif
#   From: 2010.05.17/outbox.cif.g08.bks.cpg/sg139_2_cif.got.tgz:3629.got - 2010.05.20 13:14:44.
