data_PCOD9571275
_publ_section_title
;
Structure prediction by ZEFSAII (Michael W. Deem and Ramdas Pophale) SiO2 
 PCOD9571275
Probable space group: I 4/M M M
;
_chemical_formula_sum "Si O2"
_cell_formula_units_Z 192
_cell_length_a 31.357088
_cell_length_b 31.357088
_cell_length_c 11.107493
_cell_angle_alpha 90.000000
_cell_angle_beta 90.000000
_cell_angle_gamma 90.000000
_cell_volume 10921.630962
_symmetry_space_group_name_H-M "I 4/M M M"
_symmetry_group_IT_number 139
_symmetry_cell_setting 'tetragonal'
loop_
_space_group_symop_operation_xyz
x,y,z
-y,x,z
-x,-y,z
y,-x,z
x,-y,-z
-x,y,-z
y,x,-z
-y,-x,-z
-x,-y,-z
y,-x,-z
x,y,-z
-y,x,-z
-x,y,z
x,-y,z
-y,-x,z
y,x,z
1/2+x,1/2+y,1/2+z
1/2-y,1/2+x,1/2+z
1/2-x,1/2-y,1/2+z
1/2+y,1/2-x,1/2+z
1/2+x,1/2-y,1/2-z
1/2-x,1/2+y,1/2-z
1/2+y,1/2+x,1/2-z
1/2-y,1/2-x,1/2-z
1/2-x,1/2-y,1/2-z
1/2+y,1/2-x,1/2-z
1/2+x,1/2+y,1/2-z
1/2-y,1/2+x,1/2-z
1/2-x,1/2+y,1/2+z
1/2+x,1/2-y,1/2+z
1/2-y,1/2-x,1/2+z
1/2+y,1/2+x,1/2+z
loop_
_atom_site_type_symbol
_atom_site_label
_atom_site_fract_x
_atom_site_fract_y
_atom_site_fract_z
Si Si1 0.301645 0.576883 0.640658
Si Si2 0.448779 0.245407 0.000000
Si Si3 0.215126 0.452360 0.260217
Si Si4 0.368715 0.824662 0.357780
Si Si5 0.232464 0.167164 0.145293
Si Si6 0.881342 0.950063 0.271984
Si Si7 0.336951 0.405221 0.000000
O O1 0.292372 0.576592 0.500000
O O2 0.265002 0.549644 0.703538
O O3 0.294651 0.625586 0.684852
O O4 0.348332 0.559560 0.665185
O O5 0.441475 0.217272 0.118809
O O6 0.500000 0.258172 0.000000
O O7 0.417487 0.286710 0.000000
O O8 0.198734 0.500000 0.277853
O O9 0.190531 0.417336 0.337466
O O10 0.362006 0.836216 0.500000
O O11 0.356963 0.856963 0.250000
O O12 0.341537 0.781662 0.329065
O O13 0.209486 0.209486 0.192543
O O14 0.230108 0.168139 0.000000
O O15 0.925281 0.925281 0.254141
O O16 0.857332 0.928708 0.385077
O O17 0.886982 0.000000 0.290073
O O18 0.356843 0.356843 0.000000
#
# Coordination Sequence:
#
# PCOD9571275 Si02
#       7
#    32  16  32  32  32  32  16
#     4  10  19  31  50  75  99 125 159 210 269 319
#     4  10  18  32  54  80 108 135 169 222 282 329
#     4  10  20  34  57  84 110 139 174 218 269 323
#     4  10  22  37  54  78 111 151 187 224 266 312
#     4   8  15  30  50  71  98 132 174 218 260 309
#     4  11  22  34  48  64  86 118 157 206 265 331
#     4  10  20  34  51  71  97 124 160 209 273 338
#
# _framework density 17.579792000000001
#
# number of rings (size 3 to 8) (size 9 to 14) (size 15 to 20)
#    0.000    2.167    1.667    3.250    1.167    3.833 
#    0.000    0.000    0.000    1.500    0.000    1.167 
#    0.000    0.333    0.000    1.500    0.000    0.000 
#
# Total GULP energy -535010.814910 kJ/mol
# GULP energy per Si atom -5573.029322 kJ/mol
# Density = 1.753978 g / cm^3
# Si number density = 17.579792 Si / 1000 Ang^3
#
#
#
# Elastic Constant Matrix: (Units=GPa)
#
#
# Indices 1 2 3 4 5 6 
#
# 1 34.9057 27.4651 13.4984 0.0000 0.0000 0.0000
# 2 27.4651 34.9057 13.4984 0.0000 0.0000 0.0000
# 3 13.4984 13.4984 71.4622 0.0000 0.0000 0.0000
# 4 0.0000 0.0000 0.0000 22.4295 0.0000 0.0000
# 5 0.0000 0.0000 0.0000 0.0000 22.4295 0.0000
# 6 0.0000 0.0000 0.0000 0.0000 0.0000 13.3651
#
#
#
# Elastic Compliance Matrix: (Units=1/GPa)
#
#
# Indices 1 2 3 4 5 6 
#
# 1 0.075930 -0.058469 -0.003298 0.000000 0.000000 0.000000
# 2 -0.058469 0.075930 -0.003298 0.000000 0.000000 0.000000
# 3 -0.003298 -0.003298 0.015239 0.000000 0.000000 0.000000
# 4 0.000000 0.000000 0.000000 0.044584 0.000000 0.000000
# 5 0.000000 0.000000 0.000000 0.000000 0.044584 0.000000
# 6 0.000000 0.000000 0.000000 0.000000 0.000000 0.074822
#
#
# Mechanical properties :
#
#
# Convention : Reuss Voigt Hill
#
# Bulk Modulus (GPa) = 27.05021 27.79970 27.42496
# Shear Modulus (GPa) = 10.55872 17.43226 13.99549
#
# Velocity S-wave (km/s) = 2.45341 3.15240 2.82461
# Velocity P-wave (km/s) = 4.84212 5.39425 5.12562
#
# Compressibility (1/GPa) = 0.03696829
#
# Stress axis : x y z
#
# Youngs Moduli (GPa) = 13.17007 13.17007 65.61957
#
# Poissons Ratio (x) = 0.77004 0.21642
# Poissons Ratio (y) = 0.77004 0.21642
# Poissons Ratio (z) = 0.04344 0.04344
#
# Static dielectric constant tensor:
#      x y z
#    x 1.609020 0.000000 0.000000 
#    y 0.000000 1.609020 0.000000 
#    z 0.000000 0.000000 1.650300 
# 
# From -- ./inp_files/4330.got.cif
#   From: 2010.05.17/outbox.cif.g08.bks.cpg/sg139_3_cif.got.tgz:4330.got - 2010.05.20 13:14:44.
