data_PCOD9571426
_publ_section_title
;
Structure prediction by ZEFSAII (Michael W. Deem and Ramdas Pophale) SiO2 
 PCOD9571426
Probable space group: I 4/M M M
;
_chemical_formula_sum "Si O2"
_cell_formula_units_Z 192
_cell_length_a 20.521455
_cell_length_b 20.521455
_cell_length_c 26.580075
_cell_angle_alpha 90.000000
_cell_angle_beta 90.000000
_cell_angle_gamma 90.000000
_cell_volume 11193.670050
_symmetry_space_group_name_H-M "I 4/M M M"
_symmetry_group_IT_number 139
_symmetry_cell_setting 'tetragonal'
loop_
_space_group_symop_operation_xyz
x,y,z
-y,x,z
-x,-y,z
y,-x,z
x,-y,-z
-x,y,-z
y,x,-z
-y,-x,-z
-x,-y,-z
y,-x,-z
x,y,-z
-y,x,-z
-x,y,z
x,-y,z
-y,-x,z
y,x,z
1/2+x,1/2+y,1/2+z
1/2-y,1/2+x,1/2+z
1/2-x,1/2-y,1/2+z
1/2+y,1/2-x,1/2+z
1/2+x,1/2-y,1/2-z
1/2-x,1/2+y,1/2-z
1/2+y,1/2+x,1/2-z
1/2-y,1/2-x,1/2-z
1/2-x,1/2-y,1/2-z
1/2+y,1/2-x,1/2-z
1/2+x,1/2+y,1/2-z
1/2-y,1/2+x,1/2-z
1/2-x,1/2+y,1/2+z
1/2+x,1/2-y,1/2+z
1/2-y,1/2-x,1/2+z
1/2+y,1/2+x,1/2+z
loop_
_atom_site_type_symbol
_atom_site_label
_atom_site_fract_x
_atom_site_fract_y
_atom_site_fract_z
Si Si1 0.921615 0.313999 0.237477
Si Si2 0.678005 0.423534 0.556649
Si Si3 0.425015 0.317484 0.798901
Si Si4 0.674632 0.214904 0.054051
Si Si5 0.322561 0.573891 0.920298
Si Si6 0.759632 0.348000 0.359429
O O1 0.877747 0.377747 0.250000
O O2 0.911605 0.254743 0.277420
O O3 0.891768 0.284183 0.186140
O O4 0.000000 0.326453 0.234423
O O5 0.702118 0.407182 0.500000
O O6 0.679461 0.500000 0.562544
O O7 0.605738 0.394262 0.559522
O O8 0.718205 0.389313 0.600349
O O9 0.500000 0.334866 0.783993
O O10 0.371148 0.371148 0.782232
O O11 0.423300 0.316350 0.859503
O O12 0.739222 0.260779 0.053924
O O13 0.614038 0.262975 0.057506
O O14 0.680761 0.176235 0.105832
O O15 0.672411 0.179903 0.000000
O O16 0.323180 0.500000 0.936431
O O17 0.388033 0.611968 0.934002
O O18 0.713306 0.286695 0.343153
#
# Coordination Sequence:
#
# PCOD9571426 Si02
#       6
#    32  32  32  32  32  32
#     4  11  23  37  54  75  98 126 163 208 258 310
#     4   9  17  29  46  70 102 138 171 201 233 272
#     4   9  18  32  50  75 106 137 170 205 241 287
#     4   9  17  29  46  69  96 125 158 197 241 286
#     4   9  17  29  45  66  95 130 164 197 233 276
#     4  10  19  32  52  75  98 124 158 201 247 294
#
# _framework density 17.152552
#
# number of rings (size 3 to 8) (size 9 to 14) (size 15 to 20)
#    0.000    2.500    0.000    2.500    0.000    5.667 
#    0.000    2.500    0.000    0.000    0.000    4.667 
#    0.000    0.000    0.000   16.000    0.000    0.667 
#
# Total GULP energy -534802.895832 kJ/mol
# GULP energy per Si atom -5570.863498 kJ/mol
# Density = 1.711351 g / cm^3
# Si number density = 17.152552 Si / 1000 Ang^3
#
#
#
# Elastic Constant Matrix: (Units=GPa)
#
#
# Indices 1 2 3 4 5 6 
#
# 1 74.7169 44.0566 30.7485 0.0000 0.0000 0.0000
# 2 44.0566 74.7169 30.7485 0.0000 0.0000 0.0000
# 3 30.7485 30.7485 64.5644 0.0000 0.0000 0.0000
# 4 0.0000 0.0000 0.0000 28.1668 0.0000 0.0000
# 5 0.0000 0.0000 0.0000 0.0000 28.1668 0.0000
# 6 0.0000 0.0000 0.0000 0.0000 0.0000 15.9374
#
#
#
# Elastic Compliance Matrix: (Units=1/GPa)
#
#
# Indices 1 2 3 4 5 6 
#
# 1 0.021895 -0.010720 -0.005322 0.000000 0.000000 0.000000
# 2 -0.010720 0.021895 -0.005322 0.000000 0.000000 0.000000
# 3 -0.005322 -0.005322 0.020558 0.000000 0.000000 0.000000
# 4 0.000000 0.000000 0.000000 0.035503 0.000000 0.000000
# 5 0.000000 0.000000 0.000000 0.000000 0.035503 0.000000
# 6 0.000000 0.000000 0.000000 0.000000 0.000000 0.062745
#
#
# Mechanical properties :
#
#
# Convention : Reuss Voigt Hill
#
# Bulk Modulus (GPa) = 46.25472 47.23392 46.74432
# Shear Modulus (GPa) = 20.15853 21.68385 20.92119
#
# Velocity S-wave (km/s) = 3.43191 3.55938 3.49623
# Velocity P-wave (km/s) = 6.53676 6.67005 6.60374
#
# Compressibility (1/GPa) = 0.02161942
#
# Stress axis : x y z
#
# Youngs Moduli (GPa) = 45.67212 45.67212 48.64389
#
# Poissons Ratio (x) = 0.48962 0.25888
# Poissons Ratio (y) = 0.48962 0.25888
# Poissons Ratio (z) = 0.24307 0.24307
#
# Static dielectric constant tensor:
#      x y z
#    x 1.576050 0.000000 0.000000 
#    y 0.000000 1.576050 0.000000 
#    z 0.000000 0.000000 1.590800 
# 
# From -- ./inp_files/11950.got.cif
#   From: 2010.05.17/outbox.cif.g08.bks.cpg/sg139_6_cif.got.tgz:11950.got - 2010.05.20 13:14:44.
