data_PCOD9571723
_publ_section_title
;
Structure prediction by ZEFSAII (Michael W. Deem and Ramdas Pophale) SiO2 
 PCOD9571723
Probable space group: I 4/M M M
;
_chemical_formula_sum "Si O2"
_cell_formula_units_Z 160
_cell_length_a 32.956461
_cell_length_b 32.956461
_cell_length_c 8.691676
_cell_angle_alpha 90.000000
_cell_angle_beta 90.000000
_cell_angle_gamma 90.000000
_cell_volume 9440.275466
_symmetry_space_group_name_H-M "I 4/M M M"
_symmetry_group_IT_number 139
_symmetry_cell_setting 'tetragonal'
loop_
_space_group_symop_operation_xyz
x,y,z
-y,x,z
-x,-y,z
y,-x,z
x,-y,-z
-x,y,-z
y,x,-z
-y,-x,-z
-x,-y,-z
y,-x,-z
x,y,-z
-y,x,-z
-x,y,z
x,-y,z
-y,-x,z
y,x,z
1/2+x,1/2+y,1/2+z
1/2-y,1/2+x,1/2+z
1/2-x,1/2-y,1/2+z
1/2+y,1/2-x,1/2+z
1/2+x,1/2-y,1/2-z
1/2-x,1/2+y,1/2-z
1/2+y,1/2+x,1/2-z
1/2-y,1/2-x,1/2-z
1/2-x,1/2-y,1/2-z
1/2+y,1/2-x,1/2-z
1/2+x,1/2+y,1/2-z
1/2-y,1/2+x,1/2-z
1/2-x,1/2+y,1/2+z
1/2+x,1/2-y,1/2+z
1/2-y,1/2-x,1/2+z
1/2+y,1/2+x,1/2+z
loop_
_atom_site_type_symbol
_atom_site_label
_atom_site_fract_x
_atom_site_fract_y
_atom_site_fract_z
Si Si1 0.387506 0.824518 0.184837
Si Si2 0.395115 0.395115 0.824063
Si Si3 0.825410 0.174591 0.323506
Si Si4 0.047077 0.171638 0.312799
Si Si5 0.453542 0.890965 0.814507
Si Si6 0.612253 0.265594 0.683298
O O1 0.348972 0.848972 0.250000
O O2 0.426806 0.851630 0.228786
O O3 0.389927 0.779654 0.251782
O O4 0.385285 0.822899 0.000000
O O5 0.360292 0.360292 0.826638
O O6 0.433509 0.371198 0.756871
O O7 0.405830 0.405830 0.000000
O O8 0.815487 0.184514 0.500000
O O9 0.846626 0.212262 0.240558
O O10 0.050653 0.172386 0.500000
O O11 0.074869 0.207576 0.247494
O O12 0.000000 0.175631 0.272666
O O13 0.500000 0.888606 0.761923
O O14 0.429829 0.929829 0.750000
O O15 0.453362 0.893186 0.000000
O O16 0.611102 0.265557 0.500000
#
# Coordination Sequence:
#
# PCOD9571723 Si02
#       6
#    32  16  16  32  32  32
#     4  10  20  36  55  74 100 136 173 207 248 301
#     4   7  12  25  45  67  92 125 166 209 249 292
#     4   9  17  33  54  74  98 132 171 207 248 300
#     4   9  17  30  49  72  99 135 177 216 256 304
#     4   9  19  35  54  76 101 131 168 208 250 298
#     4  11  21  33  51  77 106 133 165 210 259 304
#
# _framework density 16.948657000000001
#
# number of rings (size 3 to 8) (size 9 to 14) (size 15 to 20)
#    0.000    2.600    0.000    3.900    0.000    2.600 
#    0.000    3.500    0.000    0.300    0.000    2.100 
#    0.000    0.000    0.000    7.300    0.000    9.000 
#
# Total GULP energy -445884.506162 kJ/mol
# GULP energy per Si atom -5573.556327 kJ/mol
# Density = 1.691008 g / cm^3
# Si number density = 16.948657 Si / 1000 Ang^3
#
#
#
# Elastic Constant Matrix: (Units=GPa)
#
#
# Indices 1 2 3 4 5 6 
#
# 1 104.9708 131.1462 44.1369 0.0000 0.0000 0.0000
# 2 131.1462 104.9709 44.1370 0.0000 0.0000 0.0000
# 3 44.1369 44.1370 59.9806 0.0000 0.0000 0.0000
# 4 0.0000 0.0000 0.0000 22.3363 0.0000 0.0000
# 5 0.0000 0.0000 0.0000 0.0000 22.3363 0.0000
# 6 0.0000 0.0000 0.0000 0.0000 0.0000 10.8447
#
#
#
# Elastic Compliance Matrix: (Units=1/GPa)
#
#
# Indices 1 2 3 4 5 6 
#
# 1 -0.016181 0.022023 -0.004299 0.000000 0.000000 0.000000
# 2 0.022023 -0.016181 -0.004299 0.000000 0.000000 0.000000
# 3 -0.004299 -0.004299 0.022999 0.000000 0.000000 0.000000
# 4 0.000000 0.000000 0.000000 0.044770 0.000000 0.000000
# 5 0.000000 0.000000 0.000000 0.000000 0.044770 0.000000
# 6 0.000000 0.000000 0.000000 0.000000 0.000000 0.092211
#
#
# Mechanical properties :
#
#
# Convention : Reuss Voigt Hill
#
# Bulk Modulus (GPa) = 57.18416 78.75138 67.96777
# Shear Modulus (GPa) = 33.03189 14.47026 23.75107
#
# Velocity S-wave (km/s) = 4.41947 2.92510 3.74753
# Velocity P-wave (km/s) = 7.73661 7.61406 7.67558
#
# Compressibility (1/GPa) = 0.01748736
#
# Stress axis : x y z
#
# Youngs Moduli (GPa) = -61.80205 -61.80202 43.47968
#
# Poissons Ratio (x) = 1.36108 0.18693
# Poissons Ratio (y) = 1.36108 0.18693
# Poissons Ratio (z) = -0.26570 -0.26570
#
# Static dielectric constant tensor:
#      x y z
#    x 1.565700 0.000000 0.000000 
#    y 0.000000 1.565700 0.000000 
#    z 0.000000 0.000000 1.577340 
# 
# From -- ./inp_files/2200.got.cif
#   From: 2010.05.17/outbox.cif.g08.bks.cpg/sg139_2_cif.got.tgz:2200.got - 2010.05.20 13:14:44.
