data_PCOD9571238
_publ_section_title
;
Structure prediction by ZEFSAII (Michael W. Deem and Ramdas Pophale) SiO2 
 PCOD9571238
Probable space group: I 4/M M M
;
_chemical_formula_sum "Si O2"
_cell_formula_units_Z 176
_cell_length_a 18.171697
_cell_length_b 18.171697
_cell_length_c 28.763204
_cell_angle_alpha 90.000000
_cell_angle_beta 90.000000
_cell_angle_gamma 90.000000
_cell_volume 9497.914041
_symmetry_space_group_name_H-M "I 4/M M M"
_symmetry_group_IT_number 139
_symmetry_cell_setting 'tetragonal'
loop_
_space_group_symop_operation_xyz
x,y,z
-y,x,z
-x,-y,z
y,-x,z
x,-y,-z
-x,y,-z
y,x,-z
-y,-x,-z
-x,-y,-z
y,-x,-z
x,y,-z
-y,x,-z
-x,y,z
x,-y,z
-y,-x,z
y,x,z
1/2+x,1/2+y,1/2+z
1/2-y,1/2+x,1/2+z
1/2-x,1/2-y,1/2+z
1/2+y,1/2-x,1/2+z
1/2+x,1/2-y,1/2-z
1/2-x,1/2+y,1/2-z
1/2+y,1/2+x,1/2-z
1/2-y,1/2-x,1/2-z
1/2-x,1/2-y,1/2-z
1/2+y,1/2-x,1/2-z
1/2+x,1/2+y,1/2-z
1/2-y,1/2+x,1/2-z
1/2-x,1/2+y,1/2+z
1/2+x,1/2-y,1/2+z
1/2-y,1/2-x,1/2+z
1/2+y,1/2+x,1/2+z
loop_
_atom_site_type_symbol
_atom_site_label
_atom_site_fract_x
_atom_site_fract_y
_atom_site_fract_z
Si Si1 0.242386 0.918317 0.948379
Si Si2 0.087540 0.792426 0.362587
Si Si3 0.872932 0.693869 0.446351
Si Si4 0.298890 0.583759 0.344950
Si Si5 0.417576 0.000000 0.443650
Si Si6 0.183745 0.689985 0.696670
O O1 0.295204 0.847776 0.945096
O O2 0.196746 0.917426 0.901157
O O3 0.280946 0.000000 0.947520
O O4 0.207451 0.915184 0.000000
O O5 0.133604 0.866397 0.351917
O O6 0.115145 0.761572 0.412413
O O7 0.114179 0.727798 0.327661
O O8 0.000000 0.802287 0.362132
O O9 0.887975 0.713776 0.500000
O O10 0.929777 0.630571 0.430910
O O11 0.302352 0.500000 0.328250
O O12 0.364893 0.635108 0.326857
O O13 0.222272 0.622845 0.330592
O O14 0.500000 0.000000 0.425008
O O15 0.422349 0.000000 0.500000
O O16 0.245874 0.754126 0.695733
O O17 0.169761 0.669761 0.750000
#
# Coordination Sequence:
#
# PCOD9571238 Si02
#       6
#    32  32  32  32  16  32
#     4   9  17  29  48  77 113 149 185 228 276 325
#     4  11  23  39  59  84 113 148 193 241 289 344
#     4  10  18  30  50  78 111 147 189 234 281 336
#     4  10  20  34  54  82 115 151 189 225 266 321
#     4   9  16  26  44  72 109 147 179 219 276 336
#     4   9  19  38  62  84 106 136 178 229 284 339
#
# _framework density 18.530384000000002
#
# number of rings (size 3 to 8) (size 9 to 14) (size 15 to 20)
#    0.000    2.273    2.727    0.545    0.000    4.000 
#    0.000    1.818    0.000    0.000    0.000   10.182 
#    0.000    0.000    0.000    0.000    0.000    0.000 
#
# Total GULP energy -490190.608409 kJ/mol
# GULP energy per Si atom -5570.347823 kJ/mol
# Density = 1.848821 g / cm^3
# Si number density = 18.530384 Si / 1000 Ang^3
#
#
#
# Elastic Constant Matrix: (Units=GPa)
#
#
# Indices 1 2 3 4 5 6 
#
# 1 90.6956 53.7492 22.7186 0.0000 0.0000 0.0000
# 2 53.7492 90.6956 22.7186 0.0000 0.0000 0.0000
# 3 22.7186 22.7186 81.7714 0.0000 0.0000 0.0000
# 4 0.0000 0.0000 0.0000 12.8568 0.0000 0.0000
# 5 0.0000 0.0000 0.0000 0.0000 12.8568 0.0000
# 6 0.0000 0.0000 0.0000 0.0000 0.0000 14.7370
#
#
#
# Elastic Compliance Matrix: (Units=1/GPa)
#
#
# Indices 1 2 3 4 5 6 
#
# 1 0.017326 -0.009740 -0.002108 0.000000 0.000000 0.000000
# 2 -0.009740 0.017326 -0.002108 0.000000 0.000000 0.000000
# 3 -0.002108 -0.002108 0.013400 0.000000 0.000000 0.000000
# 4 0.000000 0.000000 0.000000 0.077780 0.000000 0.000000
# 5 0.000000 0.000000 0.000000 0.000000 0.077780 0.000000
# 6 0.000000 0.000000 0.000000 0.000000 0.000000 0.067856
#
#
# Mechanical properties :
#
#
# Convention : Reuss Voigt Hill
#
# Bulk Modulus (GPa) = 49.64775 51.28171 50.46473
# Shear Modulus (GPa) = 16.33487 19.02186 17.67837
#
# Velocity S-wave (km/s) = 2.97226 3.20742 3.09207
# Velocity P-wave (km/s) = 6.21529 6.43826 6.32776
#
# Compressibility (1/GPa) = 0.02014190
#
# Stress axis : x y z
#
# Youngs Moduli (GPa) = 57.71623 57.71623 74.62500
#
# Poissons Ratio (x) = 0.56216 0.15728
# Poissons Ratio (y) = 0.56216 0.15728
# Poissons Ratio (z) = 0.12164 0.12164
#
# Static dielectric constant tensor:
#      x y z
#    x 1.656210 0.000000 0.000000 
#    y 0.000000 1.656210 0.000000 
#    z 0.000000 0.000000 1.660520 
# 
# From -- ./inp_files/14238.got.cif
#   From: 2010.05.17/outbox.cif.g08.bks.cpg/sg139_8_cif.got.tgz:14238.got - 2010.05.20 13:14:44.
