data_PCOD9571248
_publ_section_title
;
Structure prediction by ZEFSAII (Michael W. Deem and Ramdas Pophale) SiO2 
 PCOD9571248
Probable space group: I 4/M M M
;
_chemical_formula_sum "Si O2"
_cell_formula_units_Z 240
_cell_length_a 20.346081
_cell_length_b 20.346081
_cell_length_c 33.357285
_cell_angle_alpha 90.000000
_cell_angle_beta 90.000000
_cell_angle_gamma 90.000000
_cell_volume 13808.682173
_symmetry_space_group_name_H-M "I 4/M M M"
_symmetry_group_IT_number 139
_symmetry_cell_setting 'tetragonal'
loop_
_space_group_symop_operation_xyz
x,y,z
-y,x,z
-x,-y,z
y,-x,z
x,-y,-z
-x,y,-z
y,x,-z
-y,-x,-z
-x,-y,-z
y,-x,-z
x,y,-z
-y,x,-z
-x,y,z
x,-y,z
-y,-x,z
y,x,z
1/2+x,1/2+y,1/2+z
1/2-y,1/2+x,1/2+z
1/2-x,1/2-y,1/2+z
1/2+y,1/2-x,1/2+z
1/2+x,1/2-y,1/2-z
1/2-x,1/2+y,1/2-z
1/2+y,1/2+x,1/2-z
1/2-y,1/2-x,1/2-z
1/2-x,1/2-y,1/2-z
1/2+y,1/2-x,1/2-z
1/2+x,1/2+y,1/2-z
1/2-y,1/2+x,1/2-z
1/2-x,1/2+y,1/2+z
1/2+x,1/2-y,1/2+z
1/2-y,1/2-x,1/2+z
1/2+y,1/2+x,1/2+z
loop_
_atom_site_type_symbol
_atom_site_label
_atom_site_fract_x
_atom_site_fract_y
_atom_site_fract_z
Si Si1 0.654652 0.762892 0.838481
Si Si2 0.312602 0.575396 0.702798
Si Si3 0.745243 0.424083 0.916691
Si Si4 0.246086 0.863831 0.872805
Si Si5 0.925850 0.284735 0.955682
Si Si6 0.578482 0.319833 0.000000
Si Si7 0.570767 0.114447 0.953965
Si Si8 0.421376 0.812048 0.761553
O O1 0.710686 0.710686 0.824626
O O2 0.618369 0.733002 0.877361
O O3 0.690574 0.829550 0.853045
O O4 0.604052 0.783338 0.803961
O O5 0.334624 0.500000 0.709551
O O6 0.370285 0.629716 0.708978
O O7 0.284827 0.583779 0.657668
O O8 0.249022 0.588349 0.730823
O O9 0.724582 0.500000 0.910693
O O10 0.713943 0.399290 0.958427
O O11 0.823277 0.424206 0.925130
O O12 0.194210 0.805791 0.875623
O O13 0.258973 0.888831 0.917186
O O14 0.927108 0.363790 0.951050
O O15 0.000000 0.259570 0.955320
O O16 0.896883 0.270918 0.000000
O O17 0.500000 0.316533 0.000000
O O18 0.607341 0.392660 0.000000
O O19 0.500000 0.081446 0.947342
O O20 0.569565 0.139873 0.000000
O O21 0.500000 0.827843 0.762134
O O22 0.373943 0.873943 0.750000
#
# Coordination Sequence:
#
# PCOD9571248 Si02
#       8
#    32  32  32  32  32  16  32  32
#     4  11  21  34  55  82 110 143 182 227 277 334
#     4  10  21  38  62  89 116 148 184 228 282 335
#     4  10  18  31  49  73 105 141 181 228 279 326
#     4  10  20  34  54  79 107 141 181 223 271 326
#     4  10  20  33  49  71 104 142 180 224 271 319
#     4  10  20  33  50  72 101 141 187 235 284 328
#     4   9  16  28  45  64  92 131 174 219 266 316
#     4  11  23  40  62  86 115 151 186 228 275 330
#
# _framework density 17.380369000000002
#
# number of rings (size 3 to 8) (size 9 to 14) (size 15 to 20)
#    0.000    1.867    3.333    1.600    0.000    1.400 
#    0.000    1.333    0.000    0.000    0.000    0.000 
#    0.000    9.600    0.000   12.400    0.000    0.000 
#
# Total GULP energy -668378.461448 kJ/mol
# GULP energy per Si atom -5569.820512 kJ/mol
# Density = 1.734081 g / cm^3
# Si number density = 17.380369 Si / 1000 Ang^3
#
#
#
# Elastic Constant Matrix: (Units=GPa)
#
#
# Indices 1 2 3 4 5 6 
#
# 1 68.3328 43.5022 42.5159 0.0000 0.0000 0.0000
# 2 43.5022 68.3271 42.5153 0.0000 0.0000 0.0000
# 3 42.5159 42.5153 116.3896 0.0000 0.0000 0.0000
# 4 0.0000 0.0000 0.0000 20.3525 0.0000 0.0000
# 5 0.0000 0.0000 0.0000 0.0000 20.3531 0.0000
# 6 0.0000 0.0000 0.0000 0.0000 0.0000 14.1755
#
#
#
# Elastic Compliance Matrix: (Units=1/GPa)
#
#
# Indices 1 2 3 4 5 6 
#
# 1 0.026328 -0.013948 -0.004522 0.000000 0.000000 0.000000
# 2 -0.013948 0.026330 -0.004523 0.000000 0.000000 0.000000
# 3 -0.004522 -0.004523 0.011896 0.000000 0.000000 0.000000
# 4 0.000000 0.000000 0.000000 0.049134 0.000000 0.000000
# 5 0.000000 0.000000 0.000000 0.000000 0.049133 0.000000
# 6 0.000000 0.000000 0.000000 0.000000 0.000000 0.070544
#
#
# Mechanical properties :
#
#
# Convention : Reuss Voigt Hill
#
# Bulk Modulus (GPa) = 53.85852 56.67959 55.26905
# Shear Modulus (GPa) = 17.51061 19.27728 18.39394
#
# Velocity S-wave (km/s) = 3.17755 3.33399 3.25671
# Velocity P-wave (km/s) = 6.67217 6.89222 6.78309
#
# Compressibility (1/GPa) = 0.01856716
#
# Stress axis : x y z
#
# Youngs Moduli (GPa) = 37.98269 37.97885 84.06303
#
# Poissons Ratio (x) = 0.52975 0.38014
# Poissons Ratio (y) = 0.52980 0.38021
# Poissons Ratio (z) = 0.17176 0.17177
#
# Static dielectric constant tensor:
#      x y z
#    x 1.601300 0.000000 0.000000 
#    y 0.000000 1.601300 0.000000 
#    z 0.000000 0.000000 1.605310 
# 
# From -- ./inp_files/13400.got.cif
#   From: 2010.05.17/outbox.cif.g08.bks.cpg/sg139_7_cif.got.tgz:13400.got - 2010.05.20 13:14:44.
