data_PCOD9571835
_publ_section_title
;
Structure prediction by ZEFSAII (Michael W. Deem and Ramdas Pophale) SiO2 
 PCOD9571835
Probable space group: I 4/M M M
;
_chemical_formula_sum "Si O2"
_cell_formula_units_Z 176
_cell_length_a 23.937824
_cell_length_b 23.937824
_cell_length_c 15.728173
_cell_angle_alpha 90.000000
_cell_angle_beta 90.000000
_cell_angle_gamma 90.000000
_cell_volume 9012.548536
_symmetry_space_group_name_H-M "I 4/M M M"
_symmetry_group_IT_number 139
_symmetry_cell_setting 'tetragonal'
loop_
_space_group_symop_operation_xyz
x,y,z
-y,x,z
-x,-y,z
y,-x,z
x,-y,-z
-x,y,-z
y,x,-z
-y,-x,-z
-x,-y,-z
y,-x,-z
x,y,-z
-y,x,-z
-x,y,z
x,-y,z
-y,-x,z
y,x,z
1/2+x,1/2+y,1/2+z
1/2-y,1/2+x,1/2+z
1/2-x,1/2-y,1/2+z
1/2+y,1/2-x,1/2+z
1/2+x,1/2-y,1/2-z
1/2-x,1/2+y,1/2-z
1/2+y,1/2+x,1/2-z
1/2-y,1/2-x,1/2-z
1/2-x,1/2-y,1/2-z
1/2+y,1/2-x,1/2-z
1/2+x,1/2+y,1/2-z
1/2-y,1/2+x,1/2-z
1/2-x,1/2+y,1/2+z
1/2+x,1/2-y,1/2+z
1/2-y,1/2-x,1/2+z
1/2+y,1/2+x,1/2+z
loop_
_atom_site_type_symbol
_atom_site_label
_atom_site_fract_x
_atom_site_fract_y
_atom_site_fract_z
Si Si1 0.629448 0.723628 0.594848
Si Si2 0.500000 0.932312 0.597228
Si Si3 0.689963 0.169115 0.345844
Si Si4 0.434546 0.121913 0.103872
Si Si5 0.388179 0.703001 0.907508
Si Si6 0.564555 0.660394 0.261132
O O1 0.606562 0.715914 0.500000
O O2 0.684025 0.684025 0.603534
O O3 0.651157 0.786571 0.606010
O O4 0.586773 0.702161 0.665758
O O5 0.500000 0.911744 0.500000
O O6 0.440394 0.917566 0.634602
O O7 0.500000 0.000000 0.593206
O O8 0.691534 0.191534 0.250000
O O9 0.663575 0.107601 0.352108
O O10 0.750269 0.158080 0.385555
O O11 0.500000 0.131348 0.121817
O O12 0.428703 0.124246 0.000000
O O13 0.354714 0.645287 0.913984
O O14 0.428423 0.693504 0.827962
O O15 0.413574 0.716430 0.000000
O O16 0.500000 0.644639 0.273566
O O17 0.606881 0.606881 0.261791
#
# Coordination Sequence:
#
# PCOD9571835 Si02
#       6
#    32  16  32  32  32  32
#     4  10  21  39  63  88 119 158 196 243 303 363
#     4   7  12  28  52  68  84 124 179 227 270 316
#     4  12  22  35  54  85 120 154 196 245 295 359
#     4   9  18  34  53  72 100 141 189 237 282 333
#     4  10  21  38  61  87 118 156 195 239 295 359
#     4  10  22  41  64  92 126 161 203 254 308 371
#
# _framework density 19.528327999999998
#
# number of rings (size 3 to 8) (size 9 to 14) (size 15 to 20)
#    0.000    2.091    1.818    3.273    0.000    3.818 
#    3.273    0.000    0.000    0.000    0.000    5.091 
#    0.000    0.000    0.000    0.000    0.000    0.000 
#
# Total GULP energy -490671.464126 kJ/mol
# GULP energy per Si atom -5575.812092 kJ/mol
# Density = 1.948388 g / cm^3
# Si number density = 19.528328 Si / 1000 Ang^3
#
#
#
# Elastic Constant Matrix: (Units=GPa)
#
#
# Indices 1 2 3 4 5 6 
#
# 1 66.3085 18.6982 23.2147 0.0000 0.0000 0.0000
# 2 18.6982 66.3085 23.2147 0.0000 0.0000 0.0000
# 3 23.2147 23.2147 104.8747 0.0000 0.0000 0.0000
# 4 0.0000 0.0000 0.0000 10.5982 0.0000 0.0000
# 5 0.0000 0.0000 0.0000 0.0000 10.5982 0.0000
# 6 0.0000 0.0000 0.0000 0.0000 0.0000 17.2458
#
#
#
# Elastic Compliance Matrix: (Units=1/GPa)
#
#
# Indices 1 2 3 4 5 6 
#
# 1 0.017193 -0.003811 -0.002962 0.000000 0.000000 0.000000
# 2 -0.003811 0.017193 -0.002962 0.000000 0.000000 0.000000
# 3 -0.002962 -0.002962 0.010847 0.000000 0.000000 0.000000
# 4 0.000000 0.000000 0.000000 0.094356 0.000000 0.000000
# 5 0.000000 0.000000 0.000000 0.000000 0.094356 0.000000
# 6 0.000000 0.000000 0.000000 0.000000 0.000000 0.057985
#
#
# Mechanical properties :
#
#
# Convention : Reuss Voigt Hill
#
# Bulk Modulus (GPa) = 38.81780 40.86077 39.83928
# Shear Modulus (GPa) = 15.62564 19.17936 17.40250
#
# Velocity S-wave (km/s) = 2.83177 3.13730 2.98844
# Velocity P-wave (km/s) = 5.53287 5.83890 5.68795
#
# Compressibility (1/GPa) = 0.02576138
#
# Stress axis : x y z
#
# Youngs Moduli (GPa) = 58.16404 58.16404 92.19515
#
# Poissons Ratio (x) = 0.22167 0.27309
# Poissons Ratio (y) = 0.22167 0.27309
# Poissons Ratio (z) = 0.17229 0.17229
#
# Static dielectric constant tensor:
#      x y z
#    x 1.685030 0.000000 0.000000 
#    y 0.000000 1.685030 0.000000 
#    z 0.000000 0.000000 1.732380 
# 
# From -- ./inp_files/6080.got.cif
#   From: 2010.05.17/outbox.cif.g08.bks.cpg/sg139_4_cif.got.tgz:6080.got - 2010.05.20 13:14:44.
