data_PCOD9571920
_publ_section_title
;
Structure prediction by ZEFSAII (Michael W. Deem and Ramdas Pophale) SiO2 
 PCOD9571920
Probable space group: I 4/M M M
;
_chemical_formula_sum "Si O2"
_cell_formula_units_Z 160
_cell_length_a 30.752217
_cell_length_b 30.752217
_cell_length_c 8.119680
_cell_angle_alpha 90.000000
_cell_angle_beta 90.000000
_cell_angle_gamma 90.000000
_cell_volume 7678.772042
_symmetry_space_group_name_H-M "I 4/M M M"
_symmetry_group_IT_number 139
_symmetry_cell_setting 'tetragonal'
loop_
_space_group_symop_operation_xyz
x,y,z
-y,x,z
-x,-y,z
y,-x,z
x,-y,-z
-x,y,-z
y,x,-z
-y,-x,-z
-x,-y,-z
y,-x,-z
x,y,-z
-y,x,-z
-x,y,z
x,-y,z
-y,-x,z
y,x,z
1/2+x,1/2+y,1/2+z
1/2-y,1/2+x,1/2+z
1/2-x,1/2-y,1/2+z
1/2+y,1/2-x,1/2+z
1/2+x,1/2-y,1/2-z
1/2-x,1/2+y,1/2-z
1/2+y,1/2+x,1/2-z
1/2-y,1/2-x,1/2-z
1/2-x,1/2-y,1/2-z
1/2+y,1/2-x,1/2-z
1/2+x,1/2+y,1/2-z
1/2-y,1/2+x,1/2-z
1/2-x,1/2+y,1/2+z
1/2+x,1/2-y,1/2+z
1/2-y,1/2-x,1/2+z
1/2+y,1/2+x,1/2+z
loop_
_atom_site_type_symbol
_atom_site_label
_atom_site_fract_x
_atom_site_fract_y
_atom_site_fract_z
Si Si1 0.151683 0.284067 0.688918
Si Si2 0.794181 0.794181 0.193931
Si Si3 0.867976 0.867976 0.806243
Si Si4 0.951247 0.379612 0.695894
Si Si5 0.952419 0.816424 0.799048
Si Si6 0.938386 0.280128 0.186335
O O1 0.137354 0.286252 0.500000
O O2 0.170793 0.329208 0.750000
O O3 0.187552 0.247470 0.713612
O O4 0.112947 0.272746 0.808523
O O5 0.831114 0.831114 0.202977
O O6 0.785503 0.785503 0.000000
O O7 0.912215 0.845874 0.738320
O O8 0.876758 0.876758 0.000000
O O9 0.951895 0.382590 0.500000
O O10 0.912117 0.412117 0.750000
O O11 0.945709 0.327970 0.737346
O O12 0.000000 0.392253 0.758948
O O13 0.953166 0.766066 0.738155
O O14 0.000000 0.835487 0.763779
O O15 0.947863 0.813063 0.000000
O O16 0.954055 0.282871 0.000000
#
# Coordination Sequence:
#
# PCOD9571920 Si02
#       6
#    32  16  16  32  32  32
#     4  12  24  37  53  78 113 156 199 241 290 347
#     4  11  20  36  55  77 109 150 197 243 290 340
#     4   9  16  30  52  80 115 147 188 243 290 345
#     4  11  25  44  65  90 120 153 193 245 303 361
#     4   9  17  30  53  84 114 150 194 240 292 346
#     4  11  21  37  60  86 117 153 196 246 295 353
#
# _framework density 20.836665
#
# number of rings (size 3 to 8) (size 9 to 14) (size 15 to 20)
#    0.000    1.400    2.000    4.800    0.000    2.600 
#    0.000    1.000    0.000    0.300    0.000    2.100 
#    0.000    0.000    0.000    0.000    0.000    2.300 
#
# Total GULP energy -446129.302028 kJ/mol
# GULP energy per Si atom -5576.616275 kJ/mol
# Density = 2.078924 g / cm^3
# Si number density = 20.836665 Si / 1000 Ang^3
#
#
#
# Elastic Constant Matrix: (Units=GPa)
#
#
# Indices 1 2 3 4 5 6 
#
# 1 83.7568 116.3451 13.5625 0.0000 0.0000 0.0000
# 2 116.3451 83.7283 13.5550 0.0000 0.0000 0.0000
# 3 13.5625 13.5550 56.8282 0.0000 0.0000 0.0000
# 4 0.0000 0.0000 0.0000 -7.0094 0.0000 0.0000
# 5 0.0000 0.0000 0.0000 0.0000 -7.0085 0.0000
# 6 0.0000 0.0000 0.0000 0.0000 0.0000 12.6131
#
#
#
# Elastic Compliance Matrix: (Units=1/GPa)
#
#
# Indices 1 2 3 4 5 6 
#
# 1 -0.012752 0.017919 -0.001231 0.000000 0.000000 0.000000
# 2 0.017919 -0.012756 -0.001234 0.000000 0.000000 0.000000
# 3 -0.001231 -0.001234 0.018185 0.000000 0.000000 0.000000
# 4 0.000000 0.000000 0.000000 -0.142665 0.000000 0.000000
# 5 0.000000 0.000000 0.000000 0.000000 -0.142684 0.000000
# 6 0.000000 0.000000 0.000000 0.000000 0.000000 0.079282
#
#
# Mechanical properties :
#
#
# Convention : Reuss Voigt Hill
#
# Bulk Modulus (GPa) = 42.39906 56.80428 49.60167
# Shear Modulus (GPa) = -21.14742 5.10909 -8.01917
#
# Velocity S-wave (km/s) = -3.18923 1.56758 -1.96391
# Velocity P-wave (km/s) = 2.61360 5.53148 4.32598
#
# Compressibility (1/GPa) = 0.02358543
#
# Stress axis : x y z
#
# Youngs Moduli (GPa) = -78.41992 -78.39569 54.99059
#
# Poissons Ratio (x) = 1.40475 0.06768
# Poissons Ratio (y) = 1.40518 0.06785
# Poissons Ratio (z) = -0.09651 -0.09673
#
# Static dielectric constant tensor:
#      x y z
#    x 1.820040 0.000000 0.000000 
#    y 0.000000 1.820030 0.000000 
#    z 0.000000 0.000000 1.752710 
# 
# From -- ./inp_files/2188.got.cif
#   From: 2010.05.17/outbox.cif.g08.bks.cpg/sg139_2_cif.got.tgz:2188.got - 2010.05.20 13:14:44.
