data_PCOD9571621
_publ_section_title
;
Structure prediction by ZEFSAII (Michael W. Deem and Ramdas Pophale) SiO2 
 PCOD9571621
Probable space group: I 4/M M M
;
_chemical_formula_sum "Si O2"
_cell_formula_units_Z 192
_cell_length_a 17.469503
_cell_length_b 17.469503
_cell_length_c 32.272068
_cell_angle_alpha 90.000000
_cell_angle_beta 90.000000
_cell_angle_gamma 90.000000
_cell_volume 9848.903796
_symmetry_space_group_name_H-M "I 4/M M M"
_symmetry_group_IT_number 139
_symmetry_cell_setting 'tetragonal'
loop_
_space_group_symop_operation_xyz
x,y,z
-y,x,z
-x,-y,z
y,-x,z
x,-y,-z
-x,y,-z
y,x,-z
-y,-x,-z
-x,-y,-z
y,-x,-z
x,y,-z
-y,x,-z
-x,y,z
x,-y,z
-y,-x,z
y,x,z
1/2+x,1/2+y,1/2+z
1/2-y,1/2+x,1/2+z
1/2-x,1/2-y,1/2+z
1/2+y,1/2-x,1/2+z
1/2+x,1/2-y,1/2-z
1/2-x,1/2+y,1/2-z
1/2+y,1/2+x,1/2-z
1/2-y,1/2-x,1/2-z
1/2-x,1/2-y,1/2-z
1/2+y,1/2-x,1/2-z
1/2+x,1/2+y,1/2-z
1/2-y,1/2+x,1/2-z
1/2-x,1/2+y,1/2+z
1/2+x,1/2-y,1/2+z
1/2-y,1/2-x,1/2+z
1/2+y,1/2+x,1/2+z
loop_
_atom_site_type_symbol
_atom_site_label
_atom_site_fract_x
_atom_site_fract_y
_atom_site_fract_z
Si Si1 0.296203 0.413537 0.411077
Si Si2 0.000000 0.409865 0.045973
Si Si3 0.834370 0.360577 0.925033
Si Si4 0.907644 0.777592 0.500000
Si Si5 0.623892 0.253895 0.679319
Si Si6 0.917670 0.795537 0.727532
Si Si7 0.585462 0.156942 0.164066
O O1 0.282834 0.500000 0.426272
O O2 0.376617 0.376617 0.423877
O O3 0.229696 0.353258 0.423403
O O4 0.291763 0.414026 0.360900
O O5 0.079363 0.391186 0.067994
O O6 0.000000 0.500000 0.041404
O O7 0.000000 0.373649 0.000000
O O8 0.775726 0.385376 0.960531
O O9 0.808098 0.394813 0.881032
O O10 0.853751 0.853751 0.500000
O O11 0.000000 0.791772 0.500000
O O12 0.711770 0.288231 0.678509
O O13 0.592755 0.276918 0.723991
O O14 0.611154 0.163119 0.673733
O O15 0.849920 0.849920 0.714197
O O16 0.916018 0.719787 0.700073
O O17 0.000000 0.833295 0.721656
O O18 0.500000 0.121196 0.162468
#
# Coordination Sequence:
#
# PCOD9571621 Si02
#       7
#    32  16  32  16  32  32  32
#     4  10  20  35  56  85 119 157 198 243 293 347
#     4  11  20  34  62  92 121 147 181 237 296 348
#     4  11  22  40  61  90 121 154 196 240 291 353
#     4  12  26  44  67  93 124 160 200 248 299 356
#     4   9  18  33  54  76 105 147 195 238 282 339
#     4  10  20  34  54  78 105 142 187 236 287 339
#     4  10  20  33  53  80 111 144 183 229 281 343
#
# _framework density 19.494554999999998
#
# number of rings (size 3 to 8) (size 9 to 14) (size 15 to 20)
#    0.000    1.750    1.667    3.500    0.000    3.750 
#    0.000    0.000    1.833    3.000    0.000    2.333 
#    0.000    2.667    0.000    0.000    0.000    0.167 
#
# Total GULP energy -534798.066010 kJ/mol
# GULP energy per Si atom -5570.813188 kJ/mol
# Density = 1.945018 g / cm^3
# Si number density = 19.494555 Si / 1000 Ang^3
#
#
#
# Elastic Constant Matrix: (Units=GPa)
#
#
# Indices 1 2 3 4 5 6 
#
# 1 81.5307 37.0688 2.6754 0.0000 0.0000 0.0000
# 2 37.0688 81.5307 2.6754 0.0000 0.0000 0.0000
# 3 2.6754 2.6754 53.7746 0.0000 0.0000 0.0000
# 4 0.0000 0.0000 0.0000 -6.3267 0.0000 0.0000
# 5 0.0000 0.0000 0.0000 0.0000 -6.3267 0.0000
# 6 0.0000 0.0000 0.0000 0.0000 0.0000 18.7237
#
#
#
# Elastic Compliance Matrix: (Units=1/GPa)
#
#
# Indices 1 2 3 4 5 6 
#
# 1 0.015471 -0.007020 -0.000420 0.000000 0.000000 0.000000
# 2 -0.007020 0.015471 -0.000420 0.000000 0.000000 0.000000
# 3 -0.000420 -0.000420 0.018638 0.000000 0.000000 0.000000
# 4 0.000000 0.000000 0.000000 -0.158059 0.000000 0.000000
# 5 0.000000 0.000000 0.000000 0.000000 -0.158059 0.000000
# 6 0.000000 0.000000 0.000000 0.000000 0.000000 0.053408
#
#
# Mechanical properties :
#
#
# Convention : Reuss Voigt Hill
#
# Bulk Modulus (GPa) = 29.53543 33.51947 31.52745
# Shear Modulus (GPa) = -26.86400 12.84180 -7.01110
#
# Velocity S-wave (km/s) = -3.71620 2.56937 -1.89849
# Velocity P-wave (km/s) = 1.79724 5.10234 3.37667
#
# Compressibility (1/GPa) = 0.03385764
#
# Stress axis : x y z
#
# Youngs Moduli (GPa) = 64.63731 64.63731 53.65386
#
# Poissons Ratio (x) = 0.45377 0.02256
# Poissons Ratio (y) = 0.45377 0.02256
# Poissons Ratio (z) = 0.02718 0.02718
#
# Static dielectric constant tensor:
#      x y z
#    x 1.772170 0.000000 0.000000 
#    y 0.000000 1.772170 0.000000 
#    z 0.000000 0.000000 1.697770 
# 
# From -- ./inp_files/14393.got.cif
#   From: 2010.05.17/outbox.cif.g08.bks.cpg/sg139_8_cif.got.tgz:14393.got - 2010.05.20 13:14:44.
