data_PCOD9571683
_publ_section_title
;
Structure prediction by ZEFSAII (Michael W. Deem and Ramdas Pophale) SiO2 
 PCOD9571683
Probable space group: I 4/M M M
;
_chemical_formula_sum "Si O2"
_cell_formula_units_Z 160
_cell_length_a 33.063736
_cell_length_b 33.063736
_cell_length_c 8.724825
_cell_angle_alpha 90.000000
_cell_angle_beta 90.000000
_cell_angle_gamma 90.000000
_cell_volume 9538.071507
_symmetry_space_group_name_H-M "I 4/M M M"
_symmetry_group_IT_number 139
_symmetry_cell_setting 'tetragonal'
loop_
_space_group_symop_operation_xyz
x,y,z
-y,x,z
-x,-y,z
y,-x,z
x,-y,-z
-x,y,-z
y,x,-z
-y,-x,-z
-x,-y,-z
y,-x,-z
x,y,-z
-y,x,-z
-x,y,z
x,-y,z
-y,-x,z
y,x,z
1/2+x,1/2+y,1/2+z
1/2-y,1/2+x,1/2+z
1/2-x,1/2-y,1/2+z
1/2+y,1/2-x,1/2+z
1/2+x,1/2-y,1/2-z
1/2-x,1/2+y,1/2-z
1/2+y,1/2+x,1/2-z
1/2-y,1/2-x,1/2-z
1/2-x,1/2-y,1/2-z
1/2+y,1/2-x,1/2-z
1/2+x,1/2+y,1/2-z
1/2-y,1/2+x,1/2-z
1/2-x,1/2+y,1/2+z
1/2+x,1/2-y,1/2+z
1/2-y,1/2-x,1/2+z
1/2+y,1/2+x,1/2+z
loop_
_atom_site_type_symbol
_atom_site_label
_atom_site_fract_x
_atom_site_fract_y
_atom_site_fract_z
Si Si1 0.243738 0.914325 0.318046
Si Si2 0.853094 0.000000 0.826948
Si Si3 0.000000 0.755206 0.173815
Si Si4 0.912031 0.154385 0.813784
Si Si5 0.387046 0.824381 0.683726
Si Si6 0.953250 0.390103 0.815000
O O1 0.242099 0.912427 0.500000
O O2 0.255290 0.959435 0.261861
O O3 0.199342 0.905316 0.250249
O O4 0.279598 0.887291 0.251594
O O5 0.804125 0.000000 0.836689
O O6 0.861884 0.956012 0.757319
O O7 0.870044 0.000000 0.000000
O O8 0.000000 0.738836 0.000000
O O9 0.876407 0.123594 0.774161
O O10 0.914595 0.157222 0.000000
O O11 0.385534 0.822696 0.500000
O O12 0.350251 0.850251 0.750000
O O13 0.427412 0.850109 0.727556
O O14 0.928278 0.428278 0.750000
O O15 0.000000 0.388715 0.764402
O O16 0.952873 0.392592 0.000000
#
# Coordination Sequence:
#
# PCOD9571683 Si02
#       6
#    32  16  16  32  32  32
#     4  11  21  32  49  77 106 132 167 211 262 314
#     4   7  12  25  45  70  99 131 168 209 244 280
#     4   9  17  31  49  71 100 132 166 205 253 306
#     4   9  17  31  52  76 104 142 182 214 250 298
#     4  10  20  35  53  71  97 132 170 212 260 315
#     4   9  19  34  50  70  94 126 166 207 254 305
#
# _framework density 16.774878999999999
#
# number of rings (size 3 to 8) (size 9 to 14) (size 15 to 20)
#    0.000    2.600    0.000    3.900    1.400    1.800 
#    0.000    1.000    0.000    0.900    0.000    2.100 
#    0.000    0.000    0.000    7.300    0.000    9.000 
#
# Total GULP energy -445808.131879 kJ/mol
# GULP energy per Si atom -5572.601648 kJ/mol
# Density = 1.673670 g / cm^3
# Si number density = 16.774879 Si / 1000 Ang^3
#
#
#
# Elastic Constant Matrix: (Units=GPa)
#
#
# Indices 1 2 3 4 5 6 
#
# 1 118.1092 73.3071 37.2419 0.0000 0.0000 0.0000
# 2 73.3071 118.1092 37.2419 0.0000 0.0000 0.0000
# 3 37.2419 37.2419 55.8298 0.0000 0.0000 0.0000
# 4 0.0000 0.0000 0.0000 19.2436 0.0000 0.0000
# 5 0.0000 0.0000 0.0000 0.0000 19.2436 0.0000
# 6 0.0000 0.0000 0.0000 0.0000 0.0000 7.4607
#
#
#
# Elastic Compliance Matrix: (Units=1/GPa)
#
#
# Indices 1 2 3 4 5 6 
#
# 1 0.014688 -0.007632 -0.004707 0.000000 0.000000 0.000000
# 2 -0.007632 0.014688 -0.004707 0.000000 0.000000 0.000000
# 3 -0.004707 -0.004707 0.024191 0.000000 0.000000 0.000000
# 4 0.000000 0.000000 0.000000 0.051965 0.000000 0.000000
# 5 0.000000 0.000000 0.000000 0.000000 0.051965 0.000000
# 6 0.000000 0.000000 0.000000 0.000000 0.000000 0.134035
#
#
# Mechanical properties :
#
#
# Convention : Reuss Voigt Hill
#
# Bulk Modulus (GPa) = 51.34579 65.29220 58.31899
# Shear Modulus (GPa) = 15.05502 18.80673 16.93087
#
# Velocity S-wave (km/s) = 2.99904 3.35195 3.18039
# Velocity P-wave (km/s) = 6.53204 7.34764 6.95181
#
# Compressibility (1/GPa) = 0.01947579
#
# Stress axis : x y z
#
# Youngs Moduli (GPa) = 68.08271 68.08271 41.33826
#
# Poissons Ratio (x) = 0.51963 0.19456
# Poissons Ratio (y) = 0.51963 0.19456
# Poissons Ratio (z) = 0.32043 0.32043
#
# Static dielectric constant tensor:
#      x y z
#    x 1.535150 0.000000 0.000000 
#    y 0.000000 1.535150 0.000000 
#    z 0.000000 0.000000 1.566540 
# 
# From -- ./inp_files/2217.got.cif
#   From: 2010.05.17/outbox.cif.g08.bks.cpg/sg139_2_cif.got.tgz:2217.got - 2010.05.20 13:14:44.
