data_PCOD9571314
_publ_section_title
;
Structure prediction by ZEFSAII (Michael W. Deem and Ramdas Pophale) SiO2 
 PCOD9571314
Probable space group: I 4/M M M
;
_chemical_formula_sum "Si O2"
_cell_formula_units_Z 176
_cell_length_a 18.016386
_cell_length_b 18.016386
_cell_length_c 32.405903
_cell_angle_alpha 90.000000
_cell_angle_beta 90.000000
_cell_angle_gamma 90.000000
_cell_volume 10518.637386
_symmetry_space_group_name_H-M "I 4/M M M"
_symmetry_group_IT_number 139
_symmetry_cell_setting 'tetragonal'
loop_
_space_group_symop_operation_xyz
x,y,z
-y,x,z
-x,-y,z
y,-x,z
x,-y,-z
-x,y,-z
y,x,-z
-y,-x,-z
-x,-y,-z
y,-x,-z
x,y,-z
-y,x,-z
-x,y,z
x,-y,z
-y,-x,z
y,x,z
1/2+x,1/2+y,1/2+z
1/2-y,1/2+x,1/2+z
1/2-x,1/2-y,1/2+z
1/2+y,1/2-x,1/2+z
1/2+x,1/2-y,1/2-z
1/2-x,1/2+y,1/2-z
1/2+y,1/2+x,1/2-z
1/2-y,1/2-x,1/2-z
1/2-x,1/2-y,1/2-z
1/2+y,1/2-x,1/2-z
1/2+x,1/2+y,1/2-z
1/2-y,1/2+x,1/2-z
1/2-x,1/2+y,1/2+z
1/2+x,1/2-y,1/2+z
1/2-y,1/2-x,1/2+z
1/2+y,1/2+x,1/2+z
loop_
_atom_site_type_symbol
_atom_site_label
_atom_site_fract_x
_atom_site_fract_y
_atom_site_fract_z
Si Si1 0.917419 0.201770 0.661914
Si Si2 0.085369 0.355640 0.709785
Si Si3 0.589516 0.711771 0.500000
Si Si4 0.799846 0.321718 0.430488
Si Si5 0.584753 0.914014 0.623202
Si Si6 0.585389 0.296322 0.937801
O O1 0.856372 0.143629 0.674575
O O2 0.906757 0.277590 0.686417
O O3 0.912814 0.211890 0.612357
O O4 0.000000 0.173714 0.670559
O O5 0.134666 0.365335 0.750000
O O6 0.098040 0.412632 0.672396
O O7 0.000000 0.364089 0.723496
O O8 0.500000 0.707132 0.500000
O O9 0.632153 0.632153 0.500000
O O10 0.622207 0.757170 0.460807
O O11 0.737395 0.262606 0.414197
O O12 0.849563 0.367785 0.398242
O O13 0.860900 0.269325 0.452776
O O14 0.500000 0.911335 0.608416
O O15 0.612715 0.000000 0.616207
O O16 0.500000 0.292559 0.950764
O O17 0.626100 0.373901 0.947637
#
# Coordination Sequence:
#
# PCOD9571314 Si02
#       6
#    32  32  16  32  32  32
#     4   9  17  29  45  66  92 123 160 202 247 294
#     4  10  19  30  44  65  95 129 167 208 249 297
#     4  10  22  39  59  83 106 130 162 202 246 298
#     4  10  19  33  53  74 101 132 163 201 250 303
#     4  10  19  31  49  71  98 133 169 207 253 302
#     4   9  16  28  47  69  97 133 169 205 246 291
#
# _framework density 16.732205
#
# number of rings (size 3 to 8) (size 9 to 14) (size 15 to 20)
#    0.000    2.364    1.818    1.636    0.000    1.727 
#    0.000    3.636    0.000    3.273    0.000    0.000 
#    0.000    3.636    0.000    6.000    0.000    0.182 
#
# Total GULP energy -490214.394559 kJ/mol
# GULP energy per Si atom -5570.618120 kJ/mol
# Density = 1.669412 g / cm^3
# Si number density = 16.732205 Si / 1000 Ang^3
#
#
#
# Elastic Constant Matrix: (Units=GPa)
#
#
# Indices 1 2 3 4 5 6 
#
# 1 105.3956 58.2650 29.5862 0.0000 0.0000 0.0000
# 2 58.2650 105.3988 29.5879 0.0000 0.0000 0.0000
# 3 29.5862 29.5879 68.9393 0.0000 0.0000 0.0000
# 4 0.0000 0.0000 0.0000 3.6910 0.0000 0.0000
# 5 0.0000 0.0000 0.0000 0.0000 3.6883 0.0000
# 6 0.0000 0.0000 0.0000 0.0000 0.0000 21.6910
#
#
#
# Elastic Compliance Matrix: (Units=1/GPa)
#
#
# Indices 1 2 3 4 5 6 
#
# 1 0.014225 -0.006992 -0.003104 0.000000 0.000000 0.000000
# 2 -0.006992 0.014225 -0.003104 0.000000 0.000000 0.000000
# 3 -0.003104 -0.003104 0.017170 0.000000 0.000000 0.000000
# 4 0.000000 0.000000 0.000000 0.270929 0.000000 0.000000
# 5 0.000000 0.000000 0.000000 0.000000 0.271124 0.000000
# 6 0.000000 0.000000 0.000000 0.000000 0.000000 0.046102
#
#
# Mechanical properties :
#
#
# Convention : Reuss Voigt Hill
#
# Bulk Modulus (GPa) = 52.03251 57.17910 54.60581
# Shear Modulus (GPa) = 7.50096 16.63370 12.06733
#
# Velocity S-wave (km/s) = 2.11959 3.15638 2.68844
# Velocity P-wave (km/s) = 6.09549 6.89426 6.50714
#
# Compressibility (1/GPa) = 0.01921875
#
# Stress axis : x y z
#
# Youngs Moduli (GPa) = 70.29967 70.30103 58.24175
#
# Poissons Ratio (x) = 0.49156 0.18077
# Poissons Ratio (y) = 0.49155 0.18079
# Poissons Ratio (z) = 0.21819 0.21823
#
# Static dielectric constant tensor:
#      x y z
#    x 1.576060 0.000000 0.000000 
#    y 0.000000 1.576060 0.000000 
#    z 0.000000 0.000000 1.574660 
# 
# From -- ./inp_files/14225.got.cif
#   From: 2010.05.17/outbox.cif.g08.bks.cpg/sg139_8_cif.got.tgz:14225.got - 2010.05.20 13:14:44.
