data_PCOD9571489
_publ_section_title
;
Structure prediction by ZEFSAII (Michael W. Deem and Ramdas Pophale) SiO2 
 PCOD9571489
Probable space group: I 4/M M M
;
_chemical_formula_sum "Si O2"
_cell_formula_units_Z 192
_cell_length_a 28.242043
_cell_length_b 28.242043
_cell_length_c 14.237387
_cell_angle_alpha 90.000000
_cell_angle_beta 90.000000
_cell_angle_gamma 90.000000
_cell_volume 11355.924855
_symmetry_space_group_name_H-M "I 4/M M M"
_symmetry_group_IT_number 139
_symmetry_cell_setting 'tetragonal'
loop_
_space_group_symop_operation_xyz
x,y,z
-y,x,z
-x,-y,z
y,-x,z
x,-y,-z
-x,y,-z
y,x,-z
-y,-x,-z
-x,-y,-z
y,-x,-z
x,y,-z
-y,x,-z
-x,y,z
x,-y,z
-y,-x,z
y,x,z
1/2+x,1/2+y,1/2+z
1/2-y,1/2+x,1/2+z
1/2-x,1/2-y,1/2+z
1/2+y,1/2-x,1/2+z
1/2+x,1/2-y,1/2-z
1/2-x,1/2+y,1/2-z
1/2+y,1/2+x,1/2-z
1/2-y,1/2-x,1/2-z
1/2-x,1/2-y,1/2-z
1/2+y,1/2-x,1/2-z
1/2+x,1/2+y,1/2-z
1/2-y,1/2+x,1/2-z
1/2-x,1/2+y,1/2+z
1/2+x,1/2-y,1/2+z
1/2-y,1/2-x,1/2+z
1/2+y,1/2+x,1/2+z
loop_
_atom_site_type_symbol
_atom_site_label
_atom_site_fract_x
_atom_site_fract_y
_atom_site_fract_z
Si Si1 0.875806 0.800124 0.611957
Si Si2 0.871656 0.608098 0.894497
Si Si3 0.158106 0.447788 0.278427
Si Si4 0.945141 0.770586 0.766085
Si Si5 0.788987 0.316266 0.891397
Si Si6 0.351232 0.727117 0.612304
O O1 0.883097 0.793069 0.500000
O O2 0.850487 0.850487 0.626138
O O3 0.923334 0.792685 0.671055
O O4 0.837403 0.760329 0.645097
O O5 0.867713 0.567774 0.816933
O O6 0.911803 0.644051 0.859884
O O7 0.823856 0.638894 0.889865
O O8 0.878957 0.591438 0.000000
O O9 0.144093 0.500000 0.307124
O O10 0.213737 0.446417 0.257908
O O11 0.902917 0.778628 0.841705
O O12 0.000000 0.785487 0.785644
O O13 0.819167 0.272018 0.851941
O O14 0.779162 0.302746 0.000000
O O15 0.357279 0.734343 0.500000
O O16 0.319283 0.680718 0.627521
#
# Coordination Sequence:
#
# PCOD9571489 Si02
#       6
#    32  32  32  32  32  32
#     4  10  20  34  52  75 104 138 173 207 246 294
#     4  10  19  34  53  71 100 132 167 211 254 303
#     4  10  21  34  50  74 100 129 169 212 255 305
#     4  11  22  34  48  71 104 140 174 205 244 291
#     4   9  16  29  48  74 103 133 167 201 238 286
#     4  10  20  34  52  75 104 138 173 207 246 294
#
# _framework density 16.907473
#
# number of rings (size 3 to 8) (size 9 to 14) (size 15 to 20)
#    0.000    2.000    3.333    1.000    0.000    4.000 
#    0.000    5.000    0.000    4.000    0.000    4.667 
#    0.000    5.333    0.000   14.667    0.000    0.000 
#
# Total GULP energy -535074.863739 kJ/mol
# GULP energy per Si atom -5573.696497 kJ/mol
# Density = 1.686899 g / cm^3
# Si number density = 16.907473 Si / 1000 Ang^3
#
#
#
# Elastic Constant Matrix: (Units=GPa)
#
#
# Indices 1 2 3 4 5 6 
#
# 1 49.4207 32.5693 2.8936 0.0000 0.0000 0.0000
# 2 32.5693 49.4207 2.8936 0.0000 0.0000 0.0000
# 3 2.8936 2.8936 34.3491 0.0000 0.0000 0.0000
# 4 0.0000 0.0000 0.0000 10.3884 0.0000 0.0000
# 5 0.0000 0.0000 0.0000 0.0000 10.3884 0.0000
# 6 0.0000 0.0000 0.0000 0.0000 0.0000 14.3899
#
#
#
# Elastic Compliance Matrix: (Units=1/GPa)
#
#
# Indices 1 2 3 4 5 6 
#
# 1 0.035806 -0.023536 -0.001034 0.000000 0.000000 0.000000
# 2 -0.023536 0.035806 -0.001034 0.000000 0.000000 0.000000
# 3 -0.001034 -0.001034 0.029287 0.000000 0.000000 0.000000
# 4 0.000000 0.000000 0.000000 0.096261 0.000000 0.000000
# 5 0.000000 0.000000 0.000000 0.000000 0.096261 0.000000
# 6 0.000000 0.000000 0.000000 0.000000 0.000000 0.069493
#
#
# Mechanical properties :
#
#
# Convention : Reuss Voigt Hill
#
# Bulk Modulus (GPa) = 20.12411 23.32265 21.72338
# Shear Modulus (GPa) = 11.60941 13.35561 12.48251
#
# Velocity S-wave (km/s) = 2.62323 2.81361 2.72009
# Velocity P-wave (km/s) = 4.59385 4.93755 4.76880
#
# Compressibility (1/GPa) = 0.04969163
#
# Stress axis : x y z
#
# Youngs Moduli (GPa) = 27.92838 27.92838 34.14486
#
# Poissons Ratio (x) = 0.65733 0.03529
# Poissons Ratio (y) = 0.65733 0.03529
# Poissons Ratio (z) = 0.02887 0.02887
#
# Static dielectric constant tensor:
#      x y z
#    x 1.563530 0.000000 0.000000 
#    y 0.000000 1.563530 0.000000 
#    z 0.000000 0.000000 1.623600 
# 
# From -- ./inp_files/6687.got.cif
#   From: 2010.05.17/outbox.cif.g08.bks.cpg/sg139_4_cif.got.tgz:6687.got - 2010.05.20 13:14:44.
