data_PCOD9571993
_publ_section_title
;
Structure prediction by ZEFSAII (Michael W. Deem and Ramdas Pophale) SiO2 
 PCOD9571993
Probable space group: I 4/M C M
;
_chemical_formula_sum "Si O2"
_cell_formula_units_Z 144
_cell_length_a 21.222462
_cell_length_b 21.222462
_cell_length_c 19.479133
_cell_angle_alpha 90.000000
_cell_angle_beta 90.000000
_cell_angle_gamma 90.000000
_cell_volume 8773.263072
_symmetry_space_group_name_H-M "I 4/M C M"
_symmetry_group_IT_number 140
_symmetry_cell_setting 'tetragonal'
loop_
_space_group_symop_operation_xyz
x,y,z
-y,x,z
-x,-y,z
y,-x,z
x,-y,1/2-z
-x,y,1/2-z
y,x,1/2-z
-y,-x,1/2-z
-x,-y,-z
y,-x,-z
x,y,-z
-y,x,-z
-x,y,1/2+z
x,-y,1/2+z
-y,-x,1/2+z
y,x,1/2+z
1/2+x,1/2+y,1/2+z
1/2-y,1/2+x,1/2+z
1/2-x,1/2-y,1/2+z
1/2+y,1/2-x,1/2+z
1/2+x,1/2-y,-z
1/2-x,1/2+y,-z
1/2+y,1/2+x,-z
1/2-y,1/2-x,-z
1/2-x,1/2-y,1/2-z
1/2+y,1/2-x,1/2-z
1/2+x,1/2+y,1/2-z
1/2-y,1/2+x,1/2-z
1/2-x,1/2+y,z
1/2+x,1/2-y,z
1/2-y,1/2-x,z
1/2+y,1/2+x,z
loop_
_atom_site_type_symbol
_atom_site_label
_atom_site_fract_x
_atom_site_fract_y
_atom_site_fract_z
Si Si1 0.213562 0.111955 0.923918
Si Si2 0.301671 0.198330 0.278282
Si Si3 0.921966 0.062645 0.598456
Si Si4 0.098709 0.901292 0.750000
Si Si5 0.256523 0.569939 0.225243
Si Si6 0.739784 0.760217 0.421527
O O1 0.138211 0.102368 0.923175
O O2 0.239190 0.074534 0.857819
O O3 0.227995 0.185567 0.913328
O O4 0.237104 0.093476 0.000000
O O5 0.250000 0.250000 0.250000
O O6 0.371253 0.215956 0.252183
O O7 0.295823 0.204178 0.360581
O O8 0.923076 0.066008 0.680888
O O9 0.990390 0.085919 0.576172
O O10 0.173110 0.915440 0.753743
O O11 0.238180 0.500000 0.250000
O O12 0.722445 0.777556 0.500000
#
# Coordination Sequence:
#
# PCOD9571993 Si02
#       6
#    32  16  32  16  32  16
#     4  10  20  34  49  70 101 134 173 223 267 312
#     4  12  18  38  60  79 108 145 178 228 277 314
#     4  10  19  29  42  62  93 135 172 203 248 308
#     4  10  16  28  46  70  98 126 170 220 260 300
#     4  11  21  33  55  83 103 136 185 222 266 328
#     4  10  20  34  56  82 102 138 186 229 278 327
#
# _framework density 16.413504
#
# number of rings (size 3 to 8) (size 9 to 14) (size 15 to 20)
#    0.000    1.556    3.333    4.667    0.000    1.778 
#    0.000    4.444    0.000    0.333    0.000    0.000 
#    0.000    0.000    0.000    7.222    0.000    0.000 
#
# Total GULP energy -401670.614163 kJ/mol
# GULP energy per Si atom -5578.758530 kJ/mol
# Density = 1.637615 g / cm^3
# Si number density = 16.413504 Si / 1000 Ang^3
#
#
#
# Elastic Constant Matrix: (Units=GPa)
#
#
# Indices 1 2 3 4 5 6 
#
# 1 101.5066 66.4343 35.5422 0.0000 0.0000 0.0000
# 2 66.4343 101.5058 35.5423 0.0000 0.0000 0.0000
# 3 35.5422 35.5423 159.6206 0.0000 0.0000 0.0000
# 4 0.0000 0.0000 0.0000 193.0719 0.0000 0.0000
# 5 0.0000 0.0000 0.0000 0.0000 193.0444 0.0000
# 6 0.0000 0.0000 0.0000 0.0000 0.0000 25.4190
#
#
#
# Elastic Compliance Matrix: (Units=1/GPa)
#
#
# Indices 1 2 3 4 5 6 
#
# 1 0.017543 -0.010969 -0.001464 0.000000 0.000000 0.000000
# 2 -0.010969 0.017544 -0.001464 0.000000 0.000000 0.000000
# 3 -0.001464 -0.001464 0.006917 0.000000 0.000000 0.000000
# 4 0.000000 0.000000 0.000000 0.005179 0.000000 0.000000
# 5 0.000000 0.000000 0.000000 0.000000 0.005180 0.000000
# 6 0.000000 0.000000 0.000000 0.000000 0.000000 0.039341
#
#
# Mechanical properties :
#
#
# Convention : Reuss Voigt Hill
#
# Bulk Modulus (GPa) = 70.37496 70.85228 70.61362
# Shear Modulus (GPa) = 40.24643 97.31467 68.78055
#
# Velocity S-wave (km/s) = 4.95717 7.70831 6.48042
# Velocity P-wave (km/s) = 8.70253 11.06729 9.95538
#
# Compressibility (1/GPa) = 0.01420960
#
# Stress axis : x y z
#
# Youngs Moduli (GPa) = 57.00147 57.00096 144.57656
#
# Poissons Ratio (x) = 0.62527 0.21163
# Poissons Ratio (y) = 0.62527 0.21164
# Poissons Ratio (z) = 0.08344 0.08344
#
# Static dielectric constant tensor:
#      x y z
#    x 1.538940 0.000000 0.000000 
#    y 0.000000 1.538940 0.000000 
#    z 0.000000 0.000000 1.622630 
# 
# From -- ./inp_files/6695.got.cif
#   From: 2010.05.17/outbox.cif.g08.bks.cpg/sg140_4_cif.got.tgz:6695.got - 2010.06.21 00:45:31.
