data_PCOD9571068
_publ_section_title
;
Structure prediction by ZEFSAII (Michael W. Deem and Ramdas Pophale) SiO2 
 PCOD9571068
Probable space group: P 42/N C M
;
_chemical_formula_sum "Si O2"
_cell_formula_units_Z 40
_cell_length_a 14.180230
_cell_length_b 14.180230
_cell_length_c 7.806289
_cell_angle_alpha 90.000000
_cell_angle_beta 90.000000
_cell_angle_gamma 90.000000
_cell_volume 1569.680184
_symmetry_space_group_name_H-M "P 42/N C M"
_symmetry_group_IT_number 138
_space_group.IT_coordinate_system_code '2'
_symmetry_cell_setting 'tetragonal'
loop_
_space_group_symop_operation_xyz
x,y,z
1/2-y,x,1/2+z
1/2-x,1/2-y,z
y,1/2-x,1/2+z
1/2+x,-y,1/2-z
-x,1/2+y,1/2-z
1/2+y,1/2+x,-z
-y,-x,-z
-x,-y,-z
1/2+y,-x,1/2-z
1/2+x,1/2+y,-z
-y,1/2+x,1/2-z
1/2-x,y,1/2+z
x,1/2-y,1/2+z
1/2-y,1/2-x,z
y,x,z
loop_
_atom_site_type_symbol
_atom_site_label
_atom_site_fract_x
_atom_site_fract_y
_atom_site_fract_z
Si Si1 0.032374 0.467627 0.705347
Si Si2 0.858974 0.858974 0.501084
Si Si3 0.637347 0.146057 0.201941
Si Si4 0.359438 0.359438 0.906300
O O1 0.064281 0.576036 0.710377
O O2 0.081611 0.418390 0.543899
O O3 0.076477 0.423524 0.879700
O O4 0.878297 0.750508 0.550475
O O5 0.871044 0.871044 0.297958
O O6 0.621654 0.255929 0.241810
O O7 0.632715 0.132715 0.000000
#
# Coordination Sequence:
#
# PCOD9571068 Si02
#       4
#     8   8  16   8
#     4  12  27  47  85 117 152 213 280 329 390 504
#     4  11  21  40  66 113 164 213 250 336 409 467
#     4  11  27  55  81 115 164 214 264 336 410 480
#     4  11  21  40  68 112 169 208 258 329 415 463
#
# _framework density 25.482897000000001
#
# number of rings (size 3 to 8) (size 9 to 14) (size 15 to 20)
#    0.000    0.800    4.000    4.200    5.600    0.000 
#    7.200    8.000    0.000    0.000    0.000    0.000 
#    0.000    0.000    0.000    0.000    0.000    0.000 
#
# Total GULP energy -224829.759116 kJ/mol
# GULP energy per Si atom -5620.743978 kJ/mol
# Density = 2.542490 g / cm^3
# Si number density = 25.482897 Si / 1000 Ang^3
#
#
#
# Elastic Constant Matrix: (Units=GPa)
#
#
# Indices 1 2 3 4 5 6 
#
# 1 119.4626 109.0885 54.2142 0.0000 0.0000 0.0000
# 2 109.0885 119.4626 54.2142 0.0000 0.0000 0.0000
# 3 54.2142 54.2142 242.4082 0.0000 0.0000 0.0000
# 4 0.0000 0.0000 0.0000 41.2513 0.0000 0.0000
# 5 0.0000 0.0000 0.0000 0.0000 41.2513 0.0000
# 6 0.0000 0.0000 0.0000 0.0000 0.0000 35.2255
#
#
#
# Elastic Compliance Matrix: (Units=1/GPa)
#
#
# Indices 1 2 3 4 5 6 
#
# 1 0.050644 -0.045750 -0.001095 0.000000 0.000000 0.000000
# 2 -0.045750 0.050644 -0.001095 0.000000 0.000000 0.000000
# 3 -0.001095 -0.001095 0.004615 0.000000 0.000000 0.000000
# 4 0.000000 0.000000 0.000000 0.024242 0.000000 0.000000
# 5 0.000000 0.000000 0.000000 0.000000 0.024242 0.000000
# 6 0.000000 0.000000 0.000000 0.000000 0.000000 0.028389
#
#
# Mechanical properties :
#
#
# Convention : Reuss Voigt Hill
#
# Bulk Modulus (GPa) = 99.74470 101.81860 100.78165
# Shear Modulus (GPa) = 17.73081 41.13338 29.43209
#
# Velocity S-wave (km/s) = 2.64065 4.02202 3.40218
# Velocity P-wave (km/s) = 6.96593 7.84928 7.42076
#
# Compressibility (1/GPa) = 0.01002560
#
# Stress axis : x y z
#
# Youngs Moduli (GPa) = 19.74557 19.74557 216.68807
#
# Poissons Ratio (x) = 0.90335 0.23721
# Poissons Ratio (y) = 0.90335 0.23721
# Poissons Ratio (z) = 0.02162 0.02162
#
# Static dielectric constant tensor:
#      x y z
#    x 2.014010 0.000000 0.000000 
#    y 0.000000 2.014010 0.000000 
#    z 0.000000 0.000000 1.931330 
# 
# From -- ./inp_files/889.got.cif
#   From: 2010.05.17/outbox.cif.g08.bks.cpg/sg138_1_cif.got.tgz:889.got - 2010.05.20 13:08:53.
