data_PCOD9571410
_publ_section_title
;
Structure prediction by ZEFSAII (Michael W. Deem and Ramdas Pophale) SiO2 
 PCOD9571410
Probable space group: I 4/M M M
;
_chemical_formula_sum "Si O2"
_cell_formula_units_Z 192
_cell_length_a 20.821383
_cell_length_b 20.821383
_cell_length_c 26.573183
_cell_angle_alpha 90.000000
_cell_angle_beta 90.000000
_cell_angle_gamma 90.000000
_cell_volume 11520.271761
_symmetry_space_group_name_H-M "I 4/M M M"
_symmetry_group_IT_number 139
_symmetry_cell_setting 'tetragonal'
loop_
_space_group_symop_operation_xyz
x,y,z
-y,x,z
-x,-y,z
y,-x,z
x,-y,-z
-x,y,-z
y,x,-z
-y,-x,-z
-x,-y,-z
y,-x,-z
x,y,-z
-y,x,-z
-x,y,z
x,-y,z
-y,-x,z
y,x,z
1/2+x,1/2+y,1/2+z
1/2-y,1/2+x,1/2+z
1/2-x,1/2-y,1/2+z
1/2+y,1/2-x,1/2+z
1/2+x,1/2-y,1/2-z
1/2-x,1/2+y,1/2-z
1/2+y,1/2+x,1/2-z
1/2-y,1/2-x,1/2-z
1/2-x,1/2-y,1/2-z
1/2+y,1/2-x,1/2-z
1/2+x,1/2+y,1/2-z
1/2-y,1/2+x,1/2-z
1/2-x,1/2+y,1/2+z
1/2+x,1/2-y,1/2+z
1/2-y,1/2-x,1/2+z
1/2+y,1/2+x,1/2+z
loop_
_atom_site_type_symbol
_atom_site_label
_atom_site_fract_x
_atom_site_fract_y
_atom_site_fract_z
Si Si1 0.424051 0.793423 0.095125
Si Si2 0.577687 0.929846 0.940629
Si Si3 0.425653 0.314923 0.602462
Si Si4 0.626368 0.735706 0.500000
Si Si5 0.746243 0.144508 0.691874
Si Si6 0.861385 0.752078 0.195673
Si Si7 0.341857 0.234387 0.000000
O O1 0.500000 0.790552 0.086457
O O2 0.403715 0.868813 0.092405
O O3 0.404785 0.759655 0.146631
O O4 0.385642 0.763000 0.049076
O O5 0.500000 0.932657 0.938235
O O6 0.603053 0.000000 0.925454
O O7 0.592413 0.920151 0.000000
O O8 0.500000 0.335395 0.604378
O O9 0.375589 0.375589 0.602588
O O10 0.413175 0.274863 0.551140
O O11 0.408446 0.270044 0.650368
O O12 0.678436 0.678436 0.500000
O O13 0.669112 0.799605 0.500000
O O14 0.806769 0.193232 0.686866
O O15 0.748192 0.113005 0.747250
O O16 0.682729 0.189387 0.687907
O O17 0.810003 0.810003 0.196388
O O18 0.291523 0.291523 0.000000
#
# Coordination Sequence:
#
# PCOD9571410 Si02
#       7
#    32  32  32  16  32  32  16
#     4  11  20  30  47  74 102 126 158 202 244 288
#     4   8  14  27  44  59  84 124 159 186 223 271
#     4  10  19  32  50  73 104 135 164 199 239 287
#     4   9  19  34  51  70  91 123 164 204 242 279
#     4   9  17  32  52  72  95 125 162 203 254 300
#     4   8  16  32  53  71  91 126 166 204 244 289
#     4  11  21  34  50  66  93 129 161 198 250 297
#
# _framework density 16.666273
#
# number of rings (size 3 to 8) (size 9 to 14) (size 15 to 20)
#    0.000    2.667    0.833    3.500    0.000    3.500 
#    0.000    4.167    0.000    2.500    0.000    0.000 
#    0.000   13.667    0.000    0.000    0.000    0.000 
#
# Total GULP energy -534780.615412 kJ/mol
# GULP energy per Si atom -5570.631411 kJ/mol
# Density = 1.662834 g / cm^3
# Si number density = 16.666273 Si / 1000 Ang^3
#
#
#
# Elastic Constant Matrix: (Units=GPa)
#
#
# Indices 1 2 3 4 5 6 
#
# 1 69.6296 27.6096 48.9645 0.0000 0.0000 0.0000
# 2 27.6096 69.6296 48.9645 0.0000 0.0000 0.0000
# 3 48.9645 48.9645 127.9766 0.0000 0.0000 0.0000
# 4 0.0000 0.0000 0.0000 -18.2240 0.0000 0.0000
# 5 0.0000 0.0000 0.0000 0.0000 -18.2240 0.0000
# 6 0.0000 0.0000 0.0000 0.0000 0.0000 18.3037
#
#
#
# Elastic Compliance Matrix: (Units=1/GPa)
#
#
# Indices 1 2 3 4 5 6 
#
# 1 0.020264 -0.003534 -0.006401 0.000000 0.000000 0.000000
# 2 -0.003534 0.020264 -0.006401 0.000000 0.000000 0.000000
# 3 -0.006401 -0.006401 0.012712 0.000000 0.000000 0.000000
# 4 0.000000 0.000000 0.000000 -0.054873 0.000000 0.000000
# 5 0.000000 0.000000 0.000000 0.000000 -0.054873 0.000000
# 6 0.000000 0.000000 0.000000 0.000000 0.000000 0.054634
#
#
# Mechanical properties :
#
#
# Convention : Reuss Voigt Hill
#
# Bulk Modulus (GPa) = 48.61810 57.59034 53.10422
# Shear Modulus (GPa) = 132.77423 5.81761 69.29592
#
# Velocity S-wave (km/s) = 8.93529 1.87035 6.45514
# Velocity P-wave (km/s) = 11.64849 6.26852 9.35365
#
# Compressibility (1/GPa) = 0.02056847
#
# Stress axis : x y z
#
# Youngs Moduli (GPa) = 49.34775 49.34775 78.66471
#
# Poissons Ratio (x) = 0.17439 0.50355
# Poissons Ratio (y) = 0.17439 0.50355
# Poissons Ratio (z) = 0.31588 0.31588
#
# Static dielectric constant tensor:
#      x y z
#    x 1.562340 0.000000 0.000000 
#    y 0.000000 1.562340 0.000000 
#    z 0.000000 0.000000 1.572200 
# 
# From -- ./inp_files/13319.got.cif
#   From: 2010.05.17/outbox.cif.g08.bks.cpg/sg139_7_cif.got.tgz:13319.got - 2010.05.20 13:14:44.
