data_PCOD9571540
_publ_section_title
;
Structure prediction by ZEFSAII (Michael W. Deem and Ramdas Pophale) SiO2 
 PCOD9571540
Probable space group: I 4/M M M
;
_chemical_formula_sum "Si O2"
_cell_formula_units_Z 144
_cell_length_a 30.397977
_cell_length_b 30.397977
_cell_length_c 7.393466
_cell_angle_alpha 90.000000
_cell_angle_beta 90.000000
_cell_angle_gamma 90.000000
_cell_volume 6831.836184
_symmetry_space_group_name_H-M "I 4/M M M"
_symmetry_group_IT_number 139
_symmetry_cell_setting 'tetragonal'
loop_
_space_group_symop_operation_xyz
x,y,z
-y,x,z
-x,-y,z
y,-x,z
x,-y,-z
-x,y,-z
y,x,-z
-y,-x,-z
-x,-y,-z
y,-x,-z
x,y,-z
-y,x,-z
-x,y,z
x,-y,z
-y,-x,z
y,x,z
1/2+x,1/2+y,1/2+z
1/2-y,1/2+x,1/2+z
1/2-x,1/2-y,1/2+z
1/2+y,1/2-x,1/2+z
1/2+x,1/2-y,1/2-z
1/2-x,1/2+y,1/2-z
1/2+y,1/2+x,1/2-z
1/2-y,1/2-x,1/2-z
1/2-x,1/2-y,1/2-z
1/2+y,1/2-x,1/2-z
1/2+x,1/2+y,1/2-z
1/2-y,1/2+x,1/2-z
1/2-x,1/2+y,1/2+z
1/2+x,1/2-y,1/2+z
1/2-y,1/2-x,1/2+z
1/2+y,1/2+x,1/2+z
loop_
_atom_site_type_symbol
_atom_site_label
_atom_site_fract_x
_atom_site_fract_y
_atom_site_fract_z
Si Si1 0.449481 0.783281 0.779842
Si Si2 0.378706 0.448582 0.220120
Si Si3 0.212283 0.787718 0.283987
Si Si4 0.111558 0.795087 0.720825
Si Si5 0.048946 0.620667 0.284478
O O1 0.500000 0.777032 0.726935
O O2 0.419089 0.744474 0.718061
O O3 0.435438 0.831730 0.718828
O O4 0.448393 0.782050 0.000000
O O5 0.374051 0.500000 0.278704
O O6 0.424579 0.424579 0.270500
O O7 0.339721 0.414384 0.276033
O O8 0.376944 0.449813 0.000000
O O9 0.211188 0.788813 0.500000
O O10 0.250000 0.750000 0.250000
O O11 0.217760 0.838743 0.222320
O O12 0.113122 0.797555 0.500000
O O13 0.045366 0.624748 0.500000
O O14 0.082126 0.582126 0.250000
O O15 0.000000 0.611964 0.213563
#
# Coordination Sequence:
#
# PCOD9571540 Si02
#       5
#    32  32  16  32  32
#     4   8  14  25  42  62  82 108 145 185 220 257
#     4   9  15  22  34  55  86 125 164 196 230 276
#     4  10  20  32  46  66  93 121 153 191 230 274
#     4   9  15  26  42  60  85 118 153 189 228 273
#     4   9  18  31  45  63  86 110 141 181 222 267
#
# _framework density 21.07779
#
# number of rings (size 3 to 8) (size 9 to 14) (size 15 to 20)
#    0.000    3.111    1.111    2.000    0.000    4.444 
#    0.000    2.222    0.000    0.000    0.000    0.000 
#    0.000    2.667    0.000    0.000    0.000    1.333 
#
# Total GULP energy -400963.808167 kJ/mol
# GULP energy per Si atom -5568.941780 kJ/mol
# Density = 2.102982 g / cm^3
# Si number density = 21.077790 Si / 1000 Ang^3
#
#
#
# Elastic Constant Matrix: (Units=GPa)
#
#
# Indices 1 2 3 4 5 6 
#
# 1 138.5462 137.4821 2.7092 0.0000 0.0000 0.0000
# 2 137.4821 138.5463 2.7092 0.0000 0.0000 0.0000
# 3 2.7092 2.7092 67.8419 0.0000 0.0000 0.0000
# 4 0.0000 0.0000 0.0000 -910.1057 0.0000 0.0000
# 5 0.0000 0.0000 0.0000 0.0000 -909.8044 0.0000
# 6 0.0000 0.0000 0.0000 0.0000 0.0000 46.2876
#
#
#
# Elastic Compliance Matrix: (Units=1/GPa)
#
#
# Indices 1 2 3 4 5 6 
#
# 1 0.471667 -0.468041 -0.000145 0.000000 0.000000 0.000000
# 2 -0.468041 0.471666 -0.000145 0.000000 0.000000 0.000000
# 3 -0.000145 -0.000145 0.014752 0.000000 0.000000 0.000000
# 4 0.000000 0.000000 0.000000 -0.001099 0.000000 0.000000
# 5 0.000000 0.000000 0.000000 0.000000 -0.001099 0.000000
# 6 0.000000 0.000000 0.000000 0.000000 0.000000 0.021604
#
#
# Mechanical properties :
#
#
# Convention : Reuss Voigt Hill
#
# Bulk Modulus (GPa) = 46.67688 70.08170 58.37929
# Shear Modulus (GPa) = 2.60241 -341.25556 -169.32658
#
# Velocity S-wave (km/s) = 1.11236 -12.73791 -8.97265
# Velocity P-wave (km/s) = 4.88292 13.52841 8.92118
#
# Compressibility (1/GPa) = 0.02142388
#
# Stress axis : x y z
#
# Youngs Moduli (GPa) = 2.12014 2.12014 67.78875
#
# Poissons Ratio (x) = 0.99231 0.00981
# Poissons Ratio (y) = 0.99231 0.00982
# Poissons Ratio (z) = 0.00031 0.00031
#
# Static dielectric constant tensor:
#      x y z
#    x 1.765870 0.000000 0.000000 
#    y 0.000000 1.765870 0.000000 
#    z 0.000000 0.000000 1.826730 
# 
# From -- ./inp_files/2028.got.cif
#   From: 2010.05.17/outbox.cif.g08.bks.cpg/sg139_2_cif.got.tgz:2028.got - 2010.05.20 13:14:44.
