data_PCOD9571227
_publ_section_title
;
Structure prediction by ZEFSAII (Michael W. Deem and Ramdas Pophale) SiO2 
 PCOD9571227
Probable space group: I 4/M M M
;
_chemical_formula_sum "Si O2"
_cell_formula_units_Z 240
_cell_length_a 26.945716
_cell_length_b 26.945716
_cell_length_c 19.923809
_cell_angle_alpha 90.000000
_cell_angle_beta 90.000000
_cell_angle_gamma 90.000000
_cell_volume 14466.112093
_symmetry_space_group_name_H-M "I 4/M M M"
_symmetry_group_IT_number 139
_symmetry_cell_setting 'tetragonal'
loop_
_space_group_symop_operation_xyz
x,y,z
-y,x,z
-x,-y,z
y,-x,z
x,-y,-z
-x,y,-z
y,x,-z
-y,-x,-z
-x,-y,-z
y,-x,-z
x,y,-z
-y,x,-z
-x,y,z
x,-y,z
-y,-x,z
y,x,z
1/2+x,1/2+y,1/2+z
1/2-y,1/2+x,1/2+z
1/2-x,1/2-y,1/2+z
1/2+y,1/2-x,1/2+z
1/2+x,1/2-y,1/2-z
1/2-x,1/2+y,1/2-z
1/2+y,1/2+x,1/2-z
1/2-y,1/2-x,1/2-z
1/2-x,1/2-y,1/2-z
1/2+y,1/2-x,1/2-z
1/2+x,1/2+y,1/2-z
1/2-y,1/2+x,1/2-z
1/2-x,1/2+y,1/2+z
1/2+x,1/2-y,1/2+z
1/2-y,1/2-x,1/2+z
1/2+y,1/2+x,1/2+z
loop_
_atom_site_type_symbol
_atom_site_label
_atom_site_fract_x
_atom_site_fract_y
_atom_site_fract_z
Si Si1 0.387514 0.307317 0.827954
Si Si2 0.264638 0.940847 0.577148
Si Si3 0.140971 0.941008 0.796375
Si Si4 0.626292 0.089224 0.418984
Si Si5 0.942004 0.211651 0.921466
Si Si6 0.304184 0.777660 0.819857
Si Si7 0.301348 0.132353 0.920242
Si Si8 0.056963 0.500000 0.917835
O O1 0.355132 0.355132 0.850301
O O2 0.424630 0.283309 0.881360
O O3 0.416282 0.323893 0.760713
O O4 0.347675 0.262991 0.818819
O O5 0.259313 0.923727 0.500000
O O6 0.317033 0.919530 0.604589
O O7 0.269869 0.000000 0.577372
O O8 0.089742 0.910259 0.794892
O O9 0.167522 0.934294 0.868567
O O10 0.134973 0.000000 0.784583
O O11 0.629135 0.083635 0.500000
O O12 0.609087 0.144869 0.404680
O O13 0.587996 0.047921 0.395269
O O14 0.904519 0.256331 0.904236
O O15 0.000000 0.227200 0.915685
O O16 0.933901 0.197945 0.000000
O O17 0.253243 0.746758 0.821835
O O18 0.306785 0.806785 0.750000
O O19 0.301662 0.816190 0.880415
O O20 0.299479 0.142011 0.000000
O O21 0.000000 0.500000 0.895903
O O22 0.056421 0.500000 0.000000
#
# Coordination Sequence:
#
# PCOD9571227 Si02
#       8
#    32  32  32  32  32  32  32  16
#     4  10  20  33  50  73 102 135 168 208 255 301
#     4  10  18  30  49  70  98 136 175 215 259 304
#     4  10  21  38  59  82 107 133 166 210 257 312
#     4   9  16  27  42  65  96 129 169 215 257 303
#     4   9  19  35  54  76 103 138 174 209 256 312
#     4  10  20  32  46  68 100 134 166 202 245 292
#     4  10  19  31  49  72 101 136 174 215 254 297
#     4   9  16  26  42  66  98 132 166 214 272 314
#
# _framework density 16.590498
#
# number of rings (size 3 to 8) (size 9 to 14) (size 15 to 20)
#    0.000    2.333    2.000    1.200    0.000    3.067 
#    0.000    5.333    0.000    0.000    0.000    1.867 
#    0.000    0.000    0.000   12.400    0.000    0.133 
#
# Total GULP energy -668297.491891 kJ/mol
# GULP energy per Si atom -5569.145766 kJ/mol
# Density = 1.655274 g / cm^3
# Si number density = 16.590498 Si / 1000 Ang^3
#
#
#
# Elastic Constant Matrix: (Units=GPa)
#
#
# Indices 1 2 3 4 5 6 
#
# 1 85.2034 45.2844 33.7832 0.0000 0.0000 0.0000
# 2 45.2844 85.2034 33.7832 0.0000 0.0000 0.0000
# 3 33.7832 33.7832 41.9503 0.0000 0.0000 0.0000
# 4 0.0000 0.0000 0.0000 21.0943 0.0000 0.0000
# 5 0.0000 0.0000 0.0000 0.0000 21.0943 0.0000
# 6 0.0000 0.0000 0.0000 0.0000 0.0000 29.3502
#
#
#
# Elastic Compliance Matrix: (Units=1/GPa)
#
#
# Indices 1 2 3 4 5 6 
#
# 1 0.019098 -0.005953 -0.010586 0.000000 0.000000 0.000000
# 2 -0.005953 0.019098 -0.010586 0.000000 0.000000 0.000000
# 3 -0.010586 -0.010586 0.040887 0.000000 0.000000 0.000000
# 4 0.000000 0.000000 0.000000 0.047406 0.000000 0.000000
# 5 0.000000 0.000000 0.000000 0.000000 0.047406 0.000000
# 6 0.000000 0.000000 0.000000 0.000000 0.000000 0.034071
#
#
# Mechanical properties :
#
#
# Convention : Reuss Voigt Hill
#
# Bulk Modulus (GPa) = 40.26714 48.67322 44.47018
# Shear Modulus (GPa) = 18.48474 20.94152 19.71313
#
# Velocity S-wave (km/s) = 3.34155 3.55668 3.45079
# Velocity P-wave (km/s) = 6.26193 6.80209 6.53759
#
# Compressibility (1/GPa) = 0.02483415
#
# Stress axis : x y z
#
# Youngs Moduli (GPa) = 52.36206 52.36206 24.45742
#
# Poissons Ratio (x) = 0.31171 0.25890
# Poissons Ratio (y) = 0.31171 0.25890
# Poissons Ratio (z) = 0.55429 0.55429
#
# Static dielectric constant tensor:
#      x y z
#    x 1.559920 0.000000 0.000000 
#    y 0.000000 1.559920 0.000000 
#    z 0.000000 0.000000 1.559720 
# 
# From -- ./inp_files/9092.got.cif
#   From: 2010.05.17/outbox.cif.g08.bks.cpg/sg139_5_cif.got.tgz:9092.got - 2010.05.20 13:14:44.
