data_PCOD9571815
_publ_section_title
;
Structure prediction by ZEFSAII (Michael W. Deem and Ramdas Pophale) SiO2 
 PCOD9571815
Probable space group: I 4/M M M
;
_chemical_formula_sum "Si O2"
_cell_formula_units_Z 160
_cell_length_a 20.006853
_cell_length_b 20.006853
_cell_length_c 19.322883
_cell_angle_alpha 90.000000
_cell_angle_beta 90.000000
_cell_angle_gamma 90.000000
_cell_volume 7734.450896
_symmetry_space_group_name_H-M "I 4/M M M"
_symmetry_group_IT_number 139
_symmetry_cell_setting 'tetragonal'
loop_
_space_group_symop_operation_xyz
x,y,z
-y,x,z
-x,-y,z
y,-x,z
x,-y,-z
-x,y,-z
y,x,-z
-y,-x,-z
-x,-y,-z
y,-x,-z
x,y,-z
-y,x,-z
-x,y,z
x,-y,z
-y,-x,z
y,x,z
1/2+x,1/2+y,1/2+z
1/2-y,1/2+x,1/2+z
1/2-x,1/2-y,1/2+z
1/2+y,1/2-x,1/2+z
1/2+x,1/2-y,1/2-z
1/2-x,1/2+y,1/2-z
1/2+y,1/2+x,1/2-z
1/2-y,1/2-x,1/2-z
1/2-x,1/2-y,1/2-z
1/2+y,1/2-x,1/2-z
1/2+x,1/2+y,1/2-z
1/2-y,1/2+x,1/2-z
1/2-x,1/2+y,1/2+z
1/2+x,1/2-y,1/2+z
1/2-y,1/2-x,1/2+z
1/2+y,1/2+x,1/2+z
loop_
_atom_site_type_symbol
_atom_site_label
_atom_site_fract_x
_atom_site_fract_y
_atom_site_fract_z
Si Si1 0.259948 0.847911 0.797821
Si Si2 0.418493 0.196925 0.077982
Si Si3 0.072425 0.420977 0.167417
Si Si4 0.920764 0.184238 0.674600
Si Si5 0.193023 0.920406 0.917923
O O1 0.220237 0.779764 0.814571
O O2 0.321694 0.821694 0.750000
O O3 0.217681 0.892736 0.744019
O O4 0.251508 0.891240 0.868140
O O5 0.500000 0.196415 0.077696
O O6 0.395658 0.135144 0.124831
O O7 0.398671 0.265964 0.113375
O O8 0.394919 0.190373 0.000000
O O9 0.068759 0.500000 0.151036
O O10 0.081251 0.418750 0.250000
O O11 0.000000 0.390467 0.150678
O O12 0.886868 0.113133 0.665669
O O13 0.000000 0.181272 0.676598
O O14 0.126799 0.873202 0.905055
O O15 0.181754 0.000000 0.904072
O O16 0.208606 0.913925 0.000000
#
# Coordination Sequence:
#
# PCOD9571815 Si02
#       5
#    32  32  32  32  32
#     4   9  18  34  55  79 110 152 202 250 296 348
#     4   9  18  32  50  75 107 141 180 229 286 349
#     4   8  14  26  47  77 111 146 184 224 271 335
#     4  10  21  37  58  84 114 150 195 249 308 370
#     4   9  17  30  52  86 128 169 205 243 292 358
#
# _framework density 20.686665999999999
#
# number of rings (size 3 to 8) (size 9 to 14) (size 15 to 20)
#    0.000    3.000    0.000    1.200    0.000    2.000 
#    0.000    4.000    0.000    8.400    0.000    2.800 
#    0.000    3.600    0.000    6.600    0.000    0.600 
#
# Total GULP energy -445748.466205 kJ/mol
# GULP energy per Si atom -5571.855828 kJ/mol
# Density = 2.063958 g / cm^3
# Si number density = 20.686666 Si / 1000 Ang^3
#
#
#
# Elastic Constant Matrix: (Units=GPa)
#
#
# Indices 1 2 3 4 5 6 
#
# 1 107.1538 40.1840 35.2748 0.0000 0.0000 0.0000
# 2 40.1840 107.1537 35.2752 0.0000 0.0000 0.0000
# 3 35.2748 35.2752 112.9001 0.0000 0.0000 0.0000
# 4 0.0000 0.0000 0.0000 25.9059 0.0000 0.0000
# 5 0.0000 0.0000 0.0000 0.0000 25.9060 0.0000
# 6 0.0000 0.0000 0.0000 0.0000 0.0000 20.7452
#
#
#
# Elastic Compliance Matrix: (Units=1/GPa)
#
#
# Indices 1 2 3 4 5 6 
#
# 1 0.011457 -0.003475 -0.002494 0.000000 0.000000 0.000000
# 2 -0.003475 0.011457 -0.002494 0.000000 0.000000 0.000000
# 3 -0.002494 -0.002494 0.010416 0.000000 0.000000 0.000000
# 4 0.000000 0.000000 0.000000 0.038601 0.000000 0.000000
# 5 0.000000 0.000000 0.000000 0.000000 0.038601 0.000000
# 6 0.000000 0.000000 0.000000 0.000000 0.000000 0.048204
#
#
# Mechanical properties :
#
#
# Convention : Reuss Voigt Hill
#
# Bulk Modulus (GPa) = 60.96329 60.96396 60.96363
# Shear Modulus (GPa) = 27.60470 28.94300 28.27385
#
# Velocity S-wave (km/s) = 3.65693 3.74453 3.70099
# Velocity P-wave (km/s) = 6.88220 6.94475 6.91355
#
# Compressibility (1/GPa) = 0.01640331
#
# Stress axis : x y z
#
# Youngs Moduli (GPa) = 87.28574 87.28543 96.00932
#
# Poissons Ratio (x) = 0.30336 0.23941
# Poissons Ratio (y) = 0.30336 0.23942
# Poissons Ratio (z) = 0.21766 0.21766
#
# Static dielectric constant tensor:
#      x y z
#    x 1.767770 0.000000 0.000000 
#    y 0.000000 1.767770 0.000000 
#    z 0.000000 0.000000 1.729620 
# 
# From -- ./inp_files/8396.got.cif
#   From: 2010.05.17/outbox.cif.g08.bks.cpg/sg139_5_cif.got.tgz:8396.got - 2010.05.20 13:14:44.
