data_PCOD9571950
_publ_section_title
;
Structure prediction by ZEFSAII (Michael W. Deem and Ramdas Pophale) SiO2 
 PCOD9571950
Probable space group: I 4/M M M
;
_chemical_formula_sum "Si O2"
_cell_formula_units_Z 136
_cell_length_a 23.115721
_cell_length_b 23.115721
_cell_length_c 14.197761
_cell_angle_alpha 90.000000
_cell_angle_beta 90.000000
_cell_angle_gamma 90.000000
_cell_volume 7586.382735
_symmetry_space_group_name_H-M "I 4/M M M"
_symmetry_group_IT_number 139
_symmetry_cell_setting 'tetragonal'
loop_
_space_group_symop_operation_xyz
x,y,z
-y,x,z
-x,-y,z
y,-x,z
x,-y,-z
-x,y,-z
y,x,-z
-y,-x,-z
-x,-y,-z
y,-x,-z
x,y,-z
-y,x,-z
-x,y,z
x,-y,z
-y,-x,z
y,x,z
1/2+x,1/2+y,1/2+z
1/2-y,1/2+x,1/2+z
1/2-x,1/2-y,1/2+z
1/2+y,1/2-x,1/2+z
1/2+x,1/2-y,1/2-z
1/2-x,1/2+y,1/2-z
1/2+y,1/2+x,1/2-z
1/2-y,1/2-x,1/2-z
1/2-x,1/2-y,1/2-z
1/2+y,1/2-x,1/2-z
1/2+x,1/2+y,1/2-z
1/2-y,1/2+x,1/2-z
1/2-x,1/2+y,1/2+z
1/2+x,1/2-y,1/2+z
1/2-y,1/2-x,1/2+z
1/2+y,1/2+x,1/2+z
loop_
_atom_site_type_symbol
_atom_site_label
_atom_site_fract_x
_atom_site_fract_y
_atom_site_fract_z
Si Si1 0.690421 0.690421 0.000000
Si Si2 0.822880 0.355544 0.000000
Si Si3 0.647165 0.067799 0.688113
Si Si4 0.773525 0.124456 0.000000
Si Si5 0.147444 0.147444 0.301728
Si Si6 0.066210 0.233421 0.800984
Si Si7 0.567660 0.432341 0.104580
O O1 0.756752 0.667721 0.000000
O O2 0.665708 0.665708 0.095571
O O3 0.838202 0.393864 0.906079
O O4 0.854544 0.293368 0.000000
O O5 0.595460 0.095460 0.750000
O O6 0.701792 0.069067 0.759755
O O7 0.637360 0.000000 0.662757
O O8 0.777261 0.084136 0.091609
O O9 0.822015 0.177986 0.000000
O O10 0.200346 0.117014 0.252582
O O11 0.098986 0.098986 0.312291
O O12 0.000000 0.213361 0.783531
O O13 0.578335 0.500000 0.109454
O O14 0.586577 0.413424 0.000000
#
# Coordination Sequence:
#
# PCOD9571950 Si02
#       7
#     8  16  32  16  16  32  16
#     4  12  24  34  58  97 136 160 198 255 314 400
#     4  12  23  41  64  98 132 162 200 254 326 385
#     4  11  24  43  66  93 128 168 210 260 314 376
#     4  12  23  40  67  92 123 164 209 259 313 374
#     4  12  21  38  57  87 126 161 207 253 314 371
#     4  11  24  40  63  90 124 168 210 260 312 364
#     4   9  18  32  50  75 112 158 204 248 296 359
#
# _framework density 17.926857999999999
#
# number of rings (size 3 to 8) (size 9 to 14) (size 15 to 20)
#    0.000    0.824    7.059    1.765    0.000    0.235 
#    0.000    4.118    0.000    1.412    0.000    0.824 
#    0.000    0.000    0.000    0.000    0.000    0.000 
#
# Total GULP energy -378614.078991 kJ/mol
# GULP energy per Si atom -5567.854103 kJ/mol
# Density = 1.788606 g / cm^3
# Si number density = 17.926858 Si / 1000 Ang^3
#
#
#
# Elastic Constant Matrix: (Units=GPa)
#
#
# Indices 1 2 3 4 5 6 
#
# 1 33.2902 72.6162 8.2056 0.0000 0.0000 0.0000
# 2 72.6162 33.2922 8.2050 0.0000 0.0000 0.0000
# 3 8.2056 8.2050 81.6518 0.0000 0.0000 0.0000
# 4 0.0000 0.0000 0.0000 13.8062 0.0000 0.0000
# 5 0.0000 0.0000 0.0000 0.0000 13.8087 0.0000
# 6 0.0000 0.0000 0.0000 0.0000 0.0000 29.7785
#
#
#
# Elastic Compliance Matrix: (Units=1/GPa)
#
#
# Indices 1 2 3 4 5 6 
#
# 1 -0.007919 0.017510 -0.000964 0.000000 0.000000 0.000000
# 2 0.017510 -0.007919 -0.000964 0.000000 0.000000 0.000000
# 3 -0.000964 -0.000964 0.012441 0.000000 0.000000 0.000000
# 4 0.000000 0.000000 0.000000 0.072431 0.000000 0.000000
# 5 0.000000 0.000000 0.000000 0.000000 0.072418 0.000000
# 6 0.000000 0.000000 0.000000 0.000000 0.000000 0.033581
#
#
# Mechanical properties :
#
#
# Convention : Reuss Voigt Hill
#
# Bulk Modulus (GPa) = 36.01204 36.25421 36.13312
# Shear Modulus (GPa) = 32.65305 15.42583 24.03944
#
# Velocity S-wave (km/s) = 4.27249 2.93659 3.66590
# Velocity P-wave (km/s) = 6.66864 5.63608 6.17398
#
# Compressibility (1/GPa) = 0.02776849
#
# Stress axis : x y z
#
# Youngs Moduli (GPa) = -126.27831 -126.28644 80.38041
#
# Poissons Ratio (x) = 2.21132 0.07747
# Poissons Ratio (y) = 2.21117 0.07749
# Poissons Ratio (z) = -0.12170 -0.12174
#
# Static dielectric constant tensor:
#      x y z
#    x 1.668220 0.000000 0.000000 
#    y 0.000000 1.668220 0.000000 
#    z 0.000000 0.000000 1.998130 
# 
# From -- ./inp_files/3619.got.cif
#   From: 2010.05.17/outbox.cif.g08.bks.cpg/sg139_2_cif.got.tgz:3619.got - 2010.05.20 13:14:44.
