data_PCOD9571029
_publ_section_title
;
Structure prediction by ZEFSAII (Michael W. Deem and Ramdas Pophale) SiO2 
 PCOD9571029
Probable space group: P 42/N C M
;
_chemical_formula_sum "Si O2"
_cell_formula_units_Z 96
_cell_length_a 15.367011
_cell_length_b 15.367011
_cell_length_c 20.360051
_cell_angle_alpha 90.000000
_cell_angle_beta 90.000000
_cell_angle_gamma 90.000000
_cell_volume 4807.924795
_symmetry_space_group_name_H-M "P 42/N C M"
_symmetry_group_IT_number 138
_space_group.IT_coordinate_system_code '2'
_symmetry_cell_setting 'tetragonal'
loop_
_space_group_symop_operation_xyz
x,y,z
1/2-y,x,1/2+z
1/2-x,1/2-y,z
y,1/2-x,1/2+z
1/2+x,-y,1/2-z
-x,1/2+y,1/2-z
1/2+y,1/2+x,-z
-y,-x,-z
-x,-y,-z
1/2+y,-x,1/2-z
1/2+x,1/2+y,-z
-y,1/2+x,1/2-z
1/2-x,y,1/2+z
x,1/2-y,1/2+z
1/2-y,1/2-x,z
y,x,z
loop_
_atom_site_type_symbol
_atom_site_label
_atom_site_fract_x
_atom_site_fract_y
_atom_site_fract_z
Si Si1 0.230858 0.014103 0.241260
Si Si2 0.298862 0.960234 0.380735
Si Si3 0.974136 0.974136 0.783892
Si Si4 0.820895 0.679105 0.827121
Si Si5 0.043248 0.456753 0.154458
Si Si6 0.965683 0.534318 0.570024
Si Si7 0.382375 0.607058 0.426893
Si Si8 0.849401 0.268902 0.652549
O O1 0.126663 0.011307 0.234652
O O2 0.266210 0.104686 0.211538
O O3 0.269128 0.005630 0.313733
O O4 0.257400 0.925091 0.203166
O O5 0.211007 0.935481 0.416938
O O6 0.348901 0.870550 0.363283
O O7 0.363881 0.015840 0.423788
O O8 0.032332 0.032332 0.733523
O O9 0.994170 0.994170 0.860897
O O10 0.750000 0.750000 0.852757
O O11 0.885199 0.614802 0.867873
O O12 0.070316 0.548798 0.124597
O O13 0.000000 0.500000 0.500000
O O14 0.411605 0.588396 0.500000
O O15 0.367939 0.709139 0.410939
O O16 0.750000 0.250000 0.674608
#
# Coordination Sequence:
#
# PCOD9571029 Si02
#       8
#    16  16   8   8   8   8  16  16
#     4  12  23  43  68 102 141 176 240 300 357 423
#     4  11  25  41  66  99 140 179 233 287 363 430
#     4  12  24  44  74 104 133 183 241 300 354 419
#     4  12  26  41  67 103 143 188 233 291 364 435
#     4  12  23  48  69 103 134 178 240 304 354 418
#     4  12  28  44  68  99 147 196 229 282 369 460
#     4  11  25  42  70  98 136 179 226 292 359 431
#     4  10  24  36  64 103 136 173 225 294 360 421
#
# _framework density 19.967034000000002
#
# number of rings (size 3 to 8) (size 9 to 14) (size 15 to 20)
#    0.000    0.667    5.833    1.750    7.000    2.333 
#    0.000    0.000    0.000    0.000    0.000    0.000 
#    0.000    0.000    0.000    0.000    0.000    0.000 
#
# Total GULP energy -535941.088914 kJ/mol
# GULP energy per Si atom -5582.719676 kJ/mol
# Density = 1.992159 g / cm^3
# Si number density = 19.967034 Si / 1000 Ang^3
#
#
#
# Elastic Constant Matrix: (Units=GPa)
#
#
# Indices 1 2 3 4 5 6 
#
# 1 100.3309 35.0152 24.5043 0.0000 0.0000 0.0000
# 2 35.0152 100.3308 24.5043 0.0000 0.0000 0.0000
# 3 24.5043 24.5043 98.1491 0.0000 0.0000 0.0000
# 4 0.0000 0.0000 0.0000 -16.6857 0.0000 0.0000
# 5 0.0000 0.0000 0.0000 0.0000 -16.6883 0.0000
# 6 0.0000 0.0000 0.0000 0.0000 0.0000 27.9002
#
#
#
# Elastic Compliance Matrix: (Units=1/GPa)
#
#
# Indices 1 2 3 4 5 6 
#
# 1 0.011717 -0.003594 -0.002028 0.000000 0.000000 0.000000
# 2 -0.003594 0.011717 -0.002028 0.000000 0.000000 0.000000
# 3 -0.002028 -0.002028 0.011201 0.000000 0.000000 0.000000
# 4 0.000000 0.000000 0.000000 -0.059932 0.000000 0.000000
# 5 0.000000 0.000000 0.000000 0.000000 -0.059922 0.000000
# 6 0.000000 0.000000 0.000000 0.000000 0.000000 0.035842
#
#
# Mechanical properties :
#
#
# Convention : Reuss Voigt Hill
#
# Bulk Modulus (GPa) = 51.71990 51.87314 51.79652
# Shear Modulus (GPa) = -180.94155 13.22438 -83.85858
#
# Velocity S-wave (km/s) = -9.52979 2.57633 -6.48766
# Velocity P-wave (km/s) = 9.75348 5.90642 5.48837
#
# Compressibility (1/GPa) = 0.01933492
#
# Stress axis : x y z
#
# Youngs Moduli (GPa) = 85.34952 85.34943 89.27615
#
# Poissons Ratio (x) = 0.30672 0.18105
# Poissons Ratio (y) = 0.30672 0.18105
# Poissons Ratio (z) = 0.17309 0.17309
#
# Static dielectric constant tensor:
#      x y z
#    x 1.727430 0.000000 0.000000 
#    y 0.000000 1.727430 0.000000 
#    z 0.000000 0.000000 1.699240 
# 
# From -- ./inp_files/6348.got.cif
#   From: 2010.05.17/outbox.cif.g08.bks.cpg/sg138_4_cif.got.tgz:6348.got - 2010.05.20 13:08:53.
