data_PCOD9571340
_publ_section_title
;
Structure prediction by ZEFSAII (Michael W. Deem and Ramdas Pophale) SiO2 
 PCOD9571340
Probable space group: I 4/M M M
;
_chemical_formula_sum "Si O2"
_cell_formula_units_Z 160
_cell_length_a 24.382808
_cell_length_b 24.382808
_cell_length_c 15.061038
_cell_angle_alpha 90.000000
_cell_angle_beta 90.000000
_cell_angle_gamma 90.000000
_cell_volume 8954.108282
_symmetry_space_group_name_H-M "I 4/M M M"
_symmetry_group_IT_number 139
_symmetry_cell_setting 'tetragonal'
loop_
_space_group_symop_operation_xyz
x,y,z
-y,x,z
-x,-y,z
y,-x,z
x,-y,-z
-x,y,-z
y,x,-z
-y,-x,-z
-x,-y,-z
y,-x,-z
x,y,-z
-y,x,-z
-x,y,z
x,-y,z
-y,-x,z
y,x,z
1/2+x,1/2+y,1/2+z
1/2-y,1/2+x,1/2+z
1/2-x,1/2-y,1/2+z
1/2+y,1/2-x,1/2+z
1/2+x,1/2-y,1/2-z
1/2-x,1/2+y,1/2-z
1/2+y,1/2+x,1/2-z
1/2-y,1/2-x,1/2-z
1/2-x,1/2-y,1/2-z
1/2+y,1/2-x,1/2-z
1/2+x,1/2+y,1/2-z
1/2-y,1/2+x,1/2-z
1/2-x,1/2+y,1/2+z
1/2+x,1/2-y,1/2+z
1/2-y,1/2-x,1/2+z
1/2+y,1/2+x,1/2+z
loop_
_atom_site_type_symbol
_atom_site_label
_atom_site_fract_x
_atom_site_fract_y
_atom_site_fract_z
Si Si1 0.937397 0.154148 0.599128
Si Si2 0.733907 0.176980 0.164041
Si Si3 0.561824 0.939371 0.892374
Si Si4 0.383478 0.832964 0.899685
Si Si5 0.249024 0.435662 0.239268
O O1 0.928952 0.179711 0.500000
O O2 0.894692 0.105309 0.607328
O O3 0.930527 0.196345 0.679185
O O4 0.000000 0.134210 0.601312
O O5 0.786608 0.213393 0.137432
O O6 0.707318 0.207318 0.250000
O O7 0.681163 0.178846 0.100660
O O8 0.748316 0.113772 0.188633
O O9 0.500000 0.922449 0.866991
O O10 0.606952 0.895337 0.868771
O O11 0.572300 0.000000 0.856997
O O12 0.561841 0.942782 0.000000
O O13 0.418176 0.797499 0.831073
O O14 0.404866 0.826373 0.000000
O O15 0.243616 0.500000 0.267458
#
# Coordination Sequence:
#
# PCOD9571340 Si02
#       5
#    32  32  32  32  32
#     4   9  17  28  43  65  91 118 148 181 221 272
#     4   9  19  34  47  62  89 125 161 195 236 288
#     4   8  14  25  41  62  89 118 144 173 216 271
#     4  10  19  30  47  70  93 118 152 197 242 282
#     4  10  19  31  48  68  91 120 154 194 238 281
#
# _framework density 17.868893
#
# number of rings (size 3 to 8) (size 9 to 14) (size 15 to 20)
#    0.000    2.800    0.000    2.400    0.000    4.200 
#    0.000    1.000    0.000    0.000    0.000    9.800 
#    0.000    0.000    0.000    0.000    0.000    0.000 
#
# Total GULP energy -445402.273502 kJ/mol
# GULP energy per Si atom -5567.528419 kJ/mol
# Density = 1.782822 g / cm^3
# Si number density = 17.868893 Si / 1000 Ang^3
#
#
#
# Elastic Constant Matrix: (Units=GPa)
#
#
# Indices 1 2 3 4 5 6 
#
# 1 80.4920 44.1426 0.6801 0.0000 0.0000 0.0000
# 2 44.1426 80.4920 0.6801 0.0000 0.0000 0.0000
# 3 0.6801 0.6801 17.3340 0.0000 0.0000 0.0000
# 4 0.0000 0.0000 0.0000 11.9963 0.0000 0.0000
# 5 0.0000 0.0000 0.0000 0.0000 11.9963 0.0000
# 6 0.0000 0.0000 0.0000 0.0000 0.0000 30.1886
#
#
#
# Elastic Compliance Matrix: (Units=1/GPa)
#
#
# Indices 1 2 3 4 5 6 
#
# 1 0.017769 -0.009742 -0.000315 0.000000 0.000000 0.000000
# 2 -0.009742 0.017769 -0.000315 0.000000 0.000000 0.000000
# 3 -0.000315 -0.000315 0.057715 0.000000 0.000000 0.000000
# 4 0.000000 0.000000 0.000000 0.083359 0.000000 0.000000
# 5 0.000000 0.000000 0.000000 0.000000 0.083359 0.000000
# 6 0.000000 0.000000 0.000000 0.000000 0.000000 0.033125
#
#
# Mechanical properties :
#
#
# Convention : Reuss Voigt Hill
#
# Bulk Modulus (GPa) = 13.79144 29.92484 21.85814
# Shear Modulus (GPa) = 14.79252 19.69058 17.24155
#
# Velocity S-wave (km/s) = 2.88034 3.32316 3.10964
# Velocity P-wave (km/s) = 4.33551 5.61318 5.01520
#
# Compressibility (1/GPa) = 0.07250873
#
# Stress axis : x y z
#
# Youngs Moduli (GPa) = 56.27836 56.27836 17.32663
#
# Poissons Ratio (x) = 0.54826 0.00546
# Poissons Ratio (y) = 0.54826 0.00546
# Poissons Ratio (z) = 0.01772 0.01772
#
# Static dielectric constant tensor:
#      x y z
#    x 1.629400 0.000000 0.000000 
#    y 0.000000 1.629400 0.000000 
#    z 0.000000 0.000000 1.641520 
# 
# From -- ./inp_files/5919.got.cif
#   From: 2010.05.17/outbox.cif.g08.bks.cpg/sg139_3_cif.got.tgz:5919.got - 2010.05.20 13:14:44.
