data_PCOD9571554
_publ_section_title
;
Structure prediction by ZEFSAII (Michael W. Deem and Ramdas Pophale) SiO2 
 PCOD9571554
Probable space group: I 4/M M M
;
_chemical_formula_sum "Si O2"
_cell_formula_units_Z 224
_cell_length_a 23.843031
_cell_length_b 23.843031
_cell_length_c 23.695716
_cell_angle_alpha 90.000000
_cell_angle_beta 90.000000
_cell_angle_gamma 90.000000
_cell_volume 13470.780605
_symmetry_space_group_name_H-M "I 4/M M M"
_symmetry_group_IT_number 139
_symmetry_cell_setting 'tetragonal'
loop_
_space_group_symop_operation_xyz
x,y,z
-y,x,z
-x,-y,z
y,-x,z
x,-y,-z
-x,y,-z
y,x,-z
-y,-x,-z
-x,-y,-z
y,-x,-z
x,y,-z
-y,x,-z
-x,y,z
x,-y,z
-y,-x,z
y,x,z
1/2+x,1/2+y,1/2+z
1/2-y,1/2+x,1/2+z
1/2-x,1/2-y,1/2+z
1/2+y,1/2-x,1/2+z
1/2+x,1/2-y,1/2-z
1/2-x,1/2+y,1/2-z
1/2+y,1/2+x,1/2-z
1/2-y,1/2-x,1/2-z
1/2-x,1/2-y,1/2-z
1/2+y,1/2-x,1/2-z
1/2+x,1/2+y,1/2-z
1/2-y,1/2+x,1/2-z
1/2-x,1/2+y,1/2+z
1/2+x,1/2-y,1/2+z
1/2-y,1/2-x,1/2+z
1/2+y,1/2+x,1/2+z
loop_
_atom_site_type_symbol
_atom_site_label
_atom_site_fract_x
_atom_site_fract_y
_atom_site_fract_z
Si Si1 0.136681 0.331936 0.361141
Si Si2 0.355883 0.263734 0.768909
Si Si3 0.144978 0.761369 0.135074
Si Si4 0.934416 0.841912 0.067130
Si Si5 0.435477 0.065688 0.682092
Si Si6 0.656604 0.565852 0.159873
Si Si7 0.933677 0.753967 0.434703
O O1 0.143385 0.293181 0.304920
O O2 0.198283 0.344769 0.384597
O O3 0.104310 0.388812 0.345975
O O4 0.101317 0.294605 0.404566
O O5 0.297403 0.297403 0.777926
O O6 0.364961 0.257195 0.702428
O O7 0.404272 0.303646 0.794108
O O8 0.199724 0.800277 0.126589
O O9 0.094805 0.793002 0.103233
O O10 0.898309 0.898309 0.078118
O O11 0.000000 0.848503 0.080460
O O12 0.929419 0.829992 0.000000
O O13 0.500000 0.080494 0.667674
O O14 0.430063 0.069938 0.750000
O O15 0.426797 0.000000 0.667594
O O16 0.651513 0.500000 0.169988
O O17 0.598055 0.598055 0.159753
O O18 0.689274 0.575229 0.100918
O O19 0.918847 0.760372 0.500000
O O20 0.000000 0.740880 0.430528
#
# Coordination Sequence:
#
# PCOD9571554 Si02
#       7
#    32  32  32  32  32  32  32
#     4  11  19  30  52  75  93 125 168 202 235 289
#     4   9  18  32  48  70 101 131 160 197 239 284
#     4  10  20  32  48  73 105 132 153 192 249 296
#     4   9  19  36  55  74  98 129 165 204 244 287
#     4   9  18  31  45  65  95 124 151 192 241 282
#     4   9  18  32  50  73 101 132 166 206 250 294
#     4   9  19  35  52  70  94 126 166 211 252 290
#
# _framework density 16.628584
#
# number of rings (size 3 to 8) (size 9 to 14) (size 15 to 20)
#    0.000    2.571    0.000    2.571    0.000    4.571 
#    0.000    0.714    0.000    0.429    0.000    8.000 
#    0.000    0.000    0.000    0.000    0.000    0.000 
#
# Total GULP energy -624680.144042 kJ/mol
# GULP energy per Si atom -5577.501286 kJ/mol
# Density = 1.659074 g / cm^3
# Si number density = 16.628584 Si / 1000 Ang^3
#
#
#
# Elastic Constant Matrix: (Units=GPa)
#
#
# Indices 1 2 3 4 5 6 
#
# 1 91.3047 59.5005 17.8422 0.0000 0.0000 0.0000
# 2 59.5005 91.3047 17.8423 0.0000 0.0000 0.0000
# 3 17.8422 17.8423 29.0669 0.0000 0.0000 0.0000
# 4 0.0000 0.0000 0.0000 17.1885 0.0000 0.0000
# 5 0.0000 0.0000 0.0000 0.0000 17.1886 0.0000
# 6 0.0000 0.0000 0.0000 0.0000 0.0000 15.1313
#
#
#
# Elastic Compliance Matrix: (Units=1/GPa)
#
#
# Indices 1 2 3 4 5 6 
#
# 1 0.019600 -0.011842 -0.004762 0.000000 0.000000 0.000000
# 2 -0.011842 0.019600 -0.004762 0.000000 0.000000 0.000000
# 3 -0.004762 -0.004762 0.040250 0.000000 0.000000 0.000000
# 4 0.000000 0.000000 0.000000 0.058178 0.000000 0.000000
# 5 0.000000 0.000000 0.000000 0.000000 0.058178 0.000000
# 6 0.000000 0.000000 0.000000 0.000000 0.000000 0.066088
#
#
# Mechanical properties :
#
#
# Convention : Reuss Voigt Hill
#
# Bulk Modulus (GPa) = 27.23525 44.67182 35.95353
# Shear Modulus (GPa) = 15.77953 17.66777 16.72365
#
# Velocity S-wave (km/s) = 3.08383 3.26313 3.17474
# Velocity P-wave (km/s) = 5.39390 6.41250 5.92513
#
# Compressibility (1/GPa) = 0.03671712
#
# Stress axis : x y z
#
# Youngs Moduli (GPa) = 51.02008 51.02002 24.84498
#
# Poissons Ratio (x) = 0.60419 0.11831
# Poissons Ratio (y) = 0.60419 0.11832
# Poissons Ratio (z) = 0.24296 0.24296
#
# Static dielectric constant tensor:
#      x y z
#    x 1.549270 0.000000 0.000000 
#    y 0.000000 1.549270 0.000000 
#    z 0.000000 0.000000 1.546530 
# 
# From -- ./inp_files/12211.got.cif
#   From: 2010.05.17/outbox.cif.g08.bks.cpg/sg139_7_cif.got.tgz:12211.got - 2010.05.20 13:14:44.
