data_PCOD9571225
_publ_section_title
;
Structure prediction by ZEFSAII (Michael W. Deem and Ramdas Pophale) SiO2 
 PCOD9571225
Probable space group: I 4/M M M
;
_chemical_formula_sum "Si O2"
_cell_formula_units_Z 192
_cell_length_a 30.078037
_cell_length_b 30.078037
_cell_length_c 14.962313
_cell_angle_alpha 90.000000
_cell_angle_beta 90.000000
_cell_angle_gamma 90.000000
_cell_volume 13536.229658
_symmetry_space_group_name_H-M "I 4/M M M"
_symmetry_group_IT_number 139
_symmetry_cell_setting 'tetragonal'
loop_
_space_group_symop_operation_xyz
x,y,z
-y,x,z
-x,-y,z
y,-x,z
x,-y,-z
-x,y,-z
y,x,-z
-y,-x,-z
-x,-y,-z
y,-x,-z
x,y,-z
-y,x,-z
-x,y,z
x,-y,z
-y,-x,z
y,x,z
1/2+x,1/2+y,1/2+z
1/2-y,1/2+x,1/2+z
1/2-x,1/2-y,1/2+z
1/2+y,1/2-x,1/2+z
1/2+x,1/2-y,1/2-z
1/2-x,1/2+y,1/2-z
1/2+y,1/2+x,1/2-z
1/2-y,1/2-x,1/2-z
1/2-x,1/2-y,1/2-z
1/2+y,1/2-x,1/2-z
1/2+x,1/2+y,1/2-z
1/2-y,1/2+x,1/2-z
1/2-x,1/2+y,1/2+z
1/2+x,1/2-y,1/2+z
1/2-y,1/2-x,1/2+z
1/2+y,1/2+x,1/2+z
loop_
_atom_site_type_symbol
_atom_site_label
_atom_site_fract_x
_atom_site_fract_y
_atom_site_fract_z
Si Si1 0.228519 0.154580 0.500000
Si Si2 0.051948 0.259673 0.500000
Si Si3 0.143134 0.658393 0.902438
Si Si4 0.854114 0.453439 0.346746
Si Si5 0.067279 0.549441 0.895965
Si Si6 0.567458 0.832262 0.150620
Si Si7 0.782720 0.286566 0.858055
O O1 0.180090 0.180090 0.500000
O O2 0.231994 0.099978 0.500000
O O3 0.254346 0.175152 0.587999
O O4 0.055345 0.291635 0.587118
O O5 0.000000 0.240987 0.500000
O O6 0.090835 0.660679 0.895240
O O7 0.162773 0.620830 0.837708
O O8 0.167528 0.704439 0.889003
O O9 0.154836 0.640175 0.000000
O O10 0.843443 0.500000 0.391168
O O11 0.908018 0.449696 0.341490
O O12 0.832690 0.452002 0.249208
O O13 0.053804 0.500000 0.866831
O O14 0.120867 0.552428 0.892023
O O15 0.054061 0.555252 0.000000
O O16 0.758668 0.241332 0.885688
O O17 0.785340 0.285340 0.750000
#
# Coordination Sequence:
#
# PCOD9571225 Si02
#       7
#    16  16  32  32  32  32  32
#     4  10  20  34  50  74 100 121 150 182 224 270
#     4  12  20  30  50  70  90 118 146 170 214 264
#     4  11  19  32  49  62  83 108 135 177 220 264
#     4  11  23  32  42  59  78 104 138 180 223 266
#     4  10  19  31  46  58  72  97 132 181 233 276
#     4  11  18  32  45  62  81 101 135 175 217 265
#     4  10  18  30  49  69  90 114 139 174 219 267
#
# _framework density 14.184156
#
# number of rings (size 3 to 8) (size 9 to 14) (size 15 to 20)
#    0.000    1.333    4.167    6.000    0.000    1.667 
#    0.000    0.833    0.000    4.000    0.000    0.000 
#    0.000    0.167    0.000    0.000    0.000    0.000 
#
# Total GULP energy -534604.269464 kJ/mol
# GULP energy per Si atom -5568.794474 kJ/mol
# Density = 1.415187 g / cm^3
# Si number density = 14.184156 Si / 1000 Ang^3
#
#
#
# Elastic Constant Matrix: (Units=GPa)
#
#
# Indices 1 2 3 4 5 6 
#
# 1 73.6701 49.2704 12.5606 0.0000 0.0000 0.0000
# 2 49.2704 73.6701 12.5606 0.0000 0.0000 0.0000
# 3 12.5606 12.5606 55.5397 0.0000 0.0000 0.0000
# 4 0.0000 0.0000 0.0000 284.9530 0.0000 0.0000
# 5 0.0000 0.0000 0.0000 0.0000 284.9530 0.0000
# 6 0.0000 0.0000 0.0000 0.0000 0.0000 -9.8000
#
#
#
# Elastic Compliance Matrix: (Units=1/GPa)
#
#
# Indices 1 2 3 4 5 6 
#
# 1 0.024756 -0.016228 -0.001929 0.000000 0.000000 0.000000
# 2 -0.016228 0.024756 -0.001929 0.000000 0.000000 0.000000
# 3 -0.001929 -0.001929 0.018878 0.000000 0.000000 0.000000
# 4 0.000000 0.000000 0.000000 0.003509 0.000000 0.000000
# 5 0.000000 0.000000 0.000000 0.000000 0.003509 0.000000
# 6 0.000000 0.000000 0.000000 0.000000 0.000000 -0.102041
#
#
# Mechanical properties :
#
#
# Convention : Reuss Voigt Hill
#
# Bulk Modulus (GPa) = 35.43709 39.07368 37.25538
# Shear Modulus (GPa) = 217.91693 120.58710 169.25202
#
# Velocity S-wave (km/s) = 12.40837 9.23038 10.93544
# Velocity P-wave (km/s) = 15.17656 11.88306 13.62966
#
# Compressibility (1/GPa) = 0.02821902
#
# Stress axis : x y z
#
# Youngs Moduli (GPa) = 40.39399 40.39399 52.97308
#
# Poissons Ratio (x) = 0.65552 0.10217
# Poissons Ratio (y) = 0.65552 0.10217
# Poissons Ratio (z) = 0.07791 0.07791
#
# Static dielectric constant tensor:
#      x y z
#    x 1.498970 0.000000 0.000000 
#    y 0.000000 1.498970 0.000000 
#    z 0.000000 0.000000 1.520940 
# 
# From -- ./inp_files/6723.got.cif
#   From: 2010.05.17/outbox.cif.g08.bks.cpg/sg139_4_cif.got.tgz:6723.got - 2010.05.20 13:14:44.
