data_PCOD9571855
_publ_section_title
;
Structure prediction by ZEFSAII (Michael W. Deem and Ramdas Pophale) SiO2 
 PCOD9571855
Probable space group: I 4/M M M
;
_chemical_formula_sum "Si O2"
_cell_formula_units_Z 112
_cell_length_a 18.362665
_cell_length_b 18.362665
_cell_length_c 17.278249
_cell_angle_alpha 90.000000
_cell_angle_beta 90.000000
_cell_angle_gamma 90.000000
_cell_volume 5826.008996
_symmetry_space_group_name_H-M "I 4/M M M"
_symmetry_group_IT_number 139
_symmetry_cell_setting 'tetragonal'
loop_
_space_group_symop_operation_xyz
x,y,z
-y,x,z
-x,-y,z
y,-x,z
x,-y,-z
-x,y,-z
y,x,-z
-y,-x,-z
-x,-y,-z
y,-x,-z
x,y,-z
-y,x,-z
-x,y,z
x,-y,z
-y,-x,z
y,x,z
1/2+x,1/2+y,1/2+z
1/2-y,1/2+x,1/2+z
1/2-x,1/2-y,1/2+z
1/2+y,1/2-x,1/2+z
1/2+x,1/2-y,1/2-z
1/2-x,1/2+y,1/2-z
1/2+y,1/2+x,1/2-z
1/2-y,1/2-x,1/2-z
1/2-x,1/2-y,1/2-z
1/2+y,1/2-x,1/2-z
1/2+x,1/2+y,1/2-z
1/2-y,1/2+x,1/2-z
1/2-x,1/2+y,1/2+z
1/2+x,1/2-y,1/2+z
1/2-y,1/2-x,1/2+z
1/2+y,1/2+x,1/2+z
loop_
_atom_site_type_symbol
_atom_site_label
_atom_site_fract_x
_atom_site_fract_y
_atom_site_fract_z
Si Si1 0.000000 0.414080 0.592465
Si Si2 0.652531 0.855669 0.842066
Si Si3 0.300398 0.300398 0.093213
Si Si4 0.917750 0.082251 0.405802
Si Si5 0.582000 0.298161 0.593088
O O1 0.925715 0.379938 0.625393
O O2 0.000000 0.500000 0.610512
O O3 0.000000 0.404816 0.500000
O O4 0.647815 0.852185 0.750000
O O5 0.675143 0.777355 0.875573
O O6 0.719351 0.906723 0.868686
O O7 0.359500 0.359500 0.119701
O O8 0.297842 0.297842 0.000000
O O9 0.917527 0.082474 0.500000
O O10 0.000000 0.099901 0.381343
O O11 0.588935 0.289275 0.500000
O O12 0.500000 0.324956 0.609128
O O13 0.644164 0.355837 0.617643
#
# Coordination Sequence:
#
# PCOD9571855 Si02
#       5
#    16  32  16  16  32
#     4  11  26  46  70  96 127 169 219 264 322 398
#     4  12  26  41  64  94 130 170 212 268 326 384
#     4  11  22  39  64  92 126 167 220 266 314 386
#     4   8  16  32  55  84 117 156 204 262 318 365
#     4  10  21  40  67  95 126 163 208 260 319 383
#
# _framework density 19.224136999999999
#
# number of rings (size 3 to 8) (size 9 to 14) (size 15 to 20)
#    0.000    1.429    1.429    4.286    6.000    2.571 
#    0.000    1.429    0.000    0.000    0.000    0.000 
#    0.000    0.000    0.000    0.000    0.000    0.000 
#
# Total GULP energy -312946.930916 kJ/mol
# GULP energy per Si atom -5588.338052 kJ/mol
# Density = 1.918038 g / cm^3
# Si number density = 19.224137 Si / 1000 Ang^3
#
#
#
# Elastic Constant Matrix: (Units=GPa)
#
#
# Indices 1 2 3 4 5 6 
#
# 1 130.2401 95.9966 55.5151 0.0000 0.0000 0.0000
# 2 95.9966 130.2412 55.5155 0.0000 0.0000 0.0000
# 3 55.5151 55.5155 62.3499 0.0000 0.0000 0.0000
# 4 0.0000 0.0000 0.0000 79.4861 0.0000 0.0000
# 5 0.0000 0.0000 0.0000 0.0000 79.4678 0.0000
# 6 0.0000 0.0000 0.0000 0.0000 0.0000 31.4592
#
#
#
# Elastic Compliance Matrix: (Units=1/GPa)
#
#
# Indices 1 2 3 4 5 6 
#
# 1 0.018526 -0.010676 -0.006990 0.000000 0.000000 0.000000
# 2 -0.010676 0.018526 -0.006990 0.000000 0.000000 0.000000
# 3 -0.006990 -0.006990 0.028486 0.000000 0.000000 0.000000
# 4 0.000000 0.000000 0.000000 0.012581 0.000000 0.000000
# 5 0.000000 0.000000 0.000000 0.000000 0.012584 0.000000
# 6 0.000000 0.000000 0.000000 0.000000 0.000000 0.031787
#
#
# Mechanical properties :
#
#
# Convention : Reuss Voigt Hill
#
# Bulk Modulus (GPa) = 61.62495 81.87617 71.75056
# Shear Modulus (GPa) = 28.21481 45.80287 37.00884
#
# Velocity S-wave (km/s) = 3.83518 4.88645 4.39238
# Velocity P-wave (km/s) = 7.19285 8.63246 7.94533
#
# Compressibility (1/GPa) = 0.01622719
#
# Stress axis : x y z
#
# Youngs Moduli (GPa) = 53.97688 53.97715 35.10457
#
# Poissons Ratio (x) = 0.57624 0.24538
# Poissons Ratio (y) = 0.57624 0.24539
# Poissons Ratio (z) = 0.37730 0.37731
#
# Static dielectric constant tensor:
#      x y z
#    x 1.662960 0.000000 0.000000 
#    y 0.000000 1.662960 0.000000 
#    z 0.000000 0.000000 1.648280 
# 
# From -- ./inp_files/7619.got.cif
#   From: 2010.05.17/outbox.cif.g08.bks.cpg/sg139_4_cif.got.tgz:7619.got - 2010.05.20 13:14:44.
