data_PCOD9571546
_publ_section_title
;
Structure prediction by ZEFSAII (Michael W. Deem and Ramdas Pophale) SiO2 
 PCOD9571546
Probable space group: I 4/M M M
;
_chemical_formula_sum "Si O2"
_cell_formula_units_Z 160
_cell_length_a 30.263974
_cell_length_b 30.263974
_cell_length_c 8.849060
_cell_angle_alpha 90.000000
_cell_angle_beta 90.000000
_cell_angle_gamma 90.000000
_cell_volume 8104.925928
_symmetry_space_group_name_H-M "I 4/M M M"
_symmetry_group_IT_number 139
_symmetry_cell_setting 'tetragonal'
loop_
_space_group_symop_operation_xyz
x,y,z
-y,x,z
-x,-y,z
y,-x,z
x,-y,-z
-x,y,-z
y,x,-z
-y,-x,-z
-x,-y,-z
y,-x,-z
x,y,-z
-y,x,-z
-x,y,z
x,-y,z
-y,-x,z
y,x,z
1/2+x,1/2+y,1/2+z
1/2-y,1/2+x,1/2+z
1/2-x,1/2-y,1/2+z
1/2+y,1/2-x,1/2+z
1/2+x,1/2-y,1/2-z
1/2-x,1/2+y,1/2-z
1/2+y,1/2+x,1/2-z
1/2-y,1/2-x,1/2-z
1/2-x,1/2-y,1/2-z
1/2+y,1/2-x,1/2-z
1/2+x,1/2+y,1/2-z
1/2-y,1/2+x,1/2-z
1/2-x,1/2+y,1/2+z
1/2+x,1/2-y,1/2+z
1/2-y,1/2-x,1/2+z
1/2+y,1/2+x,1/2+z
loop_
_atom_site_type_symbol
_atom_site_label
_atom_site_fract_x
_atom_site_fract_y
_atom_site_fract_z
Si Si1 0.614718 0.949375 0.181603
Si Si2 0.000000 0.847301 0.669761
Si Si3 0.741246 0.000000 0.672754
Si Si4 0.206142 0.408949 0.681412
Si Si5 0.226165 0.846038 0.320438
Si Si6 0.839233 0.912475 0.832689
O O1 0.570256 0.929744 0.250000
O O2 0.655333 0.917573 0.225803
O O3 0.623483 0.000000 0.229347
O O4 0.612294 0.949180 0.000000
O O5 0.043520 0.858001 0.761480
O O6 0.000000 0.864872 0.500000
O O7 0.000000 0.794038 0.663200
O O8 0.728189 0.045359 0.757304
O O9 0.723688 0.000000 0.500000
O O10 0.209498 0.407873 0.500000
O O11 0.228580 0.364115 0.745821
O O12 0.231745 0.842599 0.500000
O O13 0.198530 0.801471 0.270325
O O14 0.194425 0.887152 0.277227
O O15 0.878643 0.878643 0.849294
O O16 0.819126 0.920105 0.000000
#
# Coordination Sequence:
#
# PCOD9571546 Si02
#       6
#    32  16  16  32  32  32
#     4  10  23  43  64  92 126 159 200 247 299 355
#     4  11  21  31  47  72 101 133 171 218 275 337
#     4  11  21  31  49  81 112 146 190 232 288 350
#     4  11  21  36  58  83 118 155 194 245 293 348
#     4  10  20  33  50  78 116 152 190 236 284 341
#     4  10  20  32  47  68  95 131 174 219 273 335
#
# _framework density 19.741081999999999
#
# number of rings (size 3 to 8) (size 9 to 14) (size 15 to 20)
#    0.000    1.600    3.000    2.400    0.000    5.400 
#    0.000    1.000    0.000    0.900    0.000    2.100 
#    0.000    0.000    0.000    0.000    0.000    0.000 
#
# Total GULP energy -445958.858060 kJ/mol
# GULP energy per Si atom -5574.485726 kJ/mol
# Density = 1.969615 g / cm^3
# Si number density = 19.741082 Si / 1000 Ang^3
#
#
#
# Elastic Constant Matrix: (Units=GPa)
#
#
# Indices 1 2 3 4 5 6 
#
# 1 61.5176 48.7922 17.7790 0.0000 0.0000 0.0000
# 2 48.7922 61.4979 17.7745 0.0000 0.0000 0.0000
# 3 17.7790 17.7745 55.5969 0.0000 0.0000 0.0000
# 4 0.0000 0.0000 0.0000 68.0585 0.0000 0.0000
# 5 0.0000 0.0000 0.0000 0.0000 67.9897 0.0000
# 6 0.0000 0.0000 0.0000 0.0000 0.0000 -130.6344
#
#
#
# Elastic Compliance Matrix: (Units=1/GPa)
#
#
# Indices 1 2 3 4 5 6 
#
# 1 0.044369 -0.034268 -0.003233 0.000000 0.000000 0.000000
# 2 -0.034268 0.044383 -0.003231 0.000000 0.000000 0.000000
# 3 -0.003233 -0.003231 0.020053 0.000000 0.000000 0.000000
# 4 0.000000 0.000000 0.000000 0.014693 0.000000 0.000000
# 5 0.000000 0.000000 0.000000 0.000000 0.014708 0.000000
# 6 0.000000 0.000000 0.000000 0.000000 0.000000 -0.007655
#
#
# Mechanical properties :
#
#
# Convention : Reuss Voigt Hill
#
# Bulk Modulus (GPa) = 36.57444 38.58933 37.58188
# Shear Modulus (GPa) = 22.61118 7.36719 14.98919
#
# Velocity S-wave (km/s) = 3.38803 1.93391 2.75851
# Velocity P-wave (km/s) = 5.81999 4.95750 5.40597
#
# Compressibility (1/GPa) = 0.02734150
#
# Stress axis : x y z
#
# Youngs Moduli (GPa) = 22.53811 22.53131 49.86681
#
# Poissons Ratio (x) = 0.77210 0.16122
# Poissons Ratio (y) = 0.77234 0.16112
# Poissons Ratio (z) = 0.07286 0.07280
#
# Static dielectric constant tensor:
#      x y z
#    x 1.717850 0.000000 0.000000 
#    y 0.000000 1.717850 0.000000 
#    z 0.000000 0.000000 1.722810 
# 
# From -- ./inp_files/2214.got.cif
#   From: 2010.05.17/outbox.cif.g08.bks.cpg/sg139_2_cif.got.tgz:2214.got - 2010.05.20 13:14:44.
