data_PCOD9571574
_publ_section_title
;
Structure prediction by ZEFSAII (Michael W. Deem and Ramdas Pophale) SiO2 
 PCOD9571574
Probable space group: I 4/M M M
;
_chemical_formula_sum "Si O2"
_cell_formula_units_Z 240
_cell_length_a 22.314989
_cell_length_b 22.314989
_cell_length_c 28.796794
_cell_angle_alpha 90.000000
_cell_angle_beta 90.000000
_cell_angle_gamma 90.000000
_cell_volume 14339.615086
_symmetry_space_group_name_H-M "I 4/M M M"
_symmetry_group_IT_number 139
_symmetry_cell_setting 'tetragonal'
loop_
_space_group_symop_operation_xyz
x,y,z
-y,x,z
-x,-y,z
y,-x,z
x,-y,-z
-x,y,-z
y,x,-z
-y,-x,-z
-x,-y,-z
y,-x,-z
x,y,-z
-y,x,-z
-x,y,z
x,-y,z
-y,-x,z
y,x,z
1/2+x,1/2+y,1/2+z
1/2-y,1/2+x,1/2+z
1/2-x,1/2-y,1/2+z
1/2+y,1/2-x,1/2+z
1/2+x,1/2-y,1/2-z
1/2-x,1/2+y,1/2-z
1/2+y,1/2+x,1/2-z
1/2-y,1/2-x,1/2-z
1/2-x,1/2-y,1/2-z
1/2+y,1/2-x,1/2-z
1/2+x,1/2+y,1/2-z
1/2-y,1/2+x,1/2-z
1/2-x,1/2+y,1/2+z
1/2+x,1/2-y,1/2+z
1/2-y,1/2-x,1/2+z
1/2+y,1/2+x,1/2+z
loop_
_atom_site_type_symbol
_atom_site_label
_atom_site_fract_x
_atom_site_fract_y
_atom_site_fract_z
Si Si1 0.665905 0.430643 0.718383
Si Si2 0.932874 0.427870 0.803891
Si Si3 0.662351 0.566459 0.393189
Si Si4 0.346298 0.754068 0.227827
Si Si5 0.655574 0.106716 0.554417
Si Si6 0.066865 0.285774 0.945751
Si Si7 0.072663 0.690495 0.648620
Si Si8 0.500000 0.064802 0.944847
O O1 0.667203 0.500000 0.734088
O O2 0.605906 0.394094 0.732816
O O3 0.666716 0.430850 0.662519
O O4 0.721783 0.391585 0.736311
O O5 0.936990 0.500000 0.806796
O O6 0.915939 0.415939 0.750000
O O7 0.878366 0.410865 0.837059
O O8 0.000000 0.403416 0.813295
O O9 0.640223 0.500000 0.405814
O O10 0.617346 0.617346 0.409480
O O11 0.727707 0.573710 0.414577
O O12 0.294851 0.705150 0.215883
O O13 0.310521 0.810521 0.250000
O O14 0.387853 0.771362 0.184342
O O15 0.674302 0.100943 0.500000
O O16 0.621425 0.169072 0.560828
O O17 0.701815 0.092792 0.595474
O O18 0.604339 0.057459 0.564201
O O19 0.000000 0.312897 0.936989
O O20 0.067223 0.268520 0.000000
O O21 0.000000 0.697473 0.653529
O O22 0.500000 0.000000 0.921461
O O23 0.500000 0.056738 0.000000
#
# Coordination Sequence:
#
# PCOD9571574 Si02
#       8
#    32  32  32  32  32  32  32  16
#     4   9  18  34  55  79 105 131 163 209 260 313
#     4   8  15  28  42  61  95 131 161 198 243 292
#     4   9  18  32  52  77 103 133 170 215 270 321
#     4  10  22  38  55  75 102 137 173 209 247 297
#     4  10  20  33  47  70  99 129 168 213 259 303
#     4   9  18  32  47  65  94 132 174 215 255 303
#     4  11  21  33  52  77  99 130 169 210 259 310
#     4   9  16  28  46  66  96 132 164 206 255 301
#
# _framework density 16.736851000000001
#
# number of rings (size 3 to 8) (size 9 to 14) (size 15 to 20)
#    0.000    2.600    0.667    1.600    1.867    3.200 
#    0.000    2.000    0.000    1.200    0.000    1.867 
#    0.000    0.000    0.000    0.000    0.000    0.000 
#
# Total GULP energy -668345.824596 kJ/mol
# GULP energy per Si atom -5569.548538 kJ/mol
# Density = 1.669876 g / cm^3
# Si number density = 16.736851 Si / 1000 Ang^3
#
#
#
# Elastic Constant Matrix: (Units=GPa)
#
#
# Indices 1 2 3 4 5 6 
#
# 1 68.1046 35.0737 26.0396 0.0000 0.0000 0.0000
# 2 35.0737 68.1046 26.0396 0.0000 0.0000 0.0000
# 3 26.0396 26.0396 52.7926 0.0000 0.0000 0.0000
# 4 0.0000 0.0000 0.0000 22.8752 0.0000 0.0000
# 5 0.0000 0.0000 0.0000 0.0000 22.8752 0.0000
# 6 0.0000 0.0000 0.0000 0.0000 0.0000 20.2645
#
#
#
# Elastic Compliance Matrix: (Units=1/GPa)
#
#
# Indices 1 2 3 4 5 6 
#
# 1 0.021590 -0.008685 -0.006365 0.000000 0.000000 0.000000
# 2 -0.008685 0.021590 -0.006365 0.000000 0.000000 0.000000
# 3 -0.006365 -0.006365 0.025221 0.000000 0.000000 0.000000
# 4 0.000000 0.000000 0.000000 0.043716 0.000000 0.000000
# 5 0.000000 0.000000 0.000000 0.000000 0.043716 0.000000
# 6 0.000000 0.000000 0.000000 0.000000 0.000000 0.049347
#
#
# Mechanical properties :
#
#
# Convention : Reuss Voigt Hill
#
# Bulk Modulus (GPa) = 39.10834 40.36753 39.73793
# Shear Modulus (GPa) = 19.49067 19.99290 19.74178
#
# Velocity S-wave (km/s) = 3.41623 3.45997 3.43817
# Velocity P-wave (km/s) = 6.24325 6.33507 6.28933
#
# Compressibility (1/GPa) = 0.02556999
#
# Stress axis : x y z
#
# Youngs Moduli (GPa) = 46.31833 46.31833 39.64914
#
# Poissons Ratio (x) = 0.40227 0.25237
# Poissons Ratio (y) = 0.40227 0.25237
# Poissons Ratio (z) = 0.29483 0.29483
#
# Static dielectric constant tensor:
#      x y z
#    x 1.582230 0.000000 0.000000 
#    y 0.000000 1.582230 0.000000 
#    z 0.000000 0.000000 1.597410 
# 
# From -- ./inp_files/14619.got.cif
#   From: 2010.05.17/outbox.cif.g08.bks.cpg/sg139_8_cif.got.tgz:14619.got - 2010.05.20 13:14:44.
