data_PCOD9571112
_publ_section_title
;
Structure prediction by ZEFSAII (Michael W. Deem and Ramdas Pophale) SiO2 
 PCOD9571112
Probable space group: P 42/N C M
;
_chemical_formula_sum "Si O2"
_cell_formula_units_Z 48
_cell_length_a 15.562477
_cell_length_b 15.562477
_cell_length_c 8.832352
_cell_angle_alpha 90.000000
_cell_angle_beta 90.000000
_cell_angle_gamma 90.000000
_cell_volume 2139.113429
_symmetry_space_group_name_H-M "P 42/N C M"
_symmetry_group_IT_number 138
_space_group.IT_coordinate_system_code '2'
_symmetry_cell_setting 'tetragonal'
loop_
_space_group_symop_operation_xyz
x,y,z
1/2-y,x,1/2+z
1/2-x,1/2-y,z
y,1/2-x,1/2+z
1/2+x,-y,1/2-z
-x,1/2+y,1/2-z
1/2+y,1/2+x,-z
-y,-x,-z
-x,-y,-z
1/2+y,-x,1/2-z
1/2+x,1/2+y,-z
-y,1/2+x,1/2-z
1/2-x,y,1/2+z
x,1/2-y,1/2+z
1/2-y,1/2-x,z
y,x,z
loop_
_atom_site_type_symbol
_atom_site_label
_atom_site_fract_x
_atom_site_fract_y
_atom_site_fract_z
Si Si1 0.221801 0.026086 0.274905
Si Si2 0.315839 0.315839 0.854737
Si Si3 0.566415 0.933586 0.426218
Si Si4 0.135000 0.509350 0.082628
O O1 0.259775 0.120921 0.251846
O O2 0.134753 0.016437 0.180073
O O3 0.301950 0.968421 0.221044
O O4 0.197953 0.023799 0.450481
O O5 0.250000 0.250000 0.933125
O O6 0.376869 0.376869 0.957003
O O7 0.500000 0.000000 0.500000
O O8 0.062029 0.437972 0.119369
O O9 0.086886 0.586886 0.000000
#
# Coordination Sequence:
#
# PCOD9571112 Si02
#       4
#    16   8   8  16
#     4  12  24  41  67 102 138 182 227 290 353 419
#     4  12  24  39  67 107 143 170 231 298 359 413
#     4  12  28  41  65 104 145 188 228 285 365 440
#     4  11  25  43  68 100 141 186 232 285 360 437
#
# _framework density 22.439202000000002
#
# number of rings (size 3 to 8) (size 9 to 14) (size 15 to 20)
#    0.000    0.333    8.333    0.000    7.000    0.000 
#    0.000    0.000    0.000    8.000    0.000    0.000 
#    0.000    0.000    0.000    0.000    0.000    0.000 
#
# Total GULP energy -268282.962523 kJ/mol
# GULP energy per Si atom -5589.228386 kJ/mol
# Density = 2.238813 g / cm^3
# Si number density = 22.439202 Si / 1000 Ang^3
#
#
#
# Elastic Constant Matrix: (Units=GPa)
#
#
# Indices 1 2 3 4 5 6 
#
# 1 60.9398 20.8284 5.6426 0.0000 0.0000 0.0000
# 2 20.8284 60.9398 5.6426 0.0000 0.0000 0.0000
# 3 5.6426 5.6426 57.7838 0.0000 0.0000 0.0000
# 4 0.0000 0.0000 0.0000 29.9611 0.0000 0.0000
# 5 0.0000 0.0000 0.0000 0.0000 29.9611 0.0000
# 6 0.0000 0.0000 0.0000 0.0000 0.0000 49.9078
#
#
#
# Elastic Compliance Matrix: (Units=1/GPa)
#
#
# Indices 1 2 3 4 5 6 
#
# 1 0.018664 -0.006267 -0.001211 0.000000 0.000000 0.000000
# 2 -0.006267 0.018664 -0.001211 0.000000 0.000000 0.000000
# 3 -0.001211 -0.001211 0.017542 0.000000 0.000000 0.000000
# 4 0.000000 0.000000 0.000000 0.033377 0.000000 0.000000
# 5 0.000000 0.000000 0.000000 0.000000 0.033377 0.000000
# 6 0.000000 0.000000 0.000000 0.000000 0.000000 0.020037
#
#
# Mechanical properties :
#
#
# Convention : Reuss Voigt Hill
#
# Bulk Modulus (GPa) = 26.67119 27.09896 26.88508
# Shear Modulus (GPa) = 29.14878 31.80264 30.47571
#
# Velocity S-wave (km/s) = 3.60809 3.76876 3.68930
# Velocity P-wave (km/s) = 5.41013 5.57144 5.49138
#
# Compressibility (1/GPa) = 0.03749364
#
# Stress axis : x y z
#
# Youngs Moduli (GPa) = 53.58003 53.58003 57.00504
#
# Poissons Ratio (x) = 0.33578 0.06901
# Poissons Ratio (y) = 0.33578 0.06901
# Poissons Ratio (z) = 0.06486 0.06486
#
# Static dielectric constant tensor:
#      x y z
#    x 1.876810 0.000000 0.000000 
#    y 0.000000 1.876810 0.000000 
#    z 0.000000 0.000000 1.912530 
# 
# From -- ./inp_files/2439.got.cif
#   From: 2010.05.17/outbox.cif.g08.bks.cpg/sg138_2_cif.got.tgz:2439.got - 2010.05.20 13:08:53.
