data_PCOD9571885
_publ_section_title
;
Structure prediction by ZEFSAII (Michael W. Deem and Ramdas Pophale) SiO2 
 PCOD9571885
Probable space group: I 4/M M M
;
_chemical_formula_sum "Si O2"
_cell_formula_units_Z 168
_cell_length_a 24.265682
_cell_length_b 24.265682
_cell_length_c 15.550172
_cell_angle_alpha 90.000000
_cell_angle_beta 90.000000
_cell_angle_gamma 90.000000
_cell_volume 9156.303949
_symmetry_space_group_name_H-M "I 4/M M M"
_symmetry_group_IT_number 139
_symmetry_cell_setting 'tetragonal'
loop_
_space_group_symop_operation_xyz
x,y,z
-y,x,z
-x,-y,z
y,-x,z
x,-y,-z
-x,y,-z
y,x,-z
-y,-x,-z
-x,-y,-z
y,-x,-z
x,y,-z
-y,x,-z
-x,y,z
x,-y,z
-y,-x,z
y,x,z
1/2+x,1/2+y,1/2+z
1/2-y,1/2+x,1/2+z
1/2-x,1/2-y,1/2+z
1/2+y,1/2-x,1/2+z
1/2+x,1/2-y,1/2-z
1/2-x,1/2+y,1/2-z
1/2+y,1/2+x,1/2-z
1/2-y,1/2-x,1/2-z
1/2-x,1/2-y,1/2-z
1/2+y,1/2-x,1/2-z
1/2+x,1/2+y,1/2-z
1/2-y,1/2+x,1/2-z
1/2-x,1/2+y,1/2+z
1/2+x,1/2-y,1/2+z
1/2-y,1/2-x,1/2+z
1/2+y,1/2+x,1/2+z
loop_
_atom_site_type_symbol
_atom_site_label
_atom_site_fract_x
_atom_site_fract_y
_atom_site_fract_z
Si Si1 0.436841 0.063554 0.354077
Si Si2 0.063524 0.200376 0.000000
Si Si3 0.628918 0.718274 0.143663
Si Si4 0.432774 0.432774 0.500000
Si Si5 0.769654 0.861378 0.839649
Si Si6 0.849171 0.342792 0.599358
Si Si7 0.152969 0.935295 0.500000
O O1 0.500000 0.077528 0.380322
O O2 0.435661 0.064340 0.250000
O O3 0.390692 0.106057 0.385377
O O4 0.426031 0.000000 0.380988
O O5 0.094889 0.220028 0.085472
O O6 0.067410 0.134894 0.000000
O O7 0.000000 0.218800 0.000000
O O8 0.688672 0.688672 0.129513
O O9 0.617315 0.714029 0.245104
O O10 0.628069 0.781818 0.117015
O O11 0.587261 0.685158 0.083441
O O12 0.500000 0.432056 0.500000
O O13 0.806881 0.806881 0.856065
O O14 0.704765 0.849115 0.841879
O O15 0.831214 0.345404 0.500000
O O16 0.093784 0.906216 0.500000
O O17 0.149811 0.000000 0.500000
#
# Coordination Sequence:
#
# PCOD9571885 Si02
#       7
#    32  16  32   8  32  32  16
#     4   9  20  40  61  80 110 154 200 246 294 342
#     4  11  22  37  59  88 123 161 201 241 294 362
#     4  10  22  40  63  89 120 159 200 247 300 354
#     4   9  18  36  62  86 114 156 202 250 296 348
#     4  11  22  39  60  88 124 163 197 241 301 357
#     4  12  23  36  60  89 122 158 200 245 296 355
#     4  10  22  42  66  91 121 156 201 256 311 365
#
# _framework density 18.348013999999999
#
# number of rings (size 3 to 8) (size 9 to 14) (size 15 to 20)
#    0.000    1.571    2.857    2.857    0.000    5.429 
#    0.000    0.952    0.000    0.000    0.000    0.000 
#    0.000    0.000    0.000    0.000    0.000    0.000 
#
# Total GULP energy -467861.345220 kJ/mol
# GULP energy per Si atom -5569.777919 kJ/mol
# Density = 1.830625 g / cm^3
# Si number density = 18.348014 Si / 1000 Ang^3
#
#
#
# Elastic Constant Matrix: (Units=GPa)
#
#
# Indices 1 2 3 4 5 6 
#
# 1 131.6793 68.8216 40.1058 0.0000 0.0000 0.0000
# 2 68.8216 131.6793 40.1057 0.0000 0.0000 0.0000
# 3 40.1058 40.1057 102.3179 0.0000 0.0000 0.0000
# 4 0.0000 0.0000 0.0000 17.1359 0.0000 0.0000
# 5 0.0000 0.0000 0.0000 0.0000 17.1360 0.0000
# 6 0.0000 0.0000 0.0000 0.0000 0.0000 17.2545
#
#
#
# Elastic Compliance Matrix: (Units=1/GPa)
#
#
# Indices 1 2 3 4 5 6 
#
# 1 0.010912 -0.004997 -0.002319 0.000000 0.000000 0.000000
# 2 -0.004997 0.010912 -0.002319 0.000000 0.000000 0.000000
# 3 -0.002319 -0.002319 0.011591 0.000000 0.000000 0.000000
# 4 0.000000 0.000000 0.000000 0.058357 0.000000 0.000000
# 5 0.000000 0.000000 0.000000 0.000000 0.058357 0.000000
# 6 0.000000 0.000000 0.000000 0.000000 0.000000 0.057956
#
#
# Mechanical properties :
#
#
# Convention : Reuss Voigt Hill
#
# Bulk Modulus (GPa) = 70.68622 73.74918 72.21770
# Shear Modulus (GPa) = 21.54535 24.74816 23.14675
#
# Velocity S-wave (km/s) = 3.43047 3.67661 3.55567
# Velocity P-wave (km/s) = 7.36883 7.63578 7.50350
#
# Compressibility (1/GPa) = 0.01414703
#
# Stress axis : x y z
#
# Youngs Moduli (GPa) = 91.64220 91.64222 86.27335
#
# Poissons Ratio (x) = 0.45793 0.20003
# Poissons Ratio (y) = 0.45793 0.20003
# Poissons Ratio (z) = 0.21248 0.21248
#
# Static dielectric constant tensor:
#      x y z
#    x 1.616500 0.000000 0.000000 
#    y 0.000000 1.616500 0.000000 
#    z 0.000000 0.000000 1.664330 
# 
# From -- ./inp_files/6179.got.cif
#   From: 2010.05.17/outbox.cif.g08.bks.cpg/sg139_4_cif.got.tgz:6179.got - 2010.05.20 13:14:44.
