data_PCOD9571623
_publ_section_title
;
Structure prediction by ZEFSAII (Michael W. Deem and Ramdas Pophale) SiO2 
 PCOD9571623
Probable space group: I 4/M M M
;
_chemical_formula_sum "Si O2"
_cell_formula_units_Z 144
_cell_length_a 18.970672
_cell_length_b 18.970672
_cell_length_c 21.457691
_cell_angle_alpha 90.000000
_cell_angle_beta 90.000000
_cell_angle_gamma 90.000000
_cell_volume 7722.331083
_symmetry_space_group_name_H-M "I 4/M M M"
_symmetry_group_IT_number 139
_symmetry_cell_setting 'tetragonal'
loop_
_space_group_symop_operation_xyz
x,y,z
-y,x,z
-x,-y,z
y,-x,z
x,-y,-z
-x,y,-z
y,x,-z
-y,-x,-z
-x,-y,-z
y,-x,-z
x,y,-z
-y,x,-z
-x,y,z
x,-y,z
-y,-x,z
y,x,z
1/2+x,1/2+y,1/2+z
1/2-y,1/2+x,1/2+z
1/2-x,1/2-y,1/2+z
1/2+y,1/2-x,1/2+z
1/2+x,1/2-y,1/2-z
1/2-x,1/2+y,1/2-z
1/2+y,1/2+x,1/2-z
1/2-y,1/2-x,1/2-z
1/2-x,1/2-y,1/2-z
1/2+y,1/2-x,1/2-z
1/2+x,1/2+y,1/2-z
1/2-y,1/2+x,1/2-z
1/2-x,1/2+y,1/2+z
1/2+x,1/2-y,1/2+z
1/2-y,1/2-x,1/2+z
1/2+y,1/2+x,1/2+z
loop_
_atom_site_type_symbol
_atom_site_label
_atom_site_fract_x
_atom_site_fract_y
_atom_site_fract_z
Si Si1 0.342611 0.916924 0.371140
Si Si2 0.700365 0.583090 0.188644
Si Si3 0.585317 0.080545 0.000000
Si Si4 0.916161 0.706971 0.810696
Si Si5 0.417060 0.699475 0.569362
O O1 0.258550 0.907274 0.365733
O O2 0.377205 0.897533 0.437250
O O3 0.377868 0.867169 0.319741
O O4 0.356168 0.000000 0.359096
O O5 0.681413 0.500000 0.191651
O O6 0.634003 0.634003 0.182217
O O7 0.743545 0.601140 0.251999
O O8 0.500000 0.075262 0.000000
O O9 0.613540 0.000000 0.000000
O O10 0.898917 0.749968 0.873700
O O11 0.000000 0.694678 0.808354
O O12 0.404737 0.730520 0.500000
O O13 0.500000 0.683288 0.574104
O O14 0.370309 0.629692 0.573920
#
# Coordination Sequence:
#
# PCOD9571623 Si02
#       5
#    32  32  16  32  32
#     4  10  21  36  56  83 113 148 190 231 276 337
#     4  10  22  40  60  83 111 146 190 241 295 345
#     4   9  18  34  57  84 115 151 187 222 265 322
#     4  10  20  33  53  80 113 150 187 230 280 334
#     4   9  18  31  47  71 104 142 187 237 285 335
#
# _framework density 18.647220000000001
#
# number of rings (size 3 to 8) (size 9 to 14) (size 15 to 20)
#    0.000    2.333    0.000    2.000    1.556    4.444 
#    0.000    2.778    0.000   12.000    0.000    0.000 
#    0.000    4.444    0.000    0.000    0.000    0.000 
#
# Total GULP energy -401722.865139 kJ/mol
# GULP energy per Si atom -5579.484238 kJ/mol
# Density = 1.860478 g / cm^3
# Si number density = 18.647220 Si / 1000 Ang^3
#
#
#
# Elastic Constant Matrix: (Units=GPa)
#
#
# Indices 1 2 3 4 5 6 
#
# 1 86.6746 73.6265 54.7337 0.0000 0.0000 0.0000
# 2 73.6265 86.6746 54.7337 0.0000 0.0000 0.0000
# 3 54.7337 54.7337 108.0826 0.0000 0.0000 0.0000
# 4 0.0000 0.0000 0.0000 23.7231 0.0000 0.0000
# 5 0.0000 0.0000 0.0000 0.0000 23.7231 0.0000
# 6 0.0000 0.0000 0.0000 0.0000 0.0000 37.2244
#
#
#
# Elastic Compliance Matrix: (Units=1/GPa)
#
#
# Indices 1 2 3 4 5 6 
#
# 1 0.043088 -0.033552 -0.004829 0.000000 0.000000 0.000000
# 2 -0.033552 0.043088 -0.004829 0.000000 0.000000 0.000000
# 3 -0.004829 -0.004829 0.014143 0.000000 0.000000 0.000000
# 4 0.000000 0.000000 0.000000 0.042153 0.000000 0.000000
# 5 0.000000 0.000000 0.000000 0.000000 0.042153 0.000000
# 6 0.000000 0.000000 0.000000 0.000000 0.000000 0.026864
#
#
# Mechanical properties :
#
#
# Convention : Reuss Voigt Hill
#
# Bulk Modulus (GPa) = 71.94882 71.95774 71.95328
# Shear Modulus (GPa) = 16.52668 23.48997 20.00833
#
# Velocity S-wave (km/s) = 2.98028 3.55308 3.27921
# Velocity P-wave (km/s) = 7.10709 7.45019 7.28066
#
# Compressibility (1/GPa) = 0.01389877
#
# Stress axis : x y z
#
# Youngs Moduli (GPa) = 23.20852 23.20852 70.70578
#
# Poissons Ratio (x) = 0.77868 0.34144
# Poissons Ratio (y) = 0.77868 0.34144
# Poissons Ratio (z) = 0.11208 0.11208
#
# Static dielectric constant tensor:
#      x y z
#    x 1.632970 0.000000 0.000000 
#    y 0.000000 1.632970 0.000000 
#    z 0.000000 0.000000 1.683250 
# 
# From -- ./inp_files/11448.got.cif
#   From: 2010.05.17/outbox.cif.g08.bks.cpg/sg139_6_cif.got.tgz:11448.got - 2010.05.20 13:14:44.
