data_PCOD9571322
_publ_section_title
;
Structure prediction by ZEFSAII (Michael W. Deem and Ramdas Pophale) SiO2 
 PCOD9571322
Probable space group: I 4/M M M
;
_chemical_formula_sum "Si O2"
_cell_formula_units_Z 112
_cell_length_a 13.747026
_cell_length_b 13.747026
_cell_length_c 37.077899
_cell_angle_alpha 90.000000
_cell_angle_beta 90.000000
_cell_angle_gamma 90.000000
_cell_volume 7007.008192
_symmetry_space_group_name_H-M "I 4/M M M"
_symmetry_group_IT_number 139
_symmetry_cell_setting 'tetragonal'
loop_
_space_group_symop_operation_xyz
x,y,z
-y,x,z
-x,-y,z
y,-x,z
x,-y,-z
-x,y,-z
y,x,-z
-y,-x,-z
-x,-y,-z
y,-x,-z
x,y,-z
-y,x,-z
-x,y,z
x,-y,z
-y,-x,z
y,x,z
1/2+x,1/2+y,1/2+z
1/2-y,1/2+x,1/2+z
1/2-x,1/2-y,1/2+z
1/2+y,1/2-x,1/2+z
1/2+x,1/2-y,1/2-z
1/2-x,1/2+y,1/2-z
1/2+y,1/2+x,1/2-z
1/2-y,1/2-x,1/2-z
1/2-x,1/2-y,1/2-z
1/2+y,1/2-x,1/2-z
1/2+x,1/2+y,1/2-z
1/2-y,1/2+x,1/2-z
1/2-x,1/2+y,1/2+z
1/2+x,1/2-y,1/2+z
1/2-y,1/2-x,1/2+z
1/2+y,1/2+x,1/2+z
loop_
_atom_site_type_symbol
_atom_site_label
_atom_site_fract_x
_atom_site_fract_y
_atom_site_fract_z
Si Si1 0.616455 0.224003 0.717942
Si Si2 0.889041 0.382158 0.644726
Si Si3 0.274210 0.883064 0.072468
Si Si4 0.118048 0.388934 0.000000
O O1 0.500000 0.235535 0.719698
O O2 0.674821 0.325180 0.720622
O O3 0.655161 0.155161 0.750000
O O4 0.643267 0.172544 0.680081
O O5 0.893603 0.500000 0.644253
O O6 0.835783 0.354055 0.607784
O O7 0.000000 0.345997 0.646535
O O8 0.172210 0.827791 0.073108
O O9 0.262446 0.000000 0.072678
O O10 0.332177 0.854699 0.036272
O O11 0.153376 0.500000 0.000000
O O12 0.000000 0.392701 0.000000
#
# Coordination Sequence:
#
# PCOD9571322 Si02
#       4
#    32  32  32  16
#     4  10  20  33  50  73 100 130 164 201 243 292
#     4   9  17  30  48  68  91 121 157 198 240 277
#     4  10  19  30  45  67  96 127 157 189 228 279
#     4   9  17  30  47  65  87 117 153 195 239 274
#
# _framework density 15.983998
#
# number of rings (size 3 to 8) (size 9 to 14) (size 15 to 20)
#    0.000    2.429    0.000    3.000    0.000    5.429 
#    0.000    0.000    0.000    7.714    0.000    0.000 
#    0.000   41.714    0.000    0.000    0.000    0.000 
#
# Total GULP energy -312123.413158 kJ/mol
# GULP energy per Si atom -5573.632378 kJ/mol
# Density = 1.594762 g / cm^3
# Si number density = 15.983998 Si / 1000 Ang^3
#
#
#
# Elastic Constant Matrix: (Units=GPa)
#
#
# Indices 1 2 3 4 5 6 
#
# 1 82.0600 50.2243 48.9910 0.0000 0.0000 0.0000
# 2 50.2243 82.0600 48.9910 0.0000 0.0000 0.0000
# 3 48.9910 48.9910 154.6296 0.0000 0.0000 0.0000
# 4 0.0000 0.0000 0.0000 15.6731 0.0000 0.0000
# 5 0.0000 0.0000 0.0000 0.0000 15.6731 0.0000
# 6 0.0000 0.0000 0.0000 0.0000 0.0000 7.8233
#
#
#
# Elastic Compliance Matrix: (Units=1/GPa)
#
#
# Indices 1 2 3 4 5 6 
#
# 1 0.020644 -0.010767 -0.003129 0.000000 0.000000 0.000000
# 2 -0.010767 0.020644 -0.003129 0.000000 0.000000 0.000000
# 3 -0.003129 -0.003129 0.008450 0.000000 0.000000 0.000000
# 4 0.000000 0.000000 0.000000 0.063803 0.000000 0.000000
# 5 0.000000 0.000000 0.000000 0.000000 0.063803 0.000000
# 6 0.000000 0.000000 0.000000 0.000000 0.000000 0.127823
#
#
# Mechanical properties :
#
#
# Convention : Reuss Voigt Hill
#
# Bulk Modulus (GPa) = 63.74649 68.35134 66.04892
# Shear Modulus (GPa) = 14.51592 19.20347 16.85970
#
# Velocity S-wave (km/s) = 3.01683 3.46991 3.25127
# Velocity P-wave (km/s) = 7.21824 7.67521 7.45023
#
# Compressibility (1/GPa) = 0.01568714
#
# Stress axis : x y z
#
# Youngs Moduli (GPa) = 48.43934 48.43934 118.34236
#
# Poissons Ratio (x) = 0.52154 0.37035
# Poissons Ratio (y) = 0.52154 0.37035
# Poissons Ratio (z) = 0.15159 0.15159
#
# Static dielectric constant tensor:
#      x y z
#    x 1.516810 0.000000 0.000000 
#    y 0.000000 1.516810 0.000000 
#    z 0.000000 0.000000 1.540450 
# 
# From -- ./inp_files/13728.got.cif
#   From: 2010.05.17/outbox.cif.g08.bks.cpg/sg139_7_cif.got.tgz:13728.got - 2010.05.20 13:14:44.
