data_PCOD9571845
_publ_section_title
;
Structure prediction by ZEFSAII (Michael W. Deem and Ramdas Pophale) SiO2 
 PCOD9571845
Probable space group: I 4/M M M
;
_chemical_formula_sum "Si O2"
_cell_formula_units_Z 144
_cell_length_a 29.949491
_cell_length_b 29.949491
_cell_length_c 8.817702
_cell_angle_alpha 90.000000
_cell_angle_beta 90.000000
_cell_angle_gamma 90.000000
_cell_volume 7909.231897
_symmetry_space_group_name_H-M "I 4/M M M"
_symmetry_group_IT_number 139
_symmetry_cell_setting 'tetragonal'
loop_
_space_group_symop_operation_xyz
x,y,z
-y,x,z
-x,-y,z
y,-x,z
x,-y,-z
-x,y,-z
y,x,-z
-y,-x,-z
-x,-y,-z
y,-x,-z
x,y,-z
-y,x,-z
-x,y,z
x,-y,z
-y,-x,z
y,x,z
1/2+x,1/2+y,1/2+z
1/2-y,1/2+x,1/2+z
1/2-x,1/2-y,1/2+z
1/2+y,1/2-x,1/2+z
1/2+x,1/2-y,1/2-z
1/2-x,1/2+y,1/2-z
1/2+y,1/2+x,1/2-z
1/2-y,1/2-x,1/2-z
1/2-x,1/2-y,1/2-z
1/2+y,1/2-x,1/2-z
1/2+x,1/2+y,1/2-z
1/2-y,1/2+x,1/2-z
1/2-x,1/2+y,1/2+z
1/2+x,1/2-y,1/2+z
1/2-y,1/2-x,1/2+z
1/2+y,1/2+x,1/2+z
loop_
_atom_site_type_symbol
_atom_site_label
_atom_site_fract_x
_atom_site_fract_y
_atom_site_fract_z
Si Si1 0.914667 0.839346 0.172880
Si Si2 0.000000 0.702589 0.816609
Si Si3 0.500000 0.695125 0.177398
Si Si4 0.369644 0.755467 0.673455
Si Si5 0.283740 0.716261 0.178166
Si Si6 0.410551 0.841510 0.818242
O O1 0.872904 0.872904 0.214272
O O2 0.902972 0.786355 0.166102
O O3 0.957456 0.835746 0.279768
O O4 0.926970 0.851973 0.000000
O O5 0.000000 0.754694 0.756954
O O6 0.957458 0.674136 0.756602
O O7 0.000000 0.704407 0.000000
O O8 0.500000 0.705387 0.000000
O O9 0.360395 0.769711 0.500000
O O10 0.329770 0.731345 0.755177
O O11 0.381458 0.798389 0.771533
O O12 0.250000 0.750000 0.250000
O O13 0.283457 0.716544 0.000000
O O14 0.385084 0.885084 0.750000
O O15 0.414624 0.845857 0.000000
#
# Coordination Sequence:
#
# PCOD9571845 Si02
#       6
#    32  16  16  32  16  32
#     4  10  21  39  63  88 120 162 207 254 309 371
#     4  12  24  42  66  93 126 167 212 262 312 367
#     4  12  24  38  62  95 128 163 206 258 315 375
#     4  11  21  37  58  83 117 158 203 250 304 365
#     4  12  24  36  50  72 110 158 207 252 297 360
#     4  12  25  42  63  92 125 163 207 256 313 371
#
# _framework density 18.206571
#
# number of rings (size 3 to 8) (size 9 to 14) (size 15 to 20)
#    0.000    0.667    3.333    6.333    0.000    1.333 
#    0.000    0.000    0.000    0.667    0.000    4.667 
#    0.000    0.000    0.000    0.000    0.000    0.000 
#
# Total GULP energy -401027.077808 kJ/mol
# GULP energy per Si atom -5569.820525 kJ/mol
# Density = 1.816513 g / cm^3
# Si number density = 18.206571 Si / 1000 Ang^3
#
#
#
# Elastic Constant Matrix: (Units=GPa)
#
#
# Indices 1 2 3 4 5 6 
#
# 1 56.8186 71.3194 41.1608 0.0000 0.0000 0.0000
# 2 71.3194 56.8186 41.1579 0.0000 0.0000 0.0000
# 3 41.1608 41.1579 120.4945 0.0000 0.0000 0.0000
# 4 0.0000 0.0000 0.0000 24.6756 0.0000 0.0000
# 5 0.0000 0.0000 0.0000 0.0000 24.6755 0.0000
# 6 0.0000 0.0000 0.0000 0.0000 0.0000 19.1251
#
#
#
# Elastic Compliance Matrix: (Units=1/GPa)
#
#
# Indices 1 2 3 4 5 6 
#
# 1 -0.029483 0.039480 -0.003414 0.000000 0.000000 0.000000
# 2 0.039480 -0.029481 -0.003416 0.000000 0.000000 0.000000
# 3 -0.003414 -0.003416 0.010632 0.000000 0.000000 0.000000
# 4 0.000000 0.000000 0.000000 0.040526 0.000000 0.000000
# 5 0.000000 0.000000 0.000000 0.000000 0.040526 0.000000
# 6 0.000000 0.000000 0.000000 0.000000 0.000000 0.052287
#
#
# Mechanical properties :
#
#
# Convention : Reuss Voigt Hill
#
# Bulk Modulus (GPa) = 58.93570 60.15643 59.54607
# Shear Modulus (GPa) = 197.12369 19.06148 108.09258
#
# Velocity S-wave (km/s) = 10.41661 3.23918 7.71356
# Velocity P-wave (km/s) = 13.30846 6.86313 10.58814
#
# Compressibility (1/GPa) = 0.01696764
#
# Stress axis : x y z
#
# Youngs Moduli (GPa) = -33.91838 -33.92000 94.05285
#
# Poissons Ratio (x) = 1.33916 0.32111
# Poissons Ratio (y) = 1.33910 0.32131
# Poissons Ratio (z) = -0.11580 -0.11588
#
# Static dielectric constant tensor:
#      x y z
#    x 1.675880 0.000000 0.000000 
#    y 0.000000 1.675880 0.000000 
#    z 0.000000 0.000000 1.620200 
# 
# From -- ./inp_files/2072.got.cif
#   From: 2010.05.17/outbox.cif.g08.bks.cpg/sg139_2_cif.got.tgz:2072.got - 2010.05.20 13:14:44.
