data_PCOD9572756
_publ_section_title
;
Structure prediction by ZEFSAII (Michael W. Deem and Ramdas Pophale) SiO2 
 PCOD9572756
Probable space group: I 41/A M D
;
_chemical_formula_sum "Si O2"
_cell_formula_units_Z 144
_cell_length_a 25.673894
_cell_length_b 25.673894
_cell_length_c 15.845387
_cell_angle_alpha 90.000000
_cell_angle_beta 90.000000
_cell_angle_gamma 90.000000
_cell_volume 10444.468351
_symmetry_space_group_name_H-M "I 41/A M D"
_symmetry_group_IT_number 141
_space_group.IT_coordinate_system_code '2'
_symmetry_cell_setting 'tetragonal'
loop_
_space_group_symop_operation_xyz
x,y,z
1/4-y,3/4+x,1/4+z
-x,1/2-y,z
1/4+y,1/4-x,3/4+z
x,-y,-z
-x,1/2+y,-z
1/4+y,3/4+x,1/4-z
1/4-y,1/4-x,3/4-z
-x,-y,-z
3/4+y,1/4-x,3/4-z
x,1/2+y,-z
3/4-y,3/4+x,1/4-z
-x,y,z
x,1/2-y,z
3/4-y,1/4-x,3/4+z
3/4+y,3/4+x,1/4+z
1/2+x,1/2+y,1/2+z
3/4-y,1/4+x,3/4+z
1/2-x,-y,1/2+z
3/4+y,3/4-x,1/4+z
1/2+x,1/2-y,1/2-z
1/2-x,y,1/2-z
3/4+y,1/4+x,3/4-z
3/4-y,3/4-x,1/4-z
1/2-x,1/2-y,1/2-z
1/4+y,3/4-x,1/4-z
1/2+x,y,1/2-z
1/4-y,1/4+x,3/4-z
1/2-x,1/2+y,1/2+z
1/2+x,-y,1/2+z
1/4-y,3/4-x,1/4+z
1/4+y,1/4+x,3/4+z
loop_
_atom_site_type_symbol
_atom_site_label
_atom_site_fract_x
_atom_site_fract_y
_atom_site_fract_z
Si Si1 0.058674 0.607327 0.598138
Si Si2 0.303212 0.137886 0.302558
Si Si3 0.204595 0.000000 0.000000
Si Si4 0.060686 0.997896 0.708654
Si Si5 0.271624 0.093167 0.929591
O O1 0.099964 0.650037 0.625000
O O2 0.073371 0.586083 0.505831
O O3 0.062317 0.557889 0.660865
O O4 0.000000 0.627233 0.600210
O O5 0.250000 0.127317 0.250000
O O6 0.287760 0.164618 0.390606
O O7 0.332631 0.083227 0.312367
O O8 0.241522 0.949605 0.012724
O O9 0.170284 0.006093 0.083839
O O10 0.099792 0.993670 0.787462
O O11 0.000000 0.009496 0.727196
#
# Coordination Sequence:
#
# PCOD9572756 Si02
#       5
#    32  32  16  32  32
#     4  10  19  29  43  64  90 121 159 193 223 262
#     4  10  18  28  46  65  94 124 155 189 229 275
#     4  10  22  28  47  76  97 116 154 196 246 288
#     4  10  20  32  47  66  92 128 161 190 229 283
#     4  11  18  31  47  71  97 123 153 198 237 290
#
# _framework density 13.787203
#
# number of rings (size 3 to 8) (size 9 to 14) (size 15 to 20)
#    0.000    1.778    5.556    0.667    0.000    2.889 
#    0.000    0.556    0.000    0.000    0.000    0.000 
#    0.000    0.000    0.000    0.222    0.000    0.000 
#
# Total GULP energy -401405.542733 kJ/mol
# GULP energy per Si atom -5575.076982 kJ/mol
# Density = 1.375582 g / cm^3
# Si number density = 13.787203 Si / 1000 Ang^3
#
#
#
# Elastic Constant Matrix: (Units=GPa)
#
#
# Indices 1 2 3 4 5 6 
#
# 1 73.7334 23.5425 32.8275 0.0000 0.0000 0.0000
# 2 23.5425 73.7335 32.8265 0.0000 0.0000 0.0000
# 3 32.8275 32.8265 64.2971 0.0000 0.0000 0.0000
# 4 0.0000 0.0000 0.0000 15.2452 0.0000 0.0000
# 5 0.0000 0.0000 0.0000 0.0000 15.2444 0.0000
# 6 0.0000 0.0000 0.0000 0.0000 0.0000 12.1766
#
#
#
# Elastic Compliance Matrix: (Units=1/GPa)
#
#
# Indices 1 2 3 4 5 6 
#
# 1 0.017805 -0.002120 -0.008008 0.000000 0.000000 0.000000
# 2 -0.002120 0.017804 -0.008008 0.000000 0.000000 0.000000
# 3 -0.008008 -0.008008 0.023730 0.000000 0.000000 0.000000
# 4 0.000000 0.000000 0.000000 0.065595 0.000000 0.000000
# 5 0.000000 0.000000 0.000000 0.000000 0.065598 0.000000
# 6 0.000000 0.000000 0.000000 0.000000 0.000000 0.082125
#
#
# Mechanical properties :
#
#
# Convention : Reuss Voigt Hill
#
# Bulk Modulus (GPa) = 43.35073 43.35078 43.35075
# Shear Modulus (GPa) = 15.79201 16.70439 16.24820
#
# Velocity S-wave (km/s) = 3.38806 3.48456 3.43665
# Velocity P-wave (km/s) = 6.84224 6.90656 6.87448
#
# Compressibility (1/GPa) = 0.02306766
#
# Stress axis : x y z
#
# Youngs Moduli (GPa) = 56.16557 56.16668 42.14130
#
# Poissons Ratio (x) = 0.11905 0.33747
# Poissons Ratio (y) = 0.11905 0.33745
# Poissons Ratio (z) = 0.44978 0.44976
#
# Static dielectric constant tensor:
#      x y z
#    x 1.440110 0.000000 0.000000 
#    y 0.000000 1.440110 0.000000 
#    z 0.000000 0.000000 1.444750 
# 
# From -- ./inp_files/8764.got.cif
#   From: 2010.05.17/outbox.cif.g08.bks.cpg/sg141_5_cif.got.tgz:8764.got - 2010.05.20 13:30:51.
