data_PCOD9572966
_publ_section_title
;
Structure prediction by ZEFSAII (Michael W. Deem and Ramdas Pophale) SiO2 
 PCOD9572966
Probable space group: I 41/A M D
;
_chemical_formula_sum "Si O2"
_cell_formula_units_Z 160
_cell_length_a 18.188163
_cell_length_b 18.188163
_cell_length_c 24.548023
_cell_angle_alpha 90.000000
_cell_angle_beta 90.000000
_cell_angle_gamma 90.000000
_cell_volume 8120.713650
_symmetry_space_group_name_H-M "I 41/A M D"
_symmetry_group_IT_number 141
_space_group.IT_coordinate_system_code '2'
_symmetry_cell_setting 'tetragonal'
loop_
_space_group_symop_operation_xyz
x,y,z
1/4-y,3/4+x,1/4+z
-x,1/2-y,z
1/4+y,1/4-x,3/4+z
x,-y,-z
-x,1/2+y,-z
1/4+y,3/4+x,1/4-z
1/4-y,1/4-x,3/4-z
-x,-y,-z
3/4+y,1/4-x,3/4-z
x,1/2+y,-z
3/4-y,3/4+x,1/4-z
-x,y,z
x,1/2-y,z
3/4-y,1/4-x,3/4+z
3/4+y,3/4+x,1/4+z
1/2+x,1/2+y,1/2+z
3/4-y,1/4+x,3/4+z
1/2-x,-y,1/2+z
3/4+y,3/4-x,1/4+z
1/2+x,1/2-y,1/2-z
1/2-x,y,1/2-z
3/4+y,1/4+x,3/4-z
3/4-y,3/4-x,1/4-z
1/2-x,1/2-y,1/2-z
1/4+y,3/4-x,1/4-z
1/2+x,y,1/2-z
1/4-y,1/4+x,3/4-z
1/2-x,1/2+y,1/2+z
1/2+x,-y,1/2+z
1/4-y,3/4-x,1/4+z
1/4+y,1/4+x,3/4+z
loop_
_atom_site_type_symbol
_atom_site_label
_atom_site_fract_x
_atom_site_fract_y
_atom_site_fract_z
Si Si1 0.916297 0.575403 0.258709
Si Si2 0.694995 0.560407 0.140741
Si Si3 0.415010 0.582086 0.705653
Si Si4 0.589476 0.165802 0.184321
Si Si5 0.695727 0.330697 0.698137
O O1 0.863201 0.557832 0.309874
O O2 0.916553 0.503476 0.221072
O O3 0.879933 0.639610 0.222969
O O4 0.000000 0.590837 0.275876
O O5 0.733475 0.483475 0.125000
O O6 0.657777 0.604961 0.091200
O O7 0.763033 0.611700 0.160090
O O8 0.500000 0.604046 0.691409
O O9 0.391732 0.622252 0.761450
O O10 0.500000 0.165664 0.181570
O O11 0.614029 0.250000 0.189821
O O12 0.613351 0.136650 0.125000
O O13 0.688929 0.250000 0.672863
O O14 0.750000 0.325470 0.750000
#
# Coordination Sequence:
#
# PCOD9572966 Si02
#       5
#    32  32  32  32  32
#     4  10  22  38  56  84 119 152 193 246 301 351
#     4  11  21  36  59  84 113 156 199 239 293 357
#     4  10  20  35  56  83 115 150 190 237 289 345
#     4   8  15  30  53  81 114 152 191 230 278 339
#     4   9  18  35  58  82 110 147 190 236 289 353
#
# _framework density 19.702701999999999
#
# number of rings (size 3 to 8) (size 9 to 14) (size 15 to 20)
#    0.000    2.400    2.000    1.200    0.000    2.800 
#    0.000    0.000    0.000    0.000    0.000    8.400 
#    0.000    0.000    0.000    0.000    0.000    0.000 
#
# Total GULP energy -446093.078078 kJ/mol
# GULP energy per Si atom -5576.163476 kJ/mol
# Density = 1.965786 g / cm^3
# Si number density = 19.702702 Si / 1000 Ang^3
#
#
#
# Elastic Constant Matrix: (Units=GPa)
#
#
# Indices 1 2 3 4 5 6 
#
# 1 66.5691 21.1415 7.0031 0.0000 0.0000 0.0000
# 2 21.1415 66.5697 7.0032 0.0000 0.0000 0.0000
# 3 7.0031 7.0032 62.4877 0.0000 0.0000 0.0000
# 4 0.0000 0.0000 0.0000 29.9821 0.0000 0.0000
# 5 0.0000 0.0000 0.0000 0.0000 29.9821 0.0000
# 6 0.0000 0.0000 0.0000 0.0000 0.0000 15.6327
#
#
#
# Elastic Compliance Matrix: (Units=1/GPa)
#
#
# Indices 1 2 3 4 5 6 
#
# 1 0.016811 -0.005202 -0.001301 0.000000 0.000000 0.000000
# 2 -0.005202 0.016811 -0.001301 0.000000 0.000000 0.000000
# 3 -0.001301 -0.001301 0.016295 0.000000 0.000000 0.000000
# 4 0.000000 0.000000 0.000000 0.033353 0.000000 0.000000
# 5 0.000000 0.000000 0.000000 0.000000 0.033353 0.000000
# 6 0.000000 0.000000 0.000000 0.000000 0.000000 0.063969
#
#
# Mechanical properties :
#
#
# Convention : Reuss Voigt Hill
#
# Bulk Modulus (GPa) = 29.14744 29.54691 29.34717
# Shear Modulus (GPa) = 24.08061 25.81795 24.94928
#
# Velocity S-wave (km/s) = 3.49979 3.62384 3.56235
# Velocity P-wave (km/s) = 5.58185 5.70426 5.64339
#
# Compressibility (1/GPa) = 0.03430833
#
# Stress axis : x y z
#
# Youngs Moduli (GPa) = 59.48499 59.48553 61.36941
#
# Poissons Ratio (x) = 0.30945 0.07984
# Poissons Ratio (y) = 0.30944 0.07984
# Poissons Ratio (z) = 0.07739 0.07739
#
# Static dielectric constant tensor:
#      x y z
#    x 1.707010 0.000000 0.000000 
#    y 0.000000 1.707010 0.000000 
#    z 0.000000 0.000000 1.704380 
# 
# From -- ./inp_files/12671.got.cif
#   From: 2010.05.17/outbox.cif.g08.bks.cpg/sg141_7_cif.got.tgz:12671.got - 2010.05.20 13:30:51.
