data_PCOD9572895
_publ_section_title
;
Structure prediction by ZEFSAII (Michael W. Deem and Ramdas Pophale) SiO2 
 PCOD9572895
Probable space group: I 41/A M D
;
_chemical_formula_sum "Si O2"
_cell_formula_units_Z 112
_cell_length_a 13.524280
_cell_length_b 13.524280
_cell_length_c 38.168998
_cell_angle_alpha 90.000000
_cell_angle_beta 90.000000
_cell_angle_gamma 90.000000
_cell_volume 6981.344455
_symmetry_space_group_name_H-M "I 41/A M D"
_symmetry_group_IT_number 141
_space_group.IT_coordinate_system_code '2'
_symmetry_cell_setting 'tetragonal'
loop_
_space_group_symop_operation_xyz
x,y,z
1/4-y,3/4+x,1/4+z
-x,1/2-y,z
1/4+y,1/4-x,3/4+z
x,-y,-z
-x,1/2+y,-z
1/4+y,3/4+x,1/4-z
1/4-y,1/4-x,3/4-z
-x,-y,-z
3/4+y,1/4-x,3/4-z
x,1/2+y,-z
3/4-y,3/4+x,1/4-z
-x,y,z
x,1/2-y,z
3/4-y,1/4-x,3/4+z
3/4+y,3/4+x,1/4+z
1/2+x,1/2+y,1/2+z
3/4-y,1/4+x,3/4+z
1/2-x,-y,1/2+z
3/4+y,3/4-x,1/4+z
1/2+x,1/2-y,1/2-z
1/2-x,y,1/2-z
3/4+y,1/4+x,3/4-z
3/4-y,3/4-x,1/4-z
1/2-x,1/2-y,1/2-z
1/4+y,3/4-x,1/4-z
1/2+x,y,1/2-z
1/4-y,1/4+x,3/4-z
1/2-x,1/2+y,1/2+z
1/2+x,-y,1/2+z
1/4-y,3/4-x,1/4+z
1/4+y,1/4+x,3/4+z
loop_
_atom_site_type_symbol
_atom_site_label
_atom_site_fract_x
_atom_site_fract_y
_atom_site_fract_z
Si Si1 0.383653 0.633139 0.200112
Si Si2 0.751750 0.000000 0.500000
Si Si3 0.384528 0.468855 0.375519
Si Si4 0.116764 0.366263 0.198950
O O1 0.500000 0.610440 0.202349
O O2 0.370763 0.750000 0.207979
O O3 0.320308 0.567096 0.226403
O O4 0.344441 0.617042 0.160616
O O5 0.819795 0.066704 0.525090
O O6 0.500000 0.499062 0.375563
O O7 0.312335 0.562335 0.375000
O O8 0.367598 0.404040 0.340741
O O9 0.139336 0.250000 0.201565
O O10 0.000000 0.379782 0.206870
#
# Coordination Sequence:
#
# PCOD9572895 Si02
#       4
#    32  16  32  32
#     4  10  21  36  55  79 107 142 179 215 261 318
#     4  12  20  34  56  80 112 138 168 220 268 316
#     4  10  19  36  57  78 104 138 180 222 259 310
#     4  10  21  36  55  79 105 138 179 218 261 312
#
# _framework density 16.042755
#
# number of rings (size 3 to 8) (size 9 to 14) (size 15 to 20)
#    0.000    1.714    2.857    2.571    0.000    3.714 
#    0.000    0.000    0.000    0.000    0.000    2.000 
#    0.000    0.000    0.000    0.000    0.000    0.000 
#
# Total GULP energy -312601.681281 kJ/mol
# GULP energy per Si atom -5582.172880 kJ/mol
# Density = 1.600624 g / cm^3
# Si number density = 16.042755 Si / 1000 Ang^3
#
#
#
# Elastic Constant Matrix: (Units=GPa)
#
#
# Indices 1 2 3 4 5 6 
#
# 1 129.7820 110.0052 98.9430 0.0000 0.0000 0.0000
# 2 110.0052 129.7820 98.9430 0.0000 0.0000 0.0000
# 3 98.9430 98.9430 148.8708 0.0000 0.0000 0.0000
# 4 0.0000 0.0000 0.0000 26.6402 0.0000 0.0000
# 5 0.0000 0.0000 0.0000 0.0000 26.6402 0.0000
# 6 0.0000 0.0000 0.0000 0.0000 0.0000 31.5431
#
#
#
# Elastic Compliance Matrix: (Units=1/GPa)
#
#
# Indices 1 2 3 4 5 6 
#
# 1 0.029900 -0.020664 -0.006139 0.000000 0.000000 0.000000
# 2 -0.020664 0.029900 -0.006139 0.000000 0.000000 0.000000
# 3 -0.006139 -0.006139 0.014877 0.000000 0.000000 0.000000
# 4 0.000000 0.000000 0.000000 0.037537 0.000000 0.000000
# 5 0.000000 0.000000 0.000000 0.000000 0.037537 0.000000
# 6 0.000000 0.000000 0.000000 0.000000 0.000000 0.031703
#
#
# Mechanical properties :
#
#
# Convention : Reuss Voigt Hill
#
# Bulk Modulus (GPa) = 113.70095 113.80195 113.75145
# Shear Modulus (GPa) = 19.97848 23.66762 21.82305
#
# Velocity S-wave (km/s) = 3.53275 3.84511 3.69223
# Velocity P-wave (km/s) = 9.36312 9.52910 9.44648
#
# Compressibility (1/GPa) = 0.00879500
#
# Stress axis : x y z
#
# Youngs Moduli (GPa) = 33.44444 33.44444 67.21745
#
# Poissons Ratio (x) = 0.69109 0.41263
# Poissons Ratio (y) = 0.69109 0.41263
# Poissons Ratio (z) = 0.20531 0.20531
#
# Static dielectric constant tensor:
#      x y z
#    x 1.508750 0.000000 0.000000 
#    y 0.000000 1.508750 0.000000 
#    z 0.000000 0.000000 1.516960 
# 
# From -- ./inp_files/12456.got.cif
#   From: 2010.05.17/outbox.cif.g08.bks.cpg/sg141_7_cif.got.tgz:12456.got - 2010.05.20 13:30:51.
