data_PCOD9572393
_publ_section_title
;
Structure prediction by ZEFSAII (Michael W. Deem and Ramdas Pophale) SiO2 
 PCOD9572393
Probable space group: I 4/M C M
;
_chemical_formula_sum "Si O2"
_cell_formula_units_Z 192
_cell_length_a 20.701676
_cell_length_b 20.701676
_cell_length_c 25.744889
_cell_angle_alpha 90.000000
_cell_angle_beta 90.000000
_cell_angle_gamma 90.000000
_cell_volume 11033.213905
_symmetry_space_group_name_H-M "I 4/M C M"
_symmetry_group_IT_number 140
_symmetry_cell_setting 'tetragonal'
loop_
_space_group_symop_operation_xyz
x,y,z
-y,x,z
-x,-y,z
y,-x,z
x,-y,1/2-z
-x,y,1/2-z
y,x,1/2-z
-y,-x,1/2-z
-x,-y,-z
y,-x,-z
x,y,-z
-y,x,-z
-x,y,1/2+z
x,-y,1/2+z
-y,-x,1/2+z
y,x,1/2+z
1/2+x,1/2+y,1/2+z
1/2-y,1/2+x,1/2+z
1/2-x,1/2-y,1/2+z
1/2+y,1/2-x,1/2+z
1/2+x,1/2-y,-z
1/2-x,1/2+y,-z
1/2+y,1/2+x,-z
1/2-y,1/2-x,-z
1/2-x,1/2-y,1/2-z
1/2+y,1/2-x,1/2-z
1/2+x,1/2+y,1/2-z
1/2-y,1/2+x,1/2-z
1/2-x,1/2+y,z
1/2+x,1/2-y,z
1/2-y,1/2-x,z
1/2+y,1/2+x,z
loop_
_atom_site_type_symbol
_atom_site_label
_atom_site_fract_x
_atom_site_fract_y
_atom_site_fract_z
Si Si1 0.411845 0.807157 0.654403
Si Si2 0.607363 0.500471 0.187738
Si Si3 0.752392 0.146553 0.241030
Si Si4 0.350945 0.740499 0.557946
Si Si5 0.244867 0.636395 0.438605
Si Si6 0.245449 0.960951 0.152671
O O1 0.375911 0.875911 0.648558
O O2 0.380259 0.773379 0.704502
O O3 0.396783 0.764579 0.603346
O O4 0.488014 0.802684 0.661570
O O5 0.562237 0.563035 0.176271
O O6 0.619655 0.500000 0.250000
O O7 0.675532 0.504598 0.158607
O O8 0.822075 0.177926 0.250000
O O9 0.704128 0.204128 0.223933
O O10 0.753695 0.092340 0.197763
O O11 0.379789 0.735607 0.500000
O O12 0.294962 0.794962 0.555488
O O13 0.311651 0.675538 0.570445
O O14 0.241139 0.621855 0.500000
O O15 0.185986 0.685986 0.426535
O O16 0.245022 0.575050 0.401698
#
# Coordination Sequence:
#
# PCOD9572393 Si02
#       6
#    32  32  32  32  32  32
#     4  10  21  34  48  77 113 141 174 221 270 323
#     4   9  20  35  49  71 109 151 188 218 250 310
#     4  10  21  35  53  79 109 136 175 232 284 325
#     4   8  15  31  54  75 100 136 173 218 275 321
#     4   9  19  36  56  78 103 132 175 229 279 329
#     4  12  22  31  57  80 105 144 184 222 275 328
#
# _framework density 17.402000999999998
#
# number of rings (size 3 to 8) (size 9 to 14) (size 15 to 20)
#    0.000    2.333    0.000    4.500    7.000    3.333 
#    0.000    0.000    0.000    2.000    0.000    7.000 
#    0.000    0.000    0.000    0.000    0.000    0.000 
#
# Total GULP energy -535551.275359 kJ/mol
# GULP energy per Si atom -5578.659118 kJ/mol
# Density = 1.736239 g / cm^3
# Si number density = 17.402001 Si / 1000 Ang^3
#
#
#
# Elastic Constant Matrix: (Units=GPa)
#
#
# Indices 1 2 3 4 5 6 
#
# 1 76.1835 37.7305 31.5999 0.0000 0.0000 0.0000
# 2 37.7305 76.1840 31.5998 0.0000 0.0000 0.0000
# 3 31.5999 31.5998 46.5501 0.0000 0.0000 0.0000
# 4 0.0000 0.0000 0.0000 -6.7074 0.0000 0.0000
# 5 0.0000 0.0000 0.0000 0.0000 -6.7018 0.0000
# 6 0.0000 0.0000 0.0000 0.0000 0.0000 13.3696
#
#
#
# Elastic Compliance Matrix: (Units=1/GPa)
#
#
# Indices 1 2 3 4 5 6 
#
# 1 0.020044 -0.005962 -0.009560 0.000000 0.000000 0.000000
# 2 -0.005962 0.020044 -0.009559 0.000000 0.000000 0.000000
# 3 -0.009560 -0.009559 0.034461 0.000000 0.000000 0.000000
# 4 0.000000 0.000000 0.000000 -0.149090 0.000000 0.000000
# 5 0.000000 0.000000 0.000000 0.000000 -0.149213 0.000000
# 6 0.000000 0.000000 0.000000 0.000000 0.000000 0.074796
#
#
# Mechanical properties :
#
#
# Convention : Reuss Voigt Hill
#
# Bulk Modulus (GPa) = 41.00501 44.53091 42.76796
# Shear Modulus (GPa) = -55.14639 6.52458 -24.31091
#
# Velocity S-wave (km/s) = -5.63547 1.93842 -3.74173
# Velocity P-wave (km/s) = 4.32783 5.53670 2.44182
#
# Compressibility (1/GPa) = 0.02438726
#
# Stress axis : x y z
#
# Youngs Moduli (GPa) = 49.89030 49.89086 29.01845
#
# Poissons Ratio (x) = 0.29744 0.27740
# Poissons Ratio (y) = 0.29743 0.27740
# Poissons Ratio (z) = 0.47693 0.47692
#
# Static dielectric constant tensor:
#      x y z
#    x 1.604920 0.000000 0.000000 
#    y 0.000000 1.604920 0.000000 
#    z 0.000000 0.000000 1.589350 
# 
# From -- ./inp_files/9779.got.cif
#   From: 2010.05.17/outbox.cif.g08.bks.cpg/sg140_5_cif.got.tgz:9779.got - 2010.06.21 00:45:31.
