data_PCOD9572467
_publ_section_title
;
Structure prediction by ZEFSAII (Michael W. Deem and Ramdas Pophale) SiO2 
 PCOD9572467
Probable space group: I 4/M C M
;
_chemical_formula_sum "Si O2"
_cell_formula_units_Z 160
_cell_length_a 29.493495
_cell_length_b 29.493495
_cell_length_c 9.755934
_cell_angle_alpha 90.000000
_cell_angle_beta 90.000000
_cell_angle_gamma 90.000000
_cell_volume 8486.357698
_symmetry_space_group_name_H-M "I 4/M C M"
_symmetry_group_IT_number 140
_symmetry_cell_setting 'tetragonal'
loop_
_space_group_symop_operation_xyz
x,y,z
-y,x,z
-x,-y,z
y,-x,z
x,-y,1/2-z
-x,y,1/2-z
y,x,1/2-z
-y,-x,1/2-z
-x,-y,-z
y,-x,-z
x,y,-z
-y,x,-z
-x,y,1/2+z
x,-y,1/2+z
-y,-x,1/2+z
y,x,1/2+z
1/2+x,1/2+y,1/2+z
1/2-y,1/2+x,1/2+z
1/2-x,1/2-y,1/2+z
1/2+y,1/2-x,1/2+z
1/2+x,1/2-y,-z
1/2-x,1/2+y,-z
1/2+y,1/2+x,-z
1/2-y,1/2-x,-z
1/2-x,1/2-y,1/2-z
1/2+y,1/2-x,1/2-z
1/2+x,1/2+y,1/2-z
1/2-y,1/2+x,1/2-z
1/2-x,1/2+y,z
1/2+x,1/2-y,z
1/2-y,1/2-x,z
1/2+y,1/2+x,z
loop_
_atom_site_type_symbol
_atom_site_label
_atom_site_fract_x
_atom_site_fract_y
_atom_site_fract_z
Si Si1 0.406762 0.651634 0.844455
Si Si2 0.075297 0.988964 0.500000
Si Si3 0.770062 0.831520 0.659645
Si Si4 0.000000 0.141741 0.250000
Si Si5 0.695858 0.119456 0.345726
Si Si6 0.453629 0.122843 0.835261
O O1 0.388649 0.611351 0.750000
O O2 0.368784 0.690034 0.842504
O O3 0.455324 0.668827 0.792501
O O4 0.411773 0.635981 0.000000
O O5 0.036475 0.951430 0.500000
O O6 0.108181 0.986713 0.371561
O O7 0.789582 0.789582 0.750000
O O8 0.760142 0.819548 0.500000
O O9 0.729727 0.857345 0.738420
O O10 0.716374 0.114855 0.500000
O O11 0.654668 0.154668 0.358065
O O12 0.670382 0.072822 0.305932
O O13 0.500000 0.119205 0.750000
O O14 0.418719 0.081282 0.804219
O O15 0.461756 0.121793 0.000000
#
# Coordination Sequence:
#
# PCOD9572467 Si02
#       6
#    32  16  32  16  32  32
#     4  10  22  38  55  74 100 134 172 218 271 330
#     4  11  22  34  50  72  96 124 164 218 272 324
#     4  10  21  38  59  84 112 144 188 235 285 342
#     4  12  22  35  52  72  96 130 172 214 267 328
#     4   9  19  38  61  86 118 154 191 231 282 335
#     4   9  19  36  58  86 121 162 202 244 289 338
#
# _framework density 18.85379
#
# number of rings (size 3 to 8) (size 9 to 14) (size 15 to 20)
#    0.000    2.100    1.000    3.600    1.400    3.800 
#    1.800    3.000    0.000    0.000    0.000    0.000 
#    0.000    0.000    0.000    0.000    0.000    0.000 
#
# Total GULP energy -446053.409519 kJ/mol
# GULP energy per Si atom -5575.667619 kJ/mol
# Density = 1.881088 g / cm^3
# Si number density = 18.853790 Si / 1000 Ang^3
#
#
#
# Elastic Constant Matrix: (Units=GPa)
#
#
# Indices 1 2 3 4 5 6 
#
# 1 90.9707 27.8404 52.4428 0.0000 0.0000 0.0000
# 2 27.8404 90.9707 52.4428 0.0000 0.0000 0.0000
# 3 52.4428 52.4428 138.4973 0.0000 0.0000 0.0000
# 4 0.0000 0.0000 0.0000 26.3051 0.0000 0.0000
# 5 0.0000 0.0000 0.0000 0.0000 26.3051 0.0000
# 6 0.0000 0.0000 0.0000 0.0000 0.0000 27.0463
#
#
#
# Elastic Compliance Matrix: (Units=1/GPa)
#
#
# Indices 1 2 3 4 5 6 
#
# 1 0.014242 -0.001599 -0.004787 0.000000 0.000000 0.000000
# 2 -0.001599 0.014242 -0.004787 0.000000 0.000000 0.000000
# 3 -0.004787 -0.004787 0.010846 0.000000 0.000000 0.000000
# 4 0.000000 0.000000 0.000000 0.038015 0.000000 0.000000
# 5 0.000000 0.000000 0.000000 0.000000 0.038015 0.000000
# 6 0.000000 0.000000 0.000000 0.000000 0.000000 0.036974
#
#
# Mechanical properties :
#
#
# Convention : Reuss Voigt Hill
#
# Bulk Modulus (GPa) = 58.88434 65.09894 61.99164
# Shear Modulus (GPa) = 27.72525 28.44547 28.08536
#
# Velocity S-wave (km/s) = 3.83892 3.88846 3.86377
# Velocity P-wave (km/s) = 7.13790 7.40023 7.27025
#
# Compressibility (1/GPa) = 0.01698245
#
# Stress axis : x y z
#
# Youngs Moduli (GPa) = 70.21684 70.21684 92.20119
#
# Poissons Ratio (x) = 0.11225 0.44140
# Poissons Ratio (y) = 0.11225 0.44140
# Poissons Ratio (z) = 0.33615 0.33615
#
# Static dielectric constant tensor:
#      x y z
#    x 1.665340 0.000000 0.000000 
#    y 0.000000 1.665340 0.000000 
#    z 0.000000 0.000000 1.661880 
# 
# From -- ./inp_files/1801.got.cif
#   From: 2010.05.17/outbox.cif.g08.bks.cpg/sg140_1_cif.got.tgz:1801.got - 2010.06.21 00:45:31.
