data_PCOD9572977
_publ_section_title
;
Structure prediction by ZEFSAII (Michael W. Deem and Ramdas Pophale) SiO2 
 PCOD9572977
Probable space group: I 41/A M D
;
_chemical_formula_sum "Si O2"
_cell_formula_units_Z 160
_cell_length_a 30.468962
_cell_length_b 30.468962
_cell_length_c 9.456540
_cell_angle_alpha 90.000000
_cell_angle_beta 90.000000
_cell_angle_gamma 90.000000
_cell_volume 8779.051208
_symmetry_space_group_name_H-M "I 41/A M D"
_symmetry_group_IT_number 141
_space_group.IT_coordinate_system_code '2'
_symmetry_cell_setting 'tetragonal'
loop_
_space_group_symop_operation_xyz
x,y,z
1/4-y,3/4+x,1/4+z
-x,1/2-y,z
1/4+y,1/4-x,3/4+z
x,-y,-z
-x,1/2+y,-z
1/4+y,3/4+x,1/4-z
1/4-y,1/4-x,3/4-z
-x,-y,-z
3/4+y,1/4-x,3/4-z
x,1/2+y,-z
3/4-y,3/4+x,1/4-z
-x,y,z
x,1/2-y,z
3/4-y,1/4-x,3/4+z
3/4+y,3/4+x,1/4+z
1/2+x,1/2+y,1/2+z
3/4-y,1/4+x,3/4+z
1/2-x,-y,1/2+z
3/4+y,3/4-x,1/4+z
1/2+x,1/2-y,1/2-z
1/2-x,y,1/2-z
3/4+y,1/4+x,3/4-z
3/4-y,3/4-x,1/4-z
1/2-x,1/2-y,1/2-z
1/4+y,3/4-x,1/4-z
1/2+x,y,1/2-z
1/4-y,1/4+x,3/4-z
1/2-x,1/2+y,1/2+z
1/2+x,-y,1/2+z
1/4-y,3/4-x,1/4+z
1/4+y,1/4+x,3/4+z
loop_
_atom_site_type_symbol
_atom_site_label
_atom_site_fract_x
_atom_site_fract_y
_atom_site_fract_z
Si Si1 0.551008 0.948409 0.455688
Si Si2 0.137770 0.301681 0.525507
Si Si3 0.187710 0.869673 0.658591
Si Si4 0.620380 0.033587 0.777223
Si Si5 0.449313 0.199313 0.125000
Si Si6 0.285696 0.535696 0.375000
O O1 0.500000 0.939985 0.419661
O O2 0.563566 0.913942 0.580141
O O3 0.583830 0.946584 0.325137
O O4 0.553828 0.000000 0.500000
O O5 0.147220 0.250000 0.504928
O O6 0.157609 0.331405 0.402299
O O7 0.085477 0.307631 0.502817
O O8 0.166658 0.916658 0.625000
O O9 0.190488 0.869596 0.826526
O O10 0.233840 0.862711 0.580287
O O11 0.666546 0.032861 0.696511
O O12 0.500000 0.193711 0.078755
O O13 0.280366 0.500000 0.500000
#
# Coordination Sequence:
#
# PCOD9572977 Si02
#       6
#    32  32  32  32  16  16
#     4  10  20  37  60  88 122 156 193 240 300 367
#     4  10  20  35  61  91 122 159 196 248 302 354
#     4  11  23  39  58  83 117 153 198 254 295 353
#     4  11  25  39  60  84 117 159 200 244 303 363
#     4   9  18  34  59  92 123 158 206 252 300 358
#     4  12  28  42  61  84 115 156 206 255 300 357
#
# _framework density 18.225204999999999
#
# number of rings (size 3 to 8) (size 9 to 14) (size 15 to 20)
#    0.000    1.500    3.000    1.800    7.000    0.800 
#    0.000    2.000    0.000    0.000    0.000    1.400 
#    0.000    6.400    0.000    0.000    0.000    0.000 
#
# Total GULP energy -446011.403374 kJ/mol
# GULP energy per Si atom -5575.142542 kJ/mol
# Density = 1.818372 g / cm^3
# Si number density = 18.225205 Si / 1000 Ang^3
#
#
#
# Elastic Constant Matrix: (Units=GPa)
#
#
# Indices 1 2 3 4 5 6 
#
# 1 73.4693 46.8848 82.8983 0.0000 0.0000 0.0000
# 2 46.8848 73.4693 82.8983 0.0000 0.0000 0.0000
# 3 82.8983 82.8983 152.1842 0.0000 0.0000 0.0000
# 4 0.0000 0.0000 0.0000 20.2404 0.0000 0.0000
# 5 0.0000 0.0000 0.0000 0.0000 20.2404 0.0000
# 6 0.0000 0.0000 0.0000 0.0000 0.0000 25.3632
#
#
#
# Elastic Compliance Matrix: (Units=1/GPa)
#
#
# Indices 1 2 3 4 5 6 
#
# 1 0.035452 -0.002164 -0.018133 0.000000 0.000000 0.000000
# 2 -0.002164 0.035452 -0.018133 0.000000 0.000000 0.000000
# 3 -0.018133 -0.018133 0.026326 0.000000 0.000000 0.000000
# 4 0.000000 0.000000 0.000000 0.049406 0.000000 0.000000
# 5 0.000000 0.000000 0.000000 0.000000 0.049406 0.000000
# 6 0.000000 0.000000 0.000000 0.000000 0.000000 0.039427
#
#
# Mechanical properties :
#
#
# Convention : Reuss Voigt Hill
#
# Bulk Modulus (GPa) = 49.09010 80.49841 64.79426
# Shear Modulus (GPa) = 15.66815 18.93156 17.29985
#
# Velocity S-wave (km/s) = 2.93524 3.22647 3.08429
# Velocity P-wave (km/s) = 6.20333 7.62527 6.95076
#
# Compressibility (1/GPa) = 0.02037070
#
# Stress axis : x y z
#
# Youngs Moduli (GPa) = 28.20711 28.20711 37.98559
#
# Poissons Ratio (x) = 0.06104 0.68879
# Poissons Ratio (y) = 0.06104 0.68879
# Poissons Ratio (z) = 0.51148 0.51148
#
# Static dielectric constant tensor:
#      x y z
#    x 1.650840 0.000000 0.000000 
#    y 0.000000 1.650840 0.000000 
#    z 0.000000 0.000000 1.595170 
# 
# From -- ./inp_files/3335.got.cif
#   From: 2010.05.17/outbox.cif.g08.bks.cpg/sg141_2_cif.got.tgz:3335.got - 2010.05.20 13:30:51.
