data_PCOD9572330
_publ_section_title
;
Structure prediction by ZEFSAII (Michael W. Deem and Ramdas Pophale) SiO2 
 PCOD9572330
Probable space group: I 4/M C M
;
_chemical_formula_sum "Si O2"
_cell_formula_units_Z 160
_cell_length_a 30.573785
_cell_length_b 30.573785
_cell_length_c 9.464456
_cell_angle_alpha 90.000000
_cell_angle_beta 90.000000
_cell_angle_gamma 90.000000
_cell_volume 8846.960149
_symmetry_space_group_name_H-M "I 4/M C M"
_symmetry_group_IT_number 140
_symmetry_cell_setting 'tetragonal'
loop_
_space_group_symop_operation_xyz
x,y,z
-y,x,z
-x,-y,z
y,-x,z
x,-y,1/2-z
-x,y,1/2-z
y,x,1/2-z
-y,-x,1/2-z
-x,-y,-z
y,-x,-z
x,y,-z
-y,x,-z
-x,y,1/2+z
x,-y,1/2+z
-y,-x,1/2+z
y,x,1/2+z
1/2+x,1/2+y,1/2+z
1/2-y,1/2+x,1/2+z
1/2-x,1/2-y,1/2+z
1/2+y,1/2-x,1/2+z
1/2+x,1/2-y,-z
1/2-x,1/2+y,-z
1/2+y,1/2+x,-z
1/2-y,1/2-x,-z
1/2-x,1/2-y,1/2-z
1/2+y,1/2-x,1/2-z
1/2+x,1/2+y,1/2-z
1/2-y,1/2+x,1/2-z
1/2-x,1/2+y,z
1/2+x,1/2-y,z
1/2-y,1/2-x,z
1/2+y,1/2+x,z
loop_
_atom_site_type_symbol
_atom_site_label
_atom_site_fract_x
_atom_site_fract_y
_atom_site_fract_z
Si Si1 0.681966 0.926093 0.290571
Si Si2 0.438825 0.135751 0.000000
Si Si3 0.128462 0.190453 0.669719
Si Si4 0.539458 0.889938 0.500000
Si Si5 0.732859 0.162252 0.158697
Si Si6 0.957180 0.778254 0.164922
O O1 0.639014 0.941967 0.371685
O O2 0.697321 0.876745 0.323616
O O3 0.725275 0.953137 0.330758
O O4 0.668004 0.932558 0.131044
O O5 0.401709 0.098292 0.000000
O O6 0.486915 0.113320 0.000000
O O7 0.149123 0.149123 0.750000
O O8 0.125978 0.186259 0.500000
O O9 0.157910 0.231787 0.718609
O O10 0.082998 0.202620 0.745446
O O11 0.562609 0.937392 0.500000
O O12 0.707365 0.207365 0.163501
O O13 0.752569 0.156405 0.000000
O O14 0.000000 0.791331 0.250000
O O15 0.956611 0.791228 0.000000
#
# Coordination Sequence:
#
# PCOD9572330 Si02
#       6
#    32  16  32  16  32  32
#     4  11  22  37  56  79 106 134 172 230 293 350
#     4  12  26  37  50  76 101 129 173 229 290 360
#     4  11  23  39  57  82 119 160 195 232 281 334
#     4  12  22  39  58  70  93 135 175 223 290 358
#     4  10  20  36  57  79 105 142 188 236 284 343
#     4  11  22  38  62  91 118 147 189 237 285 339
#
# _framework density 18.085308000000001
#
# number of rings (size 3 to 8) (size 9 to 14) (size 15 to 20)
#    0.000    1.000    2.000    7.200    7.000    1.000 
#    0.000    0.000    0.000    2.400    0.000    0.000 
#    0.000    0.400    0.000    4.000    0.000    2.400 
#
# Total GULP energy -446714.006636 kJ/mol
# GULP energy per Si atom -5583.925083 kJ/mol
# Density = 1.804414 g / cm^3
# Si number density = 18.085308 Si / 1000 Ang^3
#
#
#
# Elastic Constant Matrix: (Units=GPa)
#
#
# Indices 1 2 3 4 5 6 
#
# 1 43.3055 45.9546 35.9162 0.0000 0.0000 0.0000
# 2 45.9546 43.3026 35.9152 0.0000 0.0000 0.0000
# 3 35.9162 35.9152 199.9445 0.0000 0.0000 0.0000
# 4 0.0000 0.0000 0.0000 27.1949 0.0000 0.0000
# 5 0.0000 0.0000 0.0000 0.0000 27.1967 0.0000
# 6 0.0000 0.0000 0.0000 0.0000 0.0000 15.3761
#
#
#
# Elastic Compliance Matrix: (Units=1/GPa)
#
#
# Indices 1 2 3 4 5 6 
#
# 1 -0.182084 0.195187 -0.002353 0.000000 0.000000 0.000000
# 2 0.195187 -0.182096 -0.002352 0.000000 0.000000 0.000000
# 3 -0.002353 -0.002352 0.005847 0.000000 0.000000 0.000000
# 4 0.000000 0.000000 0.000000 0.036772 0.000000 0.000000
# 5 0.000000 0.000000 0.000000 0.000000 0.036769 0.000000
# 6 0.000000 0.000000 0.000000 0.000000 0.000000 0.065036
#
#
# Mechanical properties :
#
#
# Convention : Reuss Voigt Hill
#
# Bulk Modulus (GPa) = 44.18981 58.01387 51.10184
# Shear Modulus (GPa) = -8.42919 25.20465 8.38773
#
# Velocity S-wave (km/s) = -2.16123 3.73722 2.15591
# Velocity P-wave (km/s) = 4.27308 7.12530 5.87491
#
# Compressibility (1/GPa) = 0.02262965
#
# Stress axis : x y z
#
# Youngs Moduli (GPa) = -5.49198 -5.49160 171.04117
#
# Poissons Ratio (x) = 1.07189 0.40241
# Poissons Ratio (y) = 1.07196 0.40235
# Poissons Ratio (z) = -0.01292 -0.01292
#
# Static dielectric constant tensor:
#      x y z
#    x 1.637690 0.000000 0.000000 
#    y 0.000000 1.637690 0.000000 
#    z 0.000000 0.000000 1.539460 
# 
# From -- ./inp_files/1835.got.cif
#   From: 2010.05.17/outbox.cif.g08.bks.cpg/sg140_1_cif.got.tgz:1835.got - 2010.06.21 00:45:31.
