data_PCOD9572721
_publ_section_title
;
Structure prediction by ZEFSAII (Michael W. Deem and Ramdas Pophale) SiO2 
 PCOD9572721
Probable space group: I 4/M C M
;
_chemical_formula_sum "Si O2"
_cell_formula_units_Z 56
_cell_length_a 18.000000
_cell_length_b 18.000000
_cell_length_c 18.000000
_cell_angle_alpha 90.000000
_cell_angle_beta 90.000000
_cell_angle_gamma 90.000000
_cell_volume 5832.000000
_symmetry_space_group_name_H-M "I 4/M C M"
_symmetry_group_IT_number 140
_symmetry_cell_setting 'tetragonal'
loop_
_space_group_symop_operation_xyz
x,y,z
-y,x,z
-x,-y,z
y,-x,z
x,-y,1/2-z
-x,y,1/2-z
y,x,1/2-z
-y,-x,1/2-z
-x,-y,-z
y,-x,-z
x,y,-z
-y,x,-z
-x,y,1/2+z
x,-y,1/2+z
-y,-x,1/2+z
y,x,1/2+z
1/2+x,1/2+y,1/2+z
1/2-y,1/2+x,1/2+z
1/2-x,1/2-y,1/2+z
1/2+y,1/2-x,1/2+z
1/2+x,1/2-y,-z
1/2-x,1/2+y,-z
1/2+y,1/2+x,-z
1/2-y,1/2-x,-z
1/2-x,1/2-y,1/2-z
1/2+y,1/2-x,1/2-z
1/2+x,1/2+y,1/2-z
1/2-y,1/2+x,1/2-z
1/2-x,1/2+y,z
1/2+x,1/2-y,z
1/2-y,1/2-x,z
1/2+y,1/2+x,z
loop_
_atom_site_type_symbol
_atom_site_label
_atom_site_fract_x
_atom_site_fract_y
_atom_site_fract_z
Si Si1 0.920096 0.909327 0.910644
Si Si2 0.170370 0.211921 0.334094
Si Si3 0.835046 0.458893 0.832156
Si Si4 0.500100 0.874536 0.000000
O O1 0.862164 0.851442 0.877728
O O2 0.006121 0.898360 0.888106
O O3 0.917792 0.906525 0.000000
O O4 0.189408 0.189408 0.250000
O O5 0.240625 0.259376 0.363836
O O6 0.100224 0.267689 0.334766
O O7 0.829818 0.500000 0.750000
O O8 0.911815 0.411815 0.829078
O O9 0.835536 0.497985 0.916121
O O10 0.574735 0.925266 0.000000
O O11 0.429548 0.929548 0.000000
#
# Coordination Sequence:
#
# PCOD9572721 Si02
#       4
#    32  32  32  16
#     4   9  20  39  64  93 120 153 203 264 320 373
#     4  10  23  39  57  86 124 164 207 254 315 389
#     4  10  21  36  58  86 122 165 208 263 320 375
#     4   9  18  34  58  88 118 157 214 262 309 378
#
# _framework density 9.602195
#
# number of rings (size 3 to 8) (size 9 to 14) (size 15 to 20)
#    0.000    2.429    0.000    1.714    6.000    2.000 
#    0.000    1.429    0.000    0.000    0.000    0.000 
#    0.000    0.000    0.000    0.000    0.000    0.000 
#
# Total GULP energy -311896.210063 kJ/mol
# GULP energy per Si atom -5569.575180 kJ/mol
# Density = 0.958034 g / cm^3
# Si number density = 9.602195 Si / 1000 Ang^3
#
#
#
# Elastic Constant Matrix: (Units=GPa)
#
#
# Indices 1 2 3 4 5 6 
#
# 1 63.2529 39.7550 30.5167 0.0000 0.0000 0.0000
# 2 39.7550 63.2526 30.5167 0.0000 0.0000 0.0000
# 3 30.5167 30.5167 112.6704 0.0000 0.0000 0.0000
# 4 0.0000 0.0000 0.0000 37.5895 0.0000 0.0000
# 5 0.0000 0.0000 0.0000 0.0000 37.5895 0.0000
# 6 0.0000 0.0000 0.0000 0.0000 0.0000 34.3890
#
#
#
# Elastic Compliance Matrix: (Units=1/GPa)
#
#
# Indices 1 2 3 4 5 6 
#
# 1 0.027060 -0.015497 -0.003132 0.000000 0.000000 0.000000
# 2 -0.015497 0.027061 -0.003132 0.000000 0.000000 0.000000
# 3 -0.003132 -0.003132 0.010572 0.000000 0.000000 0.000000
# 4 0.000000 0.000000 0.000000 0.026603 0.000000 0.000000
# 5 0.000000 0.000000 0.000000 0.000000 0.026603 0.000000
# 6 0.000000 0.000000 0.000000 0.000000 0.000000 0.029079
#
#
# Mechanical properties :
#
#
# Convention : Reuss Voigt Hill
#
# Bulk Modulus (GPa) = 47.23341 48.97254 48.10298
# Shear Modulus (GPa) = 25.30911 31.13944 28.22428
#
# Velocity S-wave (km/s) = 3.63420 4.03112 3.83780
# Velocity P-wave (km/s) = 6.50065 6.87188 6.68884
#
# Compressibility (1/GPa) = 0.02117145
#
# Stress axis : x y z
#
# Youngs Moduli (GPa) = 36.95430 36.95409 94.58888
#
# Poissons Ratio (x) = 0.57267 0.29626
# Poissons Ratio (y) = 0.57267 0.29626
# Poissons Ratio (z) = 0.11574 0.11574
#
# Static dielectric constant tensor:
#      x y z
#    x 1.682070 0.000000 0.000000 
#    y 0.000000 1.682070 0.000000 
#    z 0.000000 0.000000 1.698350 
# 
# From -- ./inp_files/6062.got.cif
#   From: 2010.05.17/outbox.ucp.g08.bks.cvg/sg140_4_cif.got.tgz:6062.got - 2010.06.11 11:42:50.
