data_PCOD9572524
_publ_section_title
;
Structure prediction by ZEFSAII (Michael W. Deem and Ramdas Pophale) SiO2 
 PCOD9572524
Probable space group: I 4/M C M
;
_chemical_formula_sum "Si O2"
_cell_formula_units_Z 112
_cell_length_a 13.769314
_cell_length_b 13.769314
_cell_length_c 25.869828
_cell_angle_alpha 90.000000
_cell_angle_beta 90.000000
_cell_angle_gamma 90.000000
_cell_volume 4904.764378
_symmetry_space_group_name_H-M "I 4/M C M"
_symmetry_group_IT_number 140
_symmetry_cell_setting 'tetragonal'
loop_
_space_group_symop_operation_xyz
x,y,z
-y,x,z
-x,-y,z
y,-x,z
x,-y,1/2-z
-x,y,1/2-z
y,x,1/2-z
-y,-x,1/2-z
-x,-y,-z
y,-x,-z
x,y,-z
-y,x,-z
-x,y,1/2+z
x,-y,1/2+z
-y,-x,1/2+z
y,x,1/2+z
1/2+x,1/2+y,1/2+z
1/2-y,1/2+x,1/2+z
1/2-x,1/2-y,1/2+z
1/2+y,1/2-x,1/2+z
1/2+x,1/2-y,-z
1/2-x,1/2+y,-z
1/2+y,1/2+x,-z
1/2-y,1/2-x,-z
1/2-x,1/2-y,1/2-z
1/2+y,1/2-x,1/2-z
1/2+x,1/2+y,1/2-z
1/2-y,1/2+x,1/2-z
1/2-x,1/2+y,z
1/2+x,1/2-y,z
1/2-y,1/2-x,z
1/2+y,1/2+x,z
loop_
_atom_site_type_symbol
_atom_site_label
_atom_site_fract_x
_atom_site_fract_y
_atom_site_fract_z
Si Si1 0.442403 0.351845 0.584877
Si Si2 0.638751 0.138751 0.057254
Si Si3 0.722976 0.515186 0.692122
Si Si4 0.735760 0.764241 0.811221
Si Si5 0.891240 0.391240 0.664219
O O1 0.554045 0.378506 0.569625
O O2 0.393708 0.252726 0.563686
O O3 0.460676 0.335593 0.646959
O O4 0.585781 0.085781 0.105145
O O5 0.608952 0.108952 0.000000
O O6 0.682829 0.500000 0.750000
O O7 0.736814 0.626333 0.677551
O O8 0.833449 0.474636 0.692386
O O9 0.750000 0.750000 0.750000
O O10 0.807980 0.692021 0.839059
#
# Coordination Sequence:
#
# PCOD9572524 Si02
#       5
#    32  16  32  16  16
#     4  10  23  40  63  99 134 169 224 288 344 418
#     4  10  22  42  67  90 127 178 222 284 358 403
#     4  11  20  34  58  86 131 179 217 265 335 402
#     4  12  22  35  57  89 131 181 217 272 329 405
#     4  10  22  39  54  89 126 165 228 278 323 411
#
# _framework density 22.834941000000001
#
# number of rings (size 3 to 8) (size 9 to 14) (size 15 to 20)
#    0.000    1.429    2.857    3.429    0.000    1.714 
#    0.000    4.286    0.000    2.571    0.000   26.000 
#    0.000    0.000    0.000    0.000    0.000    0.000 
#
# Total GULP energy -312395.556656 kJ/mol
# GULP energy per Si atom -5578.492083 kJ/mol
# Density = 2.278297 g / cm^3
# Si number density = 22.834941 Si / 1000 Ang^3
#
#
#
# Elastic Constant Matrix: (Units=GPa)
#
#
# Indices 1 2 3 4 5 6 
#
# 1 92.8926 57.2880 8.5042 0.0000 0.0000 0.0000
# 2 57.2880 92.8926 8.5042 0.0000 0.0000 0.0000
# 3 8.5042 8.5042 109.1259 0.0000 0.0000 0.0000
# 4 0.0000 0.0000 0.0000 11.7092 0.0000 0.0000
# 5 0.0000 0.0000 0.0000 0.0000 11.7092 0.0000
# 6 0.0000 0.0000 0.0000 0.0000 0.0000 48.1779
#
#
#
# Elastic Compliance Matrix: (Units=1/GPa)
#
#
# Indices 1 2 3 4 5 6 
#
# 1 0.017402 -0.010684 -0.000524 0.000000 0.000000 0.000000
# 2 -0.010684 0.017402 -0.000524 0.000000 0.000000 0.000000
# 3 -0.000524 -0.000524 0.009245 0.000000 0.000000 0.000000
# 4 0.000000 0.000000 0.000000 0.085403 0.000000 0.000000
# 5 0.000000 0.000000 0.000000 0.000000 0.085403 0.000000
# 6 0.000000 0.000000 0.000000 0.000000 0.000000 0.020756
#
#
# Mechanical properties :
#
#
# Convention : Reuss Voigt Hill
#
# Bulk Modulus (GPa) = 48.57415 49.27822 48.92619
# Shear Modulus (GPa) = 18.80148 29.02690 23.91419
#
# Velocity S-wave (km/s) = 2.87255 3.56920 3.23966
# Velocity P-wave (km/s) = 5.68507 6.21391 5.95536
#
# Compressibility (1/GPa) = 0.02058708
#
# Stress axis : x y z
#
# Youngs Moduli (GPa) = 57.46427 57.46427 108.16278
#
# Poissons Ratio (x) = 0.61396 0.05663
# Poissons Ratio (y) = 0.61396 0.05663
# Poissons Ratio (z) = 0.03008 0.03008
#
# Static dielectric constant tensor:
#      x y z
#    x 2.111950 0.000000 0.000000 
#    y 0.000000 2.111950 0.000000 
#    z 0.000000 0.000000 1.932800 
# 
# From -- ./inp_files/10286.got.cif
#   From: 2010.05.17/outbox.cif.g08.bks.cpg/sg140_6_cif.got.tgz:10286.got - 2010.06.21 00:45:31.
