data_PCOD9572901
_publ_section_title
;
Structure prediction by ZEFSAII (Michael W. Deem and Ramdas Pophale) SiO2 
 PCOD9572901
Probable space group: I 41/A M D
;
_chemical_formula_sum "Si O2"
_cell_formula_units_Z 152
_cell_length_a 24.759125
_cell_length_b 24.759125
_cell_length_c 12.585471
_cell_angle_alpha 90.000000
_cell_angle_beta 90.000000
_cell_angle_gamma 90.000000
_cell_volume 7715.073327
_symmetry_space_group_name_H-M "I 41/A M D"
_symmetry_group_IT_number 141
_space_group.IT_coordinate_system_code '2'
_symmetry_cell_setting 'tetragonal'
loop_
_space_group_symop_operation_xyz
x,y,z
1/4-y,3/4+x,1/4+z
-x,1/2-y,z
1/4+y,1/4-x,3/4+z
x,-y,-z
-x,1/2+y,-z
1/4+y,3/4+x,1/4-z
1/4-y,1/4-x,3/4-z
-x,-y,-z
3/4+y,1/4-x,3/4-z
x,1/2+y,-z
3/4-y,3/4+x,1/4-z
-x,y,z
x,1/2-y,z
3/4-y,1/4-x,3/4+z
3/4+y,3/4+x,1/4+z
1/2+x,1/2+y,1/2+z
3/4-y,1/4+x,3/4+z
1/2-x,-y,1/2+z
3/4+y,3/4-x,1/4+z
1/2+x,1/2-y,1/2-z
1/2-x,y,1/2-z
3/4+y,1/4+x,3/4-z
3/4-y,3/4-x,1/4-z
1/2-x,1/2-y,1/2-z
1/4+y,3/4-x,1/4-z
1/2+x,y,1/2-z
1/4-y,1/4+x,3/4-z
1/2-x,1/2+y,1/2+z
1/2+x,-y,1/2+z
1/4-y,3/4-x,1/4+z
1/4+y,1/4+x,3/4+z
loop_
_atom_site_type_symbol
_atom_site_label
_atom_site_fract_x
_atom_site_fract_y
_atom_site_fract_z
Si Si1 0.669529 0.360163 0.537578
Si Si2 0.104905 0.500000 0.500000
Si Si3 0.113668 0.750000 0.023135
Si Si4 0.000000 0.142394 0.518330
Si Si5 0.500000 0.750000 0.375000
Si Si6 0.000000 0.250000 0.375000
Si Si7 0.363085 0.127247 0.293025
Si Si8 0.563394 0.970329 0.774112
O O1 0.653348 0.403348 0.625000
O O2 0.642892 0.302757 0.566509
O O3 0.643341 0.372765 0.421427
O O4 0.733175 0.348225 0.533387
O O5 0.140304 0.553769 0.494352
O O6 0.068645 0.491482 0.395592
O O7 0.111875 0.750000 0.895943
O O8 0.052417 0.750000 0.055057
O O9 0.939156 0.119076 0.499163
O O10 0.000000 0.198287 0.453249
O O11 0.409158 0.087374 0.250564
O O12 0.500000 0.969719 0.745837
#
# Coordination Sequence:
#
# PCOD9572901 Si02
#       8
#    32  16  16  16   4   4  32  32
#     4  10  21  42  62  88 128 163 213 266 317 373
#     4  10  23  40  66  90 126 170 216 263 312 384
#     4  10  19  37  57  88 117 166 212 251 308 387
#     4  10  25  38  55  88 134 161 198 261 326 383
#     4  12  18  28  68  86 108 168 218 248 316 386
#     4  12  26  36  52  90 140 160 178 268 352 382
#     4  10  24  41  63  93 124 167 215 265 318 383
#     4  11  23  40  66  96 126 171 218 263 321 392
#
# _framework density 19.701692999999999
#
# number of rings (size 3 to 8) (size 9 to 14) (size 15 to 20)
#    0.000    1.684    2.105    1.263   10.316    0.842 
#    3.789    5.263    0.000    0.000    0.000    0.000 
#    0.000    0.000    0.000    0.000    0.000    0.000 
#
# Total GULP energy -423452.927683 kJ/mol
# GULP energy per Si atom -5571.749048 kJ/mol
# Density = 1.965685 g / cm^3
# Si number density = 19.701693 Si / 1000 Ang^3
#
#
#
# Elastic Constant Matrix: (Units=GPa)
#
#
# Indices 1 2 3 4 5 6 
#
# 1 113.3805 46.3825 36.1385 0.0000 0.0000 0.0000
# 2 46.3825 113.3805 36.1385 0.0000 0.0000 0.0000
# 3 36.1385 36.1385 45.6862 0.0000 0.0000 0.0000
# 4 0.0000 0.0000 0.0000 26.2869 0.0000 0.0000
# 5 0.0000 0.0000 0.0000 0.0000 26.2869 0.0000
# 6 0.0000 0.0000 0.0000 0.0000 0.0000 21.5720
#
#
#
# Elastic Compliance Matrix: (Units=1/GPa)
#
#
# Indices 1 2 3 4 5 6 
#
# 1 0.012337 -0.002589 -0.007710 0.000000 0.000000 0.000000
# 2 -0.002589 0.012337 -0.007710 0.000000 0.000000 0.000000
# 3 -0.007710 -0.007710 0.034087 0.000000 0.000000 0.000000
# 4 0.000000 0.000000 0.000000 0.038042 0.000000 0.000000
# 5 0.000000 0.000000 0.000000 0.000000 0.038042 0.000000
# 6 0.000000 0.000000 0.000000 0.000000 0.000000 0.046356
#
#
# Mechanical properties :
#
#
# Convention : Reuss Voigt Hill
#
# Bulk Modulus (GPa) = 43.97561 56.64071 50.30816
# Shear Modulus (GPa) = 22.24201 25.08167 23.66184
#
# Velocity S-wave (km/s) = 3.36361 3.57188 3.46931
# Velocity P-wave (km/s) = 6.12000 6.76925 6.45279
#
# Compressibility (1/GPa) = 0.02273988
#
# Stress axis : x y z
#
# Youngs Moduli (GPa) = 81.05928 81.05928 29.33706
#
# Poissons Ratio (x) = 0.20988 0.22620
# Poissons Ratio (y) = 0.20988 0.22620
# Poissons Ratio (z) = 0.62500 0.62500
#
# Static dielectric constant tensor:
#      x y z
#    x 1.708590 0.000000 0.000000 
#    y 0.000000 1.708590 0.000000 
#    z 0.000000 0.000000 1.719680 
# 
# From -- ./inp_files/6757.got.cif
#   From: 2010.05.17/outbox.cif.g08.bks.cpg/sg141_4_cif.got.tgz:6757.got - 2010.05.20 13:30:51.
