data_PCOD9572765
_publ_section_title
;
Structure prediction by ZEFSAII (Michael W. Deem and Ramdas Pophale) SiO2 
 PCOD9572765
Probable space group: I 41/A M D
;
_chemical_formula_sum "Si O2"
_cell_formula_units_Z 160
_cell_length_a 19.769969
_cell_length_b 19.769969
_cell_length_c 24.857375
_cell_angle_alpha 90.000000
_cell_angle_beta 90.000000
_cell_angle_gamma 90.000000
_cell_volume 9715.546636
_symmetry_space_group_name_H-M "I 41/A M D"
_symmetry_group_IT_number 141
_space_group.IT_coordinate_system_code '2'
_symmetry_cell_setting 'tetragonal'
loop_
_space_group_symop_operation_xyz
x,y,z
1/4-y,3/4+x,1/4+z
-x,1/2-y,z
1/4+y,1/4-x,3/4+z
x,-y,-z
-x,1/2+y,-z
1/4+y,3/4+x,1/4-z
1/4-y,1/4-x,3/4-z
-x,-y,-z
3/4+y,1/4-x,3/4-z
x,1/2+y,-z
3/4-y,3/4+x,1/4-z
-x,y,z
x,1/2-y,z
3/4-y,1/4-x,3/4+z
3/4+y,3/4+x,1/4+z
1/2+x,1/2+y,1/2+z
3/4-y,1/4+x,3/4+z
1/2-x,-y,1/2+z
3/4+y,3/4-x,1/4+z
1/2+x,1/2-y,1/2-z
1/2-x,y,1/2-z
3/4+y,1/4+x,3/4-z
3/4-y,3/4-x,1/4-z
1/2-x,1/2-y,1/2-z
1/4+y,3/4-x,1/4-z
1/2+x,y,1/2-z
1/4-y,1/4+x,3/4-z
1/2-x,1/2+y,1/2+z
1/2+x,-y,1/2+z
1/4-y,3/4-x,1/4+z
1/4+y,1/4+x,3/4+z
loop_
_atom_site_type_symbol
_atom_site_label
_atom_site_fract_x
_atom_site_fract_y
_atom_site_fract_z
Si Si1 0.076472 0.331965 0.434296
Si Si2 0.301526 0.331008 0.989819
Si Si3 0.202670 0.327710 0.637232
Si Si4 0.141260 0.174934 0.825988
Si Si5 0.676073 0.921255 0.517359
O O1 0.073008 0.250000 0.431746
O O2 0.102331 0.352331 0.375000
O O3 0.128328 0.348634 0.481067
O O4 0.000000 0.356975 0.443003
O O5 0.288372 0.250000 0.996937
O O6 0.305727 0.343113 0.925757
O O7 0.243678 0.377154 0.016240
O O8 0.178969 0.250000 0.647490
O O9 0.282674 0.328074 0.650409
O O10 0.171505 0.383141 0.677403
O O11 0.092436 0.157564 0.875000
O O12 0.129413 0.250000 0.804835
O O13 0.138824 0.121190 0.778622
O O14 0.688176 0.000000 0.500000
#
# Coordination Sequence:
#
# PCOD9572765 Si02
#       5
#    32  32  32  32  32
#     4   8  15  31  55  78  97 124 167 208 247 308
#     4  10  19  34  55  78 105 138 170 213 266 314
#     4   9  18  33  52  73 101 137 176 214 259 313
#     4  10  18  30  48  70 100 136 179 223 256 297
#     4  10  20  33  51  75 104 136 178 213 259 312
#
# _framework density 16.468451000000002
#
# number of rings (size 3 to 8) (size 9 to 14) (size 15 to 20)
#    0.000    2.600    2.000    1.200    0.000    2.600 
#    3.600    1.000    0.000    3.600    0.000    0.000 
#    0.000    0.000    0.000    0.000    0.000    0.000 
#
# Total GULP energy -445602.304476 kJ/mol
# GULP energy per Si atom -5570.028806 kJ/mol
# Density = 1.643097 g / cm^3
# Si number density = 16.468451 Si / 1000 Ang^3
#
#
#
# Elastic Constant Matrix: (Units=GPa)
#
#
# Indices 1 2 3 4 5 6 
#
# 1 63.1825 34.9219 39.8387 0.0000 0.0000 0.0000
# 2 34.9219 63.1825 39.8387 0.0000 0.0000 0.0000
# 3 39.8387 39.8387 86.9531 0.0000 0.0000 0.0000
# 4 0.0000 0.0000 0.0000 21.3366 0.0000 0.0000
# 5 0.0000 0.0000 0.0000 0.0000 21.3366 0.0000
# 6 0.0000 0.0000 0.0000 0.0000 0.0000 22.8170
#
#
#
# Elastic Compliance Matrix: (Units=1/GPa)
#
#
# Indices 1 2 3 4 5 6 
#
# 1 0.025809 -0.009575 -0.007438 0.000000 0.000000 0.000000
# 2 -0.009575 0.025809 -0.007438 0.000000 0.000000 0.000000
# 3 -0.007438 -0.007438 0.018316 0.000000 0.000000 0.000000
# 4 0.000000 0.000000 0.000000 0.046868 0.000000 0.000000
# 5 0.000000 0.000000 0.000000 0.000000 0.046868 0.000000
# 6 0.000000 0.000000 0.000000 0.000000 0.000000 0.043827
#
#
# Mechanical properties :
#
#
# Convention : Reuss Voigt Hill
#
# Bulk Modulus (GPa) = 47.54517 49.16854 48.35686
# Shear Modulus (GPa) = 18.98179 19.67931 19.33055
#
# Velocity S-wave (km/s) = 3.39870 3.46058 3.42978
# Velocity P-wave (km/s) = 6.65843 6.77411 6.71652
#
# Compressibility (1/GPa) = 0.02103263
#
# Stress axis : x y z
#
# Youngs Moduli (GPa) = 38.74547 38.74547 54.59728
#
# Poissons Ratio (x) = 0.37101 0.40609
# Poissons Ratio (y) = 0.37101 0.40609
# Poissons Ratio (z) = 0.28818 0.28818
#
# Static dielectric constant tensor:
#      x y z
#    x 1.552040 0.000000 0.000000 
#    y 0.000000 1.552040 0.000000 
#    z 0.000000 0.000000 1.551160 
# 
# From -- ./inp_files/12694.got.cif
#   From: 2010.05.17/outbox.cif.g08.bks.cpg/sg141_7_cif.got.tgz:12694.got - 2010.05.20 13:30:51.
