data_PCOD9572365
_publ_section_title
;
Structure prediction by ZEFSAII (Michael W. Deem and Ramdas Pophale) SiO2 
 PCOD9572365
Probable space group: I 4/M C M
;
_chemical_formula_sum "Si O2"
_cell_formula_units_Z 144
_cell_length_a 20.690136
_cell_length_b 20.690136
_cell_length_c 18.219908
_cell_angle_alpha 90.000000
_cell_angle_beta 90.000000
_cell_angle_gamma 90.000000
_cell_volume 7799.609695
_symmetry_space_group_name_H-M "I 4/M C M"
_symmetry_group_IT_number 140
_symmetry_cell_setting 'tetragonal'
loop_
_space_group_symop_operation_xyz
x,y,z
-y,x,z
-x,-y,z
y,-x,z
x,-y,1/2-z
-x,y,1/2-z
y,x,1/2-z
-y,-x,1/2-z
-x,-y,-z
y,-x,-z
x,y,-z
-y,x,-z
-x,y,1/2+z
x,-y,1/2+z
-y,-x,1/2+z
y,x,1/2+z
1/2+x,1/2+y,1/2+z
1/2-y,1/2+x,1/2+z
1/2-x,1/2-y,1/2+z
1/2+y,1/2-x,1/2+z
1/2+x,1/2-y,-z
1/2-x,1/2+y,-z
1/2+y,1/2+x,-z
1/2-y,1/2-x,-z
1/2-x,1/2-y,1/2-z
1/2+y,1/2-x,1/2-z
1/2+x,1/2+y,1/2-z
1/2-y,1/2+x,1/2-z
1/2-x,1/2+y,z
1/2+x,1/2-y,z
1/2-y,1/2-x,z
1/2+y,1/2+x,z
loop_
_atom_site_type_symbol
_atom_site_label
_atom_site_fract_x
_atom_site_fract_y
_atom_site_fract_z
Si Si1 0.464532 0.659192 0.416252
Si Si2 0.802540 0.522097 0.368310
Si Si3 0.997301 0.603236 0.000000
Si Si4 0.606305 0.786136 0.274555
Si Si5 0.408454 0.637464 0.823132
O O1 0.471930 0.636049 0.500000
O O2 0.472148 0.735941 0.412523
O O3 0.521807 0.636698 0.361818
O O4 0.396045 0.638538 0.382066
O O5 0.857989 0.517154 0.427658
O O6 0.806531 0.454360 0.324759
O O7 0.798639 0.579285 0.307890
O O8 0.042894 0.542894 0.000000
O O9 0.923482 0.576519 0.000000
O O10 0.670103 0.829898 0.286560
O O11 0.611820 0.709709 0.295574
O O12 0.405097 0.594904 0.750000
#
# Coordination Sequence:
#
# PCOD9572365 Si02
#       5
#    32  32  16  32  32
#     4  11  22  40  62  86 123 160 196 250 307 365
#     4  10  20  38  61  85 122 162 202 247 303 364
#     4  11  22  36  58  90 124 161 208 256 300 357
#     4  10  21  38  62  90 121 161 205 251 306 361
#     4  11  22  39  63  91 119 157 207 250 303 365
#
# _framework density 18.462461999999999
#
# number of rings (size 3 to 8) (size 9 to 14) (size 15 to 20)
#    0.000    1.444    3.333    2.667    0.000    0.889 
#    0.000    2.222    0.000    5.333    0.000    0.000 
#    0.000    0.000    0.000    0.000    0.000    0.000 
#
# Total GULP energy -401113.301302 kJ/mol
# GULP energy per Si atom -5571.018074 kJ/mol
# Density = 1.842044 g / cm^3
# Si number density = 18.462462 Si / 1000 Ang^3
#
#
#
# Elastic Constant Matrix: (Units=GPa)
#
#
# Indices 1 2 3 4 5 6 
#
# 1 90.2295 62.5604 62.0180 0.0000 0.0000 0.0000
# 2 62.5604 90.2275 62.0175 0.0000 0.0000 0.0000
# 3 62.0180 62.0175 143.2166 0.0000 0.0000 0.0000
# 4 0.0000 0.0000 0.0000 42.9123 0.0000 0.0000
# 5 0.0000 0.0000 0.0000 0.0000 42.9130 0.0000
# 6 0.0000 0.0000 0.0000 0.0000 0.0000 30.9524
#
#
#
# Elastic Compliance Matrix: (Units=1/GPa)
#
#
# Indices 1 2 3 4 5 6 
#
# 1 0.023118 -0.013025 -0.004371 0.000000 0.000000 0.000000
# 2 -0.013025 0.023118 -0.004371 0.000000 0.000000 0.000000
# 3 -0.004371 -0.004371 0.010768 0.000000 0.000000 0.000000
# 4 0.000000 0.000000 0.000000 0.023303 0.000000 0.000000
# 5 0.000000 0.000000 0.000000 0.000000 0.023303 0.000000
# 6 0.000000 0.000000 0.000000 0.000000 0.000000 0.032308
#
#
# Mechanical properties :
#
#
# Convention : Reuss Voigt Hill
#
# Bulk Modulus (GPa) = 74.23187 77.42949 75.83068
# Shear Modulus (GPa) = 27.18275 32.49407 29.83841
#
# Velocity S-wave (km/s) = 3.84125 4.19980 4.02452
# Velocity P-wave (km/s) = 7.74389 8.09615 7.92198
#
# Compressibility (1/GPa) = 0.01347130
#
# Stress axis : x y z
#
# Youngs Moduli (GPa) = 43.25709 43.25594 92.86994
#
# Poissons Ratio (x) = 0.56340 0.40590
# Poissons Ratio (y) = 0.56341 0.40591
# Poissons Ratio (z) = 0.18906 0.18906
#
# Static dielectric constant tensor:
#      x y z
#    x 1.663550 0.000000 0.000000 
#    y 0.000000 1.663550 0.000000 
#    z 0.000000 0.000000 1.665570 
# 
# From -- ./inp_files/6679.got.cif
#   From: 2010.05.17/outbox.cif.g08.bks.cpg/sg140_4_cif.got.tgz:6679.got - 2010.06.21 00:45:31.
