data_PCOD9572828
_publ_section_title
;
Structure prediction by ZEFSAII (Michael W. Deem and Ramdas Pophale) SiO2 
 PCOD9572828
Probable space group: I 41/A M D
;
_chemical_formula_sum "Si O2"
_cell_formula_units_Z 176
_cell_length_a 17.740272
_cell_length_b 17.740272
_cell_length_c 33.662992
_cell_angle_alpha 90.000000
_cell_angle_beta 90.000000
_cell_angle_gamma 90.000000
_cell_volume 10594.324290
_symmetry_space_group_name_H-M "I 41/A M D"
_symmetry_group_IT_number 141
_space_group.IT_coordinate_system_code '2'
_symmetry_cell_setting 'tetragonal'
loop_
_space_group_symop_operation_xyz
x,y,z
1/4-y,3/4+x,1/4+z
-x,1/2-y,z
1/4+y,1/4-x,3/4+z
x,-y,-z
-x,1/2+y,-z
1/4+y,3/4+x,1/4-z
1/4-y,1/4-x,3/4-z
-x,-y,-z
3/4+y,1/4-x,3/4-z
x,1/2+y,-z
3/4-y,3/4+x,1/4-z
-x,y,z
x,1/2-y,z
3/4-y,1/4-x,3/4+z
3/4+y,3/4+x,1/4+z
1/2+x,1/2+y,1/2+z
3/4-y,1/4+x,3/4+z
1/2-x,-y,1/2+z
3/4+y,3/4-x,1/4+z
1/2+x,1/2-y,1/2-z
1/2-x,y,1/2-z
3/4+y,1/4+x,3/4-z
3/4-y,3/4-x,1/4-z
1/2-x,1/2-y,1/2-z
1/4+y,3/4-x,1/4-z
1/2+x,y,1/2-z
1/4-y,1/4+x,3/4-z
1/2-x,1/2+y,1/2+z
1/2+x,-y,1/2+z
1/4-y,3/4-x,1/4+z
1/4+y,1/4+x,3/4+z
loop_
_atom_site_type_symbol
_atom_site_label
_atom_site_fract_x
_atom_site_fract_y
_atom_site_fract_z
Si Si1 0.912255 0.968602 0.436597
Si Si2 0.289751 0.160598 0.609969
Si Si3 0.678225 0.949042 0.140225
Si Si4 0.687276 0.111570 0.050937
Si Si5 0.586495 0.836495 0.875000
Si Si6 0.414256 0.937376 0.713342
O O1 0.890722 0.961951 0.389956
O O2 0.881421 0.890567 0.453456
O O3 0.000000 0.981540 0.443053
O O4 0.861193 0.035193 0.454786
O O5 0.360906 0.110906 0.625000
O O6 0.302978 0.250000 0.613154
O O7 0.217822 0.131387 0.635715
O O8 0.259131 0.142879 0.564884
O O9 0.742388 0.007613 0.125000
O O10 0.657405 0.979660 0.182983
O O11 0.641701 0.149412 0.087730
O O12 0.696646 0.156318 0.010432
O O13 0.596370 0.750000 0.861465
O O14 0.500000 0.920010 0.702749
#
# Coordination Sequence:
#
# PCOD9572828 Si02
#       6
#    32  32  32  32  16  32
#     4  10  19  31  47  68  95 133 181 221 253 297
#     4   9  18  35  57  80 105 129 162 208 264 328
#     4   8  16  31  50  71  96 131 172 211 244 295
#     4  11  19  33  53  71  99 139 181 220 256 308
#     4  11  22  32  46  74 110 146 187 232 270 302
#     4  10  22  35  49  73 103 134 168 215 269 313
#
# _framework density 16.612669
#
# number of rings (size 3 to 8) (size 9 to 14) (size 15 to 20)
#    0.000    2.273    2.727    2.727    0.000    3.455 
#    0.000    0.000    0.000    2.182    0.000    0.000 
#    0.000    0.000    0.000    0.000    0.000    0.000 
#
# Total GULP energy -489902.081330 kJ/mol
# GULP energy per Si atom -5567.069106 kJ/mol
# Density = 1.657486 g / cm^3
# Si number density = 16.612669 Si / 1000 Ang^3
#
#
#
# Elastic Constant Matrix: (Units=GPa)
#
#
# Indices 1 2 3 4 5 6 
#
# 1 60.2251 31.7980 35.9572 0.0000 0.0000 0.0000
# 2 31.7980 60.2258 35.9568 0.0000 0.0000 0.0000
# 3 35.9572 35.9568 79.6482 0.0000 0.0000 0.0000
# 4 0.0000 0.0000 0.0000 11.5791 0.0000 0.0000
# 5 0.0000 0.0000 0.0000 0.0000 11.5790 0.0000
# 6 0.0000 0.0000 0.0000 0.0000 0.0000 19.9524
#
#
#
# Elastic Compliance Matrix: (Units=1/GPa)
#
#
# Indices 1 2 3 4 5 6 
#
# 1 0.025984 -0.009193 -0.007580 0.000000 0.000000 0.000000
# 2 -0.009193 0.025983 -0.007580 0.000000 0.000000 0.000000
# 3 -0.007580 -0.007580 0.019399 0.000000 0.000000 0.000000
# 4 0.000000 0.000000 0.000000 0.086362 0.000000 0.000000
# 5 0.000000 0.000000 0.000000 0.000000 0.086364 0.000000
# 6 0.000000 0.000000 0.000000 0.000000 0.000000 0.050119
#
#
# Mechanical properties :
#
#
# Convention : Reuss Voigt Hill
#
# Bulk Modulus (GPa) = 44.13070 45.28034 44.70552
# Shear Modulus (GPa) = 14.26648 15.04791 14.65719
#
# Velocity S-wave (km/s) = 2.93366 3.01293 2.97356
# Velocity P-wave (km/s) = 6.17230 6.27848 6.22562
#
# Compressibility (1/GPa) = 0.02265996
#
# Stress axis : x y z
#
# Youngs Moduli (GPa) = 38.48502 38.48598 51.54878
#
# Poissons Ratio (x) = 0.35382 0.39075
# Poissons Ratio (y) = 0.35381 0.39073
# Poissons Ratio (z) = 0.29172 0.29171
#
# Static dielectric constant tensor:
#      x y z
#    x 1.579660 0.000000 0.000000 
#    y 0.000000 1.579660 0.000000 
#    z 0.000000 0.000000 1.601840 
# 
# From -- ./inp_files/14382.got.cif
#   From: 2010.05.17/outbox.cif.g08.bks.cpg/sg141_8_cif.got.tgz:14382.got - 2010.05.20 13:30:51.
