data_PCOD9572953
_publ_section_title
;
Structure prediction by ZEFSAII (Michael W. Deem and Ramdas Pophale) SiO2 
 PCOD9572953
Probable space group: I 41/A M D
;
_chemical_formula_sum "Si O2"
_cell_formula_units_Z 128
_cell_length_a 26.331515
_cell_length_b 26.331515
_cell_length_c 9.409111
_cell_angle_alpha 90.000000
_cell_angle_beta 90.000000
_cell_angle_gamma 90.000000
_cell_volume 6523.794712
_symmetry_space_group_name_H-M "I 41/A M D"
_symmetry_group_IT_number 141
_space_group.IT_coordinate_system_code '2'
_symmetry_cell_setting 'tetragonal'
loop_
_space_group_symop_operation_xyz
x,y,z
1/4-y,3/4+x,1/4+z
-x,1/2-y,z
1/4+y,1/4-x,3/4+z
x,-y,-z
-x,1/2+y,-z
1/4+y,3/4+x,1/4-z
1/4-y,1/4-x,3/4-z
-x,-y,-z
3/4+y,1/4-x,3/4-z
x,1/2+y,-z
3/4-y,3/4+x,1/4-z
-x,y,z
x,1/2-y,z
3/4-y,1/4-x,3/4+z
3/4+y,3/4+x,1/4+z
1/2+x,1/2+y,1/2+z
3/4-y,1/4+x,3/4+z
1/2-x,-y,1/2+z
3/4+y,3/4-x,1/4+z
1/2+x,1/2-y,1/2-z
1/2-x,y,1/2-z
3/4+y,1/4+x,3/4-z
3/4-y,3/4-x,1/4-z
1/2-x,1/2-y,1/2-z
1/4+y,3/4-x,1/4-z
1/2+x,y,1/2-z
1/4-y,1/4+x,3/4-z
1/2-x,1/2+y,1/2+z
1/2+x,-y,1/2+z
1/4-y,3/4-x,1/4+z
1/4+y,1/4+x,3/4+z
loop_
_atom_site_type_symbol
_atom_site_label
_atom_site_fract_x
_atom_site_fract_y
_atom_site_fract_z
Si Si1 0.220167 0.362272 0.098982
Si Si2 0.059595 0.341780 0.217459
Si Si3 0.556344 0.375303 0.723236
Si Si4 0.321690 0.611688 0.027668
O O1 0.250000 0.350081 0.250000
O O2 0.180124 0.320998 0.040224
O O3 0.263450 0.374611 0.986125
O O4 0.184114 0.411241 0.121932
O O5 0.072730 0.322730 0.375000
O O6 0.086498 0.305577 0.104922
O O7 0.088069 0.395476 0.194320
O O8 0.000000 0.345090 0.198898
O O9 0.600562 0.350562 0.625000
O O10 0.500000 0.376943 0.656331
O O11 0.341058 0.591058 0.875000
#
# Coordination Sequence:
#
# PCOD9572953 Si02
#       4
#    32  32  32  32
#     4   9  18  36  59  84 113 151 199 245 292 350
#     4  10  20  34  55  83 112 146 193 244 288 341
#     4  11  24  40  58  84 120 159 197 241 299 366
#     4   8  16  32  53  80 110 138 180 235 285 338
#
# _framework density 19.620483
#
# number of rings (size 3 to 8) (size 9 to 14) (size 15 to 20)
#    0.000    2.500    0.000    3.000    0.000    4.500 
#    0.000   13.750    0.000    7.500    0.000    0.000 
#    0.000    0.000    0.000    0.000    0.000    0.000 
#
# Total GULP energy -356530.108980 kJ/mol
# GULP energy per Si atom -5570.782953 kJ/mol
# Density = 1.957583 g / cm^3
# Si number density = 19.620483 Si / 1000 Ang^3
#
#
#
# Elastic Constant Matrix: (Units=GPa)
#
#
# Indices 1 2 3 4 5 6 
#
# 1 210.9883 11.8500 21.8381 0.0000 0.0000 0.0000
# 2 11.8500 210.9883 21.8381 0.0000 0.0000 0.0000
# 3 21.8381 21.8381 52.8146 0.0000 0.0000 0.0000
# 4 0.0000 0.0000 0.0000 18.8973 0.0000 0.0000
# 5 0.0000 0.0000 0.0000 0.0000 18.8973 0.0000
# 6 0.0000 0.0000 0.0000 0.0000 0.0000 -4.0934
#
#
#
# Elastic Compliance Matrix: (Units=1/GPa)
#
#
# Indices 1 2 3 4 5 6 
#
# 1 0.004952 -0.000069 -0.002019 0.000000 0.000000 0.000000
# 2 -0.000069 0.004952 -0.002019 0.000000 0.000000 0.000000
# 3 -0.002019 -0.002019 0.020604 0.000000 0.000000 0.000000
# 4 0.000000 0.000000 0.000000 0.052918 0.000000 0.000000
# 5 0.000000 0.000000 0.000000 0.000000 0.052918 0.000000
# 6 0.000000 0.000000 0.000000 0.000000 0.000000 -0.244295
#
#
# Mechanical properties :
#
#
# Convention : Reuss Voigt Hill
#
# Bulk Modulus (GPa) = 44.85538 65.09371 54.97455
# Shear Modulus (GPa) = -54.16883 34.69123 -9.73880
#
# Velocity S-wave (km/s) = -5.26006 4.20946 -2.23033
# Velocity P-wave (km/s) = 3.73896 7.54152 4.63112
#
# Compressibility (1/GPa) = 0.02229387
#
# Stress axis : x y z
#
# Youngs Moduli (GPa) = 201.91922 201.91922 48.53438
#
# Poissons Ratio (x) = 0.01396 0.09800
# Poissons Ratio (y) = 0.01396 0.09800
# Poissons Ratio (z) = 0.40771 0.40771
#
# Static dielectric constant tensor:
#      x y z
#    x 1.677010 0.000000 0.000000 
#    y 0.000000 1.677010 0.000000 
#    z 0.000000 0.000000 1.745950 
# 
# From -- ./inp_files/4606.got.cif
#   From: 2010.05.17/outbox.cif.g08.bks.cpg/sg141_3_cif.got.tgz:4606.got - 2010.05.20 13:30:51.
