data_PCOD9572648
_publ_section_title
;
Structure prediction by ZEFSAII (Michael W. Deem and Ramdas Pophale) SiO2 
 PCOD9572648
Probable space group: I 4/M C M
;
_chemical_formula_sum "Si O2"
_cell_formula_units_Z 176
_cell_length_a 23.686872
_cell_length_b 23.686872
_cell_length_c 15.244650
_cell_angle_alpha 90.000000
_cell_angle_beta 90.000000
_cell_angle_gamma 90.000000
_cell_volume 8553.283840
_symmetry_space_group_name_H-M "I 4/M C M"
_symmetry_group_IT_number 140
_symmetry_cell_setting 'tetragonal'
loop_
_space_group_symop_operation_xyz
x,y,z
-y,x,z
-x,-y,z
y,-x,z
x,-y,1/2-z
-x,y,1/2-z
y,x,1/2-z
-y,-x,1/2-z
-x,-y,-z
y,-x,-z
x,y,-z
-y,x,-z
-x,y,1/2+z
x,-y,1/2+z
-y,-x,1/2+z
y,x,1/2+z
1/2+x,1/2+y,1/2+z
1/2-y,1/2+x,1/2+z
1/2-x,1/2-y,1/2+z
1/2+y,1/2-x,1/2+z
1/2+x,1/2-y,-z
1/2-x,1/2+y,-z
1/2+y,1/2+x,-z
1/2-y,1/2-x,-z
1/2-x,1/2-y,1/2-z
1/2+y,1/2-x,1/2-z
1/2+x,1/2+y,1/2-z
1/2-y,1/2+x,1/2-z
1/2-x,1/2+y,z
1/2+x,1/2-y,z
1/2-y,1/2-x,z
1/2+y,1/2+x,z
loop_
_atom_site_type_symbol
_atom_site_label
_atom_site_fract_x
_atom_site_fract_y
_atom_site_fract_z
Si Si1 0.237959 0.646307 0.892871
Si Si2 0.276267 0.980827 0.606823
Si Si3 0.136848 0.182300 0.106610
Si Si4 0.525127 0.589955 0.000000
Si Si5 0.847412 0.985388 0.657588
Si Si6 0.309441 0.100731 0.606786
O O1 0.196021 0.696021 0.863916
O O2 0.214544 0.584319 0.867968
O O3 0.302576 0.658170 0.863900
O O4 0.239253 0.647667 0.000000
O O5 0.269547 0.981908 0.500000
O O6 0.218013 0.998912 0.651126
O O7 0.315541 0.034381 0.629820
O O8 0.081214 0.149722 0.138687
O O9 0.126391 0.248083 0.132191
O O10 0.135740 0.179985 0.000000
O O11 0.462009 0.565673 0.000000
O O12 0.526578 0.626657 0.085636
O O13 0.873243 0.000000 0.750000
O O14 0.309595 0.102841 0.500000
O O15 0.359267 0.140734 0.639437
#
# Coordination Sequence:
#
# PCOD9572648 Si02
#       6
#    32  32  32  16  32  32
#     4   9  17  28  50  82 111 148 190 229 284 351
#     4   9  17  31  51  75 109 145 184 232 288 346
#     4   9  16  29  50  76 109 145 186 239 286 333
#     4  11  26  44  60  78 108 150 196 245 291 329
#     4  11  22  37  60  85 110 147 193 239 288 341
#     4   8  13  23  42  69  99 137 186 234 283 340
#
# _framework density 20.576892999999998
#
# number of rings (size 3 to 8) (size 9 to 14) (size 15 to 20)
#    0.000    2.636    1.818    1.636    2.545    2.909 
#    0.000    0.909    0.000    7.091    0.000    3.818 
#    0.000    0.000    0.000    6.545    0.000    7.273 
#
# Total GULP energy -490945.417223 kJ/mol
# GULP energy per Si atom -5578.925196 kJ/mol
# Density = 2.053006 g / cm^3
# Si number density = 20.576893 Si / 1000 Ang^3
#
#
#
# Elastic Constant Matrix: (Units=GPa)
#
#
# Indices 1 2 3 4 5 6 
#
# 1 105.7695 49.4080 5.2030 0.0000 0.0000 0.0000
# 2 49.4080 105.7695 5.2030 0.0000 0.0000 0.0000
# 3 5.2030 5.2030 34.3867 0.0000 0.0000 0.0000
# 4 0.0000 0.0000 0.0000 7.3417 0.0000 0.0000
# 5 0.0000 0.0000 0.0000 0.0000 7.3417 0.0000
# 6 0.0000 0.0000 0.0000 0.0000 0.0000 17.0400
#
#
#
# Elastic Compliance Matrix: (Units=1/GPa)
#
#
# Indices 1 2 3 4 5 6 
#
# 1 0.012126 -0.005616 -0.000985 0.000000 0.000000 0.000000
# 2 -0.005616 0.012126 -0.000985 0.000000 0.000000 0.000000
# 3 -0.000985 -0.000985 0.029379 0.000000 0.000000 0.000000
# 4 0.000000 0.000000 0.000000 0.136208 0.000000 0.000000
# 5 0.000000 0.000000 0.000000 0.000000 0.136208 0.000000
# 6 0.000000 0.000000 0.000000 0.000000 0.000000 0.058685
#
#
# Mechanical properties :
#
#
# Convention : Reuss Voigt Hill
#
# Bulk Modulus (GPa) = 26.00144 40.61708 33.30926
# Shear Modulus (GPa) = 12.11456 18.75213 15.43334
#
# Velocity S-wave (km/s) = 2.42904 3.02208 2.74164
# Velocity P-wave (km/s) = 4.53108 5.65326 5.12299
#
# Compressibility (1/GPa) = 0.03845942
#
# Stress axis : x y z
#
# Youngs Moduli (GPa) = 82.46431 82.46431 34.03783
#
# Poissons Ratio (x) = 0.46313 0.03353
# Poissons Ratio (y) = 0.46313 0.03353
# Poissons Ratio (z) = 0.08123 0.08123
#
# Static dielectric constant tensor:
#      x y z
#    x 1.735100 0.000000 0.000000 
#    y 0.000000 1.735100 0.000000 
#    z 0.000000 0.000000 1.774510 
# 
# From -- ./inp_files/4892.got.cif
#   From: 2010.05.17/outbox.cif.g08.bks.cpg/sg140_3_cif.got.tgz:4892.got - 2010.06.21 00:45:31.
