data_PCOD9572124
_publ_section_title
;
Structure prediction by ZEFSAII (Michael W. Deem and Ramdas Pophale) SiO2 
 PCOD9572124
Probable space group: I 4/M C M
;
_chemical_formula_sum "Si O2"
_cell_formula_units_Z 160
_cell_length_a 32.913687
_cell_length_b 32.913687
_cell_length_c 8.574866
_cell_angle_alpha 90.000000
_cell_angle_beta 90.000000
_cell_angle_gamma 90.000000
_cell_volume 9289.244877
_symmetry_space_group_name_H-M "I 4/M C M"
_symmetry_group_IT_number 140
_symmetry_cell_setting 'tetragonal'
loop_
_space_group_symop_operation_xyz
x,y,z
-y,x,z
-x,-y,z
y,-x,z
x,-y,1/2-z
-x,y,1/2-z
y,x,1/2-z
-y,-x,1/2-z
-x,-y,-z
y,-x,-z
x,y,-z
-y,x,-z
-x,y,1/2+z
x,-y,1/2+z
-y,-x,1/2+z
y,x,1/2+z
1/2+x,1/2+y,1/2+z
1/2-y,1/2+x,1/2+z
1/2-x,1/2-y,1/2+z
1/2+y,1/2-x,1/2+z
1/2+x,1/2-y,-z
1/2-x,1/2+y,-z
1/2+y,1/2+x,-z
1/2-y,1/2-x,-z
1/2-x,1/2-y,1/2-z
1/2+y,1/2-x,1/2-z
1/2+x,1/2+y,1/2-z
1/2-y,1/2+x,1/2-z
1/2-x,1/2+y,z
1/2+x,1/2-y,z
1/2-y,1/2-x,z
1/2+y,1/2+x,z
loop_
_atom_site_type_symbol
_atom_site_label
_atom_site_fract_x
_atom_site_fract_y
_atom_site_fract_z
Si Si1 0.827434 0.545370 0.185912
Si Si2 0.612382 0.887619 0.313851
Si Si3 0.609464 0.672339 0.313611
Si Si4 0.824176 0.675825 0.684010
Si Si5 0.736872 0.888874 0.811666
Si Si6 0.045412 0.891615 0.813507
O O1 0.825548 0.500000 0.250000
O O2 0.870889 0.567417 0.219238
O O3 0.792573 0.574577 0.256700
O O4 0.821984 0.544560 0.000000
O O5 0.619400 0.880601 0.500000
O O6 0.641726 0.858275 0.216225
O O7 0.649558 0.649558 0.250000
O O8 0.609185 0.670275 0.500000
O O9 0.607019 0.718364 0.256091
O O10 0.571774 0.646377 0.247516
O O11 0.818418 0.681583 0.500000
O O12 0.846168 0.716385 0.744141
O O13 0.738095 0.888998 0.000000
O O14 0.068733 0.931268 0.750000
O O15 0.000000 0.889760 0.750000
O O16 0.045797 0.891927 0.000000
#
# Coordination Sequence:
#
# PCOD9572124 Si02
#       6
#    32  16  32  16  32  32
#     4  10  19  32  50  76 104 134 170 213 259 309
#     4   8  16  30  48  68  98 134 169 207 255 307
#     4  11  22  38  57  79 106 141 177 213 257 310
#     4   8  16  30  51  75 101 131 169 211 257 305
#     4  10  19  34  54  78 105 136 171 214 260 308
#     4  11  22  39  60  84 110 140 175 215 259 308
#
# _framework density 17.224219000000002
#
# number of rings (size 3 to 8) (size 9 to 14) (size 15 to 20)
#    0.000    2.000    0.000    6.000    0.000    2.600 
#    0.000    5.500    0.000    0.300    0.000    2.100 
#    0.000    0.000    0.000    0.000    0.000    0.000 
#
# Total GULP energy -446106.747297 kJ/mol
# GULP energy per Si atom -5576.334341 kJ/mol
# Density = 1.718502 g / cm^3
# Si number density = 17.224219 Si / 1000 Ang^3
#
#
#
# Elastic Constant Matrix: (Units=GPa)
#
#
# Indices 1 2 3 4 5 6 
#
# 1 77.5081 134.0979 52.9178 0.0000 0.0000 0.0000
# 2 134.0979 77.4623 52.9023 0.0000 0.0000 0.0000
# 3 52.9178 52.9023 121.2591 0.0000 0.0000 0.0000
# 4 0.0000 0.0000 0.0000 20.2255 0.0000 0.0000
# 5 0.0000 0.0000 0.0000 0.0000 20.2262 0.0000
# 6 0.0000 0.0000 0.0000 0.0000 0.0000 7.2230
#
#
#
# Elastic Compliance Matrix: (Units=1/GPa)
#
#
# Indices 1 2 3 4 5 6 
#
# 1 -0.005807 0.011855 -0.002638 0.000000 0.000000 0.000000
# 2 0.011855 -0.005811 -0.002638 0.000000 0.000000 0.000000
# 3 -0.002638 -0.002638 0.010549 0.000000 0.000000 0.000000
# 4 0.000000 0.000000 0.000000 0.049442 0.000000 0.000000
# 5 0.000000 0.000000 0.000000 0.000000 0.049441 0.000000
# 6 0.000000 0.000000 0.000000 0.000000 0.000000 0.138446
#
#
# Mechanical properties :
#
#
# Convention : Reuss Voigt Hill
#
# Bulk Modulus (GPa) = 82.72430 84.00726 83.36578
# Shear Modulus (GPa) = 22.01366 11.95573 16.98469
#
# Velocity S-wave (km/s) = 3.57888 2.63748 3.14362
# Velocity P-wave (km/s) = 8.07527 7.62586 7.85378
#
# Compressibility (1/GPa) = 0.01208835
#
# Stress axis : x y z
#
# Youngs Moduli (GPa) = -172.19333 -172.09142 94.79691
#
# Poissons Ratio (x) = 2.04010 0.25003
# Poissons Ratio (y) = 2.04131 0.25010
# Poissons Ratio (z) = -0.45417 -0.45403
#
# Static dielectric constant tensor:
#      x y z
#    x 1.576910 0.000000 0.000000 
#    y 0.000000 1.576920 0.000000 
#    z 0.000000 0.000000 1.579660 
# 
# From -- ./inp_files/1830.got.cif
#   From: 2010.05.17/outbox.cif.g08.bks.cpg/sg140_1_cif.got.tgz:1830.got - 2010.06.21 00:45:31.
