data_PCOD9572830
_publ_section_title
;
Structure prediction by ZEFSAII (Michael W. Deem and Ramdas Pophale) SiO2 
 PCOD9572830
Probable space group: I 41/A M D
;
_chemical_formula_sum "Si O2"
_cell_formula_units_Z 224
_cell_length_a 23.963257
_cell_length_b 23.963257
_cell_length_c 21.960467
_cell_angle_alpha 90.000000
_cell_angle_beta 90.000000
_cell_angle_gamma 90.000000
_cell_volume 12610.527755
_symmetry_space_group_name_H-M "I 41/A M D"
_symmetry_group_IT_number 141
_space_group.IT_coordinate_system_code '2'
_symmetry_cell_setting 'tetragonal'
loop_
_space_group_symop_operation_xyz
x,y,z
1/4-y,3/4+x,1/4+z
-x,1/2-y,z
1/4+y,1/4-x,3/4+z
x,-y,-z
-x,1/2+y,-z
1/4+y,3/4+x,1/4-z
1/4-y,1/4-x,3/4-z
-x,-y,-z
3/4+y,1/4-x,3/4-z
x,1/2+y,-z
3/4-y,3/4+x,1/4-z
-x,y,z
x,1/2-y,z
3/4-y,1/4-x,3/4+z
3/4+y,3/4+x,1/4+z
1/2+x,1/2+y,1/2+z
3/4-y,1/4+x,3/4+z
1/2-x,-y,1/2+z
3/4+y,3/4-x,1/4+z
1/2+x,1/2-y,1/2-z
1/2-x,y,1/2-z
3/4+y,1/4+x,3/4-z
3/4-y,3/4-x,1/4-z
1/2-x,1/2-y,1/2-z
1/4+y,3/4-x,1/4-z
1/2+x,y,1/2-z
1/4-y,1/4+x,3/4-z
1/2-x,1/2+y,1/2+z
1/2+x,-y,1/2+z
1/4-y,3/4-x,1/4+z
1/4+y,1/4+x,3/4+z
loop_
_atom_site_type_symbol
_atom_site_label
_atom_site_fract_x
_atom_site_fract_y
_atom_site_fract_z
Si Si1 0.437397 0.038710 0.440936
Si Si2 0.364003 0.502089 0.671665
Si Si3 0.817743 0.420586 0.741170
Si Si4 0.262472 0.576441 0.629686
Si Si5 0.937879 0.569384 0.734929
Si Si6 0.219321 0.811966 0.656310
Si Si7 0.406573 0.812570 0.805665
O O1 0.500000 0.057125 0.423007
O O2 0.404481 0.006371 0.386922
O O3 0.390803 0.082158 0.465385
O O4 0.443891 0.000000 0.500000
O O5 0.348658 0.441597 0.698464
O O6 0.305137 0.532351 0.658765
O O7 0.394433 0.538673 0.722709
O O8 0.750000 0.424074 0.750000
O O9 0.833942 0.463254 0.687797
O O10 0.201791 0.548210 0.625000
O O11 0.258071 0.634528 0.665544
O O12 0.934427 0.548179 0.665171
O O13 0.929030 0.635827 0.732721
O O14 0.000000 0.556559 0.757155
O O15 0.243041 0.750000 0.667709
O O16 0.160682 0.816672 0.691280
O O17 0.428431 0.821570 0.875000
O O18 0.421876 0.750000 0.786118
#
# Coordination Sequence:
#
# PCOD9572830 Si02
#       7
#    32  32  32  32  32  32  32
#     4   9  20  36  54  75 110 146 171 210 272 332
#     4  11  21  32  51  79 108 135 175 217 259 333
#     4  10  19  31  50  80 109 136 177 214 265 326
#     4  11  19  30  50  73 102 138 173 215 262 313
#     4  10  19  31  48  69  97 131 171 221 265 305
#     4   9  18  31  46  66  98 137 178 218 257 303
#     4   9  17  29  46  68  93 129 176 226 264 298
#
# _framework density 17.762937000000001
#
# number of rings (size 3 to 8) (size 9 to 14) (size 15 to 20)
#    0.000    2.143    2.857    3.000    0.000    1.000 
#    0.000    0.714    0.000    1.714    0.000    0.000 
#    0.000   17.714    0.000   36.143    0.000    0.000 
#
# Total GULP energy -624156.970424 kJ/mol
# GULP energy per Si atom -5572.830093 kJ/mol
# Density = 1.772251 g / cm^3
# Si number density = 17.762937 Si / 1000 Ang^3
#
#
#
# Elastic Constant Matrix: (Units=GPa)
#
#
# Indices 1 2 3 4 5 6 
#
# 1 82.8177 32.9349 16.5341 0.0000 0.0000 0.0000
# 2 32.9349 82.8163 16.5326 0.0000 0.0000 0.0000
# 3 16.5341 16.5326 44.9993 0.0000 0.0000 0.0000
# 4 0.0000 0.0000 0.0000 -8.6424 0.0000 0.0000
# 5 0.0000 0.0000 0.0000 0.0000 -8.6510 0.0000
# 6 0.0000 0.0000 0.0000 0.0000 0.0000 14.5975
#
#
#
# Elastic Compliance Matrix: (Units=1/GPa)
#
#
# Indices 1 2 3 4 5 6 
#
# 1 0.014850 -0.005198 -0.003547 0.000000 0.000000 0.000000
# 2 -0.005198 0.014850 -0.003546 0.000000 0.000000 0.000000
# 3 -0.003547 -0.003546 0.024828 0.000000 0.000000 0.000000
# 4 0.000000 0.000000 0.000000 -0.115709 0.000000 0.000000
# 5 0.000000 0.000000 0.000000 0.000000 -0.115593 0.000000
# 6 0.000000 0.000000 0.000000 0.000000 0.000000 0.068505
#
#
# Mechanical properties :
#
#
# Convention : Reuss Voigt Hill
#
# Bulk Modulus (GPa) = 33.39169 38.07070 35.73120
# Shear Modulus (GPa) = -67.83612 9.10296 -29.36658
#
# Velocity S-wave (km/s) = -6.18649 2.26623 -4.07043
# Velocity P-wave (km/s) = 5.67369 5.32231 1.38994
#
# Compressibility (1/GPa) = 0.02994757
#
# Stress axis : x y z
#
# Youngs Moduli (GPa) = 67.34127 67.34106 40.27631
#
# Poissons Ratio (x) = 0.35001 0.14285
# Poissons Ratio (y) = 0.35001 0.14282
# Poissons Ratio (z) = 0.23884 0.23879
#
# Static dielectric constant tensor:
#      x y z
#    x 1.630670 0.000000 0.000000 
#    y 0.000000 1.630670 0.000000 
#    z 0.000000 0.000000 1.650130 
# 
# From -- ./inp_files/11893.got.cif
#   From: 2010.05.17/outbox.cif.g08.bks.cpg/sg141_6_cif.got.tgz:11893.got - 2010.05.20 13:30:51.
