data_PCOD9572719
_publ_section_title
;
Structure prediction by ZEFSAII (Michael W. Deem and Ramdas Pophale) SiO2 
 PCOD9572719
Probable space group: I 4/M C M
;
_chemical_formula_sum "Si O2"
_cell_formula_units_Z 88
_cell_length_a 24.000000
_cell_length_b 24.000000
_cell_length_c 15.000000
_cell_angle_alpha 90.000000
_cell_angle_beta 90.000000
_cell_angle_gamma 90.000000
_cell_volume 8640.000000
_symmetry_space_group_name_H-M "I 4/M C M"
_symmetry_group_IT_number 140
_symmetry_cell_setting 'tetragonal'
loop_
_space_group_symop_operation_xyz
x,y,z
-y,x,z
-x,-y,z
y,-x,z
x,-y,1/2-z
-x,y,1/2-z
y,x,1/2-z
-y,-x,1/2-z
-x,-y,-z
y,-x,-z
x,y,-z
-y,x,-z
-x,y,1/2+z
x,-y,1/2+z
-y,-x,1/2+z
y,x,1/2+z
1/2+x,1/2+y,1/2+z
1/2-y,1/2+x,1/2+z
1/2-x,1/2-y,1/2+z
1/2+y,1/2-x,1/2+z
1/2+x,1/2-y,-z
1/2-x,1/2+y,-z
1/2+y,1/2+x,-z
1/2-y,1/2-x,-z
1/2-x,1/2-y,1/2-z
1/2+y,1/2-x,1/2-z
1/2+x,1/2+y,1/2-z
1/2-y,1/2+x,1/2-z
1/2-x,1/2+y,z
1/2+x,1/2-y,z
1/2-y,1/2-x,z
1/2+y,1/2+x,z
loop_
_atom_site_type_symbol
_atom_site_label
_atom_site_fract_x
_atom_site_fract_y
_atom_site_fract_z
Si Si1 0.805294 0.859075 0.166234
Si Si2 0.182695 0.682695 0.203825
Si Si3 0.237851 0.016723 0.149842
Si Si4 0.014872 0.355245 0.099694
Si Si5 0.356913 0.143088 0.609805
Si Si6 0.986131 0.838050 0.000000
Si Si7 0.128019 0.115889 0.000000
Si Si8 0.095811 0.404190 0.388554
O O1 0.840810 0.840810 0.250000
O O2 0.745340 0.830141 0.172961
O O3 0.789897 0.923729 0.160097
O O4 0.844746 0.851371 0.081978
O O5 0.176280 0.676280 0.312332
O O6 0.139414 0.639414 0.155948
O O7 0.295761 0.015638 0.098639
O O8 0.250313 0.000000 0.250000
O O9 0.198001 0.978746 0.089891
O O10 0.967147 0.392076 0.142772
O O11 0.077683 0.346746 0.131844
O O12 0.022791 0.377483 0.000000
O O13 0.347524 0.152477 0.500000
O O14 0.938387 0.883174 0.000000
O O15 0.050652 0.855712 0.000000
O O16 0.099604 0.400397 0.500000
#
# Coordination Sequence:
#
# PCOD9572719 Si02
#       8
#    32  16  32  32  16  16  16  16
#     4  11  24  41  61  94 129 164 212 260 311 380
#     4  12  23  40  64  89 126 173 217 256 326 384
#     4  11  20  35  64  86 121 164 208 259 307 372
#     4  10  20  38  57  88 120 167 219 270 322 370
#     4  10  24  40  59  88 131 162 219 274 320 380
#     4  10  22  41  62  96 122 160 203 248 315 382
#     4  10  24  42  68  94 130 161 202 261 310 377
#     4  10  22  34  61  88 122 162 221 274 319 368
#
# _framework density 10.185185000000001
#
# number of rings (size 3 to 8) (size 9 to 14) (size 15 to 20)
#    0.000    1.455    2.727    2.455    1.273    0.545 
#    1.636    1.818    0.000    1.091    0.000    2.545 
#    0.000    0.000    0.000    0.000    0.000    0.000 
#
# Total GULP energy -489978.495408 kJ/mol
# GULP energy per Si atom -5567.937448 kJ/mol
# Density = 1.016200 g / cm^3
# Si number density = 10.185185 Si / 1000 Ang^3
#
#
#
# Elastic Constant Matrix: (Units=GPa)
#
#
# Indices 1 2 3 4 5 6 
#
# 1 30.6075 50.4211 30.4765 0.0000 0.0000 0.0000
# 2 50.4211 30.6069 30.4762 0.0000 0.0000 0.0000
# 3 30.4765 30.4762 117.8486 0.0000 0.0000 0.0000
# 4 0.0000 0.0000 0.0000 110.5197 0.0000 0.0000
# 5 0.0000 0.0000 0.0000 0.0000 110.5234 0.0000
# 6 0.0000 0.0000 0.0000 0.0000 0.0000 103.4836
#
#
#
# Elastic Compliance Matrix: (Units=1/GPa)
#
#
# Indices 1 2 3 4 5 6 
#
# 1 -0.017574 0.032896 -0.003962 0.000000 0.000000 0.000000
# 2 0.032896 -0.017574 -0.003962 0.000000 0.000000 0.000000
# 3 -0.003962 -0.003962 0.010535 0.000000 0.000000 0.000000
# 4 0.000000 0.000000 0.000000 0.009048 0.000000 0.000000
# 5 0.000000 0.000000 0.000000 0.000000 0.009048 0.000000
# 6 0.000000 0.000000 0.000000 0.000000 0.000000 0.009663
#
#
# Mechanical properties :
#
#
# Convention : Reuss Voigt Hill
#
# Bulk Modulus (GPa) = 39.47980 44.64563 42.06272
# Shear Modulus (GPa) = -130.37022 69.41797 -30.47613
#
# Velocity S-wave (km/s) = -8.00867 5.84396 -3.87214
# Velocity P-wave (km/s) = 8.12991 8.21586 0.83814
#
# Compressibility (1/GPa) = 0.02532941
#
# Stress axis : x y z
#
# Youngs Moduli (GPa) = -56.90353 -56.90241 94.92315
#
# Poissons Ratio (x) = 1.87185 0.37612
# Poissons Ratio (y) = 1.87189 0.37612
# Poissons Ratio (z) = -0.22547 -0.22547
#
# Static dielectric constant tensor:
#      x y z
#    x 1.712850 0.000000 0.000000 
#    y 0.000000 1.712850 0.000000 
#    z 0.000000 0.000000 1.765430 
# 
# From -- ./inp_files/5008.got.cif
#   From: 2010.05.17/outbox.ucp.g08.bks.cvg/sg140_3_cif.got.tgz:5008.got - 2010.06.11 11:42:50.
