data_PCOD9572107
_publ_section_title
;
Structure prediction by ZEFSAII (Michael W. Deem and Ramdas Pophale) SiO2 
 PCOD9572107
Probable space group: I 4/M C M
;
_chemical_formula_sum "Si O2"
_cell_formula_units_Z 144
_cell_length_a 17.600961
_cell_length_b 17.600961
_cell_length_c 22.109231
_cell_angle_alpha 90.000000
_cell_angle_beta 90.000000
_cell_angle_gamma 90.000000
_cell_volume 6849.303308
_symmetry_space_group_name_H-M "I 4/M C M"
_symmetry_group_IT_number 140
_symmetry_cell_setting 'tetragonal'
loop_
_space_group_symop_operation_xyz
x,y,z
-y,x,z
-x,-y,z
y,-x,z
x,-y,1/2-z
-x,y,1/2-z
y,x,1/2-z
-y,-x,1/2-z
-x,-y,-z
y,-x,-z
x,y,-z
-y,x,-z
-x,y,1/2+z
x,-y,1/2+z
-y,-x,1/2+z
y,x,1/2+z
1/2+x,1/2+y,1/2+z
1/2-y,1/2+x,1/2+z
1/2-x,1/2-y,1/2+z
1/2+y,1/2-x,1/2+z
1/2+x,1/2-y,-z
1/2-x,1/2+y,-z
1/2+y,1/2+x,-z
1/2-y,1/2-x,-z
1/2-x,1/2-y,1/2-z
1/2+y,1/2-x,1/2-z
1/2+x,1/2+y,1/2-z
1/2-y,1/2+x,1/2-z
1/2-x,1/2+y,z
1/2+x,1/2-y,z
1/2-y,1/2-x,z
1/2+y,1/2+x,z
loop_
_atom_site_type_symbol
_atom_site_label
_atom_site_fract_x
_atom_site_fract_y
_atom_site_fract_z
Si Si1 0.112798 0.048436 0.877333
Si Si2 0.763171 0.612516 0.833254
Si Si3 0.827426 0.791468 0.428408
Si Si4 0.495439 0.120741 0.176969
Si Si5 0.116261 0.116261 0.750000
O O1 0.186042 0.089753 0.904130
O O2 0.113388 0.055763 0.804372
O O3 0.037603 0.096557 0.895864
O O4 0.830437 0.669564 0.812428
O O5 0.727039 0.650157 0.892561
O O6 0.800293 0.530514 0.844730
O O7 0.697568 0.610219 0.783298
O O8 0.824685 0.802453 0.500000
O O9 0.791348 0.708653 0.414914
O O10 0.500000 0.124465 0.250000
O O11 0.556315 0.056315 0.157619
O O12 0.412916 0.087085 0.160814
#
# Coordination Sequence:
#
# PCOD9572107 Si02
#       5
#    32  32  32  32  16
#     4  10  21  36  56  82 111 143 177 217 268 327
#     4   9  17  29  48  73 102 139 180 222 266 316
#     4   9  19  36  56  78 106 141 182 228 276 322
#     4   8  14  25  42  67 100 137 177 218 259 309
#     4  10  19  31  50  76 110 140 167 209 268 330
#
# _framework density 21.024037
#
# number of rings (size 3 to 8) (size 9 to 14) (size 15 to 20)
#    0.000    2.889    0.000    1.667    0.000    6.222 
#    0.000    1.111    0.000    6.000    0.000    4.667 
#    0.000    0.000    0.000    0.000    0.000    0.000 
#
# Total GULP energy -401524.580373 kJ/mol
# GULP energy per Si atom -5576.730283 kJ/mol
# Density = 2.097619 g / cm^3
# Si number density = 21.024037 Si / 1000 Ang^3
#
#
#
# Elastic Constant Matrix: (Units=GPa)
#
#
# Indices 1 2 3 4 5 6 
#
# 1 76.7988 64.6916 18.7967 0.0000 0.0000 0.0000
# 2 64.6916 76.7988 18.7967 0.0000 0.0000 0.0000
# 3 18.7967 18.7967 46.1422 0.0000 0.0000 0.0000
# 4 0.0000 0.0000 0.0000 13.1227 0.0000 0.0000
# 5 0.0000 0.0000 0.0000 0.0000 13.1227 0.0000
# 6 0.0000 0.0000 0.0000 0.0000 0.0000 35.1566
#
#
#
# Elastic Compliance Matrix: (Units=1/GPa)
#
#
# Indices 1 2 3 4 5 6 
#
# 1 0.045260 -0.037335 -0.003229 0.000000 0.000000 0.000000
# 2 -0.037335 0.045260 -0.003229 0.000000 0.000000 0.000000
# 3 -0.003229 -0.003229 0.024302 0.000000 0.000000 0.000000
# 4 0.000000 0.000000 0.000000 0.076204 0.000000 0.000000
# 5 0.000000 0.000000 0.000000 0.000000 0.076204 0.000000
# 6 0.000000 0.000000 0.000000 0.000000 0.000000 0.028444
#
#
# Mechanical properties :
#
#
# Convention : Reuss Voigt Hill
#
# Bulk Modulus (GPa) = 36.71179 44.92331 40.81755
# Shear Modulus (GPa) = 12.74407 18.77737 15.76072
#
# Velocity S-wave (km/s) = 2.46472 2.99178 2.74095
# Velocity P-wave (km/s) = 5.05959 5.77480 5.42899
#
# Compressibility (1/GPa) = 0.02723920
#
# Stress axis : x y z
#
# Youngs Moduli (GPa) = 22.09436 22.09436 41.14804
#
# Poissons Ratio (x) = 0.82489 0.13285
# Poissons Ratio (y) = 0.82489 0.13285
# Poissons Ratio (z) = 0.07133 0.07133
#
# Static dielectric constant tensor:
#      x y z
#    x 1.813540 0.000000 0.000000 
#    y 0.000000 1.813540 0.000000 
#    z 0.000000 0.000000 1.706200 
# 
# From -- ./inp_files/9431.got.cif
#   From: 2010.05.17/outbox.cif.g08.bks.cpg/sg140_5_cif.got.tgz:9431.got - 2010.06.21 00:45:31.
