data_PCOD9572276
_publ_section_title
;
Structure prediction by ZEFSAII (Michael W. Deem and Ramdas Pophale) SiO2 
 PCOD9572276
Probable space group: I 4/M C M
;
_chemical_formula_sum "Si O2"
_cell_formula_units_Z 176
_cell_length_a 19.568401
_cell_length_b 19.568401
_cell_length_c 24.595424
_cell_angle_alpha 90.000000
_cell_angle_beta 90.000000
_cell_angle_gamma 90.000000
_cell_volume 9418.136763
_symmetry_space_group_name_H-M "I 4/M C M"
_symmetry_group_IT_number 140
_symmetry_cell_setting 'tetragonal'
loop_
_space_group_symop_operation_xyz
x,y,z
-y,x,z
-x,-y,z
y,-x,z
x,-y,1/2-z
-x,y,1/2-z
y,x,1/2-z
-y,-x,1/2-z
-x,-y,-z
y,-x,-z
x,y,-z
-y,x,-z
-x,y,1/2+z
x,-y,1/2+z
-y,-x,1/2+z
y,x,1/2+z
1/2+x,1/2+y,1/2+z
1/2-y,1/2+x,1/2+z
1/2-x,1/2-y,1/2+z
1/2+y,1/2-x,1/2+z
1/2+x,1/2-y,-z
1/2-x,1/2+y,-z
1/2+y,1/2+x,-z
1/2-y,1/2-x,-z
1/2-x,1/2-y,1/2-z
1/2+y,1/2-x,1/2-z
1/2+x,1/2+y,1/2-z
1/2-y,1/2+x,1/2-z
1/2-x,1/2+y,z
1/2+x,1/2-y,z
1/2-y,1/2-x,z
1/2+y,1/2+x,z
loop_
_atom_site_type_symbol
_atom_site_label
_atom_site_fract_x
_atom_site_fract_y
_atom_site_fract_z
Si Si1 0.579264 0.186972 0.415350
Si Si2 0.722051 0.338117 0.616080
Si Si3 0.000000 0.723532 0.750000
Si Si4 0.947581 0.666360 0.859887
Si Si5 0.249524 0.861166 0.305086
Si Si6 0.299652 0.536139 0.000000
Si Si7 0.378350 0.661956 0.000000
O O1 0.635439 0.135439 0.438719
O O2 0.507736 0.151020 0.402005
O O3 0.609177 0.213585 0.358569
O O4 0.559895 0.252590 0.450126
O O5 0.776703 0.276703 0.613321
O O6 0.763319 0.407974 0.626077
O O7 0.674659 0.317121 0.667797
O O8 0.688259 0.344387 0.556394
O O9 0.979532 0.677175 0.800874
O O10 0.928392 0.761090 0.732624
O O11 0.892247 0.607754 0.859731
O O12 0.302392 0.802392 0.282161
O O13 0.368102 0.580661 0.000000
O O14 0.314088 0.456345 0.000000
#
# Coordination Sequence:
#
# PCOD9572276 Si02
#       7
#    32  32  16  32  32  16  16
#     4  10  20  35  56  85 117 151 195 241 290 356
#     4  10  20  35  59  89 118 153 202 254 304 353
#     4  10  20  34  54  79 116 153 198 248 308 352
#     4  10  21  37  56  82 118 157 198 246 294 353
#     4   9  18  33  55  83 112 149 197 251 301 354
#     4  12  23  38  61  87 116 155 199 234 303 362
#     4  12  23  38  63  88 121 156 194 243 300 361
#
# _framework density 18.687346999999999
#
# number of rings (size 3 to 8) (size 9 to 14) (size 15 to 20)
#    0.000    1.818    3.636    1.091    0.000    2.727 
#    0.000    3.182    0.000    4.636    0.000    0.000 
#    0.000    4.727    0.000    0.000    0.000    0.000 
#
# Total GULP energy -490219.338025 kJ/mol
# GULP energy per Si atom -5570.674296 kJ/mol
# Density = 1.864481 g / cm^3
# Si number density = 18.687347 Si / 1000 Ang^3
#
#
#
# Elastic Constant Matrix: (Units=GPa)
#
#
# Indices 1 2 3 4 5 6 
#
# 1 82.1013 41.7403 23.2630 0.0000 0.0000 0.0000
# 2 41.7403 82.1013 23.2630 0.0000 0.0000 0.0000
# 3 23.2630 23.2630 51.5028 0.0000 0.0000 0.0000
# 4 0.0000 0.0000 0.0000 21.9492 0.0000 0.0000
# 5 0.0000 0.0000 0.0000 0.0000 21.9492 0.0000
# 6 0.0000 0.0000 0.0000 0.0000 0.0000 20.4134
#
#
#
# Elastic Compliance Matrix: (Units=1/GPa)
#
#
# Indices 1 2 3 4 5 6 
#
# 1 0.017251 -0.007526 -0.004393 0.000000 0.000000 0.000000
# 2 -0.007526 0.017251 -0.004393 0.000000 0.000000 0.000000
# 3 -0.004393 -0.004393 0.023385 0.000000 0.000000 0.000000
# 4 0.000000 0.000000 0.000000 0.045560 0.000000 0.000000
# 5 0.000000 0.000000 0.000000 0.000000 0.045560 0.000000
# 6 0.000000 0.000000 0.000000 0.000000 0.000000 0.048987
#
#
# Mechanical properties :
#
#
# Convention : Reuss Voigt Hill
#
# Bulk Modulus (GPa) = 39.58179 43.58201 41.58190
# Shear Modulus (GPa) = 20.91731 21.35830 21.13780
#
# Velocity S-wave (km/s) = 3.34927 3.38439 3.36688
# Velocity P-wave (km/s) = 6.01530 6.21646 6.11671
#
# Compressibility (1/GPa) = 0.02526414
#
# Stress axis : x y z
#
# Youngs Moduli (GPa) = 57.96853 57.96853 42.76309
#
# Poissons Ratio (x) = 0.43625 0.18784
# Poissons Ratio (y) = 0.43625 0.18784
# Poissons Ratio (z) = 0.25464 0.25464
#
# Static dielectric constant tensor:
#      x y z
#    x 1.659720 0.000000 0.000000 
#    y 0.000000 1.659720 0.000000 
#    z 0.000000 0.000000 1.684300 
# 
# From -- ./inp_files/10756.got.cif
#   From: 2010.05.17/outbox.cif.g08.bks.cpg/sg140_6_cif.got.tgz:10756.got - 2010.06.21 00:45:31.
