data_PCOD9572129
_publ_section_title
;
Structure prediction by ZEFSAII (Michael W. Deem and Ramdas Pophale) SiO2 
 PCOD9572129
Probable space group: I 4/M C M
;
_chemical_formula_sum "Si O2"
_cell_formula_units_Z 160
_cell_length_a 31.941080
_cell_length_b 31.941080
_cell_length_c 9.096751
_cell_angle_alpha 90.000000
_cell_angle_beta 90.000000
_cell_angle_gamma 90.000000
_cell_volume 9280.801848
_symmetry_space_group_name_H-M "I 4/M C M"
_symmetry_group_IT_number 140
_symmetry_cell_setting 'tetragonal'
loop_
_space_group_symop_operation_xyz
x,y,z
-y,x,z
-x,-y,z
y,-x,z
x,-y,1/2-z
-x,y,1/2-z
y,x,1/2-z
-y,-x,1/2-z
-x,-y,-z
y,-x,-z
x,y,-z
-y,x,-z
-x,y,1/2+z
x,-y,1/2+z
-y,-x,1/2+z
y,x,1/2+z
1/2+x,1/2+y,1/2+z
1/2-y,1/2+x,1/2+z
1/2-x,1/2-y,1/2+z
1/2+y,1/2-x,1/2+z
1/2+x,1/2-y,-z
1/2-x,1/2+y,-z
1/2+y,1/2+x,-z
1/2-y,1/2-x,-z
1/2-x,1/2-y,1/2-z
1/2+y,1/2-x,1/2-z
1/2+x,1/2+y,1/2-z
1/2-y,1/2+x,1/2-z
1/2-x,1/2+y,z
1/2+x,1/2-y,z
1/2-y,1/2-x,z
1/2+y,1/2+x,z
loop_
_atom_site_type_symbol
_atom_site_label
_atom_site_fract_x
_atom_site_fract_y
_atom_site_fract_z
Si Si1 0.175466 0.235994 0.827868
Si Si2 0.441103 0.538226 0.500000
Si Si3 0.309284 0.124586 0.175413
Si Si4 0.093509 0.906492 0.750000
Si Si5 0.590788 0.316525 0.827957
Si Si6 0.455169 0.769783 0.176707
O O1 0.214997 0.214997 0.750000
O O2 0.157353 0.275891 0.742717
O O3 0.137176 0.202855 0.820605
O O4 0.182951 0.245072 0.000000
O O5 0.444517 0.488555 0.500000
O O6 0.416852 0.558086 0.366248
O O7 0.354814 0.145187 0.200224
O O8 0.299395 0.080744 0.254527
O O9 0.302745 0.120665 0.000000
O O10 0.088028 0.856830 0.776840
O O11 0.559816 0.278165 0.793104
O O12 0.584263 0.328954 0.000000
O O13 0.500000 0.777227 0.250000
O O14 0.456330 0.774637 0.000000
#
# Coordination Sequence:
#
# PCOD9572129 Si02
#       6
#    32  16  32  16  32  32
#     4  10  19  32  52  74 107 141 178 224 276 328
#     4  11  26  42  54  68  90 120 157 210 276 338
#     4  10  21  37  56  80 110 149 193 231 274 328
#     4  12  20  39  60  74  95 122 166 218 272 340
#     4   9  19  35  52  79 104 131 167 215 270 330
#     4  10  21  38  58  84 118 148 183 228 278 333
#
# _framework density 17.239889999999999
#
# number of rings (size 3 to 8) (size 9 to 14) (size 15 to 20)
#    0.000    1.900    2.000    3.600    0.000    4.400 
#    9.000    0.000    0.000    0.000    0.000    0.000 
#    0.000    0.400    0.000    4.200    0.000    1.800 
#
# Total GULP energy -446109.316006 kJ/mol
# GULP energy per Si atom -5576.366450 kJ/mol
# Density = 1.720065 g / cm^3
# Si number density = 17.239890 Si / 1000 Ang^3
#
#
#
# Elastic Constant Matrix: (Units=GPa)
#
#
# Indices 1 2 3 4 5 6 
#
# 1 82.3495 81.9537 36.9356 0.0000 0.0000 0.0000
# 2 81.9537 82.3464 36.9327 0.0000 0.0000 0.0000
# 3 36.9356 36.9327 63.3737 0.0000 0.0000 0.0000
# 4 0.0000 0.0000 0.0000 12.2573 0.0000 0.0000
# 5 0.0000 0.0000 0.0000 0.0000 12.2561 0.0000
# 6 0.0000 0.0000 0.0000 0.0000 0.0000 27.5433
#
#
#
# Elastic Compliance Matrix: (Units=1/GPa)
#
#
# Indices 1 2 3 4 5 6 
#
# 1 1.272484 -1.264234 -0.004867 0.000000 0.000000 0.000000
# 2 -1.264234 1.272478 -0.004746 0.000000 0.000000 0.000000
# 3 -0.004867 -0.004746 0.021382 0.000000 0.000000 0.000000
# 4 0.000000 0.000000 0.000000 0.081584 0.000000 0.000000
# 5 0.000000 0.000000 0.000000 0.000000 0.081592 0.000000
# 6 0.000000 0.000000 0.000000 0.000000 0.000000 0.036306
#
#
# Mechanical properties :
#
#
# Convention : Reuss Voigt Hill
#
# Bulk Modulus (GPa) = 53.61806 59.96817 56.79312
# Shear Modulus (GPa) = 0.93990 15.22786 8.08388
#
# Velocity S-wave (km/s) = 0.73917 2.97525 2.16777
# Velocity P-wave (km/s) = 5.64776 6.83102 6.26738
#
# Compressibility (1/GPa) = 0.01865043
#
# Stress axis : x y z
#
# Youngs Moduli (GPa) = 0.78586 0.78587 46.76845
#
# Poissons Ratio (x) = 0.99352 0.22761
# Poissons Ratio (y) = 0.99352 0.22198
# Poissons Ratio (z) = 0.00382 0.00373
#
# Static dielectric constant tensor:
#      x y z
#    x 1.573740 0.000000 0.000000 
#    y 0.000000 1.573740 0.000000 
#    z 0.000000 0.000000 1.574680 
# 
# From -- ./inp_files/1806.got.cif
#   From: 2010.05.17/outbox.cif.g08.bks.cpg/sg140_1_cif.got.tgz:1806.got - 2010.06.21 00:45:31.
