data_PCOD9572150
_publ_section_title
;
Structure prediction by ZEFSAII (Michael W. Deem and Ramdas Pophale) SiO2 
 PCOD9572150
Probable space group: I 4/M C M
;
_chemical_formula_sum "Si O2"
_cell_formula_units_Z 160
_cell_length_a 32.513090
_cell_length_b 32.513090
_cell_length_c 9.104506
_cell_angle_alpha 90.000000
_cell_angle_beta 90.000000
_cell_angle_gamma 90.000000
_cell_volume 9624.382591
_symmetry_space_group_name_H-M "I 4/M C M"
_symmetry_group_IT_number 140
_symmetry_cell_setting 'tetragonal'
loop_
_space_group_symop_operation_xyz
x,y,z
-y,x,z
-x,-y,z
y,-x,z
x,-y,1/2-z
-x,y,1/2-z
y,x,1/2-z
-y,-x,1/2-z
-x,-y,-z
y,-x,-z
x,y,-z
-y,x,-z
-x,y,1/2+z
x,-y,1/2+z
-y,-x,1/2+z
y,x,1/2+z
1/2+x,1/2+y,1/2+z
1/2-y,1/2+x,1/2+z
1/2-x,1/2-y,1/2+z
1/2+y,1/2-x,1/2+z
1/2+x,1/2-y,-z
1/2-x,1/2+y,-z
1/2+y,1/2+x,-z
1/2-y,1/2-x,-z
1/2-x,1/2-y,1/2-z
1/2+y,1/2-x,1/2-z
1/2+x,1/2+y,1/2-z
1/2-y,1/2+x,1/2-z
1/2-x,1/2+y,z
1/2+x,1/2-y,z
1/2-y,1/2-x,z
1/2+y,1/2+x,z
loop_
_atom_site_type_symbol
_atom_site_label
_atom_site_fract_x
_atom_site_fract_y
_atom_site_fract_z
Si Si1 0.814237 0.872139 0.175233
Si Si2 0.042174 0.542174 0.828313
Si Si3 0.731450 0.543920 0.324684
Si Si4 0.100304 0.399697 0.829757
Si Si5 0.803372 0.588530 0.833189
Si Si6 0.758639 0.324838 0.328773
O O1 0.855830 0.855830 0.250000
O O2 0.799297 0.918242 0.217091
O O3 0.778757 0.840551 0.229874
O O4 0.817479 0.870337 0.000000
O O5 0.054857 0.500000 0.750000
O O6 0.075528 0.575528 0.789828
O O7 0.036071 0.536071 0.000000
O O8 0.722792 0.500000 0.250000
O O9 0.730232 0.539534 0.500000
O O10 0.776126 0.560784 0.273857
O O11 0.148143 0.410222 0.810388
O O12 0.089447 0.410554 0.000000
O O13 0.788972 0.635913 0.824487
O O14 0.794653 0.574308 0.000000
O O15 0.745784 0.319569 0.500000
O O16 0.784550 0.284550 0.283548
#
# Coordination Sequence:
#
# PCOD9572150 Si02
#       6
#    32  16  32  16  32  32
#     4  10  21  35  51  74 102 134 172 213 255 300
#     4  11  23  40  57  70  86 111 143 187 246 309
#     4  10  21  36  54  77 104 136 174 213 256 305
#     4  10  19  33  54  78 100 125 160 203 251 305
#     4   9  17  31  51  74 101 132 166 206 251 297
#     4   9  16  29  49  71  97 133 172 208 250 294
#
# _framework density 16.624441999999998
#
# number of rings (size 3 to 8) (size 9 to 14) (size 15 to 20)
#    0.000    2.300    1.000    2.400    0.000    4.800 
#    0.000    0.000    0.000    0.000    0.000    0.000 
#    0.000    0.400    0.000    4.400    0.000    3.200 
#
# Total GULP energy -446101.807011 kJ/mol
# GULP energy per Si atom -5576.272588 kJ/mol
# Density = 1.658660 g / cm^3
# Si number density = 16.624442 Si / 1000 Ang^3
#
#
#
# Elastic Constant Matrix: (Units=GPa)
#
#
# Indices 1 2 3 4 5 6 
#
# 1 61.3576 59.2406 47.3080 0.0000 0.0000 0.0000
# 2 59.2406 61.3543 47.3079 0.0000 0.0000 0.0000
# 3 47.3080 47.3079 80.0468 0.0000 0.0000 0.0000
# 4 0.0000 0.0000 0.0000 22.7324 0.0000 0.0000
# 5 0.0000 0.0000 0.0000 0.0000 22.7325 0.0000
# 6 0.0000 0.0000 0.0000 0.0000 0.0000 22.7740
#
#
#
# Elastic Compliance Matrix: (Units=1/GPa)
#
#
# Indices 1 2 3 4 5 6 
#
# 1 0.244088 -0.228639 -0.009131 0.000000 0.000000 0.000000
# 2 -0.228639 0.244111 -0.009144 0.000000 0.000000 0.000000
# 3 -0.009131 -0.009144 0.023293 0.000000 0.000000 0.000000
# 4 0.000000 0.000000 0.000000 0.043990 0.000000 0.000000
# 5 0.000000 0.000000 0.000000 0.000000 0.043990 0.000000
# 6 0.000000 0.000000 0.000000 0.000000 0.000000 0.043910
#
#
# Mechanical properties :
#
#
# Convention : Reuss Voigt Hill
#
# Bulk Modulus (GPa) = 56.60810 56.71907 56.66359
# Shear Modulus (GPa) = 4.37408 16.90795 10.64101
#
# Velocity S-wave (km/s) = 1.62383 3.19259 2.53273
# Velocity P-wave (km/s) = 6.13521 6.91246 6.53540
#
# Compressibility (1/GPa) = 0.01766532
#
# Stress axis : x y z
#
# Youngs Moduli (GPa) = 4.09688 4.09649 42.93062
#
# Poissons Ratio (x) = 0.93662 0.39200
# Poissons Ratio (y) = 0.93671 0.39257
# Poissons Ratio (z) = 0.03741 0.03746
#
# Static dielectric constant tensor:
#      x y z
#    x 1.574540 0.000000 0.000000 
#    y 0.000000 1.574540 0.000000 
#    z 0.000000 0.000000 1.568850 
# 
# From -- ./inp_files/1862.got.cif
#   From: 2010.05.17/outbox.cif.g08.bks.cpg/sg140_1_cif.got.tgz:1862.got - 2010.06.21 00:45:31.
