data_PCOD9572012
_publ_section_title
;
Structure prediction by ZEFSAII (Michael W. Deem and Ramdas Pophale) SiO2 
 PCOD9572012
Probable space group: I 4/M C M
;
_chemical_formula_sum "Si O2"
_cell_formula_units_Z 176
_cell_length_a 26.520276
_cell_length_b 26.520276
_cell_length_c 14.605947
_cell_angle_alpha 90.000000
_cell_angle_beta 90.000000
_cell_angle_gamma 90.000000
_cell_volume 10272.728245
_symmetry_space_group_name_H-M "I 4/M C M"
_symmetry_group_IT_number 140
_symmetry_cell_setting 'tetragonal'
loop_
_space_group_symop_operation_xyz
x,y,z
-y,x,z
-x,-y,z
y,-x,z
x,-y,1/2-z
-x,y,1/2-z
y,x,1/2-z
-y,-x,1/2-z
-x,-y,-z
y,-x,-z
x,y,-z
-y,x,-z
-x,y,1/2+z
x,-y,1/2+z
-y,-x,1/2+z
y,x,1/2+z
1/2+x,1/2+y,1/2+z
1/2-y,1/2+x,1/2+z
1/2-x,1/2-y,1/2+z
1/2+y,1/2-x,1/2+z
1/2+x,1/2-y,-z
1/2-x,1/2+y,-z
1/2+y,1/2+x,-z
1/2-y,1/2-x,-z
1/2-x,1/2-y,1/2-z
1/2+y,1/2-x,1/2-z
1/2+x,1/2+y,1/2-z
1/2-y,1/2+x,1/2-z
1/2-x,1/2+y,z
1/2+x,1/2-y,z
1/2-y,1/2-x,z
1/2+y,1/2+x,z
loop_
_atom_site_type_symbol
_atom_site_label
_atom_site_fract_x
_atom_site_fract_y
_atom_site_fract_z
Si Si1 0.581904 0.279336 0.246276
Si Si2 0.303170 0.000000 0.750000
Si Si3 0.351837 0.769631 0.102853
Si Si4 0.038503 0.145635 0.892816
Si Si5 0.937087 0.357525 0.395644
Si Si6 0.923153 0.865515 0.392028
O O1 0.548240 0.231614 0.276625
O O2 0.631530 0.264850 0.187686
O O3 0.546612 0.306584 0.170959
O O4 0.591468 0.318748 0.327598
O O5 0.337905 0.018610 0.667449
O O6 0.299315 0.799315 0.114800
O O7 0.395226 0.812745 0.101958
O O8 0.352269 0.746068 0.000000
O O9 0.083994 0.107765 0.870877
O O10 0.982656 0.124576 0.877393
O O11 0.042237 0.159104 0.000000
O O12 0.953147 0.365993 0.500000
O O13 0.906912 0.406912 0.362536
O O14 0.915914 0.853924 0.500000
#
# Coordination Sequence:
#
# PCOD9572012 Si02
#       6
#    32  16  32  32  32  32
#     4  11  18  30  48  74 102 124 156 203 253 293
#     4  10  18  26  48  77  95 124 160 196 246 294
#     4   8  15  28  48  74 100 127 161 202 246 291
#     4  10  20  34  50  70  95 127 164 205 249 295
#     4   8  15  28  45  69 101 131 161 200 241 280
#     4  10  21  34  49  69  96 130 168 205 245 293
#
# _framework density 17.132740999999999
#
# number of rings (size 3 to 8) (size 9 to 14) (size 15 to 20)
#    0.000    2.545    1.818    2.182    0.000    1.818 
#    0.000    1.818    0.000    5.727    0.000    8.909 
#    0.000    0.000    0.000    0.000    0.000    0.000 
#
# Total GULP energy -490345.506894 kJ/mol
# GULP energy per Si atom -5572.108033 kJ/mol
# Density = 1.709375 g / cm^3
# Si number density = 17.132741 Si / 1000 Ang^3
#
#
#
# Elastic Constant Matrix: (Units=GPa)
#
#
# Indices 1 2 3 4 5 6 
#
# 1 51.5477 49.6173 53.3479 0.0000 0.0000 0.0000
# 2 49.6173 51.5477 53.3479 0.0000 0.0000 0.0000
# 3 53.3479 53.3479 86.1781 0.0000 0.0000 0.0000
# 4 0.0000 0.0000 0.0000 25.7094 0.0000 0.0000
# 5 0.0000 0.0000 0.0000 0.0000 25.7094 0.0000
# 6 0.0000 0.0000 0.0000 0.0000 0.0000 30.4609
#
#
#
# Elastic Compliance Matrix: (Units=1/GPa)
#
#
# Indices 1 2 3 4 5 6 
#
# 1 0.273247 -0.244770 -0.017629 0.000000 0.000000 0.000000
# 2 -0.244770 0.273247 -0.017629 0.000000 0.000000 0.000000
# 3 -0.017629 -0.017629 0.033430 0.000000 0.000000 0.000000
# 4 0.000000 0.000000 0.000000 0.038896 0.000000 0.000000
# 5 0.000000 0.000000 0.000000 0.000000 0.038896 0.000000
# 6 0.000000 0.000000 0.000000 0.000000 0.000000 0.032829
#
#
# Mechanical properties :
#
#
# Convention : Reuss Voigt Hill
#
# Bulk Modulus (GPa) = 50.32813 55.76665 53.04739
# Shear Modulus (GPa) = 3.97702 18.57331 11.27517
#
# Velocity S-wave (km/s) = 1.52523 3.29611 2.56814
# Velocity P-wave (km/s) = 5.70447 6.86340 6.31059
#
# Compressibility (1/GPa) = 0.01986960
#
# Stress axis : x y z
#
# Youngs Moduli (GPa) = 3.65969 3.65969 29.91349
#
# Poissons Ratio (x) = 0.89578 0.52734
# Poissons Ratio (y) = 0.89578 0.52734
# Poissons Ratio (z) = 0.06452 0.06452
#
# Static dielectric constant tensor:
#      x y z
#    x 1.588500 0.000000 0.000000 
#    y 0.000000 1.588500 0.000000 
#    z 0.000000 0.000000 1.599700 
# 
# From -- ./inp_files/5127.got.cif
#   From: 2010.05.17/outbox.cif.g08.bks.cpg/sg140_3_cif.got.tgz:5127.got - 2010.06.21 00:45:31.
