data_PCOD9572273
_publ_section_title
;
Structure prediction by ZEFSAII (Michael W. Deem and Ramdas Pophale) SiO2 
 PCOD9572273
Probable space group: I 4/M C M
;
_chemical_formula_sum "Si O2"
_cell_formula_units_Z 160
_cell_length_a 23.152028
_cell_length_b 23.152028
_cell_length_c 15.023849
_cell_angle_alpha 90.000000
_cell_angle_beta 90.000000
_cell_angle_gamma 90.000000
_cell_volume 8053.029463
_symmetry_space_group_name_H-M "I 4/M C M"
_symmetry_group_IT_number 140
_symmetry_cell_setting 'tetragonal'
loop_
_space_group_symop_operation_xyz
x,y,z
-y,x,z
-x,-y,z
y,-x,z
x,-y,1/2-z
-x,y,1/2-z
y,x,1/2-z
-y,-x,1/2-z
-x,-y,-z
y,-x,-z
x,y,-z
-y,x,-z
-x,y,1/2+z
x,-y,1/2+z
-y,-x,1/2+z
y,x,1/2+z
1/2+x,1/2+y,1/2+z
1/2-y,1/2+x,1/2+z
1/2-x,1/2-y,1/2+z
1/2+y,1/2-x,1/2+z
1/2+x,1/2-y,-z
1/2-x,1/2+y,-z
1/2+y,1/2+x,-z
1/2-y,1/2-x,-z
1/2-x,1/2-y,1/2-z
1/2+y,1/2-x,1/2-z
1/2+x,1/2+y,1/2-z
1/2-y,1/2+x,1/2-z
1/2-x,1/2+y,z
1/2+x,1/2-y,z
1/2-y,1/2-x,z
1/2+y,1/2+x,z
loop_
_atom_site_type_symbol
_atom_site_label
_atom_site_fract_x
_atom_site_fract_y
_atom_site_fract_z
Si Si1 0.085598 0.963860 0.893064
Si Si2 0.211195 0.976859 0.848865
Si Si3 0.384534 0.206949 0.291172
Si Si4 0.305000 0.287356 0.599853
Si Si5 0.403791 0.751465 0.596623
O O1 0.151120 0.945643 0.871982
O O2 0.030396 0.926276 0.861609
O O3 0.081897 0.963978 0.000000
O O4 0.269846 0.939479 0.845593
O O5 0.202537 0.000000 0.750000
O O6 0.222365 0.033768 0.905076
O O7 0.353374 0.146627 0.313002
O O8 0.339144 0.256259 0.321887
O O9 0.398076 0.210738 0.186124
O O10 0.328656 0.273382 0.500000
O O11 0.241090 0.258911 0.602139
O O12 0.297611 0.355159 0.607384
O O13 0.393019 0.779615 0.500000
#
# Coordination Sequence:
#
# PCOD9572273 Si02
#       5
#    32  32  32  32  32
#     4   9  19  35  53  73 100 141 195 247 288 325
#     4  10  22  35  50  76 109 146 188 234 287 338
#     4  10  21  37  55  78 112 150 191 235 282 346
#     4   9  18  32  52  79 109 145 186 227 278 335
#     4  10  20  34  54  79 108 143 184 234 285 334
#
# _framework density 19.868300000000001
#
# number of rings (size 3 to 8) (size 9 to 14) (size 15 to 20)
#    0.000    2.400    0.000    2.400    2.800    5.200 
#    0.000    1.000    0.000    0.000    0.000    0.000 
#    0.000   47.600    0.000   35.000    0.000    0.000 
#
# Total GULP energy -445786.835179 kJ/mol
# GULP energy per Si atom -5572.335440 kJ/mol
# Density = 1.982308 g / cm^3
# Si number density = 19.868300 Si / 1000 Ang^3
#
#
#
# Elastic Constant Matrix: (Units=GPa)
#
#
# Indices 1 2 3 4 5 6 
#
# 1 66.1244 24.2655 24.3465 0.0000 0.0000 0.0000
# 2 24.2655 66.1244 24.3465 0.0000 0.0000 0.0000
# 3 24.3465 24.3465 65.7721 0.0000 0.0000 0.0000
# 4 0.0000 0.0000 0.0000 12.0059 0.0000 0.0000
# 5 0.0000 0.0000 0.0000 0.0000 12.0059 0.0000
# 6 0.0000 0.0000 0.0000 0.0000 0.0000 24.7729
#
#
#
# Elastic Compliance Matrix: (Units=1/GPa)
#
#
# Indices 1 2 3 4 5 6 
#
# 1 0.018854 -0.005036 -0.005115 0.000000 0.000000 0.000000
# 2 -0.005036 0.018854 -0.005115 0.000000 0.000000 0.000000
# 3 -0.005115 -0.005115 0.018991 0.000000 0.000000 0.000000
# 4 0.000000 0.000000 0.000000 0.083292 0.000000 0.000000
# 5 0.000000 0.000000 0.000000 0.000000 0.083292 0.000000
# 6 0.000000 0.000000 0.000000 0.000000 0.000000 0.040367
#
#
# Mechanical properties :
#
#
# Convention : Reuss Voigt Hill
#
# Bulk Modulus (GPa) = 38.21518 38.21531 38.21525
# Shear Modulus (GPa) = 16.50683 18.09445 17.30064
#
# Velocity S-wave (km/s) = 2.88551 3.02109 2.95408
# Velocity P-wave (km/s) = 5.51158 5.60762 5.55981
#
# Compressibility (1/GPa) = 0.02616761
#
# Stress axis : x y z
#
# Youngs Moduli (GPa) = 53.03837 53.03837 52.65671
#
# Poissons Ratio (x) = 0.26708 0.26935
# Poissons Ratio (y) = 0.26708 0.26935
# Poissons Ratio (z) = 0.27130 0.27130
#
# Static dielectric constant tensor:
#      x y z
#    x 1.737990 0.000000 0.000000 
#    y 0.000000 1.737990 0.000000 
#    z 0.000000 0.000000 1.801000 
# 
# From -- ./inp_files/4737.got.cif
#   From: 2010.05.17/outbox.cif.g08.bks.cpg/sg140_3_cif.got.tgz:4737.got - 2010.06.21 00:45:31.
