data_PCOD9572474
_publ_section_title
;
Structure prediction by ZEFSAII (Michael W. Deem and Ramdas Pophale) SiO2 
 PCOD9572474
Probable space group: I 4/M C M
;
_chemical_formula_sum "Si O2"
_cell_formula_units_Z 144
_cell_length_a 20.269420
_cell_length_b 20.269420
_cell_length_c 18.667316
_cell_angle_alpha 90.000000
_cell_angle_beta 90.000000
_cell_angle_gamma 90.000000
_cell_volume 7669.455338
_symmetry_space_group_name_H-M "I 4/M C M"
_symmetry_group_IT_number 140
_symmetry_cell_setting 'tetragonal'
loop_
_space_group_symop_operation_xyz
x,y,z
-y,x,z
-x,-y,z
y,-x,z
x,-y,1/2-z
-x,y,1/2-z
y,x,1/2-z
-y,-x,1/2-z
-x,-y,-z
y,-x,-z
x,y,-z
-y,x,-z
-x,y,1/2+z
x,-y,1/2+z
-y,-x,1/2+z
y,x,1/2+z
1/2+x,1/2+y,1/2+z
1/2-y,1/2+x,1/2+z
1/2-x,1/2-y,1/2+z
1/2+y,1/2-x,1/2+z
1/2+x,1/2-y,-z
1/2-x,1/2+y,-z
1/2+y,1/2+x,-z
1/2-y,1/2-x,-z
1/2-x,1/2-y,1/2-z
1/2+y,1/2-x,1/2-z
1/2+x,1/2+y,1/2-z
1/2-y,1/2+x,1/2-z
1/2-x,1/2+y,z
1/2+x,1/2-y,z
1/2-y,1/2-x,z
1/2+y,1/2+x,z
loop_
_atom_site_type_symbol
_atom_site_label
_atom_site_fract_x
_atom_site_fract_y
_atom_site_fract_z
Si Si1 0.134951 0.865049 0.750000
Si Si2 0.134163 0.742376 0.339622
Si Si3 0.502711 0.255566 0.581406
Si Si4 0.330100 0.064314 0.793131
Si Si5 0.391777 0.528730 0.853969
O O1 0.152115 0.815990 0.685170
O O2 0.140435 0.938733 0.717710
O O3 0.195042 0.695042 0.360984
O O4 0.074393 0.747854 0.395895
O O5 0.103942 0.712142 0.266155
O O6 0.512350 0.234370 0.500000
O O7 0.542187 0.212750 0.639409
O O8 0.525691 0.331441 0.591108
O O9 0.390131 0.109870 0.816017
O O10 0.353828 0.000000 0.750000
O O11 0.423550 0.455738 0.858992
#
# Coordination Sequence:
#
# PCOD9572474 Si02
#       5
#    16  32  32  32  32
#     4  12  19  37  64  88 118 154 206 262 308 358
#     4  10  21  38  62  88 114 152 205 259 305 358
#     4  11  23  40  60  86 127 169 203 249 308 376
#     4   9  19  37  61  90 119 152 200 257 312 366
#     4  11  23  37  59  90 124 163 208 254 306 361
#
# _framework density 18.775779
#
# number of rings (size 3 to 8) (size 9 to 14) (size 15 to 20)
#    0.000    1.556    4.444    1.000    0.000    2.889 
#    0.000    1.111    0.000    0.000    0.000    6.222 
#    0.000    0.000    0.000    0.000    0.000    0.000 
#
# Total GULP energy -401068.342823 kJ/mol
# GULP energy per Si atom -5570.393650 kJ/mol
# Density = 1.873304 g / cm^3
# Si number density = 18.775779 Si / 1000 Ang^3
#
#
#
# Elastic Constant Matrix: (Units=GPa)
#
#
# Indices 1 2 3 4 5 6 
#
# 1 81.0949 51.7218 22.5369 0.0000 0.0000 0.0000
# 2 51.7218 81.0958 22.5368 0.0000 0.0000 0.0000
# 3 22.5369 22.5368 84.1746 0.0000 0.0000 0.0000
# 4 0.0000 0.0000 0.0000 10.0836 0.0000 0.0000
# 5 0.0000 0.0000 0.0000 0.0000 10.0835 0.0000
# 6 0.0000 0.0000 0.0000 0.0000 0.0000 30.0498
#
#
#
# Elastic Compliance Matrix: (Units=1/GPa)
#
#
# Indices 1 2 3 4 5 6 
#
# 1 0.021163 -0.012881 -0.002217 0.000000 0.000000 0.000000
# 2 -0.012881 0.021163 -0.002217 0.000000 0.000000 0.000000
# 3 -0.002217 -0.002217 0.013067 0.000000 0.000000 0.000000
# 4 0.000000 0.000000 0.000000 0.099171 0.000000 0.000000
# 5 0.000000 0.000000 0.000000 0.000000 0.099172 0.000000
# 6 0.000000 0.000000 0.000000 0.000000 0.000000 0.033278
#
#
# Mechanical properties :
#
#
# Convention : Reuss Voigt Hill
#
# Bulk Modulus (GPa) = 48.16635 48.88405 48.52520
# Shear Modulus (GPa) = 15.21760 20.01468 17.61614
#
# Velocity S-wave (km/s) = 2.85000 3.26848 3.06639
# Velocity P-wave (km/s) = 6.04476 6.35108 6.19981
#
# Compressibility (1/GPa) = 0.02076138
#
# Stress axis : x y z
#
# Youngs Moduli (GPa) = 47.25208 47.25273 76.52628
#
# Poissons Ratio (x) = 0.60868 0.16969
# Poissons Ratio (y) = 0.60867 0.16968
# Poissons Ratio (z) = 0.10478 0.10477
#
# Static dielectric constant tensor:
#      x y z
#    x 1.676010 0.000000 0.000000 
#    y 0.000000 1.676000 0.000000 
#    z 0.000000 0.000000 1.657840 
# 
# From -- ./inp_files/6662.got.cif
#   From: 2010.05.17/outbox.cif.g08.bks.cpg/sg140_4_cif.got.tgz:6662.got - 2010.06.21 00:45:31.
