data_PCOD9572505
_publ_section_title
;
Structure prediction by ZEFSAII (Michael W. Deem and Ramdas Pophale) SiO2 
 PCOD9572505
Probable space group: I 4/M C M
;
_chemical_formula_sum "Si O2"
_cell_formula_units_Z 120
_cell_length_a 16.294954
_cell_length_b 16.294954
_cell_length_c 24.389463
_cell_angle_alpha 90.000000
_cell_angle_beta 90.000000
_cell_angle_gamma 90.000000
_cell_volume 6476.024989
_symmetry_space_group_name_H-M "I 4/M C M"
_symmetry_group_IT_number 140
_symmetry_cell_setting 'tetragonal'
loop_
_space_group_symop_operation_xyz
x,y,z
-y,x,z
-x,-y,z
y,-x,z
x,-y,1/2-z
-x,y,1/2-z
y,x,1/2-z
-y,-x,1/2-z
-x,-y,-z
y,-x,-z
x,y,-z
-y,x,-z
-x,y,1/2+z
x,-y,1/2+z
-y,-x,1/2+z
y,x,1/2+z
1/2+x,1/2+y,1/2+z
1/2-y,1/2+x,1/2+z
1/2-x,1/2-y,1/2+z
1/2+y,1/2-x,1/2+z
1/2+x,1/2-y,-z
1/2-x,1/2+y,-z
1/2+y,1/2+x,-z
1/2-y,1/2-x,-z
1/2-x,1/2-y,1/2-z
1/2+y,1/2-x,1/2-z
1/2+x,1/2+y,1/2-z
1/2-y,1/2+x,1/2-z
1/2-x,1/2+y,z
1/2+x,1/2-y,z
1/2-y,1/2-x,z
1/2+y,1/2+x,z
loop_
_atom_site_type_symbol
_atom_site_label
_atom_site_fract_x
_atom_site_fract_y
_atom_site_fract_z
Si Si1 0.295044 0.389666 0.103134
Si Si2 0.112999 0.387002 0.939123
Si Si3 0.500000 0.000000 0.863742
Si Si4 0.372764 0.127237 0.126756
Si Si5 0.219380 0.943267 0.435521
Si Si6 0.248972 0.251029 0.814950
O O1 0.209639 0.396893 0.070709
O O2 0.320304 0.484831 0.101910
O O3 0.361361 0.334346 0.072434
O O4 0.273786 0.339221 0.158489
O O5 0.059281 0.440720 0.898353
O O6 0.089338 0.410663 0.000000
O O7 0.433896 0.066105 0.840329
O O8 0.309693 0.077402 0.088058
O O9 0.315499 0.184502 0.164275
O O10 0.220491 0.963759 0.500000
O O11 0.250000 0.250000 0.750000
#
# Coordination Sequence:
#
# PCOD9572505 Si02
#       6
#    32  16   8  16  32  16
#     4  10  22  35  56  82 115 153 205 245 297 365
#     4  11  20  33  52  82 121 165 196 233 305 376
#     4  12  21  32  58  87 126 144 194 245 307 360
#     4  10  22  35  57  88 119 156 198 241 306 375
#     4  11  20  35  55  85 124 161 195 242 301 375
#     4   9  21  45  66  80 110 159 208 258 303 340
#
# _framework density 18.529886000000001
#
# number of rings (size 3 to 8) (size 9 to 14) (size 15 to 20)
#    0.000    1.600    2.667    3.800    0.000    1.600 
#    0.000    6.667    0.000    3.200    0.000    7.467 
#    0.000    0.000    0.000    0.000    0.000    0.000 
#
# Total GULP energy -334238.185637 kJ/mol
# GULP energy per Si atom -5570.636427 kJ/mol
# Density = 1.848771 g / cm^3
# Si number density = 18.529886 Si / 1000 Ang^3
#
#
#
# Elastic Constant Matrix: (Units=GPa)
#
#
# Indices 1 2 3 4 5 6 
#
# 1 95.4258 38.4590 25.9582 0.0000 0.0000 0.0000
# 2 38.4590 95.4260 25.9582 0.0000 0.0000 0.0000
# 3 25.9582 25.9582 113.5565 0.0000 0.0000 0.0000
# 4 0.0000 0.0000 0.0000 11.2961 0.0000 0.0000
# 5 0.0000 0.0000 0.0000 0.0000 11.2962 0.0000
# 6 0.0000 0.0000 0.0000 0.0000 0.0000 43.6785
#
#
#
# Elastic Compliance Matrix: (Units=1/GPa)
#
#
# Indices 1 2 3 4 5 6 
#
# 1 0.012875 -0.004679 -0.001873 0.000000 0.000000 0.000000
# 2 -0.004679 0.012875 -0.001873 0.000000 0.000000 0.000000
# 3 -0.001873 -0.001873 0.009663 0.000000 0.000000 0.000000
# 4 0.000000 0.000000 0.000000 0.088526 0.000000 0.000000
# 5 0.000000 0.000000 0.000000 0.000000 0.088526 0.000000
# 6 0.000000 0.000000 0.000000 0.000000 0.000000 0.022895
#
#
# Mechanical properties :
#
#
# Convention : Reuss Voigt Hill
#
# Bulk Modulus (GPa) = 53.87918 53.90657 53.89288
# Shear Modulus (GPa) = 19.35003 27.52301 23.43652
#
# Velocity S-wave (km/s) = 3.23501 3.85818 3.56025
# Velocity P-wave (km/s) = 6.56458 7.00016 6.78587
#
# Compressibility (1/GPa) = 0.01856004
#
# Stress axis : x y z
#
# Youngs Moduli (GPa) = 77.67093 77.67112 103.49074
#
# Poissons Ratio (x) = 0.36344 0.19388
# Poissons Ratio (y) = 0.36344 0.19388
# Poissons Ratio (z) = 0.14551 0.14551
#
# Static dielectric constant tensor:
#      x y z
#    x 1.723320 0.000000 0.000000 
#    y 0.000000 1.723320 0.000000 
#    z 0.000000 0.000000 1.588970 
# 
# From -- ./inp_files/11352.got.cif
#   From: 2010.05.17/outbox.cif.g08.bks.cpg/sg140_6_cif.got.tgz:11352.got - 2010.06.21 00:45:31.
