data_PCOD9572734
_publ_section_title
;
Structure prediction by ZEFSAII (Michael W. Deem and Ramdas Pophale) SiO2 
 PCOD9572734
Probable space group: I 41/A M D
;
_chemical_formula_sum "Si O2"
_cell_formula_units_Z 112
_cell_length_a 15.370253
_cell_length_b 15.370253
_cell_length_c 27.050921
_cell_angle_alpha 90.000000
_cell_angle_beta 90.000000
_cell_angle_gamma 90.000000
_cell_volume 6390.636102
_symmetry_space_group_name_H-M "I 41/A M D"
_symmetry_group_IT_number 141
_space_group.IT_coordinate_system_code '2'
_symmetry_cell_setting 'tetragonal'
loop_
_space_group_symop_operation_xyz
x,y,z
1/4-y,3/4+x,1/4+z
-x,1/2-y,z
1/4+y,1/4-x,3/4+z
x,-y,-z
-x,1/2+y,-z
1/4+y,3/4+x,1/4-z
1/4-y,1/4-x,3/4-z
-x,-y,-z
3/4+y,1/4-x,3/4-z
x,1/2+y,-z
3/4-y,3/4+x,1/4-z
-x,y,z
x,1/2-y,z
3/4-y,1/4-x,3/4+z
3/4+y,3/4+x,1/4+z
1/2+x,1/2+y,1/2+z
3/4-y,1/4+x,3/4+z
1/2-x,-y,1/2+z
3/4+y,3/4-x,1/4+z
1/2+x,1/2-y,1/2-z
1/2-x,y,1/2-z
3/4+y,1/4+x,3/4-z
3/4-y,3/4-x,1/4-z
1/2-x,1/2-y,1/2-z
1/4+y,3/4-x,1/4-z
1/2+x,y,1/2-z
1/4-y,1/4+x,3/4-z
1/2-x,1/2+y,1/2+z
1/2+x,-y,1/2+z
1/4-y,3/4-x,1/4+z
1/4+y,1/4+x,3/4+z
loop_
_atom_site_type_symbol
_atom_site_label
_atom_site_fract_x
_atom_site_fract_y
_atom_site_fract_z
Si Si1 0.500000 0.654358 0.066800
Si Si2 0.251954 0.998047 0.375000
Si Si3 0.896745 0.941157 0.809030
Si Si4 0.000000 0.587277 0.535089
Si Si5 0.816461 0.646158 0.559003
O O1 0.500000 0.750000 0.089520
O O2 0.405911 0.615051 0.075783
O O3 0.500000 0.660839 0.007195
O O4 0.335446 0.996947 0.339834
O O5 0.246159 0.083983 0.409765
O O6 0.885263 0.949991 0.750044
O O7 0.000000 0.947591 0.818684
O O8 0.000000 0.500000 0.500000
O O9 0.086976 0.604290 0.565680
O O10 0.813719 0.750000 0.569731
#
# Coordination Sequence:
#
# PCOD9572734 Si02
#       5
#    16  16  32  16  32
#     4   8  14  28  50  64  86 132 176 200 237 296
#     4  12  22  30  55  81 102 136 178 218 260 314
#     4   9  19  36  53  73 103 141 177 216 258 313
#     4  10  16  28  46  62  98 148 179 196 235 304
#     4  10  21  33  48  74 111 140 169 213 265 309
#
# _framework density 17.525641
#
# number of rings (size 3 to 8) (size 9 to 14) (size 15 to 20)
#    0.000    2.286    0.000    7.286    4.000    0.000 
#    0.000    0.000    0.000    3.857    0.000    4.000 
#    0.000    0.000    0.000    0.000    0.000    0.000 
#
# Total GULP energy -311750.898828 kJ/mol
# GULP energy per Si atom -5566.980336 kJ/mol
# Density = 1.748575 g / cm^3
# Si number density = 17.525641 Si / 1000 Ang^3
#
#
#
# Elastic Constant Matrix: (Units=GPa)
#
#
# Indices 1 2 3 4 5 6 
#
# 1 66.8130 24.8414 41.6608 0.0000 0.0000 0.0000
# 2 24.8414 66.8143 41.6605 0.0000 0.0000 0.0000
# 3 41.6608 41.6605 72.6453 0.0000 0.0000 0.0000
# 4 0.0000 0.0000 0.0000 31.1865 0.0000 0.0000
# 5 0.0000 0.0000 0.0000 0.0000 31.1866 0.0000
# 6 0.0000 0.0000 0.0000 0.0000 0.0000 16.8900
#
#
#
# Elastic Compliance Matrix: (Units=1/GPa)
#
#
# Indices 1 2 3 4 5 6 
#
# 1 0.023310 -0.000516 -0.013072 0.000000 0.000000 0.000000
# 2 -0.000516 0.023309 -0.013071 0.000000 0.000000 0.000000
# 3 -0.013072 -0.013071 0.028758 0.000000 0.000000 0.000000
# 4 0.000000 0.000000 0.000000 0.032065 0.000000 0.000000
# 5 0.000000 0.000000 0.000000 0.000000 0.032065 0.000000
# 6 0.000000 0.000000 0.000000 0.000000 0.000000 0.059207
#
#
# Mechanical properties :
#
#
# Convention : Reuss Voigt Hill
#
# Bulk Modulus (GPa) = 45.33355 46.95530 46.14443
# Shear Modulus (GPa) = 19.27633 22.39326 20.83480
#
# Velocity S-wave (km/s) = 3.32006 3.57843 3.45166
# Velocity P-wave (km/s) = 6.37340 6.62752 6.50170
#
# Compressibility (1/GPa) = 0.02205872
#
# Stress axis : x y z
#
# Youngs Moduli (GPa) = 42.90022 42.90188 34.77263
#
# Poissons Ratio (x) = 0.02213 0.45455
# Poissons Ratio (y) = 0.02213 0.45453
# Poissons Ratio (z) = 0.56079 0.56079
#
# Static dielectric constant tensor:
#      x y z
#    x 1.646250 0.000000 0.000000 
#    y 0.000000 1.646250 0.000000 
#    z 0.000000 0.000000 1.596520 
# 
# From -- ./inp_files/12537.got.cif
#   From: 2010.05.17/outbox.cif.g08.bks.cpg/sg141_7_cif.got.tgz:12537.got - 2010.05.20 13:30:51.
