data_PCOD9572031
_publ_section_title
;
Structure prediction by ZEFSAII (Michael W. Deem and Ramdas Pophale) SiO2 
 PCOD9572031
Probable space group: I 4/M C M
;
_chemical_formula_sum "Si O2"
_cell_formula_units_Z 112
_cell_length_a 17.523353
_cell_length_b 17.523353
_cell_length_c 23.064378
_cell_angle_alpha 90.000000
_cell_angle_beta 90.000000
_cell_angle_gamma 90.000000
_cell_volume 7082.330126
_symmetry_space_group_name_H-M "I 4/M C M"
_symmetry_group_IT_number 140
_symmetry_cell_setting 'tetragonal'
loop_
_space_group_symop_operation_xyz
x,y,z
-y,x,z
-x,-y,z
y,-x,z
x,-y,1/2-z
-x,y,1/2-z
y,x,1/2-z
-y,-x,1/2-z
-x,-y,-z
y,-x,-z
x,y,-z
-y,x,-z
-x,y,1/2+z
x,-y,1/2+z
-y,-x,1/2+z
y,x,1/2+z
1/2+x,1/2+y,1/2+z
1/2-y,1/2+x,1/2+z
1/2-x,1/2-y,1/2+z
1/2+y,1/2-x,1/2+z
1/2+x,1/2-y,-z
1/2-x,1/2+y,-z
1/2+y,1/2+x,-z
1/2-y,1/2-x,-z
1/2-x,1/2-y,1/2-z
1/2+y,1/2-x,1/2-z
1/2+x,1/2+y,1/2-z
1/2-y,1/2+x,1/2-z
1/2-x,1/2+y,z
1/2+x,1/2-y,z
1/2-y,1/2-x,z
1/2+y,1/2+x,z
loop_
_atom_site_type_symbol
_atom_site_label
_atom_site_fract_x
_atom_site_fract_y
_atom_site_fract_z
Si Si1 0.064340 0.564340 0.071445
Si Si2 0.503417 0.626162 0.819570
Si Si3 0.732909 0.358458 0.000000
Si Si4 0.979148 0.264470 0.904369
Si Si5 0.106313 0.730065 0.500000
O O1 0.040520 0.645492 0.099416
O O2 0.000000 0.500000 0.081319
O O3 0.071106 0.571106 0.000000
O O4 0.428089 0.575984 0.835068
O O5 0.500000 0.634661 0.750000
O O6 0.509470 0.708102 0.850349
O O7 0.730267 0.411412 0.056211
O O8 0.811606 0.311606 0.000000
O O9 0.667142 0.296924 0.000000
O O10 0.054338 0.262602 0.943732
O O11 0.149595 0.649595 0.500000
#
# Coordination Sequence:
#
# PCOD9572031 Si02
#       5
#    16  32  16  32  16
#     4  11  20  34  56  77 104 144 188 212 261 321
#     4   9  19  36  58  80 104 139 179 218 267 325
#     4  10  18  30  44  75 106 135 162 204 270 307
#     4  11  18  32  52  76 102 141 171 224 254 313
#     4  10  20  29  47  74 107 133 170 210 255 320
#
# _framework density 15.814004000000001
#
# number of rings (size 3 to 8) (size 9 to 14) (size 15 to 20)
#    0.000    1.857    4.286    3.429    0.000    0.000 
#    0.000    0.000    6.286    8.571    0.000    0.000 
#    0.000    0.000    0.000    0.000    0.000    0.000 
#
# Total GULP energy -311996.996449 kJ/mol
# GULP energy per Si atom -5571.374937 kJ/mol
# Density = 1.577801 g / cm^3
# Si number density = 15.814004 Si / 1000 Ang^3
#
#
#
# Elastic Constant Matrix: (Units=GPa)
#
#
# Indices 1 2 3 4 5 6 
#
# 1 114.5668 53.3038 45.5890 0.0000 0.0000 0.0000
# 2 53.3038 114.5668 45.5890 0.0000 0.0000 0.0000
# 3 45.5890 45.5890 56.1918 0.0000 0.0000 0.0000
# 4 0.0000 0.0000 0.0000 1.1659 0.0000 0.0000
# 5 0.0000 0.0000 0.0000 0.0000 1.1659 0.0000
# 6 0.0000 0.0000 0.0000 0.0000 0.0000 23.3109
#
#
#
# Elastic Compliance Matrix: (Units=1/GPa)
#
#
# Indices 1 2 3 4 5 6 
#
# 1 0.013487 -0.002837 -0.008640 0.000000 0.000000 0.000000
# 2 -0.002837 0.013487 -0.008640 0.000000 0.000000 0.000000
# 3 -0.008640 -0.008640 0.031816 0.000000 0.000000 0.000000
# 4 0.000000 0.000000 0.000000 0.857708 0.000001 0.000000
# 5 0.000000 0.000000 0.000000 0.000001 0.857710 0.000000
# 6 0.000000 0.000000 0.000000 0.000000 0.000000 0.042898
#
#
# Mechanical properties :
#
#
# Convention : Reuss Voigt Hill
#
# Bulk Modulus (GPa) = 53.89514 63.80990 58.85252
# Shear Modulus (GPa) = 2.68309 14.51810 8.60059
#
# Velocity S-wave (km/s) = 1.30397 3.03323 2.33461
# Velocity P-wave (km/s) = 6.03504 7.25983 6.67558
#
# Compressibility (1/GPa) = 0.01855455
#
# Stress axis : x y z
#
# Youngs Moduli (GPa) = 74.14807 74.14807 31.43035
#
# Poissons Ratio (x) = 0.21032 0.27157
# Poissons Ratio (y) = 0.21032 0.27157
# Poissons Ratio (z) = 0.64067 0.64067
#
# Static dielectric constant tensor:
#      x y z
#    x 1.538600 0.000000 0.000000 
#    y 0.000000 1.538600 0.000000 
#    z 0.000000 0.000000 1.498280 
# 
# From -- ./inp_files/7970.got.cif
#   From: 2010.05.17/outbox.cif.g08.bks.cpg/sg140_4_cif.got.tgz:7970.got - 2010.06.21 00:45:31.
