data_PCOD9572681
_publ_section_title
;
Structure prediction by ZEFSAII (Michael W. Deem and Ramdas Pophale) SiO2 
 PCOD9572681
Probable space group: I 4/M C M
;
_chemical_formula_sum "Si O2"
_cell_formula_units_Z 128
_cell_length_a 19.737439
_cell_length_b 19.737439
_cell_length_c 15.826026
_cell_angle_alpha 90.000000
_cell_angle_beta 90.000000
_cell_angle_gamma 90.000000
_cell_volume 6165.289530
_symmetry_space_group_name_H-M "I 4/M C M"
_symmetry_group_IT_number 140
_symmetry_cell_setting 'tetragonal'
loop_
_space_group_symop_operation_xyz
x,y,z
-y,x,z
-x,-y,z
y,-x,z
x,-y,1/2-z
-x,y,1/2-z
y,x,1/2-z
-y,-x,1/2-z
-x,-y,-z
y,-x,-z
x,y,-z
-y,x,-z
-x,y,1/2+z
x,-y,1/2+z
-y,-x,1/2+z
y,x,1/2+z
1/2+x,1/2+y,1/2+z
1/2-y,1/2+x,1/2+z
1/2-x,1/2-y,1/2+z
1/2+y,1/2-x,1/2+z
1/2+x,1/2-y,-z
1/2-x,1/2+y,-z
1/2+y,1/2+x,-z
1/2-y,1/2-x,-z
1/2-x,1/2-y,1/2-z
1/2+y,1/2-x,1/2-z
1/2+x,1/2+y,1/2-z
1/2-y,1/2+x,1/2-z
1/2-x,1/2+y,z
1/2+x,1/2-y,z
1/2-y,1/2-x,z
1/2+y,1/2+x,z
loop_
_atom_site_type_symbol
_atom_site_label
_atom_site_fract_x
_atom_site_fract_y
_atom_site_fract_z
Si Si1 0.713083 0.005454 0.657870
Si Si2 0.753610 0.359501 0.398706
Si Si3 0.432146 0.410240 0.000000
Si Si4 0.330965 0.382940 0.335786
Si Si5 0.498724 0.112732 0.500000
O O1 0.767033 0.066693 0.665658
O O2 0.659805 0.009909 0.581892
O O3 0.679512 0.000000 0.750000
O O4 0.751520 0.934905 0.637716
O O5 0.746969 0.362140 0.500000
O O6 0.825435 0.325435 0.378138
O O7 0.694547 0.313768 0.359384
O O8 0.512852 0.408237 0.000000
O O9 0.406697 0.375215 0.915139
O O10 0.375081 0.375081 0.250000
O O11 0.554391 0.054391 0.500000
O O12 0.425429 0.074572 0.500000
#
# Coordination Sequence:
#
# PCOD9572681 Si02
#       5
#    32  32  16  32  16
#     4  12  25  45  73 105 140 194 240 297 367 444
#     4  11  24  44  70  99 139 188 238 299 366 435
#     4  11  25  40  63  94 133 186 242 294 348 422
#     4  12  25  43  68 101 141 182 235 296 361 429
#     4  11  27  50  74 104 143 186 243 310 368 437
#
# _framework density 20.761393999999999
#
# number of rings (size 3 to 8) (size 9 to 14) (size 15 to 20)
#    0.000    0.500    5.000    3.000    0.000    3.500 
#    0.000    2.500    0.000    0.000    0.000    0.000 
#    0.000    0.000    0.000    0.000    0.000    0.000 
#
# Total GULP energy -357604.482420 kJ/mol
# GULP energy per Si atom -5587.570038 kJ/mol
# Density = 2.071414 g / cm^3
# Si number density = 20.761394 Si / 1000 Ang^3
#
#
#
# Elastic Constant Matrix: (Units=GPa)
#
#
# Indices 1 2 3 4 5 6 
#
# 1 117.2342 39.4063 55.7584 0.0000 0.0000 0.0000
# 2 39.4063 117.2305 55.7573 0.0000 0.0000 0.0000
# 3 55.7584 55.7573 205.5318 0.0000 0.0000 0.0000
# 4 0.0000 0.0000 0.0000 -5.1809 0.0000 0.0000
# 5 0.0000 0.0000 0.0000 0.0000 -5.1804 0.0000
# 6 0.0000 0.0000 0.0000 0.0000 0.0000 43.4413
#
#
#
# Elastic Compliance Matrix: (Units=1/GPa)
#
#
# Indices 1 2 3 4 5 6 
#
# 1 0.010381 -0.002468 -0.002146 0.000000 0.000000 0.000000
# 2 -0.002468 0.010381 -0.002146 0.000000 0.000000 0.000000
# 3 -0.002146 -0.002146 0.006030 0.000000 0.000000 0.000000
# 4 0.000000 0.000000 0.000000 -0.193018 0.000000 0.000000
# 5 0.000000 0.000000 0.000000 0.000000 -0.193034 0.000000
# 6 0.000000 0.000000 0.000000 0.000000 0.000000 0.023020
#
#
# Mechanical properties :
#
#
# Convention : Reuss Voigt Hill
#
# Bulk Modulus (GPa) = 75.36567 82.42671 78.89619
# Shear Modulus (GPa) = -15.70871 25.88764 5.08947
#
# Velocity S-wave (km/s) = -2.75368 3.53500 1.56740
# Velocity P-wave (km/s) = 5.12537 7.51330 6.43114
#
# Compressibility (1/GPa) = 0.01326864
#
# Stress axis : x y z
#
# Youngs Moduli (GPa) = 96.33391 96.33100 165.83614
#
# Poissons Ratio (x) = 0.23779 0.35596
# Poissons Ratio (y) = 0.23780 0.35597
# Poissons Ratio (z) = 0.20678 0.20677
#
# Static dielectric constant tensor:
#      x y z
#    x 1.759910 0.000000 0.000000 
#    y 0.000000 1.759910 0.000000 
#    z 0.000000 0.000000 1.759930 
# 
# From -- ./inp_files/4401.got.cif
#   From: 2010.05.17/outbox.cif.g08.bks.cpg/sg140_3_cif.got.tgz:4401.got - 2010.06.21 00:45:31.
