data_PCOD9572870
_publ_section_title
;
Structure prediction by ZEFSAII (Michael W. Deem and Ramdas Pophale) SiO2 
 PCOD9572870
Probable space group: I 41/A M D
;
_chemical_formula_sum "Si O2"
_cell_formula_units_Z 240
_cell_length_a 26.477380
_cell_length_b 26.477380
_cell_length_c 17.759057
_cell_angle_alpha 90.000000
_cell_angle_beta 90.000000
_cell_angle_gamma 90.000000
_cell_volume 12450.016242
_symmetry_space_group_name_H-M "I 41/A M D"
_symmetry_group_IT_number 141
_space_group.IT_coordinate_system_code '2'
_symmetry_cell_setting 'tetragonal'
loop_
_space_group_symop_operation_xyz
x,y,z
1/4-y,3/4+x,1/4+z
-x,1/2-y,z
1/4+y,1/4-x,3/4+z
x,-y,-z
-x,1/2+y,-z
1/4+y,3/4+x,1/4-z
1/4-y,1/4-x,3/4-z
-x,-y,-z
3/4+y,1/4-x,3/4-z
x,1/2+y,-z
3/4-y,3/4+x,1/4-z
-x,y,z
x,1/2-y,z
3/4-y,1/4-x,3/4+z
3/4+y,3/4+x,1/4+z
1/2+x,1/2+y,1/2+z
3/4-y,1/4+x,3/4+z
1/2-x,-y,1/2+z
3/4+y,3/4-x,1/4+z
1/2+x,1/2-y,1/2-z
1/2-x,y,1/2-z
3/4+y,1/4+x,3/4-z
3/4-y,3/4-x,1/4-z
1/2-x,1/2-y,1/2-z
1/4+y,3/4-x,1/4-z
1/2+x,y,1/2-z
1/4-y,1/4+x,3/4-z
1/2-x,1/2+y,1/2+z
1/2+x,-y,1/2+z
1/4-y,3/4-x,1/4+z
1/4+y,1/4+x,3/4+z
loop_
_atom_site_type_symbol
_atom_site_label
_atom_site_fract_x
_atom_site_fract_y
_atom_site_fract_z
Si Si1 0.332620 0.492707 0.250788
Si Si2 0.847119 0.305063 0.817309
Si Si3 0.664182 0.941946 0.112106
Si Si4 0.592342 0.537085 0.564687
Si Si5 0.941982 0.305948 0.726942
Si Si6 0.167202 0.417202 0.875000
Si Si7 0.057733 0.086819 0.661386
Si Si8 0.055985 0.497026 0.780709
O O1 0.304913 0.444324 0.284494
O O2 0.319115 0.514530 0.169922
O O3 0.326467 0.539560 0.311006
O O4 0.392544 0.479166 0.248260
O O5 0.836515 0.250000 0.853005
O O6 0.822608 0.306153 0.733610
O O7 0.905941 0.308811 0.798269
O O8 0.830568 0.358499 0.851216
O O9 0.683908 0.889419 0.149550
O O10 0.603353 0.937228 0.113402
O O11 0.613196 0.500000 0.500000
O O12 0.562257 0.508464 0.630541
O O13 0.935014 0.250000 0.692269
O O14 0.931996 0.353952 0.673943
O O15 0.000000 0.310542 0.749969
O O16 0.000000 0.080148 0.633667
O O17 0.059605 0.059055 0.743526
O O18 0.000000 0.515489 0.758541
#
# Coordination Sequence:
#
# PCOD9572870 Si02
#       8
#    32  32  32  32  32  16  32  32
#     4  10  21  31  49  60  92 117 158 191 231 300
#     4  11  21  31  43  57  78 106 148 199 237 277
#     4  10  19  34  47  71  85 123 155 189 240 282
#     4  11  20  30  42  59  82 107 151 192 235 273
#     4   9  17  29  43  56  72 100 139 186 235 277
#     4  12  22  34  42  59  82 120 154 192 248 280
#     4   9  16  31  49  63  83 108 146 188 233 288
#     4   9  18  29  42  59  77 106 142 191 234 268
#
# _framework density 19.277082
#
# number of rings (size 3 to 8) (size 9 to 14) (size 15 to 20)
#    0.000    2.000    2.667    2.800    0.000    3.200 
#    0.000    0.000    0.000    0.000    0.000    0.000 
#    0.000    0.000    0.000    3.600    0.000    2.400 
#
# Total GULP energy -668651.466526 kJ/mol
# GULP energy per Si atom -5572.095554 kJ/mol
# Density = 1.923321 g / cm^3
# Si number density = 19.277082 Si / 1000 Ang^3
#
#
#
# Elastic Constant Matrix: (Units=GPa)
#
#
# Indices 1 2 3 4 5 6 
#
# 1 91.4936 33.5915 28.5237 0.0000 0.0000 0.0000
# 2 33.5915 91.4936 28.5237 0.0000 0.0000 0.0000
# 3 28.5237 28.5237 24.7484 0.0000 0.0000 0.0000
# 4 0.0000 0.0000 0.0000 16.8979 0.0000 0.0000
# 5 0.0000 0.0000 0.0000 0.0000 16.8979 0.0000
# 6 0.0000 0.0000 0.0000 0.0000 0.0000 17.5691
#
#
#
# Elastic Compliance Matrix: (Units=1/GPa)
#
#
# Indices 1 2 3 4 5 6 
#
# 1 0.017062 -0.000209 -0.019424 0.000000 0.000000 0.000000
# 2 -0.000209 0.017062 -0.019424 0.000000 0.000000 0.000000
# 3 -0.019424 -0.019424 0.085181 0.000000 0.000000 0.000000
# 4 0.000000 0.000000 0.000000 0.059179 0.000000 0.000000
# 5 0.000000 0.000000 0.000000 0.000000 0.059179 0.000000
# 6 0.000000 0.000000 0.000000 0.000000 0.000000 0.056918
#
#
# Mechanical properties :
#
#
# Convention : Reuss Voigt Hill
#
# Bulk Modulus (GPa) = 24.27718 43.22369 33.75044
# Shear Modulus (GPa) = 12.93911 18.07942 15.50927
#
# Velocity S-wave (km/s) = 2.59360 3.06579 2.83953
# Velocity P-wave (km/s) = 4.64652 5.91634 5.31946
#
# Compressibility (1/GPa) = 0.04119094
#
# Stress axis : x y z
#
# Youngs Moduli (GPa) = 58.61007 58.61007 11.73970
#
# Poissons Ratio (x) = 0.01223 0.22803
# Poissons Ratio (y) = 0.01223 0.22803
# Poissons Ratio (z) = 1.13845 1.13845
#
# Static dielectric constant tensor:
#      x y z
#    x 1.750350 0.000000 0.000000 
#    y 0.000000 1.750350 0.000000 
#    z 0.000000 0.000000 1.681350 
# 
# From -- ./inp_files/10568.got.cif
#   From: 2010.05.17/outbox.cif.g08.bks.cpg/sg141_6_cif.got.tgz:10568.got - 2010.05.20 13:30:51.
