data_PCOD9572991
_publ_section_title
;
Structure prediction by ZEFSAII (Michael W. Deem and Ramdas Pophale) SiO2 
 PCOD9572991
Probable space group: I 41/A M D
;
_chemical_formula_sum "Si O2"
_cell_formula_units_Z 160
_cell_length_a 17.072850
_cell_length_b 17.072850
_cell_length_c 24.758129
_cell_angle_alpha 90.000000
_cell_angle_beta 90.000000
_cell_angle_gamma 90.000000
_cell_volume 7216.554085
_symmetry_space_group_name_H-M "I 41/A M D"
_symmetry_group_IT_number 141
_space_group.IT_coordinate_system_code '2'
_symmetry_cell_setting 'tetragonal'
loop_
_space_group_symop_operation_xyz
x,y,z
1/4-y,3/4+x,1/4+z
-x,1/2-y,z
1/4+y,1/4-x,3/4+z
x,-y,-z
-x,1/2+y,-z
1/4+y,3/4+x,1/4-z
1/4-y,1/4-x,3/4-z
-x,-y,-z
3/4+y,1/4-x,3/4-z
x,1/2+y,-z
3/4-y,3/4+x,1/4-z
-x,y,z
x,1/2-y,z
3/4-y,1/4-x,3/4+z
3/4+y,3/4+x,1/4+z
1/2+x,1/2+y,1/2+z
3/4-y,1/4+x,3/4+z
1/2-x,-y,1/2+z
3/4+y,3/4-x,1/4+z
1/2+x,1/2-y,1/2-z
1/2-x,y,1/2-z
3/4+y,1/4+x,3/4-z
3/4-y,3/4-x,1/4-z
1/2-x,1/2-y,1/2-z
1/4+y,3/4-x,1/4-z
1/2+x,y,1/2-z
1/4-y,1/4+x,3/4-z
1/2-x,1/2+y,1/2+z
1/2+x,-y,1/2+z
1/4-y,3/4-x,1/4+z
1/4+y,1/4+x,3/4+z
loop_
_atom_site_type_symbol
_atom_site_label
_atom_site_fract_x
_atom_site_fract_y
_atom_site_fract_z
Si Si1 0.816261 0.338588 0.530929
Si Si2 0.861920 0.160415 0.931710
Si Si3 0.595328 0.336791 0.794563
Si Si4 0.659084 0.461105 0.875486
Si Si5 0.681136 0.834984 0.795251
O O1 0.845280 0.250000 0.535385
O O2 0.723954 0.338424 0.541934
O O3 0.845644 0.394877 0.578234
O O4 0.845209 0.375483 0.474699
O O5 0.884580 0.250000 0.919192
O O6 0.866540 0.116540 0.875000
O O7 0.913342 0.131044 0.981497
O O8 0.500000 0.346676 0.797150
O O9 0.613874 0.250000 0.817648
O O10 0.636456 0.410349 0.823429
O O11 0.741909 0.508092 0.875000
O O12 0.600066 0.527366 0.897702
O O13 0.641893 0.750000 0.793891
O O14 0.750000 0.833897 0.750000
#
# Coordination Sequence:
#
# PCOD9572991 Si02
#       5
#    32  32  32  32  32
#     4  10  21  37  58  85 118 160 211 264 315 370
#     4  10  20  36  58  85 121 164 207 252 306 367
#     4  10  21  37  60  92 128 168 217 270 320 372
#     4  11  21  36  59  88 126 168 211 259 318 382
#     4   9  19  36  58  84 114 153 201 252 310 373
#
# _framework density 22.171246
#
# number of rings (size 3 to 8) (size 9 to 14) (size 15 to 20)
#    0.000    2.000    0.000    3.600    0.000    2.200 
#    0.000    4.000    0.000    7.200    0.000    0.000 
#    0.000    3.600    0.000    0.000    0.000    0.000 
#
# Total GULP energy -446109.166595 kJ/mol
# GULP energy per Si atom -5576.364582 kJ/mol
# Density = 2.212078 g / cm^3
# Si number density = 22.171246 Si / 1000 Ang^3
#
#
#
# Elastic Constant Matrix: (Units=GPa)
#
#
# Indices 1 2 3 4 5 6 
#
# 1 90.1883 54.5024 53.1924 0.0000 0.0000 0.0000
# 2 54.5024 90.1882 53.1912 0.0000 0.0000 0.0000
# 3 53.1924 53.1912 128.5172 0.0000 0.0000 0.0000
# 4 0.0000 0.0000 0.0000 18.4488 0.0000 0.0000
# 5 0.0000 0.0000 0.0000 0.0000 18.4466 0.0000
# 6 0.0000 0.0000 0.0000 0.0000 0.0000 24.6964
#
#
#
# Elastic Compliance Matrix: (Units=1/GPa)
#
#
# Indices 1 2 3 4 5 6 
#
# 1 0.018978 -0.009044 -0.004112 0.000000 0.000000 0.000000
# 2 -0.009044 0.018978 -0.004112 0.000000 0.000000 0.000000
# 3 -0.004112 -0.004112 0.011185 0.000000 0.000000 0.000000
# 4 0.000000 0.000000 0.000000 0.054204 0.000000 0.000000
# 5 0.000000 0.000000 0.000000 0.000000 0.054211 0.000000
# 6 0.000000 0.000000 0.000000 0.000000 0.000000 0.040492
#
#
# Mechanical properties :
#
#
# Convention : Reuss Voigt Hill
#
# Bulk Modulus (GPa) = 68.46235 70.07394 69.26815
# Shear Modulus (GPa) = 21.05692 22.18554 21.62123
#
# Velocity S-wave (km/s) = 3.08513 3.16673 3.12620
# Velocity P-wave (km/s) = 6.60580 6.71158 6.65890
#
# Compressibility (1/GPa) = 0.01460657
#
# Stress axis : x y z
#
# Youngs Moduli (GPa) = 52.69125 52.69192 89.40806
#
# Poissons Ratio (x) = 0.47654 0.36764
# Poissons Ratio (y) = 0.47653 0.36761
# Poissons Ratio (z) = 0.21666 0.21665
#
# Static dielectric constant tensor:
#      x y z
#    x 1.840590 0.000000 0.000000 
#    y 0.000000 1.840590 0.000000 
#    z 0.000000 0.000000 1.836450 
# 
# From -- ./inp_files/12664.got.cif
#   From: 2010.05.17/outbox.cif.g08.bks.cpg/sg141_7_cif.got.tgz:12664.got - 2010.05.20 13:30:51.
