data_PCOD9572357
_publ_section_title
;
Structure prediction by ZEFSAII (Michael W. Deem and Ramdas Pophale) SiO2 
 PCOD9572357
Probable space group: I 4/M C M
;
_chemical_formula_sum "Si O2"
_cell_formula_units_Z 160
_cell_length_a 30.655736
_cell_length_b 30.655736
_cell_length_c 8.215610
_cell_angle_alpha 90.000000
_cell_angle_beta 90.000000
_cell_angle_gamma 90.000000
_cell_volume 7720.817902
_symmetry_space_group_name_H-M "I 4/M C M"
_symmetry_group_IT_number 140
_symmetry_cell_setting 'tetragonal'
loop_
_space_group_symop_operation_xyz
x,y,z
-y,x,z
-x,-y,z
y,-x,z
x,-y,1/2-z
-x,y,1/2-z
y,x,1/2-z
-y,-x,1/2-z
-x,-y,-z
y,-x,-z
x,y,-z
-y,x,-z
-x,y,1/2+z
x,-y,1/2+z
-y,-x,1/2+z
y,x,1/2+z
1/2+x,1/2+y,1/2+z
1/2-y,1/2+x,1/2+z
1/2-x,1/2-y,1/2+z
1/2+y,1/2-x,1/2+z
1/2+x,1/2-y,-z
1/2-x,1/2+y,-z
1/2+y,1/2+x,-z
1/2-y,1/2-x,-z
1/2-x,1/2-y,1/2-z
1/2+y,1/2-x,1/2-z
1/2+x,1/2+y,1/2-z
1/2-y,1/2+x,1/2-z
1/2-x,1/2+y,z
1/2+x,1/2-y,z
1/2-y,1/2-x,z
1/2+y,1/2+x,z
loop_
_atom_site_type_symbol
_atom_site_label
_atom_site_fract_x
_atom_site_fract_y
_atom_site_fract_z
Si Si1 0.558686 0.719353 0.314301
Si Si2 0.693402 0.193402 0.678459
Si Si3 0.838458 0.220715 0.318475
Si Si4 0.871026 0.628975 0.813439
Si Si5 0.316439 0.046207 0.697739
Si Si6 0.619829 0.451874 0.695751
O O1 0.540613 0.718311 0.500000
O O2 0.610392 0.724845 0.323112
O O3 0.546274 0.766157 0.237246
O O4 0.551038 0.670782 0.243042
O O5 0.679064 0.179064 0.500000
O O6 0.743561 0.183044 0.704360
O O7 0.666057 0.166057 0.808071
O O8 0.826106 0.173895 0.250000
O O9 0.821431 0.227065 0.500000
O O10 0.913724 0.653293 0.743258
O O11 0.882102 0.617899 0.000000
O O12 0.313456 0.050027 0.500000
O O13 0.335739 0.000000 0.750000
O O14 0.603796 0.500000 0.750000
O O15 0.587085 0.412915 0.750000
O O16 0.621832 0.449611 0.500000
#
# Coordination Sequence:
#
# PCOD9572357 Si02
#       6
#    32  16  32  16  32  32
#     4   9  19  36  60  86 117 153 192 233 289 351
#     4  12  23  35  52  80 112 151 201 248 290 333
#     4  11  21  36  54  77 113 158 201 241 287 343
#     4  10  20  39  63  83 119 162 197 234 295 356
#     4  10  20  37  61  90 119 157 195 237 289 345
#     4  11  23  41  63  89 117 150 191 241 297 356
#
# _framework density 20.723193999999999
#
# number of rings (size 3 to 8) (size 9 to 14) (size 15 to 20)
#    0.000    1.600    2.000    3.600    0.000    1.000 
#    0.000    5.000    0.000    0.300    0.000    2.100 
#    0.000    0.000    0.000    0.000    0.000    0.000 
#
# Total GULP energy -445925.542229 kJ/mol
# GULP energy per Si atom -5574.069278 kJ/mol
# Density = 2.067603 g / cm^3
# Si number density = 20.723194 Si / 1000 Ang^3
#
#
#
# Elastic Constant Matrix: (Units=GPa)
#
#
# Indices 1 2 3 4 5 6 
#
# 1 118.2373 61.1005 13.3136 0.0000 0.0000 0.0000
# 2 61.1005 118.2581 13.3074 0.0000 0.0000 0.0000
# 3 13.3136 13.3074 35.7626 0.0000 0.0000 0.0000
# 4 0.0000 0.0000 0.0000 5.7428 0.0000 0.0000
# 5 0.0000 0.0000 0.0000 0.0000 5.7415 0.0000
# 6 0.0000 0.0000 0.0000 0.0000 0.0000 12.3695
#
#
#
# Elastic Compliance Matrix: (Units=1/GPa)
#
#
# Indices 1 2 3 4 5 6 
#
# 1 0.011702 -0.005798 -0.002199 0.000000 0.000000 0.000000
# 2 -0.005798 0.011699 -0.002195 0.000000 0.000000 0.000000
# 3 -0.002199 -0.002195 0.029597 0.000000 0.000000 0.000000
# 4 0.000000 0.000000 0.000000 0.174130 0.000000 0.000000
# 5 0.000000 0.000000 0.000000 0.000000 0.174169 0.000000
# 6 0.000000 0.000000 0.000000 0.000000 0.000000 0.080844
#
#
# Mechanical properties :
#
#
# Convention : Reuss Voigt Hill
#
# Bulk Modulus (GPa) = 30.66119 49.74454 40.20286
# Shear Modulus (GPa) = 9.73907 17.07321 13.40614
#
# Velocity S-wave (km/s) = 2.17021 2.87343 2.54621
# Velocity P-wave (km/s) = 4.59428 5.92158 5.29965
#
# Compressibility (1/GPa) = 0.03261452
#
# Stress axis : x y z
#
# Youngs Moduli (GPa) = 85.45886 85.47809 33.78687
#
# Poissons Ratio (x) = 0.49564 0.07428
# Poissons Ratio (y) = 0.49553 0.07415
# Poissons Ratio (z) = 0.18789 0.18759
#
# Static dielectric constant tensor:
#      x y z
#    x 1.741190 0.000000 0.000000 
#    y 0.000000 1.741180 0.000000 
#    z 0.000000 0.000000 1.766490 
# 
# From -- ./inp_files/1879.got.cif
#   From: 2010.05.17/outbox.cif.g08.bks.cpg/sg140_1_cif.got.tgz:1879.got - 2010.06.21 00:45:31.
