data_PCOD9572932
_publ_section_title
;
Structure prediction by ZEFSAII (Michael W. Deem and Ramdas Pophale) SiO2 
 PCOD9572932
Probable space group: I 41/A M D
;
_chemical_formula_sum "Si O2"
_cell_formula_units_Z 96
_cell_length_a 17.268310
_cell_length_b 17.268310
_cell_length_c 16.107946
_cell_angle_alpha 90.000000
_cell_angle_beta 90.000000
_cell_angle_gamma 90.000000
_cell_volume 4803.301391
_symmetry_space_group_name_H-M "I 41/A M D"
_symmetry_group_IT_number 141
_space_group.IT_coordinate_system_code '2'
_symmetry_cell_setting 'tetragonal'
loop_
_space_group_symop_operation_xyz
x,y,z
1/4-y,3/4+x,1/4+z
-x,1/2-y,z
1/4+y,1/4-x,3/4+z
x,-y,-z
-x,1/2+y,-z
1/4+y,3/4+x,1/4-z
1/4-y,1/4-x,3/4-z
-x,-y,-z
3/4+y,1/4-x,3/4-z
x,1/2+y,-z
3/4-y,3/4+x,1/4-z
-x,y,z
x,1/2-y,z
3/4-y,1/4-x,3/4+z
3/4+y,3/4+x,1/4+z
1/2+x,1/2+y,1/2+z
3/4-y,1/4+x,3/4+z
1/2-x,-y,1/2+z
3/4+y,3/4-x,1/4+z
1/2+x,1/2-y,1/2-z
1/2-x,y,1/2-z
3/4+y,1/4+x,3/4-z
3/4-y,3/4-x,1/4-z
1/2-x,1/2-y,1/2-z
1/4+y,3/4-x,1/4-z
1/2+x,y,1/2-z
1/4-y,1/4+x,3/4-z
1/2-x,1/2+y,1/2+z
1/2+x,-y,1/2+z
1/4-y,3/4-x,1/4+z
1/4+y,1/4+x,3/4+z
loop_
_atom_site_type_symbol
_atom_site_label
_atom_site_fract_x
_atom_site_fract_y
_atom_site_fract_z
Si Si1 0.669049 0.656468 0.085837
Si Si2 0.774865 0.250000 0.345341
Si Si3 0.088402 0.750000 0.750552
Si Si4 0.157175 0.985152 0.317245
O O1 0.684502 0.750000 0.090500
O O2 0.580917 0.647444 0.050218
O O3 0.675292 0.606162 0.170887
O O4 0.725887 0.609812 0.022032
O O5 0.750000 0.250000 0.250000
O O6 0.866187 0.250000 0.335501
O O7 0.746964 0.175158 0.390259
O O8 0.000000 0.750000 0.733255
O O9 0.215718 0.034283 0.375000
#
# Coordination Sequence:
#
# PCOD9572932 Si02
#       4
#    32  16  16  32
#     4  11  23  37  57  83 121 160 196 242 294 357
#     4  12  18  32  48  76 118 154 184 234 275 348
#     4  10  20  34  46  78 116 160 189 211 275 353
#     4  12  21  35  55  83 117 156 200 239 294 357
#
# _framework density 19.986253999999999
#
# number of rings (size 3 to 8) (size 9 to 14) (size 15 to 20)
#    0.000    0.667    8.333    1.000    0.000    0.000 
#    3.000    0.000    0.000    4.000    0.000    0.000 
#    0.000    0.000    0.000    0.000    0.000    0.000 
#
# Total GULP energy -267450.814036 kJ/mol
# GULP energy per Si atom -5571.891959 kJ/mol
# Density = 1.994076 g / cm^3
# Si number density = 19.986254 Si / 1000 Ang^3
#
#
#
# Elastic Constant Matrix: (Units=GPa)
#
#
# Indices 1 2 3 4 5 6 
#
# 1 109.6327 48.4193 35.5339 0.0000 0.0000 0.0000
# 2 48.4193 109.6279 35.5326 0.0000 0.0000 0.0000
# 3 35.5339 35.5326 50.0301 0.0000 0.0000 0.0000
# 4 0.0000 0.0000 0.0000 101.5187 0.0000 0.0000
# 5 0.0000 0.0000 0.0000 0.0000 101.5464 0.0000
# 6 0.0000 0.0000 0.0000 0.0000 0.0000 -294.0916
#
#
#
# Elastic Compliance Matrix: (Units=1/GPa)
#
#
# Indices 1 2 3 4 5 6 
#
# 1 0.012816 -0.003521 -0.006602 0.000000 0.000000 0.000000
# 2 -0.003521 0.012817 -0.006602 0.000000 0.000000 0.000000
# 3 -0.006602 -0.006602 0.029366 0.000000 0.000000 0.000000
# 4 0.000000 0.000000 0.000000 0.009850 0.000000 0.000000
# 5 0.000000 0.000000 0.000000 0.000000 0.009848 0.000000
# 6 0.000000 0.000000 0.000000 0.000000 0.000000 -0.003400
#
#
# Mechanical properties :
#
#
# Convention : Reuss Voigt Hill
#
# Bulk Modulus (GPa) = 46.40592 56.47358 51.43975
# Shear Modulus (GPa) = 44.67086 -8.21830 18.22628
#
# Velocity S-wave (km/s) = 4.73279 -2.03000 3.02311
# Velocity P-wave (km/s) = 7.28938 4.77734 6.16271
#
# Compressibility (1/GPa) = 0.02154897
#
# Stress axis : x y z
#
# Youngs Moduli (GPa) = 78.02668 78.02391 34.05268
#
# Poissons Ratio (x) = 0.27469 0.22482
# Poissons Ratio (y) = 0.27470 0.22482
# Poissons Ratio (z) = 0.51515 0.51513
#
# Static dielectric constant tensor:
#      x y z
#    x 1.825360 0.000000 0.000000 
#    y 0.000000 1.825350 0.000000 
#    z 0.000000 0.000000 1.735570 
# 
# From -- ./inp_files/7684.got.cif
#   From: 2010.05.17/outbox.cif.g08.bks.cpg/sg141_4_cif.got.tgz:7684.got - 2010.05.20 13:30:51.
