data_PCOD9572995
_publ_section_title
;
Structure prediction by ZEFSAII (Michael W. Deem and Ramdas Pophale) SiO2 
 PCOD9572995
Probable space group: I 41/A M D
;
_chemical_formula_sum "Si O2"
_cell_formula_units_Z 96
_cell_length_a 13.654413
_cell_length_b 13.654413
_cell_length_c 27.264079
_cell_angle_alpha 90.000000
_cell_angle_beta 90.000000
_cell_angle_gamma 90.000000
_cell_volume 5083.196528
_symmetry_space_group_name_H-M "I 41/A M D"
_symmetry_group_IT_number 141
_space_group.IT_coordinate_system_code '2'
_symmetry_cell_setting 'tetragonal'
loop_
_space_group_symop_operation_xyz
x,y,z
1/4-y,3/4+x,1/4+z
-x,1/2-y,z
1/4+y,1/4-x,3/4+z
x,-y,-z
-x,1/2+y,-z
1/4+y,3/4+x,1/4-z
1/4-y,1/4-x,3/4-z
-x,-y,-z
3/4+y,1/4-x,3/4-z
x,1/2+y,-z
3/4-y,3/4+x,1/4-z
-x,y,z
x,1/2-y,z
3/4-y,1/4-x,3/4+z
3/4+y,3/4+x,1/4+z
1/2+x,1/2+y,1/2+z
3/4-y,1/4+x,3/4+z
1/2-x,-y,1/2+z
3/4+y,3/4-x,1/4+z
1/2+x,1/2-y,1/2-z
1/2-x,y,1/2-z
3/4+y,1/4+x,3/4-z
3/4-y,3/4-x,1/4-z
1/2-x,1/2-y,1/2-z
1/4+y,3/4-x,1/4-z
1/2+x,y,1/2-z
1/4-y,1/4+x,3/4-z
1/2-x,1/2+y,1/2+z
1/2+x,-y,1/2+z
1/4-y,3/4-x,1/4+z
1/4+y,1/4+x,3/4+z
loop_
_atom_site_type_symbol
_atom_site_label
_atom_site_fract_x
_atom_site_fract_y
_atom_site_fract_z
Si Si1 0.118313 0.359907 0.819077
Si Si2 0.795970 0.364409 0.327183
Si Si3 0.310824 0.634535 0.023787
O O1 0.157006 0.250000 0.809555
O O2 0.141507 0.391507 0.875000
O O3 0.143978 0.446894 0.782331
O O4 0.000000 0.352880 0.818303
O O5 0.825972 0.424029 0.375000
O O6 0.816261 0.250000 0.334791
O O7 0.856834 0.403302 0.280354
O O8 0.683195 0.379659 0.311509
O O9 0.321871 0.750000 0.032673
#
# Coordination Sequence:
#
# PCOD9572995 Si02
#       3
#    32  32  32
#     4   8  14  27  50  80 114 149 178 208 257 320
#     4  11  24  40  57  79 107 141 184 228 277 335
#     4  10  20  36  59  84 110 142 183 227 269 321
#
# _framework density 18.885755
#
# number of rings (size 3 to 8) (size 9 to 14) (size 15 to 20)
#    0.000    2.333    0.000    5.000    0.000    4.333 
#    0.000    5.000    0.000    4.000    0.000    0.000 
#    0.000    0.000    0.000    0.000    0.000    0.000 
#
# Total GULP energy -267711.282986 kJ/mol
# GULP energy per Si atom -5577.318396 kJ/mol
# Density = 1.884277 g / cm^3
# Si number density = 18.885755 Si / 1000 Ang^3
#
#
#
# Elastic Constant Matrix: (Units=GPa)
#
#
# Indices 1 2 3 4 5 6 
#
# 1 97.7547 17.0853 44.5615 0.0000 0.0000 0.0000
# 2 17.0853 97.7521 44.5625 0.0000 0.0000 0.0000
# 3 44.5615 44.5625 106.9077 0.0000 0.0000 0.0000
# 4 0.0000 0.0000 0.0000 13.4761 0.0000 0.0000
# 5 0.0000 0.0000 0.0000 0.0000 13.4801 0.0000
# 6 0.0000 0.0000 0.0000 0.0000 0.0000 26.2631
#
#
#
# Elastic Compliance Matrix: (Units=1/GPa)
#
#
# Indices 1 2 3 4 5 6 
#
# 1 0.012634 0.000238 -0.005365 0.000000 0.000000 0.000000
# 2 0.000238 0.012634 -0.005365 0.000000 0.000000 0.000000
# 3 -0.005365 -0.005365 0.013827 0.000000 0.000000 0.000000
# 4 0.000000 0.000000 0.000000 0.074205 0.000000 0.000000
# 5 0.000000 0.000000 0.000000 0.000000 0.074183 0.000000
# 6 0.000000 0.000000 0.000000 0.000000 0.000000 0.038076
#
#
# Mechanical properties :
#
#
# Convention : Reuss Voigt Hill
#
# Bulk Modulus (GPa) = 55.22115 57.20369 56.21242
# Shear Modulus (GPa) = 19.79556 23.72422 21.75989
#
# Velocity S-wave (km/s) = 3.24106 3.54813 3.39807
# Velocity P-wave (km/s) = 6.58096 6.86591 6.72495
#
# Compressibility (1/GPa) = 0.01810900
#
# Stress axis : x y z
#
# Youngs Moduli (GPa) = 79.15247 79.14899 72.32397
#
# Poissons Ratio (x) = -0.01881 0.38803
# Poissons Ratio (y) = -0.01881 0.38805
# Poissons Ratio (z) = 0.42466 0.42467
#
# Static dielectric constant tensor:
#      x y z
#    x 1.675590 0.000000 0.000000 
#    y 0.000000 1.675590 0.000000 
#    z 0.000000 0.000000 1.636100 
# 
# From -- ./inp_files/13893.got.cif
#   From: 2010.05.17/outbox.cif.g08.bks.cpg/sg141_7_cif.got.tgz:13893.got - 2010.05.20 13:30:51.
