data_PCOD9572060
_publ_section_title
;
Structure prediction by ZEFSAII (Michael W. Deem and Ramdas Pophale) SiO2 
 PCOD9572060
Probable space group: I 4/M C M
;
_chemical_formula_sum "Si O2"
_cell_formula_units_Z 144
_cell_length_a 18.915562
_cell_length_b 18.915562
_cell_length_c 22.585946
_cell_angle_alpha 90.000000
_cell_angle_beta 90.000000
_cell_angle_gamma 90.000000
_cell_volume 8081.217279
_symmetry_space_group_name_H-M "I 4/M C M"
_symmetry_group_IT_number 140
_symmetry_cell_setting 'tetragonal'
loop_
_space_group_symop_operation_xyz
x,y,z
-y,x,z
-x,-y,z
y,-x,z
x,-y,1/2-z
-x,y,1/2-z
y,x,1/2-z
-y,-x,1/2-z
-x,-y,-z
y,-x,-z
x,y,-z
-y,x,-z
-x,y,1/2+z
x,-y,1/2+z
-y,-x,1/2+z
y,x,1/2+z
1/2+x,1/2+y,1/2+z
1/2-y,1/2+x,1/2+z
1/2-x,1/2-y,1/2+z
1/2+y,1/2-x,1/2+z
1/2+x,1/2-y,-z
1/2-x,1/2+y,-z
1/2+y,1/2+x,-z
1/2-y,1/2-x,-z
1/2-x,1/2-y,1/2-z
1/2+y,1/2-x,1/2-z
1/2+x,1/2+y,1/2-z
1/2-y,1/2+x,1/2-z
1/2-x,1/2+y,z
1/2+x,1/2-y,z
1/2-y,1/2-x,z
1/2+y,1/2+x,z
loop_
_atom_site_type_symbol
_atom_site_label
_atom_site_fract_x
_atom_site_fract_y
_atom_site_fract_z
Si Si1 0.329201 0.288295 0.064277
Si Si2 0.747042 0.637235 0.730461
Si Si3 0.769320 0.617133 0.135878
Si Si4 0.779772 0.457832 0.883356
Si Si5 0.560395 0.060395 0.571949
O O1 0.283388 0.216613 0.066579
O O2 0.298008 0.336996 0.115629
O O3 0.408974 0.264740 0.072527
O O4 0.316413 0.321496 0.000000
O O5 0.671170 0.671170 0.750000
O O6 0.795899 0.704102 0.711391
O O7 0.775502 0.610615 0.793504
O O8 0.758876 0.578337 0.680085
O O9 0.837354 0.662647 0.114552
O O10 0.760805 0.539263 0.111985
O O11 0.862981 0.456025 0.899478
O O12 0.566207 0.066207 0.500000
O O13 0.500000 0.000000 0.583946
#
# Coordination Sequence:
#
# PCOD9572060 Si02
#       5
#    32  32  32  32  16
#     4  10  20  36  57  82 111 151 203 247 288 352
#     4  10  18  34  59  85 111 148 196 246 285 347
#     4  10  22  36  56  87 120 147 189 246 302 352
#     4  12  20  36  59  85 116 155 197 243 300 359
#     4  11  24  38  55  84 124 166 202 236 290 367
#
# _framework density 17.819098
#
# number of rings (size 3 to 8) (size 9 to 14) (size 15 to 20)
#    0.000    1.444    4.444    2.000    0.000    1.778 
#    0.000    2.222    0.000    0.667    0.000    3.111 
#    0.000    0.000    0.000    0.000    0.000    0.000 
#
# Total GULP energy -401018.410614 kJ/mol
# GULP energy per Si atom -5569.700147 kJ/mol
# Density = 1.777854 g / cm^3
# Si number density = 17.819098 Si / 1000 Ang^3
#
#
#
# Elastic Constant Matrix: (Units=GPa)
#
#
# Indices 1 2 3 4 5 6 
#
# 1 91.8759 51.2276 19.7411 0.0000 0.0000 0.0000
# 2 51.2276 91.8759 19.7411 0.0000 0.0000 0.0000
# 3 19.7411 19.7411 88.3329 0.0000 0.0000 0.0000
# 4 0.0000 0.0000 0.0000 18.8561 0.0000 0.0000
# 5 0.0000 0.0000 0.0000 0.0000 18.8561 0.0000
# 6 0.0000 0.0000 0.0000 0.0000 0.0000 17.8641
#
#
#
# Elastic Compliance Matrix: (Units=1/GPa)
#
#
# Indices 1 2 3 4 5 6 
#
# 1 0.016024 -0.008577 -0.001664 0.000000 0.000000 0.000000
# 2 -0.008577 0.016024 -0.001664 0.000000 0.000000 0.000000
# 3 -0.001664 -0.001664 0.012065 0.000000 0.000000 0.000000
# 4 0.000000 0.000000 0.000000 0.053033 0.000000 0.000000
# 5 0.000000 0.000000 0.000000 0.000000 0.053033 0.000000
# 6 0.000000 0.000000 0.000000 0.000000 0.000000 0.055978
#
#
# Mechanical properties :
#
#
# Convention : Reuss Voigt Hill
#
# Bulk Modulus (GPa) = 49.25701 50.38938 49.82319
# Shear Modulus (GPa) = 21.12054 23.20693 22.16373
#
# Velocity S-wave (km/s) = 3.44652 3.61274 3.53061
# Velocity P-wave (km/s) = 6.59855 6.76330 6.68143
#
# Compressibility (1/GPa) = 0.02030168
#
# Stress axis : x y z
#
# Youngs Moduli (GPa) = 62.40569 62.40569 82.88630
#
# Poissons Ratio (x) = 0.53526 0.13795
# Poissons Ratio (y) = 0.53526 0.13795
# Poissons Ratio (z) = 0.10386 0.10386
#
# Static dielectric constant tensor:
#      x y z
#    x 1.617270 0.000000 0.000000 
#    y 0.000000 1.617270 0.000000 
#    z 0.000000 0.000000 1.658670 
# 
# From -- ./inp_files/10428.got.cif
#   From: 2010.05.17/outbox.cif.g08.bks.cpg/sg140_6_cif.got.tgz:10428.got - 2010.06.21 00:45:31.
