data_PCOD9572270
_publ_section_title
;
Structure prediction by ZEFSAII (Michael W. Deem and Ramdas Pophale) SiO2 
 PCOD9572270
Probable space group: I 4/M C M
;
_chemical_formula_sum "Si O2"
_cell_formula_units_Z 160
_cell_length_a 15.771766
_cell_length_b 15.771766
_cell_length_c 31.928554
_cell_angle_alpha 90.000000
_cell_angle_beta 90.000000
_cell_angle_gamma 90.000000
_cell_volume 7942.183196
_symmetry_space_group_name_H-M "I 4/M C M"
_symmetry_group_IT_number 140
_symmetry_cell_setting 'tetragonal'
loop_
_space_group_symop_operation_xyz
x,y,z
-y,x,z
-x,-y,z
y,-x,z
x,-y,1/2-z
-x,y,1/2-z
y,x,1/2-z
-y,-x,1/2-z
-x,-y,-z
y,-x,-z
x,y,-z
-y,x,-z
-x,y,1/2+z
x,-y,1/2+z
-y,-x,1/2+z
y,x,1/2+z
1/2+x,1/2+y,1/2+z
1/2-y,1/2+x,1/2+z
1/2-x,1/2-y,1/2+z
1/2+y,1/2-x,1/2+z
1/2+x,1/2-y,-z
1/2-x,1/2+y,-z
1/2+y,1/2+x,-z
1/2-y,1/2-x,-z
1/2-x,1/2-y,1/2-z
1/2+y,1/2-x,1/2-z
1/2+x,1/2+y,1/2-z
1/2-y,1/2+x,1/2-z
1/2-x,1/2+y,z
1/2+x,1/2-y,z
1/2-y,1/2-x,z
1/2+y,1/2+x,z
loop_
_atom_site_type_symbol
_atom_site_label
_atom_site_fract_x
_atom_site_fract_y
_atom_site_fract_z
Si Si1 0.784769 0.423621 0.170562
Si Si2 0.000000 0.356269 0.250000
Si Si3 0.569435 0.375072 0.454631
Si Si4 0.357323 0.997140 0.500000
Si Si5 0.677882 0.679565 0.118496
Si Si6 0.458997 0.184496 0.406196
O O1 0.846469 0.346469 0.181305
O O2 0.797643 0.486573 0.209251
O O3 0.694679 0.379833 0.159592
O O4 0.819734 0.467111 0.128084
O O5 0.920005 0.420005 0.256444
O O6 0.609151 0.469501 0.451961
O O7 0.591261 0.339352 0.500000
O O8 0.610238 0.321525 0.418558
O O9 0.430158 0.069843 0.500000
O O10 0.309805 0.012445 0.544723
O O11 0.407528 0.907528 0.500000
O O12 0.741305 0.758696 0.115201
O O13 0.736997 0.598240 0.110685
O O14 0.398626 0.101375 0.403901
#
# Coordination Sequence:
#
# PCOD9572270 Si02
#       6
#    32  16  32  16  32  32
#     4  10  20  36  56  81 109 139 183 235 286 349
#     4   9  18  34  60  88 110 139 182 236 294 349
#     4   9  18  33  53  73  94 133 189 235 265 304
#     4   9  18  32  50  74 104 143 191 235 276 333
#     4  10  21  34  49  75 112 146 176 220 284 345
#     4  10  20  34  53  76 108 150 189 231 287 344
#
# _framework density 20.145593999999999
#
# number of rings (size 3 to 8) (size 9 to 14) (size 15 to 20)
#    0.000    2.400    0.000    3.000    1.400    2.400 
#    1.800    1.000    0.000    4.800    0.000    0.000 
#    0.000    1.600    0.000    0.000    0.000    0.000 
#
# Total GULP energy -445824.568805 kJ/mol
# GULP energy per Si atom -5572.807110 kJ/mol
# Density = 2.009974 g / cm^3
# Si number density = 20.145594 Si / 1000 Ang^3
#
#
#
# Elastic Constant Matrix: (Units=GPa)
#
#
# Indices 1 2 3 4 5 6 
#
# 1 46.7587 21.7164 31.0963 0.0000 0.0000 0.0000
# 2 21.7164 46.7586 31.0964 0.0000 0.0000 0.0000
# 3 31.0963 31.0964 114.3947 0.0000 0.0000 0.0000
# 4 0.0000 0.0000 0.0000 24.6185 0.0000 0.0000
# 5 0.0000 0.0000 0.0000 0.0000 24.6184 0.0000
# 6 0.0000 0.0000 0.0000 0.0000 0.0000 14.9028
#
#
#
# Elastic Compliance Matrix: (Units=1/GPa)
#
#
# Indices 1 2 3 4 5 6 
#
# 1 0.029662 -0.010270 -0.005271 0.000000 0.000000 0.000000
# 2 -0.010270 0.029662 -0.005271 0.000000 0.000000 0.000000
# 3 -0.005271 -0.005271 0.011607 0.000000 0.000000 0.000000
# 4 0.000000 0.000000 0.000000 0.040620 0.000000 0.000000
# 5 0.000000 0.000000 0.000000 0.000000 0.040620 0.000000
# 6 0.000000 0.000000 0.000000 0.000000 0.000000 0.067102
#
#
# Mechanical properties :
#
#
# Convention : Reuss Voigt Hill
#
# Bulk Modulus (GPa) = 34.12341 41.74781 37.93561
# Shear Modulus (GPa) = 18.47285 21.09480 19.78382
#
# Velocity S-wave (km/s) = 3.03143 3.23943 3.13716
# Velocity P-wave (km/s) = 5.40629 5.89575 5.65632
#
# Compressibility (1/GPa) = 0.02930540
#
# Stress axis : x y z
#
# Youngs Moduli (GPa) = 33.71323 33.71314 86.15133
#
# Poissons Ratio (x) = 0.34625 0.45412
# Poissons Ratio (y) = 0.34625 0.45413
# Poissons Ratio (z) = 0.17771 0.17771
#
# Static dielectric constant tensor:
#      x y z
#    x 1.767300 0.000000 0.000000 
#    y 0.000000 1.767300 0.000000 
#    z 0.000000 0.000000 1.715240 
# 
# From -- ./inp_files/10573.got.cif
#   From: 2010.05.17/outbox.cif.g08.bks.cpg/sg140_6_cif.got.tgz:10573.got - 2010.06.21 00:45:31.
