data_PCOD9572155
_publ_section_title
;
Structure prediction by ZEFSAII (Michael W. Deem and Ramdas Pophale) SiO2 
 PCOD9572155
Probable space group: I 4/M C M
;
_chemical_formula_sum "Si O2"
_cell_formula_units_Z 160
_cell_length_a 22.188438
_cell_length_b 22.188438
_cell_length_c 17.018798
_cell_angle_alpha 90.000000
_cell_angle_beta 90.000000
_cell_angle_gamma 90.000000
_cell_volume 8378.810034
_symmetry_space_group_name_H-M "I 4/M C M"
_symmetry_group_IT_number 140
_symmetry_cell_setting 'tetragonal'
loop_
_space_group_symop_operation_xyz
x,y,z
-y,x,z
-x,-y,z
y,-x,z
x,-y,1/2-z
-x,y,1/2-z
y,x,1/2-z
-y,-x,1/2-z
-x,-y,-z
y,-x,-z
x,y,-z
-y,x,-z
-x,y,1/2+z
x,-y,1/2+z
-y,-x,1/2+z
y,x,1/2+z
1/2+x,1/2+y,1/2+z
1/2-y,1/2+x,1/2+z
1/2-x,1/2-y,1/2+z
1/2+y,1/2-x,1/2+z
1/2+x,1/2-y,-z
1/2-x,1/2+y,-z
1/2+y,1/2+x,-z
1/2-y,1/2-x,-z
1/2-x,1/2-y,1/2-z
1/2+y,1/2-x,1/2-z
1/2+x,1/2+y,1/2-z
1/2-y,1/2+x,1/2-z
1/2-x,1/2+y,z
1/2+x,1/2-y,z
1/2-y,1/2-x,z
1/2+y,1/2+x,z
loop_
_atom_site_type_symbol
_atom_site_label
_atom_site_fract_x
_atom_site_fract_y
_atom_site_fract_z
Si Si1 0.714879 0.005559 0.590057
Si Si2 0.162810 0.565106 0.709385
Si Si3 0.639008 0.610837 0.592847
Si Si4 0.985549 0.157321 0.339975
Si Si5 0.129051 0.272191 0.659754
O O1 0.732178 0.999843 0.500000
O O2 0.670516 0.953357 0.618734
O O3 0.771762 0.993982 0.646316
O O4 0.698089 0.075076 0.607416
O O5 0.160485 0.500000 0.750000
O O6 0.103066 0.603066 0.723204
O O7 0.215020 0.605021 0.751568
O O8 0.642795 0.624018 0.500000
O O9 0.580829 0.640191 0.632642
O O10 0.630971 0.539067 0.606340
O O11 0.702061 0.630193 0.634801
O O12 0.000000 0.141403 0.250000
O O13 0.190928 0.309073 0.648932
#
# Coordination Sequence:
#
# PCOD9572155 Si02
#       5
#    32  32  32  32  32
#     4  10  19  33  55  81 111 147 186 230 279 326
#     4   9  18  33  53  77 107 145 187 229 276 334
#     4  11  22  37  58  84 113 143 181 231 279 323
#     4  11  22  38  58  80 109 147 187 223 270 328
#     4   9  18  35  59  84 111 147 188 228 273 331
#
# _framework density 19.095790999999998
#
# number of rings (size 3 to 8) (size 9 to 14) (size 15 to 20)
#    0.000    2.000    0.000    7.200    0.000    2.600 
#    0.000    3.000    0.000   16.800    0.000    5.600 
#    0.000    0.000    0.000    0.000    0.000    0.000 
#
# Total GULP energy -445668.410609 kJ/mol
# GULP energy per Si atom -5570.855133 kJ/mol
# Density = 1.905233 g / cm^3
# Si number density = 19.095791 Si / 1000 Ang^3
#
#
#
# Elastic Constant Matrix: (Units=GPa)
#
#
# Indices 1 2 3 4 5 6 
#
# 1 83.8870 55.5309 19.4154 0.0000 0.0000 0.0000
# 2 55.5309 83.8870 19.4154 0.0000 0.0000 0.0000
# 3 19.4154 19.4154 59.3969 0.0000 0.0000 0.0000
# 4 0.0000 0.0000 0.0000 18.6172 0.0000 0.0000
# 5 0.0000 0.0000 0.0000 0.0000 18.6172 0.0000
# 6 0.0000 0.0000 0.0000 0.0000 0.0000 -4.7408
#
#
#
# Elastic Compliance Matrix: (Units=1/GPa)
#
#
# Indices 1 2 3 4 5 6 
#
# 1 0.021578 -0.013687 -0.002579 0.000000 0.000000 0.000000
# 2 -0.013687 0.021578 -0.002579 0.000000 0.000000 0.000000
# 3 -0.002579 -0.002579 0.018522 0.000000 0.000000 0.000000
# 4 0.000000 0.000000 0.000000 0.053714 0.000000 0.000000
# 5 0.000000 0.000000 0.000000 0.000000 0.053714 0.000000
# 6 0.000000 0.000000 0.000000 0.000000 0.000000 -0.210936
#
#
# Mechanical properties :
#
#
# Convention : Reuss Voigt Hill
#
# Bulk Modulus (GPa) = 41.68968 46.21048 43.95008
# Shear Modulus (GPa) = 1295.91918 15.35267 655.63592
#
# Velocity S-wave (km/s) = 26.07901 2.83853 18.54955
# Velocity P-wave (km/s) = 30.47456 5.91565 21.95101
#
# Compressibility (1/GPa) = 0.02398675
#
# Stress axis : x y z
#
# Youngs Moduli (GPa) = 46.34250 46.34250 53.98929
#
# Poissons Ratio (x) = 0.63431 0.13926
# Poissons Ratio (y) = 0.63431 0.13926
# Poissons Ratio (z) = 0.11954 0.11954
#
# Static dielectric constant tensor:
#      x y z
#    x 1.703430 0.000000 0.000000 
#    y 0.000000 1.703430 0.000000 
#    z 0.000000 0.000000 1.710600 
# 
# From -- ./inp_files/6780.got.cif
#   From: 2010.05.17/outbox.cif.g08.bks.cpg/sg140_4_cif.got.tgz:6780.got - 2010.06.21 00:45:31.
