data_PCOD9572396
_publ_section_title
;
Structure prediction by ZEFSAII (Michael W. Deem and Ramdas Pophale) SiO2 
 PCOD9572396
Probable space group: I 4/M C M
;
_chemical_formula_sum "Si O2"
_cell_formula_units_Z 160
_cell_length_a 23.568492
_cell_length_b 23.568492
_cell_length_c 14.258741
_cell_angle_alpha 90.000000
_cell_angle_beta 90.000000
_cell_angle_gamma 90.000000
_cell_volume 7920.357263
_symmetry_space_group_name_H-M "I 4/M C M"
_symmetry_group_IT_number 140
_symmetry_cell_setting 'tetragonal'
loop_
_space_group_symop_operation_xyz
x,y,z
-y,x,z
-x,-y,z
y,-x,z
x,-y,1/2-z
-x,y,1/2-z
y,x,1/2-z
-y,-x,1/2-z
-x,-y,-z
y,-x,-z
x,y,-z
-y,x,-z
-x,y,1/2+z
x,-y,1/2+z
-y,-x,1/2+z
y,x,1/2+z
1/2+x,1/2+y,1/2+z
1/2-y,1/2+x,1/2+z
1/2-x,1/2-y,1/2+z
1/2+y,1/2-x,1/2+z
1/2+x,1/2-y,-z
1/2-x,1/2+y,-z
1/2+y,1/2+x,-z
1/2-y,1/2-x,-z
1/2-x,1/2-y,1/2-z
1/2+y,1/2-x,1/2-z
1/2+x,1/2+y,1/2-z
1/2-y,1/2+x,1/2-z
1/2-x,1/2+y,z
1/2+x,1/2-y,z
1/2-y,1/2-x,z
1/2+y,1/2+x,z
loop_
_atom_site_type_symbol
_atom_site_label
_atom_site_fract_x
_atom_site_fract_y
_atom_site_fract_z
Si Si1 0.246811 0.906377 0.606919
Si Si2 0.800464 0.211340 0.393705
Si Si3 0.787827 0.033389 0.110931
Si Si4 0.033498 0.913734 0.614838
Si Si5 0.116621 0.705242 0.295160
O O1 0.267861 0.904918 0.500000
O O2 0.201887 0.855427 0.616290
O O3 0.293828 0.895432 0.685063
O O4 0.217435 0.966220 0.624451
O O5 0.820488 0.224936 0.500000
O O6 0.736961 0.236961 0.387395
O O7 0.837493 0.245874 0.320861
O O8 0.732337 0.062097 0.155259
O O9 0.850536 0.051265 0.146247
O O10 0.786338 0.044931 0.000000
O O11 0.034216 0.912482 0.500000
O O12 0.071252 0.968255 0.642375
O O13 0.146653 0.646653 0.325303
#
# Coordination Sequence:
#
# PCOD9572396 Si02
#       5
#    32  32  32  32  32
#     4  10  21  36  54  77 107 144 187 236 284 333
#     4   9  18  33  54  80 109 143 184 229 281 339
#     4  10  21  34  54  83 116 152 191 236 290 345
#     4   8  15  29  50  77 110 150 197 243 284 325
#     4  11  22  36  55  79 112 151 191 235 284 346
#
# _framework density 20.201108999999999
#
# number of rings (size 3 to 8) (size 9 to 14) (size 15 to 20)
#    0.000    2.400    0.000    3.000    2.800    4.000 
#    0.000    0.000    0.000    0.000    0.000    5.600 
#    0.000   13.600    0.000   45.400    0.000    0.000 
#
# Total GULP energy -446488.931554 kJ/mol
# GULP energy per Si atom -5581.111644 kJ/mol
# Density = 2.015513 g / cm^3
# Si number density = 20.201109 Si / 1000 Ang^3
#
#
#
# Elastic Constant Matrix: (Units=GPa)
#
#
# Indices 1 2 3 4 5 6 
#
# 1 71.7177 33.7272 23.9323 0.0000 0.0000 0.0000
# 2 33.7272 71.7177 23.9323 0.0000 0.0000 0.0000
# 3 23.9323 23.9323 59.9332 0.0000 0.0000 0.0000
# 4 0.0000 0.0000 0.0000 22.1015 0.0000 0.0000
# 5 0.0000 0.0000 0.0000 0.0000 22.1015 0.0000
# 6 0.0000 0.0000 0.0000 0.0000 0.0000 17.9753
#
#
#
# Elastic Compliance Matrix: (Units=1/GPa)
#
#
# Indices 1 2 3 4 5 6 
#
# 1 0.018953 -0.007370 -0.004625 0.000000 0.000000 0.000000
# 2 -0.007370 0.018953 -0.004625 0.000000 0.000000 0.000000
# 3 -0.004625 -0.004625 0.020379 0.000000 0.000000 0.000000
# 4 0.000000 0.000000 0.000000 0.045246 0.000000 0.000000
# 5 0.000000 0.000000 0.000000 0.000000 0.045246 0.000000
# 6 0.000000 0.000000 0.000000 0.000000 0.000000 0.055632
#
#
# Mechanical properties :
#
#
# Convention : Reuss Voigt Hill
#
# Bulk Modulus (GPa) = 39.92945 40.72803 40.32874
# Shear Modulus (GPa) = 20.32545 20.55411 20.43978
#
# Velocity S-wave (km/s) = 3.17544 3.19325 3.18435
# Velocity P-wave (km/s) = 5.76658 5.81385 5.79026
#
# Compressibility (1/GPa) = 0.02504417
#
# Stress axis : x y z
#
# Youngs Moduli (GPa) = 52.76267 52.76267 49.06960
#
# Poissons Ratio (x) = 0.38884 0.22697
# Poissons Ratio (y) = 0.38884 0.22697
# Poissons Ratio (z) = 0.24405 0.24405
#
# Static dielectric constant tensor:
#      x y z
#    x 1.736490 0.000000 0.000000 
#    y 0.000000 1.736490 0.000000 
#    z 0.000000 0.000000 1.837460 
# 
# From -- ./inp_files/4738.got.cif
#   From: 2010.05.17/outbox.cif.g08.bks.cpg/sg140_3_cif.got.tgz:4738.got - 2010.06.21 00:45:31.
