data_PCOD9572203
_publ_section_title
;
Structure prediction by ZEFSAII (Michael W. Deem and Ramdas Pophale) SiO2 
 PCOD9572203
Probable space group: I 4/M C M
;
_chemical_formula_sum "Si O2"
_cell_formula_units_Z 176
_cell_length_a 26.467467
_cell_length_b 26.467467
_cell_length_c 13.738717
_cell_angle_alpha 90.000000
_cell_angle_beta 90.000000
_cell_angle_gamma 90.000000
_cell_volume 9624.339585
_symmetry_space_group_name_H-M "I 4/M C M"
_symmetry_group_IT_number 140
_symmetry_cell_setting 'tetragonal'
loop_
_space_group_symop_operation_xyz
x,y,z
-y,x,z
-x,-y,z
y,-x,z
x,-y,1/2-z
-x,y,1/2-z
y,x,1/2-z
-y,-x,1/2-z
-x,-y,-z
y,-x,-z
x,y,-z
-y,x,-z
-x,y,1/2+z
x,-y,1/2+z
-y,-x,1/2+z
y,x,1/2+z
1/2+x,1/2+y,1/2+z
1/2-y,1/2+x,1/2+z
1/2-x,1/2-y,1/2+z
1/2+y,1/2-x,1/2+z
1/2+x,1/2-y,-z
1/2-x,1/2+y,-z
1/2+y,1/2+x,-z
1/2-y,1/2-x,-z
1/2-x,1/2-y,1/2-z
1/2+y,1/2-x,1/2-z
1/2+x,1/2+y,1/2-z
1/2-y,1/2+x,1/2-z
1/2-x,1/2+y,z
1/2+x,1/2-y,z
1/2-y,1/2-x,z
1/2+y,1/2+x,z
loop_
_atom_site_type_symbol
_atom_site_label
_atom_site_fract_x
_atom_site_fract_y
_atom_site_fract_z
Si Si1 0.313521 0.267784 0.381687
Si Si2 0.699414 0.000000 0.750000
Si Si3 0.428491 0.266900 0.385518
Si Si4 0.617760 0.286832 0.614072
Si Si5 0.170346 0.586268 0.113444
Si Si6 0.558600 0.357610 0.759403
O O1 0.311589 0.267632 0.500000
O O2 0.272892 0.227109 0.346617
O O3 0.370880 0.253745 0.356050
O O4 0.300030 0.325190 0.353894
O O5 0.735006 0.031673 0.823474
O O6 0.667516 0.039241 0.686105
O O7 0.435350 0.258394 0.500000
O O8 0.433869 0.325930 0.358632
O O9 0.612791 0.300077 0.500000
O O10 0.607918 0.227228 0.622974
O O11 0.577969 0.318300 0.677072
O O12 0.129652 0.629652 0.134573
O O13 0.164252 0.571086 0.000000
O O14 0.500000 0.369661 0.750000
O O15 0.594147 0.405854 0.750000
#
# Coordination Sequence:
#
# PCOD9572203 Si02
#       6
#    32  16  32  32  32  32
#     4   9  18  33  56  88 124 157 187 225 285 360
#     4  12  22  38  60  89 117 158 200 240 296 352
#     4  11  22  38  58  84 120 157 197 241 291 352
#     4  10  19  36  60  88 120 155 190 232 287 358
#     4  10  21  37  60  91 124 156 195 244 293 348
#     4  12  24  40  58  83 112 151 207 252 302 347
#
# _framework density 18.28697
#
# number of rings (size 3 to 8) (size 9 to 14) (size 15 to 20)
#    0.000    1.455    4.545    1.091    0.000    5.273 
#    0.000    0.909    0.000    1.909    0.000    3.818 
#    0.000    0.000    0.000    0.000    0.000    0.000 
#
# Total GULP energy -491912.005283 kJ/mol
# GULP energy per Si atom -5589.909151 kJ/mol
# Density = 1.824535 g / cm^3
# Si number density = 18.286970 Si / 1000 Ang^3
#
#
#
# Elastic Constant Matrix: (Units=GPa)
#
#
# Indices 1 2 3 4 5 6 
#
# 1 107.8604 81.3403 56.6928 0.0000 0.0000 0.0000
# 2 81.3403 107.8564 56.6916 0.0000 0.0000 0.0000
# 3 56.6928 56.6916 108.6451 0.0000 0.0000 0.0000
# 4 0.0000 0.0000 0.0000 27.6947 0.0000 0.0000
# 5 0.0000 0.0000 0.0000 0.0000 27.6946 0.0000
# 6 0.0000 0.0000 0.0000 0.0000 0.0000 22.2621
#
#
#
# Elastic Compliance Matrix: (Units=1/GPa)
#
#
# Indices 1 2 3 4 5 6 
#
# 1 0.022700 -0.015010 -0.004013 0.000000 0.000000 0.000000
# 2 -0.015010 0.022701 -0.004013 0.000000 0.000000 0.000000
# 3 -0.004013 -0.004013 0.013392 0.000000 0.000000 0.000000
# 4 0.000000 0.000000 0.000000 0.036108 0.000000 0.000000
# 5 0.000000 0.000000 0.000000 0.000000 0.036108 0.000000
# 6 0.000000 0.000000 0.000000 0.000000 0.000000 0.044919
#
#
# Mechanical properties :
#
#
# Convention : Reuss Voigt Hill
#
# Bulk Modulus (GPa) = 78.60837 79.31238 78.96038
# Shear Modulus (GPa) = 22.10045 24.17277 23.13661
#
# Velocity S-wave (km/s) = 3.48017 3.63968 3.56082
# Velocity P-wave (km/s) = 7.69598 7.81845 7.75746
#
# Compressibility (1/GPa) = 0.01272129
#
# Stress axis : x y z
#
# Youngs Moduli (GPa) = 44.05331 44.05173 74.67014
#
# Poissons Ratio (x) = 0.66121 0.29964
# Poissons Ratio (y) = 0.66123 0.29964
# Poissons Ratio (z) = 0.17678 0.17678
#
# Static dielectric constant tensor:
#      x y z
#    x 1.613350 0.000000 0.000000 
#    y 0.000000 1.613350 0.000000 
#    z 0.000000 0.000000 1.681350 
# 
# From -- ./inp_files/4883.got.cif
#   From: 2010.05.17/outbox.cif.g08.bks.cpg/sg140_3_cif.got.tgz:4883.got - 2010.06.21 00:45:31.
