data_PCOD9572835
_publ_section_title
;
Structure prediction by ZEFSAII (Michael W. Deem and Ramdas Pophale) SiO2 
 PCOD9572835
Probable space group: I 41/A M D
;
_chemical_formula_sum "Si O2"
_cell_formula_units_Z 128
_cell_length_a 17.608731
_cell_length_b 17.608731
_cell_length_c 22.561417
_cell_angle_alpha 90.000000
_cell_angle_beta 90.000000
_cell_angle_gamma 90.000000
_cell_volume 6995.560077
_symmetry_space_group_name_H-M "I 41/A M D"
_symmetry_group_IT_number 141
_space_group.IT_coordinate_system_code '2'
_symmetry_cell_setting 'tetragonal'
loop_
_space_group_symop_operation_xyz
x,y,z
1/4-y,3/4+x,1/4+z
-x,1/2-y,z
1/4+y,1/4-x,3/4+z
x,-y,-z
-x,1/2+y,-z
1/4+y,3/4+x,1/4-z
1/4-y,1/4-x,3/4-z
-x,-y,-z
3/4+y,1/4-x,3/4-z
x,1/2+y,-z
3/4-y,3/4+x,1/4-z
-x,y,z
x,1/2-y,z
3/4-y,1/4-x,3/4+z
3/4+y,3/4+x,1/4+z
1/2+x,1/2+y,1/2+z
3/4-y,1/4+x,3/4+z
1/2-x,-y,1/2+z
3/4+y,3/4-x,1/4+z
1/2+x,1/2-y,1/2-z
1/2-x,y,1/2-z
3/4+y,1/4+x,3/4-z
3/4-y,3/4-x,1/4-z
1/2-x,1/2-y,1/2-z
1/4+y,3/4-x,1/4-z
1/2+x,y,1/2-z
1/4-y,1/4+x,3/4-z
1/2-x,1/2+y,1/2+z
1/2+x,-y,1/2+z
1/4-y,3/4-x,1/4+z
1/4+y,1/4+x,3/4+z
loop_
_atom_site_type_symbol
_atom_site_label
_atom_site_fract_x
_atom_site_fract_y
_atom_site_fract_z
Si Si1 0.084801 0.030543 0.237999
Si Si2 0.411665 0.339895 0.344007
Si Si3 0.190859 0.456062 0.666943
Si Si4 0.416037 0.552857 0.389918
O O1 0.095970 0.118100 0.219355
O O2 0.000000 0.020232 0.263820
O O3 0.149922 0.997201 0.278960
O O4 0.084605 0.989245 0.173924
O O5 0.500000 0.355634 0.363736
O O6 0.402695 0.250000 0.341049
O O7 0.347511 0.377833 0.385188
O O8 0.230590 0.519411 0.625000
O O9 0.258874 0.396212 0.678718
O O10 0.500000 0.550717 0.415073
O O11 0.386463 0.636463 0.375000
#
# Coordination Sequence:
#
# PCOD9572835 Si02
#       4
#    32  32  32  32
#     4   9  18  34  52  72 100 131 162 202 251 293
#     4   9  18  34  55  75  98 133 173 207 243 295
#     4  10  19  31  50  76 103 128 162 205 250 296
#     4   9  19  34  51  70  97 132 166 203 249 299
#
# _framework density 18.297319000000002
#
# number of rings (size 3 to 8) (size 9 to 14) (size 15 to 20)
#    0.000    2.750    0.000    3.000    0.000    9.250 
#    0.000    7.500    0.000    3.000    0.000    0.000 
#    0.000    0.000    0.000    0.000    0.000    0.000 
#
# Total GULP energy -356414.168796 kJ/mol
# GULP energy per Si atom -5568.971387 kJ/mol
# Density = 1.825567 g / cm^3
# Si number density = 18.297319 Si / 1000 Ang^3
#
#
#
# Elastic Constant Matrix: (Units=GPa)
#
#
# Indices 1 2 3 4 5 6 
#
# 1 98.0217 43.7223 20.0039 0.0000 0.0000 0.0000
# 2 43.7223 98.0216 20.0048 0.0000 0.0000 0.0000
# 3 20.0039 20.0048 34.3345 0.0000 0.0000 0.0000
# 4 0.0000 0.0000 0.0000 22.1668 0.0000 0.0000
# 5 0.0000 0.0000 0.0000 0.0000 22.1664 0.0000
# 6 0.0000 0.0000 0.0000 0.0000 0.0000 32.3644
#
#
#
# Elastic Compliance Matrix: (Units=1/GPa)
#
#
# Indices 1 2 3 4 5 6 
#
# 1 0.013430 -0.004986 -0.004919 0.000000 0.000000 0.000000
# 2 -0.004986 0.013430 -0.004920 0.000000 0.000000 0.000000
# 3 -0.004919 -0.004920 0.034858 0.000000 0.000000 0.000000
# 4 0.000000 0.000000 0.000000 0.045113 0.000000 0.000000
# 5 0.000000 0.000000 0.000000 0.000000 0.045113 0.000000
# 6 0.000000 0.000000 0.000000 0.000000 0.000000 0.030898
#
#
# Mechanical properties :
#
#
# Convention : Reuss Voigt Hill
#
# Bulk Modulus (GPa) = 31.18480 44.20441 37.69460
# Shear Modulus (GPa) = 22.40329 25.11596 23.75962
#
# Velocity S-wave (km/s) = 3.50294 3.70896 3.60742
# Velocity P-wave (km/s) = 5.78283 6.52328 6.16419
#
# Compressibility (1/GPa) = 0.03206691
#
# Stress axis : x y z
#
# Youngs Moduli (GPa) = 74.46073 74.45977 28.68805
#
# Poissons Ratio (x) = 0.37129 0.14112
# Poissons Ratio (y) = 0.37129 0.14114
# Poissons Ratio (z) = 0.36629 0.36632
#
# Static dielectric constant tensor:
#      x y z
#    x 1.669930 0.000000 0.000000 
#    y 0.000000 1.669930 0.000000 
#    z 0.000000 0.000000 1.628440 
# 
# From -- ./inp_files/11331.got.cif
#   From: 2010.05.17/outbox.cif.g08.bks.cpg/sg141_6_cif.got.tgz:11331.got - 2010.05.20 13:30:51.
