data_PCOD9572282
_publ_section_title
;
Structure prediction by ZEFSAII (Michael W. Deem and Ramdas Pophale) SiO2 
 PCOD9572282
Probable space group: I 4/M C M
;
_chemical_formula_sum "Si O2"
_cell_formula_units_Z 240
_cell_length_a 29.469218
_cell_length_b 29.469218
_cell_length_c 15.328717
_cell_angle_alpha 90.000000
_cell_angle_beta 90.000000
_cell_angle_gamma 90.000000
_cell_volume 13311.991428
_symmetry_space_group_name_H-M "I 4/M C M"
_symmetry_group_IT_number 140
_symmetry_cell_setting 'tetragonal'
loop_
_space_group_symop_operation_xyz
x,y,z
-y,x,z
-x,-y,z
y,-x,z
x,-y,1/2-z
-x,y,1/2-z
y,x,1/2-z
-y,-x,1/2-z
-x,-y,-z
y,-x,-z
x,y,-z
-y,x,-z
-x,y,1/2+z
x,-y,1/2+z
-y,-x,1/2+z
y,x,1/2+z
1/2+x,1/2+y,1/2+z
1/2-y,1/2+x,1/2+z
1/2-x,1/2-y,1/2+z
1/2+y,1/2-x,1/2+z
1/2+x,1/2-y,-z
1/2-x,1/2+y,-z
1/2+y,1/2+x,-z
1/2-y,1/2-x,-z
1/2-x,1/2-y,1/2-z
1/2+y,1/2-x,1/2-z
1/2+x,1/2+y,1/2-z
1/2-y,1/2+x,1/2-z
1/2-x,1/2+y,z
1/2+x,1/2-y,z
1/2-y,1/2-x,z
1/2+y,1/2+x,z
loop_
_atom_site_type_symbol
_atom_site_label
_atom_site_fract_x
_atom_site_fract_y
_atom_site_fract_z
Si Si1 0.045690 0.794993 0.596811
Si Si2 0.178665 0.605797 0.599712
Si Si3 0.133078 0.975216 0.341085
Si Si4 0.338757 0.909948 0.599297
Si Si5 0.199020 0.506325 0.646880
Si Si6 0.431099 0.532212 0.000000
Si Si7 0.350951 0.778881 0.732076
Si Si8 0.891620 0.816036 0.741056
O O1 0.064883 0.794145 0.500000
O O2 0.084104 0.799988 0.669726
O O3 0.012953 0.837620 0.609440
O O4 0.015331 0.749788 0.610963
O O5 0.195168 0.609891 0.500000
O O6 0.130659 0.630659 0.605141
O O7 0.174792 0.553445 0.624663
O O8 0.209900 0.631234 0.670311
O O9 0.166817 0.933907 0.316919
O O10 0.117445 0.000000 0.250000
O O11 0.095603 0.958276 0.409735
O O12 0.325692 0.898425 0.500000
O O13 0.389755 0.889755 0.611637
O O14 0.327999 0.962905 0.611818
O O15 0.307988 0.882942 0.667810
O O16 0.203629 0.500000 0.750000
O O17 0.441804 0.478588 0.000000
O O18 0.300626 0.800626 0.723822
O O19 0.361365 0.726708 0.710867
O O20 0.858842 0.858842 0.750000
#
# Coordination Sequence:
#
# PCOD9572282 Si02
#       8
#    32  32  32  32  32  16  32  32
#     4  11  21  37  59  87 115 151 197 250 301 350
#     4  10  20  34  55  82 112 153 201 249 300 354
#     4  10  23  40  62  85 120 153 191 243 293 352
#     4  10  20  34  55  84 116 151 189 234 293 356
#     4  12  20  32  57  84 121 150 193 249 300 359
#     4  11  26  44  66  92 117 154 202 240 291 365
#     4  10  20  38  59  82 116 154 196 244 292 355
#     4  11  24  39  58  87 119 155 194 244 305 362
#
# _framework density 18.028856999999999
#
# number of rings (size 3 to 8) (size 9 to 14) (size 15 to 20)
#    0.000    1.400    3.333    3.200    3.733    0.267 
#    1.200    0.667    0.000    0.400    0.000    6.533 
#    0.000    0.000    0.000    0.000    0.000    0.000 
#
# Total GULP energy -669130.665167 kJ/mol
# GULP energy per Si atom -5576.088876 kJ/mol
# Density = 1.798782 g / cm^3
# Si number density = 18.028857 Si / 1000 Ang^3
#
#
#
# Elastic Constant Matrix: (Units=GPa)
#
#
# Indices 1 2 3 4 5 6 
#
# 1 53.3481 16.0683 11.7974 0.0000 0.0000 0.0000
# 2 16.0683 53.3481 11.7974 0.0000 0.0000 0.0000
# 3 11.7974 11.7974 97.2847 0.0000 0.0000 0.0000
# 4 0.0000 0.0000 0.0000 5.2355 0.0000 0.0000
# 5 0.0000 0.0000 0.0000 0.0000 5.2355 0.0000
# 6 0.0000 0.0000 0.0000 0.0000 0.0000 23.5079
#
#
#
# Elastic Compliance Matrix: (Units=1/GPa)
#
#
# Indices 1 2 3 4 5 6 
#
# 1 0.020925 -0.005900 -0.001822 0.000000 0.000000 0.000000
# 2 -0.005900 0.020925 -0.001822 0.000000 0.000000 0.000000
# 3 -0.001822 -0.001822 0.010721 0.000000 0.000000 0.000000
# 4 0.000000 0.000000 0.000000 0.191002 0.000000 0.000000
# 5 0.000000 0.000000 0.000000 0.000000 0.191002 0.000000
# 6 0.000000 0.000000 0.000000 0.000000 0.000000 0.042539
#
#
# Mechanical properties :
#
#
# Convention : Reuss Voigt Hill
#
# Bulk Modulus (GPa) = 29.86583 31.47858 30.67220
# Shear Modulus (GPa) = 9.85490 17.75031 13.80261
#
# Velocity S-wave (km/s) = 2.34052 3.14116 2.76992
# Velocity P-wave (km/s) = 4.88934 5.53659 5.22300
#
# Compressibility (1/GPa) = 0.03348308
#
# Stress axis : x y z
#
# Youngs Moduli (GPa) = 47.79045 47.79045 93.27470
#
# Poissons Ratio (x) = 0.28194 0.16995
# Poissons Ratio (y) = 0.28194 0.16995
# Poissons Ratio (z) = 0.08708 0.08708
#
# Static dielectric constant tensor:
#      x y z
#    x 1.589180 0.000000 0.000000 
#    y 0.000000 1.589180 0.000000 
#    z 0.000000 0.000000 1.636490 
# 
# From -- ./inp_files/5376.got.cif
#   From: 2010.05.17/outbox.cif.g08.bks.cpg/sg140_3_cif.got.tgz:5376.got - 2010.06.21 00:45:31.
