data_PCOD9572033
_publ_section_title
;
Structure prediction by ZEFSAII (Michael W. Deem and Ramdas Pophale) SiO2 
 PCOD9572033
Probable space group: I 4/M C M
;
_chemical_formula_sum "Si O2"
_cell_formula_units_Z 112
_cell_length_a 30.241498
_cell_length_b 30.241498
_cell_length_c 8.485924
_cell_angle_alpha 90.000000
_cell_angle_beta 90.000000
_cell_angle_gamma 90.000000
_cell_volume 7760.786530
_symmetry_space_group_name_H-M "I 4/M C M"
_symmetry_group_IT_number 140
_symmetry_cell_setting 'tetragonal'
loop_
_space_group_symop_operation_xyz
x,y,z
-y,x,z
-x,-y,z
y,-x,z
x,-y,1/2-z
-x,y,1/2-z
y,x,1/2-z
-y,-x,1/2-z
-x,-y,-z
y,-x,-z
x,y,-z
-y,x,-z
-x,y,1/2+z
x,-y,1/2+z
-y,-x,1/2+z
y,x,1/2+z
1/2+x,1/2+y,1/2+z
1/2-y,1/2+x,1/2+z
1/2-x,1/2-y,1/2+z
1/2+y,1/2-x,1/2+z
1/2+x,1/2-y,-z
1/2-x,1/2+y,-z
1/2+y,1/2+x,-z
1/2-y,1/2-x,-z
1/2-x,1/2-y,1/2-z
1/2+y,1/2-x,1/2-z
1/2+x,1/2+y,1/2-z
1/2-y,1/2+x,1/2-z
1/2-x,1/2+y,z
1/2+x,1/2-y,z
1/2-y,1/2-x,z
1/2+y,1/2+x,z
loop_
_atom_site_type_symbol
_atom_site_label
_atom_site_fract_x
_atom_site_fract_y
_atom_site_fract_z
Si Si1 0.211024 0.047352 0.185912
Si Si2 0.887780 0.955688 0.688490
Si Si3 0.646600 0.281092 0.187859
Si Si4 0.214578 0.285423 0.311655
O O1 0.159103 0.044712 0.225309
O O2 0.221947 0.095400 0.259255
O O3 0.229744 0.000000 0.250000
O O4 0.218808 0.048840 0.000000
O O5 0.914025 0.914025 0.750000
O O6 0.882617 0.955736 0.500000
O O7 0.911351 0.000000 0.750000
O O8 0.676712 0.323289 0.250000
O O9 0.669701 0.235797 0.246721
O O10 0.648670 0.284172 0.000000
O O11 0.250000 0.250000 0.250000
O O12 0.213515 0.286486 0.500000
#
# Coordination Sequence:
#
# PCOD9572033 Si02
#       4
#    32  32  32  16
#     4  11  21  34  48  65  85 110 141 176 213 256
#     4  11  21  34  47  61  77  98 127 165 209 256
#     4  11  20  32  48  68  91 118 147 182 222 264
#     4  10  18  30  46  68  92 116 144 179 218 263
#
# _framework density 14.431526
#
# number of rings (size 3 to 8) (size 9 to 14) (size 15 to 20)
#    0.000    1.143    0.000   13.286    0.000    0.286 
#    0.000    1.429    0.000    0.000    0.000    0.000 
#    0.000    0.000    0.000    0.000    0.000    0.714 
#
# Total GULP energy -311957.562190 kJ/mol
# GULP energy per Si atom -5570.670753 kJ/mol
# Density = 1.439868 g / cm^3
# Si number density = 14.431526 Si / 1000 Ang^3
#
#
#
# Elastic Constant Matrix: (Units=GPa)
#
#
# Indices 1 2 3 4 5 6 
#
# 1 80.1895 41.9851 29.8070 0.0000 0.0000 0.0000
# 2 41.9851 80.1893 29.8070 0.0000 0.0000 0.0000
# 3 29.8070 29.8070 141.7960 0.0000 0.0000 0.0000
# 4 0.0000 0.0000 0.0000 21.2340 0.0000 0.0000
# 5 0.0000 0.0000 0.0000 0.0000 21.2342 0.0000
# 6 0.0000 0.0000 0.0000 0.0000 0.0000 25.7404
#
#
#
# Elastic Compliance Matrix: (Units=1/GPa)
#
#
# Indices 1 2 3 4 5 6 
#
# 1 0.017648 -0.008527 -0.001917 0.000000 0.000000 0.000000
# 2 -0.008527 0.017648 -0.001917 0.000000 0.000000 0.000000
# 3 -0.001917 -0.001917 0.007858 0.000000 0.000000 0.000000
# 4 0.000000 0.000000 0.000000 0.047094 0.000000 0.000000
# 5 0.000000 0.000000 0.000000 0.000000 0.047094 0.000000
# 6 0.000000 0.000000 0.000000 0.000000 0.000000 0.038849
#
#
# Mechanical properties :
#
#
# Convention : Reuss Voigt Hill
#
# Bulk Modulus (GPa) = 54.25781 56.15259 55.20520
# Shear Modulus (GPa) = 24.14775 27.01342 25.58058
#
# Velocity S-wave (km/s) = 4.09499 4.33116 4.21473
# Velocity P-wave (km/s) = 7.74835 8.00038 7.87537
#
# Compressibility (1/GPa) = 0.01843053
#
# Stress axis : x y z
#
# Youngs Moduli (GPa) = 56.66436 56.66425 127.25190
#
# Poissons Ratio (x) = 0.48319 0.24397
# Poissons Ratio (y) = 0.48319 0.24397
# Poissons Ratio (z) = 0.10864 0.10864
#
# Static dielectric constant tensor:
#      x y z
#    x 1.490240 0.000000 0.000000 
#    y 0.000000 1.490230 0.000000 
#    z 0.000000 0.000000 1.484450 
# 
# From -- ./inp_files/1344.got.cif
#   From: 2010.05.17/outbox.cif.g08.bks.cpg/sg140_1_cif.got.tgz:1344.got - 2010.06.21 00:45:31.
