data_PCOD9572259
_publ_section_title
;
Structure prediction by ZEFSAII (Michael W. Deem and Ramdas Pophale) SiO2 
 PCOD9572259
Probable space group: I 4/M C M
;
_chemical_formula_sum "Si O2"
_cell_formula_units_Z 192
_cell_length_a 20.358252
_cell_length_b 20.358252
_cell_length_c 26.749386
_cell_angle_alpha 90.000000
_cell_angle_beta 90.000000
_cell_angle_gamma 90.000000
_cell_volume 11086.508378
_symmetry_space_group_name_H-M "I 4/M C M"
_symmetry_group_IT_number 140
_symmetry_cell_setting 'tetragonal'
loop_
_space_group_symop_operation_xyz
x,y,z
-y,x,z
-x,-y,z
y,-x,z
x,-y,1/2-z
-x,y,1/2-z
y,x,1/2-z
-y,-x,1/2-z
-x,-y,-z
y,-x,-z
x,y,-z
-y,x,-z
-x,y,1/2+z
x,-y,1/2+z
-y,-x,1/2+z
y,x,1/2+z
1/2+x,1/2+y,1/2+z
1/2-y,1/2+x,1/2+z
1/2-x,1/2-y,1/2+z
1/2+y,1/2-x,1/2+z
1/2+x,1/2-y,-z
1/2-x,1/2+y,-z
1/2+y,1/2+x,-z
1/2-y,1/2-x,-z
1/2-x,1/2-y,1/2-z
1/2+y,1/2-x,1/2-z
1/2+x,1/2+y,1/2-z
1/2-y,1/2+x,1/2-z
1/2-x,1/2+y,z
1/2+x,1/2-y,z
1/2-y,1/2-x,z
1/2+y,1/2+x,z
loop_
_atom_site_type_symbol
_atom_site_label
_atom_site_fract_x
_atom_site_fract_y
_atom_site_fract_z
Si Si1 0.026044 0.891065 0.000000
Si Si2 0.667653 0.564755 0.604365
Si Si3 0.923543 0.076458 0.250000
Si Si4 0.422985 0.660702 0.844123
Si Si5 0.705531 0.093266 0.661623
Si Si6 0.857669 0.250480 0.732536
Si Si7 0.504570 0.892969 0.308664
O O1 0.038455 0.847502 0.049148
O O2 0.075949 0.953611 0.000000
O O3 0.597276 0.610094 0.699767
O O4 0.618556 0.626700 0.612080
O O5 0.659408 0.499182 0.639716
O O6 0.738583 0.592497 0.620032
O O7 0.000000 0.089161 0.250000
O O8 0.398430 0.726825 0.816080
O O9 0.653822 0.153822 0.657026
O O10 0.736489 0.099895 0.717450
O O11 0.666266 0.024698 0.660019
O O12 0.804384 0.195617 0.750000
O O13 0.815810 0.315810 0.721623
O O14 0.500000 0.875493 0.250000
O O15 0.451311 0.951311 0.314554
O O16 0.574977 0.925024 0.319658
#
# Coordination Sequence:
#
# PCOD9572259 Si02
#       7
#    16  32  16  32  32  32  32
#     4  11  24  44  65  82 108 141 187 252 314 360
#     4  12  24  38  59  82 105 142 193 238 293 348
#     4  11  20  28  43  72 110 138 163 204 270 333
#     4  12  22  34  52  79 110 145 182 228 274 338
#     4  10  21  36  56  83 119 158 194 231 276 341
#     4  10  20  34  50  75 117 161 190 215 263 342
#     4   8  15  29  49  76 112 152 191 228 265 312
#
# _framework density 17.318345999999998
#
# number of rings (size 3 to 8) (size 9 to 14) (size 15 to 20)
#    0.000    1.500    5.833    0.500    2.333    0.333 
#    0.000    0.417    0.000    0.000    0.000    2.333 
#    0.000    2.667    0.000    0.000    0.000    0.000 
#
# Total GULP energy -534524.634575 kJ/mol
# GULP energy per Si atom -5567.964943 kJ/mol
# Density = 1.727893 g / cm^3
# Si number density = 17.318346 Si / 1000 Ang^3
#
#
#
# Elastic Constant Matrix: (Units=GPa)
#
#
# Indices 1 2 3 4 5 6 
#
# 1 69.9922 40.7789 32.0520 0.0000 0.0000 0.0000
# 2 40.7789 69.9913 32.0522 0.0000 0.0000 0.0000
# 3 32.0520 32.0522 84.8619 0.0000 0.0000 0.0000
# 4 0.0000 0.0000 0.0000 17.9217 0.0000 0.0000
# 5 0.0000 0.0000 0.0000 0.0000 17.9219 0.0000
# 6 0.0000 0.0000 0.0000 0.0000 0.0000 32.6568
#
#
#
# Elastic Compliance Matrix: (Units=1/GPa)
#
#
# Indices 1 2 3 4 5 6 
#
# 1 0.022892 -0.011339 -0.004363 0.000000 0.000000 0.000000
# 2 -0.011339 0.022892 -0.004364 0.000000 0.000000 0.000000
# 3 -0.004363 -0.004364 0.015080 0.000000 0.000000 0.000000
# 4 0.000000 0.000000 0.000000 0.055798 0.000000 0.000000
# 5 0.000000 0.000000 0.000000 0.000000 0.055798 0.000000
# 6 0.000000 0.000000 0.000000 0.000000 0.000000 0.030621
#
#
# Mechanical properties :
#
#
# Convention : Reuss Voigt Hill
#
# Bulk Modulus (GPa) = 48.23510 48.29018 48.26264
# Shear Modulus (GPa) = 19.99002 21.69759 20.84381
#
# Velocity S-wave (km/s) = 3.40114 3.54343 3.47301
# Velocity P-wave (km/s) = 6.58302 6.68472 6.63407
#
# Compressibility (1/GPa) = 0.02073179
#
# Stress axis : x y z
#
# Youngs Moduli (GPa) = 43.68347 43.68268 66.31305
#
# Poissons Ratio (x) = 0.49533 0.28935
# Poissons Ratio (y) = 0.49534 0.28936
# Poissons Ratio (z) = 0.19061 0.19061
#
# Static dielectric constant tensor:
#      x y z
#    x 1.654950 0.000000 0.000000 
#    y 0.000000 1.654950 0.000000 
#    z 0.000000 0.000000 1.636500 
# 
# From -- ./inp_files/9857.got.cif
#   From: 2010.05.17/outbox.cif.g08.bks.cpg/sg140_5_cif.got.tgz:9857.got - 2010.06.21 00:45:31.
