data_PCOD9572406
_publ_section_title
;
Structure prediction by ZEFSAII (Michael W. Deem and Ramdas Pophale) SiO2 
 PCOD9572406
Probable space group: I 4/M C M
;
_chemical_formula_sum "Si O2"
_cell_formula_units_Z 128
_cell_length_a 19.086460
_cell_length_b 19.086460
_cell_length_c 19.291124
_cell_angle_alpha 90.000000
_cell_angle_beta 90.000000
_cell_angle_gamma 90.000000
_cell_volume 7027.620574
_symmetry_space_group_name_H-M "I 4/M C M"
_symmetry_group_IT_number 140
_symmetry_cell_setting 'tetragonal'
loop_
_space_group_symop_operation_xyz
x,y,z
-y,x,z
-x,-y,z
y,-x,z
x,-y,1/2-z
-x,y,1/2-z
y,x,1/2-z
-y,-x,1/2-z
-x,-y,-z
y,-x,-z
x,y,-z
-y,x,-z
-x,y,1/2+z
x,-y,1/2+z
-y,-x,1/2+z
y,x,1/2+z
1/2+x,1/2+y,1/2+z
1/2-y,1/2+x,1/2+z
1/2-x,1/2-y,1/2+z
1/2+y,1/2-x,1/2+z
1/2+x,1/2-y,-z
1/2-x,1/2+y,-z
1/2+y,1/2+x,-z
1/2-y,1/2-x,-z
1/2-x,1/2-y,1/2-z
1/2+y,1/2-x,1/2-z
1/2+x,1/2+y,1/2-z
1/2-y,1/2+x,1/2-z
1/2-x,1/2+y,z
1/2+x,1/2-y,z
1/2-y,1/2-x,z
1/2+y,1/2+x,z
loop_
_atom_site_type_symbol
_atom_site_label
_atom_site_fract_x
_atom_site_fract_y
_atom_site_fract_z
Si Si1 0.559452 0.826739 0.206397
Si Si2 0.071615 0.177916 0.219639
Si Si3 0.956831 0.110350 0.420101
Si Si4 0.995798 0.616525 0.920213
O O1 0.500000 0.867541 0.250000
O O2 0.629712 0.870289 0.201239
O O3 0.572636 0.755694 0.248418
O O4 0.523351 0.823251 0.130889
O O5 0.136682 0.136682 0.250000
O O6 0.066471 0.166200 0.137394
O O7 0.000000 0.144914 0.250000
O O8 0.948030 0.133045 0.500000
O O9 0.038265 0.087581 0.410737
O O10 0.055793 0.555793 0.917106
O O11 0.923400 0.576601 0.900722
O O12 0.990121 0.639028 0.000000
#
# Coordination Sequence:
#
# PCOD9572406 Si02
#       4
#    32  32  32  32
#     4  10  21  35  52  79 110 144 190 232 276 337
#     4  11  21  34  54  80 111 148 182 228 286 339
#     4   9  17  31  55  85 110 139 182 231 280 333
#     4   8  14  28  53  81 106 136 179 233 285 327
#
# _framework density 18.213847000000001
#
# number of rings (size 3 to 8) (size 9 to 14) (size 15 to 20)
#    0.000    2.500    2.500    2.250    0.000    2.000 
#    0.000    6.250    0.000    2.250    0.000    0.000 
#    0.000    0.000    0.000    0.000    0.000    0.000 
#
# Total GULP energy -356285.744282 kJ/mol
# GULP energy per Si atom -5566.964754 kJ/mol
# Density = 1.817239 g / cm^3
# Si number density = 18.213847 Si / 1000 Ang^3
#
#
#
# Elastic Constant Matrix: (Units=GPa)
#
#
# Indices 1 2 3 4 5 6 
#
# 1 80.8636 30.4479 60.0898 0.0000 0.0000 0.0000
# 2 30.4479 80.8636 60.0898 0.0000 0.0000 0.0000
# 3 60.0898 60.0898 171.1442 0.0000 0.0000 0.0000
# 4 0.0000 0.0000 0.0000 29.3745 0.0000 0.0000
# 5 0.0000 0.0000 0.0000 0.0000 29.3745 0.0000
# 6 0.0000 0.0000 0.0000 0.0000 0.0000 -6.4528
#
#
#
# Elastic Compliance Matrix: (Units=1/GPa)
#
#
# Indices 1 2 3 4 5 6 
#
# 1 0.017152 -0.002683 -0.005080 0.000000 0.000000 0.000000
# 2 -0.002683 0.017152 -0.005080 0.000000 0.000000 0.000000
# 3 -0.005080 -0.005080 0.009410 0.000000 0.000000 0.000000
# 4 0.000000 0.000000 0.000000 0.034043 0.000000 0.000000
# 5 0.000000 0.000000 0.000000 0.000000 0.034043 0.000000
# 6 0.000000 0.000000 0.000000 0.000000 0.000000 -0.154971
#
#
# Mechanical properties :
#
#
# Convention : Reuss Voigt Hill
#
# Bulk Modulus (GPa) = 55.47135 70.45848 62.96491
# Shear Modulus (GPa) = -435.70208 22.60884 -206.54662
#
# Velocity S-wave (km/s) = -15.48335 3.52703 -10.66054
# Velocity P-wave (km/s) = 17.00364 7.44007 10.81132
#
# Compressibility (1/GPa) = 0.01802732
#
# Stress axis : x y z
#
# Youngs Moduli (GPa) = 58.30302 58.30302 106.26720
#
# Poissons Ratio (x) = 0.15644 0.53983
# Poissons Ratio (y) = 0.15644 0.53983
# Poissons Ratio (z) = 0.29618 0.29618
#
# Static dielectric constant tensor:
#      x y z
#    x 1.639480 0.000000 0.000000 
#    y 0.000000 1.639480 0.000000 
#    z 0.000000 0.000000 1.685830 
# 
# From -- ./inp_files/6464.got.cif
#   From: 2010.05.17/outbox.cif.g08.bks.cpg/sg140_4_cif.got.tgz:6464.got - 2010.06.21 00:45:31.
