data_PCOD9572395
_publ_section_title
;
Structure prediction by ZEFSAII (Michael W. Deem and Ramdas Pophale) SiO2 
 PCOD9572395
Probable space group: I 4/M C M
;
_chemical_formula_sum "Si O2"
_cell_formula_units_Z 96
_cell_length_a 14.640618
_cell_length_b 14.640618
_cell_length_c 23.756841
_cell_angle_alpha 90.000000
_cell_angle_beta 90.000000
_cell_angle_gamma 90.000000
_cell_volume 5092.224119
_symmetry_space_group_name_H-M "I 4/M C M"
_symmetry_group_IT_number 140
_symmetry_cell_setting 'tetragonal'
loop_
_space_group_symop_operation_xyz
x,y,z
-y,x,z
-x,-y,z
y,-x,z
x,-y,1/2-z
-x,y,1/2-z
y,x,1/2-z
-y,-x,1/2-z
-x,-y,-z
y,-x,-z
x,y,-z
-y,x,-z
-x,y,1/2+z
x,-y,1/2+z
-y,-x,1/2+z
y,x,1/2+z
1/2+x,1/2+y,1/2+z
1/2-y,1/2+x,1/2+z
1/2-x,1/2-y,1/2+z
1/2+y,1/2-x,1/2+z
1/2+x,1/2-y,-z
1/2-x,1/2+y,-z
1/2+y,1/2+x,-z
1/2-y,1/2-x,-z
1/2-x,1/2-y,1/2-z
1/2+y,1/2-x,1/2-z
1/2+x,1/2+y,1/2-z
1/2-y,1/2+x,1/2-z
1/2-x,1/2+y,z
1/2+x,1/2-y,z
1/2-y,1/2-x,z
1/2+y,1/2+x,z
loop_
_atom_site_type_symbol
_atom_site_label
_atom_site_fract_x
_atom_site_fract_y
_atom_site_fract_z
Si Si1 0.494407 0.849121 0.500000
Si Si2 0.243370 0.100592 0.723089
Si Si3 0.253968 0.600221 0.407614
Si Si4 0.889949 0.895586 0.500000
O O1 0.569225 0.930776 0.500000
O O2 0.518059 0.791431 0.443916
O O3 0.395743 0.895743 0.500000
O O4 0.160899 0.160899 0.750000
O O5 0.334386 0.165615 0.728149
O O6 0.224013 0.082653 0.656998
O O7 0.254608 0.000000 0.750000
O O8 0.178837 0.678837 0.408152
O O9 0.339008 0.635836 0.444027
O O10 0.995529 0.878882 0.500000
#
# Coordination Sequence:
#
# PCOD9572395 Si02
#       4
#    16  32  32  16
#     4   8  14  28  52  81 111 144 183 230 290 355
#     4  10  23  41  62  90 123 163 213 260 308 374
#     4   9  19  37  57  80 115 150 187 241 296 353
#     4  10  21  34  54  83 112 145 188 235 284 350
#
# _framework density 18.852273
#
# number of rings (size 3 to 8) (size 9 to 14) (size 15 to 20)
#    0.000    2.667    0.000    1.500    4.667    2.000 
#    0.000   10.000    0.000    0.000    0.000    0.000 
#    0.000    0.000    0.000    0.000    0.000    0.000 
#
# Total GULP energy -267348.380419 kJ/mol
# GULP energy per Si atom -5569.757925 kJ/mol
# Density = 1.880936 g / cm^3
# Si number density = 18.852273 Si / 1000 Ang^3
#
#
#
# Elastic Constant Matrix: (Units=GPa)
#
#
# Indices 1 2 3 4 5 6 
#
# 1 87.2727 21.4385 52.6426 0.0000 0.0000 0.0000
# 2 21.4385 87.2726 52.6424 0.0000 0.0000 0.0000
# 3 52.6426 52.6424 182.7867 0.0000 0.0000 0.0000
# 4 0.0000 0.0000 0.0000 4.2910 0.0000 0.0000
# 5 0.0000 0.0000 0.0000 0.0000 4.2916 0.0000
# 6 0.0000 0.0000 0.0000 0.0000 0.0000 2.7190
#
#
#
# Elastic Compliance Matrix: (Units=1/GPa)
#
#
# Indices 1 2 3 4 5 6 
#
# 1 0.013973 -0.001216 -0.003674 0.000000 0.000000 0.000000
# 2 -0.001216 0.013973 -0.003674 0.000000 0.000000 0.000000
# 3 -0.003674 -0.003674 0.007587 0.000000 0.000000 0.000000
# 4 0.000000 0.000000 0.000000 0.233048 0.000000 0.000000
# 5 0.000000 0.000000 0.000000 0.000000 0.233011 0.000000
# 6 0.000000 0.000000 0.000000 0.000000 0.000000 0.367781
#
#
# Mechanical properties :
#
#
# Convention : Reuss Voigt Hill
#
# Bulk Modulus (GPa) = 54.33331 67.86433 61.09882
# Shear Modulus (GPa) = 5.60138 17.63422 11.61780
#
# Velocity S-wave (km/s) = 1.72559 3.06173 2.48514
# Velocity P-wave (km/s) = 5.73178 6.96958 6.38077
#
# Compressibility (1/GPa) = 0.01840492
#
# Stress axis : x y z
#
# Youngs Moduli (GPa) = 71.56511 71.56515 131.80329
#
# Poissons Ratio (x) = 0.08705 0.48424
# Poissons Ratio (y) = 0.08705 0.48424
# Poissons Ratio (z) = 0.26293 0.26293
#
# Static dielectric constant tensor:
#      x y z
#    x 1.670370 0.000000 0.000000 
#    y 0.000000 1.670370 0.000000 
#    z 0.000000 0.000000 7.045800 
# 
# From -- ./inp_files/7728.got.cif
#   From: 2010.05.17/outbox.cif.g08.bks.cpg/sg140_4_cif.got.tgz:7728.got - 2010.06.21 00:45:31.
