data_PCOD9572990
_publ_section_title
;
Structure prediction by ZEFSAII (Michael W. Deem and Ramdas Pophale) SiO2 
 PCOD9572990
Probable space group: I 41/A M D
;
_chemical_formula_sum "Si O2"
_cell_formula_units_Z 192
_cell_length_a 17.731868
_cell_length_b 17.731868
_cell_length_c 31.488700
_cell_angle_alpha 90.000000
_cell_angle_beta 90.000000
_cell_angle_gamma 90.000000
_cell_volume 9900.650061
_symmetry_space_group_name_H-M "I 41/A M D"
_symmetry_group_IT_number 141
_space_group.IT_coordinate_system_code '2'
_symmetry_cell_setting 'tetragonal'
loop_
_space_group_symop_operation_xyz
x,y,z
1/4-y,3/4+x,1/4+z
-x,1/2-y,z
1/4+y,1/4-x,3/4+z
x,-y,-z
-x,1/2+y,-z
1/4+y,3/4+x,1/4-z
1/4-y,1/4-x,3/4-z
-x,-y,-z
3/4+y,1/4-x,3/4-z
x,1/2+y,-z
3/4-y,3/4+x,1/4-z
-x,y,z
x,1/2-y,z
3/4-y,1/4-x,3/4+z
3/4+y,3/4+x,1/4+z
1/2+x,1/2+y,1/2+z
3/4-y,1/4+x,3/4+z
1/2-x,-y,1/2+z
3/4+y,3/4-x,1/4+z
1/2+x,1/2-y,1/2-z
1/2-x,y,1/2-z
3/4+y,1/4+x,3/4-z
3/4-y,3/4-x,1/4-z
1/2-x,1/2-y,1/2-z
1/4+y,3/4-x,1/4-z
1/2+x,y,1/2-z
1/4-y,1/4+x,3/4-z
1/2-x,1/2+y,1/2+z
1/2+x,-y,1/2+z
1/4-y,3/4-x,1/4+z
1/4+y,1/4+x,3/4+z
loop_
_atom_site_type_symbol
_atom_site_label
_atom_site_fract_x
_atom_site_fract_y
_atom_site_fract_z
Si Si1 0.912295 0.084124 0.780684
Si Si2 0.085609 0.048169 0.612231
Si Si3 0.185669 0.665741 0.714720
Si Si4 0.768115 0.659755 0.544902
Si Si5 0.141110 0.007098 0.138272
Si Si6 0.000000 0.884656 0.007037
Si Si7 0.500000 0.020546 0.426295
O O1 0.904763 0.172281 0.770421
O O2 0.000000 0.066370 0.782840
O O3 0.878840 0.038229 0.741027
O O4 0.880154 0.050789 0.824179
O O5 0.155704 0.099680 0.597988
O O6 0.000000 0.081175 0.612613
O O7 0.083407 0.978454 0.580150
O O8 0.104894 0.018149 0.659156
O O9 0.154544 0.750000 0.722914
O O10 0.250000 0.651603 0.750000
O O11 0.126194 0.599213 0.712789
O O12 0.774071 0.750000 0.541916
O O13 0.074766 0.009906 0.102749
O O14 0.222282 0.972282 0.125000
O O15 0.000000 0.956924 0.037793
O O16 0.000000 0.904977 0.956604
#
# Coordination Sequence:
#
# PCOD9572990 Si02
#       7
#    32  32  32  32  32  16  16
#     4  11  23  40  63  89 125 164 213 260 319 384
#     4  10  22  39  59  86 121 157 208 259 314 386
#     4  10  20  36  58  85 117 154 202 257 311 379
#     4  10  21  37  57  87 119 157 203 256 312 384
#     4  12  22  39  64  91 125 167 209 266 327 383
#     4  11  23  42  60  90 127 166 209 270 320 376
#     4  11  24  40  60  92 132 159 214 271 313 387
#
# _framework density 19.392665999999998
#
# number of rings (size 3 to 8) (size 9 to 14) (size 15 to 20)
#    0.000    1.333    2.500    3.750    0.000    0.333 
#    3.000    1.250    0.000    4.000    0.000    0.000 
#    0.000    0.000    0.000    0.000    0.000    0.000 
#
# Total GULP energy -535291.155140 kJ/mol
# GULP energy per Si atom -5575.949533 kJ/mol
# Density = 1.934853 g / cm^3
# Si number density = 19.392666 Si / 1000 Ang^3
#
#
#
# Elastic Constant Matrix: (Units=GPa)
#
#
# Indices 1 2 3 4 5 6 
#
# 1 72.8942 11.1385 16.0055 0.0000 0.0000 0.0000
# 2 11.1385 72.8942 16.0055 0.0000 0.0000 0.0000
# 3 16.0055 16.0055 84.0208 0.0000 0.0000 0.0000
# 4 0.0000 0.0000 0.0000 -34.3920 0.0000 0.0000
# 5 0.0000 0.0000 0.0000 0.0000 -34.3920 0.0000
# 6 0.0000 0.0000 0.0000 0.0000 0.0000 10.8334
#
#
#
# Elastic Compliance Matrix: (Units=1/GPa)
#
#
# Indices 1 2 3 4 5 6 
#
# 1 0.014512 -0.001681 -0.002444 0.000000 0.000000 0.000000
# 2 -0.001681 0.014512 -0.002444 0.000000 0.000000 0.000000
# 3 -0.002444 -0.002444 0.012833 0.000000 0.000000 0.000000
# 4 0.000000 0.000000 0.000000 -0.029077 0.000000 0.000000
# 5 0.000000 0.000000 0.000000 0.000000 -0.029077 0.000000
# 6 0.000000 0.000000 0.000000 0.000000 0.000000 0.092307
#
#
# Mechanical properties :
#
#
# Convention : Reuss Voigt Hill
#
# Bulk Modulus (GPa) = 34.82087 35.12315 34.97201
# Shear Modulus (GPa) = 50.64705 0.85387 25.75046
#
# Velocity S-wave (km/s) = 5.11598 0.66427 3.64791
# Velocity P-wave (km/s) = 7.27272 4.32888 5.98463
#
# Compressibility (1/GPa) = 0.02871841
#
# Stress axis : x y z
#
# Youngs Moduli (GPa) = 68.90832 68.90832 77.92376
#
# Poissons Ratio (x) = 0.11582 0.19047
# Poissons Ratio (y) = 0.11582 0.19047
# Poissons Ratio (z) = 0.16843 0.16843
#
# Static dielectric constant tensor:
#      x y z
#    x 1.836630 0.000000 0.000000 
#    y 0.000000 1.836630 0.000000 
#    z 0.000000 0.000000 1.729350 
# 
# From -- ./inp_files/14481.got.cif
#   From: 2010.05.17/outbox.cif.g08.bks.cpg/sg141_8_cif.got.tgz:14481.got - 2010.05.20 13:30:51.
