data_PCOD9572586
_publ_section_title
;
Structure prediction by ZEFSAII (Michael W. Deem and Ramdas Pophale) SiO2 
 PCOD9572586
Probable space group: I 4/M C M
;
_chemical_formula_sum "Si O2"
_cell_formula_units_Z 176
_cell_length_a 24.026418
_cell_length_b 24.026418
_cell_length_c 13.820251
_cell_angle_alpha 90.000000
_cell_angle_beta 90.000000
_cell_angle_gamma 90.000000
_cell_volume 7977.999184
_symmetry_space_group_name_H-M "I 4/M C M"
_symmetry_group_IT_number 140
_symmetry_cell_setting 'tetragonal'
loop_
_space_group_symop_operation_xyz
x,y,z
-y,x,z
-x,-y,z
y,-x,z
x,-y,1/2-z
-x,y,1/2-z
y,x,1/2-z
-y,-x,1/2-z
-x,-y,-z
y,-x,-z
x,y,-z
-y,x,-z
-x,y,1/2+z
x,-y,1/2+z
-y,-x,1/2+z
y,x,1/2+z
1/2+x,1/2+y,1/2+z
1/2-y,1/2+x,1/2+z
1/2-x,1/2-y,1/2+z
1/2+y,1/2-x,1/2+z
1/2+x,1/2-y,-z
1/2-x,1/2+y,-z
1/2+y,1/2+x,-z
1/2-y,1/2-x,-z
1/2-x,1/2-y,1/2-z
1/2+y,1/2-x,1/2-z
1/2+x,1/2+y,1/2-z
1/2-y,1/2+x,1/2-z
1/2-x,1/2+y,z
1/2+x,1/2-y,z
1/2-y,1/2-x,z
1/2+y,1/2+x,z
loop_
_atom_site_type_symbol
_atom_site_label
_atom_site_fract_x
_atom_site_fract_y
_atom_site_fract_z
Si Si1 0.564911 0.435089 0.750000
Si Si2 0.158190 0.059209 0.609894
Si Si3 0.564582 0.064582 0.888055
Si Si4 0.727637 0.359894 0.722800
Si Si5 0.453387 0.737324 0.617174
Si Si6 0.131803 0.456444 0.617508
Si Si7 0.341319 0.841319 0.115601
O O1 0.574915 0.500000 0.750000
O O2 0.579445 0.399004 0.841323
O O3 0.145794 0.048772 0.500000
O O4 0.195651 0.111541 0.634243
O O5 0.195161 0.004768 0.640265
O O6 0.508105 0.093026 0.851349
O O7 0.611722 0.111722 0.885012
O O8 0.551617 0.051617 0.000000
O O9 0.698511 0.301490 0.750000
O O10 0.722223 0.400763 0.815674
O O11 0.788696 0.359476 0.678916
O O12 0.443771 0.734186 0.500000
O O13 0.464702 0.802874 0.641768
O O14 0.131654 0.455732 0.500000
O O15 0.100780 0.399221 0.649426
O O16 0.329455 0.829455 0.000000
#
# Coordination Sequence:
#
# PCOD9572586 Si02
#       7
#    16  32  16  32  32  32  16
#     4  11  24  44  68 103 142 176 223 290 358 434
#     4  11  24  45  72 102 141 186 236 292 361 445
#     4   9  17  33  60  94 133 177 227 278 342 420
#     4  12  25  44  67  97 132 179 239 302 363 430
#     4  10  23  42  69 103 140 187 235 286 358 435
#     4   9  17  32  60 100 140 180 226 278 341 414
#     4  11  25  44  66  95 132 183 243 304 370 434
#
# _framework density 22.060669000000001
#
# number of rings (size 3 to 8) (size 9 to 14) (size 15 to 20)
#    0.000    1.545    0.909    3.818    1.273    6.182 
#    0.000    0.909    0.000    0.000    2.364    0.000 
#    0.000    0.000    0.000    0.000    0.000    0.000 
#
# Total GULP energy -490694.363055 kJ/mol
# GULP energy per Si atom -5576.072307 kJ/mol
# Density = 2.201046 g / cm^3
# Si number density = 22.060669 Si / 1000 Ang^3
#
#
#
# Elastic Constant Matrix: (Units=GPa)
#
#
# Indices 1 2 3 4 5 6 
#
# 1 120.2182 7.5134 33.7918 0.0000 0.0000 0.0000
# 2 7.5134 120.2142 33.7871 0.0000 0.0000 0.0000
# 3 33.7918 33.7871 101.8205 0.0000 0.0000 0.0000
# 4 0.0000 0.0000 0.0000 1026.3744 0.0000 0.0000
# 5 0.0000 0.0000 0.0000 0.0000 1111.3015 0.0000
# 6 0.0000 0.0000 0.0000 0.0000 0.0000 22.2316
#
#
#
# Elastic Compliance Matrix: (Units=1/GPa)
#
#
# Indices 1 2 3 4 5 6 
#
# 1 0.009185 0.000312 -0.003152 0.000000 0.000000 0.000000
# 2 0.000312 0.009185 -0.003151 0.000000 0.000000 0.000000
# 3 -0.003152 -0.003151 0.011913 0.000000 0.000000 0.000000
# 4 0.000000 0.000000 0.000000 0.000974 0.000000 0.000000
# 5 0.000000 0.000000 0.000000 0.000000 0.000900 0.000000
# 6 0.000000 0.000000 0.000000 0.000000 0.000000 0.044981
#
#
# Mechanical properties :
#
#
# Convention : Reuss Voigt Hill
#
# Bulk Modulus (GPa) = 54.64495 54.71528 54.68011
# Shear Modulus (GPa) = 52.51034 449.79222 251.15128
#
# Velocity S-wave (km/s) = 4.88409 14.29445 10.68143
# Velocity P-wave (km/s) = 7.52528 17.24233 13.30278
#
# Compressibility (1/GPa) = 0.01829995
#
# Stress axis : x y z
#
# Youngs Moduli (GPa) = 108.87795 108.87707 83.94326
#
# Poissons Ratio (x) = -0.03394 0.26455
# Poissons Ratio (y) = -0.03394 0.26452
# Poissons Ratio (z) = 0.34314 0.34309
#
# Static dielectric constant tensor:
#      x y z
#    x 1.754390 0.000000 0.000000 
#    y 0.000000 1.754360 0.000000 
#    z 0.000000 0.000000 1.938710 
# 
# From -- ./inp_files/4979.got.cif
#   From: 2010.05.17/outbox.cif.g08.bks.cpg/sg140_3_cif.got.tgz:4979.got - 2010.06.21 00:45:31.
