data_PCOD9572602
_publ_section_title
;
Structure prediction by ZEFSAII (Michael W. Deem and Ramdas Pophale) SiO2 
 PCOD9572602
Probable space group: I 4/M C M
;
_chemical_formula_sum "Si O2"
_cell_formula_units_Z 96
_cell_length_a 14.373845
_cell_length_b 14.373845
_cell_length_c 20.634625
_cell_angle_alpha 90.000000
_cell_angle_beta 90.000000
_cell_angle_gamma 90.000000
_cell_volume 4263.266636
_symmetry_space_group_name_H-M "I 4/M C M"
_symmetry_group_IT_number 140
_symmetry_cell_setting 'tetragonal'
loop_
_space_group_symop_operation_xyz
x,y,z
-y,x,z
-x,-y,z
y,-x,z
x,-y,1/2-z
-x,y,1/2-z
y,x,1/2-z
-y,-x,1/2-z
-x,-y,-z
y,-x,-z
x,y,-z
-y,x,-z
-x,y,1/2+z
x,-y,1/2+z
-y,-x,1/2+z
y,x,1/2+z
1/2+x,1/2+y,1/2+z
1/2-y,1/2+x,1/2+z
1/2-x,1/2-y,1/2+z
1/2+y,1/2-x,1/2+z
1/2+x,1/2-y,-z
1/2-x,1/2+y,-z
1/2+y,1/2+x,-z
1/2-y,1/2-x,-z
1/2-x,1/2-y,1/2-z
1/2+y,1/2-x,1/2-z
1/2+x,1/2+y,1/2-z
1/2-y,1/2+x,1/2-z
1/2-x,1/2+y,z
1/2+x,1/2-y,z
1/2-y,1/2-x,z
1/2+y,1/2+x,z
loop_
_atom_site_type_symbol
_atom_site_label
_atom_site_fract_x
_atom_site_fract_y
_atom_site_fract_z
Si Si1 0.891823 0.608178 0.726860
Si Si2 0.888973 0.388973 0.433390
Si Si3 0.108741 0.391260 0.571562
Si Si4 0.108200 0.102207 0.828447
Si Si5 0.280322 0.219679 0.671750
O O1 0.872847 0.500000 0.750000
O O2 0.878547 0.621454 0.649814
O O3 0.818434 0.681567 0.758464
O O4 0.848879 0.348879 0.500000
O O5 0.873414 0.498685 0.432900
O O6 0.845137 0.345137 0.371889
O O7 0.146516 0.353485 0.500000
O O8 0.103530 0.103530 0.750000
O O9 0.183895 0.178017 0.846319
O O10 0.003272 0.128087 0.849858
#
# Coordination Sequence:
#
# PCOD9572602 Si02
#       5
#    16  16  16  32  16
#     4  11  19  29  44  87 128 148 195 277 310 351
#     4   9  17  30  49  79 117 158 202 242 309 391
#     4   9  16  29  43  67 121 179 198 236 338 393
#     4   9  21  40  57  84 125 164 200 246 312 385
#     4  12  21  33  63  90 114 157 208 264 308 355
#
# _framework density 22.517942000000001
#
# number of rings (size 3 to 8) (size 9 to 14) (size 15 to 20)
#    0.000    2.167    3.333    3.500    4.667    0.000 
#    0.000    3.333    0.000    2.000    0.000    7.000 
#    0.000    5.333    0.000    3.667    0.000    0.000 
#
# Total GULP energy -267475.883167 kJ/mol
# GULP energy per Si atom -5572.414233 kJ/mol
# Density = 2.246669 g / cm^3
# Si number density = 22.517942 Si / 1000 Ang^3
#
#
#
# Elastic Constant Matrix: (Units=GPa)
#
#
# Indices 1 2 3 4 5 6 
#
# 1 123.5420 87.7264 7.8041 0.0000 0.0000 0.0000
# 2 87.7264 123.5424 7.8043 0.0000 0.0000 0.0000
# 3 7.8041 7.8043 120.4891 0.0000 0.0000 0.0000
# 4 0.0000 0.0000 0.0000 -16.2347 0.0000 0.0000
# 5 0.0000 0.0000 0.0000 0.0000 -16.2348 0.0000
# 6 0.0000 0.0000 0.0000 0.0000 0.0000 27.5055
#
#
#
# Elastic Compliance Matrix: (Units=1/GPa)
#
#
# Indices 1 2 3 4 5 6 
#
# 1 0.016338 -0.011582 -0.000308 0.000000 0.000000 0.000000
# 2 -0.011582 0.016338 -0.000308 0.000000 0.000000 0.000000
# 3 -0.000308 -0.000308 0.008339 0.000000 0.000000 0.000000
# 4 0.000000 0.000000 0.000000 -0.061596 0.000000 0.000000
# 5 0.000000 0.000000 0.000000 0.000000 -0.061596 0.000000
# 6 0.000000 0.000000 0.000000 0.000000 0.000000 0.036356
#
#
# Mechanical properties :
#
#
# Convention : Reuss Voigt Hill
#
# Bulk Modulus (GPa) = 60.17090 63.80480 61.98785
# Shear Modulus (GPa) = -314.79271 16.62311 -149.08480
#
# Velocity S-wave (km/s) = -11.83638 2.71996 -8.14560
# Velocity P-wave (km/s) = 12.64992 6.18554 7.80255
#
# Compressibility (1/GPa) = 0.01661933
#
# Stress axis : x y z
#
# Youngs Moduli (GPa) = 61.20556 61.20574 119.91254
#
# Poissons Ratio (x) = 0.70890 0.03694
# Poissons Ratio (y) = 0.70890 0.03694
# Poissons Ratio (z) = 0.01885 0.01886
#
# Static dielectric constant tensor:
#      x y z
#    x 1.851500 0.000000 0.000000 
#    y 0.000000 1.851500 0.000000 
#    z 0.000000 0.000000 1.947990 
# 
# From -- ./inp_files/7735.got.cif
#   From: 2010.05.17/outbox.cif.g08.bks.cpg/sg140_4_cif.got.tgz:7735.got - 2010.06.21 00:45:31.
