data_PCOD9572226
_publ_section_title
;
Structure prediction by ZEFSAII (Michael W. Deem and Ramdas Pophale) SiO2 
 PCOD9572226
Probable space group: I 4/M C M
;
_chemical_formula_sum "Si O2"
_cell_formula_units_Z 128
_cell_length_a 19.658208
_cell_length_b 19.658208
_cell_length_c 17.788422
_cell_angle_alpha 90.000000
_cell_angle_beta 90.000000
_cell_angle_gamma 90.000000
_cell_volume 6874.249262
_symmetry_space_group_name_H-M "I 4/M C M"
_symmetry_group_IT_number 140
_symmetry_cell_setting 'tetragonal'
loop_
_space_group_symop_operation_xyz
x,y,z
-y,x,z
-x,-y,z
y,-x,z
x,-y,1/2-z
-x,y,1/2-z
y,x,1/2-z
-y,-x,1/2-z
-x,-y,-z
y,-x,-z
x,y,-z
-y,x,-z
-x,y,1/2+z
x,-y,1/2+z
-y,-x,1/2+z
y,x,1/2+z
1/2+x,1/2+y,1/2+z
1/2-y,1/2+x,1/2+z
1/2-x,1/2-y,1/2+z
1/2+y,1/2-x,1/2+z
1/2+x,1/2-y,-z
1/2-x,1/2+y,-z
1/2+y,1/2+x,-z
1/2-y,1/2-x,-z
1/2-x,1/2-y,1/2-z
1/2+y,1/2-x,1/2-z
1/2+x,1/2+y,1/2-z
1/2-y,1/2+x,1/2-z
1/2-x,1/2+y,z
1/2+x,1/2-y,z
1/2-y,1/2-x,z
1/2+y,1/2+x,z
loop_
_atom_site_type_symbol
_atom_site_label
_atom_site_fract_x
_atom_site_fract_y
_atom_site_fract_z
Si Si1 0.577119 0.810769 0.722992
Si Si2 0.357774 0.741964 0.914438
Si Si3 0.888000 0.978303 0.914319
Si Si4 0.184654 0.885247 0.317071
O O1 0.500000 0.819325 0.750000
O O2 0.619357 0.880644 0.720646
O O3 0.586514 0.773608 0.642129
O O4 0.613868 0.758917 0.780939
O O5 0.297046 0.797046 0.915030
O O6 0.327734 0.672884 0.879123
O O7 0.381516 0.731297 0.000000
O O8 0.832785 0.957516 0.853777
O O9 0.948937 0.923302 0.904945
O O10 0.863281 0.973270 0.000000
O O11 0.132885 0.867116 0.250000
#
# Coordination Sequence:
#
# PCOD9572226 Si02
#       4
#    32  32  32  32
#     4  10  22  39  59  85 114 147 193 244 293 348
#     4   9  18  35  58  82 110 144 181 227 288 348
#     4   9  19  33  47  70 109 152 188 222 264 324
#     4  10  20  31  53  79 109 140 182 232 280 331
#
# _framework density 18.620215000000002
#
# number of rings (size 3 to 8) (size 9 to 14) (size 15 to 20)
#    0.000    2.500    0.000    2.250    7.000    3.250 
#    0.000    2.500    0.000    3.750    0.000    3.500 
#    0.000    0.000    0.000    0.000    0.000    0.000 
#
# Total GULP energy -357312.172867 kJ/mol
# GULP energy per Si atom -5583.002701 kJ/mol
# Density = 1.857783 g / cm^3
# Si number density = 18.620215 Si / 1000 Ang^3
#
#
#
# Elastic Constant Matrix: (Units=GPa)
#
#
# Indices 1 2 3 4 5 6 
#
# 1 77.7706 26.8528 47.5588 0.0000 0.0000 0.0000
# 2 26.8528 77.7701 47.5595 0.0000 0.0000 0.0000
# 3 47.5588 47.5595 124.8918 0.0000 0.0000 0.0000
# 4 0.0000 0.0000 0.0000 21.7059 0.0000 0.0000
# 5 0.0000 0.0000 0.0000 0.0000 21.7053 0.0000
# 6 0.0000 0.0000 0.0000 0.0000 0.0000 22.8631
#
#
#
# Elastic Compliance Matrix: (Units=1/GPa)
#
#
# Indices 1 2 3 4 5 6 
#
# 1 0.017129 -0.002510 -0.005567 0.000000 0.000000 0.000000
# 2 -0.002510 0.017130 -0.005567 0.000000 0.000000 0.000000
# 3 -0.005567 -0.005567 0.012247 0.000000 0.000000 0.000000
# 4 0.000000 0.000000 0.000000 0.046070 0.000000 0.000000
# 5 0.000000 0.000000 0.000000 0.000000 0.046072 0.000000
# 6 0.000000 0.000000 0.000000 0.000000 0.000000 0.043739
#
#
# Mechanical properties :
#
#
# Convention : Reuss Voigt Hill
#
# Bulk Modulus (GPa) = 52.03642 58.26385 55.15013
# Shear Modulus (GPa) = 23.13946 23.81896 23.47921
#
# Velocity S-wave (km/s) = 3.52903 3.58047 3.55484
# Velocity P-wave (km/s) = 6.67924 6.96072 6.82143
#
# Compressibility (1/GPa) = 0.01921731
#
# Stress axis : x y z
#
# Youngs Moduli (GPa) = 58.37917 58.37822 81.65334
#
# Poissons Ratio (x) = 0.14653 0.45457
# Poissons Ratio (y) = 0.14653 0.45458
# Poissons Ratio (z) = 0.32500 0.32501
#
# Static dielectric constant tensor:
#      x y z
#    x 1.643320 0.000000 0.000000 
#    y 0.000000 1.643320 0.000000 
#    z 0.000000 0.000000 1.657020 
# 
# From -- ./inp_files/6453.got.cif
#   From: 2010.05.17/outbox.cif.g08.bks.cpg/sg140_4_cif.got.tgz:6453.got - 2010.06.21 00:45:31.
