data_PCOD9572217
_publ_section_title
;
Structure prediction by ZEFSAII (Michael W. Deem and Ramdas Pophale) SiO2 
 PCOD9572217
Probable space group: I 4/M C M
;
_chemical_formula_sum "Si O2"
_cell_formula_units_Z 160
_cell_length_a 18.062869
_cell_length_b 18.062869
_cell_length_c 26.441136
_cell_angle_alpha 90.000000
_cell_angle_beta 90.000000
_cell_angle_gamma 90.000000
_cell_volume 8626.876373
_symmetry_space_group_name_H-M "I 4/M C M"
_symmetry_group_IT_number 140
_symmetry_cell_setting 'tetragonal'
loop_
_space_group_symop_operation_xyz
x,y,z
-y,x,z
-x,-y,z
y,-x,z
x,-y,1/2-z
-x,y,1/2-z
y,x,1/2-z
-y,-x,1/2-z
-x,-y,-z
y,-x,-z
x,y,-z
-y,x,-z
-x,y,1/2+z
x,-y,1/2+z
-y,-x,1/2+z
y,x,1/2+z
1/2+x,1/2+y,1/2+z
1/2-y,1/2+x,1/2+z
1/2-x,1/2-y,1/2+z
1/2+y,1/2-x,1/2+z
1/2+x,1/2-y,-z
1/2-x,1/2+y,-z
1/2+y,1/2+x,-z
1/2-y,1/2-x,-z
1/2-x,1/2-y,1/2-z
1/2+y,1/2-x,1/2-z
1/2+x,1/2+y,1/2-z
1/2-y,1/2+x,1/2-z
1/2-x,1/2+y,z
1/2+x,1/2-y,z
1/2-y,1/2-x,z
1/2+y,1/2+x,z
loop_
_atom_site_type_symbol
_atom_site_label
_atom_site_fract_x
_atom_site_fract_y
_atom_site_fract_z
Si Si1 0.252267 0.488899 0.418146
Si Si2 0.500609 0.123962 0.000000
Si Si3 0.418073 0.588203 0.310856
Si Si4 0.377835 0.526838 0.000000
Si Si5 0.148020 0.231848 0.359091
Si Si6 0.851101 0.765925 0.059685
O O1 0.179291 0.492494 0.452888
O O2 0.323777 0.465436 0.451886
O O3 0.238304 0.433513 0.372317
O O4 0.268875 0.574507 0.408267
O O5 0.434620 0.065381 0.000000
O O6 0.576241 0.076241 0.000000
O O7 0.398598 0.503999 0.327888
O O8 0.415598 0.584403 0.250000
O O9 0.367107 0.656526 0.328055
O O10 0.416257 0.445924 0.000000
O O11 0.206775 0.293226 0.339294
O O12 0.180073 0.206439 0.413571
O O13 0.814593 0.685408 0.062803
O O14 0.863280 0.780617 0.000000
#
# Coordination Sequence:
#
# PCOD9572217 Si02
#       6
#    32  16  32  16  32  32
#     4  11  20  31  49  64  96 136 181 220 262 308
#     4  10  20  32  46  64  88 130 188 234 262 292
#     4   9  19  39  65  87 108 137 173 215 270 338
#     4  10  20  30  42  64  92 128 174 221 264 302
#     4  11  23  34  50  80 112 140 175 220 274 328
#     4  10  20  33  48  68 100 144 185 221 267 318
#
# _framework density 18.546689000000001
#
# number of rings (size 3 to 8) (size 9 to 14) (size 15 to 20)
#    0.000    1.800    2.000    4.200    2.800    0.400 
#    0.000    2.000    0.000    0.000    0.000    0.000 
#    0.000    0.000    0.000   10.800    0.000    0.000 
#
# Total GULP energy -445831.057846 kJ/mol
# GULP energy per Si atom -5572.888223 kJ/mol
# Density = 1.850448 g / cm^3
# Si number density = 18.546689 Si / 1000 Ang^3
#
#
#
# Elastic Constant Matrix: (Units=GPa)
#
#
# Indices 1 2 3 4 5 6 
#
# 1 106.0357 39.3405 23.8690 0.0000 0.0000 0.0000
# 2 39.3405 106.0349 23.8689 0.0000 0.0000 0.0000
# 3 23.8690 23.8689 28.6940 0.0000 0.0000 0.0000
# 4 0.0000 0.0000 0.0000 13.3594 0.0000 0.0000
# 5 0.0000 0.0000 0.0000 0.0000 13.3641 0.0000
# 6 0.0000 0.0000 0.0000 0.0000 0.0000 46.3046
#
#
#
# Elastic Compliance Matrix: (Units=1/GPa)
#
#
# Indices 1 2 3 4 5 6 
#
# 1 0.012229 -0.002765 -0.007872 0.000000 0.000000 0.000000
# 2 -0.002765 0.012229 -0.007872 0.000000 0.000000 0.000000
# 3 -0.007872 -0.007872 0.047948 0.000000 0.000000 0.000000
# 4 0.000000 0.000000 0.000000 0.074854 0.000000 0.000000
# 5 0.000000 0.000000 0.000000 0.000000 0.074827 0.000000
# 6 0.000000 0.000000 0.000000 0.000000 0.000000 0.021596
#
#
# Mechanical properties :
#
#
# Convention : Reuss Voigt Hill
#
# Bulk Modulus (GPa) = 28.26004 46.10239 37.18122
# Shear Modulus (GPa) = 17.09418 24.85137 20.97277
#
# Velocity S-wave (km/s) = 3.03922 3.66448 3.36640
# Velocity P-wave (km/s) = 5.25225 6.54340 5.93305
#
# Compressibility (1/GPa) = 0.03538565
#
# Stress axis : x y z
#
# Youngs Moduli (GPa) = 81.77469 81.77423 20.85605
#
# Poissons Ratio (x) = 0.22610 0.16419
# Poissons Ratio (y) = 0.22610 0.16419
# Poissons Ratio (z) = 0.64377 0.64376
#
# Static dielectric constant tensor:
#      x y z
#    x 1.698170 0.000000 0.000000 
#    y 0.000000 1.698170 0.000000 
#    z 0.000000 0.000000 1.635240 
# 
# From -- ./inp_files/10584.got.cif
#   From: 2010.05.17/outbox.cif.g08.bks.cpg/sg140_6_cif.got.tgz:10584.got - 2010.06.21 00:45:31.
