data_PCOD9572776
_publ_section_title
;
Structure prediction by ZEFSAII (Michael W. Deem and Ramdas Pophale) SiO2 
 PCOD9572776
Probable space group: I 41/A M D
;
_chemical_formula_sum "Si O2"
_cell_formula_units_Z 112
_cell_length_a 14.823850
_cell_length_b 14.823850
_cell_length_c 28.538409
_cell_angle_alpha 90.000000
_cell_angle_beta 90.000000
_cell_angle_gamma 90.000000
_cell_volume 6271.216316
_symmetry_space_group_name_H-M "I 41/A M D"
_symmetry_group_IT_number 141
_space_group.IT_coordinate_system_code '2'
_symmetry_cell_setting 'tetragonal'
loop_
_space_group_symop_operation_xyz
x,y,z
1/4-y,3/4+x,1/4+z
-x,1/2-y,z
1/4+y,1/4-x,3/4+z
x,-y,-z
-x,1/2+y,-z
1/4+y,3/4+x,1/4-z
1/4-y,1/4-x,3/4-z
-x,-y,-z
3/4+y,1/4-x,3/4-z
x,1/2+y,-z
3/4-y,3/4+x,1/4-z
-x,y,z
x,1/2-y,z
3/4-y,1/4-x,3/4+z
3/4+y,3/4+x,1/4+z
1/2+x,1/2+y,1/2+z
3/4-y,1/4+x,3/4+z
1/2-x,-y,1/2+z
3/4+y,3/4-x,1/4+z
1/2+x,1/2-y,1/2-z
1/2-x,y,1/2-z
3/4+y,1/4+x,3/4-z
3/4-y,3/4-x,1/4-z
1/2-x,1/2-y,1/2-z
1/4+y,3/4-x,1/4-z
1/2+x,y,1/2-z
1/4-y,1/4+x,3/4-z
1/2-x,1/2+y,1/2+z
1/2+x,-y,1/2+z
1/4-y,3/4-x,1/4+z
1/4+y,1/4+x,3/4+z
loop_
_atom_site_type_symbol
_atom_site_label
_atom_site_fract_x
_atom_site_fract_y
_atom_site_fract_z
Si Si1 0.000000 0.651100 0.421923
Si Si2 0.290170 0.250000 0.196509
Si Si3 0.750171 0.999830 0.625000
Si Si4 0.206484 0.351271 0.549471
Si Si5 0.392470 0.560697 0.805989
O O1 0.903263 0.653339 0.447987
O O2 0.000000 0.750000 0.395543
O O3 0.000000 0.544135 0.410294
O O4 0.250000 0.250000 0.250000
O O5 0.349234 0.339454 0.190116
O O6 0.668572 0.993821 0.661621
O O7 0.751170 0.909638 0.593658
O O8 0.239979 0.250000 0.557744
O O9 0.225656 0.378384 0.496157
O O10 0.500000 0.565331 0.811214
#
# Coordination Sequence:
#
# PCOD9572776 Si02
#       5
#    16  16  16  32  32
#     4  10  18  31  52  71 102 152 194 217 256 317
#     4  12  17  31  50  71 107 152 191 213 256 317
#     4  12  22  34  59  83 108 142 190 226 262 328
#     4  10  21  38  55  76 106 148 184 226 273 324
#     4  11  23  34  50  77 117 149 179 221 273 321
#
# _framework density 17.859373999999999
#
# number of rings (size 3 to 8) (size 9 to 14) (size 15 to 20)
#    0.000    1.143    5.714    1.286    4.000    0.000 
#    0.000    0.000    0.000    3.857    0.000    4.000 
#    0.000    0.000    0.000    0.000    0.000    0.000 
#
# Total GULP energy -311966.009200 kJ/mol
# GULP energy per Si atom -5570.821593 kJ/mol
# Density = 1.781873 g / cm^3
# Si number density = 17.859374 Si / 1000 Ang^3
#
#
#
# Elastic Constant Matrix: (Units=GPa)
#
#
# Indices 1 2 3 4 5 6 
#
# 1 93.3755 26.4595 57.7466 0.0000 0.0000 0.0000
# 2 26.4595 93.3744 57.7466 0.0000 0.0000 0.0000
# 3 57.7466 57.7466 121.9110 0.0000 0.0000 0.0000
# 4 0.0000 0.0000 0.0000 21.9316 0.0000 0.0000
# 5 0.0000 0.0000 0.0000 0.0000 21.9319 0.0000
# 6 0.0000 0.0000 0.0000 0.0000 0.0000 11.1227
#
#
#
# Elastic Compliance Matrix: (Units=1/GPa)
#
#
# Indices 1 2 3 4 5 6 
#
# 1 0.015149 0.000205 -0.007273 0.000000 0.000000 0.000000
# 2 0.000205 0.015149 -0.007273 0.000000 0.000000 0.000000
# 3 -0.007273 -0.007273 0.015093 0.000000 0.000000 0.000000
# 4 0.000000 0.000000 0.000000 0.045596 0.000000 0.000000
# 5 0.000000 0.000000 0.000000 0.000000 0.045596 0.000000
# 6 0.000000 0.000000 0.000000 0.000000 0.000000 0.089907
#
#
# Mechanical properties :
#
#
# Convention : Reuss Voigt Hill
#
# Bulk Modulus (GPa) = 59.84620 65.84069 62.84344
# Shear Modulus (GPa) = 19.17605 22.11112 20.64359
#
# Velocity S-wave (km/s) = 3.28033 3.52244 3.40354
# Velocity P-wave (km/s) = 6.92314 7.31366 7.12108
#
# Compressibility (1/GPa) = 0.01670950
#
# Stress axis : x y z
#
# Youngs Moduli (GPa) = 66.01013 66.00907 66.25646
#
# Poissons Ratio (x) = -0.01354 0.48188
# Poissons Ratio (y) = -0.01354 0.48189
# Poissons Ratio (z) = 0.48009 0.48009
#
# Static dielectric constant tensor:
#      x y z
#    x 1.638030 0.000000 0.000000 
#    y 0.000000 1.638030 0.000000 
#    z 0.000000 0.000000 1.661610 
# 
# From -- ./inp_files/12521.got.cif
#   From: 2010.05.17/outbox.cif.g08.bks.cpg/sg141_7_cif.got.tgz:12521.got - 2010.05.20 13:30:51.
