data_PCOD9572242
_publ_section_title
;
Structure prediction by ZEFSAII (Michael W. Deem and Ramdas Pophale) SiO2 
 PCOD9572242
Probable space group: I 4/M C M
;
_chemical_formula_sum "Si O2"
_cell_formula_units_Z 80
_cell_length_a 20.980891
_cell_length_b 20.980891
_cell_length_c 9.156331
_cell_angle_alpha 90.000000
_cell_angle_beta 90.000000
_cell_angle_gamma 90.000000
_cell_volume 4030.596645
_symmetry_space_group_name_H-M "I 4/M C M"
_symmetry_group_IT_number 140
_symmetry_cell_setting 'tetragonal'
loop_
_space_group_symop_operation_xyz
x,y,z
-y,x,z
-x,-y,z
y,-x,z
x,-y,1/2-z
-x,y,1/2-z
y,x,1/2-z
-y,-x,1/2-z
-x,-y,-z
y,-x,-z
x,y,-z
-y,x,-z
-x,y,1/2+z
x,-y,1/2+z
-y,-x,1/2+z
y,x,1/2+z
1/2+x,1/2+y,1/2+z
1/2-y,1/2+x,1/2+z
1/2-x,1/2-y,1/2+z
1/2+y,1/2-x,1/2+z
1/2+x,1/2-y,-z
1/2-x,1/2+y,-z
1/2+y,1/2+x,-z
1/2-y,1/2-x,-z
1/2-x,1/2-y,1/2-z
1/2+y,1/2-x,1/2-z
1/2+x,1/2+y,1/2-z
1/2-y,1/2+x,1/2-z
1/2-x,1/2+y,z
1/2+x,1/2-y,z
1/2-y,1/2-x,z
1/2+y,1/2+x,z
loop_
_atom_site_type_symbol
_atom_site_label
_atom_site_fract_x
_atom_site_fract_y
_atom_site_fract_z
Si Si1 0.136925 0.940902 0.339761
Si Si2 0.437361 0.787274 0.333307
Si Si3 0.199227 0.300774 0.822081
O O1 0.122145 0.877856 0.250000
O O2 0.109017 0.935913 0.500000
O O3 0.212002 0.949798 0.350850
O O4 0.109936 0.000000 0.250000
O O5 0.500000 0.814169 0.250000
O O6 0.429461 0.812716 0.500000
O O7 0.372867 0.789826 0.237789
O O8 0.250000 0.250000 0.750000
O O9 0.203038 0.296962 0.000000
#
# Coordination Sequence:
#
# PCOD9572242 Si02
#       3
#    32  32  16
#     4  10  20  33  50  71  99 135 177 223 273 329
#     4  10  21  38  59  84 115 151 189 235 293 355
#     4  12  24  38  60  91 124 159 202 252 300 352
#
# _framework density 19.848178000000001
#
# number of rings (size 3 to 8) (size 9 to 14) (size 15 to 20)
#    0.000    1.600    0.000    5.400    0.000    8.400 
#    0.000    2.000    0.000    0.600    0.000    4.200 
#    0.000    0.000    0.000    0.000    0.000    0.000 
#
# Total GULP energy -222778.657517 kJ/mol
# GULP energy per Si atom -5569.466438 kJ/mol
# Density = 1.980300 g / cm^3
# Si number density = 19.848178 Si / 1000 Ang^3
#
#
#
# Elastic Constant Matrix: (Units=GPa)
#
#
# Indices 1 2 3 4 5 6 
#
# 1 80.0327 19.3376 56.6531 0.0000 0.0000 0.0000
# 2 19.3376 80.0383 56.6549 0.0000 0.0000 0.0000
# 3 56.6531 56.6549 220.3524 0.0000 0.0000 0.0000
# 4 0.0000 0.0000 0.0000 -86.3684 0.0000 0.0000
# 5 0.0000 0.0000 0.0000 0.0000 -86.2909 0.0000
# 6 0.0000 0.0000 0.0000 0.0000 0.0000 25.1614
#
#
#
# Elastic Compliance Matrix: (Units=1/GPa)
#
#
# Indices 1 2 3 4 5 6 
#
# 1 0.015356 -0.001119 -0.003660 0.000000 0.000000 0.000000
# 2 -0.001119 0.015355 -0.003660 0.000000 0.000000 0.000000
# 3 -0.003660 -0.003660 0.006420 0.000000 0.000000 0.000000
# 4 0.000000 0.000000 0.000000 -0.011578 0.000000 0.000000
# 5 0.000000 0.000000 0.000000 0.000000 -0.011589 0.000000
# 6 0.000000 0.000000 0.000000 0.000000 0.000000 0.039743
#
#
# Mechanical properties :
#
#
# Convention : Reuss Voigt Hill
#
# Bulk Modulus (GPa) = 49.37680 71.74606 60.56143
# Shear Modulus (GPa) = 64.65036 -12.98108 25.83464
#
# Velocity S-wave (km/s) = 5.71342 -2.56015 3.61170
# Velocity P-wave (km/s) = 8.27378 5.24278 6.92612
#
# Compressibility (1/GPa) = 0.02025242
#
# Stress axis : x y z
#
# Youngs Moduli (GPa) = 65.11938 65.12392 155.75394
#
# Poissons Ratio (x) = 0.07288 0.57012
# Poissons Ratio (y) = 0.07288 0.57010
# Poissons Ratio (z) = 0.23836 0.23837
#
# Static dielectric constant tensor:
#      x y z
#    x 1.743160 0.000000 0.000000 
#    y 0.000000 1.743160 0.000000 
#    z 0.000000 0.000000 1.755210 
# 
# From -- ./inp_files/768.got.cif
#   From: 2010.05.17/outbox.cif.g08.bks.cpg/sg140_1_cif.got.tgz:768.got - 2010.06.21 00:45:31.
