data_PCOD9572553
_publ_section_title
;
Structure prediction by ZEFSAII (Michael W. Deem and Ramdas Pophale) SiO2 
 PCOD9572553
Probable space group: I 4/M C M
;
_chemical_formula_sum "Si O2"
_cell_formula_units_Z 160
_cell_length_a 20.608531
_cell_length_b 20.608531
_cell_length_c 17.592558
_cell_angle_alpha 90.000000
_cell_angle_beta 90.000000
_cell_angle_gamma 90.000000
_cell_volume 7471.762576
_symmetry_space_group_name_H-M "I 4/M C M"
_symmetry_group_IT_number 140
_symmetry_cell_setting 'tetragonal'
loop_
_space_group_symop_operation_xyz
x,y,z
-y,x,z
-x,-y,z
y,-x,z
x,-y,1/2-z
-x,y,1/2-z
y,x,1/2-z
-y,-x,1/2-z
-x,-y,-z
y,-x,-z
x,y,-z
-y,x,-z
-x,y,1/2+z
x,-y,1/2+z
-y,-x,1/2+z
y,x,1/2+z
1/2+x,1/2+y,1/2+z
1/2-y,1/2+x,1/2+z
1/2-x,1/2-y,1/2+z
1/2+y,1/2-x,1/2+z
1/2+x,1/2-y,-z
1/2-x,1/2+y,-z
1/2+y,1/2+x,-z
1/2-y,1/2-x,-z
1/2-x,1/2-y,1/2-z
1/2+y,1/2-x,1/2-z
1/2+x,1/2+y,1/2-z
1/2-y,1/2+x,1/2-z
1/2-x,1/2+y,z
1/2+x,1/2-y,z
1/2-y,1/2-x,z
1/2+y,1/2+x,z
loop_
_atom_site_type_symbol
_atom_site_label
_atom_site_fract_x
_atom_site_fract_y
_atom_site_fract_z
Si Si1 0.644015 0.038834 0.178807
Si Si2 0.927623 0.427623 0.912691
Si Si3 0.264635 0.129232 0.411226
Si Si4 0.182524 0.682524 0.090338
Si Si5 0.399810 0.457752 0.589459
Si Si6 0.643038 0.318401 0.664224
O O1 0.596243 0.096243 0.206062
O O2 0.700929 0.071109 0.131772
O O3 0.670177 0.000000 0.250000
O O4 0.601027 0.990410 0.128587
O O5 0.872376 0.372376 0.910465
O O6 0.942459 0.442459 0.000000
O O7 0.271194 0.118563 0.500000
O O8 0.305425 0.194576 0.391551
O O9 0.191425 0.139748 0.388197
O O10 0.245028 0.655203 0.135682
O O11 0.198021 0.698021 0.000000
O O12 0.467132 0.418371 0.602032
O O13 0.381632 0.450741 0.500000
O O14 0.344795 0.428240 0.643829
O O15 0.666573 0.333428 0.750000
#
# Coordination Sequence:
#
# PCOD9572553 Si02
#       6
#    32  16  32  16  32  32
#     4  11  23  39  65  92 128 171 214 263 318 371
#     4  11  25  41  62  92 128 167 212 267 322 378
#     4  10  22  41  65  90 121 170 221 261 306 377
#     4  11  25  44  65  89 124 166 213 263 317 384
#     4   9  20  42  69  94 125 167 214 262 313 376
#     4  12  25  39  66  97 129 167 206 262 327 386
#
# _framework density 21.413955999999999
#
# number of rings (size 3 to 8) (size 9 to 14) (size 15 to 20)
#    0.000    1.400    2.000    3.600    2.800    4.000 
#    0.000    3.000    0.000    0.000    0.000    0.000 
#    0.000    0.000    0.000    0.000    0.000    0.000 
#
# Total GULP energy -447510.820358 kJ/mol
# GULP energy per Si atom -5593.885254 kJ/mol
# Density = 2.136522 g / cm^3
# Si number density = 21.413956 Si / 1000 Ang^3
#
#
#
# Elastic Constant Matrix: (Units=GPa)
#
#
# Indices 1 2 3 4 5 6 
#
# 1 48.7569 19.9589 7.1502 0.0000 0.0000 0.0000
# 2 19.9589 48.7582 7.1509 0.0000 0.0000 0.0000
# 3 7.1502 7.1509 67.2105 0.0000 0.0000 0.0000
# 4 0.0000 0.0000 0.0000 31.4998 0.0000 0.0000
# 5 0.0000 0.0000 0.0000 0.0000 31.4999 0.0000
# 6 0.0000 0.0000 0.0000 0.0000 0.0000 36.2396
#
#
#
# Elastic Compliance Matrix: (Units=1/GPa)
#
#
# Indices 1 2 3 4 5 6 
#
# 1 0.024803 -0.009921 -0.001583 0.000000 0.000000 0.000000
# 2 -0.009921 0.024803 -0.001583 0.000000 0.000000 0.000000
# 3 -0.001583 -0.001583 0.015216 0.000000 0.000000 0.000000
# 4 0.000000 0.000000 0.000000 0.031746 0.000000 0.000000
# 5 0.000000 0.000000 0.000000 0.000000 0.031746 0.000000
# 6 0.000000 0.000000 0.000000 0.000000 0.000000 0.027594
#
#
# Mechanical properties :
#
#
# Convention : Reuss Voigt Hill
#
# Bulk Modulus (GPa) = 25.87561 25.91618 25.89589
# Shear Modulus (GPa) = 25.64560 28.54555 27.09558
#
# Velocity S-wave (km/s) = 3.46441 3.65504 3.56100
# Velocity P-wave (km/s) = 5.30213 5.47185 5.38766
#
# Compressibility (1/GPa) = 0.03864643
#
# Stress axis : x y z
#
# Youngs Moduli (GPa) = 40.31726 40.31818 65.72232
#
# Poissons Ratio (x) = 0.39999 0.10405
# Poissons Ratio (y) = 0.39998 0.10407
# Poissons Ratio (z) = 0.06383 0.06384
#
# Static dielectric constant tensor:
#      x y z
#    x 1.773420 0.000000 0.000000 
#    y 0.000000 1.773420 0.000000 
#    z 0.000000 0.000000 1.759870 
# 
# From -- ./inp_files/6909.got.cif
#   From: 2010.05.17/outbox.cif.g08.bks.cpg/sg140_4_cif.got.tgz:6909.got - 2010.06.21 00:45:31.
