data_PCOD9572825
_publ_section_title
;
Structure prediction by ZEFSAII (Michael W. Deem and Ramdas Pophale) SiO2 
 PCOD9572825
Probable space group: I 41/A M D
;
_chemical_formula_sum "Si O2"
_cell_formula_units_Z 84
_cell_length_a 21.280397
_cell_length_b 21.280397
_cell_length_c 8.350890
_cell_angle_alpha 90.000000
_cell_angle_beta 90.000000
_cell_angle_gamma 90.000000
_cell_volume 3781.744767
_symmetry_space_group_name_H-M "I 41/A M D"
_symmetry_group_IT_number 141
_space_group.IT_coordinate_system_code '2'
_symmetry_cell_setting 'tetragonal'
loop_
_space_group_symop_operation_xyz
x,y,z
1/4-y,3/4+x,1/4+z
-x,1/2-y,z
1/4+y,1/4-x,3/4+z
x,-y,-z
-x,1/2+y,-z
1/4+y,3/4+x,1/4-z
1/4-y,1/4-x,3/4-z
-x,-y,-z
3/4+y,1/4-x,3/4-z
x,1/2+y,-z
3/4-y,3/4+x,1/4-z
-x,y,z
x,1/2-y,z
3/4-y,1/4-x,3/4+z
3/4+y,3/4+x,1/4+z
1/2+x,1/2+y,1/2+z
3/4-y,1/4+x,3/4+z
1/2-x,-y,1/2+z
3/4+y,3/4-x,1/4+z
1/2+x,1/2-y,1/2-z
1/2-x,y,1/2-z
3/4+y,1/4+x,3/4-z
3/4-y,3/4-x,1/4-z
1/2-x,1/2-y,1/2-z
1/4+y,3/4-x,1/4-z
1/2+x,y,1/2-z
1/4-y,1/4+x,3/4-z
1/2-x,1/2+y,1/2+z
1/2+x,-y,1/2+z
1/4-y,3/4-x,1/4+z
1/4+y,1/4+x,3/4+z
loop_
_atom_site_type_symbol
_atom_site_label
_atom_site_fract_x
_atom_site_fract_y
_atom_site_fract_z
Si Si1 0.571537 0.031230 0.819984
Si Si2 0.000000 0.250000 0.875000
Si Si3 0.342399 0.369554 0.956242
Si Si4 0.073093 0.750000 0.421766
O O1 0.500000 0.053644 0.788911
O O2 0.592313 0.977481 0.695598
O O3 0.624101 0.085139 0.829435
O O4 0.568970 0.000000 0.000000
O O5 0.937397 0.250000 0.769061
O O6 0.343490 0.406511 0.125000
O O7 0.388448 0.310264 0.973205
O O8 0.000000 0.750000 0.470201
#
# Coordination Sequence:
#
# PCOD9572825 Si02
#       4
#    32   4  32  16
#     4   9  17  30  47  86 124 154 189 244 313 373
#     4   8  24  36  46  80 116 168 192 246 292 364
#     4  10  19  30  55  88 119 154 193 253 316 366
#     4  10  20  33  52  80 117 153 198 250 301 364
#
# _framework density 22.211970000000001
#
# number of rings (size 3 to 8) (size 9 to 14) (size 15 to 20)
#    0.571    1.905    1.905    1.143    5.333    0.000 
#    0.000    0.000    0.000    4.571   44.571    0.000 
#    0.000    0.000    0.000    0.000    0.000    0.000 
#
# Total GULP energy -234072.416979 kJ/mol
# GULP energy per Si atom -5573.152785 kJ/mol
# Density = 2.216141 g / cm^3
# Si number density = 22.211970 Si / 1000 Ang^3
#
#
#
# Elastic Constant Matrix: (Units=GPa)
#
#
# Indices 1 2 3 4 5 6 
#
# 1 126.9718 71.7970 18.7511 0.0000 0.0000 0.0000
# 2 71.7970 126.9702 18.7507 0.0000 0.0000 0.0000
# 3 18.7511 18.7507 42.5371 0.0000 0.0000 0.0000
# 4 0.0000 0.0000 0.0000 27.7242 0.0000 0.0000
# 5 0.0000 0.0000 0.0000 0.0000 27.7229 0.0000
# 6 0.0000 0.0000 0.0000 0.0000 0.0000 33.4383
#
#
#
# Elastic Compliance Matrix: (Units=1/GPa)
#
#
# Indices 1 2 3 4 5 6 
#
# 1 0.011806 -0.006319 -0.002419 0.000000 0.000000 0.000000
# 2 -0.006319 0.011806 -0.002419 0.000000 0.000000 0.000000
# 3 -0.002419 -0.002419 0.025641 0.000000 0.000000 0.000000
# 4 0.000000 0.000000 0.000000 0.036070 0.000000 0.000000
# 5 0.000000 0.000000 0.000000 0.000000 0.036071 0.000000
# 6 0.000000 0.000000 0.000000 0.000000 0.000000 0.029906
#
#
# Mechanical properties :
#
#
# Convention : Reuss Voigt Hill
#
# Bulk Modulus (GPa) = 37.11872 57.23077 47.17474
# Shear Modulus (GPa) = 27.38330 30.25574 28.81952
#
# Velocity S-wave (km/s) = 3.51496 3.69472 3.60596
# Velocity P-wave (km/s) = 5.76374 6.63498 6.21464
#
# Compressibility (1/GPa) = 0.02694059
#
# Stress axis : x y z
#
# Youngs Moduli (GPa) = 84.70363 84.70274 38.99930
#
# Poissons Ratio (x) = 0.53520 0.09434
# Poissons Ratio (y) = 0.53521 0.09433
# Poissons Ratio (z) = 0.20490 0.20488
#
# Static dielectric constant tensor:
#      x y z
#    x 1.855210 0.000000 0.000000 
#    y 0.000000 1.855200 0.000000 
#    z 0.000000 0.000000 1.923860 
# 
# From -- ./inp_files/4086.got.cif
#   From: 2010.05.17/outbox.cif.g08.bks.cpg/sg141_3_cif.got.tgz:4086.got - 2010.05.20 13:30:51.
