data_PCOD9572081
_publ_section_title
;
Structure prediction by ZEFSAII (Michael W. Deem and Ramdas Pophale) SiO2 
 PCOD9572081
Probable space group: I 4/M C M
;
_chemical_formula_sum "Si O2"
_cell_formula_units_Z 176
_cell_length_a 17.784280
_cell_length_b 17.784280
_cell_length_c 30.139915
_cell_angle_alpha 90.000000
_cell_angle_beta 90.000000
_cell_angle_gamma 90.000000
_cell_volume 9532.670856
_symmetry_space_group_name_H-M "I 4/M C M"
_symmetry_group_IT_number 140
_symmetry_cell_setting 'tetragonal'
loop_
_space_group_symop_operation_xyz
x,y,z
-y,x,z
-x,-y,z
y,-x,z
x,-y,1/2-z
-x,y,1/2-z
y,x,1/2-z
-y,-x,1/2-z
-x,-y,-z
y,-x,-z
x,y,-z
-y,x,-z
-x,y,1/2+z
x,-y,1/2+z
-y,-x,1/2+z
y,x,1/2+z
1/2+x,1/2+y,1/2+z
1/2-y,1/2+x,1/2+z
1/2-x,1/2-y,1/2+z
1/2+y,1/2-x,1/2+z
1/2+x,1/2-y,-z
1/2-x,1/2+y,-z
1/2+y,1/2+x,-z
1/2-y,1/2-x,-z
1/2-x,1/2-y,1/2-z
1/2+y,1/2-x,1/2-z
1/2+x,1/2+y,1/2-z
1/2-y,1/2+x,1/2-z
1/2-x,1/2+y,z
1/2+x,1/2-y,z
1/2-y,1/2-x,z
1/2+y,1/2+x,z
loop_
_atom_site_type_symbol
_atom_site_label
_atom_site_fract_x
_atom_site_fract_y
_atom_site_fract_z
Si Si1 0.380432 0.997281 0.169758
Si Si2 0.682568 0.689147 0.888026
Si Si3 0.220766 0.405558 0.050014
Si Si4 0.217184 0.500000 0.250000
Si Si5 0.728035 0.350463 0.208609
Si Si6 0.691708 0.067075 0.583633
O O1 0.431028 0.931028 0.149330
O O2 0.438902 0.061099 0.185937
O O3 0.334701 0.965993 0.211221
O O4 0.329340 0.035926 0.132692
O O5 0.750249 0.749752 0.888047
O O6 0.716592 0.618390 0.913917
O O7 0.659672 0.680958 0.836571
O O8 0.614539 0.731637 0.912837
O O9 0.147779 0.352222 0.056764
O O10 0.199316 0.492585 0.054746
O O11 0.248217 0.390070 0.000000
O O12 0.261357 0.564584 0.224352
O O13 0.690658 0.309343 0.250000
O O14 0.808533 0.308533 0.200657
O O15 0.624507 0.124507 0.570753
#
# Coordination Sequence:
#
# PCOD9572081 Si02
#       6
#    32  32  32  16  32  32
#     4  10  19  29  45  75 114 152 185 222 273 333
#     4   9  19  37  56  77 112 154 196 235 277 342
#     4  10  22  38  58  85 113 146 191 242 298 356
#     4  12  20  31  50  75 110 152 196 236 274 332
#     4  10  21  34  51  79 111 149 196 239 281 330
#     4  10  20  36  57  83 115 150 187 232 292 356
#
# _framework density 18.462821000000002
#
# number of rings (size 3 to 8) (size 9 to 14) (size 15 to 20)
#    0.000    2.000    1.818    2.182    2.545    2.909 
#    0.000    2.727    0.000    0.818    0.000    3.818 
#    0.000    0.000    0.000    0.000    0.000    0.000 
#
# Total GULP energy -490796.771650 kJ/mol
# GULP energy per Si atom -5577.236041 kJ/mol
# Density = 1.842080 g / cm^3
# Si number density = 18.462821 Si / 1000 Ang^3
#
#
#
# Elastic Constant Matrix: (Units=GPa)
#
#
# Indices 1 2 3 4 5 6 
#
# 1 65.0608 33.1933 36.5295 0.0000 0.0000 0.0000
# 2 33.1933 65.0622 36.5297 0.0000 0.0000 0.0000
# 3 36.5295 36.5297 89.9773 0.0000 0.0000 0.0000
# 4 0.0000 0.0000 0.0000 25.6526 0.0000 0.0000
# 5 0.0000 0.0000 0.0000 0.0000 25.6527 0.0000
# 6 0.0000 0.0000 0.0000 0.0000 0.0000 25.3021
#
#
#
# Elastic Compliance Matrix: (Units=1/GPa)
#
#
# Indices 1 2 3 4 5 6 
#
# 1 0.022979 -0.008400 -0.005919 0.000000 0.000000 0.000000
# 2 -0.008400 0.022979 -0.005919 0.000000 0.000000 0.000000
# 3 -0.005919 -0.005919 0.015920 0.000000 0.000000 0.000000
# 4 0.000000 0.000000 0.000000 0.038982 0.000000 0.000000
# 5 0.000000 0.000000 0.000000 0.000000 0.038982 0.000000
# 6 0.000000 0.000000 0.000000 0.000000 0.000000 0.039522
#
#
# Mechanical properties :
#
#
# Convention : Reuss Voigt Hill
#
# Bulk Modulus (GPa) = 46.72445 48.06726 47.39586
# Shear Modulus (GPa) = 22.02894 22.91135 22.47015
#
# Velocity S-wave (km/s) = 3.45795 3.52653 3.49241
# Velocity P-wave (km/s) = 6.42693 6.53246 6.47991
#
# Compressibility (1/GPa) = 0.02140207
#
# Stress axis : x y z
#
# Youngs Moduli (GPa) = 43.51762 43.51862 62.81508
#
# Poissons Ratio (x) = 0.36557 0.37179
# Poissons Ratio (y) = 0.36556 0.37178
# Poissons Ratio (z) = 0.25757 0.25757
#
# Static dielectric constant tensor:
#      x y z
#    x 1.655140 0.000000 0.000000 
#    y 0.000000 1.655150 0.000000 
#    z 0.000000 0.000000 1.659840 
# 
# From -- ./inp_files/11535.got.cif
#   From: 2010.05.17/outbox.cif.g08.bks.cpg/sg140_6_cif.got.tgz:11535.got - 2010.06.21 00:45:31.
