data_PCOD9572004
_publ_section_title
;
Structure prediction by ZEFSAII (Michael W. Deem and Ramdas Pophale) SiO2 
 PCOD9572004
Probable space group: I 4/M C M
;
_chemical_formula_sum "Si O2"
_cell_formula_units_Z 120
_cell_length_a 14.077640
_cell_length_b 14.077640
_cell_length_c 29.730184
_cell_angle_alpha 90.000000
_cell_angle_beta 90.000000
_cell_angle_gamma 90.000000
_cell_volume 5891.926318
_symmetry_space_group_name_H-M "I 4/M C M"
_symmetry_group_IT_number 140
_symmetry_cell_setting 'tetragonal'
loop_
_space_group_symop_operation_xyz
x,y,z
-y,x,z
-x,-y,z
y,-x,z
x,-y,1/2-z
-x,y,1/2-z
y,x,1/2-z
-y,-x,1/2-z
-x,-y,-z
y,-x,-z
x,y,-z
-y,x,-z
-x,y,1/2+z
x,-y,1/2+z
-y,-x,1/2+z
y,x,1/2+z
1/2+x,1/2+y,1/2+z
1/2-y,1/2+x,1/2+z
1/2-x,1/2-y,1/2+z
1/2+y,1/2-x,1/2+z
1/2+x,1/2-y,-z
1/2-x,1/2+y,-z
1/2+y,1/2+x,-z
1/2-y,1/2-x,-z
1/2-x,1/2-y,1/2-z
1/2+y,1/2-x,1/2-z
1/2+x,1/2+y,1/2-z
1/2-y,1/2+x,1/2-z
1/2-x,1/2+y,z
1/2+x,1/2-y,z
1/2-y,1/2-x,z
1/2+y,1/2+x,z
loop_
_atom_site_type_symbol
_atom_site_label
_atom_site_fract_x
_atom_site_fract_y
_atom_site_fract_z
Si Si1 0.721121 0.065692 0.500000
Si Si2 0.500000 0.159114 0.250000
Si Si3 0.576756 0.076756 0.105217
Si Si4 0.104544 0.604544 0.500000
Si Si5 0.554033 0.215817 0.653631
Si Si6 0.357417 0.567950 0.080783
O O1 0.619348 0.119348 0.500000
O O2 0.779520 0.095673 0.543798
O O3 0.705164 0.951547 0.500000
O O4 0.588400 0.088400 0.239891
O O5 0.524986 0.217808 0.294384
O O6 0.535795 0.173871 0.125366
O O7 0.500000 0.000000 0.121693
O O8 0.575984 0.075984 0.051313
O O9 0.640409 0.140409 0.649366
O O10 0.582972 0.312879 0.629863
O O11 0.379433 0.456460 0.074551
#
# Coordination Sequence:
#
# PCOD9572004 Si02
#       6
#    16  16  16   8  32  32
#     4  12  23  41  64  93 120 148 196 249 297 357
#     4   9  16  30  58  93 126 156 184 247 332 372
#     4  10  17  30  54  86 124 154 181 240 313 360
#     4  12  21  32  60  94 128 150 172 241 316 357
#     4  10  19  36  60  91 121 150 200 252 301 363
#     4  11  25  45  60  78 121 171 203 237 295 362
#
# _framework density 20.366855000000001
#
# number of rings (size 3 to 8) (size 9 to 14) (size 15 to 20)
#    0.000    1.467    4.000    2.800    0.000    1.067 
#   12.000    1.333    0.000    4.800    0.000    0.000 
#    0.000    0.000    0.000    0.000    0.000    0.000 
#
# Total GULP energy -334567.692145 kJ/mol
# GULP energy per Si atom -5576.128202 kJ/mol
# Density = 2.032050 g / cm^3
# Si number density = 20.366855 Si / 1000 Ang^3
#
#
#
# Elastic Constant Matrix: (Units=GPa)
#
#
# Indices 1 2 3 4 5 6 
#
# 1 53.8801 -1.2690 28.2568 0.0000 0.0000 0.0000
# 2 -1.2690 53.8801 28.2568 0.0000 0.0000 0.0000
# 3 28.2568 28.2568 118.6295 0.0000 0.0000 0.0000
# 4 0.0000 0.0000 0.0000 6.7587 0.0000 0.0000
# 5 0.0000 0.0000 0.0000 0.0000 6.7587 0.0000
# 6 0.0000 0.0000 0.0000 0.0000 0.0000 9.4105
#
#
#
# Elastic Compliance Matrix: (Units=1/GPa)
#
#
# Indices 1 2 3 4 5 6 
#
# 1 0.021838 0.003705 -0.006084 0.000000 0.000000 0.000000
# 2 0.003705 0.021838 -0.006084 0.000000 0.000000 0.000000
# 3 -0.006084 -0.006084 0.011328 0.000000 0.000000 0.000000
# 4 0.000000 0.000000 0.000000 0.147958 0.000000 0.000000
# 5 0.000000 0.000000 0.000000 0.000000 0.147958 0.000000
# 6 0.000000 0.000000 0.000000 0.000000 0.000000 0.106264
#
#
# Mechanical properties :
#
#
# Convention : Reuss Voigt Hill
#
# Bulk Modulus (GPa) = 26.26251 37.43099 31.84675
# Shear Modulus (GPa) = 10.27111 15.99524 13.13317
#
# Velocity S-wave (km/s) = 2.24811 2.80546 2.54211
# Velocity P-wave (km/s) = 4.43412 5.37703 4.92818
#
# Compressibility (1/GPa) = 0.03807709
#
# Stress axis : x y z
#
# Youngs Moduli (GPa) = 45.79229 45.79229 88.27675
#
# Poissons Ratio (x) = -0.16966 0.53709
# Poissons Ratio (y) = -0.16966 0.53709
# Poissons Ratio (z) = 0.27861 0.27861
#
# Static dielectric constant tensor:
#      x y z
#    x 1.739840 0.000000 0.000000 
#    y 0.000000 1.739840 0.000000 
#    z 0.000000 0.000000 1.705150 
# 
# From -- ./inp_files/11346.got.cif
#   From: 2010.05.17/outbox.cif.g08.bks.cpg/sg140_6_cif.got.tgz:11346.got - 2010.06.21 00:45:31.
