data_PCOD9572349
_publ_section_title
;
Structure prediction by ZEFSAII (Michael W. Deem and Ramdas Pophale) SiO2 
 PCOD9572349
Probable space group: I 4/M C M
;
_chemical_formula_sum "Si O2"
_cell_formula_units_Z 192
_cell_length_a 19.958552
_cell_length_b 19.958552
_cell_length_c 23.148293
_cell_angle_alpha 90.000000
_cell_angle_beta 90.000000
_cell_angle_gamma 90.000000
_cell_volume 9220.978949
_symmetry_space_group_name_H-M "I 4/M C M"
_symmetry_group_IT_number 140
_symmetry_cell_setting 'tetragonal'
loop_
_space_group_symop_operation_xyz
x,y,z
-y,x,z
-x,-y,z
y,-x,z
x,-y,1/2-z
-x,y,1/2-z
y,x,1/2-z
-y,-x,1/2-z
-x,-y,-z
y,-x,-z
x,y,-z
-y,x,-z
-x,y,1/2+z
x,-y,1/2+z
-y,-x,1/2+z
y,x,1/2+z
1/2+x,1/2+y,1/2+z
1/2-y,1/2+x,1/2+z
1/2-x,1/2-y,1/2+z
1/2+y,1/2-x,1/2+z
1/2+x,1/2-y,-z
1/2-x,1/2+y,-z
1/2+y,1/2+x,-z
1/2-y,1/2-x,-z
1/2-x,1/2-y,1/2-z
1/2+y,1/2-x,1/2-z
1/2+x,1/2+y,1/2-z
1/2-y,1/2+x,1/2-z
1/2-x,1/2+y,z
1/2+x,1/2-y,z
1/2-y,1/2-x,z
1/2+y,1/2+x,z
loop_
_atom_site_type_symbol
_atom_site_label
_atom_site_fract_x
_atom_site_fract_y
_atom_site_fract_z
Si Si1 0.356301 0.755051 0.237210
Si Si2 0.445052 0.353281 0.291673
Si Si3 0.977904 0.742851 0.936356
Si Si4 0.212696 0.174482 0.567945
Si Si5 0.606859 0.504055 0.915125
Si Si6 0.726269 0.886792 0.869828
O O1 0.295955 0.704046 0.250000
O O2 0.323417 0.823417 0.215038
O O3 0.400353 0.710920 0.194349
O O4 0.388599 0.767309 0.300172
O O5 0.500000 0.323974 0.250000
O O6 0.404196 0.404196 0.250000
O O7 0.481707 0.385196 0.346195
O O8 0.898548 0.752826 0.922343
O O9 0.997718 0.820567 0.939804
O O10 0.038084 0.716182 0.895048
O O11 0.982811 0.710796 0.000000
O O12 0.192355 0.174838 0.500000
O O13 0.270805 0.229196 0.576576
O O14 0.149980 0.205827 0.604872
O O15 0.561564 0.566712 0.931819
O O16 0.664279 0.835722 0.883249
#
# Coordination Sequence:
#
# PCOD9572349 Si02
#       6
#    32  32  32  32  32  32
#     4   9  20  35  52  77 107 139 176 230 284 325
#     4  11  20  31  50  73 103 140 182 222 265 323
#     4  11  23  36  55  82 110 142 188 240 286 337
#     4   9  19  35  55  78 107 144 185 230 281 340
#     4  11  23  35  48  71 108 148 187 223 271 333
#     4  10  20  37  59  82 111 148 189 233 286 351
#
# _framework density 20.822085000000001
#
# number of rings (size 3 to 8) (size 9 to 14) (size 15 to 20)
#    0.000    1.833    1.667    2.500    7.000    3.167 
#    0.000    0.833    0.000    0.500    0.000    2.333 
#    0.000    1.667    0.000    0.000    0.000    0.000 
#
# Total GULP energy -534837.787257 kJ/mol
# GULP energy per Si atom -5571.226951 kJ/mol
# Density = 2.077469 g / cm^3
# Si number density = 20.822085 Si / 1000 Ang^3
#
#
#
# Elastic Constant Matrix: (Units=GPa)
#
#
# Indices 1 2 3 4 5 6 
#
# 1 52.0457 2.0934 -1.6294 0.0000 0.0000 0.0000
# 2 2.0934 52.0384 -1.6347 0.0000 0.0000 0.0000
# 3 -1.6294 -1.6347 90.4622 0.0000 0.0000 0.0000
# 4 0.0000 0.0000 0.0000 36.1152 0.0000 0.0000
# 5 0.0000 0.0000 0.0000 0.0000 36.1251 0.0000
# 6 0.0000 0.0000 0.0000 0.0000 0.0000 -118.3028
#
#
#
# Elastic Compliance Matrix: (Units=1/GPa)
#
#
# Indices 1 2 3 4 5 6 
#
# 1 0.019255 -0.000764 0.000333 0.000000 0.000000 0.000000
# 2 -0.000764 0.019258 0.000334 0.000000 0.000000 0.000000
# 3 0.000333 0.000334 0.011066 0.000000 0.000000 0.000000
# 4 0.000000 0.000000 0.000000 0.027689 0.000000 0.000000
# 5 0.000000 0.000000 0.000000 0.000000 0.027682 0.000000
# 6 0.000000 0.000000 0.000000 0.000000 0.000000 -0.008453
#
#
# Mechanical properties :
#
#
# Convention : Reuss Voigt Hill
#
# Bulk Modulus (GPa) = 20.24885 21.35608 20.80246
# Shear Modulus (GPa) = 44.18806 3.83529 24.01168
#
# Velocity S-wave (km/s) = 4.61170 1.35865 3.39954
# Velocity P-wave (km/s) = 6.17275 3.56931 5.04197
#
# Compressibility (1/GPa) = 0.04938553
#
# Stress axis : x y z
#
# Youngs Moduli (GPa) = 51.93445 51.92692 90.36375
#
# Poissons Ratio (x) = 0.03968 -0.03009
# Poissons Ratio (y) = 0.03968 -0.03020
# Poissons Ratio (z) = -0.01729 -0.01736
#
# Static dielectric constant tensor:
#      x y z
#    x 1.817610 0.000000 0.000000 
#    y 0.000000 1.817610 0.000000 
#    z 0.000000 0.000000 1.817640 
# 
# From -- ./inp_files/10864.got.cif
#   From: 2010.05.17/outbox.cif.g08.bks.cpg/sg140_6_cif.got.tgz:10864.got - 2010.06.21 00:45:31.
