data_PCOD9572784
_publ_section_title
;
Structure prediction by ZEFSAII (Michael W. Deem and Ramdas Pophale) SiO2 
 PCOD9572784
Probable space group: I 41/A M D
;
_chemical_formula_sum "Si O2"
_cell_formula_units_Z 176
_cell_length_a 18.189182
_cell_length_b 18.189182
_cell_length_c 30.558907
_cell_angle_alpha 90.000000
_cell_angle_beta 90.000000
_cell_angle_gamma 90.000000
_cell_volume 10110.302591
_symmetry_space_group_name_H-M "I 41/A M D"
_symmetry_group_IT_number 141
_space_group.IT_coordinate_system_code '2'
_symmetry_cell_setting 'tetragonal'
loop_
_space_group_symop_operation_xyz
x,y,z
1/4-y,3/4+x,1/4+z
-x,1/2-y,z
1/4+y,1/4-x,3/4+z
x,-y,-z
-x,1/2+y,-z
1/4+y,3/4+x,1/4-z
1/4-y,1/4-x,3/4-z
-x,-y,-z
3/4+y,1/4-x,3/4-z
x,1/2+y,-z
3/4-y,3/4+x,1/4-z
-x,y,z
x,1/2-y,z
3/4-y,1/4-x,3/4+z
3/4+y,3/4+x,1/4+z
1/2+x,1/2+y,1/2+z
3/4-y,1/4+x,3/4+z
1/2-x,-y,1/2+z
3/4+y,3/4-x,1/4+z
1/2+x,1/2-y,1/2-z
1/2-x,y,1/2-z
3/4+y,1/4+x,3/4-z
3/4-y,3/4-x,1/4-z
1/2-x,1/2-y,1/2-z
1/4+y,3/4-x,1/4-z
1/2+x,y,1/2-z
1/4-y,1/4+x,3/4-z
1/2-x,1/2+y,1/2+z
1/2+x,-y,1/2+z
1/4-y,3/4-x,1/4+z
1/4+y,1/4+x,3/4+z
loop_
_atom_site_type_symbol
_atom_site_label
_atom_site_fract_x
_atom_site_fract_y
_atom_site_fract_z
Si Si1 0.582478 0.661981 0.056322
Si Si2 0.776600 0.431540 0.531189
Si Si3 0.651982 0.329474 0.494972
Si Si4 0.364764 0.750000 0.271215
Si Si5 0.138960 0.382973 0.101555
Si Si6 0.748740 0.998740 0.875000
Si Si7 0.500000 0.528871 0.572157
O O1 0.500000 0.645099 0.039235
O O2 0.592622 0.750000 0.054104
O O3 0.651189 0.619493 0.034951
O O4 0.586752 0.635745 0.106731
O O5 0.794962 0.500000 0.500000
O O6 0.708697 0.390863 0.509068
O O7 0.747932 0.455136 0.579574
O O8 0.683709 0.250000 0.504999
O O9 0.574734 0.339917 0.519409
O O10 0.638216 0.338311 0.443305
O O11 0.319728 0.750000 0.225078
O O12 0.306665 0.750000 0.310541
O O13 0.219317 0.419679 0.108854
O O14 0.074846 0.445261 0.095926
#
# Coordination Sequence:
#
# PCOD9572784 Si02
#       7
#    32  32  32  16  32  16  16
#     4  10  21  37  57  85 117 148 187 240 300 353
#     4  11  22  38  59  84 113 149 195 236 290 351
#     4  11  21  34  53  81 114 150 191 237 286 337
#     4   9  19  28  48  76 112 146 190 228 272 330
#     4  10  18  32  53  81 107 144 183 232 281 337
#     4  10  20  34  56  78 107 143 184 232 280 330
#     4   9  16  28  48  74 104 140 182 224 278 319
#
# _framework density 17.407986000000001
#
# number of rings (size 3 to 8) (size 9 to 14) (size 15 to 20)
#    0.000    1.818    2.727    2.455    2.545    0.364 
#    0.000    0.000    0.000    0.000    0.000    0.000 
#    0.000    1.455    0.000    0.000    0.000    0.000 
#
# Total GULP energy -489953.545664 kJ/mol
# GULP energy per Si atom -5567.653928 kJ/mol
# Density = 1.736836 g / cm^3
# Si number density = 17.407986 Si / 1000 Ang^3
#
#
#
# Elastic Constant Matrix: (Units=GPa)
#
#
# Indices 1 2 3 4 5 6 
#
# 1 84.8552 41.2516 16.5188 0.0000 0.0000 0.0000
# 2 41.2516 84.8552 16.5188 0.0000 0.0000 0.0000
# 3 16.5188 16.5188 46.1042 0.0000 0.0000 0.0000
# 4 0.0000 0.0000 0.0000 13.3448 0.0000 0.0000
# 5 0.0000 0.0000 0.0000 0.0000 13.3448 0.0000
# 6 0.0000 0.0000 0.0000 0.0000 0.0000 27.2696
#
#
#
# Elastic Compliance Matrix: (Units=1/GPa)
#
#
# Indices 1 2 3 4 5 6 
#
# 1 0.015843 -0.007091 -0.003136 0.000000 0.000000 0.000000
# 2 -0.007091 0.015843 -0.003136 0.000000 0.000000 0.000000
# 3 -0.003136 -0.003136 0.023937 0.000000 0.000000 0.000000
# 4 0.000000 0.000000 0.000000 0.074936 0.000000 0.000000
# 5 0.000000 0.000000 0.000000 0.000000 0.074936 0.000000
# 6 0.000000 0.000000 0.000000 0.000000 0.000000 0.036671
#
#
# Mechanical properties :
#
#
# Convention : Reuss Voigt Hill
#
# Bulk Modulus (GPa) = 34.60534 40.48812 37.54673
# Shear Modulus (GPa) = 17.95197 20.22687 19.08942
#
# Velocity S-wave (km/s) = 3.21479 3.41241 3.31507
# Velocity P-wave (km/s) = 5.80534 6.23176 6.02233
#
# Compressibility (1/GPa) = 0.02889728
#
# Stress axis : x y z
#
# Youngs Moduli (GPa) = 63.12113 63.12113 41.77661
#
# Poissons Ratio (x) = 0.44761 0.13099
# Poissons Ratio (y) = 0.44761 0.13099
# Poissons Ratio (z) = 0.19792 0.19792
#
# Static dielectric constant tensor:
#      x y z
#    x 1.598140 0.000000 0.000000 
#    y 0.000000 1.598140 0.000000 
#    z 0.000000 0.000000 1.588530 
# 
# From -- ./inp_files/14404.got.cif
#   From: 2010.05.17/outbox.cif.g08.bks.cpg/sg141_8_cif.got.tgz:14404.got - 2010.05.20 13:30:51.
