data_PCOD9572111
_publ_section_title
;
Structure prediction by ZEFSAII (Michael W. Deem and Ramdas Pophale) SiO2 
 PCOD9572111
Probable space group: I 4/M C M
;
_chemical_formula_sum "Si O2"
_cell_formula_units_Z 224
_cell_length_a 24.215671
_cell_length_b 24.215671
_cell_length_c 22.738082
_cell_angle_alpha 90.000000
_cell_angle_beta 90.000000
_cell_angle_gamma 90.000000
_cell_volume 13333.582225
_symmetry_space_group_name_H-M "I 4/M C M"
_symmetry_group_IT_number 140
_symmetry_cell_setting 'tetragonal'
loop_
_space_group_symop_operation_xyz
x,y,z
-y,x,z
-x,-y,z
y,-x,z
x,-y,1/2-z
-x,y,1/2-z
y,x,1/2-z
-y,-x,1/2-z
-x,-y,-z
y,-x,-z
x,y,-z
-y,x,-z
-x,y,1/2+z
x,-y,1/2+z
-y,-x,1/2+z
y,x,1/2+z
1/2+x,1/2+y,1/2+z
1/2-y,1/2+x,1/2+z
1/2-x,1/2-y,1/2+z
1/2+y,1/2-x,1/2+z
1/2+x,1/2-y,-z
1/2-x,1/2+y,-z
1/2+y,1/2+x,-z
1/2-y,1/2-x,-z
1/2-x,1/2-y,1/2-z
1/2+y,1/2-x,1/2-z
1/2+x,1/2+y,1/2-z
1/2-y,1/2+x,1/2-z
1/2-x,1/2+y,z
1/2+x,1/2-y,z
1/2-y,1/2-x,z
1/2+y,1/2+x,z
loop_
_atom_site_type_symbol
_atom_site_label
_atom_site_fract_x
_atom_site_fract_y
_atom_site_fract_z
Si Si1 0.450239 0.574309 0.928623
Si Si2 0.154937 0.565034 0.257398
Si Si3 0.621020 0.966534 0.431464
Si Si4 0.253961 0.155889 0.929691
Si Si5 0.626933 0.322972 0.928565
Si Si6 0.614234 0.796460 0.625697
Si Si7 0.832965 0.576633 0.375746
O O1 0.425321 0.514727 0.910262
O O2 0.414041 0.627143 0.911212
O O3 0.450047 0.574086 0.000000
O O4 0.146960 0.500000 0.250000
O O5 0.097381 0.597381 0.266848
O O6 0.192873 0.583955 0.311730
O O7 0.177226 0.582523 0.193638
O O8 0.617178 0.981955 0.500000
O O9 0.563268 0.936733 0.413975
O O10 0.667360 0.920123 0.421159
O O11 0.642077 0.017784 0.393403
O O12 0.293971 0.206030 0.908024
O O13 0.190315 0.162693 0.913465
O O14 0.278866 0.097675 0.908749
O O15 0.256562 0.157218 0.000000
O O16 0.614129 0.265929 0.895772
O O17 0.623358 0.315665 0.000000
O O18 0.674652 0.825349 0.629494
O O19 0.880320 0.619681 0.393287
#
# Coordination Sequence:
#
# PCOD9572111 Si02
#       7
#    32  32  32  32  32  32  32
#     4   8  15  29  47  70 104 137 164 203 252 302
#     4  10  20  36  55  74  99 138 184 230 273 310
#     4  10  20  32  48  73 105 139 172 211 266 324
#     4   9  18  32  49  73 106 139 171 211 259 315
#     4  10  19  31  52  79 105 139 177 208 255 326
#     4  10  20  34  50  72 103 135 173 224 269 309
#     4  10  20  34  52  72  99 137 178 220 266 308
#
# _framework density 16.799686000000001
#
# number of rings (size 3 to 8) (size 9 to 14) (size 15 to 20)
#    0.000    2.429    1.429    1.714    0.000    3.857 
#    0.000    5.714    0.000    3.429    0.000    0.000 
#    0.000    0.000    0.000    0.000    0.000    0.000 
#
# Total GULP energy -623667.866457 kJ/mol
# GULP energy per Si atom -5568.463093 kJ/mol
# Density = 1.676145 g / cm^3
# Si number density = 16.799686 Si / 1000 Ang^3
#
#
#
# Elastic Constant Matrix: (Units=GPa)
#
#
# Indices 1 2 3 4 5 6 
#
# 1 246.3425 -56.6083 31.8436 0.0000 0.0000 0.0000
# 2 -56.6083 246.3425 31.8436 0.0000 0.0000 0.0000
# 3 31.8436 31.8436 45.9558 0.0000 0.0000 0.0000
# 4 0.0000 0.0000 0.0000 18.0949 0.0000 0.0000
# 5 0.0000 0.0000 0.0000 0.0000 18.0949 0.0000
# 6 0.0000 0.0000 0.0000 0.0000 0.0000 17.6081
#
#
#
# Elastic Compliance Matrix: (Units=1/GPa)
#
#
# Indices 1 2 3 4 5 6 
#
# 1 0.005084 0.001784 -0.004759 0.000000 0.000000 0.000000
# 2 0.001784 0.005084 -0.004759 0.000000 0.000000 0.000000
# 3 -0.004759 -0.004759 0.028355 0.000000 0.000000 0.000000
# 4 0.000000 0.000000 0.000000 0.055264 0.000000 0.000000
# 5 0.000000 0.000000 0.000000 0.000000 0.055264 0.000000
# 6 0.000000 0.000000 0.000000 0.000000 0.000000 0.056792
#
#
# Mechanical properties :
#
#
# Convention : Reuss Voigt Hill
#
# Bulk Modulus (GPa) = 43.37392 61.42204 52.39798
# Shear Modulus (GPa) = 21.83427 46.19706 34.01566
#
# Velocity S-wave (km/s) = 3.60902 5.24962 4.50464
# Velocity P-wave (km/s) = 6.57579 8.56653 7.63631
#
# Compressibility (1/GPa) = 0.02305533
#
# Stress axis : x y z
#
# Youngs Moduli (GPa) = 196.68012 196.68012 35.26704
#
# Poissons Ratio (x) = -0.35079 0.16783
# Poissons Ratio (y) = -0.35079 0.16783
# Poissons Ratio (z) = 0.93598 0.93598
#
# Static dielectric constant tensor:
#      x y z
#    x 1.577100 0.000000 0.000000 
#    y 0.000000 1.577100 0.000000 
#    z 0.000000 0.000000 1.569160 
# 
# From -- ./inp_files/9994.got.cif
#   From: 2010.05.17/outbox.cif.g08.bks.cpg/sg140_5_cif.got.tgz:9994.got - 2010.06.21 00:45:31.
