data_PCOD9572437
_publ_section_title
;
Structure prediction by ZEFSAII (Michael W. Deem and Ramdas Pophale) SiO2 
 PCOD9572437
Probable space group: I 4/M C M
;
_chemical_formula_sum "Si O2"
_cell_formula_units_Z 136
_cell_length_a 18.358197
_cell_length_b 18.358197
_cell_length_c 23.005670
_cell_angle_alpha 90.000000
_cell_angle_beta 90.000000
_cell_angle_gamma 90.000000
_cell_volume 7753.449056
_symmetry_space_group_name_H-M "I 4/M C M"
_symmetry_group_IT_number 140
_symmetry_cell_setting 'tetragonal'
loop_
_space_group_symop_operation_xyz
x,y,z
-y,x,z
-x,-y,z
y,-x,z
x,-y,1/2-z
-x,y,1/2-z
y,x,1/2-z
-y,-x,1/2-z
-x,-y,-z
y,-x,-z
x,y,-z
-y,x,-z
-x,y,1/2+z
x,-y,1/2+z
-y,-x,1/2+z
y,x,1/2+z
1/2+x,1/2+y,1/2+z
1/2-y,1/2+x,1/2+z
1/2-x,1/2-y,1/2+z
1/2+y,1/2-x,1/2+z
1/2+x,1/2-y,-z
1/2-x,1/2+y,-z
1/2+y,1/2+x,-z
1/2-y,1/2-x,-z
1/2-x,1/2-y,1/2-z
1/2+y,1/2-x,1/2-z
1/2+x,1/2+y,1/2-z
1/2-y,1/2+x,1/2-z
1/2-x,1/2+y,z
1/2+x,1/2-y,z
1/2-y,1/2-x,z
1/2+y,1/2+x,z
loop_
_atom_site_type_symbol
_atom_site_label
_atom_site_fract_x
_atom_site_fract_y
_atom_site_fract_z
Si Si1 0.660046 0.428624 0.568171
Si Si2 0.558715 0.058715 0.069120
Si Si3 0.500000 0.875976 0.250000
Si Si4 0.500000 0.500000 0.079342
Si Si5 0.359327 0.742471 0.567600
Si Si6 0.999028 0.296776 0.627655
O O1 0.682129 0.437372 0.500000
O O2 0.585937 0.473544 0.576481
O O3 0.645900 0.343249 0.578556
O O4 0.722996 0.456901 0.610691
O O5 0.535527 0.137573 0.090927
O O6 0.500000 0.000000 0.092489
O O7 0.556937 0.056937 0.000000
O O8 0.570175 0.929826 0.247609
O O9 0.496279 0.824895 0.193453
O O10 0.381742 0.752151 0.500000
O O11 0.282037 0.782037 0.574812
O O12 0.418616 0.781506 0.607399
#
# Coordination Sequence:
#
# PCOD9572437 Si02
#       6
#    32  16  16   8  32  32
#     4  11  22  37  63  97 129 165 208 260 323 388
#     4  11  22  36  60  94 129 162 204 271 342 397
#     4  11  24  44  66  87 122 176 230 265 312 380
#     4  12  21  40  68  97 130 169 212 260 325 402
#     4  10  21  36  57  89 128 161 197 256 329 390
#     4  12  23  39  62  91 126 168 218 264 313 387
#
# _framework density 17.540579999999999
#
# number of rings (size 3 to 8) (size 9 to 14) (size 15 to 20)
#    0.000    0.941    3.529    5.294    1.647    1.882 
#    0.000    1.176    0.000    3.529    0.000    0.000 
#    0.000    0.000    0.000    0.000    0.000    0.000 
#
# Total GULP energy -378862.397965 kJ/mol
# GULP energy per Si atom -5571.505852 kJ/mol
# Density = 1.750066 g / cm^3
# Si number density = 17.540580 Si / 1000 Ang^3
#
#
#
# Elastic Constant Matrix: (Units=GPa)
#
#
# Indices 1 2 3 4 5 6 
#
# 1 140.7333 52.7560 62.4964 0.0000 0.0000 0.0000
# 2 52.7560 140.7333 62.4964 0.0000 0.0000 0.0000
# 3 62.4964 62.4964 109.6596 0.0000 0.0000 0.0000
# 4 0.0000 0.0000 0.0000 20.3141 0.0000 0.0000
# 5 0.0000 0.0000 0.0000 0.0000 20.3141 0.0000
# 6 0.0000 0.0000 0.0000 0.0000 0.0000 37.2930
#
#
#
# Elastic Compliance Matrix: (Units=1/GPa)
#
#
# Indices 1 2 3 4 5 6 
#
# 1 0.009773 -0.001593 -0.004662 0.000000 0.000000 0.000000
# 2 -0.001593 0.009773 -0.004662 0.000000 0.000000 0.000000
# 3 -0.004662 -0.004662 0.014433 0.000000 0.000000 0.000000
# 4 0.000000 0.000000 0.000000 0.049227 0.000000 0.000000
# 5 0.000000 0.000000 0.000000 0.000000 0.049227 0.000000
# 6 0.000000 0.000000 0.000000 0.000000 0.000000 0.026815
#
#
# Mechanical properties :
#
#
# Convention : Reuss Voigt Hill
#
# Bulk Modulus (GPa) = 82.33705 82.95819 82.64762
# Shear Modulus (GPa) = 27.00810 29.80938 28.40874
#
# Velocity S-wave (km/s) = 3.92822 4.12691 4.02879
# Velocity P-wave (km/s) = 8.22298 8.37295 8.29830
#
# Compressibility (1/GPa) = 0.01214520
#
# Stress axis : x y z
#
# Youngs Moduli (GPa) = 102.32145 102.32145 69.28731
#
# Poissons Ratio (x) = 0.16304 0.32300
# Poissons Ratio (y) = 0.16304 0.32300
# Poissons Ratio (z) = 0.47699 0.47699
#
# Static dielectric constant tensor:
#      x y z
#    x 1.592150 0.000000 0.000000 
#    y 0.000000 1.592150 0.000000 
#    z 0.000000 0.000000 1.590380 
# 
# From -- ./inp_files/9471.got.cif
#   From: 2010.05.17/outbox.cif.g08.bks.cpg/sg140_5_cif.got.tgz:9471.got - 2010.06.21 00:45:31.
