data_PCOD9572763
_publ_section_title
;
Structure prediction by ZEFSAII (Michael W. Deem and Ramdas Pophale) SiO2 
 PCOD9572763
Probable space group: I 41/A M D
;
_chemical_formula_sum "Si O2"
_cell_formula_units_Z 112
_cell_length_a 18.633398
_cell_length_b 18.633398
_cell_length_c 15.851439
_cell_angle_alpha 90.000000
_cell_angle_beta 90.000000
_cell_angle_gamma 90.000000
_cell_volume 5503.675434
_symmetry_space_group_name_H-M "I 41/A M D"
_symmetry_group_IT_number 141
_space_group.IT_coordinate_system_code '2'
_symmetry_cell_setting 'tetragonal'
loop_
_space_group_symop_operation_xyz
x,y,z
1/4-y,3/4+x,1/4+z
-x,1/2-y,z
1/4+y,1/4-x,3/4+z
x,-y,-z
-x,1/2+y,-z
1/4+y,3/4+x,1/4-z
1/4-y,1/4-x,3/4-z
-x,-y,-z
3/4+y,1/4-x,3/4-z
x,1/2+y,-z
3/4-y,3/4+x,1/4-z
-x,y,z
x,1/2-y,z
3/4-y,1/4-x,3/4+z
3/4+y,3/4+x,1/4+z
1/2+x,1/2+y,1/2+z
3/4-y,1/4+x,3/4+z
1/2-x,-y,1/2+z
3/4+y,3/4-x,1/4+z
1/2+x,1/2-y,1/2-z
1/2-x,y,1/2-z
3/4+y,1/4+x,3/4-z
3/4-y,3/4-x,1/4-z
1/2-x,1/2-y,1/2-z
1/4+y,3/4-x,1/4-z
1/2+x,y,1/2-z
1/4-y,1/4+x,3/4-z
1/2-x,1/2+y,1/2+z
1/2+x,-y,1/2+z
1/4-y,3/4-x,1/4+z
1/4+y,1/4+x,3/4+z
loop_
_atom_site_type_symbol
_atom_site_label
_atom_site_fract_x
_atom_site_fract_y
_atom_site_fract_z
Si Si1 0.292115 0.332814 0.857951
Si Si2 0.158807 0.408807 0.375000
Si Si3 0.783332 0.418970 0.004863
Si Si4 0.580024 0.829354 0.011222
O O1 0.270404 0.250000 0.840264
O O2 0.318372 0.383811 0.780785
O O3 0.362730 0.328843 0.915061
O O4 0.235381 0.374863 0.919901
O O5 0.141952 0.486430 0.334151
O O6 0.141246 0.352793 0.301754
O O7 0.752914 0.500000 0.000000
O O8 0.500000 0.838111 0.043194
O O9 0.584659 0.750000 0.968887
#
# Coordination Sequence:
#
# PCOD9572763 Si02
#       4
#    32  16  32  32
#     4  10  22  37  59  88 117 158 205 244 300 368
#     4  10  18  29  54  76 104 150 189 230 288 342
#     4  11  20  38  58  81 116 155 194 257 306 345
#     4   9  18  32  50  78 118 155 186 227 280 340
#
# _framework density 20.350037
#
# number of rings (size 3 to 8) (size 9 to 14) (size 15 to 20)
#    0.000    2.000    2.857    0.857    0.000    4.000 
#    0.000    1.429    0.000    0.000    0.000    0.000 
#    0.000    0.000    0.000    0.000    0.000    0.000 
#
# Total GULP energy -311843.857446 kJ/mol
# GULP energy per Si atom -5568.640312 kJ/mol
# Density = 2.030372 g / cm^3
# Si number density = 20.350037 Si / 1000 Ang^3
#
#
#
# Elastic Constant Matrix: (Units=GPa)
#
#
# Indices 1 2 3 4 5 6 
#
# 1 125.2304 29.7959 38.2942 0.0000 0.0000 0.0000
# 2 29.7959 125.2304 38.2942 0.0000 0.0000 0.0000
# 3 38.2942 38.2942 73.7295 0.0000 0.0000 0.0000
# 4 0.0000 0.0000 0.0000 20.7880 0.0000 0.0000
# 5 0.0000 0.0000 0.0000 0.0000 20.7880 0.0000
# 6 0.0000 0.0000 0.0000 0.0000 0.0000 22.0099
#
#
#
# Elastic Compliance Matrix: (Units=1/GPa)
#
#
# Indices 1 2 3 4 5 6 
#
# 1 0.009578 -0.000901 -0.004507 0.000000 0.000000 0.000000
# 2 -0.000901 0.009578 -0.004507 0.000000 0.000000 0.000000
# 3 -0.004507 -0.004507 0.018245 0.000000 0.000000 0.000000
# 4 0.000000 0.000000 0.000000 0.048105 0.000000 0.000000
# 5 0.000000 0.000000 0.000000 0.000000 0.048105 0.000000
# 6 0.000000 0.000000 0.000000 0.000000 0.000000 0.045434
#
#
# Mechanical properties :
#
#
# Convention : Reuss Voigt Hill
#
# Bulk Modulus (GPa) = 56.90979 59.66209 58.28594
# Shear Modulus (GPa) = 24.42254 27.23758 25.83006
#
# Velocity S-wave (km/s) = 3.46804 3.66246 3.56657
# Velocity P-wave (km/s) = 6.63796 6.87505 6.75755
#
# Compressibility (1/GPa) = 0.01757167
#
# Stress axis : x y z
#
# Youngs Moduli (GPa) = 104.40930 104.40930 54.81084
#
# Poissons Ratio (x) = 0.09404 0.24702
# Poissons Ratio (y) = 0.09404 0.24702
# Poissons Ratio (z) = 0.47054 0.47054
#
# Static dielectric constant tensor:
#      x y z
#    x 1.776650 0.000000 0.000000 
#    y 0.000000 1.776650 0.000000 
#    z 0.000000 0.000000 1.803600 
# 
# From -- ./inp_files/7922.got.cif
#   From: 2010.05.17/outbox.cif.g08.bks.cpg/sg141_4_cif.got.tgz:7922.got - 2010.05.20 13:30:51.
