data_PCOD9572194
_publ_section_title
;
Structure prediction by ZEFSAII (Michael W. Deem and Ramdas Pophale) SiO2 
 PCOD9572194
Probable space group: I 4/M C M
;
_chemical_formula_sum "Si O2"
_cell_formula_units_Z 240
_cell_length_a 20.750209
_cell_length_b 20.750209
_cell_length_c 26.296700
_cell_angle_alpha 90.000000
_cell_angle_beta 90.000000
_cell_angle_gamma 90.000000
_cell_volume 11322.600979
_symmetry_space_group_name_H-M "I 4/M C M"
_symmetry_group_IT_number 140
_symmetry_cell_setting 'tetragonal'
loop_
_space_group_symop_operation_xyz
x,y,z
-y,x,z
-x,-y,z
y,-x,z
x,-y,1/2-z
-x,y,1/2-z
y,x,1/2-z
-y,-x,1/2-z
-x,-y,-z
y,-x,-z
x,y,-z
-y,x,-z
-x,y,1/2+z
x,-y,1/2+z
-y,-x,1/2+z
y,x,1/2+z
1/2+x,1/2+y,1/2+z
1/2-y,1/2+x,1/2+z
1/2-x,1/2-y,1/2+z
1/2+y,1/2-x,1/2+z
1/2+x,1/2-y,-z
1/2-x,1/2+y,-z
1/2+y,1/2+x,-z
1/2-y,1/2-x,-z
1/2-x,1/2-y,1/2-z
1/2+y,1/2-x,1/2-z
1/2+x,1/2+y,1/2-z
1/2-y,1/2+x,1/2-z
1/2-x,1/2+y,z
1/2+x,1/2-y,z
1/2-y,1/2-x,z
1/2+y,1/2+x,z
loop_
_atom_site_type_symbol
_atom_site_label
_atom_site_fract_x
_atom_site_fract_y
_atom_site_fract_z
Si Si1 0.764589 0.503975 0.058826
Si Si2 0.917953 0.068398 0.310553
Si Si3 0.741655 0.650083 0.093772
Si Si4 0.840918 0.439680 0.719004
Si Si5 0.663072 0.734557 0.709807
Si Si6 0.564537 0.414877 0.500000
Si Si7 0.000550 0.393962 0.885203
Si Si8 0.898354 0.168616 0.903853
O O1 0.748989 0.580035 0.067932
O O2 0.838868 0.491275 0.073191
O O3 0.721989 0.454061 0.091727
O O4 0.751517 0.489426 0.000000
O O5 0.916126 0.083875 0.250000
O O6 0.866023 0.098312 0.348798
O O7 0.991895 0.087437 0.321673
O O8 0.804478 0.695523 0.086310
O O9 0.730794 0.635185 0.153303
O O10 0.675232 0.688296 0.082563
O O11 0.819951 0.500000 0.750000
O O12 0.908602 0.408602 0.736155
O O13 0.787748 0.385854 0.730522
O O14 0.855982 0.465877 0.662279
O O15 0.678716 0.678716 0.750000
O O16 0.732576 0.767425 0.700418
O O17 0.587160 0.487825 0.500000
O O18 0.587118 0.382468 0.448139
O O19 0.053628 0.446373 0.901675
O O20 0.935965 0.435965 0.872828
#
# Coordination Sequence:
#
# PCOD9572194 Si02
#       8
#    32  32  32  32  32  16  32  32
#     4  12  26  45  69 100 138 183 243 308 365 438
#     4   9  18  36  64  98 136 176 217 269 339 411
#     4  11  25  46  70  95 136 189 237 287 356 442
#     4  10  19  35  63 100 139 178 231 290 355 431
#     4   9  19  39  65  92 130 178 225 272 332 419
#     4  11  22  40  67  96 130 171 215 272 346 414
#     4  10  22  42  68  98 135 183 239 302 373 446
#     4  12  25  41  66 100 136 173 229 296 349 420
#
# _framework density 21.196542999999998
#
# number of rings (size 3 to 8) (size 9 to 14) (size 15 to 20)
#    0.000    1.533    2.000    3.600    0.933    5.200 
#    0.000    2.000    0.000    0.000    0.000    0.000 
#    0.000    0.267    0.000    0.000    0.000    0.000 
#
# Total GULP energy -668608.619588 kJ/mol
# GULP energy per Si atom -5571.738497 kJ/mol
# Density = 2.114830 g / cm^3
# Si number density = 21.196543 Si / 1000 Ang^3
#
#
#
# Elastic Constant Matrix: (Units=GPa)
#
#
# Indices 1 2 3 4 5 6 
#
# 1 101.5481 41.6118 13.5675 0.0000 0.0000 0.0000
# 2 41.6118 101.5477 13.5677 0.0000 0.0000 0.0000
# 3 13.5675 13.5677 66.4318 0.0000 0.0000 0.0000
# 4 0.0000 0.0000 0.0000 -391.8814 0.0000 0.0000
# 5 0.0000 0.0000 0.0000 0.0000 -391.9840 0.0000
# 6 0.0000 0.0000 0.0000 0.0000 0.0000 20.3214
#
#
#
# Elastic Compliance Matrix: (Units=1/GPa)
#
#
# Indices 1 2 3 4 5 6 
#
# 1 0.011975 -0.004709 -0.001484 0.000000 0.000000 0.000000
# 2 -0.004709 0.011976 -0.001484 0.000000 0.000000 0.000000
# 3 -0.001484 -0.001484 0.015659 0.000000 0.000000 0.000000
# 4 0.000000 0.000000 0.000000 -0.002552 0.000000 0.000000
# 5 0.000000 0.000000 0.000000 0.000000 -0.002551 0.000000
# 6 0.000000 0.000000 0.000000 0.000000 0.000000 0.049209
#
#
# Mechanical properties :
#
#
# Convention : Reuss Voigt Hill
#
# Bulk Modulus (GPa) = 41.22695 45.22462 43.22579
# Shear Modulus (GPa) = 46.66093 -139.32344 -46.33126
#
# Velocity S-wave (km/s) = 4.69694 -8.11616 -4.68032
# Velocity P-wave (km/s) = 6.99336 8.15151 2.96143
#
# Compressibility (1/GPa) = 0.02425598
#
# Stress axis : x y z
#
# Youngs Moduli (GPa) = 83.50419 83.50375 63.86016
#
# Poissons Ratio (x) = 0.39322 0.09477
# Poissons Ratio (y) = 0.39322 0.09477
# Poissons Ratio (z) = 0.12392 0.12393
#
# Static dielectric constant tensor:
#      x y z
#    x 1.819040 0.000000 0.000000 
#    y 0.000000 1.819040 0.000000 
#    z 0.000000 0.000000 1.836600 
# 
# From -- ./inp_files/10981.got.cif
#   From: 2010.05.17/outbox.cif.g08.bks.cpg/sg140_6_cif.got.tgz:10981.got - 2010.06.21 00:45:31.
