data_PCOD9572413
_publ_section_title
;
Structure prediction by ZEFSAII (Michael W. Deem and Ramdas Pophale) SiO2 
 PCOD9572413
Probable space group: I 4/M C M
;
_chemical_formula_sum "Si O2"
_cell_formula_units_Z 176
_cell_length_a 23.490473
_cell_length_b 23.490473
_cell_length_c 16.194297
_cell_angle_alpha 90.000000
_cell_angle_beta 90.000000
_cell_angle_gamma 90.000000
_cell_volume 8936.050684
_symmetry_space_group_name_H-M "I 4/M C M"
_symmetry_group_IT_number 140
_symmetry_cell_setting 'tetragonal'
loop_
_space_group_symop_operation_xyz
x,y,z
-y,x,z
-x,-y,z
y,-x,z
x,-y,1/2-z
-x,y,1/2-z
y,x,1/2-z
-y,-x,1/2-z
-x,-y,-z
y,-x,-z
x,y,-z
-y,x,-z
-x,y,1/2+z
x,-y,1/2+z
-y,-x,1/2+z
y,x,1/2+z
1/2+x,1/2+y,1/2+z
1/2-y,1/2+x,1/2+z
1/2-x,1/2-y,1/2+z
1/2+y,1/2-x,1/2+z
1/2+x,1/2-y,-z
1/2-x,1/2+y,-z
1/2+y,1/2+x,-z
1/2-y,1/2-x,-z
1/2-x,1/2-y,1/2-z
1/2+y,1/2-x,1/2-z
1/2+x,1/2+y,1/2-z
1/2-y,1/2+x,1/2-z
1/2-x,1/2+y,z
1/2+x,1/2-y,z
1/2-y,1/2-x,z
1/2+y,1/2+x,z
loop_
_atom_site_type_symbol
_atom_site_label
_atom_site_fract_x
_atom_site_fract_y
_atom_site_fract_z
Si Si1 0.232493 0.642544 0.902219
Si Si2 0.272113 0.984788 0.600145
Si Si3 0.143691 0.174283 0.156771
Si Si4 0.521609 0.591689 0.000000
Si Si5 0.850067 0.985142 0.658731
Si Si6 0.299242 0.108610 0.599159
O O1 0.193559 0.693559 0.866390
O O2 0.212638 0.579520 0.874378
O O3 0.299817 0.653330 0.890023
O O4 0.224017 0.642482 0.000000
O O5 0.260291 0.984020 0.500000
O O6 0.216007 0.999479 0.651719
O O7 0.309603 0.041335 0.614441
O O8 0.159704 0.159704 0.250000
O O9 0.082232 0.145727 0.139872
O O10 0.131763 0.241196 0.140649
O O11 0.459034 0.564974 0.000000
O O12 0.522978 0.624547 0.914347
O O13 0.872127 0.000000 0.750000
O O14 0.289903 0.114323 0.500000
O O15 0.351785 0.148216 0.622906
#
# Coordination Sequence:
#
# PCOD9572413 Si02
#       6
#    32  32  32  16  32  32
#     4  10  21  35  56  85 117 153 191 240 300 362
#     4   9  18  35  56  82 113 156 198 236 297 361
#     4  11  23  34  55  86 114 149 185 238 305 357
#     4  11  28  44  60  84 110 156 210 251 303 345
#     4  11  24  40  63  87 115 155 202 252 297 351
#     4   9  18  34  55  80 112 152 199 243 287 351
#
# _framework density 19.695501
#
# number of rings (size 3 to 8) (size 9 to 14) (size 15 to 20)
#    0.000    1.909    0.909    2.182    7.636    2.909 
#    0.000    0.909    0.000    0.545    0.000    3.818 
#    0.000    0.000    0.000    7.455    0.000    9.818 
#
# Total GULP energy -490556.961549 kJ/mol
# GULP energy per Si atom -5574.510927 kJ/mol
# Density = 1.965067 g / cm^3
# Si number density = 19.695501 Si / 1000 Ang^3
#
#
#
# Elastic Constant Matrix: (Units=GPa)
#
#
# Indices 1 2 3 4 5 6 
#
# 1 87.7565 60.9046 4.2642 0.0000 0.0000 0.0000
# 2 60.9046 87.7565 4.2642 0.0000 0.0000 0.0000
# 3 4.2642 4.2642 33.6261 0.0000 0.0000 0.0000
# 4 0.0000 0.0000 0.0000 158.2642 0.0000 0.0000
# 5 0.0000 0.0000 0.0000 0.0000 158.2642 0.0000
# 6 0.0000 0.0000 0.0000 0.0000 0.0000 39.9592
#
#
#
# Elastic Compliance Matrix: (Units=1/GPa)
#
#
# Indices 1 2 3 4 5 6 
#
# 1 0.022009 -0.015233 -0.000859 0.000000 0.000000 0.000000
# 2 -0.015233 0.022009 -0.000859 0.000000 0.000000 0.000000
# 3 -0.000859 -0.000859 0.029957 0.000000 0.000000 0.000000
# 4 0.000000 0.000000 0.000000 0.006319 0.000000 0.000000
# 5 0.000000 0.000000 0.000000 0.000000 0.006319 0.000000
# 6 0.000000 0.000000 0.000000 0.000000 0.000000 0.025025
#
#
# Mechanical properties :
#
#
# Convention : Reuss Voigt Hill
#
# Bulk Modulus (GPa) = 24.95532 38.66726 31.81129
# Shear Modulus (GPa) = 31.46704 80.61126 56.03915
#
# Velocity S-wave (km/s) = 4.00143 6.40450 5.33990
# Velocity P-wave (km/s) = 5.83495 8.62353 7.36247
#
# Compressibility (1/GPa) = 0.04007161
#
# Stress axis : x y z
#
# Youngs Moduli (GPa) = 45.43661 45.43661 33.38145
#
# Poissons Ratio (x) = 0.69212 0.02868
# Poissons Ratio (y) = 0.69212 0.02868
# Poissons Ratio (z) = 0.03904 0.03904
#
# Static dielectric constant tensor:
#      x y z
#    x 1.726010 0.000000 0.000000 
#    y 0.000000 1.726010 0.000000 
#    z 0.000000 0.000000 1.309960 
# 
# From -- ./inp_files/4890.got.cif
#   From: 2010.05.17/outbox.cif.g08.bks.cpg/sg140_3_cif.got.tgz:4890.got - 2010.06.21 00:45:31.
