data_PCOD9572308
_publ_section_title
;
Structure prediction by ZEFSAII (Michael W. Deem and Ramdas Pophale) SiO2 
 PCOD9572308
Probable space group: I 4/M C M
;
_chemical_formula_sum "Si O2"
_cell_formula_units_Z 176
_cell_length_a 24.411072
_cell_length_b 24.411072
_cell_length_c 15.125030
_cell_angle_alpha 90.000000
_cell_angle_beta 90.000000
_cell_angle_gamma 90.000000
_cell_volume 9013.011974
_symmetry_space_group_name_H-M "I 4/M C M"
_symmetry_group_IT_number 140
_symmetry_cell_setting 'tetragonal'
loop_
_space_group_symop_operation_xyz
x,y,z
-y,x,z
-x,-y,z
y,-x,z
x,-y,1/2-z
-x,y,1/2-z
y,x,1/2-z
-y,-x,1/2-z
-x,-y,-z
y,-x,-z
x,y,-z
-y,x,-z
-x,y,1/2+z
x,-y,1/2+z
-y,-x,1/2+z
y,x,1/2+z
1/2+x,1/2+y,1/2+z
1/2-y,1/2+x,1/2+z
1/2-x,1/2-y,1/2+z
1/2+y,1/2-x,1/2+z
1/2+x,1/2-y,-z
1/2-x,1/2+y,-z
1/2+y,1/2+x,-z
1/2-y,1/2-x,-z
1/2-x,1/2-y,1/2-z
1/2+y,1/2-x,1/2-z
1/2+x,1/2+y,1/2-z
1/2-y,1/2+x,1/2-z
1/2-x,1/2+y,z
1/2+x,1/2-y,z
1/2-y,1/2-x,z
1/2+y,1/2+x,z
loop_
_atom_site_type_symbol
_atom_site_label
_atom_site_fract_x
_atom_site_fract_y
_atom_site_fract_z
Si Si1 0.500000 0.408468 0.750000
Si Si2 0.176807 0.022996 0.600685
Si Si3 0.599170 0.099170 0.892380
Si Si4 0.713366 0.369265 0.705259
Si Si5 0.454117 0.772424 0.673723
Si Si6 0.111799 0.474889 0.606520
Si Si7 0.309948 0.809948 0.893015
O O1 0.552808 0.447193 0.750000
O O2 0.499537 0.369659 0.835201
O O3 0.159183 0.028152 0.500000
O O4 0.192832 0.081965 0.641339
O O5 0.228976 0.982536 0.608083
O O6 0.537795 0.113067 0.861873
O O7 0.644155 0.144155 0.868065
O O8 0.598783 0.098783 0.000000
O O9 0.664460 0.335541 0.750000
O O10 0.747482 0.400251 0.781864
O O11 0.753318 0.330026 0.649570
O O12 0.500000 0.777824 0.750000
O O13 0.446193 0.831712 0.632232
O O14 0.108131 0.477259 0.500000
O O15 0.059729 0.440272 0.638734
O O16 0.307039 0.807039 0.000000
#
# Coordination Sequence:
#
# PCOD9572308 Si02
#       7
#    16  32  16  32  32  32  16
#     4  11  24  44  64  96 140 170 207 266 338 400
#     4  11  22  41  69  96 126 169 223 269 321 396
#     4   9  17  33  60  85 114 155 207 259 303 369
#     4  11  23  42  65  89 127 171 212 273 336 390
#     4  10  21  38  59  86 122 160 206 258 323 379
#     4  10  20  35  56  85 121 160 202 252 314 381
#     4  11  23  40  65  94 120 165 227 277 326 393
#
# _framework density 19.527324
#
# number of rings (size 3 to 8) (size 9 to 14) (size 15 to 20)
#    0.000    1.545    2.727    4.364    1.273    3.273 
#    1.636    3.636    0.000    0.000    0.000    0.000 
#    0.000    0.000    0.000    0.000    0.000    0.000 
#
# Total GULP energy -491842.213583 kJ/mol
# GULP energy per Si atom -5589.116063 kJ/mol
# Density = 1.948288 g / cm^3
# Si number density = 19.527324 Si / 1000 Ang^3
#
#
#
# Elastic Constant Matrix: (Units=GPa)
#
#
# Indices 1 2 3 4 5 6 
#
# 1 57.0634 16.4045 34.4469 0.0000 0.0000 0.0000
# 2 16.4045 57.0567 34.4436 0.0000 0.0000 0.0000
# 3 34.4469 34.4436 93.8209 0.0000 0.0000 0.0000
# 4 0.0000 0.0000 0.0000 4.2021 0.0000 0.0000
# 5 0.0000 0.0000 0.0000 0.0000 4.2673 0.0000
# 6 0.0000 0.0000 0.0000 0.0000 0.0000 27.2691
#
#
#
# Elastic Compliance Matrix: (Units=1/GPa)
#
#
# Indices 1 2 3 4 5 6 
#
# 1 0.022677 -0.001919 -0.007621 0.000000 0.000000 0.000000
# 2 -0.001919 0.022679 -0.007621 0.000000 0.000000 0.000000
# 3 -0.007621 -0.007621 0.016255 0.000000 0.000000 0.000000
# 4 0.000000 0.000000 0.000000 0.237979 0.000000 0.000000
# 5 0.000000 0.000000 0.000000 0.000000 0.234342 0.000000
# 6 0.000000 0.000000 0.000000 0.000000 0.000000 0.036672
#
#
# Mechanical properties :
#
#
# Convention : Reuss Voigt Hill
#
# Bulk Modulus (GPa) = 36.64746 42.05901 39.35323
# Shear Modulus (GPa) = 8.14303 15.32408 11.73356
#
# Velocity S-wave (km/s) = 2.04429 2.80438 2.45394
# Velocity P-wave (km/s) = 4.93763 5.66316 5.31279
#
# Compressibility (1/GPa) = 0.02728702
#
# Stress axis : x y z
#
# Youngs Moduli (GPa) = 44.09792 44.09373 61.52032
#
# Poissons Ratio (x) = 0.08462 0.46887
# Poissons Ratio (y) = 0.08463 0.46887
# Poissons Ratio (z) = 0.33609 0.33605
#
# Static dielectric constant tensor:
#      x y z
#    x 1.679810 0.000000 0.000000 
#    y 0.000000 1.679810 0.000000 
#    z 0.000000 0.000000 1.676900 
# 
# From -- ./inp_files/4978.got.cif
#   From: 2010.05.17/outbox.cif.g08.bks.cpg/sg140_3_cif.got.tgz:4978.got - 2010.06.21 00:45:31.
