data_PCOD9572046
_publ_section_title
;
Structure prediction by ZEFSAII (Michael W. Deem and Ramdas Pophale) SiO2 
 PCOD9572046
Probable space group: I 4/M C M
;
_chemical_formula_sum "Si O2"
_cell_formula_units_Z 240
_cell_length_a 21.430642
_cell_length_b 21.430642
_cell_length_c 27.140604
_cell_angle_alpha 90.000000
_cell_angle_beta 90.000000
_cell_angle_gamma 90.000000
_cell_volume 12464.930785
_symmetry_space_group_name_H-M "I 4/M C M"
_symmetry_group_IT_number 140
_symmetry_cell_setting 'tetragonal'
loop_
_space_group_symop_operation_xyz
x,y,z
-y,x,z
-x,-y,z
y,-x,z
x,-y,1/2-z
-x,y,1/2-z
y,x,1/2-z
-y,-x,1/2-z
-x,-y,-z
y,-x,-z
x,y,-z
-y,x,-z
-x,y,1/2+z
x,-y,1/2+z
-y,-x,1/2+z
y,x,1/2+z
1/2+x,1/2+y,1/2+z
1/2-y,1/2+x,1/2+z
1/2-x,1/2-y,1/2+z
1/2+y,1/2-x,1/2+z
1/2+x,1/2-y,-z
1/2-x,1/2+y,-z
1/2+y,1/2+x,-z
1/2-y,1/2-x,-z
1/2-x,1/2-y,1/2-z
1/2+y,1/2-x,1/2-z
1/2+x,1/2+y,1/2-z
1/2-y,1/2+x,1/2-z
1/2-x,1/2+y,z
1/2+x,1/2-y,z
1/2-y,1/2-x,z
1/2+y,1/2+x,z
loop_
_atom_site_type_symbol
_atom_site_label
_atom_site_fract_x
_atom_site_fract_y
_atom_site_fract_z
Si Si1 0.729854 0.864453 0.210470
Si Si2 0.946363 0.446363 0.556841
Si Si3 0.994398 0.784283 0.306957
Si Si4 0.453996 0.851352 0.560204
Si Si5 0.791773 0.071486 0.557959
Si Si6 0.804422 0.207072 0.881033
Si Si7 0.780548 0.621074 0.824156
Si Si8 0.009309 0.894558 0.114997
O O1 0.660112 0.839888 0.202732
O O2 0.772371 0.824701 0.173899
O O3 0.742072 0.858411 0.268773
O O4 0.742609 0.933164 0.192658
O O5 0.930613 0.430613 0.500000
O O6 0.886354 0.482782 0.578134
O O7 0.000000 0.500000 0.555597
O O8 0.049599 0.738786 0.323615
O O9 0.989810 0.847034 0.338865
O O10 0.000000 0.803832 0.250000
O O11 0.455651 0.853892 0.500000
O O12 0.393784 0.893784 0.574861
O O13 0.448346 0.778591 0.573466
O O14 0.790568 0.083368 0.500000
O O15 0.807122 0.135003 0.587324
O O16 0.845441 0.021559 0.570932
O O17 0.764759 0.264759 0.902839
O O18 0.757736 0.151231 0.869099
O O19 0.850332 0.649669 0.827570
O O20 0.065369 0.945540 0.114753
#
# Coordination Sequence:
#
# PCOD9572046 Si02
#       8
#    32  16  32  32  32  32  32  32
#     4   9  17  31  53  86 121 154 190 229 284 355
#     4   7  10  20  42  74 112 146 176 217 274 338
#     4  10  20  35  61  91 119 151 187 238 295 350
#     4   8  14  26  48  82 116 144 182 231 282 336
#     4  11  22  36  56  82 111 150 199 250 293 341
#     4  10  18  31  52  81 118 153 186 236 295 350
#     4   9  18  32  55  86 120 154 188 228 290 359
#     4  11  25  44  61  79 109 147 195 249 299 361
#
# _framework density 19.254017999999999
#
# number of rings (size 3 to 8) (size 9 to 14) (size 15 to 20)
#    0.000    2.467    1.333    2.400    0.000    3.467 
#    0.000    1.333    1.467    0.400    0.000    2.800 
#    0.000    0.000    0.000    0.000    0.000    0.000 
#
# Total GULP energy -668085.999625 kJ/mol
# GULP energy per Si atom -5567.383330 kJ/mol
# Density = 1.921019 g / cm^3
# Si number density = 19.254018 Si / 1000 Ang^3
#
#
#
# Elastic Constant Matrix: (Units=GPa)
#
#
# Indices 1 2 3 4 5 6 
#
# 1 108.4101 83.1338 28.7295 0.0000 0.0000 0.0000
# 2 83.1338 108.4101 28.7295 0.0000 0.0000 0.0000
# 3 28.7295 28.7295 46.8896 0.0000 0.0000 0.0000
# 4 0.0000 0.0000 0.0000 19.4856 0.0000 0.0000
# 5 0.0000 0.0000 0.0000 0.0000 19.4856 0.0000
# 6 0.0000 0.0000 0.0000 0.0000 0.0000 21.2098
#
#
#
# Elastic Compliance Matrix: (Units=1/GPa)
#
#
# Indices 1 2 3 4 5 6 
#
# 1 0.022980 -0.016583 -0.003919 0.000000 0.000000 0.000000
# 2 -0.016583 0.022980 -0.003919 0.000000 0.000000 0.000000
# 3 -0.003919 -0.003919 0.026129 0.000000 0.000000 0.000000
# 4 0.000000 0.000000 0.000000 0.051320 0.000000 0.000000
# 5 0.000000 0.000000 0.000000 0.000000 0.051320 0.000000
# 6 0.000000 0.000000 0.000000 0.000000 0.000000 0.047148
#
#
# Mechanical properties :
#
#
# Convention : Reuss Voigt Hill
#
# Bulk Modulus (GPa) = 43.01895 60.54393 51.78144
# Shear Modulus (GPa) = 17.95543 20.24401 19.09972
#
# Velocity S-wave (km/s) = 3.05709 3.24607 3.15300
# Velocity P-wave (km/s) = 5.90359 6.74999 6.34093
#
# Compressibility (1/GPa) = 0.02324557
#
# Stress axis : x y z
#
# Youngs Moduli (GPa) = 43.51693 43.51693 38.27139
#
# Poissons Ratio (x) = 0.72165 0.14999
# Poissons Ratio (y) = 0.72165 0.14999
# Poissons Ratio (z) = 0.17055 0.17055
#
# Static dielectric constant tensor:
#      x y z
#    x 1.705370 0.000000 0.000000 
#    y 0.000000 1.705370 0.000000 
#    z 0.000000 0.000000 1.696700 
# 
# From -- ./inp_files/10988.got.cif
#   From: 2010.05.17/outbox.cif.g08.bks.cpg/sg140_6_cif.got.tgz:10988.got - 2010.06.21 00:45:31.
