data_PCOD9572229
_publ_section_title
;
Structure prediction by ZEFSAII (Michael W. Deem and Ramdas Pophale) SiO2 
 PCOD9572229
Probable space group: I 4/M C M
;
_chemical_formula_sum "Si O2"
_cell_formula_units_Z 160
_cell_length_a 33.565491
_cell_length_b 33.565491
_cell_length_c 7.531702
_cell_angle_alpha 90.000000
_cell_angle_beta 90.000000
_cell_angle_gamma 90.000000
_cell_volume 8485.533206
_symmetry_space_group_name_H-M "I 4/M C M"
_symmetry_group_IT_number 140
_symmetry_cell_setting 'tetragonal'
loop_
_space_group_symop_operation_xyz
x,y,z
-y,x,z
-x,-y,z
y,-x,z
x,-y,1/2-z
-x,y,1/2-z
y,x,1/2-z
-y,-x,1/2-z
-x,-y,-z
y,-x,-z
x,y,-z
-y,x,-z
-x,y,1/2+z
x,-y,1/2+z
-y,-x,1/2+z
y,x,1/2+z
1/2+x,1/2+y,1/2+z
1/2-y,1/2+x,1/2+z
1/2-x,1/2-y,1/2+z
1/2+y,1/2-x,1/2+z
1/2+x,1/2-y,-z
1/2-x,1/2+y,-z
1/2+y,1/2+x,-z
1/2-y,1/2-x,-z
1/2-x,1/2-y,1/2-z
1/2+y,1/2-x,1/2-z
1/2+x,1/2+y,1/2-z
1/2-y,1/2+x,1/2-z
1/2-x,1/2+y,z
1/2+x,1/2-y,z
1/2-y,1/2-x,z
1/2+y,1/2+x,z
loop_
_atom_site_type_symbol
_atom_site_label
_atom_site_fract_x
_atom_site_fract_y
_atom_site_fract_z
Si Si1 0.724598 0.161804 0.716212
Si Si2 0.955619 0.220817 0.787683
Si Si3 0.574893 0.805377 0.216278
Si Si4 0.128571 0.808057 0.787646
Si Si5 0.890718 0.545649 0.287112
O O1 0.725313 0.163576 0.500000
O O2 0.700558 0.200558 0.778704
O O3 0.700942 0.121254 0.763435
O O4 0.769869 0.154252 0.777664
O O5 0.949100 0.266279 0.722812
O O6 0.916926 0.196475 0.722369
O O7 0.000000 0.206196 0.750000
O O8 0.952527 0.222158 0.000000
O O9 0.557044 0.846785 0.280897
O O10 0.573540 0.805558 0.000000
O O11 0.151388 0.848613 0.750000
O O12 0.127097 0.804006 0.000000
O O13 0.900237 0.500000 0.250000
O O14 0.889207 0.550228 0.500000
O O15 0.923923 0.576078 0.218878
#
# Coordination Sequence:
#
# PCOD9572229 Si02
#       5
#    32  32  32  32  32
#     4   8  13  23  41  63  86 114 148 183 215 249
#     4   9  17  29  46  68  91 114 143 179 217 256
#     4   8  14  26  44  65  86 106 134 175 219 261
#     4   9  18  30  43  63  91 121 152 183 214 251
#     4  10  20  32  46  62  78 100 132 170 215 267
#
# _framework density 18.855620999999999
#
# number of rings (size 3 to 8) (size 9 to 14) (size 15 to 20)
#    0.000    3.200    0.000    3.600    0.000    4.200 
#    0.000    1.000    0.000    1.200    0.000    0.000 
#    0.000    0.400    0.000    4.400    0.000    3.200 
#
# Total GULP energy -446090.447016 kJ/mol
# GULP energy per Si atom -5576.130588 kJ/mol
# Density = 1.881270 g / cm^3
# Si number density = 18.855621 Si / 1000 Ang^3
#
#
#
# Elastic Constant Matrix: (Units=GPa)
#
#
# Indices 1 2 3 4 5 6 
#
# 1 119.2039 93.3552 3.1479 0.0000 0.0000 0.0000
# 2 93.3552 119.1979 3.1490 0.0000 0.0000 0.0000
# 3 3.1479 3.1490 45.2183 0.0000 0.0000 0.0000
# 4 0.0000 0.0000 0.0000 8.4493 0.0000 0.0000
# 5 0.0000 0.0000 0.0000 0.0000 8.4498 0.0000
# 6 0.0000 0.0000 0.0000 0.0000 0.0000 20.1501
#
#
#
# Elastic Compliance Matrix: (Units=1/GPa)
#
#
# Indices 1 2 3 4 5 6 
#
# 1 0.021702 -0.016988 -0.000328 0.000000 0.000000 0.000000
# 2 -0.016988 0.021703 -0.000329 0.000000 0.000000 0.000000
# 3 -0.000328 -0.000329 0.022161 0.000000 0.000000 0.000000
# 4 0.000000 0.000000 0.000000 0.118353 0.000000 0.000000
# 5 0.000000 0.000000 0.000000 0.000000 0.118346 0.000000
# 6 0.000000 0.000000 0.000000 0.000000 0.000000 0.049628
#
#
# Mechanical properties :
#
#
# Convention : Reuss Voigt Hill
#
# Bulk Modulus (GPa) = 33.02905 53.65827 43.34366
# Shear Modulus (GPa) = 12.58576 19.67436 16.13006
#
# Velocity S-wave (km/s) = 2.58637 3.23371 2.92798
# Velocity P-wave (km/s) = 5.14528 6.51626 5.87093
#
# Compressibility (1/GPa) = 0.03027638
#
# Stress axis : x y z
#
# Youngs Moduli (GPa) = 46.07822 46.07584 45.12501
#
# Poissons Ratio (x) = 0.78276 0.01479
# Poissons Ratio (y) = 0.78280 0.01483
# Poissons Ratio (z) = 0.01510 0.01515
#
# Static dielectric constant tensor:
#      x y z
#    x 1.656730 0.000000 0.000000 
#    y 0.000000 1.656730 0.000000 
#    z 0.000000 0.000000 1.733420 
# 
# From -- ./inp_files/3147.got.cif
#   From: 2010.05.17/outbox.cif.g08.bks.cpg/sg140_2_cif.got.tgz:3147.got - 2010.06.21 00:45:31.
