data_PCOD9572838
_publ_section_title
;
Structure prediction by ZEFSAII (Michael W. Deem and Ramdas Pophale) SiO2 
 PCOD9572838
Probable space group: I 41/A M D
;
_chemical_formula_sum "Si O2"
_cell_formula_units_Z 192
_cell_length_a 21.355706
_cell_length_b 21.355706
_cell_length_c 24.494279
_cell_angle_alpha 90.000000
_cell_angle_beta 90.000000
_cell_angle_gamma 90.000000
_cell_volume 11171.012225
_symmetry_space_group_name_H-M "I 41/A M D"
_symmetry_group_IT_number 141
_space_group.IT_coordinate_system_code '2'
_symmetry_cell_setting 'tetragonal'
loop_
_space_group_symop_operation_xyz
x,y,z
1/4-y,3/4+x,1/4+z
-x,1/2-y,z
1/4+y,1/4-x,3/4+z
x,-y,-z
-x,1/2+y,-z
1/4+y,3/4+x,1/4-z
1/4-y,1/4-x,3/4-z
-x,-y,-z
3/4+y,1/4-x,3/4-z
x,1/2+y,-z
3/4-y,3/4+x,1/4-z
-x,y,z
x,1/2-y,z
3/4-y,1/4-x,3/4+z
3/4+y,3/4+x,1/4+z
1/2+x,1/2+y,1/2+z
3/4-y,1/4+x,3/4+z
1/2-x,-y,1/2+z
3/4+y,3/4-x,1/4+z
1/2+x,1/2-y,1/2-z
1/2-x,y,1/2-z
3/4+y,1/4+x,3/4-z
3/4-y,3/4-x,1/4-z
1/2-x,1/2-y,1/2-z
1/4+y,3/4-x,1/4-z
1/2+x,y,1/2-z
1/4-y,1/4+x,3/4-z
1/2-x,1/2+y,1/2+z
1/2+x,-y,1/2+z
1/4-y,3/4-x,1/4+z
1/4+y,1/4+x,3/4+z
loop_
_atom_site_type_symbol
_atom_site_label
_atom_site_fract_x
_atom_site_fract_y
_atom_site_fract_z
Si Si1 0.143464 0.990634 0.909690
Si Si2 0.119626 0.175329 0.702002
Si Si3 0.070766 0.324833 0.584985
Si Si4 0.788460 0.043347 0.433415
Si Si5 0.683548 0.594514 0.044359
Si Si6 0.074033 0.879700 0.071821
O O1 0.105194 0.936969 0.940758
O O2 0.216043 0.979123 0.925776
O O3 0.135883 0.978969 0.844423
O O4 0.116014 0.057800 0.924182
O O5 0.126057 0.250000 0.699877
O O6 0.078432 0.157912 0.649336
O O7 0.098100 0.160157 0.763378
O O8 0.082254 0.250000 0.580206
O O9 0.122084 0.364098 0.552303
O O10 0.000000 0.337493 0.567521
O O11 0.814258 0.064258 0.375000
O O12 0.791319 0.092621 0.482552
O O13 0.826358 0.979521 0.445216
O O14 0.088993 0.838993 0.125000
O O15 0.000000 0.895674 0.071406
#
# Coordination Sequence:
#
# PCOD9572838 Si02
#       6
#    32  32  32  32  32  32
#     4  10  19  31  53  76 102 135 172 211 259 314
#     4   9  19  33  51  73  99 133 178 224 255 296
#     4   9  18  35  57  75  94 128 173 217 253 290
#     4   9  18  31  51  76 105 139 155 193 257 317
#     4   9  18  31  50  79 102 126 168 205 246 306
#     4  11  23  34  47  69 100 141 181 220 264 306
#
# _framework density 17.187341
#
# number of rings (size 3 to 8) (size 9 to 14) (size 15 to 20)
#    0.000    2.500    0.000    2.500    7.000    2.833 
#    0.000    3.333    0.000    5.000    0.000    1.167 
#    0.000    0.000    0.000    0.000    0.000    0.000 
#
# Total GULP energy -534505.579134 kJ/mol
# GULP energy per Si atom -5567.766449 kJ/mol
# Density = 1.714822 g / cm^3
# Si number density = 17.187341 Si / 1000 Ang^3
#
#
#
# Elastic Constant Matrix: (Units=GPa)
#
#
# Indices 1 2 3 4 5 6 
#
# 1 31.9672 20.1915 16.7359 0.0000 0.0000 0.0000
# 2 20.1915 31.9672 16.7359 0.0000 0.0000 0.0000
# 3 16.7359 16.7359 123.8685 0.0000 0.0000 0.0000
# 4 0.0000 0.0000 0.0000 16.3142 0.0000 0.0000
# 5 0.0000 0.0000 0.0000 0.0000 16.3142 0.0000
# 6 0.0000 0.0000 0.0000 0.0000 0.0000 23.8895
#
#
#
# Elastic Compliance Matrix: (Units=1/GPa)
#
#
# Indices 1 2 3 4 5 6 
#
# 1 0.052956 -0.031964 -0.002836 0.000000 0.000000 0.000000
# 2 -0.031964 0.052956 -0.002836 0.000000 0.000000 0.000000
# 3 -0.002836 -0.002836 0.008840 0.000000 0.000000 0.000000
# 4 0.000000 0.000000 0.000000 0.061296 0.000000 0.000000
# 5 0.000000 0.000000 0.000000 0.000000 0.061296 0.000000
# 6 0.000000 0.000000 0.000000 0.000000 0.000000 0.041859
#
#
# Mechanical properties :
#
#
# Convention : Reuss Voigt Hill
#
# Bulk Modulus (GPa) = 25.32984 32.79218 29.06101
# Shear Modulus (GPa) = 13.60036 20.24621 16.92328
#
# Velocity S-wave (km/s) = 2.81606 3.43588 3.14130
# Velocity P-wave (km/s) = 5.03419 5.90433 5.48654
#
# Compressibility (1/GPa) = 0.03947912
#
# Stress axis : x y z
#
# Youngs Moduli (GPa) = 18.88346 18.88346 113.12849
#
# Poissons Ratio (x) = 0.60359 0.32087
# Poissons Ratio (y) = 0.60359 0.32087
# Poissons Ratio (z) = 0.05356 0.05356
#
# Static dielectric constant tensor:
#      x y z
#    x 1.567580 0.000000 0.000000 
#    y 0.000000 1.567580 0.000000 
#    z 0.000000 0.000000 1.668620 
# 
# From -- ./inp_files/11709.got.cif
#   From: 2010.05.17/outbox.cif.g08.bks.cpg/sg141_6_cif.got.tgz:11709.got - 2010.05.20 13:30:51.
