data_PCOD9572180
_publ_section_title
;
Structure prediction by ZEFSAII (Michael W. Deem and Ramdas Pophale) SiO2 
 PCOD9572180
Probable space group: I 4/M C M
;
_chemical_formula_sum "Si O2"
_cell_formula_units_Z 104
_cell_length_a 13.331429
_cell_length_b 13.331429
_cell_length_c 24.603940
_cell_angle_alpha 90.000000
_cell_angle_beta 90.000000
_cell_angle_gamma 90.000000
_cell_volume 4372.784424
_symmetry_space_group_name_H-M "I 4/M C M"
_symmetry_group_IT_number 140
_symmetry_cell_setting 'tetragonal'
loop_
_space_group_symop_operation_xyz
x,y,z
-y,x,z
-x,-y,z
y,-x,z
x,-y,1/2-z
-x,y,1/2-z
y,x,1/2-z
-y,-x,1/2-z
-x,-y,-z
y,-x,-z
x,y,-z
-y,x,-z
-x,y,1/2+z
x,-y,1/2+z
-y,-x,1/2+z
y,x,1/2+z
1/2+x,1/2+y,1/2+z
1/2-y,1/2+x,1/2+z
1/2-x,1/2-y,1/2+z
1/2+y,1/2-x,1/2+z
1/2+x,1/2-y,-z
1/2-x,1/2+y,-z
1/2+y,1/2+x,-z
1/2-y,1/2-x,-z
1/2-x,1/2-y,1/2-z
1/2+y,1/2-x,1/2-z
1/2+x,1/2+y,1/2-z
1/2-y,1/2+x,1/2-z
1/2-x,1/2+y,z
1/2+x,1/2-y,z
1/2-y,1/2-x,z
1/2+y,1/2+x,z
loop_
_atom_site_type_symbol
_atom_site_label
_atom_site_fract_x
_atom_site_fract_y
_atom_site_fract_z
Si Si1 0.583046 0.916955 0.121211
Si Si2 0.719123 0.944029 0.302368
Si Si3 0.268676 0.073970 0.500000
Si Si4 0.856346 0.912555 0.604621
Si Si5 0.361169 0.861169 0.500000
O O1 0.522921 0.837633 0.158034
O O2 0.629894 0.870107 0.067391
O O3 0.500000 0.000000 0.102993
O O4 0.634286 0.865714 0.283858
O O5 0.800501 0.888794 0.339443
O O6 0.761538 0.000000 0.250000
O O7 0.379898 0.120103 0.500000
O O8 0.210952 0.113768 0.552794
O O9 0.280262 0.955200 0.500000
O O10 0.967018 0.869137 0.602461
#
# Coordination Sequence:
#
# PCOD9572180 Si02
#       5
#    16  32  16  32   8
#     4  10  19  34  62  96 136 171 205 270 358 404
#     4  11  22  41  68 101 134 170 222 281 344 405
#     4  12  23  43  70 103 134 164 220 283 345 407
#     4  11  26  48  66  89 136 189 226 269 338 411
#     4  12  21  36  68 104 136 164 202 281 350 403
#
# _framework density 23.783473000000001
#
# number of rings (size 3 to 8) (size 9 to 14) (size 15 to 20)
#    0.000    0.923    4.615    3.231    0.000    2.462 
#   13.846    3.077    0.000    0.000    0.000    0.000 
#    0.000    0.000    0.000    0.000    0.000    0.000 
#
# Total GULP energy -290339.874591 kJ/mol
# GULP energy per Si atom -5583.459127 kJ/mol
# Density = 2.372934 g / cm^3
# Si number density = 23.783473 Si / 1000 Ang^3
#
#
#
# Elastic Constant Matrix: (Units=GPa)
#
#
# Indices 1 2 3 4 5 6 
#
# 1 46.7417 3.3381 9.2787 0.0000 0.0000 0.0000
# 2 3.3381 46.7449 9.2787 0.0000 0.0000 0.0000
# 3 9.2787 9.2787 129.7544 0.0000 0.0000 0.0000
# 4 0.0000 0.0000 0.0000 13.2230 0.0000 0.0000
# 5 0.0000 0.0000 0.0000 0.0000 13.2224 0.0000
# 6 0.0000 0.0000 0.0000 0.0000 0.0000 26.1748
#
#
#
# Elastic Compliance Matrix: (Units=1/GPa)
#
#
# Indices 1 2 3 4 5 6 
#
# 1 0.021776 -0.001264 -0.001467 0.000000 0.000000 0.000000
# 2 -0.001264 0.021774 -0.001467 0.000000 0.000000 0.000000
# 3 -0.001467 -0.001467 0.007917 0.000000 0.000000 0.000000
# 4 0.000000 0.000000 0.000000 0.075626 0.000000 0.000000
# 5 0.000000 0.000000 0.000000 0.000000 0.075629 0.000000
# 6 0.000000 0.000000 0.000000 0.000000 0.000000 0.038205
#
#
# Mechanical properties :
#
#
# Convention : Reuss Voigt Hill
#
# Bulk Modulus (GPa) = 23.21711 29.67021 26.44366
# Shear Modulus (GPa) = 18.96251 23.94706 21.45479
#
# Velocity S-wave (km/s) = 2.82671 3.17658 3.00674
# Velocity P-wave (km/s) = 4.52071 5.09474 4.81628
#
# Compressibility (1/GPa) = 0.04307169
#
# Stress axis : x y z
#
# Youngs Moduli (GPa) = 45.92290 45.92614 126.31622
#
# Poissons Ratio (x) = 0.05804 0.18528
# Poissons Ratio (y) = 0.05804 0.18526
# Poissons Ratio (z) = 0.06736 0.06736
#
# Static dielectric constant tensor:
#      x y z
#    x 1.899100 0.000000 0.000000 
#    y 0.000000 1.899100 0.000000 
#    z 0.000000 0.000000 1.866810 
# 
# From -- ./inp_files/9111.got.cif
#   From: 2010.05.17/outbox.cif.g08.bks.cpg/sg140_5_cif.got.tgz:9111.got - 2010.06.21 00:45:31.
