data_PCOD9572381
_publ_section_title
;
Structure prediction by ZEFSAII (Michael W. Deem and Ramdas Pophale) SiO2 
 PCOD9572381
Probable space group: I 4/M C M
;
_chemical_formula_sum "Si O2"
_cell_formula_units_Z 176
_cell_length_a 17.102903
_cell_length_b 17.102903
_cell_length_c 28.995599
_cell_angle_alpha 90.000000
_cell_angle_beta 90.000000
_cell_angle_gamma 90.000000
_cell_volume 8481.482106
_symmetry_space_group_name_H-M "I 4/M C M"
_symmetry_group_IT_number 140
_symmetry_cell_setting 'tetragonal'
loop_
_space_group_symop_operation_xyz
x,y,z
-y,x,z
-x,-y,z
y,-x,z
x,-y,1/2-z
-x,y,1/2-z
y,x,1/2-z
-y,-x,1/2-z
-x,-y,-z
y,-x,-z
x,y,-z
-y,x,-z
-x,y,1/2+z
x,-y,1/2+z
-y,-x,1/2+z
y,x,1/2+z
1/2+x,1/2+y,1/2+z
1/2-y,1/2+x,1/2+z
1/2-x,1/2-y,1/2+z
1/2+y,1/2-x,1/2+z
1/2+x,1/2-y,-z
1/2-x,1/2+y,-z
1/2+y,1/2+x,-z
1/2-y,1/2-x,-z
1/2-x,1/2-y,1/2-z
1/2+y,1/2-x,1/2-z
1/2+x,1/2+y,1/2-z
1/2-y,1/2+x,1/2-z
1/2-x,1/2+y,z
1/2+x,1/2-y,z
1/2-y,1/2-x,z
1/2+y,1/2+x,z
loop_
_atom_site_type_symbol
_atom_site_label
_atom_site_fract_x
_atom_site_fract_y
_atom_site_fract_z
Si Si1 0.259335 0.955072 0.676902
Si Si2 0.881255 0.500000 0.250000
Si Si3 0.290908 0.024997 0.581772
Si Si4 0.481652 0.376646 0.944788
Si Si5 0.900599 0.400599 0.052652
Si Si6 0.301767 0.198234 0.873788
Si Si7 0.796928 0.703073 0.946540
Si Si8 0.000000 0.868910 0.750000
O O1 0.254874 0.867058 0.656124
O O2 0.327770 0.955291 0.714246
O O3 0.285879 0.014502 0.636639
O O4 0.184908 0.988250 0.704597
O O5 0.937587 0.437587 0.274271
O O6 0.213958 0.975732 0.566733
O O7 0.281687 0.111404 0.562228
O O8 0.370588 0.987761 0.562338
O O9 0.564345 0.413811 0.928067
O O10 0.481205 0.381922 0.000000
O O11 0.852413 0.352413 0.090337
O O12 0.881116 0.381116 0.000000
O O13 0.248862 0.251139 0.906599
O O14 0.776903 0.723098 0.000000
O O15 0.924663 0.924663 0.750000
#
# Coordination Sequence:
#
# PCOD9572381 Si02
#       8
#    32  16  32  32  16  16  16  16
#     4  10  23  43  65 100 134 171 222 271 348 405
#     4  10  20  40  72  96 130 166 212 280 334 412
#     4  11  25  40  64  93 132 177 226 280 332 411
#     4   9  19  36  58  86 120 164 220 278 333 391
#     4  10  21  41  64  89 126 178 221 279 345 392
#     4  10  23  42  65  97 136 174 224 282 325 402
#     4  12  27  43  63  98 136 183 237 284 327 388
#     4  10  24  44  70 100 136 174 214 276 346 432
#
# _framework density 20.751090000000001
#
# number of rings (size 3 to 8) (size 9 to 14) (size 15 to 20)
#    0.000    1.818    0.909    2.455    8.909    0.364 
#    0.000    3.182    0.000    0.000    0.000    0.000 
#    0.000    0.000    0.000    0.000    0.000    0.000 
#
# Total GULP energy -490824.953162 kJ/mol
# GULP energy per Si atom -5577.556286 kJ/mol
# Density = 2.070386 g / cm^3
# Si number density = 20.751090 Si / 1000 Ang^3
#
#
#
# Elastic Constant Matrix: (Units=GPa)
#
#
# Indices 1 2 3 4 5 6 
#
# 1 86.3449 45.7417 35.4545 0.0000 0.0000 0.0000
# 2 45.7417 86.3443 35.4542 0.0000 0.0000 0.0000
# 3 35.4545 35.4542 101.7195 0.0000 0.0000 0.0000
# 4 0.0000 0.0000 0.0000 22.0426 0.0000 0.0000
# 5 0.0000 0.0000 0.0000 0.0000 22.0427 0.0000
# 6 0.0000 0.0000 0.0000 0.0000 0.0000 23.0956
#
#
#
# Elastic Compliance Matrix: (Units=1/GPa)
#
#
# Indices 1 2 3 4 5 6 
#
# 1 0.016971 -0.007658 -0.003246 0.000000 0.000000 0.000000
# 2 -0.007658 0.016971 -0.003246 0.000000 0.000000 0.000000
# 3 -0.003246 -0.003246 0.012094 0.000000 0.000000 0.000000
# 4 0.000000 0.000000 0.000000 0.045367 0.000000 0.000000
# 5 0.000000 0.000000 0.000000 0.000000 0.045366 0.000000
# 6 0.000000 0.000000 0.000000 0.000000 0.000000 0.043298
#
#
# Mechanical properties :
#
#
# Convention : Reuss Voigt Hill
#
# Bulk Modulus (GPa) = 56.38249 56.41218 56.39734
# Shear Modulus (GPa) = 23.33397 23.95339 23.64368
#
# Velocity S-wave (km/s) = 3.35695 3.40121 3.37915
# Velocity P-wave (km/s) = 6.50041 6.53211 6.51628
#
# Compressibility (1/GPa) = 0.01773600
#
# Stress axis : x y z
#
# Youngs Moduli (GPa) = 58.92371 58.92340 82.68626
#
# Poissons Ratio (x) = 0.45121 0.26842
# Poissons Ratio (y) = 0.45122 0.26842
# Poissons Ratio (z) = 0.19128 0.19128
#
# Static dielectric constant tensor:
#      x y z
#    x 1.783430 0.000000 0.000000 
#    y 0.000000 1.783430 0.000000 
#    z 0.000000 0.000000 1.714080 
# 
# From -- ./inp_files/10802.got.cif
#   From: 2010.05.17/outbox.cif.g08.bks.cpg/sg140_6_cif.got.tgz:10802.got - 2010.06.21 00:45:31.
