data_PCOD9572786
_publ_section_title
;
Structure prediction by ZEFSAII (Michael W. Deem and Ramdas Pophale) SiO2 
 PCOD9572786
Probable space group: I 41/A M D
;
_chemical_formula_sum "Si O2"
_cell_formula_units_Z 240
_cell_length_a 21.845645
_cell_length_b 21.845645
_cell_length_c 29.077204
_cell_angle_alpha 90.000000
_cell_angle_beta 90.000000
_cell_angle_gamma 90.000000
_cell_volume 13876.578194
_symmetry_space_group_name_H-M "I 41/A M D"
_symmetry_group_IT_number 141
_space_group.IT_coordinate_system_code '2'
_symmetry_cell_setting 'tetragonal'
loop_
_space_group_symop_operation_xyz
x,y,z
1/4-y,3/4+x,1/4+z
-x,1/2-y,z
1/4+y,1/4-x,3/4+z
x,-y,-z
-x,1/2+y,-z
1/4+y,3/4+x,1/4-z
1/4-y,1/4-x,3/4-z
-x,-y,-z
3/4+y,1/4-x,3/4-z
x,1/2+y,-z
3/4-y,3/4+x,1/4-z
-x,y,z
x,1/2-y,z
3/4-y,1/4-x,3/4+z
3/4+y,3/4+x,1/4+z
1/2+x,1/2+y,1/2+z
3/4-y,1/4+x,3/4+z
1/2-x,-y,1/2+z
3/4+y,3/4-x,1/4+z
1/2+x,1/2-y,1/2-z
1/2-x,y,1/2-z
3/4+y,1/4+x,3/4-z
3/4-y,3/4-x,1/4-z
1/2-x,1/2-y,1/2-z
1/4+y,3/4-x,1/4-z
1/2+x,y,1/2-z
1/4-y,1/4+x,3/4-z
1/2-x,1/2+y,1/2+z
1/2+x,-y,1/2+z
1/4-y,3/4-x,1/4+z
1/4+y,1/4+x,3/4+z
loop_
_atom_site_type_symbol
_atom_site_label
_atom_site_fract_x
_atom_site_fract_y
_atom_site_fract_z
Si Si1 0.718159 0.063318 0.300049
Si Si2 0.070047 0.081114 0.747257
Si Si3 0.069837 0.347406 0.078818
Si Si4 0.740397 0.815919 0.195715
Si Si5 0.672515 0.573564 0.321660
Si Si6 0.569409 0.589731 0.091495
Si Si7 0.174763 0.424763 0.375000
Si Si8 0.235690 0.319313 0.421190
O O1 0.750000 0.062827 0.250000
O O2 0.675204 0.123411 0.307972
O O3 0.770534 0.069403 0.338646
O O4 0.686860 0.997706 0.310937
O O5 0.071142 0.137579 0.711613
O O6 0.116346 0.091256 0.788753
O O7 0.000000 0.071199 0.762215
O O8 0.090451 0.022404 0.716565
O O9 0.070361 0.420402 0.070237
O O10 0.100029 0.331672 0.127815
O O11 0.000000 0.326356 0.075948
O O12 0.764540 0.750000 0.176045
O O13 0.750000 0.810147 0.250000
O O14 0.771145 0.880998 0.186904
O O15 0.662650 0.587351 0.375000
O O16 0.500000 0.591508 0.071605
O O17 0.569039 0.535962 0.130182
O O18 0.182796 0.363493 0.404240
O O19 0.215439 0.250000 0.428764
#
# Coordination Sequence:
#
# PCOD9572786 Si02
#       8
#    32  32  32  32  32  32  16  32
#     4  11  22  34  56  85 110 146 186 229 293 353
#     4  10  21  35  51  74 107 149 194 234 282 346
#     4  10  19  34  59  86 111 146 194 243 293 343
#     4  10  20  34  53  78 108 142 187 247 300 342
#     4  12  23  35  53  77 113 149 192 249 298 346
#     4   9  19  35  53  80 115 140 175 231 288 346
#     4  10  18  32  54  81 108 132 180 223 262 342
#     4   8  16  31  51  75 105 137 170 220 274 321
#
# _framework density 17.295331000000001
#
# number of rings (size 3 to 8) (size 9 to 14) (size 15 to 20)
#    0.000    2.000    2.000    3.200    3.733    1.867 
#    0.000    0.667    0.000    1.000    0.000    0.933 
#    0.000    1.067    0.000    0.000    0.000    0.000 
#
# Total GULP energy -668261.937472 kJ/mol
# GULP energy per Si atom -5568.849479 kJ/mol
# Density = 1.725597 g / cm^3
# Si number density = 17.295331 Si / 1000 Ang^3
#
#
#
# Elastic Constant Matrix: (Units=GPa)
#
#
# Indices 1 2 3 4 5 6 
#
# 1 89.8913 29.0764 19.2336 0.0000 0.0000 0.0000
# 2 29.0764 89.8905 19.2331 0.0000 0.0000 0.0000
# 3 19.2336 19.2331 65.6459 0.0000 0.0000 0.0000
# 4 0.0000 0.0000 0.0000 15.9705 0.0000 0.0000
# 5 0.0000 0.0000 0.0000 0.0000 15.9709 0.0000
# 6 0.0000 0.0000 0.0000 0.0000 0.0000 24.4841
#
#
#
# Elastic Compliance Matrix: (Units=1/GPa)
#
#
# Indices 1 2 3 4 5 6 
#
# 1 0.012864 -0.003579 -0.002721 0.000000 0.000000 0.000000
# 2 -0.003579 0.012864 -0.002720 0.000000 0.000000 0.000000
# 3 -0.002721 -0.002720 0.016827 0.000000 0.000000 0.000000
# 4 0.000000 0.000000 0.000000 0.062615 0.000000 0.000000
# 5 0.000000 0.000000 0.000000 0.000000 0.062614 0.000000
# 6 0.000000 0.000000 0.000000 0.000000 0.000000 0.040843
#
#
# Mechanical properties :
#
#
# Convention : Reuss Voigt Hill
#
# Bulk Modulus (GPa) = 40.78952 42.27932 41.53442
# Shear Modulus (GPa) = 21.29106 23.14407 22.21757
#
# Velocity S-wave (km/s) = 3.51241 3.66207 3.58802
# Velocity P-wave (km/s) = 6.33125 6.50996 6.42122
#
# Compressibility (1/GPa) = 0.02451610
#
# Stress axis : x y z
#
# Youngs Moduli (GPa) = 77.73430 77.73383 59.42698
#
# Poissons Ratio (x) = 0.27821 0.16167
# Poissons Ratio (y) = 0.27822 0.16167
# Poissons Ratio (z) = 0.21148 0.21147
#
# Static dielectric constant tensor:
#      x y z
#    x 1.636720 0.000000 0.000000 
#    y 0.000000 1.636720 0.000000 
#    z 0.000000 0.000000 1.564980 
# 
# From -- ./inp_files/14588.got.cif
#   From: 2010.05.17/outbox.cif.g08.bks.cpg/sg141_8_cif.got.tgz:14588.got - 2010.05.20 13:30:51.
