data_PCOD9572674
_publ_section_title
;
Structure prediction by ZEFSAII (Michael W. Deem and Ramdas Pophale) SiO2 
 PCOD9572674
Probable space group: I 4/M C M
;
_chemical_formula_sum "Si O2"
_cell_formula_units_Z 112
_cell_length_a 18.222318
_cell_length_b 18.222318
_cell_length_c 16.549096
_cell_angle_alpha 90.000000
_cell_angle_beta 90.000000
_cell_angle_gamma 90.000000
_cell_volume 5495.174877
_symmetry_space_group_name_H-M "I 4/M C M"
_symmetry_group_IT_number 140
_symmetry_cell_setting 'tetragonal'
loop_
_space_group_symop_operation_xyz
x,y,z
-y,x,z
-x,-y,z
y,-x,z
x,-y,1/2-z
-x,y,1/2-z
y,x,1/2-z
-y,-x,1/2-z
-x,-y,-z
y,-x,-z
x,y,-z
-y,x,-z
-x,y,1/2+z
x,-y,1/2+z
-y,-x,1/2+z
y,x,1/2+z
1/2+x,1/2+y,1/2+z
1/2-y,1/2+x,1/2+z
1/2-x,1/2-y,1/2+z
1/2+y,1/2-x,1/2+z
1/2+x,1/2-y,-z
1/2-x,1/2+y,-z
1/2+y,1/2+x,-z
1/2-y,1/2-x,-z
1/2-x,1/2-y,1/2-z
1/2+y,1/2-x,1/2-z
1/2+x,1/2+y,1/2-z
1/2-y,1/2+x,1/2-z
1/2-x,1/2+y,z
1/2+x,1/2-y,z
1/2-y,1/2-x,z
1/2+y,1/2+x,z
loop_
_atom_site_type_symbol
_atom_site_label
_atom_site_fract_x
_atom_site_fract_y
_atom_site_fract_z
Si Si1 0.905668 0.075714 0.000000
Si Si2 0.454197 0.831480 0.168549
Si Si3 0.214794 0.285207 0.599190
Si Si4 0.825589 0.125564 0.837876
Si Si5 0.403550 0.903550 0.594071
O O1 0.872942 0.101161 0.085209
O O2 0.988939 0.100318 0.000000
O O3 0.500000 0.831138 0.250000
O O4 0.382933 0.882933 0.171389
O O5 0.425336 0.747912 0.158369
O O6 0.514364 0.874393 0.113236
O O7 0.218524 0.281477 0.500000
O O8 0.195084 0.207917 0.637650
O O9 0.155084 0.344917 0.627970
O O10 0.866581 0.133420 0.750000
O O11 0.396216 0.896216 0.500000
#
# Coordination Sequence:
#
# PCOD9572674 Si02
#       5
#    16  32  16  32  16
#     4  11  30  53  74 108 145 184 245 314 386 456
#     4  12  26  45  69 105 150 193 243 302 371 447
#     4  11  23  46  70 110 145 193 252 307 365 443
#     4  12  27  46  78 108 147 197 250 311 375 454
#     4  11  27  43  73 105 147 195 252 306 379 446
#
# _framework density 20.381516999999999
#
# number of rings (size 3 to 8) (size 9 to 14) (size 15 to 20)
#    0.000    0.429    4.286    2.571   10.000    1.143 
#    0.000    1.429    0.000    0.000    0.000    0.000 
#    0.000    0.000    0.000    0.000    0.000    0.000 
#
# Total GULP energy -312134.454601 kJ/mol
# GULP energy per Si atom -5573.829546 kJ/mol
# Density = 2.033513 g / cm^3
# Si number density = 20.381517 Si / 1000 Ang^3
#
#
#
# Elastic Constant Matrix: (Units=GPa)
#
#
# Indices 1 2 3 4 5 6 
#
# 1 295.7127 -112.1625 68.5355 0.0000 0.0000 0.0000
# 2 -112.1625 295.6981 68.5291 0.0000 0.0000 0.0000
# 3 68.5355 68.5291 151.5205 0.0000 0.0000 0.0000
# 4 0.0000 0.0000 0.0000 48.1186 0.0000 0.0000
# 5 0.0000 0.0000 0.0000 0.0000 48.1142 0.0000
# 6 0.0000 0.0000 0.0000 0.0000 0.0000 43.4980
#
#
#
# Elastic Compliance Matrix: (Units=1/GPa)
#
#
# Indices 1 2 3 4 5 6 
#
# 1 0.005339 0.002888 -0.003721 0.000000 0.000000 0.000000
# 2 0.002888 0.005340 -0.003721 0.000000 0.000000 0.000000
# 3 -0.003721 -0.003721 0.009966 0.000000 0.000000 0.000000
# 4 0.000000 0.000000 0.000000 0.020782 0.000000 0.000000
# 5 0.000000 0.000000 0.000000 0.000000 0.020784 0.000000
# 6 0.000000 0.000000 0.000000 0.000000 0.000000 0.022990
#
#
# Mechanical properties :
#
#
# Convention : Reuss Voigt Hill
#
# Bulk Modulus (GPa) = 86.68748 88.08173 87.38461
# Shear Modulus (GPa) = 50.94010 75.81478 63.37744
#
# Velocity S-wave (km/s) = 5.00475 6.10562 5.58239
# Velocity P-wave (km/s) = 8.71903 9.64443 9.19338
#
# Compressibility (1/GPa) = 0.01153569
#
# Stress axis : x y z
#
# Youngs Moduli (GPa) = 187.28809 187.28194 100.34253
#
# Poissons Ratio (x) = -0.54081 0.37339
# Poissons Ratio (y) = -0.54083 0.37338
# Poissons Ratio (z) = 0.69692 0.69689
#
# Static dielectric constant tensor:
#      x y z
#    x 1.670050 0.000000 0.000000 
#    y 0.000000 1.670060 0.000000 
#    z 0.000000 0.000000 1.755590 
# 
# From -- ./inp_files/6149.got.cif
#   From: 2010.05.17/outbox.cif.g08.bks.cpg/sg140_4_cif.got.tgz:6149.got - 2010.06.21 00:45:31.
