data_PCOD9572896
_publ_section_title
;
Structure prediction by ZEFSAII (Michael W. Deem and Ramdas Pophale) SiO2 
 PCOD9572896
Probable space group: I 41/A M D
;
_chemical_formula_sum "Si O2"
_cell_formula_units_Z 160
_cell_length_a 21.118870
_cell_length_b 21.118870
_cell_length_c 18.077464
_cell_angle_alpha 90.000000
_cell_angle_beta 90.000000
_cell_angle_gamma 90.000000
_cell_volume 8062.669522
_symmetry_space_group_name_H-M "I 41/A M D"
_symmetry_group_IT_number 141
_space_group.IT_coordinate_system_code '2'
_symmetry_cell_setting 'tetragonal'
loop_
_space_group_symop_operation_xyz
x,y,z
1/4-y,3/4+x,1/4+z
-x,1/2-y,z
1/4+y,1/4-x,3/4+z
x,-y,-z
-x,1/2+y,-z
1/4+y,3/4+x,1/4-z
1/4-y,1/4-x,3/4-z
-x,-y,-z
3/4+y,1/4-x,3/4-z
x,1/2+y,-z
3/4-y,3/4+x,1/4-z
-x,y,z
x,1/2-y,z
3/4-y,1/4-x,3/4+z
3/4+y,3/4+x,1/4+z
1/2+x,1/2+y,1/2+z
3/4-y,1/4+x,3/4+z
1/2-x,-y,1/2+z
3/4+y,3/4-x,1/4+z
1/2+x,1/2-y,1/2-z
1/2-x,y,1/2-z
3/4+y,1/4+x,3/4-z
3/4-y,3/4-x,1/4-z
1/2-x,1/2-y,1/2-z
1/4+y,3/4-x,1/4-z
1/2+x,y,1/2-z
1/4-y,1/4+x,3/4-z
1/2-x,1/2+y,1/2+z
1/2+x,-y,1/2+z
1/4-y,3/4-x,1/4+z
1/4+y,1/4+x,3/4+z
loop_
_atom_site_type_symbol
_atom_site_label
_atom_site_fract_x
_atom_site_fract_y
_atom_site_fract_z
Si Si1 0.573480 0.122631 0.698651
Si Si2 0.072765 0.029369 0.384697
Si Si3 0.136745 0.097186 0.255340
Si Si4 0.305854 0.967427 0.296159
Si Si5 0.574657 0.881375 0.134073
O O1 0.500000 0.100270 0.697290
O O2 0.584718 0.165283 0.625000
O O3 0.628405 0.069969 0.694363
O O4 0.583322 0.147549 0.783379
O O5 0.084770 0.072973 0.313248
O O6 0.108994 0.063534 0.451083
O O7 0.000000 0.027097 0.404979
O O8 0.090956 0.957053 0.364236
O O9 0.108516 0.131846 0.183378
O O10 0.175815 0.034924 0.234842
O O11 0.274195 0.975806 0.375000
O O12 0.250000 0.934105 0.250000
O O13 0.500000 0.875041 0.116370
#
# Coordination Sequence:
#
# PCOD9572896 Si02
#       5
#    32  32  32  32  32
#     4  10  22  41  63  88 120 163 210 260 314 379
#     4  10  21  36  55  84 124 165 205 251 306 382
#     4  11  21  33  58  89 121 163 206 252 318 388
#     4  11  22  33  56  89 127 157 198 259 324 376
#     4  10  19  36  58  82 115 155 206 258 310 373
#
# _framework density 19.844543000000002
#
# number of rings (size 3 to 8) (size 9 to 14) (size 15 to 20)
#    0.000    1.600    2.000    3.600    2.800    1.800 
#    0.000    1.000    0.000   31.800    0.000    0.000 
#    0.000    0.000    0.000    0.000    0.000    0.000 
#
# Total GULP energy -445926.028157 kJ/mol
# GULP energy per Si atom -5574.075352 kJ/mol
# Density = 1.979938 g / cm^3
# Si number density = 19.844543 Si / 1000 Ang^3
#
#
#
# Elastic Constant Matrix: (Units=GPa)
#
#
# Indices 1 2 3 4 5 6 
#
# 1 42.7113 27.4420 23.7374 0.0000 0.0000 0.0000
# 2 27.4420 42.7109 23.7362 0.0000 0.0000 0.0000
# 3 23.7374 23.7362 123.6214 0.0000 0.0000 0.0000
# 4 0.0000 0.0000 0.0000 24.9274 0.0000 0.0000
# 5 0.0000 0.0000 0.0000 0.0000 24.9276 0.0000
# 6 0.0000 0.0000 0.0000 0.0000 0.0000 -79.2585
#
#
#
# Elastic Compliance Matrix: (Units=1/GPa)
#
#
# Indices 1 2 3 4 5 6 
#
# 1 0.040937 -0.024554 -0.003146 0.000000 0.000000 0.000000
# 2 -0.024554 0.040937 -0.003145 0.000000 0.000000 0.000000
# 3 -0.003146 -0.003145 0.009297 0.000000 0.000000 0.000000
# 4 0.000000 0.000000 0.000000 0.040117 0.000000 0.000000
# 5 0.000000 0.000000 0.000000 0.000000 0.040116 0.000000
# 6 0.000000 0.000000 0.000000 0.000000 0.000000 -0.012617
#
#
# Mechanical properties :
#
#
# Convention : Reuss Voigt Hill
#
# Bulk Modulus (GPa) = 33.92041 39.87498 36.89770
# Shear Modulus (GPa) = 21.71022 3.06116 12.38569
#
# Velocity S-wave (km/s) = 3.31118 1.24335 2.50098
# Velocity P-wave (km/s) = 5.63460 4.71153 5.19361
#
# Compressibility (1/GPa) = 0.02948078
#
# Stress axis : x y z
#
# Youngs Moduli (GPa) = 24.42750 24.42753 107.55828
#
# Poissons Ratio (x) = 0.59980 0.33839
# Poissons Ratio (y) = 0.59979 0.33832
# Poissons Ratio (z) = 0.07685 0.07684
#
# Static dielectric constant tensor:
#      x y z
#    x 1.691300 0.000000 0.000000 
#    y 0.000000 1.691300 0.000000 
#    z 0.000000 0.000000 1.766100 
# 
# From -- ./inp_files/6596.got.cif
#   From: 2010.05.17/outbox.cif.g08.bks.cpg/sg141_4_cif.got.tgz:6596.got - 2010.05.20 13:30:51.
