data_PCOD9572927
_publ_section_title
;
Structure prediction by ZEFSAII (Michael W. Deem and Ramdas Pophale) SiO2 
 PCOD9572927
Probable space group: I 41/A M D
;
_chemical_formula_sum "Si O2"
_cell_formula_units_Z 112
_cell_length_a 18.204608
_cell_length_b 18.204608
_cell_length_c 18.696816
_cell_angle_alpha 90.000000
_cell_angle_beta 90.000000
_cell_angle_gamma 90.000000
_cell_volume 6196.269768
_symmetry_space_group_name_H-M "I 41/A M D"
_symmetry_group_IT_number 141
_space_group.IT_coordinate_system_code '2'
_symmetry_cell_setting 'tetragonal'
loop_
_space_group_symop_operation_xyz
x,y,z
1/4-y,3/4+x,1/4+z
-x,1/2-y,z
1/4+y,1/4-x,3/4+z
x,-y,-z
-x,1/2+y,-z
1/4+y,3/4+x,1/4-z
1/4-y,1/4-x,3/4-z
-x,-y,-z
3/4+y,1/4-x,3/4-z
x,1/2+y,-z
3/4-y,3/4+x,1/4-z
-x,y,z
x,1/2-y,z
3/4-y,1/4-x,3/4+z
3/4+y,3/4+x,1/4+z
1/2+x,1/2+y,1/2+z
3/4-y,1/4+x,3/4+z
1/2-x,-y,1/2+z
3/4+y,3/4-x,1/4+z
1/2+x,1/2-y,1/2-z
1/2-x,y,1/2-z
3/4+y,1/4+x,3/4-z
3/4-y,3/4-x,1/4-z
1/2-x,1/2-y,1/2-z
1/4+y,3/4-x,1/4-z
1/2+x,y,1/2-z
1/4-y,1/4+x,3/4-z
1/2-x,1/2+y,1/2+z
1/2+x,-y,1/2+z
1/4-y,3/4-x,1/4+z
1/4+y,1/4+x,3/4+z
loop_
_atom_site_type_symbol
_atom_site_label
_atom_site_fract_x
_atom_site_fract_y
_atom_site_fract_z
Si Si1 0.333048 0.338643 0.058720
Si Si2 0.088166 0.838166 0.125000
Si Si3 0.087892 0.165614 0.163899
Si Si4 0.336142 0.338843 0.477633
O O1 0.341199 0.250000 0.070989
O O2 0.367041 0.382960 0.125000
O O3 0.248171 0.354055 0.041120
O O4 0.375670 0.359273 0.986367
O O5 0.098709 0.750000 0.136178
O O6 0.112840 0.882419 0.195679
O O7 0.113128 0.250000 0.168717
O O8 0.117839 0.133100 0.090149
O O9 0.000000 0.165002 0.160323
O O10 0.344707 0.250000 0.479825
#
# Coordination Sequence:
#
# PCOD9572927 Si02
#       4
#    32  16  32  32
#     4  10  20  33  51  74 102 137 174 213 255 302
#     4   9  16  30  56  84 106 130 166 214 262 309
#     4   9  17  31  53  78 101 128 168 216 259 301
#     4   9  18  32  52  77 103 133 169 209 257 309
#
# _framework density 18.075391
#
# number of rings (size 3 to 8) (size 9 to 14) (size 15 to 20)
#    0.000    2.714    0.000    1.714    0.000    6.000 
#    0.000    5.714    9.429    6.857    0.000    0.000 
#    0.000    0.000    0.000    0.000    0.000    0.000 
#
# Total GULP energy -312017.337860 kJ/mol
# GULP energy per Si atom -5571.738176 kJ/mol
# Density = 1.803425 g / cm^3
# Si number density = 18.075391 Si / 1000 Ang^3
#
#
#
# Elastic Constant Matrix: (Units=GPa)
#
#
# Indices 1 2 3 4 5 6 
#
# 1 31.8863 26.8893 65.6751 0.0000 0.0000 0.0000
# 2 26.8893 31.8860 65.6747 0.0000 0.0000 0.0000
# 3 65.6751 65.6747 226.0948 0.0000 0.0000 0.0000
# 4 0.0000 0.0000 0.0000 1.1472 0.0000 0.0000
# 5 0.0000 0.0000 0.0000 0.0000 1.1460 0.0000
# 6 0.0000 0.0000 0.0000 0.0000 0.0000 11.8527
#
#
#
# Elastic Compliance Matrix: (Units=1/GPa)
#
#
# Indices 1 2 3 4 5 6 
#
# 1 0.124311 -0.075818 -0.014086 0.000000 0.000000 0.000000
# 2 -0.075818 0.124310 -0.014086 0.000000 0.000000 0.000000
# 3 -0.014086 -0.014086 0.012606 0.000000 0.000000 0.000000
# 4 0.000000 0.000000 0.000000 0.871718 -0.000001 0.000000
# 5 0.000000 0.000000 0.000000 -0.000001 0.872568 0.000000
# 6 0.000000 0.000000 0.000000 0.000000 0.000000 0.084369
#
#
# Mechanical properties :
#
#
# Convention : Reuss Voigt Hill
#
# Bulk Modulus (GPa) = 18.78009 67.37170 43.07590
# Shear Modulus (GPa) = 2.15926 11.60438 6.88182
#
# Velocity S-wave (km/s) = 1.09416 2.53652 1.95334
# Velocity P-wave (km/s) = 3.46535 6.77732 5.38241
#
# Compressibility (1/GPa) = 0.05324789
#
# Stress axis : x y z
#
# Youngs Moduli (GPa) = 8.04437 8.04440 79.32637
#
# Poissons Ratio (x) = 0.60991 1.11741
# Poissons Ratio (y) = 0.60990 1.11736
# Poissons Ratio (z) = 0.11331 0.11331
#
# Static dielectric constant tensor:
#      x y z
#    x 1.641940 0.000000 0.000000 
#    y 0.000000 1.641940 0.000000 
#    z 0.000000 0.000000 1.617010 
# 
# From -- ./inp_files/7909.got.cif
#   From: 2010.05.17/outbox.cif.g08.bks.cpg/sg141_4_cif.got.tgz:7909.got - 2010.05.20 13:30:51.
