data_PCOD9572549
_publ_section_title
;
Structure prediction by ZEFSAII (Michael W. Deem and Ramdas Pophale) SiO2 
 PCOD9572549
Probable space group: I 4/M C M
;
_chemical_formula_sum "Si O2"
_cell_formula_units_Z 160
_cell_length_a 20.730677
_cell_length_b 20.730677
_cell_length_c 16.670117
_cell_angle_alpha 90.000000
_cell_angle_beta 90.000000
_cell_angle_gamma 90.000000
_cell_volume 7164.165633
_symmetry_space_group_name_H-M "I 4/M C M"
_symmetry_group_IT_number 140
_symmetry_cell_setting 'tetragonal'
loop_
_space_group_symop_operation_xyz
x,y,z
-y,x,z
-x,-y,z
y,-x,z
x,-y,1/2-z
-x,y,1/2-z
y,x,1/2-z
-y,-x,1/2-z
-x,-y,-z
y,-x,-z
x,y,-z
-y,x,-z
-x,y,1/2+z
x,-y,1/2+z
-y,-x,1/2+z
y,x,1/2+z
1/2+x,1/2+y,1/2+z
1/2-y,1/2+x,1/2+z
1/2-x,1/2-y,1/2+z
1/2+y,1/2-x,1/2+z
1/2+x,1/2-y,-z
1/2-x,1/2+y,-z
1/2+y,1/2+x,-z
1/2-y,1/2-x,-z
1/2-x,1/2-y,1/2-z
1/2+y,1/2-x,1/2-z
1/2+x,1/2+y,1/2-z
1/2-y,1/2+x,1/2-z
1/2-x,1/2+y,z
1/2+x,1/2-y,z
1/2-y,1/2-x,z
1/2+y,1/2+x,z
loop_
_atom_site_type_symbol
_atom_site_label
_atom_site_fract_x
_atom_site_fract_y
_atom_site_fract_z
Si Si1 0.698242 0.372591 0.593815
Si Si2 0.453172 0.153349 0.908488
Si Si3 0.901638 0.971877 0.597214
Si Si4 0.639029 0.753464 0.832115
Si Si5 0.916934 0.686959 0.820785
O O1 0.685050 0.360087 0.500000
O O2 0.666323 0.441286 0.617118
O O3 0.664274 0.316561 0.644754
O O4 0.773475 0.381109 0.609108
O O5 0.410128 0.089873 0.889232
O O6 0.403444 0.213086 0.901297
O O7 0.512290 0.167128 0.849286
O O8 0.476461 0.147628 0.000000
O O9 0.904119 0.975086 0.500000
O O10 0.957546 0.922407 0.625027
O O11 0.702391 0.797610 0.819585
O O12 0.594683 0.764541 0.753948
O O13 0.877227 0.622774 0.800812
#
# Coordination Sequence:
#
# PCOD9572549 Si02
#       5
#    32  32  32  32  32
#     4  11  22  34  60  94 125 165 214 265 317 379
#     4  10  22  41  66  94 123 159 210 271 329 391
#     4   8  16  32  52  79 117 156 195 244 301 362
#     4  10  22  41  61  84 121 168 211 254 315 392
#     4  11  24  41  61  89 127 168 212 264 329 403
#
# _framework density 22.333376000000001
#
# number of rings (size 3 to 8) (size 9 to 14) (size 15 to 20)
#    0.000    2.000    0.000    3.600    2.800    5.600 
#    0.000    1.000    0.000    3.600    0.000    5.600 
#    0.000    0.000    0.000    0.000    0.000    0.000 
#
# Total GULP energy -446601.321758 kJ/mol
# GULP energy per Si atom -5582.516522 kJ/mol
# Density = 2.228254 g / cm^3
# Si number density = 22.333376 Si / 1000 Ang^3
#
#
#
# Elastic Constant Matrix: (Units=GPa)
#
#
# Indices 1 2 3 4 5 6 
#
# 1 71.1284 6.0415 19.8912 0.0000 0.0000 0.0000
# 2 6.0415 71.1284 19.8912 0.0000 0.0000 0.0000
# 3 19.8912 19.8912 71.0963 0.0000 0.0000 0.0000
# 4 0.0000 0.0000 0.0000 29.5547 0.0000 0.0000
# 5 0.0000 0.0000 0.0000 0.0000 29.5547 0.0000
# 6 0.0000 0.0000 0.0000 0.0000 0.0000 24.4966
#
#
#
# Elastic Compliance Matrix: (Units=1/GPa)
#
#
# Indices 1 2 3 4 5 6 
#
# 1 0.015253 -0.000111 -0.004237 0.000000 0.000000 0.000000
# 2 -0.000111 0.015253 -0.004237 0.000000 0.000000 0.000000
# 3 -0.004237 -0.004237 0.016436 0.000000 0.000000 0.000000
# 4 0.000000 0.000000 0.000000 0.033836 0.000000 0.000000
# 5 0.000000 0.000000 0.000000 0.000000 0.033836 0.000000
# 6 0.000000 0.000000 0.000000 0.000000 0.000000 0.040822
#
#
# Mechanical properties :
#
#
# Convention : Reuss Voigt Hill
#
# Bulk Modulus (GPa) = 33.58548 33.88897 33.73723
# Shear Modulus (GPa) = 27.39305 27.88985 27.64145
#
# Velocity S-wave (km/s) = 3.50602 3.53767 3.52188
# Velocity P-wave (km/s) = 5.60896 5.64746 5.62824
#
# Compressibility (1/GPa) = 0.02977477
#
# Stress axis : x y z
#
# Youngs Moduli (GPa) = 65.55988 65.55988 60.84206
#
# Poissons Ratio (x) = 0.00727 0.25776
# Poissons Ratio (y) = 0.00727 0.25776
# Poissons Ratio (z) = 0.27774 0.27774
#
# Static dielectric constant tensor:
#      x y z
#    x 1.798370 0.000000 0.000000 
#    y 0.000000 1.798370 0.000000 
#    z 0.000000 0.000000 1.888620 
# 
# From -- ./inp_files/6782.got.cif
#   From: 2010.05.17/outbox.cif.g08.bks.cpg/sg140_4_cif.got.tgz:6782.got - 2010.06.21 00:45:31.
