data_PCOD9572960
_publ_section_title
;
Structure prediction by ZEFSAII (Michael W. Deem and Ramdas Pophale) SiO2 
 PCOD9572960
Probable space group: I 41/A M D
;
_chemical_formula_sum "Si O2"
_cell_formula_units_Z 160
_cell_length_a 24.905237
_cell_length_b 24.905237
_cell_length_c 14.397280
_cell_angle_alpha 90.000000
_cell_angle_beta 90.000000
_cell_angle_gamma 90.000000
_cell_volume 8930.212816
_symmetry_space_group_name_H-M "I 41/A M D"
_symmetry_group_IT_number 141
_space_group.IT_coordinate_system_code '2'
_symmetry_cell_setting 'tetragonal'
loop_
_space_group_symop_operation_xyz
x,y,z
1/4-y,3/4+x,1/4+z
-x,1/2-y,z
1/4+y,1/4-x,3/4+z
x,-y,-z
-x,1/2+y,-z
1/4+y,3/4+x,1/4-z
1/4-y,1/4-x,3/4-z
-x,-y,-z
3/4+y,1/4-x,3/4-z
x,1/2+y,-z
3/4-y,3/4+x,1/4-z
-x,y,z
x,1/2-y,z
3/4-y,1/4-x,3/4+z
3/4+y,3/4+x,1/4+z
1/2+x,1/2+y,1/2+z
3/4-y,1/4+x,3/4+z
1/2-x,-y,1/2+z
3/4+y,3/4-x,1/4+z
1/2+x,1/2-y,1/2-z
1/2-x,y,1/2-z
3/4+y,1/4+x,3/4-z
3/4-y,3/4-x,1/4-z
1/2-x,1/2-y,1/2-z
1/4+y,3/4-x,1/4-z
1/2+x,y,1/2-z
1/4-y,1/4+x,3/4-z
1/2-x,1/2+y,1/2+z
1/2+x,-y,1/2+z
1/4-y,3/4-x,1/4+z
1/4+y,1/4+x,3/4+z
loop_
_atom_site_type_symbol
_atom_site_label
_atom_site_fract_x
_atom_site_fract_y
_atom_site_fract_z
Si Si1 0.065042 0.021254 0.901754
Si Si2 0.639374 0.814366 0.825021
Si Si3 0.762928 0.685166 0.544908
Si Si4 0.438675 0.359446 0.542742
Si Si5 0.435305 0.891555 0.140305
O O1 0.084810 0.988930 0.811704
O O2 0.075941 0.084781 0.904984
O O3 0.000000 0.016100 0.900431
O O4 0.085155 0.000000 0.000000
O O5 0.640895 0.750000 0.825616
O O6 0.587383 0.837383 0.875000
O O7 0.690991 0.834137 0.884761
O O8 0.637341 0.830584 0.717381
O O9 0.769096 0.750000 0.541688
O O10 0.703002 0.674888 0.581260
O O11 0.500000 0.364430 0.509393
O O12 0.433659 0.316342 0.625000
O O13 0.399790 0.344564 0.458121
O O14 0.500000 0.882499 0.149269
#
# Coordination Sequence:
#
# PCOD9572960 Si02
#       5
#    32  32  32  32  32
#     4   9  18  31  50  76 104 136 176 227 276 318
#     4  10  22  36  54  78 106 140 179 226 279 331
#     4   9  17  34  55  73  99 136 182 229 263 304
#     4  11  21  33  51  79 115 148 182 223 276 343
#     4  10  20  35  52  75 106 145 187 222 262 318
#
# _framework density 17.916706000000001
#
# number of rings (size 3 to 8) (size 9 to 14) (size 15 to 20)
#    0.000    2.200    2.000    1.200    2.800    4.800 
#    0.000    2.000    0.000    0.000    0.000    4.200 
#    0.000    0.000    0.000    0.000    0.000    0.000 
#
# Total GULP energy -445697.435597 kJ/mol
# GULP energy per Si atom -5571.217945 kJ/mol
# Density = 1.787593 g / cm^3
# Si number density = 17.916706 Si / 1000 Ang^3
#
#
#
# Elastic Constant Matrix: (Units=GPa)
#
#
# Indices 1 2 3 4 5 6 
#
# 1 -22.6430 61.3900 30.3743 0.0000 0.0000 0.0000
# 2 61.3900 -22.6424 30.3740 0.0000 0.0000 0.0000
# 3 30.3743 30.3740 165.3717 0.0000 0.0000 0.0000
# 4 0.0000 0.0000 0.0000 26.2298 0.0000 0.0000
# 5 0.0000 0.0000 0.0000 0.0000 26.2296 0.0000
# 6 0.0000 0.0000 0.0000 0.0000 0.0000 -2.7799
#
#
#
# Elastic Compliance Matrix: (Units=1/GPa)
#
#
# Indices 1 2 3 4 5 6 
#
# 1 0.012173 0.024073 -0.006657 0.000000 0.000000 0.000000
# 2 0.024073 0.012173 -0.006657 0.000000 0.000000 0.000000
# 3 -0.006657 -0.006657 0.008493 0.000000 0.000000 0.000000
# 4 0.000000 0.000000 0.000000 0.038125 0.000000 0.000000
# 5 0.000000 0.000000 0.000000 0.000000 0.038125 0.000000
# 6 0.000000 0.000000 0.000000 0.000000 0.000000 -0.359719
#
#
# Mechanical properties :
#
#
# Convention : Reuss Voigt Hill
#
# Bulk Modulus (GPa) = 18.39773 40.48477 29.44125
# Shear Modulus (GPa) = -19.68274 9.79909 -4.94183
#
# Velocity S-wave (km/s) = -3.31806 2.34118 -1.66259
# Velocity P-wave (km/s) = 2.09490 5.47296 3.57524
#
# Compressibility (1/GPa) = 0.05435454
#
# Stress axis : x y z
#
# Youngs Moduli (GPa) = 82.15165 82.14968 117.75081
#
# Poissons Ratio (x) = -1.97758 0.78390
# Poissons Ratio (y) = -1.97763 0.78391
# Poissons Ratio (z) = 0.54691 0.54690
#
# Static dielectric constant tensor:
#      x y z
#    x 1.624830 0.000000 0.000000 
#    y 0.000000 1.624830 0.000000 
#    z 0.000000 0.000000 1.660510 
# 
# From -- ./inp_files/4843.got.cif
#   From: 2010.05.17/outbox.cif.g08.bks.cpg/sg141_3_cif.got.tgz:4843.got - 2010.05.20 13:30:51.
