data_PCOD9572700
_publ_section_title
;
Structure prediction by ZEFSAII (Michael W. Deem and Ramdas Pophale) SiO2 
 PCOD9572700
Probable space group: I 4/M C M
;
_chemical_formula_sum "Si O2"
_cell_formula_units_Z 160
_cell_length_a 17.492010
_cell_length_b 17.492010
_cell_length_c 27.757125
_cell_angle_alpha 90.000000
_cell_angle_beta 90.000000
_cell_angle_gamma 90.000000
_cell_volume 8492.859023
_symmetry_space_group_name_H-M "I 4/M C M"
_symmetry_group_IT_number 140
_symmetry_cell_setting 'tetragonal'
loop_
_space_group_symop_operation_xyz
x,y,z
-y,x,z
-x,-y,z
y,-x,z
x,-y,1/2-z
-x,y,1/2-z
y,x,1/2-z
-y,-x,1/2-z
-x,-y,-z
y,-x,-z
x,y,-z
-y,x,-z
-x,y,1/2+z
x,-y,1/2+z
-y,-x,1/2+z
y,x,1/2+z
1/2+x,1/2+y,1/2+z
1/2-y,1/2+x,1/2+z
1/2-x,1/2-y,1/2+z
1/2+y,1/2-x,1/2+z
1/2+x,1/2-y,-z
1/2-x,1/2+y,-z
1/2+y,1/2+x,-z
1/2-y,1/2-x,-z
1/2-x,1/2-y,1/2-z
1/2+y,1/2-x,1/2-z
1/2+x,1/2+y,1/2-z
1/2-y,1/2+x,1/2-z
1/2-x,1/2+y,z
1/2+x,1/2-y,z
1/2-y,1/2-x,z
1/2+y,1/2+x,z
loop_
_atom_site_type_symbol
_atom_site_label
_atom_site_fract_x
_atom_site_fract_y
_atom_site_fract_z
Si Si1 0.677315 0.051159 0.794875
Si Si2 0.994186 0.374349 0.895443
Si Si3 0.266027 0.102403 0.553710
Si Si4 0.403250 0.424235 0.307329
Si Si5 0.209593 0.166512 0.650225
O O1 0.603554 0.103554 0.781645
O O2 0.653893 0.999125 0.840422
O O3 0.740347 0.109928 0.815551
O O4 0.702397 0.000000 0.750000
O O5 0.059272 0.440729 0.898730
O O6 0.024096 0.307247 0.929884
O O7 0.914309 0.414309 0.907156
O O8 0.233846 0.097516 0.500000
O O9 0.333494 0.166507 0.553208
O O10 0.212229 0.130558 0.596841
O O11 0.487912 0.396586 0.322714
O O12 0.410807 0.410807 0.250000
O O13 0.335784 0.374516 0.328816
O O14 0.253135 0.246866 0.649984
#
# Coordination Sequence:
#
# PCOD9572700 Si02
#       5
#    32  32  32  32  32
#     4   9  16  23  35  57  89 131 168 202 248 301
#     4   8  13  20  30  49  80 120 170 218 251 290
#     4   8  14  25  41  63  92 127 167 208 254 303
#     4   9  19  35  56  78 101 136 171 201 247 301
#     4   9  18  31  49  75 102 127 162 211 256 300
#
# _framework density 18.839357
#
# number of rings (size 3 to 8) (size 9 to 14) (size 15 to 20)
#    0.000    3.400    0.000    3.600    2.800    1.800 
#    0.000    2.000    0.000    2.400    0.000    1.400 
#    0.000    0.000    0.000    0.000    0.000    0.000 
#
# Total GULP energy -445739.595662 kJ/mol
# GULP energy per Si atom -5571.744946 kJ/mol
# Density = 1.879648 g / cm^3
# Si number density = 18.839357 Si / 1000 Ang^3
#
#
#
# Elastic Constant Matrix: (Units=GPa)
#
#
# Indices 1 2 3 4 5 6 
#
# 1 34.9428 12.0652 4.9869 0.0000 0.0000 0.0000
# 2 12.0652 34.9428 4.9869 0.0000 0.0000 0.0000
# 3 4.9869 4.9869 68.4313 0.0000 0.0000 0.0000
# 4 0.0000 0.0000 0.0000 6.5441 0.0000 0.0000
# 5 0.0000 0.0000 0.0000 0.0000 6.5441 0.0000
# 6 0.0000 0.0000 0.0000 0.0000 0.0000 6.3662
#
#
#
# Elastic Compliance Matrix: (Units=1/GPa)
#
#
# Indices 1 2 3 4 5 6 
#
# 1 0.032659 -0.011052 -0.001575 0.000000 0.000000 0.000000
# 2 -0.011052 0.032659 -0.001575 0.000000 0.000000 0.000000
# 3 -0.001575 -0.001575 0.014843 0.000000 0.000000 0.000000
# 4 0.000000 0.000000 0.000000 0.152809 0.000000 0.000000
# 5 0.000000 0.000000 0.000000 0.000000 0.152809 0.000000
# 6 0.000000 0.000000 0.000000 0.000000 0.000000 0.157080
#
#
# Mechanical properties :
#
#
# Convention : Reuss Voigt Hill
#
# Bulk Modulus (GPa) = 19.32052 20.26609 19.79331
# Shear Modulus (GPa) = 8.49598 11.64274 10.06936
#
# Velocity S-wave (km/s) = 2.12591 2.48866 2.31440
# Velocity P-wave (km/s) = 4.03778 4.36332 4.20370
#
# Compressibility (1/GPa) = 0.05175844
#
# Stress axis : x y z
#
# Youngs Moduli (GPa) = 30.61944 30.61944 67.37325
#
# Poissons Ratio (x) = 0.33840 0.10609
# Poissons Ratio (y) = 0.33840 0.10609
# Poissons Ratio (z) = 0.04821 0.04821
#
# Static dielectric constant tensor:
#      x y z
#    x 1.667510 0.000000 0.000000 
#    y 0.000000 1.667510 0.000000 
#    z 0.000000 0.000000 1.654480 
# 
# From -- ./inp_files/10496.got.cif
#   From: 2010.05.17/outbox.cif.g08.bks.cpg/sg140_6_cif.got.tgz:10496.got - 2010.06.21 00:45:31.
