data_PCOD9572268
_publ_section_title
;
Structure prediction by ZEFSAII (Michael W. Deem and Ramdas Pophale) SiO2 
 PCOD9572268
Probable space group: I 4/M C M
;
_chemical_formula_sum "Si O2"
_cell_formula_units_Z 128
_cell_length_a 29.804763
_cell_length_b 29.804763
_cell_length_c 8.662812
_cell_angle_alpha 90.000000
_cell_angle_beta 90.000000
_cell_angle_gamma 90.000000
_cell_volume 7695.382919
_symmetry_space_group_name_H-M "I 4/M C M"
_symmetry_group_IT_number 140
_symmetry_cell_setting 'tetragonal'
loop_
_space_group_symop_operation_xyz
x,y,z
-y,x,z
-x,-y,z
y,-x,z
x,-y,1/2-z
-x,y,1/2-z
y,x,1/2-z
-y,-x,1/2-z
-x,-y,-z
y,-x,-z
x,y,-z
-y,x,-z
-x,y,1/2+z
x,-y,1/2+z
-y,-x,1/2+z
y,x,1/2+z
1/2+x,1/2+y,1/2+z
1/2-y,1/2+x,1/2+z
1/2-x,1/2-y,1/2+z
1/2+y,1/2-x,1/2+z
1/2+x,1/2-y,-z
1/2-x,1/2+y,-z
1/2+y,1/2+x,-z
1/2-y,1/2-x,-z
1/2-x,1/2-y,1/2-z
1/2+y,1/2-x,1/2-z
1/2+x,1/2+y,1/2-z
1/2-y,1/2+x,1/2-z
1/2-x,1/2+y,z
1/2+x,1/2-y,z
1/2-y,1/2-x,z
1/2+y,1/2+x,z
loop_
_atom_site_type_symbol
_atom_site_label
_atom_site_fract_x
_atom_site_fract_y
_atom_site_fract_z
Si Si1 0.297343 0.202657 0.321046
Si Si2 0.952125 0.230385 0.676991
Si Si3 0.363217 0.863217 0.325068
Si Si4 0.161255 0.546381 0.677229
Si Si5 0.146453 0.786291 0.815853
O O1 0.287757 0.212243 0.500000
O O2 0.335101 0.164900 0.298867
O O3 0.253864 0.179119 0.245341
O O4 0.949645 0.214707 0.500000
O O5 0.953735 0.284596 0.675307
O O6 0.905162 0.218804 0.760809
O O7 0.000000 0.215507 0.750000
O O8 0.350462 0.850462 0.500000
O O9 0.414381 0.853351 0.290145
O O10 0.145558 0.500000 0.750000
O O11 0.146229 0.552899 0.500000
O O12 0.168503 0.831498 0.750000
O O13 0.147761 0.785497 0.000000
#
# Coordination Sequence:
#
# PCOD9572268 Si02
#       5
#    16  32  16  32  32
#     4  12  23  37  52  74 106 143 183 222 263 311
#     4  10  20  35  55  78 106 138 176 220 265 310
#     4  12  22  33  53  77 103 134 172 214 263 316
#     4  10  20  34  53  75 102 131 168 215 265 314
#     4  12  24  38  55  77 108 146 184 222 265 316
#
# _framework density 16.63335
#
# number of rings (size 3 to 8) (size 9 to 14) (size 15 to 20)
#    0.000    1.000    2.500    6.375    0.000    2.000 
#    0.000    0.000    0.000    0.375    0.000    2.625 
#    0.000    0.500    0.000    5.000    0.000    3.000 
#
# Total GULP energy -357202.141192 kJ/mol
# GULP energy per Si atom -5581.283456 kJ/mol
# Density = 1.659549 g / cm^3
# Si number density = 16.633350 Si / 1000 Ang^3
#
#
#
# Elastic Constant Matrix: (Units=GPa)
#
#
# Indices 1 2 3 4 5 6 
#
# 1 111.3457 -1.0516 38.4826 0.0000 0.0000 0.0000
# 2 -1.0516 111.3476 38.4818 0.0000 0.0000 0.0000
# 3 38.4826 38.4818 149.6837 0.0000 0.0000 0.0000
# 4 0.0000 0.0000 0.0000 19.5596 0.0000 0.0000
# 5 0.0000 0.0000 0.0000 0.0000 19.5572 0.0000
# 6 0.0000 0.0000 0.0000 0.0000 0.0000 11.0017
#
#
#
# Elastic Compliance Matrix: (Units=1/GPa)
#
#
# Indices 1 2 3 4 5 6 
#
# 1 0.009973 0.001076 -0.002841 0.000000 0.000000 0.000000
# 2 0.001076 0.009973 -0.002840 0.000000 0.000000 0.000000
# 3 -0.002841 -0.002840 0.008141 0.000000 0.000000 0.000000
# 4 0.000000 0.000000 0.000000 0.051126 0.000000 0.000000
# 5 0.000000 0.000000 0.000000 0.000000 0.051132 0.000000
# 6 0.000000 0.000000 0.000000 0.000000 0.000000 0.090895
#
#
# Mechanical properties :
#
#
# Convention : Reuss Voigt Hill
#
# Bulk Modulus (GPa) = 52.97547 58.24473 55.61010
# Shear Modulus (GPa) = 21.12006 29.78800 25.45403
#
# Velocity S-wave (km/s) = 3.56721 4.23645 3.91615
# Velocity P-wave (km/s) = 6.99176 7.68263 7.34532
#
# Compressibility (1/GPa) = 0.01887666
#
# Stress axis : x y z
#
# Youngs Moduli (GPa) = 100.27131 100.27364 122.83060
#
# Poissons Ratio (x) = -0.10788 0.34891
# Poissons Ratio (y) = -0.10788 0.34890
# Poissons Ratio (z) = 0.28483 0.28482
#
# Static dielectric constant tensor:
#      x y z
#    x 1.596320 0.000000 0.000000 
#    y 0.000000 1.596320 0.000000 
#    z 0.000000 0.000000 1.577590 
# 
# From -- ./inp_files/1521.got.cif
#   From: 2010.05.17/outbox.cif.g08.bks.cpg/sg140_1_cif.got.tgz:1521.got - 2010.06.21 00:45:31.
