data_PCOD9572296
_publ_section_title
;
Structure prediction by ZEFSAII (Michael W. Deem and Ramdas Pophale) SiO2 
 PCOD9572296
Probable space group: I 4/M C M
;
_chemical_formula_sum "Si O2"
_cell_formula_units_Z 96
_cell_length_a 13.547822
_cell_length_b 13.547822
_cell_length_c 28.210611
_cell_angle_alpha 90.000000
_cell_angle_beta 90.000000
_cell_angle_gamma 90.000000
_cell_volume 5177.873742
_symmetry_space_group_name_H-M "I 4/M C M"
_symmetry_group_IT_number 140
_symmetry_cell_setting 'tetragonal'
loop_
_space_group_symop_operation_xyz
x,y,z
-y,x,z
-x,-y,z
y,-x,z
x,-y,1/2-z
-x,y,1/2-z
y,x,1/2-z
-y,-x,1/2-z
-x,-y,-z
y,-x,-z
x,y,-z
-y,x,-z
-x,y,1/2+z
x,-y,1/2+z
-y,-x,1/2+z
y,x,1/2+z
1/2+x,1/2+y,1/2+z
1/2-y,1/2+x,1/2+z
1/2-x,1/2-y,1/2+z
1/2+y,1/2-x,1/2+z
1/2+x,1/2-y,-z
1/2-x,1/2+y,-z
1/2+y,1/2+x,-z
1/2-y,1/2-x,-z
1/2-x,1/2-y,1/2-z
1/2+y,1/2-x,1/2-z
1/2+x,1/2+y,1/2-z
1/2-y,1/2+x,1/2-z
1/2-x,1/2+y,z
1/2+x,1/2-y,z
1/2-y,1/2-x,z
1/2+y,1/2+x,z
loop_
_atom_site_type_symbol
_atom_site_label
_atom_site_fract_x
_atom_site_fract_y
_atom_site_fract_z
Si Si1 0.386554 0.280140 0.446633
Si Si2 0.748660 0.918909 0.104481
Si Si3 0.835159 0.504461 0.803092
O O1 0.383939 0.321869 0.500000
O O2 0.310207 0.189794 0.445078
O O3 0.347437 0.359220 0.408427
O O4 0.493895 0.241833 0.433407
O O5 0.658986 0.841014 0.100123
O O6 0.737931 0.970613 0.155632
O O7 0.792504 0.500000 0.750000
O O8 0.923234 0.423234 0.802673
O O9 0.890651 0.609350 0.812035
#
# Coordination Sequence:
#
# PCOD9572296 Si02
#       3
#    32  32  32
#     4  10  21  35  52  76 103 134 176 219 257 305
#     4  10  20  35  53  74 104 138 171 213 262 307
#     4   8  14  27  50  78 104 132 169 211 254 304
#
# _framework density 18.540430000000001
#
# number of rings (size 3 to 8) (size 9 to 14) (size 15 to 20)
#    0.000    2.667    0.000    3.000    0.000    4.667 
#    0.000    5.000    0.000    8.000    0.000    2.333 
#    0.000    0.000    0.000    0.000    0.000    0.000 
#
# Total GULP energy -267393.414189 kJ/mol
# GULP energy per Si atom -5570.696129 kJ/mol
# Density = 1.849823 g / cm^3
# Si number density = 18.540430 Si / 1000 Ang^3
#
#
#
# Elastic Constant Matrix: (Units=GPa)
#
#
# Indices 1 2 3 4 5 6 
#
# 1 41.7506 6.6790 37.5862 0.0000 0.0000 0.0000
# 2 6.6790 41.7506 37.5862 0.0000 0.0000 0.0000
# 3 37.5862 37.5862 95.8113 0.0000 0.0000 0.0000
# 4 0.0000 0.0000 0.0000 77.4531 0.0000 0.0000
# 5 0.0000 0.0000 0.0000 0.0000 77.4531 0.0000
# 6 0.0000 0.0000 0.0000 0.0000 0.0000 4.7117
#
#
#
# Elastic Compliance Matrix: (Units=1/GPa)
#
#
# Indices 1 2 3 4 5 6 
#
# 1 0.040656 0.012143 -0.020713 0.000000 0.000000 0.000000
# 2 0.012143 0.040656 -0.020713 0.000000 0.000000 0.000000
# 3 -0.020713 -0.020713 0.026688 0.000000 0.000000 0.000000
# 4 0.000000 0.000000 0.000000 0.012911 0.000000 0.000000
# 5 0.000000 0.000000 0.000000 0.000000 0.012911 0.000000
# 6 0.000000 0.000000 0.000000 0.000000 0.000000 0.212237
#
#
# Mechanical properties :
#
#
# Convention : Reuss Voigt Hill
#
# Bulk Modulus (GPa) = 20.22861 38.11284 29.17072
# Shear Modulus (GPa) = 11.87359 38.42100 25.14730
#
# Velocity S-wave (km/s) = 2.53339 4.55717 3.68686
# Velocity P-wave (km/s) = 4.41493 6.94922 5.82165
#
# Compressibility (1/GPa) = 0.04943493
#
# Stress axis : x y z
#
# Youngs Moduli (GPa) = 24.59669 24.59669 37.46988
#
# Poissons Ratio (x) = -0.29867 0.77610
# Poissons Ratio (y) = -0.29867 0.77610
# Poissons Ratio (z) = 0.50946 0.50946
#
# Static dielectric constant tensor:
#      x y z
#    x 1.633200 0.000000 0.000000 
#    y 0.000000 1.633200 0.000000 
#    z 0.000000 0.000000 1.670350 
# 
# From -- ./inp_files/11214.got.cif
#   From: 2010.05.17/outbox.cif.g08.bks.cpg/sg140_6_cif.got.tgz:11214.got - 2010.06.21 00:45:31.
