data_PCOD9572244
_publ_section_title
;
Structure prediction by ZEFSAII (Michael W. Deem and Ramdas Pophale) SiO2 
 PCOD9572244
Probable space group: I 4/M C M
;
_chemical_formula_sum "Si O2"
_cell_formula_units_Z 192
_cell_length_a 28.529481
_cell_length_b 28.529481
_cell_length_c 14.610031
_cell_angle_alpha 90.000000
_cell_angle_beta 90.000000
_cell_angle_gamma 90.000000
_cell_volume 11891.561322
_symmetry_space_group_name_H-M "I 4/M C M"
_symmetry_group_IT_number 140
_symmetry_cell_setting 'tetragonal'
loop_
_space_group_symop_operation_xyz
x,y,z
-y,x,z
-x,-y,z
y,-x,z
x,-y,1/2-z
-x,y,1/2-z
y,x,1/2-z
-y,-x,1/2-z
-x,-y,-z
y,-x,-z
x,y,-z
-y,x,-z
-x,y,1/2+z
x,-y,1/2+z
-y,-x,1/2+z
y,x,1/2+z
1/2+x,1/2+y,1/2+z
1/2-y,1/2+x,1/2+z
1/2-x,1/2-y,1/2+z
1/2+y,1/2-x,1/2+z
1/2+x,1/2-y,-z
1/2-x,1/2+y,-z
1/2+y,1/2+x,-z
1/2-y,1/2-x,-z
1/2-x,1/2-y,1/2-z
1/2+y,1/2-x,1/2-z
1/2+x,1/2+y,1/2-z
1/2-y,1/2+x,1/2-z
1/2-x,1/2+y,z
1/2+x,1/2-y,z
1/2-y,1/2-x,z
1/2+y,1/2+x,z
loop_
_atom_site_type_symbol
_atom_site_label
_atom_site_fract_x
_atom_site_fract_y
_atom_site_fract_z
Si Si1 0.801693 0.795133 0.105347
Si Si2 0.227157 0.944475 0.752412
Si Si3 0.849785 0.066627 0.604267
Si Si4 0.770602 0.344163 0.242988
Si Si5 0.655022 0.597717 0.104820
Si Si6 0.573812 0.495851 0.139754
O O1 0.818113 0.751874 0.168486
O O2 0.761830 0.824357 0.159386
O O3 0.850041 0.823596 0.102946
O O4 0.788846 0.785038 0.000000
O O5 0.196833 0.935148 0.661752
O O6 0.263993 0.900560 0.754716
O O7 0.189304 0.933561 0.833279
O O8 0.241699 0.000000 0.750000
O O9 0.840963 0.079827 0.500000
O O10 0.887818 0.103895 0.643270
O O11 0.874768 0.016232 0.608432
O O12 0.822555 0.322555 0.231063
O O13 0.651900 0.580738 0.000000
O O14 0.546497 0.540971 0.107250
O O15 0.574380 0.500000 0.250000
#
# Coordination Sequence:
#
# PCOD9572244 Si02
#       6
#    32  32  32  32  32  32
#     4   9  16  31  52  75 100 125 154 193 239 286
#     4  11  23  36  51  69  98 129 159 198 247 295
#     4  11  22  33  49  69  91 121 160 200 244 298
#     4  10  20  33  50  74 100 127 162 200 239 293
#     4   9  19  34  51  70  94 122 156 197 240 289
#     4   9  20  35  47  58  76 109 157 210 257 291
#
# _framework density 16.145903000000001
#
# number of rings (size 3 to 8) (size 9 to 14) (size 15 to 20)
#    0.000    2.167    1.667    2.500    7.000    2.667 
#    0.000    0.833    0.000    0.000    0.000    0.000 
#    0.000    0.333    0.000    0.000    0.000    0.000 
#
# Total GULP energy -534707.662916 kJ/mol
# GULP energy per Si atom -5569.871489 kJ/mol
# Density = 1.610915 g / cm^3
# Si number density = 16.145903 Si / 1000 Ang^3
#
#
#
# Elastic Constant Matrix: (Units=GPa)
#
#
# Indices 1 2 3 4 5 6 
#
# 1 79.6285 58.9405 16.1449 0.0000 0.0000 0.0000
# 2 58.9405 79.6285 16.1449 0.0000 0.0000 0.0000
# 3 16.1449 16.1449 99.9738 0.0000 0.0000 0.0000
# 4 0.0000 0.0000 0.0000 6.5086 0.0000 0.0000
# 5 0.0000 0.0000 0.0000 0.0000 6.5086 0.0000
# 6 0.0000 0.0000 0.0000 0.0000 0.0000 45.2333
#
#
#
# Elastic Compliance Matrix: (Units=1/GPa)
#
#
# Indices 1 2 3 4 5 6 
#
# 1 0.027918 -0.020419 -0.001211 0.000000 0.000000 0.000000
# 2 -0.020419 0.027918 -0.001211 0.000000 0.000000 0.000000
# 3 -0.001211 -0.001211 0.010394 0.000000 0.000000 0.000000
# 4 0.000000 0.000000 0.000000 0.153643 0.000000 0.000000
# 5 0.000000 0.000000 0.000000 0.000000 0.153643 0.000000
# 6 0.000000 0.000000 0.000000 0.000000 0.000000 0.022108
#
#
# Mechanical properties :
#
#
# Convention : Reuss Voigt Hill
#
# Bulk Modulus (GPa) = 48.66798 49.07684 48.87241
# Shear Modulus (GPa) = 11.15688 22.85013 17.00350
#
# Velocity S-wave (km/s) = 2.63155 3.76603 3.24869
# Velocity P-wave (km/s) = 6.28024 7.02656 6.66386
#
# Compressibility (1/GPa) = 0.02054739
#
# Stress axis : x y z
#
# Youngs Moduli (GPa) = 35.81927 35.81927 96.21165
#
# Poissons Ratio (x) = 0.73140 0.11651
# Poissons Ratio (y) = 0.73140 0.11651
# Poissons Ratio (z) = 0.04338 0.04338
#
# Static dielectric constant tensor:
#      x y z
#    x 1.588180 0.000000 0.000000 
#    y 0.000000 1.588180 0.000000 
#    z 0.000000 0.000000 1.590820 
# 
# From -- ./inp_files/5318.got.cif
#   From: 2010.05.17/outbox.cif.g08.bks.cpg/sg140_3_cif.got.tgz:5318.got - 2010.06.21 00:45:31.
