data_PCOD9572517
_publ_section_title
;
Structure prediction by ZEFSAII (Michael W. Deem and Ramdas Pophale) SiO2 
 PCOD9572517
Probable space group: I 4/M C M
;
_chemical_formula_sum "Si O2"
_cell_formula_units_Z 160
_cell_length_a 23.161363
_cell_length_b 23.161363
_cell_length_c 14.509806
_cell_angle_alpha 90.000000
_cell_angle_beta 90.000000
_cell_angle_gamma 90.000000
_cell_volume 7783.767089
_symmetry_space_group_name_H-M "I 4/M C M"
_symmetry_group_IT_number 140
_symmetry_cell_setting 'tetragonal'
loop_
_space_group_symop_operation_xyz
x,y,z
-y,x,z
-x,-y,z
y,-x,z
x,-y,1/2-z
-x,y,1/2-z
y,x,1/2-z
-y,-x,1/2-z
-x,-y,-z
y,-x,-z
x,y,-z
-y,x,-z
-x,y,1/2+z
x,-y,1/2+z
-y,-x,1/2+z
y,x,1/2+z
1/2+x,1/2+y,1/2+z
1/2-y,1/2+x,1/2+z
1/2-x,1/2-y,1/2+z
1/2+y,1/2-x,1/2+z
1/2+x,1/2-y,-z
1/2-x,1/2+y,-z
1/2+y,1/2+x,-z
1/2-y,1/2-x,-z
1/2-x,1/2-y,1/2-z
1/2+y,1/2-x,1/2-z
1/2+x,1/2+y,1/2-z
1/2-y,1/2+x,1/2-z
1/2-x,1/2+y,z
1/2+x,1/2-y,z
1/2-y,1/2-x,z
1/2+y,1/2+x,z
loop_
_atom_site_type_symbol
_atom_site_label
_atom_site_fract_x
_atom_site_fract_y
_atom_site_fract_z
Si Si1 0.301588 0.288742 0.896198
Si Si2 0.422393 0.451353 0.356848
Si Si3 0.792756 0.963213 0.891015
Si Si4 0.411732 0.258076 0.393463
Si Si5 0.115940 0.706877 0.790335
O O1 0.236615 0.263385 0.892866
O O2 0.299747 0.356712 0.888443
O O3 0.336402 0.255147 0.818817
O O4 0.323500 0.273487 0.000000
O O5 0.482188 0.424019 0.394511
O O6 0.438377 0.438377 0.250000
O O7 0.355019 0.435098 0.367853
O O8 0.735084 0.937085 0.845161
O O9 0.791877 0.030698 0.865650
O O10 0.786736 0.958695 0.000000
O O11 0.416345 0.238531 0.500000
O O12 0.399318 0.209761 0.317175
O O13 0.146255 0.646255 0.815444
#
# Coordination Sequence:
#
# PCOD9572517 Si02
#       5
#    32  32  32  32  32
#     4   9  18  34  56  83 115 152 195 241 294 359
#     4   9  21  39  59  83 113 160 213 266 308 345
#     4  11  25  40  60  87 119 163 208 255 309 364
#     4  10  22  38  57  85 116 148 195 250 302 361
#     4  11  23  38  59  85 118 160 201 247 306 373
#
# _framework density 20.555598
#
# number of rings (size 3 to 8) (size 9 to 14) (size 15 to 20)
#    0.000    2.000    0.000    3.000    8.400    4.800 
#    0.000    1.000    0.000    0.000    0.000    0.000 
#    0.000   13.600    0.000   45.400    0.000    0.000 
#
# Total GULP energy -445568.919322 kJ/mol
# GULP energy per Si atom -5569.611492 kJ/mol
# Density = 2.050881 g / cm^3
# Si number density = 20.555598 Si / 1000 Ang^3
#
#
#
# Elastic Constant Matrix: (Units=GPa)
#
#
# Indices 1 2 3 4 5 6 
#
# 1 84.0687 45.6468 17.6955 0.0000 0.0000 0.0000
# 2 45.6468 84.0687 17.6955 0.0000 0.0000 0.0000
# 3 17.6955 17.6955 98.3754 0.0000 0.0000 0.0000
# 4 0.0000 0.0000 0.0000 11.9968 0.0000 0.0000
# 5 0.0000 0.0000 0.0000 0.0000 11.9968 0.0000
# 6 0.0000 0.0000 0.0000 0.0000 0.0000 16.8274
#
#
#
# Elastic Compliance Matrix: (Units=1/GPa)
#
#
# Indices 1 2 3 4 5 6 
#
# 1 0.017067 -0.008960 -0.001458 0.000000 0.000000 0.000000
# 2 -0.008960 0.017067 -0.001458 0.000000 0.000000 0.000000
# 3 -0.001458 -0.001458 0.010690 0.000000 0.000000 0.000000
# 4 0.000000 0.000000 0.000000 0.083355 0.000000 0.000000
# 5 0.000000 0.000000 0.000000 0.000000 0.083355 0.000000
# 6 0.000000 0.000000 0.000000 0.000000 0.000000 0.059427
#
#
# Mechanical properties :
#
#
# Convention : Reuss Voigt Hill
#
# Bulk Modulus (GPa) = 47.45911 47.62092 47.54002
# Shear Modulus (GPa) = 16.57069 20.52922 18.54996
#
# Velocity S-wave (km/s) = 2.84234 3.16368 3.00730
# Velocity P-wave (km/s) = 5.82324 6.04668 5.93601
#
# Compressibility (1/GPa) = 0.02107077
#
# Stress axis : x y z
#
# Youngs Moduli (GPa) = 58.59279 58.59279 93.54750
#
# Poissons Ratio (x) = 0.52499 0.13642
# Poissons Ratio (y) = 0.52499 0.13642
# Poissons Ratio (z) = 0.08544 0.08544
#
# Static dielectric constant tensor:
#      x y z
#    x 1.794000 0.000000 0.000000 
#    y 0.000000 1.794000 0.000000 
#    z 0.000000 0.000000 1.826910 
# 
# From -- ./inp_files/4759.got.cif
#   From: 2010.05.17/outbox.cif.g08.bks.cpg/sg140_3_cif.got.tgz:4759.got - 2010.06.21 00:45:31.
