data_PCOD9572431
_publ_section_title
;
Structure prediction by ZEFSAII (Michael W. Deem and Ramdas Pophale) SiO2 
 PCOD9572431
Probable space group: I 4/M C M
;
_chemical_formula_sum "Si O2"
_cell_formula_units_Z 112
_cell_length_a 12.332093
_cell_length_b 12.332093
_cell_length_c 33.417688
_cell_angle_alpha 90.000000
_cell_angle_beta 90.000000
_cell_angle_gamma 90.000000
_cell_volume 5082.179293
_symmetry_space_group_name_H-M "I 4/M C M"
_symmetry_group_IT_number 140
_symmetry_cell_setting 'tetragonal'
loop_
_space_group_symop_operation_xyz
x,y,z
-y,x,z
-x,-y,z
y,-x,z
x,-y,1/2-z
-x,y,1/2-z
y,x,1/2-z
-y,-x,1/2-z
-x,-y,-z
y,-x,-z
x,y,-z
-y,x,-z
-x,y,1/2+z
x,-y,1/2+z
-y,-x,1/2+z
y,x,1/2+z
1/2+x,1/2+y,1/2+z
1/2-y,1/2+x,1/2+z
1/2-x,1/2-y,1/2+z
1/2+y,1/2-x,1/2+z
1/2+x,1/2-y,-z
1/2-x,1/2+y,-z
1/2+y,1/2+x,-z
1/2-y,1/2-x,-z
1/2-x,1/2-y,1/2-z
1/2+y,1/2-x,1/2-z
1/2+x,1/2+y,1/2-z
1/2-y,1/2+x,1/2-z
1/2-x,1/2+y,z
1/2+x,1/2-y,z
1/2-y,1/2-x,z
1/2+y,1/2+x,z
loop_
_atom_site_type_symbol
_atom_site_label
_atom_site_fract_x
_atom_site_fract_y
_atom_site_fract_z
Si Si1 0.315983 0.003415 0.000000
Si Si2 0.269667 0.407183 0.078496
Si Si3 0.769423 0.913859 0.867869
Si Si4 0.727611 0.409400 0.777331
O O1 0.240868 0.979441 0.038513
O O2 0.413063 0.913063 0.000000
O O3 0.380694 0.119307 0.000000
O O4 0.198858 0.301143 0.069385
O O5 0.215307 0.481154 0.112650
O O6 0.377267 0.364195 0.101198
O O7 0.684533 0.815468 0.866935
O O8 0.803557 0.939331 0.822545
O O9 0.783515 0.500000 0.750000
O O10 0.627990 0.372011 0.750000
O O11 0.808597 0.308597 0.781155
#
# Coordination Sequence:
#
# PCOD9572431 Si02
#       4
#    16  32  32  32
#     4   9  18  34  58  85 113 149 188 229 281 337
#     4  10  21  37  56  83 117 149 191 241 285 346
#     4  10  21  36  57  82 110 150 189 232 296 348
#     4  10  21  37  56  80 111 146 188 238 290 348
#
# _framework density 22.037789
#
# number of rings (size 3 to 8) (size 9 to 14) (size 15 to 20)
#    0.000    2.143    0.000    2.571    0.000    7.429 
#    0.000    8.571    0.000    1.714    0.000    0.000 
#    0.000    0.000    0.000    0.000    0.000    0.000 
#
# Total GULP energy -311807.256405 kJ/mol
# GULP energy per Si atom -5567.986722 kJ/mol
# Density = 2.198763 g / cm^3
# Si number density = 22.037789 Si / 1000 Ang^3
#
#
#
# Elastic Constant Matrix: (Units=GPa)
#
#
# Indices 1 2 3 4 5 6 
#
# 1 38.6187 -11.9601 21.4111 0.0000 0.0000 0.0000
# 2 -11.9601 38.6176 21.4107 0.0000 0.0000 0.0000
# 3 21.4111 21.4107 171.4990 0.0000 0.0000 0.0000
# 4 0.0000 0.0000 0.0000 10.4746 0.0000 0.0000
# 5 0.0000 0.0000 0.0000 0.0000 10.4748 0.0000
# 6 0.0000 0.0000 0.0000 0.0000 0.0000 -10.0646
#
#
#
# Elastic Compliance Matrix: (Units=1/GPa)
#
#
# Indices 1 2 3 4 5 6 
#
# 1 0.033346 0.013575 -0.005858 0.000000 0.000000 0.000000
# 2 0.013575 0.033347 -0.005858 0.000000 0.000000 0.000000
# 3 -0.005858 -0.005858 0.007294 0.000000 0.000000 0.000000
# 4 0.000000 0.000000 0.000000 0.095469 0.000000 0.000000
# 5 0.000000 0.000000 0.000000 0.000000 0.095467 0.000000
# 6 0.000000 0.000000 0.000000 0.000000 0.000000 -0.099358
#
#
# Mechanical properties :
#
#
# Convention : Reuss Voigt Hill
#
# Bulk Modulus (GPa) = 12.86909 34.49543 23.68226
# Shear Modulus (GPa) = 26.63154 16.70189 21.66672
#
# Velocity S-wave (km/s) = 3.48005 2.75594 3.13894
# Velocity P-wave (km/s) = 4.69040 5.08073 4.88946
#
# Compressibility (1/GPa) = 0.07770556
#
# Stress axis : x y z
#
# Youngs Moduli (GPa) = 29.98843 29.98761 137.10597
#
# Poissons Ratio (x) = -0.40709 0.80316
# Poissons Ratio (y) = -0.40710 0.80317
# Poissons Ratio (z) = 0.17567 0.17567
#
# Static dielectric constant tensor:
#      x y z
#    x 1.907090 0.000000 0.000000 
#    y 0.000000 1.907110 0.000000 
#    z 0.000000 0.000000 1.792580 
# 
# From -- ./inp_files/10278.got.cif
#   From: 2010.05.17/outbox.cif.g08.bks.cpg/sg140_6_cif.got.tgz:10278.got - 2010.06.21 00:45:31.
