data_PCOD9572900
_publ_section_title
;
Structure prediction by ZEFSAII (Michael W. Deem and Ramdas Pophale) SiO2 
 PCOD9572900
Probable space group: I 41/A M D
;
_chemical_formula_sum "Si O2"
_cell_formula_units_Z 192
_cell_length_a 17.593026
_cell_length_b 17.593026
_cell_length_c 31.166302
_cell_angle_alpha 90.000000
_cell_angle_beta 90.000000
_cell_angle_gamma 90.000000
_cell_volume 9646.424370
_symmetry_space_group_name_H-M "I 41/A M D"
_symmetry_group_IT_number 141
_space_group.IT_coordinate_system_code '2'
_symmetry_cell_setting 'tetragonal'
loop_
_space_group_symop_operation_xyz
x,y,z
1/4-y,3/4+x,1/4+z
-x,1/2-y,z
1/4+y,1/4-x,3/4+z
x,-y,-z
-x,1/2+y,-z
1/4+y,3/4+x,1/4-z
1/4-y,1/4-x,3/4-z
-x,-y,-z
3/4+y,1/4-x,3/4-z
x,1/2+y,-z
3/4-y,3/4+x,1/4-z
-x,y,z
x,1/2-y,z
3/4-y,1/4-x,3/4+z
3/4+y,3/4+x,1/4+z
1/2+x,1/2+y,1/2+z
3/4-y,1/4+x,3/4+z
1/2-x,-y,1/2+z
3/4+y,3/4-x,1/4+z
1/2+x,1/2-y,1/2-z
1/2-x,y,1/2-z
3/4+y,1/4+x,3/4-z
3/4-y,3/4-x,1/4-z
1/2-x,1/2-y,1/2-z
1/4+y,3/4-x,1/4-z
1/2+x,y,1/2-z
1/4-y,1/4+x,3/4-z
1/2-x,1/2+y,1/2+z
1/2+x,-y,1/2+z
1/4-y,3/4-x,1/4+z
1/4+y,1/4+x,3/4+z
loop_
_atom_site_type_symbol
_atom_site_label
_atom_site_fract_x
_atom_site_fract_y
_atom_site_fract_z
Si Si1 0.414072 0.587760 0.628355
Si Si2 0.129582 0.947394 0.964542
Si Si3 0.251896 0.337177 0.010016
Si Si4 0.775888 0.452250 0.562561
Si Si5 0.637967 0.894211 0.924370
Si Si6 0.908875 0.750000 0.833158
Si Si7 0.660193 0.250000 0.238378
O O1 0.500000 0.577408 0.644638
O O2 0.413712 0.578101 0.577508
O O3 0.356174 0.526757 0.648271
O O4 0.386340 0.671709 0.642993
O O5 0.168090 0.872664 0.985223
O O6 0.199986 0.001354 0.948832
O O7 0.089875 0.000000 0.000000
O O8 0.253698 0.250000 0.995927
O O9 0.292886 0.345776 0.055838
O O10 0.293000 0.396966 0.977816
O O11 0.836229 0.517584 0.573177
O O12 0.623111 0.873111 0.875000
O O13 0.570261 0.887303 0.958129
O O14 0.880561 0.750000 0.784354
O O15 0.000000 0.750000 0.833199
O O16 0.750000 0.250000 0.250000
#
# Coordination Sequence:
#
# PCOD9572900 Si02
#       7
#    32  32  32  32  32  16  16
#     4  11  21  35  58  82 113 147 191 237 288 354
#     4   9  20  36  56  84 117 144 178 237 295 348
#     4  10  20  34  58  80 107 148 193 233 289 356
#     4  10  19  37  56  82 111 144 190 245 295 340
#     4  11  23  37  55  79 113 149 195 250 305 354
#     4  10  24  40  54  82 112 156 198 240 290 344
#     4  12  24  38  58  80 110 152 202 246 300 368
#
# _framework density 19.903748
#
# number of rings (size 3 to 8) (size 9 to 14) (size 15 to 20)
#    0.000    1.667    0.000    7.500    2.333    2.333 
#    0.000    0.000    0.000    0.000    0.000    0.000 
#    0.000    7.667    0.000    0.000    0.000    0.000 
#
# Total GULP energy -535663.640492 kJ/mol
# GULP energy per Si atom -5579.829588 kJ/mol
# Density = 1.985845 g / cm^3
# Si number density = 19.903748 Si / 1000 Ang^3
#
#
#
# Elastic Constant Matrix: (Units=GPa)
#
#
# Indices 1 2 3 4 5 6 
#
# 1 74.6445 19.7175 20.9067 0.0000 0.0000 0.0000
# 2 19.7175 74.6445 20.9067 0.0000 0.0000 0.0000
# 3 20.9067 20.9067 135.4577 0.0000 0.0000 0.0000
# 4 0.0000 0.0000 0.0000 30.2412 0.0000 0.0000
# 5 0.0000 0.0000 0.0000 0.0000 30.2412 0.0000
# 6 0.0000 0.0000 0.0000 0.0000 0.0000 4.7890
#
#
#
# Elastic Compliance Matrix: (Units=1/GPa)
#
#
# Indices 1 2 3 4 5 6 
#
# 1 0.014791 -0.003415 -0.001756 0.000000 0.000000 0.000000
# 2 -0.003415 0.014791 -0.001756 0.000000 0.000000 0.000000
# 3 -0.001756 -0.001756 0.007924 0.000000 0.000000 0.000000
# 4 0.000000 0.000000 0.000000 0.033067 0.000000 0.000000
# 5 0.000000 0.000000 0.000000 0.000000 0.033067 0.000000
# 6 0.000000 0.000000 0.000000 0.000000 0.000000 0.208811
#
#
# Mechanical properties :
#
#
# Convention : Reuss Voigt Hill
#
# Bulk Modulus (GPa) = 42.27890 45.31205 43.79547
# Shear Modulus (GPa) = 14.96160 27.93534 21.44847
#
# Velocity S-wave (km/s) = 2.74469 3.75042 3.28626
# Velocity P-wave (km/s) = 5.59752 6.44742 6.03744
#
# Compressibility (1/GPa) = 0.02365246
#
# Stress axis : x y z
#
# Youngs Moduli (GPa) = 67.60990 67.60990 126.19364
#
# Poissons Ratio (x) = 0.23091 0.22156
# Poissons Ratio (y) = 0.23091 0.22156
# Poissons Ratio (z) = 0.11870 0.11870
#
# Static dielectric constant tensor:
#      x y z
#    x 1.722430 0.000000 0.000000 
#    y 0.000000 1.722430 0.000000 
#    z 0.000000 0.000000 1.757100 
# 
# From -- ./inp_files/14470.got.cif
#   From: 2010.05.17/outbox.cif.g08.bks.cpg/sg141_8_cif.got.tgz:14470.got - 2010.05.20 13:30:51.
