data_PCOD9572130
_publ_section_title
;
Structure prediction by ZEFSAII (Michael W. Deem and Ramdas Pophale) SiO2 
 PCOD9572130
Probable space group: I 4/M C M
;
_chemical_formula_sum "Si O2"
_cell_formula_units_Z 192
_cell_length_a 25.111215
_cell_length_b 25.111215
_cell_length_c 14.965826
_cell_angle_alpha 90.000000
_cell_angle_beta 90.000000
_cell_angle_gamma 90.000000
_cell_volume 9437.047576
_symmetry_space_group_name_H-M "I 4/M C M"
_symmetry_group_IT_number 140
_symmetry_cell_setting 'tetragonal'
loop_
_space_group_symop_operation_xyz
x,y,z
-y,x,z
-x,-y,z
y,-x,z
x,-y,1/2-z
-x,y,1/2-z
y,x,1/2-z
-y,-x,1/2-z
-x,-y,-z
y,-x,-z
x,y,-z
-y,x,-z
-x,y,1/2+z
x,-y,1/2+z
-y,-x,1/2+z
y,x,1/2+z
1/2+x,1/2+y,1/2+z
1/2-y,1/2+x,1/2+z
1/2-x,1/2-y,1/2+z
1/2+y,1/2-x,1/2+z
1/2+x,1/2-y,-z
1/2-x,1/2+y,-z
1/2+y,1/2+x,-z
1/2-y,1/2-x,-z
1/2-x,1/2-y,1/2-z
1/2+y,1/2-x,1/2-z
1/2+x,1/2+y,1/2-z
1/2-y,1/2+x,1/2-z
1/2-x,1/2+y,z
1/2+x,1/2-y,z
1/2-y,1/2-x,z
1/2+y,1/2+x,z
loop_
_atom_site_type_symbol
_atom_site_label
_atom_site_fract_x
_atom_site_fract_y
_atom_site_fract_z
Si Si1 0.650778 0.939685 0.103712
Si Si2 0.577591 0.686510 0.398723
Si Si3 0.653328 0.500000 0.250000
Si Si4 0.241458 0.109321 0.897526
Si Si5 0.803160 0.219003 0.646442
Si Si6 0.430372 0.624945 0.602063
Si Si7 0.000000 0.411010 0.750000
O O1 0.609497 0.890504 0.103046
O O2 0.705847 0.915896 0.143529
O O3 0.625503 0.984518 0.166160
O O4 0.655836 0.957287 0.000000
O O5 0.559369 0.700923 0.500000
O O6 0.535834 0.689994 0.317463
O O7 0.635097 0.714219 0.380949
O O8 0.591798 0.623616 0.398753
O O9 0.613821 0.529564 0.319216
O O10 0.233035 0.172669 0.896588
O O11 0.184907 0.086596 0.868639
O O12 0.245951 0.093680 0.000000
O O13 0.796319 0.203682 0.750000
O O14 0.775735 0.275735 0.629588
O O15 0.451395 0.624971 0.500000
O O16 0.049962 0.450039 0.768794
#
# Coordination Sequence:
#
# PCOD9572130 Si02
#       7
#    32  32  16  32  32  32  16
#     4   9  17  29  47  71  97 131 181 234 280 332
#     4  10  21  36  55  81 112 149 194 239 287 342
#     4  12  20  33  56  80 110 147 188 234 280 326
#     4   9  17  31  51  76 106 138 177 228 279 328
#     4  10  19  32  53  83 119 155 188 227 283 348
#     4   9  19  34  52  77 107 139 179 228 282 342
#     4   9  18  31  46  69 106 149 190 240 300 346
#
# _framework density 20.345345999999999
#
# number of rings (size 3 to 8) (size 9 to 14) (size 15 to 20)
#    0.000    2.417    0.000    5.000    0.000    3.000 
#    0.000    1.667    0.000    4.000    0.000   10.500 
#    0.000   14.667    0.000    0.000    0.000    0.417 
#
# Total GULP energy -534717.798714 kJ/mol
# GULP energy per Si atom -5569.977070 kJ/mol
# Density = 2.029904 g / cm^3
# Si number density = 20.345346 Si / 1000 Ang^3
#
#
#
# Elastic Constant Matrix: (Units=GPa)
#
#
# Indices 1 2 3 4 5 6 
#
# 1 77.1374 19.3724 41.8558 0.0000 0.0000 0.0000
# 2 19.3724 77.1374 41.8557 0.0000 0.0000 0.0000
# 3 41.8558 41.8557 115.8360 0.0000 0.0000 0.0000
# 4 0.0000 0.0000 0.0000 23.1566 0.0000 0.0000
# 5 0.0000 0.0000 0.0000 0.0000 23.1573 0.0000
# 6 0.0000 0.0000 0.0000 0.0000 0.0000 8.0070
#
#
#
# Elastic Compliance Matrix: (Units=1/GPa)
#
#
# Indices 1 2 3 4 5 6 
#
# 1 0.016202 -0.001110 -0.005453 0.000000 0.000000 0.000000
# 2 -0.001110 0.016202 -0.005453 0.000000 0.000000 0.000000
# 3 -0.005453 -0.005453 0.012574 0.000000 0.000000 0.000000
# 4 0.000000 0.000000 0.000000 0.043184 0.000000 0.000000
# 5 0.000000 0.000000 0.000000 0.000000 0.043183 0.000000
# 6 0.000000 0.000000 0.000000 0.000000 0.000000 0.124891
#
#
# Mechanical properties :
#
#
# Convention : Reuss Voigt Hill
#
# Bulk Modulus (GPa) = 47.74547 52.91985 50.33266
# Shear Modulus (GPa) = 17.40649 21.99930 19.70289
#
# Velocity S-wave (km/s) = 2.92815 3.29187 3.11532
# Velocity P-wave (km/s) = 5.91190 6.36520 6.14273
#
# Compressibility (1/GPa) = 0.02094439
#
# Stress axis : x y z
#
# Youngs Moduli (GPa) = 61.72231 61.72241 79.53081
#
# Poissons Ratio (x) = 0.06851 0.43370
# Poissons Ratio (y) = 0.06851 0.43369
# Poissons Ratio (z) = 0.33658 0.33658
#
# Static dielectric constant tensor:
#      x y z
#    x 1.803420 0.000000 0.000000 
#    y 0.000000 1.803420 0.000000 
#    z 0.000000 0.000000 1.639530 
# 
# From -- ./inp_files/5185.got.cif
#   From: 2010.05.17/outbox.cif.g08.bks.cpg/sg140_3_cif.got.tgz:5185.got - 2010.06.21 00:45:31.
