data_PCOD9572428
_publ_section_title
;
Structure prediction by ZEFSAII (Michael W. Deem and Ramdas Pophale) SiO2 
 PCOD9572428
Probable space group: I 4/M C M
;
_chemical_formula_sum "Si O2"
_cell_formula_units_Z 176
_cell_length_a 25.220730
_cell_length_b 25.220730
_cell_length_c 13.454496
_cell_angle_alpha 90.000000
_cell_angle_beta 90.000000
_cell_angle_gamma 90.000000
_cell_volume 8558.206071
_symmetry_space_group_name_H-M "I 4/M C M"
_symmetry_group_IT_number 140
_symmetry_cell_setting 'tetragonal'
loop_
_space_group_symop_operation_xyz
x,y,z
-y,x,z
-x,-y,z
y,-x,z
x,-y,1/2-z
-x,y,1/2-z
y,x,1/2-z
-y,-x,1/2-z
-x,-y,-z
y,-x,-z
x,y,-z
-y,x,-z
-x,y,1/2+z
x,-y,1/2+z
-y,-x,1/2+z
y,x,1/2+z
1/2+x,1/2+y,1/2+z
1/2-y,1/2+x,1/2+z
1/2-x,1/2-y,1/2+z
1/2+y,1/2-x,1/2+z
1/2+x,1/2-y,-z
1/2-x,1/2+y,-z
1/2+y,1/2+x,-z
1/2-y,1/2-x,-z
1/2-x,1/2-y,1/2-z
1/2+y,1/2-x,1/2-z
1/2+x,1/2+y,1/2-z
1/2-y,1/2+x,1/2-z
1/2-x,1/2+y,z
1/2+x,1/2-y,z
1/2-y,1/2-x,z
1/2+y,1/2+x,z
loop_
_atom_site_type_symbol
_atom_site_label
_atom_site_fract_x
_atom_site_fract_y
_atom_site_fract_z
Si Si1 0.248880 0.664385 0.383094
Si Si2 0.078391 0.337847 0.821684
Si Si3 0.461763 0.805920 0.614261
Si Si4 0.851241 0.851241 0.250000
Si Si5 0.986813 0.915857 0.881468
Si Si6 0.320222 0.452718 0.381281
O O1 0.259348 0.667404 0.500000
O O2 0.218275 0.718275 0.352548
O O3 0.207635 0.617206 0.362008
O O4 0.302223 0.653635 0.324970
O O5 0.106367 0.393634 0.844730
O O6 0.073007 0.330655 0.702517
O O7 0.020850 0.328487 0.868658
O O8 0.444993 0.815165 0.500000
O O9 0.461580 0.742286 0.632043
O O10 0.841984 0.904444 0.185438
O O11 0.042768 0.942124 0.850353
O O12 0.994029 0.854277 0.857819
O O13 0.982253 0.917882 0.000000
O O14 0.328792 0.441200 0.500000
#
# Coordination Sequence:
#
# PCOD9572428 Si02
#       6
#    32  32  32  16  32  32
#     4  10  21  37  57  82 114 154 201 251 304 365
#     4  10  21  40  65  93 124 161 204 250 305 372
#     4  10  21  39  63  93 126 158 197 251 307 368
#     4  12  21  36  54  83 118 162 202 250 304 361
#     4   8  15  31  53  75 105 150 203 253 298 346
#     4  10  21  36  55  84 120 160 205 252 308 362
#
# _framework density 20.565058000000001
#
# number of rings (size 3 to 8) (size 9 to 14) (size 15 to 20)
#    0.000    2.182    1.818    1.909    0.000    2.909 
#    0.000    3.636    0.000    5.455    0.000    5.091 
#    0.000    0.000    0.000    0.000    0.000    0.000 
#
# Total GULP energy -491294.407966 kJ/mol
# GULP energy per Si atom -5582.891000 kJ/mol
# Density = 2.051825 g / cm^3
# Si number density = 20.565058 Si / 1000 Ang^3
#
#
#
# Elastic Constant Matrix: (Units=GPa)
#
#
# Indices 1 2 3 4 5 6 
#
# 1 58.6815 30.6649 -5.1559 0.0000 0.0000 0.0000
# 2 30.6649 58.6815 -5.1559 0.0000 0.0000 0.0000
# 3 -5.1559 -5.1559 77.5800 0.0000 0.0000 0.0000
# 4 0.0000 0.0000 0.0000 14.8512 0.0000 0.0000
# 5 0.0000 0.0000 0.0000 0.0000 14.8512 0.0000
# 6 0.0000 0.0000 0.0000 0.0000 0.0000 25.1285
#
#
#
# Elastic Compliance Matrix: (Units=1/GPa)
#
#
# Indices 1 2 3 4 5 6 
#
# 1 0.023486 -0.012207 0.000750 0.000000 0.000000 0.000000
# 2 -0.012207 0.023486 0.000750 0.000000 0.000000 0.000000
# 3 0.000750 0.000750 0.012990 0.000000 0.000000 0.000000
# 4 0.000000 0.000000 0.000000 0.067335 0.000000 0.000000
# 5 0.000000 0.000000 0.000000 0.000000 0.067335 0.000000
# 6 0.000000 0.000000 0.000000 0.000000 0.000000 0.039795
#
#
# Mechanical properties :
#
#
# Convention : Reuss Voigt Hill
#
# Bulk Modulus (GPa) = 25.94322 26.18324 26.06323
# Shear Modulus (GPa) = 18.60873 22.60550 20.60712
#
# Velocity S-wave (km/s) = 3.01137 3.31904 3.16894
# Velocity P-wave (km/s) = 4.97330 5.23905 5.10790
#
# Compressibility (1/GPa) = 0.03854572
#
# Stress axis : x y z
#
# Youngs Moduli (GPa) = 42.57852 42.57852 76.98490
#
# Poissons Ratio (x) = 0.51976 -0.05771
# Poissons Ratio (y) = 0.51976 -0.05771
# Poissons Ratio (z) = -0.03192 -0.03192
#
# Static dielectric constant tensor:
#      x y z
#    x 1.787190 0.000000 0.000000 
#    y 0.000000 1.787190 0.000000 
#    z 0.000000 0.000000 1.771710 
# 
# From -- ./inp_files/4957.got.cif
#   From: 2010.05.17/outbox.cif.g08.bks.cpg/sg140_3_cif.got.tgz:4957.got - 2010.06.21 00:45:31.
