data_PCOD9572629
_publ_section_title
;
Structure prediction by ZEFSAII (Michael W. Deem and Ramdas Pophale) SiO2 
 PCOD9572629
Probable space group: I 4/M C M
;
_chemical_formula_sum "Si O2"
_cell_formula_units_Z 112
_cell_length_a 13.764463
_cell_length_b 13.764463
_cell_length_c 33.215866
_cell_angle_alpha 90.000000
_cell_angle_beta 90.000000
_cell_angle_gamma 90.000000
_cell_volume 6293.092643
_symmetry_space_group_name_H-M "I 4/M C M"
_symmetry_group_IT_number 140
_symmetry_cell_setting 'tetragonal'
loop_
_space_group_symop_operation_xyz
x,y,z
-y,x,z
-x,-y,z
y,-x,z
x,-y,1/2-z
-x,y,1/2-z
y,x,1/2-z
-y,-x,1/2-z
-x,-y,-z
y,-x,-z
x,y,-z
-y,x,-z
-x,y,1/2+z
x,-y,1/2+z
-y,-x,1/2+z
y,x,1/2+z
1/2+x,1/2+y,1/2+z
1/2-y,1/2+x,1/2+z
1/2-x,1/2-y,1/2+z
1/2+y,1/2-x,1/2+z
1/2+x,1/2-y,-z
1/2-x,1/2+y,-z
1/2+y,1/2+x,-z
1/2-y,1/2-x,-z
1/2-x,1/2-y,1/2-z
1/2+y,1/2-x,1/2-z
1/2+x,1/2+y,1/2-z
1/2-y,1/2+x,1/2-z
1/2-x,1/2+y,z
1/2+x,1/2-y,z
1/2-y,1/2-x,z
1/2+y,1/2+x,z
loop_
_atom_site_type_symbol
_atom_site_label
_atom_site_fract_x
_atom_site_fract_y
_atom_site_fract_z
Si Si1 0.615840 0.615840 0.750000
Si Si2 0.527581 0.337813 0.545460
Si Si3 0.382752 0.272227 0.331917
Si Si4 0.255903 0.084077 0.874133
O O1 0.500000 0.630924 0.750000
O O2 0.643424 0.674007 0.709949
O O3 0.607480 0.424055 0.549223
O O4 0.534575 0.298079 0.500000
O O5 0.544299 0.261354 0.580910
O O6 0.331476 0.168525 0.331763
O O7 0.330309 0.339706 0.364870
O O8 0.494958 0.259063 0.343252
O O9 0.355788 0.144213 0.869496
#
# Coordination Sequence:
#
# PCOD9572629 Si02
#       4
#    16  32  32  32
#     4  11  21  36  62  90 113 147 188 238 290 340
#     4   9  17  31  55  85 115 150 195 250 303 346
#     4  11  23  39  59  85 117 150 191 241 290 351
#     4  11  22  36  59  86 114 157 200 238 293 353
#
# _framework density 17.797291000000001
#
# number of rings (size 3 to 8) (size 9 to 14) (size 15 to 20)
#    0.000    1.571    5.714    1.286    0.000    1.714 
#    0.000    0.000    0.000    0.857    0.000    2.000 
#    0.000    0.000    0.000    0.000    0.000    0.000 
#
# Total GULP energy -312039.802842 kJ/mol
# GULP energy per Si atom -5572.139336 kJ/mol
# Density = 1.775678 g / cm^3
# Si number density = 17.797291 Si / 1000 Ang^3
#
#
#
# Elastic Constant Matrix: (Units=GPa)
#
#
# Indices 1 2 3 4 5 6 
#
# 1 65.4011 42.0932 25.2016 0.0000 0.0000 0.0000
# 2 42.0932 65.4011 25.2016 0.0000 0.0000 0.0000
# 3 25.2016 25.2016 120.1959 0.0000 0.0000 0.0000
# 4 0.0000 0.0000 0.0000 15.8773 0.0000 0.0000
# 5 0.0000 0.0000 0.0000 0.0000 15.8773 0.0000
# 6 0.0000 0.0000 0.0000 0.0000 0.0000 16.9010
#
#
#
# Elastic Compliance Matrix: (Units=1/GPa)
#
#
# Indices 1 2 3 4 5 6 
#
# 1 0.026610 -0.016293 -0.002163 0.000000 0.000000 0.000000
# 2 -0.016293 0.026610 -0.002163 0.000000 0.000000 0.000000
# 3 -0.002163 -0.002163 0.009227 0.000000 0.000000 0.000000
# 4 0.000000 0.000000 0.000000 0.062983 0.000000 0.000000
# 5 0.000000 0.000000 0.000000 0.000000 0.062983 0.000000
# 6 0.000000 0.000000 0.000000 0.000000 0.000000 0.059168
#
#
# Mechanical properties :
#
#
# Convention : Reuss Voigt Hill
#
# Bulk Modulus (GPa) = 47.15133 48.44345 47.79739
# Shear Modulus (GPa) = 16.89811 20.29789 18.59800
#
# Velocity S-wave (km/s) = 3.08470 3.38080 3.23614
# Velocity P-wave (km/s) = 6.26404 6.52061 6.39361
#
# Compressibility (1/GPa) = 0.02120831
#
# Stress axis : x y z
#
# Youngs Moduli (GPa) = 37.57921 37.57921 108.37908
#
# Poissons Ratio (x) = 0.61229 0.23445
# Poissons Ratio (y) = 0.61229 0.23445
# Poissons Ratio (z) = 0.08129 0.08129
#
# Static dielectric constant tensor:
#      x y z
#    x 1.587350 0.000000 0.000000 
#    y 0.000000 1.587350 0.000000 
#    z 0.000000 0.000000 1.658020 
# 
# From -- ./inp_files/10246.got.cif
#   From: 2010.05.17/outbox.cif.g08.bks.cpg/sg140_6_cif.got.tgz:10246.got - 2010.06.21 00:45:31.
