data_PCOD9572002
_publ_section_title
;
Structure prediction by ZEFSAII (Michael W. Deem and Ramdas Pophale) SiO2 
 PCOD9572002
Probable space group: I 4/M C M
;
_chemical_formula_sum "Si O2"
_cell_formula_units_Z 176
_cell_length_a 26.949803
_cell_length_b 26.949803
_cell_length_c 15.162001
_cell_angle_alpha 90.000000
_cell_angle_beta 90.000000
_cell_angle_gamma 90.000000
_cell_volume 11012.038237
_symmetry_space_group_name_H-M "I 4/M C M"
_symmetry_group_IT_number 140
_symmetry_cell_setting 'tetragonal'
loop_
_space_group_symop_operation_xyz
x,y,z
-y,x,z
-x,-y,z
y,-x,z
x,-y,1/2-z
-x,y,1/2-z
y,x,1/2-z
-y,-x,1/2-z
-x,-y,-z
y,-x,-z
x,y,-z
-y,x,-z
-x,y,1/2+z
x,-y,1/2+z
-y,-x,1/2+z
y,x,1/2+z
1/2+x,1/2+y,1/2+z
1/2-y,1/2+x,1/2+z
1/2-x,1/2-y,1/2+z
1/2+y,1/2-x,1/2+z
1/2+x,1/2-y,-z
1/2-x,1/2+y,-z
1/2+y,1/2+x,-z
1/2-y,1/2-x,-z
1/2-x,1/2-y,1/2-z
1/2+y,1/2-x,1/2-z
1/2+x,1/2+y,1/2-z
1/2-y,1/2+x,1/2-z
1/2-x,1/2+y,z
1/2+x,1/2-y,z
1/2-y,1/2-x,z
1/2+y,1/2+x,z
loop_
_atom_site_type_symbol
_atom_site_label
_atom_site_fract_x
_atom_site_fract_y
_atom_site_fract_z
Si Si1 0.711729 0.707815 0.350496
Si Si2 0.422013 0.527753 0.000000
Si Si3 0.581991 0.379645 0.662260
Si Si4 0.694407 0.393329 0.594971
Si Si5 0.374535 0.207226 0.103242
Si Si6 0.768641 0.941688 0.231406
O O1 0.695495 0.695495 0.250000
O O2 0.740997 0.759004 0.346861
O O3 0.663210 0.711777 0.407156
O O4 0.749265 0.666511 0.385677
O O5 0.438661 0.471278 0.000000
O O6 0.393789 0.541594 0.089514
O O7 0.586003 0.413998 0.750000
O O8 0.636251 0.387975 0.619606
O O9 0.571759 0.322396 0.687877
O O10 0.699228 0.418177 0.500000
O O11 0.725905 0.418043 0.671881
O O12 0.343815 0.156186 0.123481
O O13 0.417374 0.225490 0.170641
O O14 0.390007 0.205494 0.000000
O O15 0.763396 0.000000 0.250000
#
# Coordination Sequence:
#
# PCOD9572002 Si02
#       6
#    32  16  32  32  32  32
#     4  10  17  29  50  74 103 133 167 207 251 307
#     4  11  26  40  54  70  85 122 182 244 297 333
#     4  10  22  37  53  68  94 128 170 222 284 329
#     4  11  20  34  50  72  98 133 174 216 267 316
#     4  10  20  35  56  81 108 140 175 215 259 308
#     4  11  24  36  52  77 105 139 174 214 266 323
#
# _framework density 15.982509
#
# number of rings (size 3 to 8) (size 9 to 14) (size 15 to 20)
#    0.000    1.545    4.545    1.091    6.364    1.818 
#    0.000    0.909    0.000    0.000    0.000    0.000 
#    0.000    0.364    0.000    2.000    0.000    0.000 
#
# Total GULP energy -490660.966087 kJ/mol
# GULP energy per Si atom -5575.692796 kJ/mol
# Density = 1.594613 g / cm^3
# Si number density = 15.982509 Si / 1000 Ang^3
#
#
#
# Elastic Constant Matrix: (Units=GPa)
#
#
# Indices 1 2 3 4 5 6 
#
# 1 35.0123 36.1702 32.6700 0.0000 0.0000 0.0000
# 2 36.1702 35.0130 32.6689 0.0000 0.0000 0.0000
# 3 32.6700 32.6689 127.7437 0.0000 0.0000 0.0000
# 4 0.0000 0.0000 0.0000 7.8953 0.0000 0.0000
# 5 0.0000 0.0000 0.0000 0.0000 7.8950 0.0000
# 6 0.0000 0.0000 0.0000 0.0000 0.0000 10.5426
#
#
#
# Elastic Compliance Matrix: (Units=1/GPa)
#
#
# Indices 1 2 3 4 5 6 
#
# 1 -0.422803 0.441151 -0.004689 0.000000 0.000000 0.000000
# 2 0.441151 -0.422783 -0.004701 0.000000 0.000000 0.000000
# 3 -0.004689 -0.004701 0.010230 0.000000 0.000000 0.000000
# 4 0.000000 0.000000 0.000000 0.126658 0.000000 0.000000
# 5 0.000000 0.000000 0.000000 0.000000 0.126663 0.000000
# 6 0.000000 0.000000 0.000000 0.000000 0.000000 0.094854
#
#
# Mechanical properties :
#
#
# Convention : Reuss Voigt Hill
#
# Bulk Modulus (GPa) = 35.50429 44.53190 40.01810
# Shear Modulus (GPa) = -3.72768 11.68390 3.97811
#
# Velocity S-wave (km/s) = -1.52886 2.70671 1.57938
# Velocity P-wave (km/s) = 4.37563 6.13936 5.33094
#
# Compressibility (1/GPa) = 0.02816561
#
# Stress axis : x y z
#
# Youngs Moduli (GPa) = -2.36517 -2.36528 97.75631
#
# Poissons Ratio (x) = 1.04344 0.45837
# Poissons Ratio (y) = 1.04340 0.45954
# Poissons Ratio (z) = -0.01109 -0.01112
#
# Static dielectric constant tensor:
#      x y z
#    x 1.530850 0.000000 0.000000 
#    y 0.000000 1.530850 0.000000 
#    z 0.000000 0.000000 1.570700 
# 
# From -- ./inp_files/5131.got.cif
#   From: 2010.05.17/outbox.cif.g08.bks.cpg/sg140_3_cif.got.tgz:5131.got - 2010.06.21 00:45:31.
