data_PCOD9572975
_publ_section_title
;
Structure prediction by ZEFSAII (Michael W. Deem and Ramdas Pophale) SiO2 
 PCOD9572975
Probable space group: I 41/A M D
;
_chemical_formula_sum "Si O2"
_cell_formula_units_Z 160
_cell_length_a 20.941847
_cell_length_b 20.941847
_cell_length_c 18.680919
_cell_angle_alpha 90.000000
_cell_angle_beta 90.000000
_cell_angle_gamma 90.000000
_cell_volume 8192.721691
_symmetry_space_group_name_H-M "I 41/A M D"
_symmetry_group_IT_number 141
_space_group.IT_coordinate_system_code '2'
_symmetry_cell_setting 'tetragonal'
loop_
_space_group_symop_operation_xyz
x,y,z
1/4-y,3/4+x,1/4+z
-x,1/2-y,z
1/4+y,1/4-x,3/4+z
x,-y,-z
-x,1/2+y,-z
1/4+y,3/4+x,1/4-z
1/4-y,1/4-x,3/4-z
-x,-y,-z
3/4+y,1/4-x,3/4-z
x,1/2+y,-z
3/4-y,3/4+x,1/4-z
-x,y,z
x,1/2-y,z
3/4-y,1/4-x,3/4+z
3/4+y,3/4+x,1/4+z
1/2+x,1/2+y,1/2+z
3/4-y,1/4+x,3/4+z
1/2-x,-y,1/2+z
3/4+y,3/4-x,1/4+z
1/2+x,1/2-y,1/2-z
1/2-x,y,1/2-z
3/4+y,1/4+x,3/4-z
3/4-y,3/4-x,1/4-z
1/2-x,1/2-y,1/2-z
1/4+y,3/4-x,1/4-z
1/2+x,y,1/2-z
1/4-y,1/4+x,3/4-z
1/2-x,1/2+y,1/2+z
1/2+x,-y,1/2+z
1/4-y,3/4-x,1/4+z
1/4+y,1/4+x,3/4+z
loop_
_atom_site_type_symbol
_atom_site_label
_atom_site_fract_x
_atom_site_fract_y
_atom_site_fract_z
Si Si1 0.667823 0.491048 0.418167
Si Si2 0.668971 0.826184 0.828329
Si Si3 0.316131 0.856735 0.660905
Si Si4 0.069993 0.676803 0.310856
Si Si5 0.573817 0.092557 0.572166
O O1 0.690080 0.500000 0.500000
O O2 0.708524 0.541477 0.375000
O O3 0.678202 0.425953 0.376090
O O4 0.596532 0.519911 0.418987
O O5 0.652910 0.750000 0.829978
O O6 0.620453 0.870453 0.875000
O O7 0.670752 0.851407 0.745949
O O8 0.743486 0.833069 0.852580
O O9 0.373316 0.820128 0.621375
O O10 0.077375 0.750000 0.337254
O O11 0.127636 0.663356 0.256185
O O12 0.000000 0.674184 0.274016
O O13 0.500000 0.098708 0.586450
O O14 0.613126 0.136875 0.625000
#
# Coordination Sequence:
#
# PCOD9572975 Si02
#       5
#    32  32  32  32  32
#     4  11  24  39  62  95 128 170 211 269 335 394
#     4  11  26  46  72 100 130 177 226 289 358 421
#     4  11  23  43  68  95 133 170 223 276 341 423
#     4  10  20  35  60  91 126 171 216 264 321 387
#     4  10  21  37  56  85 125 168 212 257 311 378
#
# _framework density 19.529530999999999
#
# number of rings (size 3 to 8) (size 9 to 14) (size 15 to 20)
#    0.000    1.400    2.000    3.600    5.600    3.200 
#    0.000    2.000    0.000    0.000    0.000    0.000 
#    0.000    0.000    0.000    0.000    0.000    0.000 
#
# Total GULP energy -445850.420958 kJ/mol
# GULP energy per Si atom -5573.130262 kJ/mol
# Density = 1.948508 g / cm^3
# Si number density = 19.529531 Si / 1000 Ang^3
#
#
#
# Elastic Constant Matrix: (Units=GPa)
#
#
# Indices 1 2 3 4 5 6 
#
# 1 143.4050 27.5767 65.7699 0.0000 0.0000 0.0000
# 2 27.5767 143.4359 65.7518 0.0000 0.0000 0.0000
# 3 65.7699 65.7518 107.0368 0.0000 0.0000 0.0000
# 4 0.0000 0.0000 0.0000 28.2845 0.0000 0.0000
# 5 0.0000 0.0000 0.0000 0.0000 28.2829 0.0000
# 6 0.0000 0.0000 0.0000 0.0000 0.0000 30.0729
#
#
#
# Elastic Compliance Matrix: (Units=1/GPa)
#
#
# Indices 1 2 3 4 5 6 
#
# 1 0.009862 0.001227 -0.006814 0.000000 0.000000 0.000000
# 2 0.001227 0.009857 -0.006809 0.000000 0.000000 0.000000
# 3 -0.006814 -0.006809 0.017713 0.000000 0.000000 0.000000
# 4 0.000000 0.000000 0.000000 0.035355 0.000000 0.000000
# 5 0.000000 0.000000 0.000000 0.000000 0.035357 0.000000
# 6 0.000000 0.000000 0.000000 0.000000 0.000000 0.033253
#
#
# Mechanical properties :
#
#
# Convention : Reuss Voigt Hill
#
# Bulk Modulus (GPa) = 79.11347 79.11938 79.11642
# Shear Modulus (GPa) = 29.34232 32.98001 31.16117
#
# Velocity S-wave (km/s) = 3.88036 4.11387 3.99882
# Velocity P-wave (km/s) = 7.78934 7.94769 7.86892
#
# Compressibility (1/GPa) = 0.01264007
#
# Stress axis : x y z
#
# Youngs Moduli (GPa) = 101.39579 101.44801 56.45710
#
# Poissons Ratio (x) = -0.12453 0.38470
# Poissons Ratio (y) = -0.12446 0.38444
# Poissons Ratio (z) = 0.69092 0.69081
#
# Static dielectric constant tensor:
#      x y z
#    x 1.721320 0.000000 0.000000 
#    y 0.000000 1.721320 0.000000 
#    z 0.000000 0.000000 1.685820 
# 
# From -- ./inp_files/8587.got.cif
#   From: 2010.05.17/outbox.cif.g08.bks.cpg/sg141_5_cif.got.tgz:8587.got - 2010.05.20 13:30:51.
