data_PCOD9572661
_publ_section_title
;
Structure prediction by ZEFSAII (Michael W. Deem and Ramdas Pophale) SiO2 
 PCOD9572661
Probable space group: I 4/M C M
;
_chemical_formula_sum "Si O2"
_cell_formula_units_Z 128
_cell_length_a 21.436608
_cell_length_b 21.436608
_cell_length_c 14.213059
_cell_angle_alpha 90.000000
_cell_angle_beta 90.000000
_cell_angle_gamma 90.000000
_cell_volume 6531.300886
_symmetry_space_group_name_H-M "I 4/M C M"
_symmetry_group_IT_number 140
_symmetry_cell_setting 'tetragonal'
loop_
_space_group_symop_operation_xyz
x,y,z
-y,x,z
-x,-y,z
y,-x,z
x,-y,1/2-z
-x,y,1/2-z
y,x,1/2-z
-y,-x,1/2-z
-x,-y,-z
y,-x,-z
x,y,-z
-y,x,-z
-x,y,1/2+z
x,-y,1/2+z
-y,-x,1/2+z
y,x,1/2+z
1/2+x,1/2+y,1/2+z
1/2-y,1/2+x,1/2+z
1/2-x,1/2-y,1/2+z
1/2+y,1/2-x,1/2+z
1/2+x,1/2-y,-z
1/2-x,1/2+y,-z
1/2+y,1/2+x,-z
1/2-y,1/2-x,-z
1/2-x,1/2-y,1/2-z
1/2+y,1/2-x,1/2-z
1/2+x,1/2+y,1/2-z
1/2-y,1/2+x,1/2-z
1/2-x,1/2+y,z
1/2+x,1/2-y,z
1/2-y,1/2-x,z
1/2+y,1/2+x,z
loop_
_atom_site_type_symbol
_atom_site_label
_atom_site_fract_x
_atom_site_fract_y
_atom_site_fract_z
Si Si1 0.271554 0.125326 0.772822
Si Si2 0.068772 0.926569 0.636504
Si Si3 0.553458 0.053458 0.112030
Si Si4 0.317358 0.663289 0.395757
Si Si5 0.500000 0.159676 0.250000
O O1 0.332261 0.167739 0.769590
O O2 0.225866 0.152889 0.852231
O O3 0.233500 0.136107 0.676206
O O4 0.295317 0.055245 0.785566
O O5 0.073490 0.926511 0.750000
O O6 0.114288 0.873868 0.601344
O O7 0.997192 0.914834 0.608991
O O8 0.527597 0.114079 0.168440
O O9 0.500000 0.000000 0.118925
O O10 0.564782 0.064782 0.000000
O O11 0.292148 0.673447 0.500000
#
# Coordination Sequence:
#
# PCOD9572661 Si02
#       5
#    32  32  16  32  16
#     4  11  25  44  67  90 126 175 213 265 332 389
#     4   9  18  35  60  87 121 164 206 256 318 376
#     4  11  22  42  74 107 136 172 218 272 339 406
#     4  11  24  40  64  94 128 167 219 270 317 390
#     4  12  23  46  70  98 139 174 222 280 338 398
#
# _framework density 19.597933999999999
#
# number of rings (size 3 to 8) (size 9 to 14) (size 15 to 20)
#    0.000    1.375    5.000    2.250    3.500    5.000 
#    0.000    1.250    0.000    0.000    0.000    0.000 
#    0.000    0.000    0.000    0.000    0.000    0.000 
#
# Total GULP energy -357539.657181 kJ/mol
# GULP energy per Si atom -5586.557143 kJ/mol
# Density = 1.955333 g / cm^3
# Si number density = 19.597934 Si / 1000 Ang^3
#
#
#
# Elastic Constant Matrix: (Units=GPa)
#
#
# Indices 1 2 3 4 5 6 
#
# 1 77.5111 43.7682 3.1428 0.0000 0.0000 0.0000
# 2 43.7682 77.5109 3.1431 0.0000 0.0000 0.0000
# 3 3.1428 3.1431 112.6909 0.0000 0.0000 0.0000
# 4 0.0000 0.0000 0.0000 -147.2187 0.0000 0.0000
# 5 0.0000 0.0000 0.0000 0.0000 -147.2059 0.0000
# 6 0.0000 0.0000 0.0000 0.0000 0.0000 50.3802
#
#
#
# Elastic Compliance Matrix: (Units=1/GPa)
#
#
# Indices 1 2 3 4 5 6 
#
# 1 0.018947 -0.010689 -0.000230 0.000000 0.000000 0.000000
# 2 -0.010689 0.018947 -0.000230 0.000000 0.000000 0.000000
# 3 -0.000230 -0.000230 0.008887 0.000000 0.000000 0.000000
# 4 0.000000 0.000000 0.000000 -0.006793 0.000000 0.000000
# 5 0.000000 0.000000 0.000000 0.000000 -0.006793 0.000000
# 6 0.000000 0.000000 0.000000 0.000000 0.000000 0.019849
#
#
# Mechanical properties :
#
#
# Convention : Reuss Voigt Hill
#
# Bulk Modulus (GPa) = 40.84928 40.86900 40.85914
# Shear Modulus (GPa) = 59.87795 -34.29829 12.78983
#
# Velocity S-wave (km/s) = 5.53349 -4.18796 2.55740
# Velocity P-wave (km/s) = 7.85589 1.57680 5.44190
#
# Compressibility (1/GPa) = 0.02448024
#
# Stress axis : x y z
#
# Youngs Moduli (GPa) = 52.77977 52.77958 112.52801
#
# Poissons Ratio (x) = 0.56418 0.02591
# Poissons Ratio (y) = 0.56418 0.02592
# Poissons Ratio (z) = 0.01215 0.01216
#
# Static dielectric constant tensor:
#      x y z
#    x 1.704170 0.000000 0.000000 
#    y 0.000000 1.704170 0.000000 
#    z 0.000000 0.000000 1.783960 
# 
# From -- ./inp_files/4381.got.cif
#   From: 2010.05.17/outbox.cif.g08.bks.cpg/sg140_3_cif.got.tgz:4381.got - 2010.06.21 00:45:31.
