data_PCOD9572211
_publ_section_title
;
Structure prediction by ZEFSAII (Michael W. Deem and Ramdas Pophale) SiO2 
 PCOD9572211
Probable space group: I 4/M C M
;
_chemical_formula_sum "Si O2"
_cell_formula_units_Z 112
_cell_length_a 18.683317
_cell_length_b 18.683317
_cell_length_c 14.436165
_cell_angle_alpha 90.000000
_cell_angle_beta 90.000000
_cell_angle_gamma 90.000000
_cell_volume 5039.179195
_symmetry_space_group_name_H-M "I 4/M C M"
_symmetry_group_IT_number 140
_symmetry_cell_setting 'tetragonal'
loop_
_space_group_symop_operation_xyz
x,y,z
-y,x,z
-x,-y,z
y,-x,z
x,-y,1/2-z
-x,y,1/2-z
y,x,1/2-z
-y,-x,1/2-z
-x,-y,-z
y,-x,-z
x,y,-z
-y,x,-z
-x,y,1/2+z
x,-y,1/2+z
-y,-x,1/2+z
y,x,1/2+z
1/2+x,1/2+y,1/2+z
1/2-y,1/2+x,1/2+z
1/2-x,1/2-y,1/2+z
1/2+y,1/2-x,1/2+z
1/2+x,1/2-y,-z
1/2-x,1/2+y,-z
1/2+y,1/2+x,-z
1/2-y,1/2-x,-z
1/2-x,1/2-y,1/2-z
1/2+y,1/2-x,1/2-z
1/2+x,1/2+y,1/2-z
1/2-y,1/2+x,1/2-z
1/2-x,1/2+y,z
1/2+x,1/2-y,z
1/2-y,1/2-x,z
1/2+y,1/2+x,z
loop_
_atom_site_type_symbol
_atom_site_label
_atom_site_fract_x
_atom_site_fract_y
_atom_site_fract_z
Si Si1 0.273452 0.226549 0.110219
Si Si2 0.453139 0.831897 0.112178
Si Si3 0.110917 0.610917 0.112562
Si Si4 0.311123 0.613512 0.670789
Si Si5 0.449856 0.392870 0.500000
O O1 0.330963 0.169038 0.146135
O O2 0.291189 0.306047 0.141052
O O3 0.275899 0.224102 0.000000
O O4 0.393337 0.893337 0.121607
O O5 0.530746 0.864387 0.137394
O O6 0.429365 0.764140 0.174704
O O7 0.454572 0.812470 0.000000
O O8 0.111936 0.611936 0.000000
O O9 0.369640 0.630361 0.750000
O O10 0.350695 0.572554 0.589934
O O11 0.533036 0.408048 0.500000
#
# Coordination Sequence:
#
# PCOD9572211 Si02
#       5
#    16  32  16  32  16
#     4  11  21  40  65 100 140 191 247 298 359 431
#     4  10  19  37  64 100 143 192 242 307 371 437
#     4   9  21  35  64  99 138 186 249 300 369 438
#     4  12  25  42  73 107 145 191 242 304 368 443
#     4  11  28  51  74 102 137 182 239 302 372 442
#
# _framework density 22.225843000000001
#
# number of rings (size 3 to 8) (size 9 to 14) (size 15 to 20)
#    0.000    1.286    4.286    0.857    4.000    2.857 
#    0.000    1.429    0.000    0.000    3.714    0.000 
#    0.000    0.000    0.000    0.000    0.000    0.000 
#
# Total GULP energy -313116.305817 kJ/mol
# GULP energy per Si atom -5591.362604 kJ/mol
# Density = 2.217526 g / cm^3
# Si number density = 22.225843 Si / 1000 Ang^3
#
#
#
# Elastic Constant Matrix: (Units=GPa)
#
#
# Indices 1 2 3 4 5 6 
#
# 1 187.2308 45.8704 30.6124 0.0000 0.0000 0.0000
# 2 45.8704 187.2306 30.6127 0.0000 0.0000 0.0000
# 3 30.6124 30.6127 55.0184 0.0000 0.0000 0.0000
# 4 0.0000 0.0000 0.0000 3543.1283 0.0000 0.0000
# 5 0.0000 0.0000 0.0000 0.0000 3557.7804 0.0000
# 6 0.0000 0.0000 0.0000 0.0000 0.0000 49.6855
#
#
#
# Elastic Compliance Matrix: (Units=1/GPa)
#
#
# Indices 1 2 3 4 5 6 
#
# 1 0.006049 -0.001025 -0.002795 0.000000 0.000000 0.000000
# 2 -0.001025 0.006049 -0.002796 0.000000 0.000000 0.000000
# 3 -0.002795 -0.002796 0.021287 0.000000 0.000000 0.000000
# 4 0.000000 0.000000 0.000000 0.000282 0.000000 0.000000
# 5 0.000000 0.000000 0.000000 0.000000 0.000281 0.000000
# 6 0.000000 0.000000 0.000000 0.000000 0.000000 0.020127
#
#
# Mechanical properties :
#
#
# Convention : Reuss Voigt Hill
#
# Bulk Modulus (GPa) = 49.62030 71.51896 60.56963
# Shear Modulus (GPa) = 67.54521 1451.61114 759.57818
#
# Velocity S-wave (km/s) = 5.51873 25.58391 18.50666
# Velocity P-wave (km/s) = 7.93615 30.08261 21.99939
#
# Compressibility (1/GPa) = 0.02015304
#
# Stress axis : x y z
#
# Youngs Moduli (GPa) = 165.31185 165.31144 46.97787
#
# Poissons Ratio (x) = 0.16943 0.13133
# Poissons Ratio (y) = 0.16943 0.13133
# Poissons Ratio (z) = 0.46213 0.46213
#
# Static dielectric constant tensor:
#      x y z
#    x 1.780520 0.000000 0.000000 
#    y 0.000000 1.780520 0.000000 
#    z 0.000000 0.000000 1.946810 
# 
# From -- ./inp_files/6175.got.cif
#   From: 2010.05.17/outbox.cif.g08.bks.cpg/sg140_4_cif.got.tgz:6175.got - 2010.06.21 00:45:31.
