data_PCOD9572286
_publ_section_title
;
Structure prediction by ZEFSAII (Michael W. Deem and Ramdas Pophale) SiO2 
 PCOD9572286
Probable space group: I 4/M C M
;
_chemical_formula_sum "Si O2"
_cell_formula_units_Z 240
_cell_length_a 19.843385
_cell_length_b 19.843385
_cell_length_c 33.923043
_cell_angle_alpha 90.000000
_cell_angle_beta 90.000000
_cell_angle_gamma 90.000000
_cell_volume 13357.534978
_symmetry_space_group_name_H-M "I 4/M C M"
_symmetry_group_IT_number 140
_symmetry_cell_setting 'tetragonal'
loop_
_space_group_symop_operation_xyz
x,y,z
-y,x,z
-x,-y,z
y,-x,z
x,-y,1/2-z
-x,y,1/2-z
y,x,1/2-z
-y,-x,1/2-z
-x,-y,-z
y,-x,-z
x,y,-z
-y,x,-z
-x,y,1/2+z
x,-y,1/2+z
-y,-x,1/2+z
y,x,1/2+z
1/2+x,1/2+y,1/2+z
1/2-y,1/2+x,1/2+z
1/2-x,1/2-y,1/2+z
1/2+y,1/2-x,1/2+z
1/2+x,1/2-y,-z
1/2-x,1/2+y,-z
1/2+y,1/2+x,-z
1/2-y,1/2-x,-z
1/2-x,1/2-y,1/2-z
1/2+y,1/2-x,1/2-z
1/2+x,1/2+y,1/2-z
1/2-y,1/2+x,1/2-z
1/2-x,1/2+y,z
1/2+x,1/2-y,z
1/2-y,1/2-x,z
1/2+y,1/2+x,z
loop_
_atom_site_type_symbol
_atom_site_label
_atom_site_fract_x
_atom_site_fract_y
_atom_site_fract_z
Si Si1 0.201709 0.873330 0.413238
Si Si2 0.625018 0.763496 0.589766
Si Si3 0.091126 0.065455 0.957251
Si Si4 0.425799 0.811700 0.253945
Si Si5 0.206832 0.516157 0.047129
Si Si6 0.445300 0.945300 0.547877
Si Si7 0.862837 0.247376 0.319466
Si Si8 0.859720 0.755415 0.675113
O O1 0.179193 0.795769 0.421524
O O2 0.130502 0.909149 0.419845
O O3 0.250537 0.917310 0.441081
O O4 0.231673 0.880352 0.369759
O O5 0.666278 0.833723 0.585715
O O6 0.554083 0.766764 0.566457
O O7 0.609508 0.749459 0.636019
O O8 0.014846 0.090056 0.956875
O O9 0.120456 0.087528 0.000000
O O10 0.500000 0.840292 0.250000
O O11 0.370329 0.870329 0.254075
O O12 0.412087 0.765519 0.215783
O O13 0.414581 0.768867 0.293722
O O14 0.129765 0.532082 0.059873
O O15 0.208942 0.507588 0.000000
O O16 0.444970 0.944970 0.500000
O O17 0.500000 0.000000 0.561203
O O18 0.805101 0.305101 0.319155
O O19 0.823487 0.178069 0.311692
O O20 0.802878 0.697123 0.674346
#
# Coordination Sequence:
#
# PCOD9572286 Si02
#       8
#    32  32  32  32  32  16  32  32
#     4  11  21  33  56  84 117 145 187 243 298 347
#     4  10  22  39  60  85 116 153 195 247 304 350
#     4   9  18  34  54  75 106 150 194 233 285 358
#     4  10  20  34  56  83 114 149 182 219 268 331
#     4  11  24  38  57  83 115 156 198 247 302 356
#     4   9  20  40  60  76 104 152 207 243 279 349
#     4   8  16  34  58  80 105 140 184 230 278 337
#     4   9  19  35  55  80 108 142 180 226 281 334
#
# _framework density 17.967386999999999
#
# number of rings (size 3 to 8) (size 9 to 14) (size 15 to 20)
#    0.000    2.333    0.000    3.600    3.733    4.667 
#    0.000    0.000    0.000    0.000    0.000    0.000 
#    0.000    1.067    0.000    0.000    0.000    0.000 
#
# Total GULP energy -668332.157144 kJ/mol
# GULP energy per Si atom -5569.434643 kJ/mol
# Density = 1.792649 g / cm^3
# Si number density = 17.967387 Si / 1000 Ang^3
#
#
#
# Elastic Constant Matrix: (Units=GPa)
#
#
# Indices 1 2 3 4 5 6 
#
# 1 93.3417 -2.0546 39.6412 0.0000 0.0000 0.0000
# 2 -2.0546 93.3417 39.6412 0.0000 0.0000 0.0000
# 3 39.6412 39.6412 71.9553 0.0000 0.0000 0.0000
# 4 0.0000 0.0000 0.0000 25.4625 0.0000 0.0000
# 5 0.0000 0.0000 0.0000 0.0000 25.4625 0.0000
# 6 0.0000 0.0000 0.0000 0.0000 0.0000 23.9422
#
#
#
# Elastic Compliance Matrix: (Units=1/GPa)
#
#
# Indices 1 2 3 4 5 6 
#
# 1 0.015743 0.005261 -0.011572 0.000000 0.000000 0.000000
# 2 0.005261 0.015743 -0.011572 0.000000 0.000000 0.000000
# 3 -0.011572 -0.011572 0.026647 0.000000 0.000000 0.000000
# 4 0.000000 0.000000 0.000000 0.039273 0.000000 0.000000
# 5 0.000000 0.000000 0.000000 0.000000 0.039273 0.000000
# 6 0.000000 0.000000 0.000000 0.000000 0.000000 0.041767
#
#
# Mechanical properties :
#
#
# Convention : Reuss Voigt Hill
#
# Bulk Modulus (GPa) = 44.70330 45.89940 45.30135
# Shear Modulus (GPa) = 22.55609 27.06749 24.81179
#
# Velocity S-wave (km/s) = 3.54699 3.88555 3.72012
# Velocity P-wave (km/s) = 6.45826 6.76250 6.61213
#
# Compressibility (1/GPa) = 0.02236971
#
# Stress axis : x y z
#
# Youngs Moduli (GPa) = 63.51850 63.51850 37.52708
#
# Poissons Ratio (x) = -0.33416 0.43425
# Poissons Ratio (y) = -0.33416 0.43425
# Poissons Ratio (z) = 0.73501 0.73501
#
# Static dielectric constant tensor:
#      x y z
#    x 1.629480 0.000000 0.000000 
#    y 0.000000 1.629480 0.000000 
#    z 0.000000 0.000000 1.645130 
# 
# From -- ./inp_files/11791.got.cif
#   From: 2010.05.17/outbox.cif.g08.bks.cpg/sg140_6_cif.got.tgz:11791.got - 2010.06.21 00:45:31.
