data_PCOD9572421
_publ_section_title
;
Structure prediction by ZEFSAII (Michael W. Deem and Ramdas Pophale) SiO2 
 PCOD9572421
Probable space group: I 4/M C M
;
_chemical_formula_sum "Si O2"
_cell_formula_units_Z 192
_cell_length_a 20.676088
_cell_length_b 20.676088
_cell_length_c 22.575846
_cell_angle_alpha 90.000000
_cell_angle_beta 90.000000
_cell_angle_gamma 90.000000
_cell_volume 9651.188049
_symmetry_space_group_name_H-M "I 4/M C M"
_symmetry_group_IT_number 140
_symmetry_cell_setting 'tetragonal'
loop_
_space_group_symop_operation_xyz
x,y,z
-y,x,z
-x,-y,z
y,-x,z
x,-y,1/2-z
-x,y,1/2-z
y,x,1/2-z
-y,-x,1/2-z
-x,-y,-z
y,-x,-z
x,y,-z
-y,x,-z
-x,y,1/2+z
x,-y,1/2+z
-y,-x,1/2+z
y,x,1/2+z
1/2+x,1/2+y,1/2+z
1/2-y,1/2+x,1/2+z
1/2-x,1/2-y,1/2+z
1/2+y,1/2-x,1/2+z
1/2+x,1/2-y,-z
1/2-x,1/2+y,-z
1/2+y,1/2+x,-z
1/2-y,1/2-x,-z
1/2-x,1/2-y,1/2-z
1/2+y,1/2-x,1/2-z
1/2+x,1/2+y,1/2-z
1/2-y,1/2+x,1/2-z
1/2-x,1/2+y,z
1/2+x,1/2-y,z
1/2-y,1/2-x,z
1/2+y,1/2+x,z
loop_
_atom_site_type_symbol
_atom_site_label
_atom_site_fract_x
_atom_site_fract_y
_atom_site_fract_z
Si Si1 0.537347 0.242532 0.124423
Si Si2 0.273419 0.327733 0.069523
Si Si3 0.296809 0.597224 0.869269
Si Si4 0.571341 0.320146 0.756387
Si Si5 0.563382 0.587044 0.934936
Si Si6 0.607397 0.998002 0.180311
O O1 0.596404 0.261107 0.081555
O O2 0.468246 0.269687 0.101213
O O3 0.562888 0.277751 0.184829
O O4 0.520081 0.168479 0.141116
O O5 0.208092 0.291909 0.088303
O O6 0.332076 0.290828 0.103254
O O7 0.283891 0.318626 0.000000
O O8 0.276520 0.587738 0.801363
O O9 0.373772 0.588863 0.879604
O O10 0.500000 0.350496 0.750000
O O11 0.626620 0.373381 0.750000
O O12 0.486295 0.586008 0.932781
O O13 0.583076 0.613630 0.000000
O O14 0.551690 0.051690 0.173115
O O15 0.626453 0.000000 0.250000
O O16 0.571278 0.928723 0.168121
#
# Coordination Sequence:
#
# PCOD9572421 Si02
#       6
#    32  32  32  32  32  32
#     4  11  22  40  63  87 124 167 208 255 311 384
#     4  11  25  43  62  87 120 160 210 267 326 383
#     4  11  21  35  57  82 114 155 199 245 292 361
#     4  10  21  36  53  83 122 162 202 243 293 364
#     4   9  18  31  48  73 102 137 188 240 281 328
#     4   9  18  35  62  94 123 154 197 253 316 380
#
# _framework density 19.893923999999998
#
# number of rings (size 3 to 8) (size 9 to 14) (size 15 to 20)
#    0.000    1.833    1.667    4.500    2.333    3.500 
#    0.000    2.500    0.000    0.500    0.000    2.333 
#    0.000    0.000    0.000    0.000    0.000    0.000 
#
# Total GULP energy -534429.460903 kJ/mol
# GULP energy per Si atom -5566.973551 kJ/mol
# Density = 1.984864 g / cm^3
# Si number density = 19.893924 Si / 1000 Ang^3
#
#
#
# Elastic Constant Matrix: (Units=GPa)
#
#
# Indices 1 2 3 4 5 6 
#
# 1 89.5332 16.6673 8.8936 0.0000 0.0000 0.0000
# 2 16.6673 89.5337 8.8949 0.0000 0.0000 0.0000
# 3 8.8936 8.8949 57.3335 0.0000 0.0000 0.0000
# 4 0.0000 0.0000 0.0000 19.0166 0.0000 0.0000
# 5 0.0000 0.0000 0.0000 0.0000 19.0164 0.0000
# 6 0.0000 0.0000 0.0000 0.0000 0.0000 22.9564
#
#
#
# Elastic Compliance Matrix: (Units=1/GPa)
#
#
# Indices 1 2 3 4 5 6 
#
# 1 0.011696 -0.002028 -0.001500 0.000000 0.000000 0.000000
# 2 -0.002028 0.011696 -0.001500 0.000000 0.000000 0.000000
# 3 -0.001500 -0.001500 0.017907 0.000000 0.000000 0.000000
# 4 0.000000 0.000000 0.000000 0.052586 0.000000 0.000000
# 5 0.000000 0.000000 0.000000 0.000000 0.052586 0.000000
# 6 0.000000 0.000000 0.000000 0.000000 0.000000 0.043561
#
#
# Mechanical properties :
#
#
# Convention : Reuss Voigt Hill
#
# Bulk Modulus (GPa) = 32.00723 33.92355 32.96539
# Shear Modulus (GPa) = 23.75288 25.66083 24.70686
#
# Velocity S-wave (km/s) = 3.45915 3.59539 3.52793
# Velocity P-wave (km/s) = 5.66376 5.85875 5.76208
#
# Compressibility (1/GPa) = 0.03124294
#
# Stress axis : x y z
#
# Youngs Moduli (GPa) = 85.50245 85.50252 55.84367
#
# Poissons Ratio (x) = 0.17342 0.08374
# Poissons Ratio (y) = 0.17342 0.08376
# Poissons Ratio (z) = 0.12822 0.12824
#
# Static dielectric constant tensor:
#      x y z
#    x 1.730760 0.000000 0.000000 
#    y 0.000000 1.730760 0.000000 
#    z 0.000000 0.000000 1.861860 
# 
# From -- ./inp_files/9757.got.cif
#   From: 2010.05.17/outbox.cif.g08.bks.cpg/sg140_5_cif.got.tgz:9757.got - 2010.06.21 00:45:31.
