data_PCOD9572805
_publ_section_title
;
Structure prediction by ZEFSAII (Michael W. Deem and Ramdas Pophale) SiO2 
 PCOD9572805
Probable space group: I 41/A M D
;
_chemical_formula_sum "Si O2"
_cell_formula_units_Z 96
_cell_length_a 13.518467
_cell_length_b 13.518467
_cell_length_c 26.993657
_cell_angle_alpha 90.000000
_cell_angle_beta 90.000000
_cell_angle_gamma 90.000000
_cell_volume 4933.062474
_symmetry_space_group_name_H-M "I 41/A M D"
_symmetry_group_IT_number 141
_space_group.IT_coordinate_system_code '2'
_symmetry_cell_setting 'tetragonal'
loop_
_space_group_symop_operation_xyz
x,y,z
1/4-y,3/4+x,1/4+z
-x,1/2-y,z
1/4+y,1/4-x,3/4+z
x,-y,-z
-x,1/2+y,-z
1/4+y,3/4+x,1/4-z
1/4-y,1/4-x,3/4-z
-x,-y,-z
3/4+y,1/4-x,3/4-z
x,1/2+y,-z
3/4-y,3/4+x,1/4-z
-x,y,z
x,1/2-y,z
3/4-y,1/4-x,3/4+z
3/4+y,3/4+x,1/4+z
1/2+x,1/2+y,1/2+z
3/4-y,1/4+x,3/4+z
1/2-x,-y,1/2+z
3/4+y,3/4-x,1/4+z
1/2+x,1/2-y,1/2-z
1/2-x,y,1/2-z
3/4+y,1/4+x,3/4-z
3/4-y,3/4-x,1/4-z
1/2-x,1/2-y,1/2-z
1/4+y,3/4-x,1/4-z
1/2+x,y,1/2-z
1/4-y,1/4+x,3/4-z
1/2-x,1/2+y,1/2+z
1/2+x,-y,1/2+z
1/4-y,3/4-x,1/4+z
1/4+y,1/4+x,3/4+z
loop_
_atom_site_type_symbol
_atom_site_label
_atom_site_fract_x
_atom_site_fract_y
_atom_site_fract_z
Si Si1 0.111513 0.138488 0.875000
Si Si2 0.731938 0.000000 0.000000
Si Si3 0.815760 0.638231 0.317328
Si Si4 0.763012 0.136743 0.152116
O O1 0.120067 0.250000 0.896219
O O2 0.201095 0.129463 0.836046
O O3 0.807246 0.921203 0.975412
O O4 0.663669 0.034698 0.954815
O O5 0.834513 0.750000 0.301410
O O6 0.877119 0.606076 0.365338
O O7 0.733934 0.250000 0.158285
O O8 0.677473 0.072528 0.125000
#
# Coordination Sequence:
#
# PCOD9572805 Si02
#       4
#    16  16  32  32
#     4   9  16  30  54  80 109 144 176 212 271 344
#     4  10  18  36  58  88 110 150 186 238 280 338
#     4  10  19  35  57  85 118 148 180 226 286 346
#     4  10  21  38  57  80 112 153 198 242 284 327
#
# _framework density 19.460528
#
# number of rings (size 3 to 8) (size 9 to 14) (size 15 to 20)
#    0.000    2.167    5.000    1.000    0.000    1.000 
#    0.000   13.333    0.000   16.000    0.000    0.000 
#    0.000    0.000    0.000    0.000    0.000    0.000 
#
# Total GULP energy -267479.337304 kJ/mol
# GULP energy per Si atom -5572.486194 kJ/mol
# Density = 1.941624 g / cm^3
# Si number density = 19.460528 Si / 1000 Ang^3
#
#
#
# Elastic Constant Matrix: (Units=GPa)
#
#
# Indices 1 2 3 4 5 6 
#
# 1 99.1256 8.1393 27.9090 0.0000 0.0000 0.0000
# 2 8.1393 99.1262 27.9083 0.0000 0.0000 0.0000
# 3 27.9090 27.9083 125.2587 0.0000 0.0000 0.0000
# 4 0.0000 0.0000 0.0000 1.3650 0.0000 0.0000
# 5 0.0000 0.0000 0.0000 0.0000 1.3654 0.0000
# 6 0.0000 0.0000 0.0000 0.0000 0.0000 13.6083
#
#
#
# Elastic Compliance Matrix: (Units=1/GPa)
#
#
# Indices 1 2 3 4 5 6 
#
# 1 0.010768 -0.000223 -0.002350 0.000000 0.000000 0.000000
# 2 -0.000223 0.010768 -0.002350 0.000000 0.000000 0.000000
# 3 -0.002350 -0.002350 0.009030 0.000000 0.000000 0.000000
# 4 0.000000 0.000000 0.000000 0.732623 0.000000 0.000000
# 5 0.000000 0.000000 0.000000 0.000000 0.732368 0.000000
# 6 0.000000 0.000000 0.000000 0.000000 0.000000 0.073484
#
#
# Mechanical properties :
#
#
# Convention : Reuss Voigt Hill
#
# Bulk Modulus (GPa) = 48.25597 50.15818 49.20707
# Shear Modulus (GPa) = 3.15300 20.57134 11.86217
#
# Velocity S-wave (km/s) = 1.27425 3.25480 2.47159
# Velocity P-wave (km/s) = 5.19766 6.32102 5.78666
#
# Compressibility (1/GPa) = 0.02072282
#
# Stress axis : x y z
#
# Youngs Moduli (GPa) = 92.86746 92.86833 110.73595
#
# Poissons Ratio (x) = 0.02068 0.26019
# Poissons Ratio (y) = 0.02068 0.26018
# Poissons Ratio (z) = 0.21820 0.21820
#
# Static dielectric constant tensor:
#      x y z
#    x 1.688160 0.000000 0.000000 
#    y 0.000000 1.688150 0.000000 
#    z 0.000000 0.000000 1.713800 
# 
# From -- ./inp_files/11040.got.cif
#   From: 2010.05.17/outbox.cif.g08.bks.cpg/sg141_6_cif.got.tgz:11040.got - 2010.05.20 13:30:51.
