data_PCOD9572613
_publ_section_title
;
Structure prediction by ZEFSAII (Michael W. Deem and Ramdas Pophale) SiO2 
 PCOD9572613
Probable space group: I 4/M C M
;
_chemical_formula_sum "Si O2"
_cell_formula_units_Z 112
_cell_length_a 15.332922
_cell_length_b 15.332922
_cell_length_c 24.691355
_cell_angle_alpha 90.000000
_cell_angle_beta 90.000000
_cell_angle_gamma 90.000000
_cell_volume 5804.900451
_symmetry_space_group_name_H-M "I 4/M C M"
_symmetry_group_IT_number 140
_symmetry_cell_setting 'tetragonal'
loop_
_space_group_symop_operation_xyz
x,y,z
-y,x,z
-x,-y,z
y,-x,z
x,-y,1/2-z
-x,y,1/2-z
y,x,1/2-z
-y,-x,1/2-z
-x,-y,-z
y,-x,-z
x,y,-z
-y,x,-z
-x,y,1/2+z
x,-y,1/2+z
-y,-x,1/2+z
y,x,1/2+z
1/2+x,1/2+y,1/2+z
1/2-y,1/2+x,1/2+z
1/2-x,1/2-y,1/2+z
1/2+y,1/2-x,1/2+z
1/2+x,1/2-y,-z
1/2-x,1/2+y,-z
1/2+y,1/2+x,-z
1/2-y,1/2-x,-z
1/2-x,1/2-y,1/2-z
1/2+y,1/2-x,1/2-z
1/2+x,1/2+y,1/2-z
1/2-y,1/2+x,1/2-z
1/2-x,1/2+y,z
1/2+x,1/2-y,z
1/2-y,1/2-x,z
1/2+y,1/2+x,z
loop_
_atom_site_type_symbol
_atom_site_label
_atom_site_fract_x
_atom_site_fract_y
_atom_site_fract_z
Si Si1 0.172346 0.180229 0.360897
Si Si2 0.733174 0.993043 0.630055
Si Si3 0.427262 0.927262 0.939623
Si Si4 0.895407 0.895407 0.750000
Si Si5 0.648082 0.000000 0.250000
O O1 0.253937 0.246064 0.362823
O O2 0.200077 0.085541 0.382365
O O3 0.144074 0.155173 0.300379
O O4 0.086581 0.226402 0.384280
O O5 0.649868 0.969620 0.594679
O O6 0.702488 0.993069 0.693772
O O7 0.500000 0.000000 0.944861
O O8 0.399170 0.899170 0.000000
O O9 0.000000 0.883052 0.750000
O O10 0.584696 0.084696 0.253739
#
# Coordination Sequence:
#
# PCOD9572613 Si02
#       5
#    32  32  16  16  16
#     4  12  23  39  62  89 134 177 226 281 329 412
#     4  12  24  41  64 100 131 177 223 268 349 396
#     4  11  24  48  74  97 132 171 229 290 339 396
#     4  11  21  36  56  86 131 193 226 260 338 416
#     4  11  20  34  60  91 132 174 218 277 324 407
#
# _framework density 19.294042999999999
#
# number of rings (size 3 to 8) (size 9 to 14) (size 15 to 20)
#    0.000    0.429    5.714    4.714    0.000    0.571 
#    0.000    1.429    0.000    0.000    0.000    2.000 
#    0.000    0.000    0.000    0.000    0.000    0.000 
#
# Total GULP energy -312817.052709 kJ/mol
# GULP energy per Si atom -5586.018798 kJ/mol
# Density = 1.925013 g / cm^3
# Si number density = 19.294043 Si / 1000 Ang^3
#
#
#
# Elastic Constant Matrix: (Units=GPa)
#
#
# Indices 1 2 3 4 5 6 
#
# 1 108.0706 27.3246 15.3075 0.0000 0.0000 0.0000
# 2 27.3246 108.0706 15.3075 0.0000 0.0000 0.0000
# 3 15.3075 15.3075 70.1316 0.0000 0.0000 0.0000
# 4 0.0000 0.0000 0.0000 -8.3967 0.0000 0.0000
# 5 0.0000 0.0000 0.0000 0.0000 -8.3967 0.0000
# 6 0.0000 0.0000 0.0000 0.0000 0.0000 50.5773
#
#
#
# Elastic Compliance Matrix: (Units=1/GPa)
#
#
# Indices 1 2 3 4 5 6 
#
# 1 0.010077 -0.002308 -0.001696 0.000000 0.000000 0.000000
# 2 -0.002308 0.010077 -0.001696 0.000000 0.000000 0.000000
# 3 -0.001696 -0.001696 0.014999 0.000000 0.000000 0.000000
# 4 0.000000 0.000000 0.000000 -0.119095 0.000000 0.000000
# 5 0.000000 0.000000 0.000000 0.000000 -0.119095 0.000000
# 6 0.000000 0.000000 0.000000 0.000000 0.000000 0.019772
#
#
# Mechanical properties :
#
#
# Convention : Reuss Voigt Hill
#
# Bulk Modulus (GPa) = 42.09721 44.68354 43.39038
# Shear Modulus (GPa) = -30.49728 21.97903 -4.25913
#
# Velocity S-wave (km/s) = -3.98006 3.37881 -1.48737
# Velocity P-wave (km/s) = 0.86310 6.19930 4.42585
#
# Compressibility (1/GPa) = 0.02375454
#
# Stress axis : x y z
#
# Youngs Moduli (GPa) = 99.23719 99.23719 66.67035
#
# Poissons Ratio (x) = 0.22900 0.11306
# Poissons Ratio (y) = 0.22900 0.11306
# Poissons Ratio (z) = 0.16828 0.16828
#
# Static dielectric constant tensor:
#      x y z
#    x 1.698490 0.000000 0.000000 
#    y 0.000000 1.698490 0.000000 
#    z 0.000000 0.000000 15.475100 
# 
# From -- ./inp_files/9096.got.cif
#   From: 2010.05.17/outbox.cif.g08.bks.cpg/sg140_5_cif.got.tgz:9096.got - 2010.06.21 00:45:31.
