data_PCOD9572336
_publ_section_title
;
Structure prediction by ZEFSAII (Michael W. Deem and Ramdas Pophale) SiO2 
 PCOD9572336
Probable space group: I 4/M C M
;
_chemical_formula_sum "Si O2"
_cell_formula_units_Z 144
_cell_length_a 21.639310
_cell_length_b 21.639310
_cell_length_c 15.938510
_cell_angle_alpha 90.000000
_cell_angle_beta 90.000000
_cell_angle_gamma 90.000000
_cell_volume 7463.362505
_symmetry_space_group_name_H-M "I 4/M C M"
_symmetry_group_IT_number 140
_symmetry_cell_setting 'tetragonal'
loop_
_space_group_symop_operation_xyz
x,y,z
-y,x,z
-x,-y,z
y,-x,z
x,-y,1/2-z
-x,y,1/2-z
y,x,1/2-z
-y,-x,1/2-z
-x,-y,-z
y,-x,-z
x,y,-z
-y,x,-z
-x,y,1/2+z
x,-y,1/2+z
-y,-x,1/2+z
y,x,1/2+z
1/2+x,1/2+y,1/2+z
1/2-y,1/2+x,1/2+z
1/2-x,1/2-y,1/2+z
1/2+y,1/2-x,1/2+z
1/2+x,1/2-y,-z
1/2-x,1/2+y,-z
1/2+y,1/2+x,-z
1/2-y,1/2-x,-z
1/2-x,1/2-y,1/2-z
1/2+y,1/2-x,1/2-z
1/2+x,1/2+y,1/2-z
1/2-y,1/2+x,1/2-z
1/2-x,1/2+y,z
1/2+x,1/2-y,z
1/2-y,1/2-x,z
1/2+y,1/2+x,z
loop_
_atom_site_type_symbol
_atom_site_label
_atom_site_fract_x
_atom_site_fract_y
_atom_site_fract_z
Si Si1 0.776016 0.626025 0.602318
Si Si2 0.140523 0.896270 0.402839
Si Si3 0.177241 0.972870 0.842674
Si Si4 0.188846 0.487737 0.898604
Si Si5 0.948596 0.551405 0.102760
O O1 0.775751 0.626281 0.500000
O O2 0.819713 0.680288 0.632256
O O3 0.705305 0.631562 0.628739
O O4 0.802527 0.559344 0.627072
O O5 0.130754 0.878950 0.500000
O O6 0.083784 0.869140 0.351947
O O7 0.152055 0.969801 0.397954
O O8 0.247683 0.955978 0.868009
O O9 0.178469 0.000000 0.750000
O O10 0.121521 0.464655 0.870581
O O11 0.189323 0.484826 0.000000
O O12 0.000000 0.500000 0.128783
O O13 0.949458 0.550543 0.000000
#
# Coordination Sequence:
#
# PCOD9572336 Si02
#       5
#    32  32  32  32  16
#     4   8  14  27  50  79 106 134 173 222 275 322
#     4  10  20  36  58  82 107 139 183 232 277 323
#     4  11  22  37  56  77 113 147 182 219 278 335
#     4   9  17  31  53  79 109 144 184 233 279 318
#     4   9  16  28  54  88 111 138 191 245 282 318
#
# _framework density 19.294252
#
# number of rings (size 3 to 8) (size 9 to 14) (size 15 to 20)
#    0.000    2.556    0.000    4.667    0.000    3.111 
#    2.000    2.222   12.222    5.333    0.000    0.000 
#    0.000    0.000    0.000    0.000    0.000    0.000 
#
# Total GULP energy -401544.363250 kJ/mol
# GULP energy per Si atom -5577.005045 kJ/mol
# Density = 1.925034 g / cm^3
# Si number density = 19.294252 Si / 1000 Ang^3
#
#
#
# Elastic Constant Matrix: (Units=GPa)
#
#
# Indices 1 2 3 4 5 6 
#
# 1 101.4909 78.5909 12.2950 0.0000 0.0000 0.0000
# 2 78.5909 101.4911 12.2950 0.0000 0.0000 0.0000
# 3 12.2950 12.2950 35.8876 0.0000 0.0000 0.0000
# 4 0.0000 0.0000 0.0000 0.5680 0.0000 0.0000
# 5 0.0000 0.0000 0.0000 0.0000 0.5683 0.0000
# 6 0.0000 0.0000 0.0000 0.0000 0.0000 33.8278
#
#
#
# Elastic Compliance Matrix: (Units=1/GPa)
#
#
# Indices 1 2 3 4 5 6 
#
# 1 0.024747 -0.018921 -0.001996 0.000000 0.000000 0.000000
# 2 -0.018921 0.024747 -0.001996 0.000000 0.000000 0.000000
# 3 -0.001996 -0.001996 0.029232 0.000000 0.000000 0.000000
# 4 0.000000 0.000000 0.000000 1.760690 0.000000 0.000000
# 5 0.000000 0.000000 0.000000 0.000000 1.759601 0.000000
# 6 0.000000 0.000000 0.000000 0.000000 0.000000 0.029562
#
#
# Mechanical properties :
#
#
# Convention : Reuss Voigt Hill
#
# Bulk Modulus (GPa) = 30.39499 49.47016 39.93258
# Shear Modulus (GPa) = 1.35672 16.03872 8.69772
#
# Velocity S-wave (km/s) = 0.83946 2.88630 2.12549
# Velocity P-wave (km/s) = 4.08989 6.06656 5.17351
#
# Compressibility (1/GPa) = 0.03290016
#
# Stress axis : x y z
#
# Youngs Moduli (GPa) = 40.40932 40.40941 34.20868
#
# Poissons Ratio (x) = 0.76459 0.06828
# Poissons Ratio (y) = 0.76459 0.06827
# Poissons Ratio (z) = 0.08065 0.08065
#
# Static dielectric constant tensor:
#      x y z
#    x 1.663710 0.000000 0.000000 
#    y 0.000000 1.663710 0.000000 
#    z 0.000000 0.000000 1.720690 
# 
# From -- ./inp_files/6618.got.cif
#   From: 2010.05.17/outbox.cif.g08.bks.cpg/sg140_4_cif.got.tgz:6618.got - 2010.06.21 00:45:31.
