data_PCOD9572664
_publ_section_title
;
Structure prediction by ZEFSAII (Michael W. Deem and Ramdas Pophale) SiO2 
 PCOD9572664
Probable space group: I 4/M C M
;
_chemical_formula_sum "Si O2"
_cell_formula_units_Z 160
_cell_length_a 30.040306
_cell_length_b 30.040306
_cell_length_c 8.678278
_cell_angle_alpha 90.000000
_cell_angle_beta 90.000000
_cell_angle_gamma 90.000000
_cell_volume 7831.451499
_symmetry_space_group_name_H-M "I 4/M C M"
_symmetry_group_IT_number 140
_symmetry_cell_setting 'tetragonal'
loop_
_space_group_symop_operation_xyz
x,y,z
-y,x,z
-x,-y,z
y,-x,z
x,-y,1/2-z
-x,y,1/2-z
y,x,1/2-z
-y,-x,1/2-z
-x,-y,-z
y,-x,-z
x,y,-z
-y,x,-z
-x,y,1/2+z
x,-y,1/2+z
-y,-x,1/2+z
y,x,1/2+z
1/2+x,1/2+y,1/2+z
1/2-y,1/2+x,1/2+z
1/2-x,1/2-y,1/2+z
1/2+y,1/2-x,1/2+z
1/2+x,1/2-y,-z
1/2-x,1/2+y,-z
1/2+y,1/2+x,-z
1/2-y,1/2-x,-z
1/2-x,1/2-y,1/2-z
1/2+y,1/2-x,1/2-z
1/2+x,1/2+y,1/2-z
1/2-y,1/2+x,1/2-z
1/2-x,1/2+y,z
1/2+x,1/2-y,z
1/2-y,1/2-x,z
1/2+y,1/2+x,z
loop_
_atom_site_type_symbol
_atom_site_label
_atom_site_fract_x
_atom_site_fract_y
_atom_site_fract_z
Si Si1 0.720305 0.441194 0.174932
Si Si2 0.303406 0.803406 0.824557
Si Si3 0.817778 0.545872 0.183312
Si Si4 0.369350 0.130651 0.820543
Si Si5 0.163053 0.218471 0.671580
Si Si6 0.951507 0.120532 0.313778
O O1 0.766027 0.453277 0.261648
O O2 0.726272 0.388557 0.161969
O O3 0.672392 0.448202 0.255867
O O4 0.719229 0.460347 0.000000
O O5 0.331866 0.831866 0.704625
O O6 0.253006 0.814669 0.787173
O O7 0.314992 0.814992 0.000000
O O8 0.836821 0.500000 0.250000
O O9 0.847132 0.587014 0.245276
O O10 0.818350 0.546528 0.000000
O O11 0.377365 0.122636 0.000000
O O12 0.171126 0.171126 0.750000
O O13 0.181581 0.222455 0.500000
O O14 0.911910 0.088091 0.250000
O O15 0.950556 0.119818 0.500000
O O16 0.000000 0.104986 0.250000
#
# Coordination Sequence:
#
# PCOD9572664 Si02
#       6
#    32  16  32  16  32  32
#     4  11  23  41  65  95 132 172 216 268 325 385
#     4  12  23  37  58  84 120 165 217 266 319 375
#     4  12  25  43  69 101 136 177 221 268 324 384
#     4  12  24  43  67  97 135 172 218 272 325 386
#     4  11  23  37  56  82 122 169 219 267 318 377
#     4  12  26  46  70  97 129 166 214 270 332 398
#
# _framework density 20.430440999999998
#
# number of rings (size 3 to 8) (size 9 to 14) (size 15 to 20)
#    0.000    0.400    2.000    8.100    0.000    4.200 
#    0.000    1.000    0.000    0.300    0.000    2.100 
#    0.000    0.000    0.000    0.000    0.000    0.000 
#
# Total GULP energy -446883.625405 kJ/mol
# GULP energy per Si atom -5586.045318 kJ/mol
# Density = 2.038394 g / cm^3
# Si number density = 20.430441 Si / 1000 Ang^3
#
#
#
# Elastic Constant Matrix: (Units=GPa)
#
#
# Indices 1 2 3 4 5 6 
#
# 1 115.8238 61.8907 61.2108 0.0000 0.0000 0.0000
# 2 61.8907 115.8172 61.2089 0.0000 0.0000 0.0000
# 3 61.2108 61.2089 194.2232 0.0000 0.0000 0.0000
# 4 0.0000 0.0000 0.0000 32.4487 0.0000 0.0000
# 5 0.0000 0.0000 0.0000 0.0000 32.4490 0.0000
# 6 0.0000 0.0000 0.0000 0.0000 0.0000 14.8961
#
#
#
# Elastic Compliance Matrix: (Units=1/GPa)
#
#
# Indices 1 2 3 4 5 6 
#
# 1 0.012865 -0.005678 -0.002265 0.000000 0.000000 0.000000
# 2 -0.005678 0.012865 -0.002265 0.000000 0.000000 0.000000
# 3 -0.002265 -0.002265 0.006576 0.000000 0.000000 0.000000
# 4 0.000000 0.000000 0.000000 0.030818 0.000000 0.000000
# 5 0.000000 0.000000 0.000000 0.000000 0.030818 0.000000
# 6 0.000000 0.000000 0.000000 0.000000 0.000000 0.067131
#
#
# Mechanical properties :
#
#
# Convention : Reuss Voigt Hill
#
# Bulk Modulus (GPa) = 84.09840 88.27610 86.18725
# Shear Modulus (GPa) = 26.96103 32.06235 29.51169
#
# Velocity S-wave (km/s) = 3.63664 3.96579 3.80478
# Velocity P-wave (km/s) = 7.67373 8.01698 7.84723
#
# Compressibility (1/GPa) = 0.01189083
#
# Stress axis : x y z
#
# Youngs Moduli (GPa) = 77.73209 77.72775 152.05764
#
# Poissons Ratio (x) = 0.44130 0.34443
# Poissons Ratio (y) = 0.44133 0.34444
# Poissons Ratio (z) = 0.17607 0.17607
#
# Static dielectric constant tensor:
#      x y z
#    x 1.748350 0.000000 0.000000 
#    y 0.000000 1.748350 0.000000 
#    z 0.000000 0.000000 1.729880 
# 
# From -- ./inp_files/1851.got.cif
#   From: 2010.05.17/outbox.cif.g08.bks.cpg/sg140_1_cif.got.tgz:1851.got - 2010.06.21 00:45:31.
