data_PCOD9572758
_publ_section_title
;
Structure prediction by ZEFSAII (Michael W. Deem and Ramdas Pophale) SiO2 
 PCOD9572758
Probable space group: I 41/A M D
;
_chemical_formula_sum "Si O2"
_cell_formula_units_Z 128
_cell_length_a 20.117916
_cell_length_b 20.117916
_cell_length_c 16.863984
_cell_angle_alpha 90.000000
_cell_angle_beta 90.000000
_cell_angle_gamma 90.000000
_cell_volume 6825.369421
_symmetry_space_group_name_H-M "I 41/A M D"
_symmetry_group_IT_number 141
_space_group.IT_coordinate_system_code '2'
_symmetry_cell_setting 'tetragonal'
loop_
_space_group_symop_operation_xyz
x,y,z
1/4-y,3/4+x,1/4+z
-x,1/2-y,z
1/4+y,1/4-x,3/4+z
x,-y,-z
-x,1/2+y,-z
1/4+y,3/4+x,1/4-z
1/4-y,1/4-x,3/4-z
-x,-y,-z
3/4+y,1/4-x,3/4-z
x,1/2+y,-z
3/4-y,3/4+x,1/4-z
-x,y,z
x,1/2-y,z
3/4-y,1/4-x,3/4+z
3/4+y,3/4+x,1/4+z
1/2+x,1/2+y,1/2+z
3/4-y,1/4+x,3/4+z
1/2-x,-y,1/2+z
3/4+y,3/4-x,1/4+z
1/2+x,1/2-y,1/2-z
1/2-x,y,1/2-z
3/4+y,1/4+x,3/4-z
3/4-y,3/4-x,1/4-z
1/2-x,1/2-y,1/2-z
1/4+y,3/4-x,1/4-z
1/2+x,y,1/2-z
1/4-y,1/4+x,3/4-z
1/2-x,1/2+y,1/2+z
1/2+x,-y,1/2+z
1/4-y,3/4-x,1/4+z
1/4+y,1/4+x,3/4+z
loop_
_atom_site_type_symbol
_atom_site_label
_atom_site_fract_x
_atom_site_fract_y
_atom_site_fract_z
Si Si1 0.569981 0.040522 0.599186
Si Si2 0.577253 0.386951 0.350601
Si Si3 0.335843 0.623898 0.504713
Si Si4 0.185424 0.576198 0.532506
O O1 0.500000 0.057131 0.559775
O O2 0.573840 0.076306 0.684158
O O3 0.627687 0.064958 0.542817
O O4 0.574339 0.963391 0.619508
O O5 0.500000 0.365041 0.340119
O O6 0.619899 0.353090 0.421040
O O7 0.623027 0.392549 0.271924
O O8 0.262865 0.598196 0.527798
O O9 0.179268 0.500000 0.500000
O O10 0.168319 0.581682 0.625000
#
# Coordination Sequence:
#
# PCOD9572758 Si02
#       4
#    32  32  32  32
#     4   9  18  29  44  69 104 136 166 206 257 319
#     4  10  19  31  48  71 101 137 172 211 264 328
#     4  10  18  28  47  72 102 139 171 210 258 320
#     4  11  20  31  50  78 110 133 173 226 281 320
#
# _framework density 18.753561999999999
#
# number of rings (size 3 to 8) (size 9 to 14) (size 15 to 20)
#    0.000    2.000    2.500    3.000    3.500    2.000 
#    0.000    0.000    0.000   15.000    0.000    0.000 
#    0.000    0.000    0.000    0.000    0.000    0.000 
#
# Total GULP energy -356539.194296 kJ/mol
# GULP energy per Si atom -5570.924911 kJ/mol
# Density = 1.871088 g / cm^3
# Si number density = 18.753562 Si / 1000 Ang^3
#
#
#
# Elastic Constant Matrix: (Units=GPa)
#
#
# Indices 1 2 3 4 5 6 
#
# 1 48.4962 6.4213 36.6330 0.0000 0.0000 0.0000
# 2 6.4213 48.4958 36.6328 0.0000 0.0000 0.0000
# 3 36.6330 36.6328 171.4098 0.0000 0.0000 0.0000
# 4 0.0000 0.0000 0.0000 17.9399 0.0000 0.0000
# 5 0.0000 0.0000 0.0000 0.0000 17.9403 0.0000
# 6 0.0000 0.0000 0.0000 0.0000 0.0000 4.6087
#
#
#
# Elastic Compliance Matrix: (Units=1/GPa)
#
#
# Indices 1 2 3 4 5 6 
#
# 1 0.024619 0.000852 -0.005444 0.000000 0.000000 0.000000
# 2 0.000852 0.024620 -0.005444 0.000000 0.000000 0.000000
# 3 -0.005444 -0.005444 0.008161 0.000000 0.000000 0.000000
# 4 0.000000 0.000000 0.000000 0.055742 0.000000 0.000000
# 5 0.000000 0.000000 0.000000 0.000000 0.055741 0.000000
# 6 0.000000 0.000000 0.000000 0.000000 0.000000 0.216979
#
#
# Mechanical properties :
#
#
# Convention : Reuss Voigt Hill
#
# Bulk Modulus (GPa) = 26.78857 47.53067 37.15962
# Shear Modulus (GPa) = 11.95103 20.67877 16.31490
#
# Velocity S-wave (km/s) = 2.52715 3.32423 2.95271
# Velocity P-wave (km/s) = 4.77817 6.33513 5.61092
#
# Compressibility (1/GPa) = 0.03732936
#
# Stress axis : x y z
#
# Youngs Moduli (GPa) = 40.61841 40.61812 122.53753
#
# Poissons Ratio (x) = -0.03461 0.66705
# Poissons Ratio (y) = -0.03461 0.66706
# Poissons Ratio (z) = 0.22111 0.22111
#
# Static dielectric constant tensor:
#      x y z
#    x 1.663950 0.000000 0.000000 
#    y 0.000000 1.663950 0.000000 
#    z 0.000000 0.000000 1.687970 
# 
# From -- ./inp_files/8227.got.cif
#   From: 2010.05.17/outbox.cif.g08.bks.cpg/sg141_5_cif.got.tgz:8227.got - 2010.05.20 13:30:51.
