data_PCOD9572085
_publ_section_title
;
Structure prediction by ZEFSAII (Michael W. Deem and Ramdas Pophale) SiO2 
 PCOD9572085
Probable space group: I 4/M C M
;
_chemical_formula_sum "Si O2"
_cell_formula_units_Z 160
_cell_length_a 25.760357
_cell_length_b 25.760357
_cell_length_c 14.629773
_cell_angle_alpha 90.000000
_cell_angle_beta 90.000000
_cell_angle_gamma 90.000000
_cell_volume 9708.258738
_symmetry_space_group_name_H-M "I 4/M C M"
_symmetry_group_IT_number 140
_symmetry_cell_setting 'tetragonal'
loop_
_space_group_symop_operation_xyz
x,y,z
-y,x,z
-x,-y,z
y,-x,z
x,-y,1/2-z
-x,y,1/2-z
y,x,1/2-z
-y,-x,1/2-z
-x,-y,-z
y,-x,-z
x,y,-z
-y,x,-z
-x,y,1/2+z
x,-y,1/2+z
-y,-x,1/2+z
y,x,1/2+z
1/2+x,1/2+y,1/2+z
1/2-y,1/2+x,1/2+z
1/2-x,1/2-y,1/2+z
1/2+y,1/2-x,1/2+z
1/2+x,1/2-y,-z
1/2-x,1/2+y,-z
1/2+y,1/2+x,-z
1/2-y,1/2-x,-z
1/2-x,1/2-y,1/2-z
1/2+y,1/2-x,1/2-z
1/2+x,1/2+y,1/2-z
1/2-y,1/2+x,1/2-z
1/2-x,1/2+y,z
1/2+x,1/2-y,z
1/2-y,1/2-x,z
1/2+y,1/2+x,z
loop_
_atom_site_type_symbol
_atom_site_label
_atom_site_fract_x
_atom_site_fract_y
_atom_site_fract_z
Si Si1 0.956897 0.686907 0.894222
Si Si2 0.675067 0.588533 0.749535
Si Si3 0.502089 0.304389 0.893006
Si Si4 0.856392 0.438718 0.890852
Si Si5 0.790191 0.373176 0.753875
O O1 0.986475 0.742541 0.886386
O O2 0.906851 0.688570 0.831320
O O3 0.001202 0.646811 0.864147
O O4 0.943181 0.678982 0.000000
O O5 0.626267 0.626267 0.750000
O O6 0.672542 0.551149 0.838206
O O7 0.680312 0.549360 0.663204
O O8 0.728284 0.622006 0.750464
O O9 0.499579 0.317992 0.000000
O O10 0.910268 0.410268 0.870128
O O11 0.812512 0.404671 0.840853
O O12 0.847667 0.436940 0.000000
O O13 0.816773 0.316773 0.753736
#
# Coordination Sequence:
#
# PCOD9572085 Si02
#       5
#    32  32  32  32  32
#     4   9  16  29  49  68  90 127 174 216 248 285
#     4  10  20  33  52  79 106 131 165 205 245 297
#     4   9  18  34  54  74  98 130 170 211 246 287
#     4   9  16  26  44  70  95 123 165 213 256 294
#     4  10  19  30  46  70 103 138 167 199 245 299
#
# _framework density 16.480813000000001
#
# number of rings (size 3 to 8) (size 9 to 14) (size 15 to 20)
#    0.000    2.600    2.000    0.600    0.000    1.600 
#    0.000    0.000    0.000    5.400    0.000   16.800 
#    0.000    0.000    0.000    0.000    0.000    0.000 
#
# Total GULP energy -445649.875889 kJ/mol
# GULP energy per Si atom -5570.623449 kJ/mol
# Density = 1.644330 g / cm^3
# Si number density = 16.480813 Si / 1000 Ang^3
#
#
#
# Elastic Constant Matrix: (Units=GPa)
#
#
# Indices 1 2 3 4 5 6 
#
# 1 70.7618 47.2398 32.3214 0.0000 0.0000 0.0000
# 2 47.2398 70.7618 32.3214 0.0000 0.0000 0.0000
# 3 32.3214 32.3214 90.7236 0.0000 0.0000 0.0000
# 4 0.0000 0.0000 0.0000 14.7875 0.0000 0.0000
# 5 0.0000 0.0000 0.0000 0.0000 14.7875 0.0000
# 6 0.0000 0.0000 0.0000 0.0000 0.0000 33.6227
#
#
#
# Elastic Compliance Matrix: (Units=1/GPa)
#
#
# Indices 1 2 3 4 5 6 
#
# 1 0.026521 -0.015992 -0.003751 0.000000 0.000000 0.000000
# 2 -0.015992 0.026521 -0.003751 0.000000 0.000000 0.000000
# 3 -0.003751 -0.003751 0.013695 0.000000 0.000000 0.000000
# 4 0.000000 0.000000 0.000000 0.067625 0.000000 0.000000
# 5 0.000000 0.000000 0.000000 0.000000 0.067625 0.000000
# 6 0.000000 0.000000 0.000000 0.000000 0.000000 0.029742
#
#
# Mechanical properties :
#
#
# Convention : Reuss Voigt Hill
#
# Bulk Modulus (GPa) = 50.63484 50.66805 50.65145
# Shear Modulus (GPa) = 17.52529 20.66382 19.09456
#
# Velocity S-wave (km/s) = 3.26448 3.54476 3.40750
# Velocity P-wave (km/s) = 6.70815 6.89668 6.80307
#
# Compressibility (1/GPa) = 0.01974925
#
# Stress axis : x y z
#
# Youngs Moduli (GPa) = 37.70528 37.70528 73.01748
#
# Poissons Ratio (x) = 0.60298 0.27391
# Poissons Ratio (y) = 0.60298 0.27391
# Poissons Ratio (z) = 0.14144 0.14144
#
# Static dielectric constant tensor:
#      x y z
#    x 1.547270 0.000000 0.000000 
#    y 0.000000 1.547270 0.000000 
#    z 0.000000 0.000000 1.571580 
# 
# From -- ./inp_files/4724.got.cif
#   From: 2010.05.17/outbox.cif.g08.bks.cpg/sg140_3_cif.got.tgz:4724.got - 2010.06.21 00:45:31.
