data_PCOD9572801
_publ_section_title
;
Structure prediction by ZEFSAII (Michael W. Deem and Ramdas Pophale) SiO2 
 PCOD9572801
Probable space group: I 41/A M D
;
_chemical_formula_sum "Si O2"
_cell_formula_units_Z 120
_cell_length_a 14.110272
_cell_length_b 14.110272
_cell_length_c 26.322048
_cell_angle_alpha 90.000000
_cell_angle_beta 90.000000
_cell_angle_gamma 90.000000
_cell_volume 5240.713858
_symmetry_space_group_name_H-M "I 41/A M D"
_symmetry_group_IT_number 141
_space_group.IT_coordinate_system_code '2'
_symmetry_cell_setting 'tetragonal'
loop_
_space_group_symop_operation_xyz
x,y,z
1/4-y,3/4+x,1/4+z
-x,1/2-y,z
1/4+y,1/4-x,3/4+z
x,-y,-z
-x,1/2+y,-z
1/4+y,3/4+x,1/4-z
1/4-y,1/4-x,3/4-z
-x,-y,-z
3/4+y,1/4-x,3/4-z
x,1/2+y,-z
3/4-y,3/4+x,1/4-z
-x,y,z
x,1/2-y,z
3/4-y,1/4-x,3/4+z
3/4+y,3/4+x,1/4+z
1/2+x,1/2+y,1/2+z
3/4-y,1/4+x,3/4+z
1/2-x,-y,1/2+z
3/4+y,3/4-x,1/4+z
1/2+x,1/2-y,1/2-z
1/2-x,y,1/2-z
3/4+y,1/4+x,3/4-z
3/4-y,3/4-x,1/4-z
1/2-x,1/2-y,1/2-z
1/4+y,3/4-x,1/4-z
1/2+x,y,1/2-z
1/4-y,1/4+x,3/4-z
1/2-x,1/2+y,1/2+z
1/2+x,-y,1/2+z
1/4-y,3/4-x,1/4+z
1/4+y,1/4+x,3/4+z
loop_
_atom_site_type_symbol
_atom_site_label
_atom_site_fract_x
_atom_site_fract_y
_atom_site_fract_z
Si Si1 0.500000 0.750000 0.476832
Si Si2 0.198366 0.750000 0.024366
Si Si3 0.669053 0.750000 0.193067
Si Si4 0.668702 0.959861 0.192698
Si Si5 0.000000 0.373557 0.168409
Si Si6 0.786609 0.646876 0.826230
O O1 0.597276 0.750000 0.449434
O O2 0.500000 0.657239 0.512282
O O3 0.211956 0.659879 0.987022
O O4 0.266389 0.750000 0.071475
O O5 0.717263 0.854411 0.194181
O O6 0.607872 0.750000 0.141340
O O7 0.618103 0.964576 0.137448
O O8 0.735734 0.052313 0.194468
O O9 0.897293 0.346255 0.189629
O O10 0.742131 0.750000 0.814094
#
# Coordination Sequence:
#
# PCOD9572801 Si02
#       6
#     8  16  16  32  16  32
#     4   8  16  32  64  76 100 147 210 233 264 334
#     4  10  18  35  52  85 110 143 183 242 284 335
#     4   8  16  32  57  85  96 140 193 239 265 328
#     4   9  18  33  59  78 106 141 196 234 266 334
#     4  10  21  30  52  79 115 132 175 239 290 320
#     4  10  19  35  55  79 104 151 190 227 272 347
#
# _framework density 22.897642999999999
#
# number of rings (size 3 to 8) (size 9 to 14) (size 15 to 20)
#    0.000    2.667    1.333    0.400    5.600    1.067 
#    0.000    6.000    0.000    9.600    0.000    0.000 
#    0.000    0.000    0.000    0.000    0.000    0.000 
#
# Total GULP energy -334219.498983 kJ/mol
# GULP energy per Si atom -5570.324983 kJ/mol
# Density = 2.284553 g / cm^3
# Si number density = 22.897643 Si / 1000 Ang^3
#
#
#
# Elastic Constant Matrix: (Units=GPa)
#
#
# Indices 1 2 3 4 5 6 
#
# 1 184.3109 74.9443 4.7931 0.0000 0.0000 0.0000
# 2 74.9443 184.3109 4.7931 0.0000 0.0000 0.0000
# 3 4.7931 4.7931 33.2387 0.0000 0.0000 0.0000
# 4 0.0000 0.0000 0.0000 -589.9746 0.0000 0.0000
# 5 0.0000 0.0000 0.0000 0.0000 -589.9746 0.0000
# 6 0.0000 0.0000 0.0000 0.0000 0.0000 2.7308
#
#
#
# Elastic Compliance Matrix: (Units=1/GPa)
#
#
# Indices 1 2 3 4 5 6 
#
# 1 0.006511 -0.002633 -0.000559 0.000000 0.000000 0.000000
# 2 -0.002633 0.006511 -0.000559 0.000000 0.000000 0.000000
# 3 -0.000559 -0.000559 0.030247 0.000000 0.000000 0.000000
# 4 0.000000 0.000000 0.000000 -0.001695 0.000000 0.000000
# 5 0.000000 0.000000 0.000000 0.000000 -0.001695 0.000000
# 6 0.000000 0.000000 0.000000 0.000000 0.000000 0.366196
#
#
# Mechanical properties :
#
#
# Convention : Reuss Voigt Hill
#
# Bulk Modulus (GPa) = 27.95981 63.43571 45.69776
# Shear Modulus (GPa) = 11.75094 -214.28835 -101.26871
#
# Velocity S-wave (km/s) = 2.26784 -9.68445 -6.65753
# Velocity P-wave (km/s) = 4.36975 9.86342 6.25270
#
# Compressibility (1/GPa) = 0.03576562
#
# Stress axis : x y z
#
# Youngs Moduli (GPa) = 153.59283 153.59283 33.06152
#
# Poissons Ratio (x) = 0.40439 0.01849
# Poissons Ratio (y) = 0.40439 0.01849
# Poissons Ratio (z) = 0.08589 0.08589
#
# Static dielectric constant tensor:
#      x y z
#    x 1.846610 0.000000 0.000000 
#    y 0.000000 1.846610 0.000000 
#    z 0.000000 0.000000 1.817160 
# 
# From -- ./inp_files/14160.got.cif
#   From: 2010.05.17/outbox.cif.g08.bks.cpg/sg141_8_cif.got.tgz:14160.got - 2010.05.20 13:30:51.
