data_PCOD9572102
_publ_section_title
;
Structure prediction by ZEFSAII (Michael W. Deem and Ramdas Pophale) SiO2 
 PCOD9572102
Probable space group: I 4/M C M
;
_chemical_formula_sum "Si O2"
_cell_formula_units_Z 116
_cell_length_a 29.060954
_cell_length_b 29.060954
_cell_length_c 9.739437
_cell_angle_alpha 90.000000
_cell_angle_beta 90.000000
_cell_angle_gamma 90.000000
_cell_volume 8225.334846
_symmetry_space_group_name_H-M "I 4/M C M"
_symmetry_group_IT_number 140
_symmetry_cell_setting 'tetragonal'
loop_
_space_group_symop_operation_xyz
x,y,z
-y,x,z
-x,-y,z
y,-x,z
x,-y,1/2-z
-x,y,1/2-z
y,x,1/2-z
-y,-x,1/2-z
-x,-y,-z
y,-x,-z
x,y,-z
-y,x,-z
-x,y,1/2+z
x,-y,1/2+z
-y,-x,1/2+z
y,x,1/2+z
1/2+x,1/2+y,1/2+z
1/2-y,1/2+x,1/2+z
1/2-x,1/2-y,1/2+z
1/2+y,1/2-x,1/2+z
1/2+x,1/2-y,-z
1/2-x,1/2+y,-z
1/2+y,1/2+x,-z
1/2-y,1/2-x,-z
1/2-x,1/2-y,1/2-z
1/2+y,1/2-x,1/2-z
1/2+x,1/2+y,1/2-z
1/2-y,1/2+x,1/2-z
1/2-x,1/2+y,z
1/2+x,1/2-y,z
1/2-y,1/2-x,z
1/2+y,1/2+x,z
loop_
_atom_site_type_symbol
_atom_site_label
_atom_site_fract_x
_atom_site_fract_y
_atom_site_fract_z
Si Si1 0.341703 0.762685 0.500000
Si Si2 0.500000 0.000000 0.750000
Si Si3 0.288035 0.866685 0.790990
Si Si4 0.572856 0.927145 0.839050
Si Si5 0.458991 0.160977 0.340776
Si Si6 0.688616 0.267366 0.000000
O O1 0.300447 0.800447 0.500000
O O2 0.370358 0.772869 0.365305
O O3 0.316323 0.713416 0.500000
O O4 0.533640 0.966361 0.834413
O O5 0.330827 0.830827 0.802770
O O6 0.305836 0.914988 0.845146
O O7 0.246177 0.842778 0.871219
O O8 0.555226 0.883503 0.750787
O O9 0.583500 0.916501 0.000000
O O10 0.500000 0.182099 0.250000
O O11 0.471391 0.149174 0.500000
O O12 0.730244 0.230244 0.000000
#
# Coordination Sequence:
#
# PCOD9572102 Si02
#       6
#    16   4  32  16  32  16
#     4   9  18  28  47  74  94 114 141 174 213 282
#     4  12  26  44  56  70  86  96 146 208 258 292
#     4  10  19  31  50  67  94 118 145 179 231 279
#     4  12  26  39  58  69  84 107 146 194 254 298
#     4  12  25  38  52  69  91 119 154 191 236 287
#     4   9  16  30  47  70  94 118 139 170 221 278
#
# _framework density 14.102767999999999
#
# number of rings (size 3 to 8) (size 9 to 14) (size 15 to 20)
#    0.000    1.379    4.138    2.276    3.862    4.414 
#    0.000    0.000    0.000    0.000    0.000    0.000 
#    0.000    0.000    0.000    0.000    0.000    0.000 
#
# Total GULP energy -323351.493015 kJ/mol
# GULP energy per Si atom -5575.025742 kJ/mol
# Density = 1.407067 g / cm^3
# Si number density = 14.102768 Si / 1000 Ang^3
#
#
#
# Elastic Constant Matrix: (Units=GPa)
#
#
# Indices 1 2 3 4 5 6 
#
# 1 35.8056 21.3966 19.8824 0.0000 0.0000 0.0000
# 2 21.3966 35.8057 19.8824 0.0000 0.0000 0.0000
# 3 19.8824 19.8824 134.1116 0.0000 0.0000 0.0000
# 4 0.0000 0.0000 0.0000 10.1703 0.0000 0.0000
# 5 0.0000 0.0000 0.0000 0.0000 10.1703 0.0000
# 6 0.0000 0.0000 0.0000 0.0000 0.0000 20.3818
#
#
#
# Elastic Compliance Matrix: (Units=1/GPa)
#
#
# Indices 1 2 3 4 5 6 
#
# 1 0.044446 -0.024955 -0.002890 0.000000 0.000000 0.000000
# 2 -0.024955 0.044446 -0.002890 0.000000 0.000000 0.000000
# 3 -0.002890 -0.002890 0.008313 0.000000 0.000000 0.000000
# 4 0.000000 0.000000 0.000000 0.098326 0.000000 0.000000
# 5 0.000000 0.000000 0.000000 0.000000 0.098326 0.000000
# 6 0.000000 0.000000 0.000000 0.000000 0.000000 0.049063
#
#
# Mechanical properties :
#
#
# Convention : Reuss Voigt Hill
#
# Bulk Modulus (GPa) = 27.98287 36.44954 32.21620
# Shear Modulus (GPa) = 12.01056 17.78190 14.89623
#
# Velocity S-wave (km/s) = 2.92146 3.55474 3.25355
# Velocity P-wave (km/s) = 5.59152 6.53835 6.08338
#
# Compressibility (1/GPa) = 0.03573615
#
# Stress axis : x y z
#
# Youngs Moduli (GPa) = 22.49932 22.49933 120.29011
#
# Poissons Ratio (x) = 0.56148 0.34758
# Poissons Ratio (y) = 0.56148 0.34758
# Poissons Ratio (z) = 0.06501 0.06501
#
# Static dielectric constant tensor:
#      x y z
#    x 1.461050 0.000000 0.000000 
#    y 0.000000 1.461050 0.000000 
#    z 0.000000 0.000000 1.523500 
# 
# From -- ./inp_files/1267.got.cif
#   From: 2010.05.17/outbox.cif.g08.bks.cpg/sg140_1_cif.got.tgz:1267.got - 2010.06.21 00:45:31.
