data_PCOD9572774
_publ_section_title
;
Structure prediction by ZEFSAII (Michael W. Deem and Ramdas Pophale) SiO2 
 PCOD9572774
Probable space group: I 41/A M D
;
_chemical_formula_sum "Si O2"
_cell_formula_units_Z 160
_cell_length_a 26.304458
_cell_length_b 26.304458
_cell_length_c 12.314044
_cell_angle_alpha 90.000000
_cell_angle_beta 90.000000
_cell_angle_gamma 90.000000
_cell_volume 8520.388869
_symmetry_space_group_name_H-M "I 41/A M D"
_symmetry_group_IT_number 141
_space_group.IT_coordinate_system_code '2'
_symmetry_cell_setting 'tetragonal'
loop_
_space_group_symop_operation_xyz
x,y,z
1/4-y,3/4+x,1/4+z
-x,1/2-y,z
1/4+y,1/4-x,3/4+z
x,-y,-z
-x,1/2+y,-z
1/4+y,3/4+x,1/4-z
1/4-y,1/4-x,3/4-z
-x,-y,-z
3/4+y,1/4-x,3/4-z
x,1/2+y,-z
3/4-y,3/4+x,1/4-z
-x,y,z
x,1/2-y,z
3/4-y,1/4-x,3/4+z
3/4+y,3/4+x,1/4+z
1/2+x,1/2+y,1/2+z
3/4-y,1/4+x,3/4+z
1/2-x,-y,1/2+z
3/4+y,3/4-x,1/4+z
1/2+x,1/2-y,1/2-z
1/2-x,y,1/2-z
3/4+y,1/4+x,3/4-z
3/4-y,3/4-x,1/4-z
1/2-x,1/2-y,1/2-z
1/4+y,3/4-x,1/4-z
1/2+x,y,1/2-z
1/4-y,1/4+x,3/4-z
1/2-x,1/2+y,1/2+z
1/2+x,-y,1/2+z
1/4-y,3/4-x,1/4+z
1/4+y,1/4+x,3/4+z
loop_
_atom_site_type_symbol
_atom_site_label
_atom_site_fract_x
_atom_site_fract_y
_atom_site_fract_z
Si Si1 0.120346 0.807157 0.770282
Si Si2 0.559469 0.040553 0.807960
Si Si3 0.145194 0.809509 0.400716
Si Si4 0.438683 0.448476 0.560417
Si Si5 0.614510 0.058719 0.151702
O O1 0.107288 0.750000 0.741987
O O2 0.158397 0.808887 0.872557
O O3 0.071759 0.839690 0.804182
O O4 0.153748 0.831353 0.674113
O O5 0.500000 0.021619 0.806675
O O6 0.577478 0.052091 0.685275
O O7 0.596318 0.998982 0.863224
O O8 0.158765 0.750000 0.414725
O O9 0.153584 0.823220 0.274398
O O10 0.179614 0.846147 0.475435
O O11 0.421914 0.500000 0.500000
O O12 0.500000 0.450076 0.566572
O O13 0.671657 0.078344 0.125000
#
# Coordination Sequence:
#
# PCOD9572774 Si02
#       5
#    32  32  32  32  32
#     4  10  21  32  46  73 106 140 173 203 249 311
#     4  10  18  31  51  72  99 130 166 214 259 296
#     4  10  19  32  50  73 102 134 173 216 252 300
#     4   9  16  28  50  74  92 120 164 210 256 292
#     4  10  19  31  49  74 101 129 167 212 261 307
#
# _framework density 18.778486000000001
#
# number of rings (size 3 to 8) (size 9 to 14) (size 15 to 20)
#    0.000    2.200    2.000    2.400    0.000    2.800 
#    0.000    0.000    0.000    3.600    0.000   11.200 
#    0.000    0.000    0.000    0.000    0.000    0.000 
#
# Total GULP energy -445590.104135 kJ/mol
# GULP energy per Si atom -5569.876302 kJ/mol
# Density = 1.873575 g / cm^3
# Si number density = 18.778486 Si / 1000 Ang^3
#
#
#
# Elastic Constant Matrix: (Units=GPa)
#
#
# Indices 1 2 3 4 5 6 
#
# 1 30.1178 -5.6548 3.1104 0.0000 0.0000 0.0000
# 2 -5.6548 30.1190 3.1102 0.0000 0.0000 0.0000
# 3 3.1104 3.1102 109.0093 0.0000 0.0000 0.0000
# 4 0.0000 0.0000 0.0000 22.5998 0.0000 0.0000
# 5 0.0000 0.0000 0.0000 0.0000 22.5992 0.0000
# 6 0.0000 0.0000 0.0000 0.0000 0.0000 22.1137
#
#
#
# Elastic Compliance Matrix: (Units=1/GPa)
#
#
# Indices 1 2 3 4 5 6 
#
# 1 0.034566 0.006611 -0.001175 0.000000 0.000000 0.000000
# 2 0.006611 0.034564 -0.001175 0.000000 0.000000 0.000000
# 3 -0.001175 -0.001175 0.009241 0.000000 0.000000 0.000000
# 4 0.000000 0.000000 0.000000 0.044248 0.000000 0.000000
# 5 0.000000 0.000000 0.000000 0.000000 0.044249 0.000000
# 6 0.000000 0.000000 0.000000 0.000000 0.000000 0.045221
#
#
# Mechanical properties :
#
#
# Convention : Reuss Voigt Hill
#
# Bulk Modulus (GPa) = 11.50845 18.93088 15.21966
# Shear Modulus (GPa) = 21.50258 24.70790 23.10524
#
# Velocity S-wave (km/s) = 3.38755 3.63127 3.51153
# Velocity P-wave (km/s) = 4.63060 5.26161 4.95616
#
# Compressibility (1/GPa) = 0.08689271
#
# Stress axis : x y z
#
# Youngs Moduli (GPa) = 28.93052 28.93175 108.21844
#
# Poissons Ratio (x) = -0.19127 0.12715
# Poissons Ratio (y) = -0.19126 0.12714
# Poissons Ratio (z) = 0.03399 0.03399
#
# Static dielectric constant tensor:
#      x y z
#    x 1.672990 0.000000 0.000000 
#    y 0.000000 1.672980 0.000000 
#    z 0.000000 0.000000 1.689670 
# 
# From -- ./inp_files/4854.got.cif
#   From: 2010.05.17/outbox.cif.g08.bks.cpg/sg141_3_cif.got.tgz:4854.got - 2010.05.20 13:30:51.
