data_PCOD9572054
_publ_section_title
;
Structure prediction by ZEFSAII (Michael W. Deem and Ramdas Pophale) SiO2 
 PCOD9572054
Probable space group: I 4/M C M
;
_chemical_formula_sum "Si O2"
_cell_formula_units_Z 96
_cell_length_a 21.995136
_cell_length_b 21.995136
_cell_length_c 10.184178
_cell_angle_alpha 90.000000
_cell_angle_beta 90.000000
_cell_angle_gamma 90.000000
_cell_volume 4926.962816
_symmetry_space_group_name_H-M "I 4/M C M"
_symmetry_group_IT_number 140
_symmetry_cell_setting 'tetragonal'
loop_
_space_group_symop_operation_xyz
x,y,z
-y,x,z
-x,-y,z
y,-x,z
x,-y,1/2-z
-x,y,1/2-z
y,x,1/2-z
-y,-x,1/2-z
-x,-y,-z
y,-x,-z
x,y,-z
-y,x,-z
-x,y,1/2+z
x,-y,1/2+z
-y,-x,1/2+z
y,x,1/2+z
1/2+x,1/2+y,1/2+z
1/2-y,1/2+x,1/2+z
1/2-x,1/2-y,1/2+z
1/2+y,1/2-x,1/2+z
1/2+x,1/2-y,-z
1/2-x,1/2+y,-z
1/2+y,1/2+x,-z
1/2-y,1/2-x,-z
1/2-x,1/2-y,1/2-z
1/2+y,1/2-x,1/2-z
1/2+x,1/2+y,1/2-z
1/2-y,1/2+x,1/2-z
1/2-x,1/2+y,z
1/2+x,1/2-y,z
1/2-y,1/2-x,z
1/2+y,1/2+x,z
loop_
_atom_site_type_symbol
_atom_site_label
_atom_site_fract_x
_atom_site_fract_y
_atom_site_fract_z
Si Si1 0.573102 0.343349 0.500000
Si Si2 0.059395 0.342531 0.343507
Si Si3 0.369123 0.725978 0.256701
Si Si4 0.328211 0.568944 0.500000
O O1 0.601596 0.313065 0.372536
O O2 0.502746 0.330106 0.500000
O O3 0.601221 0.410366 0.500000
O O4 0.046284 0.331493 0.500000
O O5 0.091744 0.408257 0.332890
O O6 0.109903 0.293643 0.294275
O O7 0.000000 0.337482 0.250000
O O8 0.299573 0.700428 0.250000
O O9 0.402949 0.706423 0.124119
#
# Coordination Sequence:
#
# PCOD9572054 Si02
#       4
#    16  32  32  16
#     4  10  18  33  51  79 118 158 208 258 313 370
#     4  11  25  45  69  96 129 168 210 262 320 380
#     4  10  21  37  60  90 121 160 208 259 314 371
#     4  10  20  31  53  81 116 162 206 260 311 368
#
# _framework density 19.48462
#
# number of rings (size 3 to 8) (size 9 to 14) (size 15 to 20)
#    0.000    1.667    1.667    3.000    2.333    2.000 
#    0.000    1.667    0.000    6.000    0.000    0.000 
#    0.000    0.000    0.000    0.000    0.000    0.000 
#
# Total GULP energy -267453.132187 kJ/mol
# GULP energy per Si atom -5571.940254 kJ/mol
# Density = 1.944027 g / cm^3
# Si number density = 19.484620 Si / 1000 Ang^3
#
#
#
# Elastic Constant Matrix: (Units=GPa)
#
#
# Indices 1 2 3 4 5 6 
#
# 1 64.3010 99.3710 49.5536 0.0000 0.0000 0.0000
# 2 99.3710 64.2949 49.5511 0.0000 0.0000 0.0000
# 3 49.5536 49.5511 173.9877 0.0000 0.0000 0.0000
# 4 0.0000 0.0000 0.0000 11.0536 0.0000 0.0000
# 5 0.0000 0.0000 0.0000 0.0000 11.0561 0.0000
# 6 0.0000 0.0000 0.0000 0.0000 0.0000 23.7918
#
#
#
# Elastic Compliance Matrix: (Units=1/GPa)
#
#
# Indices 1 2 3 4 5 6 
#
# 1 -0.010564 0.017948 -0.002103 0.000000 0.000000 0.000000
# 2 0.017948 -0.010565 -0.002103 0.000000 0.000000 0.000000
# 3 -0.002103 -0.002103 0.006945 0.000000 0.000000 0.000000
# 4 0.000000 0.000000 0.000000 0.090468 0.000000 0.000000
# 5 0.000000 0.000000 0.000000 0.000000 0.090448 0.000000
# 6 0.000000 0.000000 0.000000 0.000000 0.000000 0.042031
#
#
# Mechanical properties :
#
#
# Convention : Reuss Voigt Hill
#
# Bulk Modulus (GPa) = 75.18470 77.72611 76.45540
# Shear Modulus (GPa) = 26.92319 16.12083 21.52201
#
# Velocity S-wave (km/s) = 3.72124 2.87951 3.32710
# Velocity P-wave (km/s) = 7.55870 7.14374 7.35415
#
# Compressibility (1/GPa) = 0.01330058
#
# Stress axis : x y z
#
# Youngs Moduli (GPa) = -94.66203 -94.65326 143.98286
#
# Poissons Ratio (x) = 1.69879 0.30275
# Poissons Ratio (y) = 1.69895 0.30277
# Poissons Ratio (z) = -0.19904 -0.19904
#
# Static dielectric constant tensor:
#      x y z
#    x 1.703550 0.000000 0.000000 
#    y 0.000000 1.703560 0.000000 
#    z 0.000000 0.000000 1.639800 
# 
# From -- ./inp_files/989.got.cif
#   From: 2010.05.17/outbox.cif.g08.bks.cpg/sg140_1_cif.got.tgz:989.got - 2010.06.21 00:45:31.
