data_PCOD9572224
_publ_section_title
;
Structure prediction by ZEFSAII (Michael W. Deem and Ramdas Pophale) SiO2 
 PCOD9572224
Probable space group: I 4/M C M
;
_chemical_formula_sum "Si O2"
_cell_formula_units_Z 160
_cell_length_a 22.130578
_cell_length_b 22.130578
_cell_length_c 14.772152
_cell_angle_alpha 90.000000
_cell_angle_beta 90.000000
_cell_angle_gamma 90.000000
_cell_volume 7234.845837
_symmetry_space_group_name_H-M "I 4/M C M"
_symmetry_group_IT_number 140
_symmetry_cell_setting 'tetragonal'
loop_
_space_group_symop_operation_xyz
x,y,z
-y,x,z
-x,-y,z
y,-x,z
x,-y,1/2-z
-x,y,1/2-z
y,x,1/2-z
-y,-x,1/2-z
-x,-y,-z
y,-x,-z
x,y,-z
-y,x,-z
-x,y,1/2+z
x,-y,1/2+z
-y,-x,1/2+z
y,x,1/2+z
1/2+x,1/2+y,1/2+z
1/2-y,1/2+x,1/2+z
1/2-x,1/2-y,1/2+z
1/2+y,1/2-x,1/2+z
1/2+x,1/2-y,-z
1/2-x,1/2+y,-z
1/2+y,1/2+x,-z
1/2-y,1/2-x,-z
1/2-x,1/2-y,1/2-z
1/2+y,1/2-x,1/2-z
1/2+x,1/2+y,1/2-z
1/2-y,1/2+x,1/2-z
1/2-x,1/2+y,z
1/2+x,1/2-y,z
1/2-y,1/2-x,z
1/2+y,1/2+x,z
loop_
_atom_site_type_symbol
_atom_site_label
_atom_site_fract_x
_atom_site_fract_y
_atom_site_fract_z
Si Si1 0.199738 0.894010 0.108683
Si Si2 0.664314 0.068051 0.141953
Si Si3 0.664447 0.261788 0.391230
Si Si4 0.093710 0.026081 0.610651
Si Si5 0.334209 0.931598 0.357889
O O1 0.269906 0.903584 0.127006
O O2 0.175445 0.829377 0.142133
O O3 0.157566 0.948481 0.142825
O O4 0.192932 0.893448 0.000000
O O5 0.612065 0.112065 0.106488
O O6 0.656810 0.064801 0.250215
O O7 0.662385 0.999562 0.106263
O O8 0.670645 0.263527 0.500000
O O9 0.715804 0.215804 0.355394
O O10 0.600353 0.230397 0.372772
O O11 0.094245 0.024423 0.500000
O O12 0.040494 0.072473 0.638416
O O13 0.385532 0.885532 0.393783
#
# Coordination Sequence:
#
# PCOD9572224 Si02
#       5
#    32  32  32  32  32
#     4  10  20  31  51  80 110 140 173 215 264 312
#     4  10  21  36  54  78 107 139 177 222 273 320
#     4   9  18  33  53  77 104 133 168 211 259 312
#     4   8  15  28  45  69 101 135 173 213 251 299
#     4   9  20  38  57  77 103 137 179 222 264 320
#
# _framework density 22.115190999999999
#
# number of rings (size 3 to 8) (size 9 to 14) (size 15 to 20)
#    0.000    2.800    0.000    1.200    2.800    3.200 
#    0.000    5.000    0.000    0.000    0.000    4.200 
#    0.000    0.000    0.000    0.000    0.000    0.000 
#
# Total GULP energy -446738.147572 kJ/mol
# GULP energy per Si atom -5584.226845 kJ/mol
# Density = 2.206486 g / cm^3
# Si number density = 22.115191 Si / 1000 Ang^3
#
#
#
# Elastic Constant Matrix: (Units=GPa)
#
#
# Indices 1 2 3 4 5 6 
#
# 1 133.9895 67.2429 1.4580 0.0000 0.0000 0.0000
# 2 67.2429 133.9895 1.4580 0.0000 0.0000 0.0000
# 3 1.4580 1.4580 51.6123 0.0000 0.0000 0.0000
# 4 0.0000 0.0000 0.0000 22.5567 0.0000 0.0000
# 5 0.0000 0.0000 0.0000 0.0000 22.5567 0.0000
# 6 0.0000 0.0000 0.0000 0.0000 0.0000 27.2306
#
#
#
# Elastic Compliance Matrix: (Units=1/GPa)
#
#
# Indices 1 2 3 4 5 6 
#
# 1 0.009977 -0.005005 -0.000140 0.000000 0.000000 0.000000
# 2 -0.005005 0.009977 -0.000140 0.000000 0.000000 0.000000
# 3 -0.000140 -0.000140 0.019383 0.000000 0.000000 0.000000
# 4 0.000000 0.000000 0.000000 0.044333 0.000000 0.000000
# 5 0.000000 0.000000 0.000000 0.000000 0.044333 0.000000
# 6 0.000000 0.000000 0.000000 0.000000 0.000000 0.036723
#
#
# Mechanical properties :
#
#
# Convention : Reuss Voigt Hill
#
# Bulk Modulus (GPa) = 34.76542 51.10104 42.93323
# Shear Modulus (GPa) = 27.04367 31.09760 29.07064
#
# Velocity S-wave (km/s) = 3.50073 3.75395 3.62955
# Velocity P-wave (km/s) = 5.66519 6.47661 6.08444
#
# Compressibility (1/GPa) = 0.02876421
#
# Stress axis : x y z
#
# Youngs Moduli (GPa) = 100.23330 100.23330 51.59122
#
# Poissons Ratio (x) = 0.50170 0.00725
# Poissons Ratio (y) = 0.50170 0.00725
# Poissons Ratio (z) = 0.01408 0.01408
#
# Static dielectric constant tensor:
#      x y z
#    x 1.795390 0.000000 0.000000 
#    y 0.000000 1.795390 0.000000 
#    z 0.000000 0.000000 1.857830 
# 
# From -- ./inp_files/6794.got.cif
#   From: 2010.05.17/outbox.cif.g08.bks.cpg/sg140_4_cif.got.tgz:6794.got - 2010.06.21 00:45:31.
