data_PCOD9572400
_publ_section_title
;
Structure prediction by ZEFSAII (Michael W. Deem and Ramdas Pophale) SiO2 
 PCOD9572400
Probable space group: I 4/M C M
;
_chemical_formula_sum "Si O2"
_cell_formula_units_Z 176
_cell_length_a 18.689828
_cell_length_b 18.689828
_cell_length_c 27.815458
_cell_angle_alpha 90.000000
_cell_angle_beta 90.000000
_cell_angle_gamma 90.000000
_cell_volume 9716.208474
_symmetry_space_group_name_H-M "I 4/M C M"
_symmetry_group_IT_number 140
_symmetry_cell_setting 'tetragonal'
loop_
_space_group_symop_operation_xyz
x,y,z
-y,x,z
-x,-y,z
y,-x,z
x,-y,1/2-z
-x,y,1/2-z
y,x,1/2-z
-y,-x,1/2-z
-x,-y,-z
y,-x,-z
x,y,-z
-y,x,-z
-x,y,1/2+z
x,-y,1/2+z
-y,-x,1/2+z
y,x,1/2+z
1/2+x,1/2+y,1/2+z
1/2-y,1/2+x,1/2+z
1/2-x,1/2-y,1/2+z
1/2+y,1/2-x,1/2+z
1/2+x,1/2-y,-z
1/2-x,1/2+y,-z
1/2+y,1/2+x,-z
1/2-y,1/2-x,-z
1/2-x,1/2-y,1/2-z
1/2+y,1/2-x,1/2-z
1/2+x,1/2+y,1/2-z
1/2-y,1/2+x,1/2-z
1/2-x,1/2+y,z
1/2+x,1/2-y,z
1/2-y,1/2-x,z
1/2+y,1/2+x,z
loop_
_atom_site_type_symbol
_atom_site_label
_atom_site_fract_x
_atom_site_fract_y
_atom_site_fract_z
Si Si1 0.042547 0.888209 0.127714
Si Si2 0.783598 0.893093 0.942732
Si Si3 0.756195 0.743806 0.105167
Si Si4 0.808126 0.921145 0.224926
Si Si5 0.861015 0.472014 0.941910
Si Si6 0.794020 0.294020 0.210952
Si Si7 0.862612 0.362612 0.558558
O O1 0.059903 0.846748 0.078977
O O2 0.063692 0.837572 0.171706
O O3 0.960317 0.911142 0.130841
O O4 0.785348 0.814342 0.921109
O O5 0.707654 0.926453 0.927515
O O6 0.786171 0.890381 0.000000
O O7 0.733603 0.766398 0.158869
O O8 0.815434 0.684566 0.094073
O O9 0.868354 0.868354 0.250000
O O10 0.734204 0.875407 0.219706
O O11 0.802268 0.000000 0.250000
O O12 0.932611 0.432611 0.924058
O O13 0.850366 0.554182 0.930199
O O14 0.864618 0.470462 0.000000
O O15 0.750000 0.250000 0.250000
O O16 0.850333 0.350333 0.500000
#
# Coordination Sequence:
#
# PCOD9572400 Si02
#       7
#    32  32  16  32  32  16  16
#     4  11  24  39  60  92 124 164 213 265 320 375
#     4  11  23  38  58  84 124 173 212 251 307 376
#     4  12  22  39  62  87 122 161 210 257 307 383
#     4  11  21  39  69  96 126 157 205 267 325 379
#     4   9  18  35  56  81 114 159 207 258 311 356
#     4  10  24  42  63  96 127 157 198 259 331 376
#     4  10  21  34  58  90 119 154 208 265 309 362
#
# _framework density 18.114061
#
# number of rings (size 3 to 8) (size 9 to 14) (size 15 to 20)
#    0.000    1.455    4.545    1.091    2.545    2.000 
#    0.000    0.909    0.000    0.273    0.000    0.000 
#    0.000    0.000    0.000    0.000    0.000    0.000 
#
# Total GULP energy -490727.752375 kJ/mol
# GULP energy per Si atom -5576.451732 kJ/mol
# Density = 1.807283 g / cm^3
# Si number density = 18.114061 Si / 1000 Ang^3
#
#
#
# Elastic Constant Matrix: (Units=GPa)
#
#
# Indices 1 2 3 4 5 6 
#
# 1 88.3354 80.3747 23.5022 0.0000 0.0000 0.0000
# 2 80.3747 88.3354 23.5022 0.0000 0.0000 0.0000
# 3 23.5022 23.5022 69.1282 0.0000 0.0000 0.0000
# 4 0.0000 0.0000 0.0000 16.1636 0.0000 0.0000
# 5 0.0000 0.0000 0.0000 0.0000 16.1636 0.0000
# 6 0.0000 0.0000 0.0000 0.0000 0.0000 29.8001
#
#
#
# Elastic Compliance Matrix: (Units=1/GPa)
#
#
# Indices 1 2 3 4 5 6 
#
# 1 0.066083 -0.059535 -0.002226 0.000000 0.000000 0.000000
# 2 -0.059535 0.066083 -0.002226 0.000000 0.000000 0.000000
# 3 -0.002226 -0.002226 0.015979 0.000000 0.000000 0.000000
# 4 0.000000 0.000000 0.000000 0.061867 0.000000 0.000000
# 5 0.000000 0.000000 0.000000 0.000000 0.061867 0.000000
# 6 0.000000 0.000000 0.000000 0.000000 0.000000 0.033557
#
#
# Mechanical properties :
#
#
# Convention : Reuss Voigt Hill
#
# Bulk Modulus (GPa) = 49.57756 55.61749 52.59752
# Shear Modulus (GPa) = 11.36017 20.32010 15.84013
#
# Velocity S-wave (km/s) = 2.50701 3.35294 2.96035
# Velocity P-wave (km/s) = 5.98408 6.76464 6.38629
#
# Compressibility (1/GPa) = 0.02017042
#
# Stress axis : x y z
#
# Youngs Moduli (GPa) = 15.13256 15.13256 62.58023
#
# Poissons Ratio (x) = 0.90092 0.13931
# Poissons Ratio (y) = 0.90092 0.13931
# Poissons Ratio (z) = 0.03369 0.03369
#
# Static dielectric constant tensor:
#      x y z
#    x 1.650150 0.000000 0.000000 
#    y 0.000000 1.650150 0.000000 
#    z 0.000000 0.000000 1.615210 
# 
# From -- ./inp_files/10751.got.cif
#   From: 2010.05.17/outbox.cif.g08.bks.cpg/sg140_6_cif.got.tgz:10751.got - 2010.06.21 00:45:31.
