data_PCOD9572390
_publ_section_title
;
Structure prediction by ZEFSAII (Michael W. Deem and Ramdas Pophale) SiO2 
 PCOD9572390
Probable space group: I 4/M C M
;
_chemical_formula_sum "Si O2"
_cell_formula_units_Z 192
_cell_length_a 20.822125
_cell_length_b 20.822125
_cell_length_c 23.279436
_cell_angle_alpha 90.000000
_cell_angle_beta 90.000000
_cell_angle_gamma 90.000000
_cell_volume 10093.052980
_symmetry_space_group_name_H-M "I 4/M C M"
_symmetry_group_IT_number 140
_symmetry_cell_setting 'tetragonal'
loop_
_space_group_symop_operation_xyz
x,y,z
-y,x,z
-x,-y,z
y,-x,z
x,-y,1/2-z
-x,y,1/2-z
y,x,1/2-z
-y,-x,1/2-z
-x,-y,-z
y,-x,-z
x,y,-z
-y,x,-z
-x,y,1/2+z
x,-y,1/2+z
-y,-x,1/2+z
y,x,1/2+z
1/2+x,1/2+y,1/2+z
1/2-y,1/2+x,1/2+z
1/2-x,1/2-y,1/2+z
1/2+y,1/2-x,1/2+z
1/2+x,1/2-y,-z
1/2-x,1/2+y,-z
1/2+y,1/2+x,-z
1/2-y,1/2-x,-z
1/2-x,1/2-y,1/2-z
1/2+y,1/2-x,1/2-z
1/2+x,1/2+y,1/2-z
1/2-y,1/2+x,1/2-z
1/2-x,1/2+y,z
1/2+x,1/2-y,z
1/2-y,1/2-x,z
1/2+y,1/2+x,z
loop_
_atom_site_type_symbol
_atom_site_label
_atom_site_fract_x
_atom_site_fract_y
_atom_site_fract_z
Si Si1 0.150657 0.450718 0.568470
Si Si2 0.591310 0.805890 0.430715
Si Si3 0.087091 0.942100 0.590977
Si Si4 0.637017 0.764268 0.849209
Si Si5 0.846480 0.065134 0.286787
Si Si6 0.662367 0.319485 0.935357
O O1 0.163849 0.446199 0.500000
O O2 0.079451 0.420550 0.576995
O O3 0.164698 0.523378 0.587771
O O4 0.198353 0.406041 0.604233
O O5 0.590191 0.810061 0.500000
O O6 0.650028 0.849973 0.409985
O O7 0.606904 0.731482 0.418204
O O8 0.106520 0.943456 0.658298
O O9 0.136595 0.892340 0.563985
O O10 0.016883 0.914615 0.575716
O O11 0.683380 0.816621 0.819962
O O12 0.591165 0.721755 0.809279
O O13 0.680441 0.715853 0.886689
O O14 0.879223 0.120778 0.250000
O O15 0.841954 0.000000 0.250000
O O16 0.684524 0.302564 0.000000
#
# Coordination Sequence:
#
# PCOD9572390 Si02
#       6
#    32  32  32  32  32  32
#     4   9  18  33  55  81 111 147 183 223 271 327
#     4   9  18  31  48  73 107 147 187 223 263 312
#     4  10  21  35  53  79 110 147 193 234 275 332
#     4  10  22  37  56  82 111 143 188 230 274 344
#     4  11  22  37  60  82 105 140 182 238 298 340
#     4  10  21  33  52  79 116 157 188 221 271 330
#
# _framework density 19.022986
#
# number of rings (size 3 to 8) (size 9 to 14) (size 15 to 20)
#    0.000    2.167    1.667    1.000    4.667    3.167 
#    0.000    2.500    0.000    1.000    0.000    0.000 
#    0.000    0.000    0.000    0.000    0.000    0.000 
#
# Total GULP energy -535051.577509 kJ/mol
# GULP energy per Si atom -5573.453932 kJ/mol
# Density = 1.897969 g / cm^3
# Si number density = 19.022986 Si / 1000 Ang^3
#
#
#
# Elastic Constant Matrix: (Units=GPa)
#
#
# Indices 1 2 3 4 5 6 
#
# 1 85.7224 35.3116 19.9249 0.0000 0.0000 0.0000
# 2 35.3116 85.7211 19.9245 0.0000 0.0000 0.0000
# 3 19.9249 19.9245 46.7535 0.0000 0.0000 0.0000
# 4 0.0000 0.0000 0.0000 9.5742 0.0000 0.0000
# 5 0.0000 0.0000 0.0000 0.0000 9.5745 0.0000
# 6 0.0000 0.0000 0.0000 0.0000 0.0000 31.8201
#
#
#
# Elastic Compliance Matrix: (Units=1/GPa)
#
#
# Indices 1 2 3 4 5 6 
#
# 1 0.014724 -0.005113 -0.004096 0.000000 0.000000 0.000000
# 2 -0.005113 0.014724 -0.004096 0.000000 0.000000 0.000000
# 3 -0.004096 -0.004096 0.024880 0.000000 0.000000 0.000000
# 4 0.000000 0.000000 0.000000 0.104447 0.000000 0.000000
# 5 0.000000 0.000000 0.000000 0.000000 0.104444 0.000000
# 6 0.000000 0.000000 0.000000 0.000000 0.000000 0.031427
#
#
# Mechanical properties :
#
#
# Convention : Reuss Voigt Hill
#
# Bulk Modulus (GPa) = 36.07749 40.94656 38.51203
# Shear Modulus (GPa) = 15.12884 19.72950 17.42917
#
# Velocity S-wave (km/s) = 2.82315 3.22396 3.03019
# Velocity P-wave (km/s) = 5.44365 5.95232 5.70366
#
# Compressibility (1/GPa) = 0.02771811
#
# Stress axis : x y z
#
# Youngs Moduli (GPa) = 67.91691 67.91606 40.19337
#
# Poissons Ratio (x) = 0.34727 0.16462
# Poissons Ratio (y) = 0.34728 0.16462
# Poissons Ratio (z) = 0.27817 0.27816
#
# Static dielectric constant tensor:
#      x y z
#    x 1.674890 0.000000 0.000000 
#    y 0.000000 1.674890 0.000000 
#    z 0.000000 0.000000 1.651670 
# 
# From -- ./inp_files/9746.got.cif
#   From: 2010.05.17/outbox.cif.g08.bks.cpg/sg140_5_cif.got.tgz:9746.got - 2010.06.21 00:45:31.
