data_PCOD9572931
_publ_section_title
;
Structure prediction by ZEFSAII (Michael W. Deem and Ramdas Pophale) SiO2 
 PCOD9572931
Probable space group: I 41/A M D
;
_chemical_formula_sum "Si O2"
_cell_formula_units_Z 96
_cell_length_a 13.654661
_cell_length_b 13.654661
_cell_length_c 26.617724
_cell_angle_alpha 90.000000
_cell_angle_beta 90.000000
_cell_angle_gamma 90.000000
_cell_volume 4962.868439
_symmetry_space_group_name_H-M "I 41/A M D"
_symmetry_group_IT_number 141
_space_group.IT_coordinate_system_code '2'
_symmetry_cell_setting 'tetragonal'
loop_
_space_group_symop_operation_xyz
x,y,z
1/4-y,3/4+x,1/4+z
-x,1/2-y,z
1/4+y,1/4-x,3/4+z
x,-y,-z
-x,1/2+y,-z
1/4+y,3/4+x,1/4-z
1/4-y,1/4-x,3/4-z
-x,-y,-z
3/4+y,1/4-x,3/4-z
x,1/2+y,-z
3/4-y,3/4+x,1/4-z
-x,y,z
x,1/2-y,z
3/4-y,1/4-x,3/4+z
3/4+y,3/4+x,1/4+z
1/2+x,1/2+y,1/2+z
3/4-y,1/4+x,3/4+z
1/2-x,-y,1/2+z
3/4+y,3/4-x,1/4+z
1/2+x,1/2-y,1/2-z
1/2-x,y,1/2-z
3/4+y,1/4+x,3/4-z
3/4-y,3/4-x,1/4-z
1/2-x,1/2-y,1/2-z
1/4+y,3/4-x,1/4-z
1/2+x,y,1/2-z
1/4-y,1/4+x,3/4-z
1/2-x,1/2+y,1/2+z
1/2+x,-y,1/2+z
1/4-y,3/4-x,1/4+z
1/4+y,1/4+x,3/4+z
loop_
_atom_site_type_symbol
_atom_site_label
_atom_site_fract_x
_atom_site_fract_y
_atom_site_fract_z
Si Si1 0.785652 0.867386 0.576626
Si Si2 0.610812 0.368360 0.973372
Si Si3 0.384507 0.479687 0.378529
O O1 0.776043 0.750000 0.577156
O O2 0.847384 0.902617 0.625000
O O3 0.840643 0.898857 0.525793
O O4 0.679856 0.918469 0.581727
O O5 0.500000 0.405183 0.966727
O O6 0.604971 0.250000 0.976474
O O7 0.676253 0.387248 0.924598
O O8 0.500000 0.479111 0.387816
O O9 0.337125 0.587125 0.375000
#
# Coordination Sequence:
#
# PCOD9572931 Si02
#       3
#    32  32  32
#     4  10  20  33  54  86 117 145 180 220 267 329
#     4   9  18  35  58  82 112 147 177 213 271 337
#     4  10  22  39  57  78 106 145 192 235 277 323
#
# _framework density 19.343653
#
# number of rings (size 3 to 8) (size 9 to 14) (size 15 to 20)
#    0.000    2.333    0.000    2.000    0.000    9.333 
#    0.000   11.667    0.000    6.000    0.000    0.000 
#    0.000    0.000    0.000    0.000    0.000    0.000 
#
# Total GULP energy -268140.359371 kJ/mol
# GULP energy per Si atom -5586.257487 kJ/mol
# Density = 1.929963 g / cm^3
# Si number density = 19.343653 Si / 1000 Ang^3
#
#
#
# Elastic Constant Matrix: (Units=GPa)
#
#
# Indices 1 2 3 4 5 6 
#
# 1 132.7812 45.7377 36.9743 0.0000 0.0000 0.0000
# 2 45.7377 132.7866 36.9740 0.0000 0.0000 0.0000
# 3 36.9743 36.9740 89.4719 0.0000 0.0000 0.0000
# 4 0.0000 0.0000 0.0000 29.8568 0.0000 0.0000
# 5 0.0000 0.0000 0.0000 0.0000 29.8569 0.0000
# 6 0.0000 0.0000 0.0000 0.0000 0.0000 31.1767
#
#
#
# Elastic Compliance Matrix: (Units=1/GPa)
#
#
# Indices 1 2 3 4 5 6 
#
# 1 0.009124 -0.002365 -0.002793 0.000000 0.000000 0.000000
# 2 -0.002365 0.009123 -0.002793 0.000000 0.000000 0.000000
# 3 -0.002793 -0.002793 0.013485 0.000000 0.000000 0.000000
# 4 0.000000 0.000000 0.000000 0.033493 0.000000 0.000000
# 5 0.000000 0.000000 0.000000 0.000000 0.033493 0.000000
# 6 0.000000 0.000000 0.000000 0.000000 0.000000 0.032075
#
#
# Mechanical properties :
#
#
# Convention : Reuss Voigt Hill
#
# Bulk Modulus (GPa) = 63.17017 66.04577 64.60797
# Shear Modulus (GPa) = 32.90096 33.86834 33.38465
#
# Velocity S-wave (km/s) = 4.12863 4.18889 4.15887
# Velocity P-wave (km/s) = 7.44682 7.59034 7.51892
#
# Compressibility (1/GPa) = 0.01583026
#
# Stress axis : x y z
#
# Youngs Moduli (GPa) = 109.60671 109.61198 74.15628
#
# Poissons Ratio (x) = 0.25922 0.20712
# Poissons Ratio (y) = 0.25920 0.20710
# Poissons Ratio (z) = 0.30614 0.30613
#
# Static dielectric constant tensor:
#      x y z
#    x 1.697680 0.000000 0.000000 
#    y 0.000000 1.697680 0.000000 
#    z 0.000000 0.000000 1.659210 
# 
# From -- ./inp_files/9736.got.cif
#   From: 2010.05.17/outbox.cif.g08.bks.cpg/sg141_5_cif.got.tgz:9736.got - 2010.05.20 13:30:51.
