data_PCOD9572040
_publ_section_title
;
Structure prediction by ZEFSAII (Michael W. Deem and Ramdas Pophale) SiO2 
 PCOD9572040
Probable space group: I 4/M C M
;
_chemical_formula_sum "Si O2"
_cell_formula_units_Z 160
_cell_length_a 32.825849
_cell_length_b 32.825849
_cell_length_c 8.630637
_cell_angle_alpha 90.000000
_cell_angle_beta 90.000000
_cell_angle_gamma 90.000000
_cell_volume 9299.825200
_symmetry_space_group_name_H-M "I 4/M C M"
_symmetry_group_IT_number 140
_symmetry_cell_setting 'tetragonal'
loop_
_space_group_symop_operation_xyz
x,y,z
-y,x,z
-x,-y,z
y,-x,z
x,-y,1/2-z
-x,y,1/2-z
y,x,1/2-z
-y,-x,1/2-z
-x,-y,-z
y,-x,-z
x,y,-z
-y,x,-z
-x,y,1/2+z
x,-y,1/2+z
-y,-x,1/2+z
y,x,1/2+z
1/2+x,1/2+y,1/2+z
1/2-y,1/2+x,1/2+z
1/2-x,1/2-y,1/2+z
1/2+y,1/2-x,1/2+z
1/2+x,1/2-y,-z
1/2-x,1/2+y,-z
1/2+y,1/2+x,-z
1/2-y,1/2-x,-z
1/2-x,1/2-y,1/2-z
1/2+y,1/2-x,1/2-z
1/2+x,1/2+y,1/2-z
1/2-y,1/2+x,1/2-z
1/2-x,1/2+y,z
1/2+x,1/2-y,z
1/2-y,1/2-x,z
1/2+y,1/2+x,z
loop_
_atom_site_type_symbol
_atom_site_label
_atom_site_fract_x
_atom_site_fract_y
_atom_site_fract_z
Si Si1 0.114414 0.263135 0.186259
Si Si2 0.175489 0.675489 0.816389
Si Si3 0.045501 0.109125 0.185685
Si Si4 0.110984 0.610984 0.312636
Si Si5 0.671448 0.045022 0.814577
Si Si6 0.890831 0.172555 0.185438
O O1 0.156390 0.283825 0.243533
O O2 0.076820 0.292979 0.233229
O O3 0.109153 0.218867 0.258625
O O4 0.114689 0.261002 0.000000
O O5 0.141704 0.641704 0.771474
O O6 0.179528 0.679528 0.000000
O O7 0.070336 0.070336 0.250000
O O8 0.070559 0.148188 0.246344
O O9 0.000000 0.109448 0.250000
O O10 0.045780 0.108570 0.000000
O O11 0.116145 0.616145 0.500000
O O12 0.066428 0.628134 0.273337
O O13 0.676173 0.000000 0.750000
O O14 0.673237 0.042615 0.000000
O O15 0.851519 0.148482 0.250000
O O16 0.891336 0.169946 0.000000
#
# Coordination Sequence:
#
# PCOD9572040 Si02
#       6
#    32  16  32  16  32  32
#     4  10  20  36  54  75 106 143 175 214 264 315
#     4  10  18  30  51  79 103 131 174 221 262 309
#     4  11  22  39  60  84 111 143 180 221 267 318
#     4   8  16  32  48  66  98 140 171 205 260 317
#     4   9  18  31  50  74 102 132 169 212 259 308
#     4  11  22  38  58  81 108 142 179 217 261 316
#
# _framework density 17.204623999999999
#
# number of rings (size 3 to 8) (size 9 to 14) (size 15 to 20)
#    0.000    2.000    0.000    7.500    0.000    5.000 
#    0.000    3.500    0.000    0.300    0.000    2.100 
#    0.000    0.000    0.000    0.000    0.000    0.000 
#
# Total GULP energy -446267.616914 kJ/mol
# GULP energy per Si atom -5578.345211 kJ/mol
# Density = 1.716547 g / cm^3
# Si number density = 17.204624 Si / 1000 Ang^3
#
#
#
# Elastic Constant Matrix: (Units=GPa)
#
#
# Indices 1 2 3 4 5 6 
#
# 1 85.7464 140.2779 55.7403 0.0000 0.0000 0.0000
# 2 140.2779 85.7234 55.7292 0.0000 0.0000 0.0000
# 3 55.7403 55.7292 121.2169 0.0000 0.0000 0.0000
# 4 0.0000 0.0000 0.0000 30.4694 0.0000 0.0000
# 5 0.0000 0.0000 0.0000 0.0000 30.4697 0.0000
# 6 0.0000 0.0000 0.0000 0.0000 0.0000 6.0605
#
#
#
# Elastic Compliance Matrix: (Units=1/GPa)
#
#
# Indices 1 2 3 4 5 6 
#
# 1 -0.006305 0.012028 -0.002630 0.000000 0.000000 0.000000
# 2 0.012028 -0.006307 -0.002632 0.000000 0.000000 0.000000
# 3 -0.002630 -0.002632 0.010669 0.000000 0.000000 0.000000
# 4 0.000000 0.000000 0.000000 0.032820 0.000000 0.000000
# 5 0.000000 0.000000 0.000000 0.000000 0.032820 0.000000
# 6 0.000000 0.000000 0.000000 0.000000 0.000000 0.165002
#
#
# Mechanical properties :
#
#
# Convention : Reuss Voigt Hill
#
# Bulk Modulus (GPa) = 86.28592 88.46462 87.37527
# Shear Modulus (GPa) = 22.82803 16.12921 19.47862
#
# Velocity S-wave (km/s) = 3.64655 3.06517 3.36843
# Velocity P-wave (km/s) = 8.24569 8.00361 8.12555
#
# Compressibility (1/GPa) = 0.01158938
#
# Stress axis : x y z
#
# Youngs Moduli (GPa) = -158.59577 -158.56214 93.72855
#
# Poissons Ratio (x) = 1.90721 0.24655
# Poissons Ratio (y) = 1.90761 0.24665
# Poissons Ratio (z) = -0.41718 -0.41726
#
# Static dielectric constant tensor:
#      x y z
#    x 1.582510 0.000000 0.000000 
#    y 0.000000 1.582520 0.000000 
#    z 0.000000 0.000000 1.576160 
# 
# From -- ./inp_files/1873.got.cif
#   From: 2010.05.17/outbox.cif.g08.bks.cpg/sg140_1_cif.got.tgz:1873.got - 2010.06.21 00:45:31.
