data_PCOD9572816
_publ_section_title
;
Structure prediction by ZEFSAII (Michael W. Deem and Ramdas Pophale) SiO2 
 PCOD9572816
Probable space group: I 41/A M D
;
_chemical_formula_sum "Si O2"
_cell_formula_units_Z 192
_cell_length_a 19.078118
_cell_length_b 19.078118
_cell_length_c 22.480942
_cell_angle_alpha 90.000000
_cell_angle_beta 90.000000
_cell_angle_gamma 90.000000
_cell_volume 8182.491567
_symmetry_space_group_name_H-M "I 41/A M D"
_symmetry_group_IT_number 141
_space_group.IT_coordinate_system_code '2'
_symmetry_cell_setting 'tetragonal'
loop_
_space_group_symop_operation_xyz
x,y,z
1/4-y,3/4+x,1/4+z
-x,1/2-y,z
1/4+y,1/4-x,3/4+z
x,-y,-z
-x,1/2+y,-z
1/4+y,3/4+x,1/4-z
1/4-y,1/4-x,3/4-z
-x,-y,-z
3/4+y,1/4-x,3/4-z
x,1/2+y,-z
3/4-y,3/4+x,1/4-z
-x,y,z
x,1/2-y,z
3/4-y,1/4-x,3/4+z
3/4+y,3/4+x,1/4+z
1/2+x,1/2+y,1/2+z
3/4-y,1/4+x,3/4+z
1/2-x,-y,1/2+z
3/4+y,3/4-x,1/4+z
1/2+x,1/2-y,1/2-z
1/2-x,y,1/2-z
3/4+y,1/4+x,3/4-z
3/4-y,3/4-x,1/4-z
1/2-x,1/2-y,1/2-z
1/4+y,3/4-x,1/4-z
1/2+x,y,1/2-z
1/4-y,1/4+x,3/4-z
1/2-x,1/2+y,1/2+z
1/2+x,-y,1/2+z
1/4-y,3/4-x,1/4+z
1/4+y,1/4+x,3/4+z
loop_
_atom_site_type_symbol
_atom_site_label
_atom_site_fract_x
_atom_site_fract_y
_atom_site_fract_z
Si Si1 0.224255 0.333632 0.424499
Si Si2 0.602104 0.829910 0.188177
Si Si3 0.419314 0.329969 0.025182
Si Si4 0.421005 0.518299 0.412466
Si Si5 0.422422 0.070603 0.920520
Si Si6 0.121756 0.933487 0.216783
O O1 0.244497 0.250000 0.430139
O O2 0.141480 0.332959 0.427235
O O3 0.255951 0.363122 0.363000
O O4 0.259351 0.373779 0.480274
O O5 0.580691 0.750000 0.188471
O O6 0.686611 0.832946 0.178642
O O7 0.574042 0.871907 0.131767
O O8 0.583093 0.870020 0.248666
O O9 0.500000 0.341644 0.043693
O O10 0.417176 0.250000 0.999768
O O11 0.396587 0.387579 0.976967
O O12 0.500000 0.542847 0.430464
O O13 0.412907 0.532800 0.341719
O O14 0.356782 0.558881 0.443512
O O15 0.500000 0.046090 0.937487
#
# Coordination Sequence:
#
# PCOD9572816 Si02
#       6
#    32  32  32  32  32  32
#     4   9  17  29  43  62  91 123 159 209 262 302
#     4  10  19  31  47  64  88 126 169 216 270 319
#     4   9  16  27  45  68  95 132 177 216 249 299
#     4  10  20  33  46  61  86 122 167 219 270 316
#     4   9  17  27  41  64  91 120 161 210 255 299
#     4  10  19  29  45  64  83 116 166 214 261 313
#
# _framework density 23.464735999999998
#
# number of rings (size 3 to 8) (size 9 to 14) (size 15 to 20)
#    0.000    2.500    0.000    3.000    0.000    5.667 
#    0.000    0.000    0.000   20.500    0.000    0.000 
#    0.000   10.667    0.000   19.500    0.000  152.000 
#
# Total GULP energy -535657.056072 kJ/mol
# GULP energy per Si atom -5579.761001 kJ/mol
# Density = 2.341133 g / cm^3
# Si number density = 23.464736 Si / 1000 Ang^3
#
#
#
# Elastic Constant Matrix: (Units=GPa)
#
#
# Indices 1 2 3 4 5 6 
#
# 1 110.0342 43.0962 42.9899 0.0000 0.0000 0.0000
# 2 43.0962 110.0342 42.9899 0.0000 0.0000 0.0000
# 3 42.9899 42.9899 85.8512 0.0000 0.0000 0.0000
# 4 0.0000 0.0000 0.0000 10.4476 0.0000 0.0000
# 5 0.0000 0.0000 0.0000 0.0000 10.4476 0.0000
# 6 0.0000 0.0000 0.0000 0.0000 0.0000 27.1386
#
#
#
# Elastic Compliance Matrix: (Units=1/GPa)
#
#
# Indices 1 2 3 4 5 6 
#
# 1 0.012012 -0.002927 -0.004549 0.000000 0.000000 0.000000
# 2 -0.002927 0.012012 -0.004549 0.000000 0.000000 0.000000
# 3 -0.004549 -0.004549 0.016204 0.000000 0.000000 0.000000
# 4 0.000000 0.000000 0.000000 0.095715 0.000000 0.000000
# 5 0.000000 0.000000 0.000000 0.000000 0.095715 0.000000
# 6 0.000000 0.000000 0.000000 0.000000 0.000000 0.036848
#
#
# Mechanical properties :
#
#
# Convention : Reuss Voigt Hill
#
# Bulk Modulus (GPa) = 61.81704 62.67465 62.24585
# Shear Modulus (GPa) = 16.78135 21.39634 19.08884
#
# Velocity S-wave (km/s) = 2.67717 3.02296 2.85531
# Velocity P-wave (km/s) = 5.99651 6.24120 6.12008
#
# Compressibility (1/GPa) = 0.01617677
#
# Stress axis : x y z
#
# Youngs Moduli (GPa) = 83.25067 83.25067 61.71314
#
# Poissons Ratio (x) = 0.24370 0.28074
# Poissons Ratio (y) = 0.24370 0.28074
# Poissons Ratio (z) = 0.37872 0.37872
#
# Static dielectric constant tensor:
#      x y z
#    x 1.902410 0.000000 0.000000 
#    y 0.000000 1.902410 0.000000 
#    z 0.000000 0.000000 1.903450 
# 
# From -- ./inp_files/11679.got.cif
#   From: 2010.05.17/outbox.cif.g08.bks.cpg/sg141_6_cif.got.tgz:11679.got - 2010.05.20 13:30:51.
