data_PCOD9572387
_publ_section_title
;
Structure prediction by ZEFSAII (Michael W. Deem and Ramdas Pophale) SiO2 
 PCOD9572387
Probable space group: I 4/M C M
;
_chemical_formula_sum "Si O2"
_cell_formula_units_Z 176
_cell_length_a 18.683064
_cell_length_b 18.683064
_cell_length_c 27.631990
_cell_angle_alpha 90.000000
_cell_angle_beta 90.000000
_cell_angle_gamma 90.000000
_cell_volume 9645.136229
_symmetry_space_group_name_H-M "I 4/M C M"
_symmetry_group_IT_number 140
_symmetry_cell_setting 'tetragonal'
loop_
_space_group_symop_operation_xyz
x,y,z
-y,x,z
-x,-y,z
y,-x,z
x,-y,1/2-z
-x,y,1/2-z
y,x,1/2-z
-y,-x,1/2-z
-x,-y,-z
y,-x,-z
x,y,-z
-y,x,-z
-x,y,1/2+z
x,-y,1/2+z
-y,-x,1/2+z
y,x,1/2+z
1/2+x,1/2+y,1/2+z
1/2-y,1/2+x,1/2+z
1/2-x,1/2-y,1/2+z
1/2+y,1/2-x,1/2+z
1/2+x,1/2-y,-z
1/2-x,1/2+y,-z
1/2+y,1/2+x,-z
1/2-y,1/2-x,-z
1/2-x,1/2-y,1/2-z
1/2+y,1/2-x,1/2-z
1/2+x,1/2+y,1/2-z
1/2-y,1/2+x,1/2-z
1/2-x,1/2+y,z
1/2+x,1/2-y,z
1/2-y,1/2-x,z
1/2+y,1/2+x,z
loop_
_atom_site_type_symbol
_atom_site_label
_atom_site_fract_x
_atom_site_fract_y
_atom_site_fract_z
Si Si1 0.101138 0.772131 0.878566
Si Si2 0.534812 0.850580 0.057134
Si Si3 0.769385 0.730616 0.886537
Si Si4 0.796459 0.083465 0.735982
Si Si5 0.195621 0.695621 0.277205
Si Si6 0.964389 0.885488 0.446573
Si Si7 0.128502 0.628502 0.557615
O O1 0.076390 0.700142 0.905545
O O2 0.184796 0.782699 0.889955
O O3 0.090608 0.779041 0.821112
O O4 0.054689 0.832811 0.904246
O O5 0.571721 0.928280 0.059061
O O6 0.452219 0.852363 0.072276
O O7 0.540308 0.827853 0.000000
O O8 0.794483 0.705518 0.833814
O O9 0.814608 0.685393 0.924156
O O10 0.865105 0.134896 0.750000
O O11 0.726606 0.118400 0.762103
O O12 0.807701 0.000000 0.750000
O O13 0.250000 0.750000 0.250000
O O14 0.953981 0.852552 0.500000
O O15 0.044938 0.914157 0.443733
O O16 0.127977 0.627977 0.500000
#
# Coordination Sequence:
#
# PCOD9572387 Si02
#       7
#    32  32  16  32  16  32  16
#     4  12  23  38  64  91 123 161 203 253 305 366
#     4  10  22  41  63  91 125 162 202 252 315 371
#     4  12  24  41  64  91 121 159 205 255 303 363
#     4  11  25  42  65  93 125 165 205 257 315 373
#     4  10  20  46  63  84 119 163 204 250 307 369
#     4   9  21  39  57  81 119 164 203 244 301 364
#     4  10  25  42  64  92 123 161 208 258 307 371
#
# _framework density 18.247539
#
# number of rings (size 3 to 8) (size 9 to 14) (size 15 to 20)
#    0.000    1.455    4.545    1.364    7.636    2.727 
#    0.000    0.000    0.000    0.273    0.000    0.000 
#    0.000    0.000    0.000    0.000    0.000    0.000 
#
# Total GULP energy -490915.945929 kJ/mol
# GULP energy per Si atom -5578.590295 kJ/mol
# Density = 1.820601 g / cm^3
# Si number density = 18.247539 Si / 1000 Ang^3
#
#
#
# Elastic Constant Matrix: (Units=GPa)
#
#
# Indices 1 2 3 4 5 6 
#
# 1 64.0271 66.7730 14.3934 0.0000 0.0000 0.0000
# 2 66.7730 64.0272 14.3953 0.0000 0.0000 0.0000
# 3 14.3934 14.3953 35.2783 0.0000 0.0000 0.0000
# 4 0.0000 0.0000 0.0000 -13.5796 0.0000 0.0000
# 5 0.0000 0.0000 0.0000 0.0000 -13.5767 0.0000
# 6 0.0000 0.0000 0.0000 0.0000 0.0000 11.2241
#
#
#
# Elastic Compliance Matrix: (Units=1/GPa)
#
#
# Indices 1 2 3 4 5 6 
#
# 1 -0.177892 0.186294 -0.003438 0.000000 0.000000 0.000000
# 2 0.186294 -0.177896 -0.003416 0.000000 0.000000 0.000000
# 3 -0.003438 -0.003416 0.031143 0.000000 0.000000 0.000000
# 4 0.000000 0.000000 0.000000 -0.073640 0.000000 0.000000
# 5 0.000000 0.000000 0.000000 0.000000 -0.073655 0.000000
# 6 0.000000 0.000000 0.000000 0.000000 0.000000 0.089094
#
#
# Mechanical properties :
#
#
# Convention : Reuss Voigt Hill
#
# Bulk Modulus (GPa) = 29.21153 39.38401 34.29777
# Shear Modulus (GPa) = -6.84637 1.33163 -2.75737
#
# Velocity S-wave (km/s) = -1.93909 0.85518 -1.23060
# Velocity P-wave (km/s) = 3.32111 4.75449 4.10091
#
# Compressibility (1/GPa) = 0.03423306
#
# Stress axis : x y z
#
# Youngs Moduli (GPa) = -5.62140 -5.62125 32.11020
#
# Poissons Ratio (x) = 1.04720 0.11040
# Poissons Ratio (y) = 1.04723 0.10970
# Poissons Ratio (z) = -0.01933 -0.01920
#
# Static dielectric constant tensor:
#      x y z
#    x 1.631010 0.000000 0.000000 
#    y 0.000000 1.631010 0.000000 
#    z 0.000000 0.000000 1.589770 
# 
# From -- ./inp_files/10758.got.cif
#   From: 2010.05.17/outbox.cif.g08.bks.cpg/sg140_6_cif.got.tgz:10758.got - 2010.06.21 00:45:31.
