data_PCOD9572730
_publ_section_title
;
Structure prediction by ZEFSAII (Michael W. Deem and Ramdas Pophale) SiO2 
 PCOD9572730
Probable space group: I 41/A M D
;
_chemical_formula_sum "Si O2"
_cell_formula_units_Z 84
_cell_length_a 21.536473
_cell_length_b 21.536473
_cell_length_c 8.279152
_cell_angle_alpha 90.000000
_cell_angle_beta 90.000000
_cell_angle_gamma 90.000000
_cell_volume 3840.033543
_symmetry_space_group_name_H-M "I 41/A M D"
_symmetry_group_IT_number 141
_space_group.IT_coordinate_system_code '2'
_symmetry_cell_setting 'tetragonal'
loop_
_space_group_symop_operation_xyz
x,y,z
1/4-y,3/4+x,1/4+z
-x,1/2-y,z
1/4+y,1/4-x,3/4+z
x,-y,-z
-x,1/2+y,-z
1/4+y,3/4+x,1/4-z
1/4-y,1/4-x,3/4-z
-x,-y,-z
3/4+y,1/4-x,3/4-z
x,1/2+y,-z
3/4-y,3/4+x,1/4-z
-x,y,z
x,1/2-y,z
3/4-y,1/4-x,3/4+z
3/4+y,3/4+x,1/4+z
1/2+x,1/2+y,1/2+z
3/4-y,1/4+x,3/4+z
1/2-x,-y,1/2+z
3/4+y,3/4-x,1/4+z
1/2+x,1/2-y,1/2-z
1/2-x,y,1/2-z
3/4+y,1/4+x,3/4-z
3/4-y,3/4-x,1/4-z
1/2-x,1/2-y,1/2-z
1/4+y,3/4-x,1/4-z
1/2+x,y,1/2-z
1/4-y,1/4+x,3/4-z
1/2-x,1/2+y,1/2+z
1/2+x,-y,1/2+z
1/4-y,3/4-x,1/4+z
1/4+y,1/4+x,3/4+z
loop_
_atom_site_type_symbol
_atom_site_label
_atom_site_fract_x
_atom_site_fract_y
_atom_site_fract_z
Si Si1 0.500000 0.321664 0.823255
Si Si2 0.393128 0.407676 0.872483
Si Si3 0.000000 0.750000 0.625000
Si Si4 0.925621 0.459234 0.269927
O O1 0.500000 0.250000 0.775643
O O2 0.440685 0.361556 0.786250
O O3 0.500000 0.310879 0.017489
O O4 0.395085 0.472537 0.778614
O O5 0.332120 0.366839 0.902576
O O6 0.417911 0.428729 0.051007
O O7 0.000000 0.461676 0.233514
#
# Coordination Sequence:
#
# PCOD9572730 Si02
#       4
#    16  32   4  32
#     4  10  16  21  33  52  74 105 138 166 199 239
#     4  10  17  25  35  51  76 112 146 173 205 250
#     4   8  16  16  28  48  64  96 128 160 184 226
#     4  10  17  26  36  52  78 113 146 172 208 253
#
# _framework density 21.874807000000001
#
# number of rings (size 3 to 8) (size 9 to 14) (size 15 to 20)
#    0.571    1.524    3.810    4.571    0.000    0.000 
#    0.000    0.000    0.000    0.000    0.000    0.000 
#    0.000    0.000   12.952  104.762    0.000    0.381 
#
# Total GULP energy -234176.138710 kJ/mol
# GULP energy per Si atom -5575.622350 kJ/mol
# Density = 2.182502 g / cm^3
# Si number density = 21.874807 Si / 1000 Ang^3
#
#
#
# Elastic Constant Matrix: (Units=GPa)
#
#
# Indices 1 2 3 4 5 6 
#
# 1 217.0110 113.0729 36.2029 0.0000 0.0000 0.0000
# 2 113.0729 217.0110 36.2029 0.0000 0.0000 0.0000
# 3 36.2029 36.2029 33.3002 0.0000 0.0000 0.0000
# 4 0.0000 0.0000 0.0000 -34.9851 0.0000 0.0000
# 5 0.0000 0.0000 0.0000 0.0000 -34.9851 0.0000
# 6 0.0000 0.0000 0.0000 0.0000 0.0000 17.1441
#
#
#
# Elastic Compliance Matrix: (Units=1/GPa)
#
#
# Indices 1 2 3 4 5 6 
#
# 1 0.006800 -0.002821 -0.004325 0.000000 0.000000 0.000000
# 2 -0.002821 0.006800 -0.004325 0.000000 0.000000 0.000000
# 3 -0.004325 -0.004325 0.039434 0.000000 0.000000 0.000000
# 4 0.000000 0.000000 0.000000 -0.028584 0.000000 0.000000
# 5 0.000000 0.000000 0.000000 0.000000 -0.028584 0.000000
# 6 0.000000 0.000000 0.000000 0.000000 0.000000 0.058329
#
#
# Mechanical properties :
#
#
# Convention : Reuss Voigt Hill
#
# Bulk Modulus (GPa) = 33.23333 93.14217 63.18775
# Shear Modulus (GPa) = 57.36053 8.22438 32.79245
#
# Velocity S-wave (km/s) = 5.12632 1.94111 3.87602
# Velocity P-wave (km/s) = 7.08973 6.90623 6.99858
#
# Compressibility (1/GPa) = 0.03009027
#
# Stress axis : x y z
#
# Youngs Moduli (GPa) = 147.06580 147.06580 25.35894
#
# Poissons Ratio (x) = 0.41494 0.10968
# Poissons Ratio (y) = 0.41494 0.10968
# Poissons Ratio (z) = 0.63606 0.63606
#
# Static dielectric constant tensor:
#      x y z
#    x 1.825320 0.000000 0.000000 
#    y 0.000000 1.825320 0.000000 
#    z 0.000000 0.000000 1.869200 
# 
# From -- ./inp_files/4104.got.cif
#   From: 2010.05.17/outbox.cif.g08.bks.cpg/sg141_3_cif.got.tgz:4104.got - 2010.05.20 13:30:51.
