data_PCOD9572093
_publ_section_title
;
Structure prediction by ZEFSAII (Michael W. Deem and Ramdas Pophale) SiO2 
 PCOD9572093
Probable space group: I 4/M C M
;
_chemical_formula_sum "Si O2"
_cell_formula_units_Z 128
_cell_length_a 30.779135
_cell_length_b 30.779135
_cell_length_c 7.806234
_cell_angle_alpha 90.000000
_cell_angle_beta 90.000000
_cell_angle_gamma 90.000000
_cell_volume 7395.275993
_symmetry_space_group_name_H-M "I 4/M C M"
_symmetry_group_IT_number 140
_symmetry_cell_setting 'tetragonal'
loop_
_space_group_symop_operation_xyz
x,y,z
-y,x,z
-x,-y,z
y,-x,z
x,-y,1/2-z
-x,y,1/2-z
y,x,1/2-z
-y,-x,1/2-z
-x,-y,-z
y,-x,-z
x,y,-z
-y,x,-z
-x,y,1/2+z
x,-y,1/2+z
-y,-x,1/2+z
y,x,1/2+z
1/2+x,1/2+y,1/2+z
1/2-y,1/2+x,1/2+z
1/2-x,1/2-y,1/2+z
1/2+y,1/2-x,1/2+z
1/2+x,1/2-y,-z
1/2-x,1/2+y,-z
1/2+y,1/2+x,-z
1/2-y,1/2-x,-z
1/2-x,1/2-y,1/2-z
1/2+y,1/2-x,1/2-z
1/2+x,1/2+y,1/2-z
1/2-y,1/2+x,1/2-z
1/2-x,1/2+y,z
1/2+x,1/2-y,z
1/2-y,1/2-x,z
1/2+y,1/2+x,z
loop_
_atom_site_type_symbol
_atom_site_label
_atom_site_fract_x
_atom_site_fract_y
_atom_site_fract_z
Si Si1 0.635123 0.864878 0.293560
Si Si2 0.454577 0.824193 0.796913
Si Si3 0.204264 0.295737 0.304188
Si Si4 0.774400 0.048813 0.693479
Si Si5 0.284877 0.353531 0.293081
O O1 0.640804 0.859197 0.500000
O O2 0.586456 0.852501 0.249476
O O3 0.667562 0.832439 0.200875
O O4 0.500000 0.845588 0.750000
O O5 0.452632 0.777928 0.703526
O O6 0.453185 0.815163 0.000000
O O7 0.216161 0.283839 0.500000
O O8 0.246308 0.320906 0.227495
O O9 0.790089 0.052074 0.500000
O O10 0.784357 0.096546 0.774308
O O11 0.788531 0.000000 0.750000
O O12 0.329521 0.329521 0.250000
O O13 0.278640 0.355766 0.500000
#
# Coordination Sequence:
#
# PCOD9572093 Si02
#       5
#    16  32  16  32  32
#     4  10  20  31  47  69  92 118 154 196 237 286
#     4  10  19  31  47  68  90 116 151 194 241 287
#     4  10  19  33  47  66  97 131 163 198 232 273
#     4  10  19  32  49  70  94 123 158 197 237 277
#     4  10  21  33  48  69  97 132 166 197 234 277
#
# _framework density 17.308346
#
# number of rings (size 3 to 8) (size 9 to 14) (size 15 to 20)
#    0.000    2.000    2.500    3.375    0.000    4.000 
#    0.000    0.000    0.000    0.375    0.000    2.625 
#    0.000    0.500    0.000    5.500    0.000    4.000 
#
# Total GULP energy -356326.763558 kJ/mol
# GULP energy per Si atom -5567.605681 kJ/mol
# Density = 1.726895 g / cm^3
# Si number density = 17.308346 Si / 1000 Ang^3
#
#
#
# Elastic Constant Matrix: (Units=GPa)
#
#
# Indices 1 2 3 4 5 6 
#
# 1 71.4169 92.1679 3.7589 0.0000 0.0000 0.0000
# 2 92.1679 71.4140 3.7615 0.0000 0.0000 0.0000
# 3 3.7589 3.7615 17.6858 0.0000 0.0000 0.0000
# 4 0.0000 0.0000 0.0000 11.8717 0.0000 0.0000
# 5 0.0000 0.0000 0.0000 0.0000 11.8715 0.0000
# 6 0.0000 0.0000 0.0000 0.0000 0.0000 21.2691
#
#
#
# Elastic Compliance Matrix: (Units=1/GPa)
#
#
# Indices 1 2 3 4 5 6 
#
# 1 -0.021006 0.027180 -0.001316 0.000000 0.000000 0.000000
# 2 0.027180 -0.021007 -0.001309 0.000000 0.000000 0.000000
# 3 -0.001316 -0.001309 0.057101 0.000000 0.000000 0.000000
# 4 0.000000 0.000000 0.000000 0.084234 0.000000 0.000000
# 5 0.000000 0.000000 0.000000 0.000000 0.084235 0.000000
# 6 0.000000 0.000000 0.000000 0.000000 0.000000 0.047017
#
#
# Mechanical properties :
#
#
# Convention : Reuss Voigt Hill
#
# Bulk Modulus (GPa) = 15.57697 39.98816 27.78256
# Shear Modulus (GPa) = 24.64739 13.05770 18.85254
#
# Velocity S-wave (km/s) = 3.77771 2.74964 3.30391
# Velocity P-wave (km/s) = 5.29597 5.76492 5.53541
#
# Compressibility (1/GPa) = 0.06419735
#
# Stress axis : x y z
#
# Youngs Moduli (GPa) = -47.60498 -47.60231 17.51294
#
# Poissons Ratio (x) = 1.29384 0.02305
# Poissons Ratio (y) = 1.29391 0.02292
# Poissons Ratio (z) = -0.06266 -0.06231
#
# Static dielectric constant tensor:
#      x y z
#    x 1.597000 0.000000 0.000000 
#    y 0.000000 1.597000 0.000000 
#    z 0.000000 0.000000 1.669550 
# 
# From -- ./inp_files/1491.got.cif
#   From: 2010.05.17/outbox.cif.g08.bks.cpg/sg140_1_cif.got.tgz:1491.got - 2010.06.21 00:45:31.
