data_PCOD9572955
_publ_section_title
;
Structure prediction by ZEFSAII (Michael W. Deem and Ramdas Pophale) SiO2 
 PCOD9572955
Probable space group: I 41/A M D
;
_chemical_formula_sum "Si O2"
_cell_formula_units_Z 176
_cell_length_a 27.019557
_cell_length_b 27.019557
_cell_length_c 11.156564
_cell_angle_alpha 90.000000
_cell_angle_beta 90.000000
_cell_angle_gamma 90.000000
_cell_volume 8144.921625
_symmetry_space_group_name_H-M "I 41/A M D"
_symmetry_group_IT_number 141
_space_group.IT_coordinate_system_code '2'
_symmetry_cell_setting 'tetragonal'
loop_
_space_group_symop_operation_xyz
x,y,z
1/4-y,3/4+x,1/4+z
-x,1/2-y,z
1/4+y,1/4-x,3/4+z
x,-y,-z
-x,1/2+y,-z
1/4+y,3/4+x,1/4-z
1/4-y,1/4-x,3/4-z
-x,-y,-z
3/4+y,1/4-x,3/4-z
x,1/2+y,-z
3/4-y,3/4+x,1/4-z
-x,y,z
x,1/2-y,z
3/4-y,1/4-x,3/4+z
3/4+y,3/4+x,1/4+z
1/2+x,1/2+y,1/2+z
3/4-y,1/4+x,3/4+z
1/2-x,-y,1/2+z
3/4+y,3/4-x,1/4+z
1/2+x,1/2-y,1/2-z
1/2-x,y,1/2-z
3/4+y,1/4+x,3/4-z
3/4-y,3/4-x,1/4-z
1/2-x,1/2-y,1/2-z
1/4+y,3/4-x,1/4-z
1/2+x,y,1/2-z
1/4-y,1/4+x,3/4-z
1/2-x,1/2+y,1/2+z
1/2+x,-y,1/2+z
1/4-y,3/4-x,1/4+z
1/4+y,1/4+x,3/4+z
loop_
_atom_site_type_symbol
_atom_site_label
_atom_site_fract_x
_atom_site_fract_y
_atom_site_fract_z
Si Si1 0.612913 0.807399 0.622079
Si Si2 0.713828 0.881370 0.364066
Si Si3 0.441909 0.191909 0.125000
Si Si4 0.145435 0.191878 0.737887
Si Si5 0.691215 0.858678 0.010403
Si Si6 0.890069 0.941926 0.493767
O O1 0.607036 0.750000 0.594140
O O2 0.587013 0.818570 0.751773
O O3 0.586138 0.843313 0.528606
O O4 0.669721 0.822515 0.646099
O O5 0.750000 0.888028 0.250000
O O6 0.678409 0.928409 0.375000
O O7 0.678920 0.834478 0.337704
O O8 0.751452 0.872187 0.471955
O O9 0.500000 0.184064 0.151362
O O10 0.139890 0.250000 0.754982
O O11 0.174242 0.179058 0.613281
O O12 0.680677 0.839709 0.877610
O O13 0.659289 0.909106 0.025450
O O14 0.880529 0.000000 0.500000
#
# Coordination Sequence:
#
# PCOD9572955 Si02
#       6
#    32  32  16  32  32  32
#     4  10  20  34  55  86 122 161 202 248 304 367
#     4  10  23  40  63  90 121 154 206 259 307 369
#     4   9  16  28  52  84 112 144 190 242 298 360
#     4  10  21  40  63  87 118 160 207 257 305 355
#     4   9  21  37  58  88 118 161 193 253 299 364
#     4  10  21  36  57  85 127 157 196 240 304 370
#
# _framework density 21.608556
#
# number of rings (size 3 to 8) (size 9 to 14) (size 15 to 20)
#    0.000    2.273    0.000    2.727    7.636    7.636 
#    0.000    0.909    0.000    0.000    0.000    0.000 
#    0.000    0.000    0.000    0.000    0.000    0.000 
#
# Total GULP energy -491758.192430 kJ/mol
# GULP energy per Si atom -5588.161278 kJ/mol
# Density = 2.155937 g / cm^3
# Si number density = 21.608556 Si / 1000 Ang^3
#
#
#
# Elastic Constant Matrix: (Units=GPa)
#
#
# Indices 1 2 3 4 5 6 
#
# 1 129.3897 46.4885 25.6299 0.0000 0.0000 0.0000
# 2 46.4885 129.3897 25.6299 0.0000 0.0000 0.0000
# 3 25.6299 25.6299 59.9025 0.0000 0.0000 0.0000
# 4 0.0000 0.0000 0.0000 20.6573 0.0000 0.0000
# 5 0.0000 0.0000 0.0000 0.0000 20.6573 0.0000
# 6 0.0000 0.0000 0.0000 0.0000 0.0000 15.7935
#
#
#
# Elastic Compliance Matrix: (Units=1/GPa)
#
#
# Indices 1 2 3 4 5 6 
#
# 1 0.009279 -0.002783 -0.002779 0.000000 0.000000 0.000000
# 2 -0.002783 0.009279 -0.002779 0.000000 0.000000 0.000000
# 3 -0.002779 -0.002779 0.019072 0.000000 0.000000 0.000000
# 4 0.000000 0.000000 0.000000 0.048409 0.000000 0.000000
# 5 0.000000 0.000000 0.000000 0.000000 0.048409 0.000000
# 6 0.000000 0.000000 0.000000 0.000000 0.000000 0.063317
#
#
# Mechanical properties :
#
#
# Convention : Reuss Voigt Hill
#
# Bulk Modulus (GPa) = 47.74071 57.13097 52.43584
# Shear Modulus (GPa) = 22.58032 26.15052 24.36542
#
# Velocity S-wave (km/s) = 3.23611 3.48256 3.36159
# Velocity P-wave (km/s) = 6.00871 6.53203 6.27583
#
# Compressibility (1/GPa) = 0.02094649
#
# Stress axis : x y z
#
# Youngs Moduli (GPa) = 107.76830 107.76830 52.43269
#
# Poissons Ratio (x) = 0.29996 0.14573
# Poissons Ratio (y) = 0.29996 0.14573
# Poissons Ratio (z) = 0.29952 0.29952
#
# Static dielectric constant tensor:
#      x y z
#    x 1.769180 0.000000 0.000000 
#    y 0.000000 1.769180 0.000000 
#    z 0.000000 0.000000 1.844400 
# 
# From -- ./inp_files/5065.got.cif
#   From: 2010.05.17/outbox.cif.g08.bks.cpg/sg141_3_cif.got.tgz:5065.got - 2010.05.20 13:30:51.
