data_PCOD9572479
_publ_section_title
;
Structure prediction by ZEFSAII (Michael W. Deem and Ramdas Pophale) SiO2 
 PCOD9572479
Probable space group: I 4/M C M
;
_chemical_formula_sum "Si O2"
_cell_formula_units_Z 96
_cell_length_a 13.962555
_cell_length_b 13.962555
_cell_length_c 20.869717
_cell_angle_alpha 90.000000
_cell_angle_beta 90.000000
_cell_angle_gamma 90.000000
_cell_volume 4068.612731
_symmetry_space_group_name_H-M "I 4/M C M"
_symmetry_group_IT_number 140
_symmetry_cell_setting 'tetragonal'
loop_
_space_group_symop_operation_xyz
x,y,z
-y,x,z
-x,-y,z
y,-x,z
x,-y,1/2-z
-x,y,1/2-z
y,x,1/2-z
-y,-x,1/2-z
-x,-y,-z
y,-x,-z
x,y,-z
-y,x,-z
-x,y,1/2+z
x,-y,1/2+z
-y,-x,1/2+z
y,x,1/2+z
1/2+x,1/2+y,1/2+z
1/2-y,1/2+x,1/2+z
1/2-x,1/2-y,1/2+z
1/2+y,1/2-x,1/2+z
1/2+x,1/2-y,-z
1/2-x,1/2+y,-z
1/2+y,1/2+x,-z
1/2-y,1/2-x,-z
1/2-x,1/2-y,1/2-z
1/2+y,1/2-x,1/2-z
1/2+x,1/2+y,1/2-z
1/2-y,1/2+x,1/2-z
1/2-x,1/2+y,z
1/2+x,1/2-y,z
1/2-y,1/2-x,z
1/2+y,1/2+x,z
loop_
_atom_site_type_symbol
_atom_site_label
_atom_site_fract_x
_atom_site_fract_y
_atom_site_fract_z
Si Si1 0.364598 0.864598 0.924588
Si Si2 0.432854 0.227185 0.879301
Si Si3 0.810335 0.689666 0.799623
Si Si4 0.768207 0.000000 0.250000
Si Si5 0.643944 0.573472 0.500000
O O1 0.473585 0.832412 0.905994
O O2 0.300840 0.800840 0.875618
O O3 0.350107 0.850107 0.000000
O O4 0.352992 0.147009 0.862606
O O5 0.450253 0.300285 0.817545
O O6 0.402934 0.294820 0.937550
O O7 0.750000 0.750000 0.750000
O O8 0.918141 0.708513 0.782120
O O9 0.541029 0.624136 0.500000
#
# Coordination Sequence:
#
# PCOD9572479 Si02
#       5
#    16  32  16  16  16
#     4  10  21  38  66 104 140 169 221 290 357 413
#     4  11  22  43  70 103 136 177 227 289 352 423
#     4  10  22  40  66  94 135 177 226 278 337 427
#     4  10  22  41  66 101 130 174 218 279 352 411
#     4  11  27  49  68  93 140 193 238 287 351 428
#
# _framework density 23.595267
#
# number of rings (size 3 to 8) (size 9 to 14) (size 15 to 20)
#    0.000    1.500    3.333    1.000    0.000    6.333 
#    6.000    0.000    0.000    2.500    0.000    0.000 
#    0.000    0.000    0.000    0.000    0.000    0.000 
#
# Total GULP energy -267202.464118 kJ/mol
# GULP energy per Si atom -5566.718002 kJ/mol
# Density = 2.354156 g / cm^3
# Si number density = 23.595267 Si / 1000 Ang^3
#
#
#
# Elastic Constant Matrix: (Units=GPa)
#
#
# Indices 1 2 3 4 5 6 
#
# 1 79.1787 10.6147 31.0649 0.0000 0.0000 0.0000
# 2 10.6147 79.1787 31.0649 0.0000 0.0000 0.0000
# 3 31.0649 31.0649 265.2703 0.0000 0.0000 0.0000
# 4 0.0000 0.0000 0.0000 30.8958 0.0000 0.0000
# 5 0.0000 0.0000 0.0000 0.0000 30.8958 0.0000
# 6 0.0000 0.0000 0.0000 0.0000 0.0000 -12.7324
#
#
#
# Elastic Compliance Matrix: (Units=1/GPa)
#
#
# Indices 1 2 3 4 5 6 
#
# 1 0.013352 -0.001233 -0.001419 0.000000 0.000000 0.000000
# 2 -0.001233 0.013352 -0.001419 0.000000 0.000000 0.000000
# 3 -0.001419 -0.001419 0.004102 0.000000 0.000000 0.000000
# 4 0.000000 0.000000 0.000000 0.032367 0.000000 0.000000
# 5 0.000000 0.000000 0.000000 0.000000 0.032367 0.000000
# 6 0.000000 0.000000 0.000000 0.000000 0.000000 -0.078540
#
#
# Mechanical properties :
#
#
# Convention : Reuss Voigt Hill
#
# Bulk Modulus (GPa) = 44.12537 63.23520 53.68029
# Shear Modulus (GPa) = 152.92088 33.20405 93.06246
#
# Velocity S-wave (km/s) = 8.05920 3.75538 6.28703
# Velocity P-wave (km/s) = 10.26365 6.75736 8.68920
#
# Compressibility (1/GPa) = 0.02266270
#
# Stress axis : x y z
#
# Youngs Moduli (GPa) = 74.89638 74.89638 243.77588
#
# Poissons Ratio (x) = 0.09236 0.34596
# Poissons Ratio (y) = 0.09236 0.34596
# Poissons Ratio (z) = 0.10629 0.10629
#
# Static dielectric constant tensor:
#      x y z
#    x 1.897960 0.000000 0.000000 
#    y 0.000000 1.897960 0.000000 
#    z 0.000000 0.000000 1.942080 
# 
# From -- ./inp_files/7747.got.cif
#   From: 2010.05.17/outbox.cif.g08.bks.cpg/sg140_4_cif.got.tgz:7747.got - 2010.06.21 00:45:31.
