data_PCOD9572392
_publ_section_title
;
Structure prediction by ZEFSAII (Michael W. Deem and Ramdas Pophale) SiO2 
 PCOD9572392
Probable space group: I 4/M C M
;
_chemical_formula_sum "Si O2"
_cell_formula_units_Z 192
_cell_length_a 20.930482
_cell_length_b 20.930482
_cell_length_c 26.277415
_cell_angle_alpha 90.000000
_cell_angle_beta 90.000000
_cell_angle_gamma 90.000000
_cell_volume 11511.743367
_symmetry_space_group_name_H-M "I 4/M C M"
_symmetry_group_IT_number 140
_symmetry_cell_setting 'tetragonal'
loop_
_space_group_symop_operation_xyz
x,y,z
-y,x,z
-x,-y,z
y,-x,z
x,-y,1/2-z
-x,y,1/2-z
y,x,1/2-z
-y,-x,1/2-z
-x,-y,-z
y,-x,-z
x,y,-z
-y,x,-z
-x,y,1/2+z
x,-y,1/2+z
-y,-x,1/2+z
y,x,1/2+z
1/2+x,1/2+y,1/2+z
1/2-y,1/2+x,1/2+z
1/2-x,1/2-y,1/2+z
1/2+y,1/2-x,1/2+z
1/2+x,1/2-y,-z
1/2-x,1/2+y,-z
1/2+y,1/2+x,-z
1/2-y,1/2-x,-z
1/2-x,1/2-y,1/2-z
1/2+y,1/2-x,1/2-z
1/2+x,1/2+y,1/2-z
1/2-y,1/2+x,1/2-z
1/2-x,1/2+y,z
1/2+x,1/2-y,z
1/2-y,1/2-x,z
1/2+y,1/2+x,z
loop_
_atom_site_type_symbol
_atom_site_label
_atom_site_fract_x
_atom_site_fract_y
_atom_site_fract_z
Si Si1 0.688181 0.083603 0.386929
Si Si2 0.995575 0.898504 0.688202
Si Si3 0.991302 0.754404 0.810349
Si Si4 0.039083 0.360828 0.060331
Si Si5 0.128456 0.734067 0.377352
Si Si6 0.785387 0.175552 0.440939
O O1 0.641199 0.141199 0.372772
O O2 0.748548 0.115308 0.416148
O O3 0.709274 0.041011 0.339175
O O4 0.650879 0.032842 0.422027
O O5 0.059162 0.935631 0.671551
O O6 0.000000 0.898899 0.750000
O O7 0.991755 0.826120 0.672513
O O8 0.918644 0.744876 0.829702
O O9 0.000000 0.748501 0.750000
O O10 0.072835 0.427166 0.077226
O O11 0.083703 0.304775 0.083108
O O12 0.041727 0.358227 0.000000
O O13 0.187259 0.687259 0.363710
O O14 0.158266 0.796117 0.405255
O O15 0.804420 0.163795 0.500000
O O16 0.732370 0.232370 0.442492
#
# Coordination Sequence:
#
# PCOD9572392 Si02
#       6
#    32  32  32  32  32  32
#     4  10  21  34  48  73 105 134 171 212 256 312
#     4   8  15  29  49  71  92 117 156 206 252 290
#     4  10  21  34  51  73 100 137 176 216 255 293
#     4   9  17  31  52  75  99 128 165 212 260 304
#     4   9  18  32  50  74 102 134 174 210 248 307
#     4   9  17  31  52  76 104 135 165 207 263 318
#
# _framework density 16.678619999999999
#
# number of rings (size 3 to 8) (size 9 to 14) (size 15 to 20)
#    0.000    2.833    0.000    1.500    2.333    4.000 
#    0.000    0.833    0.000    3.000    0.000    2.333 
#    0.000    1.333    0.000    0.000    0.000    0.000 
#
# Total GULP energy -534424.560209 kJ/mol
# GULP energy per Si atom -5566.922502 kJ/mol
# Density = 1.664066 g / cm^3
# Si number density = 16.678620 Si / 1000 Ang^3
#
#
#
# Elastic Constant Matrix: (Units=GPa)
#
#
# Indices 1 2 3 4 5 6 
#
# 1 86.5262 32.6511 39.0383 0.0000 0.0000 0.0000
# 2 32.6511 86.5262 39.0383 0.0000 0.0000 0.0000
# 3 39.0383 39.0383 83.7689 0.0000 0.0000 0.0000
# 4 0.0000 0.0000 0.0000 15.8436 0.0000 0.0000
# 5 0.0000 0.0000 0.0000 0.0000 15.8436 0.0000
# 6 0.0000 0.0000 0.0000 0.0000 0.0000 18.0867
#
#
#
# Elastic Compliance Matrix: (Units=1/GPa)
#
#
# Indices 1 2 3 4 5 6 
#
# 1 0.015320 -0.003241 -0.005629 0.000000 0.000000 0.000000
# 2 -0.003241 0.015320 -0.005629 0.000000 0.000000 0.000000
# 3 -0.005629 -0.005629 0.017184 0.000000 0.000000 0.000000
# 4 0.000000 0.000000 0.000000 0.063117 0.000000 0.000000
# 5 0.000000 0.000000 0.000000 0.000000 0.063117 0.000000
# 6 0.000000 0.000000 0.000000 0.000000 0.000000 0.055289
#
#
# Mechanical properties :
#
#
# Convention : Reuss Voigt Hill
#
# Bulk Modulus (GPa) = 53.11944 53.14187 53.13066
# Shear Modulus (GPa) = 18.89495 19.69434 19.29465
#
# Velocity S-wave (km/s) = 3.36949 3.44002 3.40494
# Velocity P-wave (km/s) = 6.85973 6.90723 6.88352
#
# Compressibility (1/GPa) = 0.01882550
#
# Stress axis : x y z
#
# Youngs Moduli (GPa) = 65.27424 65.27424 58.19375
#
# Poissons Ratio (x) = 0.21159 0.32757
# Poissons Ratio (y) = 0.21159 0.32757
# Poissons Ratio (z) = 0.36742 0.36742
#
# Static dielectric constant tensor:
#      x y z
#    x 1.575260 0.000000 0.000000 
#    y 0.000000 1.575260 0.000000 
#    z 0.000000 0.000000 1.542800 
# 
# From -- ./inp_files/9803.got.cif
#   From: 2010.05.17/outbox.cif.g08.bks.cpg/sg140_5_cif.got.tgz:9803.got - 2010.06.21 00:45:31.
