data_PCOD9572087
_publ_section_title
;
Structure prediction by ZEFSAII (Michael W. Deem and Ramdas Pophale) SiO2 
 PCOD9572087
Probable space group: I 4/M C M
;
_chemical_formula_sum "Si O2"
_cell_formula_units_Z 192
_cell_length_a 21.931963
_cell_length_b 21.931963
_cell_length_c 20.276184
_cell_angle_alpha 90.000000
_cell_angle_beta 90.000000
_cell_angle_gamma 90.000000
_cell_volume 9753.067563
_symmetry_space_group_name_H-M "I 4/M C M"
_symmetry_group_IT_number 140
_symmetry_cell_setting 'tetragonal'
loop_
_space_group_symop_operation_xyz
x,y,z
-y,x,z
-x,-y,z
y,-x,z
x,-y,1/2-z
-x,y,1/2-z
y,x,1/2-z
-y,-x,1/2-z
-x,-y,-z
y,-x,-z
x,y,-z
-y,x,-z
-x,y,1/2+z
x,-y,1/2+z
-y,-x,1/2+z
y,x,1/2+z
1/2+x,1/2+y,1/2+z
1/2-y,1/2+x,1/2+z
1/2-x,1/2-y,1/2+z
1/2+y,1/2-x,1/2+z
1/2+x,1/2-y,-z
1/2-x,1/2+y,-z
1/2+y,1/2+x,-z
1/2-y,1/2-x,-z
1/2-x,1/2-y,1/2-z
1/2+y,1/2-x,1/2-z
1/2+x,1/2+y,1/2-z
1/2-y,1/2+x,1/2-z
1/2-x,1/2+y,z
1/2+x,1/2-y,z
1/2-y,1/2-x,z
1/2+y,1/2+x,z
loop_
_atom_site_type_symbol
_atom_site_label
_atom_site_fract_x
_atom_site_fract_y
_atom_site_fract_z
Si Si1 0.081726 0.326655 0.575976
Si Si2 0.513202 0.735725 0.422952
Si Si3 0.924396 0.066144 0.597424
Si Si4 0.661001 0.744619 0.824350
Si Si5 0.834723 0.052581 0.302793
Si Si6 0.644778 0.310955 0.927198
O O1 0.097106 0.310301 0.500000
O O2 0.104034 0.395967 0.585232
O O3 0.121358 0.286315 0.625708
O O4 0.012828 0.304199 0.584701
O O5 0.502422 0.717270 0.500000
O O6 0.475980 0.696025 0.369627
O O7 0.584622 0.727945 0.411481
O O8 0.903181 0.069373 0.674155
O O9 0.881295 0.119313 0.569780
O O10 0.994450 0.081436 0.580974
O O11 0.709793 0.790207 0.791922
O O12 0.611416 0.705619 0.783500
O O13 0.693239 0.695270 0.871399
O O14 0.832840 0.000000 0.250000
O O15 0.668184 0.295366 0.000000
#
# Coordination Sequence:
#
# PCOD9572087 Si02
#       6
#    32  32  32  32  32  32
#     4   8  13  23  43  68  93 124 166 214 260 312
#     4   9  17  31  47  68 101 135 169 215 278 333
#     4  10  20  33  44  65  96 135 186 230 269 307
#     4   9  18  32  49  72 101 132 175 222 269 326
#     4  10  20  34  54  75  97 136 179 229 279 330
#     4  10  19  30  47  70 102 142 180 222 275 325
#
# _framework density 19.686114
#
# number of rings (size 3 to 8) (size 9 to 14) (size 15 to 20)
#    0.000    2.667    1.667    0.500    0.000    6.333 
#    0.000    1.667    0.000    2.000    0.000    0.000 
#    0.000    1.000    0.000   14.833    0.333   30.500 
#
# Total GULP energy -534532.586269 kJ/mol
# GULP energy per Si atom -5568.047774 kJ/mol
# Density = 1.964131 g / cm^3
# Si number density = 19.686114 Si / 1000 Ang^3
#
#
#
# Elastic Constant Matrix: (Units=GPa)
#
#
# Indices 1 2 3 4 5 6 
#
# 1 63.3058 36.7311 17.4863 0.0000 0.0000 0.0000
# 2 36.7311 63.3058 17.4863 0.0000 0.0000 0.0000
# 3 17.4863 17.4863 47.0565 0.0000 0.0000 0.0000
# 4 0.0000 0.0000 0.0000 70.1411 0.0000 0.0000
# 5 0.0000 0.0000 0.0000 0.0000 70.1411 0.0000
# 6 0.0000 0.0000 0.0000 0.0000 0.0000 36.3804
#
#
#
# Elastic Compliance Matrix: (Units=1/GPa)
#
#
# Indices 1 2 3 4 5 6 
#
# 1 0.024559 -0.013070 -0.004269 0.000000 0.000000 0.000000
# 2 -0.013070 0.024559 -0.004269 0.000000 0.000000 0.000000
# 3 -0.004269 -0.004269 0.024424 0.000000 0.000000 0.000000
# 4 0.000000 0.000000 0.000000 0.014257 0.000000 0.000000
# 5 0.000000 0.000000 0.000000 0.000000 0.014257 0.000000
# 6 0.000000 0.000000 0.000000 0.000000 0.000000 0.027487
#
#
# Mechanical properties :
#
#
# Convention : Reuss Voigt Hill
#
# Bulk Modulus (GPa) = 32.97656 35.23060 34.10358
# Shear Modulus (GPa) = 27.34183 42.13016 34.73599
#
# Velocity S-wave (km/s) = 3.73082 4.63114 4.20514
# Velocity P-wave (km/s) = 5.94527 6.82141 6.39835
#
# Compressibility (1/GPa) = 0.03032457
#
# Stress axis : x y z
#
# Youngs Moduli (GPa) = 40.71779 40.71779 40.94339
#
# Poissons Ratio (x) = 0.53220 0.17480
# Poissons Ratio (y) = 0.53220 0.17480
# Poissons Ratio (z) = 0.17383 0.17383
#
# Static dielectric constant tensor:
#      x y z
#    x 1.727210 0.000000 0.000000 
#    y 0.000000 1.727210 0.000000 
#    z 0.000000 0.000000 1.762140 
# 
# From -- ./inp_files/9747.got.cif
#   From: 2010.05.17/outbox.cif.g08.bks.cpg/sg140_5_cif.got.tgz:9747.got - 2010.06.21 00:45:31.
