data_PCOD9572637
_publ_section_title
;
Structure prediction by ZEFSAII (Michael W. Deem and Ramdas Pophale) SiO2 
 PCOD9572637
Probable space group: I 4/M C M
;
_chemical_formula_sum "Si O2"
_cell_formula_units_Z 192
_cell_length_a 21.434570
_cell_length_b 21.434570
_cell_length_c 28.000482
_cell_angle_alpha 90.000000
_cell_angle_beta 90.000000
_cell_angle_gamma 90.000000
_cell_volume 12864.563601
_symmetry_space_group_name_H-M "I 4/M C M"
_symmetry_group_IT_number 140
_symmetry_cell_setting 'tetragonal'
loop_
_space_group_symop_operation_xyz
x,y,z
-y,x,z
-x,-y,z
y,-x,z
x,-y,1/2-z
-x,y,1/2-z
y,x,1/2-z
-y,-x,1/2-z
-x,-y,-z
y,-x,-z
x,y,-z
-y,x,-z
-x,y,1/2+z
x,-y,1/2+z
-y,-x,1/2+z
y,x,1/2+z
1/2+x,1/2+y,1/2+z
1/2-y,1/2+x,1/2+z
1/2-x,1/2-y,1/2+z
1/2+y,1/2-x,1/2+z
1/2+x,1/2-y,-z
1/2-x,1/2+y,-z
1/2+y,1/2+x,-z
1/2-y,1/2-x,-z
1/2-x,1/2-y,1/2-z
1/2+y,1/2-x,1/2-z
1/2+x,1/2+y,1/2-z
1/2-y,1/2+x,1/2-z
1/2-x,1/2+y,z
1/2+x,1/2-y,z
1/2-y,1/2-x,z
1/2+y,1/2+x,z
loop_
_atom_site_type_symbol
_atom_site_label
_atom_site_fract_x
_atom_site_fract_y
_atom_site_fract_z
Si Si1 0.542215 0.326609 0.556190
Si Si2 0.530233 0.872265 0.557414
Si Si3 0.867190 0.735193 0.944660
Si Si4 0.591299 0.356387 0.900209
Si Si5 0.095205 0.692073 0.941881
Si Si6 0.428451 0.577575 0.803465
O O1 0.526658 0.320606 0.500000
O O2 0.479559 0.339363 0.585729
O O3 0.589666 0.382931 0.565267
O O4 0.576946 0.262516 0.571731
O O5 0.525538 0.879750 0.500000
O O6 0.566019 0.933982 0.575722
O O7 0.576609 0.813566 0.564903
O O8 0.461853 0.852819 0.574104
O O9 0.804189 0.695812 0.940773
O O10 0.870568 0.793850 0.910628
O O11 0.873831 0.755907 0.000000
O O12 0.598194 0.382779 0.846924
O O13 0.160190 0.660190 0.926590
O O14 0.095593 0.692376 0.000000
O O15 0.415709 0.503559 0.807613
O O16 0.406203 0.593798 0.750000
#
# Coordination Sequence:
#
# PCOD9572637 Si02
#       6
#    32  32  32  32  32  32
#     4  11  22  31  42  65  96 129 161 197 236 282
#     4   8  13  23  40  60  82 113 155 200 239 271
#     4   9  17  29  45  65  94 132 167 194 226 282
#     4  12  20  32  49  68  93 125 161 200 241 288
#     4   9  17  29  42  58  86 123 162 200 233 269
#     4   9  18  34  52  71  93 116 152 203 250 293
#
# _framework density 14.924719
#
# number of rings (size 3 to 8) (size 9 to 14) (size 15 to 20)
#    0.000    2.333    3.333    3.000    0.000    1.333 
#    0.000    4.167    0.000    0.500    0.000    0.000 
#    0.000    0.000    0.000    0.000    0.000    0.167 
#
# Total GULP energy -534634.744690 kJ/mol
# GULP energy per Si atom -5569.111924 kJ/mol
# Density = 1.489075 g / cm^3
# Si number density = 14.924719 Si / 1000 Ang^3
#
#
#
# Elastic Constant Matrix: (Units=GPa)
#
#
# Indices 1 2 3 4 5 6 
#
# 1 55.8116 37.6923 23.4886 0.0000 0.0000 0.0000
# 2 37.6923 55.8114 23.4886 0.0000 0.0000 0.0000
# 3 23.4886 23.4886 59.6763 0.0000 0.0000 0.0000
# 4 0.0000 0.0000 0.0000 10.7500 0.0000 0.0000
# 5 0.0000 0.0000 0.0000 0.0000 10.7502 0.0000
# 6 0.0000 0.0000 0.0000 0.0000 0.0000 17.9179
#
#
#
# Elastic Compliance Matrix: (Units=1/GPa)
#
#
# Indices 1 2 3 4 5 6 
#
# 1 0.034260 -0.020930 -0.005247 0.000000 0.000000 0.000000
# 2 -0.020930 0.034261 -0.005247 0.000000 0.000000 0.000000
# 3 -0.005247 -0.005247 0.020888 0.000000 0.000000 0.000000
# 4 0.000000 0.000000 0.000000 0.093023 0.000000 0.000000
# 5 0.000000 0.000000 0.000000 0.000000 0.093022 0.000000
# 6 0.000000 0.000000 0.000000 0.000000 0.000000 0.055810
#
#
# Mechanical properties :
#
#
# Convention : Reuss Voigt Hill
#
# Bulk Modulus (GPa) = 37.64892 37.84870 37.74881
# Shear Modulus (GPa) = 12.40802 13.65892 13.03347
#
# Velocity S-wave (km/s) = 2.88648 3.02849 2.95834
# Velocity P-wave (km/s) = 6.03239 6.13545 6.08414
#
# Compressibility (1/GPa) = 0.02656119
#
# Stress axis : x y z
#
# Youngs Moduli (GPa) = 29.18820 29.18810 47.87537
#
# Poissons Ratio (x) = 0.61089 0.25120
# Poissons Ratio (y) = 0.61090 0.25120
# Poissons Ratio (z) = 0.15315 0.15315
#
# Static dielectric constant tensor:
#      x y z
#    x 1.528260 0.000000 0.000000 
#    y 0.000000 1.528260 0.000000 
#    z 0.000000 0.000000 1.471090 
# 
# From -- ./inp_files/10835.got.cif
#   From: 2010.05.17/outbox.cif.g08.bks.cpg/sg140_6_cif.got.tgz:10835.got - 2010.06.21 00:45:31.
