data_PCOD9572446
_publ_section_title
;
Structure prediction by ZEFSAII (Michael W. Deem and Ramdas Pophale) SiO2 
 PCOD9572446
Probable space group: I 4/M C M
;
_chemical_formula_sum "Si O2"
_cell_formula_units_Z 160
_cell_length_a 32.063380
_cell_length_b 32.063380
_cell_length_c 9.331843
_cell_angle_alpha 90.000000
_cell_angle_beta 90.000000
_cell_angle_gamma 90.000000
_cell_volume 9593.697660
_symmetry_space_group_name_H-M "I 4/M C M"
_symmetry_group_IT_number 140
_symmetry_cell_setting 'tetragonal'
loop_
_space_group_symop_operation_xyz
x,y,z
-y,x,z
-x,-y,z
y,-x,z
x,-y,1/2-z
-x,y,1/2-z
y,x,1/2-z
-y,-x,1/2-z
-x,-y,-z
y,-x,-z
x,y,-z
-y,x,-z
-x,y,1/2+z
x,-y,1/2+z
-y,-x,1/2+z
y,x,1/2+z
1/2+x,1/2+y,1/2+z
1/2-y,1/2+x,1/2+z
1/2-x,1/2-y,1/2+z
1/2+y,1/2-x,1/2+z
1/2+x,1/2-y,-z
1/2-x,1/2+y,-z
1/2+y,1/2+x,-z
1/2-y,1/2-x,-z
1/2-x,1/2-y,1/2-z
1/2+y,1/2-x,1/2-z
1/2+x,1/2+y,1/2-z
1/2-y,1/2+x,1/2-z
1/2-x,1/2+y,z
1/2+x,1/2-y,z
1/2-y,1/2-x,z
1/2+y,1/2+x,z
loop_
_atom_site_type_symbol
_atom_site_label
_atom_site_fract_x
_atom_site_fract_y
_atom_site_fract_z
Si Si1 0.283075 0.041814 0.671722
Si Si2 0.000000 0.872185 0.750000
Si Si3 0.062220 0.800656 0.835048
Si Si4 0.068001 0.982246 0.000000
Si Si5 0.692822 0.123845 0.328832
Si Si6 0.656296 0.284058 0.331995
O O1 0.285058 0.039286 0.500000
O O2 0.235142 0.047640 0.725609
O O3 0.306632 0.082012 0.735650
O O4 0.298427 0.000000 0.750000
O O5 0.965331 0.841712 0.682837
O O6 0.978386 0.902362 0.863875
O O7 0.111490 0.806554 0.809447
O O8 0.057688 0.785263 0.000000
O O9 0.028980 0.951286 0.000000
O O10 0.694846 0.114107 0.500000
O O11 0.653632 0.153632 0.303739
O O12 0.735800 0.148246 0.293024
O O13 0.692555 0.307446 0.250000
O O14 0.665619 0.285326 0.500000
#
# Coordination Sequence:
#
# PCOD9572446 Si02
#       6
#    32  16  32  16  32  32
#     4  11  21  33  56  82 113 145 175 220 269 314
#     4  12  22  39  62  78  94 128 168 216 275 340
#     4  10  21  37  53  78 104 129 166 213 268 332
#     4  11  26  44  58  72  94 124 162 212 274 344
#     4   9  19  37  57  77 108 151 190 225 269 319
#     4   9  19  34  50  74 107 139 175 220 267 317
#
# _framework density 16.677614999999999
#
# number of rings (size 3 to 8) (size 9 to 14) (size 15 to 20)
#    0.000    1.900    2.000    3.600    1.400    6.400 
#    0.000    0.000    0.000    0.000    0.000    0.000 
#    0.000    0.400    0.000    4.200    0.000    1.800 
#
# Total GULP energy -446439.482918 kJ/mol
# GULP energy per Si atom -5580.493536 kJ/mol
# Density = 1.663966 g / cm^3
# Si number density = 16.677615 Si / 1000 Ang^3
#
#
#
# Elastic Constant Matrix: (Units=GPa)
#
#
# Indices 1 2 3 4 5 6 
#
# 1 81.2171 56.6622 51.5442 0.0000 0.0000 0.0000
# 2 56.6622 81.2217 51.5467 0.0000 0.0000 0.0000
# 3 51.5442 51.5467 105.4305 0.0000 0.0000 0.0000
# 4 0.0000 0.0000 0.0000 22.0519 0.0000 0.0000
# 5 0.0000 0.0000 0.0000 0.0000 22.0520 0.0000
# 6 0.0000 0.0000 0.0000 0.0000 0.0000 23.7431
#
#
#
# Elastic Compliance Matrix: (Units=1/GPa)
#
#
# Indices 1 2 3 4 5 6 
#
# 1 0.026077 -0.014645 -0.005589 0.000000 0.000000 0.000000
# 2 -0.014645 0.026076 -0.005589 0.000000 0.000000 0.000000
# 3 -0.005589 -0.005589 0.014950 0.000000 0.000000 0.000000
# 4 0.000000 0.000000 0.000000 0.045348 0.000000 0.000000
# 5 0.000000 0.000000 0.000000 0.000000 0.045347 0.000000
# 6 0.000000 0.000000 0.000000 0.000000 0.000000 0.042117
#
#
# Mechanical properties :
#
#
# Convention : Reuss Voigt Hill
#
# Bulk Modulus (GPa) = 64.69561 65.26394 64.97978
# Shear Modulus (GPa) = 19.47708 20.77715 20.12712
#
# Velocity S-wave (km/s) = 3.42110 3.53343 3.47772
# Velocity P-wave (km/s) = 7.38115 7.47425 7.42785
#
# Compressibility (1/GPa) = 0.01545700
#
# Stress axis : x y z
#
# Youngs Moduli (GPa) = 38.34839 38.34982 66.89122
#
# Poissons Ratio (x) = 0.56164 0.37382
# Poissons Ratio (y) = 0.56161 0.37385
# Poissons Ratio (z) = 0.21431 0.21434
#
# Static dielectric constant tensor:
#      x y z
#    x 1.557680 0.000000 0.000000 
#    y 0.000000 1.557680 0.000000 
#    z 0.000000 0.000000 1.465820 
# 
# From -- ./inp_files/1868.got.cif
#   From: 2010.05.17/outbox.cif.g08.bks.cpg/sg140_1_cif.got.tgz:1868.got - 2010.06.21 00:45:31.
