data_PCOD9572359
_publ_section_title
;
Structure prediction by ZEFSAII (Michael W. Deem and Ramdas Pophale) SiO2 
 PCOD9572359
Probable space group: I 4/M C M
;
_chemical_formula_sum "Si O2"
_cell_formula_units_Z 168
_cell_length_a 22.145402
_cell_length_b 22.145402
_cell_length_c 18.574680
_cell_angle_alpha 90.000000
_cell_angle_beta 90.000000
_cell_angle_gamma 90.000000
_cell_volume 9109.372828
_symmetry_space_group_name_H-M "I 4/M C M"
_symmetry_group_IT_number 140
_symmetry_cell_setting 'tetragonal'
loop_
_space_group_symop_operation_xyz
x,y,z
-y,x,z
-x,-y,z
y,-x,z
x,-y,1/2-z
-x,y,1/2-z
y,x,1/2-z
-y,-x,1/2-z
-x,-y,-z
y,-x,-z
x,y,-z
-y,x,-z
-x,y,1/2+z
x,-y,1/2+z
-y,-x,1/2+z
y,x,1/2+z
1/2+x,1/2+y,1/2+z
1/2-y,1/2+x,1/2+z
1/2-x,1/2-y,1/2+z
1/2+y,1/2-x,1/2+z
1/2+x,1/2-y,-z
1/2-x,1/2+y,-z
1/2+y,1/2+x,-z
1/2-y,1/2-x,-z
1/2-x,1/2-y,1/2-z
1/2+y,1/2-x,1/2-z
1/2+x,1/2+y,1/2-z
1/2-y,1/2+x,1/2-z
1/2-x,1/2+y,z
1/2+x,1/2-y,z
1/2-y,1/2-x,z
1/2+y,1/2+x,z
loop_
_atom_site_type_symbol
_atom_site_label
_atom_site_fract_x
_atom_site_fract_y
_atom_site_fract_z
Si Si1 0.888575 0.075490 0.677817
Si Si2 0.967146 0.148265 0.583745
Si Si3 0.250000 0.750000 0.750000
Si Si4 0.449958 0.849293 0.193313
Si Si5 0.526029 0.218853 0.583020
Si Si6 0.391641 0.747171 0.709012
O O1 0.927644 0.072357 0.750000
O O2 0.907490 0.132728 0.628893
O O3 0.820768 0.083137 0.707623
O O4 0.889914 0.018713 0.624700
O O5 0.960554 0.131990 0.500000
O O6 0.989739 0.217348 0.586910
O O7 0.320747 0.746341 0.721589
O O8 0.500000 0.872227 0.250000
O O9 0.397154 0.897154 0.183225
O O10 0.483644 0.830572 0.120514
O O11 0.422623 0.788714 0.230078
O O12 0.539646 0.206770 0.500000
O O13 0.585186 0.225687 0.632890
#
# Coordination Sequence:
#
# PCOD9572359 Si02
#       6
#    32  32   8  32  32  32
#     4  11  20  34  53  80 105 143 189 239 284 338
#     4  10  21  35  53  75 110 151 192 235 289 349
#     4  12  20  36  62  92 114 148 188 248 300 336
#     4  10  20  37  62  90 119 153 198 250 305 360
#     4   9  20  38  58  83 119 163 196 232 298 370
#     4  10  21  35  59  87 119 151 194 246 297 358
#
# _framework density 18.442543000000001
#
# number of rings (size 3 to 8) (size 9 to 14) (size 15 to 20)
#    0.000    1.905    1.905    2.286    0.000    4.762 
#    0.000    2.381    0.000    1.143    0.000    2.667 
#    0.000    0.000    0.000    0.000    0.000    0.000 
#
# Total GULP energy -467618.121407 kJ/mol
# GULP energy per Si atom -5566.882398 kJ/mol
# Density = 1.840057 g / cm^3
# Si number density = 18.442543 Si / 1000 Ang^3
#
#
#
# Elastic Constant Matrix: (Units=GPa)
#
#
# Indices 1 2 3 4 5 6 
#
# 1 77.7693 25.2946 39.1422 0.0000 0.0000 0.0000
# 2 25.2946 77.7697 39.1422 0.0000 0.0000 0.0000
# 3 39.1422 39.1422 135.5953 0.0000 0.0000 0.0000
# 4 0.0000 0.0000 0.0000 11.2383 0.0000 0.0000
# 5 0.0000 0.0000 0.0000 0.0000 11.2383 0.0000
# 6 0.0000 0.0000 0.0000 0.0000 0.0000 25.9779
#
#
#
# Elastic Compliance Matrix: (Units=1/GPa)
#
#
# Indices 1 2 3 4 5 6 
#
# 1 0.015742 -0.003315 -0.003587 0.000000 0.000000 0.000000
# 2 -0.003315 0.015742 -0.003587 0.000000 0.000000 0.000000
# 3 -0.003587 -0.003587 0.009446 0.000000 0.000000 0.000000
# 4 0.000000 0.000000 0.000000 0.088981 0.000000 0.000000
# 5 0.000000 0.000000 0.000000 0.000000 0.088982 0.000000
# 6 0.000000 0.000000 0.000000 0.000000 0.000000 0.038494
#
#
# Mechanical properties :
#
#
# Convention : Reuss Voigt Hill
#
# Bulk Modulus (GPa) = 50.12167 55.36581 52.74374
# Shear Modulus (GPa) = 17.54280 22.19458 19.86869
#
# Velocity S-wave (km/s) = 3.08752 3.47283 3.28583
# Velocity P-wave (km/s) = 6.32033 6.79460 6.56175
#
# Compressibility (1/GPa) = 0.01995145
#
# Stress axis : x y z
#
# Youngs Moduli (GPa) = 63.52339 63.52375 105.86402
#
# Poissons Ratio (x) = 0.21055 0.37979
# Poissons Ratio (y) = 0.21055 0.37978
# Poissons Ratio (z) = 0.22789 0.22789
#
# Static dielectric constant tensor:
#      x y z
#    x 1.647210 0.000000 0.000000 
#    y 0.000000 1.647210 0.000000 
#    z 0.000000 0.000000 1.626680 
# 
# From -- ./inp_files/8456.got.cif
#   From: 2010.05.17/outbox.cif.g08.bks.cpg/sg140_5_cif.got.tgz:8456.got - 2010.06.21 00:45:31.
