data_PCOD9572534
_publ_section_title
;
Structure prediction by ZEFSAII (Michael W. Deem and Ramdas Pophale) SiO2 
 PCOD9572534
Probable space group: I 4/M C M
;
_chemical_formula_sum "Si O2"
_cell_formula_units_Z 128
_cell_length_a 19.528459
_cell_length_b 19.528459
_cell_length_c 16.777617
_cell_angle_alpha 90.000000
_cell_angle_beta 90.000000
_cell_angle_gamma 90.000000
_cell_volume 6398.323947
_symmetry_space_group_name_H-M "I 4/M C M"
_symmetry_group_IT_number 140
_symmetry_cell_setting 'tetragonal'
loop_
_space_group_symop_operation_xyz
x,y,z
-y,x,z
-x,-y,z
y,-x,z
x,-y,1/2-z
-x,y,1/2-z
y,x,1/2-z
-y,-x,1/2-z
-x,-y,-z
y,-x,-z
x,y,-z
-y,x,-z
-x,y,1/2+z
x,-y,1/2+z
-y,-x,1/2+z
y,x,1/2+z
1/2+x,1/2+y,1/2+z
1/2-y,1/2+x,1/2+z
1/2-x,1/2-y,1/2+z
1/2+y,1/2-x,1/2+z
1/2+x,1/2-y,-z
1/2-x,1/2+y,-z
1/2+y,1/2+x,-z
1/2-y,1/2-x,-z
1/2-x,1/2-y,1/2-z
1/2+y,1/2-x,1/2-z
1/2+x,1/2+y,1/2-z
1/2-y,1/2+x,1/2-z
1/2-x,1/2+y,z
1/2+x,1/2-y,z
1/2-y,1/2-x,z
1/2+y,1/2+x,z
loop_
_atom_site_type_symbol
_atom_site_label
_atom_site_fract_x
_atom_site_fract_y
_atom_site_fract_z
Si Si1 0.446185 0.169060 0.817551
Si Si2 0.818671 0.425056 0.588457
Si Si3 0.606322 0.711269 0.715453
Si Si4 0.461156 0.391467 0.407815
O O1 0.500000 0.142944 0.750000
O O2 0.382566 0.117435 0.825242
O O3 0.494637 0.178839 0.893321
O O4 0.425036 0.244739 0.787824
O O5 0.793990 0.411678 0.500000
O O6 0.894196 0.394196 0.596359
O O7 0.771073 0.384928 0.650355
O O8 0.670662 0.670662 0.750000
O O9 0.560084 0.658301 0.664224
O O10 0.539788 0.415423 0.400415
O O11 0.452098 0.366055 0.500000
#
# Coordination Sequence:
#
# PCOD9572534 Si02
#       4
#    32  32  32  32
#     4  10  22  39  61  92 125 157 201 258 313 370
#     4  10  23  43  65  90 122 160 206 260 318 379
#     4  11  23  36  61  91 125 165 205 247 305 372
#     4   9  20  37  57  86 122 161 209 261 306 352
#
# _framework density 20.005239
#
# number of rings (size 3 to 8) (size 9 to 14) (size 15 to 20)
#    0.000    2.000    0.000    4.500   10.500    4.250 
#    0.000    3.750    0.000    0.000    0.000    0.000 
#    0.000    0.000    0.000    0.000    0.000    0.000 
#
# Total GULP energy -356695.768458 kJ/mol
# GULP energy per Si atom -5573.371382 kJ/mol
# Density = 1.995971 g / cm^3
# Si number density = 20.005239 Si / 1000 Ang^3
#
#
#
# Elastic Constant Matrix: (Units=GPa)
#
#
# Indices 1 2 3 4 5 6 
#
# 1 103.5086 68.6414 40.4484 0.0000 0.0000 0.0000
# 2 68.6414 103.5086 40.4484 0.0000 0.0000 0.0000
# 3 40.4484 40.4484 70.5849 0.0000 0.0000 0.0000
# 4 0.0000 0.0000 0.0000 16.2246 0.0000 0.0000
# 5 0.0000 0.0000 0.0000 0.0000 16.2246 0.0000
# 6 0.0000 0.0000 0.0000 0.0000 0.0000 42.5099
#
#
#
# Elastic Compliance Matrix: (Units=1/GPa)
#
#
# Indices 1 2 3 4 5 6 
#
# 1 0.018315 -0.010365 -0.004555 0.000000 0.000000 0.000000
# 2 -0.010365 0.018315 -0.004555 0.000000 0.000000 0.000000
# 3 -0.004555 -0.004555 0.019388 0.000000 0.000000 0.000000
# 4 0.000000 0.000000 0.000000 0.061635 0.000000 0.000000
# 5 0.000000 0.000000 0.000000 0.000000 0.061635 0.000000
# 6 0.000000 0.000000 0.000000 0.000000 0.000000 0.023524
#
#
# Mechanical properties :
#
#
# Convention : Reuss Voigt Hill
#
# Bulk Modulus (GPa) = 58.59739 64.07536 61.33638
# Shear Modulus (GPa) = 20.20589 23.52943 21.86766
#
# Velocity S-wave (km/s) = 3.18154 3.43324 3.30979
# Velocity P-wave (km/s) = 6.54606 6.91484 6.73298
#
# Compressibility (1/GPa) = 0.01706561
#
# Stress axis : x y z
#
# Youngs Moduli (GPa) = 54.60021 54.60021 51.57740
#
# Poissons Ratio (x) = 0.56595 0.23496
# Poissons Ratio (y) = 0.56595 0.23496
# Poissons Ratio (z) = 0.24873 0.24873
#
# Static dielectric constant tensor:
#      x y z
#    x 1.714470 0.000000 0.000000 
#    y 0.000000 1.714470 0.000000 
#    z 0.000000 0.000000 1.738950 
# 
# From -- ./inp_files/6488.got.cif
#   From: 2010.05.17/outbox.cif.g08.bks.cpg/sg140_4_cif.got.tgz:6488.got - 2010.06.21 00:45:31.
