data_PCOD9572058
_publ_section_title
;
Structure prediction by ZEFSAII (Michael W. Deem and Ramdas Pophale) SiO2 
 PCOD9572058
Probable space group: I 4/M C M
;
_chemical_formula_sum "Si O2"
_cell_formula_units_Z 240
_cell_length_a 25.014892
_cell_length_b 25.014892
_cell_length_c 20.425425
_cell_angle_alpha 90.000000
_cell_angle_beta 90.000000
_cell_angle_gamma 90.000000
_cell_volume 12781.103926
_symmetry_space_group_name_H-M "I 4/M C M"
_symmetry_group_IT_number 140
_symmetry_cell_setting 'tetragonal'
loop_
_space_group_symop_operation_xyz
x,y,z
-y,x,z
-x,-y,z
y,-x,z
x,-y,1/2-z
-x,y,1/2-z
y,x,1/2-z
-y,-x,1/2-z
-x,-y,-z
y,-x,-z
x,y,-z
-y,x,-z
-x,y,1/2+z
x,-y,1/2+z
-y,-x,1/2+z
y,x,1/2+z
1/2+x,1/2+y,1/2+z
1/2-y,1/2+x,1/2+z
1/2-x,1/2-y,1/2+z
1/2+y,1/2-x,1/2+z
1/2+x,1/2-y,-z
1/2-x,1/2+y,-z
1/2+y,1/2+x,-z
1/2-y,1/2-x,-z
1/2-x,1/2-y,1/2-z
1/2+y,1/2-x,1/2-z
1/2+x,1/2+y,1/2-z
1/2-y,1/2+x,1/2-z
1/2-x,1/2+y,z
1/2+x,1/2-y,z
1/2-y,1/2-x,z
1/2+y,1/2+x,z
loop_
_atom_site_type_symbol
_atom_site_label
_atom_site_fract_x
_atom_site_fract_y
_atom_site_fract_z
Si Si1 0.104375 0.148319 0.680051
Si Si2 0.944478 0.644731 0.926852
Si Si3 0.447435 0.752024 0.707453
Si Si4 0.066492 0.060596 0.075633
Si Si5 0.790700 0.790730 0.829612
Si Si6 0.000000 0.583200 0.750000
Si Si7 0.878242 0.707326 0.176992
Si Si8 0.443798 0.143586 0.131823
O O1 0.123589 0.123589 0.750000
O O2 0.055713 0.189859 0.689199
O O3 0.090472 0.102401 0.628722
O O4 0.151356 0.187285 0.653397
O O5 0.908902 0.591099 0.918692
O O6 0.923093 0.686596 0.872884
O O7 0.007371 0.635096 0.918073
O O8 0.933582 0.664901 0.000000
O O9 0.500000 0.763275 0.750000
O O10 0.401065 0.764492 0.759417
O O11 0.439060 0.793635 0.648253
O O12 0.003487 0.072667 0.083980
O O13 0.080688 0.073481 0.000000
O O14 0.789470 0.789470 0.750000
O O15 0.733479 0.766522 0.850966
O O16 0.835952 0.748786 0.852851
O O17 0.956324 0.543677 0.782413
O O18 0.968315 0.618399 0.698598
O O19 0.844725 0.655276 0.197632
O O20 0.390256 0.109745 0.116762
#
# Coordination Sequence:
#
# PCOD9572058 Si02
#       8
#    32  32  32  32  32  16  32  32
#     4  11  23  36  62  95 127 152 195 248 294 347
#     4  10  21  37  55  76 107 149 198 249 296 344
#     4  12  22  34  54  84 120 147 181 235 302 354
#     4   9  21  44  69  91 123 166 201 232 288 368
#     4   9  17  32  55  84 116 152 190 232 288 347
#     4   9  16  28  48  74 102 136 184 239 290 338
#     4  10  18  34  57  79 109 150 192 236 290 348
#     4  11  21  33  51  76 108 151 195 239 293 350
#
# _framework density 18.777719999999999
#
# number of rings (size 3 to 8) (size 9 to 14) (size 15 to 20)
#    0.000    1.800    4.667    1.200    1.867    3.733 
#    0.000    2.667    0.000    1.200    0.000    0.000 
#    0.000    0.000    0.000    0.000    0.000    0.000 
#
# Total GULP energy -668781.723284 kJ/mol
# GULP energy per Si atom -5573.181027 kJ/mol
# Density = 1.873498 g / cm^3
# Si number density = 18.777720 Si / 1000 Ang^3
#
#
#
# Elastic Constant Matrix: (Units=GPa)
#
#
# Indices 1 2 3 4 5 6 
#
# 1 63.1414 27.9414 25.4178 0.0000 0.0000 0.0000
# 2 27.9414 63.1414 25.4178 0.0000 0.0000 0.0000
# 3 25.4178 25.4178 57.7525 0.0000 0.0000 0.0000
# 4 0.0000 0.0000 0.0000 14.9777 0.0000 0.0000
# 5 0.0000 0.0000 0.0000 0.0000 14.9777 0.0000
# 6 0.0000 0.0000 0.0000 0.0000 0.0000 32.1204
#
#
#
# Elastic Compliance Matrix: (Units=1/GPa)
#
#
# Indices 1 2 3 4 5 6 
#
# 1 0.021482 -0.006927 -0.006405 0.000000 0.000000 0.000000
# 2 -0.006927 0.021482 -0.006405 0.000000 0.000000 0.000000
# 3 -0.006405 -0.006405 0.022954 0.000000 0.000000 0.000000
# 4 0.000000 0.000000 0.000000 0.066766 0.000000 0.000000
# 5 0.000000 0.000000 0.000000 0.000000 0.066766 0.000000
# 6 0.000000 0.000000 0.000000 0.000000 0.000000 0.031133
#
#
# Mechanical properties :
#
#
# Convention : Reuss Voigt Hill
#
# Bulk Modulus (GPa) = 37.82179 37.95440 37.88809
# Shear Modulus (GPa) = 17.92942 19.43240 18.68091
#
# Velocity S-wave (km/s) = 3.09337 3.22042 3.15754
# Velocity P-wave (km/s) = 5.73970 5.83819 5.78916
#
# Compressibility (1/GPa) = 0.02643979
#
# Stress axis : x y z
#
# Youngs Moduli (GPa) = 46.55153 46.55153 43.56621
#
# Poissons Ratio (x) = 0.32249 0.27906
# Poissons Ratio (y) = 0.32249 0.27906
# Poissons Ratio (z) = 0.29819 0.29819
#
# Static dielectric constant tensor:
#      x y z
#    x 1.703630 0.000000 0.000000 
#    y 0.000000 1.703630 0.000000 
#    z 0.000000 0.000000 1.629240 
# 
# From -- ./inp_files/8769.got.cif
#   From: 2010.05.17/outbox.cif.g08.bks.cpg/sg140_5_cif.got.tgz:8769.got - 2010.06.21 00:45:31.
