data_PCOD9572600
_publ_section_title
;
Structure prediction by ZEFSAII (Michael W. Deem and Ramdas Pophale) SiO2 
 PCOD9572600
Probable space group: I 4/M C M
;
_chemical_formula_sum "Si O2"
_cell_formula_units_Z 48
_cell_length_a 12.513650
_cell_length_b 12.513650
_cell_length_c 14.280814
_cell_angle_alpha 90.000000
_cell_angle_beta 90.000000
_cell_angle_gamma 90.000000
_cell_volume 2236.253176
_symmetry_space_group_name_H-M "I 4/M C M"
_symmetry_group_IT_number 140
_symmetry_cell_setting 'tetragonal'
loop_
_space_group_symop_operation_xyz
x,y,z
-y,x,z
-x,-y,z
y,-x,z
x,-y,1/2-z
-x,y,1/2-z
y,x,1/2-z
-y,-x,1/2-z
-x,-y,-z
y,-x,-z
x,y,-z
-y,x,-z
-x,y,1/2+z
x,-y,1/2+z
-y,-x,1/2+z
y,x,1/2+z
1/2+x,1/2+y,1/2+z
1/2-y,1/2+x,1/2+z
1/2-x,1/2-y,1/2+z
1/2+y,1/2-x,1/2+z
1/2+x,1/2-y,-z
1/2-x,1/2+y,-z
1/2+y,1/2+x,-z
1/2-y,1/2-x,-z
1/2-x,1/2-y,1/2-z
1/2+y,1/2-x,1/2-z
1/2+x,1/2+y,1/2-z
1/2-y,1/2+x,1/2-z
1/2-x,1/2+y,z
1/2+x,1/2-y,z
1/2-y,1/2-x,z
1/2+y,1/2+x,z
loop_
_atom_site_type_symbol
_atom_site_label
_atom_site_fract_x
_atom_site_fract_y
_atom_site_fract_z
Si Si1 0.080692 0.419309 0.823785
Si Si2 0.904273 0.849155 0.500000
Si Si3 0.253003 0.246998 0.638830
O O1 0.140232 0.500000 0.750000
O O2 0.156577 0.343424 0.880453
O O3 0.000000 0.500000 0.877069
O O4 0.855953 0.789510 0.590044
O O5 0.030757 0.858206 0.500000
O O6 0.250000 0.250000 0.750000
#
# Coordination Sequence:
#
# PCOD9572600 Si02
#       3
#    16  16  16
#     4   6  17  32  58  88 117 147 211 267 306 350
#     4  10  26  44  59  97 141 167 210 270 330 388
#     4  11  23  40  71  93 123 179 226 259 321 396
#
# _framework density 21.464473000000002
#
# number of rings (size 3 to 8) (size 9 to 14) (size 15 to 20)
#    2.000    1.000    0.000    0.000    9.333    0.000 
#    6.000    5.000    0.000    0.000    0.000    0.000 
#    0.000    0.000    0.000    0.000    0.000    0.000 
#
# Total GULP energy -133649.951563 kJ/mol
# GULP energy per Si atom -5568.747982 kJ/mol
# Density = 2.141562 g / cm^3
# Si number density = 21.464473 Si / 1000 Ang^3
#
#
#
# Elastic Constant Matrix: (Units=GPa)
#
#
# Indices 1 2 3 4 5 6 
#
# 1 62.4717 23.6851 28.0194 0.0000 0.0000 0.0000
# 2 23.6851 62.4717 28.0194 0.0000 0.0001 0.0000
# 3 28.0194 28.0194 145.6304 0.0000 0.0001 0.0000
# 4 0.0000 0.0000 0.0000 -106.5927 0.0003 0.0000
# 5 0.0000 0.0001 0.0001 0.0003 -106.5914 0.0000
# 6 0.0000 0.0000 0.0000 0.0000 0.0000 36.9253
#
#
#
# Elastic Compliance Matrix: (Units=1/GPa)
#
#
# Indices 1 2 3 4 5 6 
#
# 1 0.019525 -0.006258 -0.002553 0.000000 0.000000 0.000000
# 2 -0.006258 0.019525 -0.002553 0.000000 0.000000 0.000000
# 3 -0.002553 -0.002553 0.007849 0.000000 0.000000 0.000000
# 4 0.000000 0.000000 0.000000 -0.009382 0.000000 0.000000
# 5 0.000000 0.000000 0.000000 0.000000 -0.009382 0.000000
# 6 0.000000 0.000000 0.000000 0.000000 0.000000 0.027082
#
#
# Mechanical properties :
#
#
# Convention : Reuss Voigt Hill
#
# Bulk Modulus (GPa) = 41.36909 47.78016 44.57462
# Shear Modulus (GPa) = 58.13972 -22.52846 17.80563
#
# Velocity S-wave (km/s) = 5.21011 -3.24322 2.88330
# Velocity P-wave (km/s) = 7.45043 2.87816 5.64768
#
# Compressibility (1/GPa) = 0.02417264
#
# Stress axis : x y z
#
# Youngs Moduli (GPa) = 51.21748 51.21748 127.40579
#
# Poissons Ratio (x) = 0.32050 0.32521
# Poissons Ratio (y) = 0.32050 0.32521
# Poissons Ratio (z) = 0.13074 0.13074
#
# Static dielectric constant tensor:
#      x y z
#    x 1.810650 0.000000 0.000000 
#    y 0.000000 1.810650 0.000000 
#    z 0.000000 0.000000 1.771040 
# 
# From -- ./inp_files/2046.got.cif
#   From: 2010.05.17/outbox.cif.g08.bks.cpg/sg140_2_cif.got.tgz:2046.got - 2010.06.21 00:45:31.
