data_PCOD9572974
_publ_section_title
;
Structure prediction by ZEFSAII (Michael W. Deem and Ramdas Pophale) SiO2 
 PCOD9572974
Probable space group: I 41/A M D
;
_chemical_formula_sum "Si O2"
_cell_formula_units_Z 116
_cell_length_a 26.450879
_cell_length_b 26.450879
_cell_length_c 7.725050
_cell_angle_alpha 90.000000
_cell_angle_beta 90.000000
_cell_angle_gamma 90.000000
_cell_volume 5404.823506
_symmetry_space_group_name_H-M "I 41/A M D"
_symmetry_group_IT_number 141
_space_group.IT_coordinate_system_code '2'
_symmetry_cell_setting 'tetragonal'
loop_
_space_group_symop_operation_xyz
x,y,z
1/4-y,3/4+x,1/4+z
-x,1/2-y,z
1/4+y,1/4-x,3/4+z
x,-y,-z
-x,1/2+y,-z
1/4+y,3/4+x,1/4-z
1/4-y,1/4-x,3/4-z
-x,-y,-z
3/4+y,1/4-x,3/4-z
x,1/2+y,-z
3/4-y,3/4+x,1/4-z
-x,y,z
x,1/2-y,z
3/4-y,1/4-x,3/4+z
3/4+y,3/4+x,1/4+z
1/2+x,1/2+y,1/2+z
3/4-y,1/4+x,3/4+z
1/2-x,-y,1/2+z
3/4+y,3/4-x,1/4+z
1/2+x,1/2-y,1/2-z
1/2-x,y,1/2-z
3/4+y,1/4+x,3/4-z
3/4-y,3/4-x,1/4-z
1/2-x,1/2-y,1/2-z
1/4+y,3/4-x,1/4-z
1/2+x,y,1/2-z
1/4-y,1/4+x,3/4-z
1/2-x,1/2+y,1/2+z
1/2+x,-y,1/2+z
1/4-y,3/4-x,1/4+z
1/4+y,1/4+x,3/4+z
loop_
_atom_site_type_symbol
_atom_site_label
_atom_site_fract_x
_atom_site_fract_y
_atom_site_fract_z
Si Si1 0.605987 0.750000 0.182886
Si Si2 0.103961 0.885981 0.929575
Si Si3 0.500000 0.541548 0.345093
Si Si4 0.500000 0.750000 0.375000
Si Si5 0.624612 0.000000 0.500000
Si Si6 0.287086 0.858345 0.593534
O O1 0.614491 0.803724 0.092880
O O2 0.651602 0.750000 0.325855
O O3 0.550868 0.750000 0.263722
O O4 0.099115 0.946665 0.941781
O O5 0.156851 0.871930 0.846011
O O6 0.111984 0.861984 0.125000
O O7 0.500000 0.500000 0.500000
O O8 0.551039 0.535380 0.232451
O O9 0.645065 0.979984 0.315493
O O10 0.250000 0.863146 0.750000
#
# Coordination Sequence:
#
# PCOD9572974 Si02
#       6
#    16  32  16   4  16  32
#     4  12  18  33  59  93 128 169 210 257 328 385
#     4  10  20  35  60  89 124 166 211 260 318 385
#     4  12  19  37  62  91 118 164 212 272 314 359
#     4  12  20  28  48  96 140 154 200 264 302 400
#     4  10  20  39  60  86 124 162 208 263 316 368
#     4  11  22  37  60  90 124 161 212 262 315 378
#
# _framework density 21.462309999999999
#
# number of rings (size 3 to 8) (size 9 to 14) (size 15 to 20)
#    0.000    1.103    8.276    0.414    0.000    1.103 
#    0.000    0.000   27.310    0.000    0.000    7.724 
#    0.000    2.207    0.000    0.000    0.000    0.000 
#
# Total GULP energy -322993.383649 kJ/mol
# GULP energy per Si atom -5568.851442 kJ/mol
# Density = 2.141346 g / cm^3
# Si number density = 21.462310 Si / 1000 Ang^3
#
#
#
# Elastic Constant Matrix: (Units=GPa)
#
#
# Indices 1 2 3 4 5 6 
#
# 1 177.6106 49.5673 32.8063 0.0000 0.0000 0.0000
# 2 49.5673 177.6106 32.8063 0.0000 0.0000 0.0000
# 3 32.8063 32.8063 60.0352 0.0000 0.0000 0.0000
# 4 0.0000 0.0000 0.0000 22.6765 0.0000 0.0000
# 5 0.0000 0.0000 0.0000 0.0000 22.6765 0.0000
# 6 0.0000 0.0000 0.0000 0.0000 0.0000 22.9539
#
#
#
# Elastic Compliance Matrix: (Units=1/GPa)
#
#
# Indices 1 2 3 4 5 6 
#
# 1 0.006518 -0.001292 -0.002856 0.000000 0.000000 0.000000
# 2 -0.001292 0.006518 -0.002856 0.000000 0.000000 0.000000
# 3 -0.002856 -0.002856 0.019778 0.000000 0.000000 0.000000
# 4 0.000000 0.000000 0.000000 0.044099 0.000000 0.000000
# 5 0.000000 0.000000 0.000000 0.000000 0.044099 0.000000
# 6 0.000000 0.000000 0.000000 0.000000 0.000000 0.043566
#
#
# Mechanical properties :
#
#
# Convention : Reuss Voigt Hill
#
# Bulk Modulus (GPa) = 53.17100 71.73516 62.45308
# Shear Modulus (GPa) = 27.04829 33.66647 30.35738
#
# Velocity S-wave (km/s) = 3.55388 3.96489 3.76500
# Velocity P-wave (km/s) = 6.45507 7.37949 6.93271
#
# Compressibility (1/GPa) = 0.01880724
#
# Stress axis : x y z
#
# Youngs Moduli (GPa) = 153.41424 153.41424 50.56018
#
# Poissons Ratio (x) = 0.19814 0.14441
# Poissons Ratio (y) = 0.19814 0.14441
# Poissons Ratio (z) = 0.43818 0.43818
#
# Static dielectric constant tensor:
#      x y z
#    x 1.836720 0.000000 0.000000 
#    y 0.000000 1.836720 0.000000 
#    z 0.000000 0.000000 1.821590 
# 
# From -- ./inp_files/2826.got.cif
#   From: 2010.05.17/outbox.cif.g08.bks.cpg/sg141_2_cif.got.tgz:2826.got - 2010.05.20 13:30:51.
