data_PCOD9572643
_publ_section_title
;
Structure prediction by ZEFSAII (Michael W. Deem and Ramdas Pophale) SiO2 
 PCOD9572643
Probable space group: I 4/M C M
;
_chemical_formula_sum "Si O2"
_cell_formula_units_Z 160
_cell_length_a 19.938012
_cell_length_b 19.938012
_cell_length_c 19.344955
_cell_angle_alpha 90.000000
_cell_angle_beta 90.000000
_cell_angle_gamma 90.000000
_cell_volume 7690.090130
_symmetry_space_group_name_H-M "I 4/M C M"
_symmetry_group_IT_number 140
_symmetry_cell_setting 'tetragonal'
loop_
_space_group_symop_operation_xyz
x,y,z
-y,x,z
-x,-y,z
y,-x,z
x,-y,1/2-z
-x,y,1/2-z
y,x,1/2-z
-y,-x,1/2-z
-x,-y,-z
y,-x,-z
x,y,-z
-y,x,-z
-x,y,1/2+z
x,-y,1/2+z
-y,-x,1/2+z
y,x,1/2+z
1/2+x,1/2+y,1/2+z
1/2-y,1/2+x,1/2+z
1/2-x,1/2-y,1/2+z
1/2+y,1/2-x,1/2+z
1/2+x,1/2-y,-z
1/2-x,1/2+y,-z
1/2+y,1/2+x,-z
1/2-y,1/2-x,-z
1/2-x,1/2-y,1/2-z
1/2+y,1/2-x,1/2-z
1/2+x,1/2+y,1/2-z
1/2-y,1/2+x,1/2-z
1/2-x,1/2+y,z
1/2+x,1/2-y,z
1/2-y,1/2-x,z
1/2+y,1/2+x,z
loop_
_atom_site_type_symbol
_atom_site_label
_atom_site_fract_x
_atom_site_fract_y
_atom_site_fract_z
Si Si1 0.054387 0.333966 0.301595
Si Si2 0.112177 0.999747 0.669254
Si Si3 0.690204 0.304188 0.922983
Si Si4 0.264139 0.541371 0.081392
Si Si5 0.759205 0.144416 0.785509
O O1 0.113705 0.386296 0.315756
O O2 0.028322 0.301965 0.372700
O O3 0.083636 0.271794 0.256335
O O4 0.000000 0.365398 0.250000
O O5 0.173368 0.995150 0.617130
O O6 0.064226 0.935148 0.658615
O O7 0.132841 0.000000 0.750000
O O8 0.753865 0.253865 0.918750
O O9 0.718159 0.378903 0.911250
O O10 0.638835 0.278996 0.865180
O O11 0.661820 0.300794 0.000000
O O12 0.256891 0.527151 0.000000
O O13 0.824795 0.175205 0.750000
O O14 0.701581 0.201581 0.781472
#
# Coordination Sequence:
#
# PCOD9572643 Si02
#       5
#    32  32  32  32  32
#     4  11  24  42  64  90 118 156 207 260 316 379
#     4   9  20  39  59  82 121 175 227 266 305 366
#     4   9  17  30  51  82 120 158 193 240 308 374
#     4  11  22  35  57  90 123 158 202 256 317 379
#     4   9  16  31  55  81 111 148 188 238 299 363
#
# _framework density 20.805997999999999
#
# number of rings (size 3 to 8) (size 9 to 14) (size 15 to 20)
#    0.000    2.200    2.000    1.800    0.000    7.000 
#    0.000    4.000    0.000    1.800    0.000    1.400 
#    0.000    0.000    0.000    0.000    0.000    0.000 
#
# Total GULP energy -447233.837904 kJ/mol
# GULP energy per Si atom -5590.422974 kJ/mol
# Density = 2.075864 g / cm^3
# Si number density = 20.805998 Si / 1000 Ang^3
#
#
#
# Elastic Constant Matrix: (Units=GPa)
#
#
# Indices 1 2 3 4 5 6 
#
# 1 74.0815 23.8509 38.8379 0.0000 0.0000 0.0000
# 2 23.8509 74.0820 38.8386 0.0000 0.0000 0.0000
# 3 38.8379 38.8386 162.2719 0.0000 0.0000 0.0000
# 4 0.0000 0.0000 0.0000 22.2248 0.0000 0.0000
# 5 0.0000 0.0000 0.0000 0.0000 22.2245 0.0000
# 6 0.0000 0.0000 0.0000 0.0000 0.0000 24.3638
#
#
#
# Elastic Compliance Matrix: (Units=1/GPa)
#
#
# Indices 1 2 3 4 5 6 
#
# 1 0.016256 -0.003652 -0.003017 0.000000 0.000000 0.000000
# 2 -0.003652 0.016256 -0.003017 0.000000 0.000000 0.000000
# 3 -0.003017 -0.003017 0.007606 0.000000 0.000000 0.000000
# 4 0.000000 0.000000 0.000000 0.044995 0.000000 0.000000
# 5 0.000000 0.000000 0.000000 0.000000 0.044995 0.000000
# 6 0.000000 0.000000 0.000000 0.000000 0.000000 0.041045
#
#
# Mechanical properties :
#
#
# Convention : Reuss Voigt Hill
#
# Bulk Modulus (GPa) = 48.19829 57.05446 52.62638
# Shear Modulus (GPa) = 25.32420 27.68982 26.50701
#
# Velocity S-wave (km/s) = 3.49257 3.65205 3.57320
# Velocity P-wave (km/s) = 6.28330 6.72792 6.50941
#
# Compressibility (1/GPa) = 0.02074762
#
# Stress axis : x y z
#
# Youngs Moduli (GPa) = 61.51600 61.51624 131.46693
#
# Poissons Ratio (x) = 0.22467 0.39658
# Poissons Ratio (y) = 0.22467 0.39659
# Poissons Ratio (z) = 0.18557 0.18557
#
# Static dielectric constant tensor:
#      x y z
#    x 1.764270 0.000000 0.000000 
#    y 0.000000 1.764270 0.000000 
#    z 0.000000 0.000000 1.759290 
# 
# From -- ./inp_files/6803.got.cif
#   From: 2010.05.17/outbox.cif.g08.bks.cpg/sg140_4_cif.got.tgz:6803.got - 2010.06.21 00:45:31.
