data_PCOD9572241
_publ_section_title
;
Structure prediction by ZEFSAII (Michael W. Deem and Ramdas Pophale) SiO2 
 PCOD9572241
Probable space group: I 4/M C M
;
_chemical_formula_sum "Si O2"
_cell_formula_units_Z 192
_cell_length_a 22.724956
_cell_length_b 22.724956
_cell_length_c 22.997639
_cell_angle_alpha 90.000000
_cell_angle_beta 90.000000
_cell_angle_gamma 90.000000
_cell_volume 11876.524103
_symmetry_space_group_name_H-M "I 4/M C M"
_symmetry_group_IT_number 140
_symmetry_cell_setting 'tetragonal'
loop_
_space_group_symop_operation_xyz
x,y,z
-y,x,z
-x,-y,z
y,-x,z
x,-y,1/2-z
-x,y,1/2-z
y,x,1/2-z
-y,-x,1/2-z
-x,-y,-z
y,-x,-z
x,y,-z
-y,x,-z
-x,y,1/2+z
x,-y,1/2+z
-y,-x,1/2+z
y,x,1/2+z
1/2+x,1/2+y,1/2+z
1/2-y,1/2+x,1/2+z
1/2-x,1/2-y,1/2+z
1/2+y,1/2-x,1/2+z
1/2+x,1/2-y,-z
1/2-x,1/2+y,-z
1/2+y,1/2+x,-z
1/2-y,1/2-x,-z
1/2-x,1/2-y,1/2-z
1/2+y,1/2-x,1/2-z
1/2+x,1/2+y,1/2-z
1/2-y,1/2+x,1/2-z
1/2-x,1/2+y,z
1/2+x,1/2-y,z
1/2-y,1/2-x,z
1/2+y,1/2+x,z
loop_
_atom_site_type_symbol
_atom_site_label
_atom_site_fract_x
_atom_site_fract_y
_atom_site_fract_z
Si Si1 0.707742 0.207742 0.932546
Si Si2 0.299466 0.381010 0.121459
Si Si3 0.691474 0.191474 0.565613
Si Si4 0.002591 0.836045 0.931996
Si Si5 0.907245 0.026247 0.676848
Si Si6 0.772660 0.105430 0.371119
Si Si7 0.691444 0.594783 0.747395
O O1 0.653311 0.240797 0.900225
O O2 0.758054 0.258054 0.934777
O O3 0.693077 0.193077 0.000000
O O4 0.319841 0.434537 0.080279
O O5 0.351578 0.331178 0.123724
O O6 0.292248 0.411973 0.185231
O O7 0.676657 0.176657 0.500000
O O8 0.719661 0.137438 0.598253
O O9 0.021947 0.890464 0.890956
O O10 0.045484 0.786482 0.905091
O O11 0.012878 0.845171 0.000000
O O12 0.852446 0.049415 0.714095
O O13 0.960922 0.069849 0.689183
O O14 0.759755 0.099020 0.302395
O O15 0.655930 0.655930 0.750000
#
# Coordination Sequence:
#
# PCOD9572241 Si02
#       7
#    16  32  16  32  32  32  32
#     4   9  18  33  51  69  89 117 152 189 238 299
#     4  10  20  33  50  69  90 120 155 197 247 294
#     4   9  16  29  47  65  89 119 152 185 226 287
#     4  11  21  32  46  65  91 121 160 207 249 290
#     4  10  21  33  45  62  88 130 174 206 238 278
#     4   9  19  31  46  67  90 120 153 191 238 284
#     4   9  18  31  45  63  87 113 153 199 237 278
#
# _framework density 16.166346000000001
#
# number of rings (size 3 to 8) (size 9 to 14) (size 15 to 20)
#    0.000    2.333    0.000    4.000    0.000   12.000 
#    0.000    6.667    0.000    0.000    0.000    0.000 
#    0.000    0.667    0.000    3.333    0.000    8.500 
#
# Total GULP energy -534624.479026 kJ/mol
# GULP energy per Si atom -5569.004990 kJ/mol
# Density = 1.612955 g / cm^3
# Si number density = 16.166346 Si / 1000 Ang^3
#
#
#
# Elastic Constant Matrix: (Units=GPa)
#
#
# Indices 1 2 3 4 5 6 
#
# 1 37.8918 15.5552 16.1408 0.0000 0.0000 0.0000
# 2 15.5552 37.8918 16.1408 0.0000 0.0000 0.0000
# 3 16.1408 16.1408 134.4221 0.0000 0.0000 0.0000
# 4 0.0000 0.0000 0.0000 21.1341 0.0000 0.0000
# 5 0.0000 0.0000 0.0000 0.0000 21.1341 0.0000
# 6 0.0000 0.0000 0.0000 0.0000 0.0000 22.7877
#
#
#
# Elastic Compliance Matrix: (Units=1/GPa)
#
#
# Indices 1 2 3 4 5 6 
#
# 1 0.032471 -0.012298 -0.002422 0.000000 0.000000 0.000000
# 2 -0.012298 0.032471 -0.002422 0.000000 0.000000 0.000000
# 3 -0.002422 -0.002422 0.008021 0.000000 0.000000 0.000000
# 4 0.000000 0.000000 0.000000 0.047317 0.000000 0.000000
# 5 0.000000 0.000000 0.000000 0.000000 0.047317 0.000000
# 6 0.000000 0.000000 0.000000 0.000000 0.000000 0.043883
#
#
# Mechanical properties :
#
#
# Convention : Reuss Voigt Hill
#
# Bulk Modulus (GPa) = 25.85442 33.98660 29.92051
# Shear Modulus (GPa) = 19.33045 23.83576 21.58311
#
# Velocity S-wave (km/s) = 3.46167 3.84397 3.65782
# Velocity P-wave (km/s) = 5.65730 6.38515 6.03221
#
# Compressibility (1/GPa) = 0.03867811
#
# Stress axis : x y z
#
# Youngs Moduli (GPa) = 30.79639 30.79639 124.67318
#
# Poissons Ratio (x) = 0.37874 0.30200
# Poissons Ratio (y) = 0.37874 0.30200
# Poissons Ratio (z) = 0.07460 0.07460
#
# Static dielectric constant tensor:
#      x y z
#    x 1.559580 0.000000 0.000000 
#    y 0.000000 1.559580 0.000000 
#    z 0.000000 0.000000 1.617530 
# 
# From -- ./inp_files/8648.got.cif
#   From: 2010.05.17/outbox.cif.g08.bks.cpg/sg140_5_cif.got.tgz:8648.got - 2010.06.21 00:45:31.
