data_PCOD9572008
_publ_section_title
;
Structure prediction by ZEFSAII (Michael W. Deem and Ramdas Pophale) SiO2 
 PCOD9572008
Probable space group: I 4/M C M
;
_chemical_formula_sum "Si O2"
_cell_formula_units_Z 128
_cell_length_a 17.970024
_cell_length_b 17.970024
_cell_length_c 21.322439
_cell_angle_alpha 90.000000
_cell_angle_beta 90.000000
_cell_angle_gamma 90.000000
_cell_volume 6885.479584
_symmetry_space_group_name_H-M "I 4/M C M"
_symmetry_group_IT_number 140
_symmetry_cell_setting 'tetragonal'
loop_
_space_group_symop_operation_xyz
x,y,z
-y,x,z
-x,-y,z
y,-x,z
x,-y,1/2-z
-x,y,1/2-z
y,x,1/2-z
-y,-x,1/2-z
-x,-y,-z
y,-x,-z
x,y,-z
-y,x,-z
-x,y,1/2+z
x,-y,1/2+z
-y,-x,1/2+z
y,x,1/2+z
1/2+x,1/2+y,1/2+z
1/2-y,1/2+x,1/2+z
1/2-x,1/2-y,1/2+z
1/2+y,1/2-x,1/2+z
1/2+x,1/2-y,-z
1/2-x,1/2+y,-z
1/2+y,1/2+x,-z
1/2-y,1/2-x,-z
1/2-x,1/2-y,1/2-z
1/2+y,1/2-x,1/2-z
1/2+x,1/2+y,1/2-z
1/2-y,1/2+x,1/2-z
1/2-x,1/2+y,z
1/2+x,1/2-y,z
1/2-y,1/2-x,z
1/2+y,1/2+x,z
loop_
_atom_site_type_symbol
_atom_site_label
_atom_site_fract_x
_atom_site_fract_y
_atom_site_fract_z
Si Si1 0.175742 0.675742 0.615465
Si Si2 0.845220 0.654781 0.262860
Si Si3 0.500000 0.772541 0.750000
Si Si4 0.204076 0.704076 0.107994
Si Si5 0.207848 0.060075 0.377575
Si Si6 0.178773 0.098054 0.071173
O O1 0.175715 0.675715 0.691656
O O2 0.234782 0.734782 0.589648
O O3 0.096538 0.713397 0.599185
O O4 0.824053 0.568606 0.271285
O O5 0.801811 0.698189 0.317049
O O6 0.469079 0.723229 0.807245
O O7 0.127981 0.737409 0.082234
O O8 0.145645 0.124598 0.383539
O O9 0.179754 0.989131 0.415670
O O10 0.155991 0.114136 0.000000
#
# Coordination Sequence:
#
# PCOD9572008 Si02
#       6
#    16  16  16  16  32  32
#     4   8  19  33  56  83 109 145 187 242 291 342
#     4  10  17  32  55  86 114 146 187 237 290 350
#     4  10  20  35  58  87 118 152 190 238 302 346
#     4  10  18  34  57  81 109 148 199 241 281 340
#     4  10  21  37  57  85 115 151 195 241 294 352
#     4  11  22  37  57  83 116 157 199 243 288 346
#
# _framework density 18.589843999999999
#
# number of rings (size 3 to 8) (size 9 to 14) (size 15 to 20)
#    0.000    2.000    2.500    1.500    0.000    1.750 
#    0.000    3.125    0.000    2.250    0.000    1.750 
#    0.000    0.000    0.000    0.000    0.000    0.000 
#
# Total GULP energy -356387.058907 kJ/mol
# GULP energy per Si atom -5568.547795 kJ/mol
# Density = 1.854753 g / cm^3
# Si number density = 18.589844 Si / 1000 Ang^3
#
#
#
# Elastic Constant Matrix: (Units=GPa)
#
#
# Indices 1 2 3 4 5 6 
#
# 1 77.8545 42.2365 18.0388 0.0000 0.0000 0.0000
# 2 42.2365 77.8545 18.0388 0.0000 0.0000 0.0000
# 3 18.0388 18.0388 54.7800 0.0000 0.0000 0.0000
# 4 0.0000 0.0000 0.0000 16.9912 0.0000 0.0000
# 5 0.0000 0.0000 0.0000 0.0000 16.9912 0.0000
# 6 0.0000 0.0000 0.0000 0.0000 0.0000 25.6661
#
#
#
# Elastic Compliance Matrix: (Units=1/GPa)
#
#
# Indices 1 2 3 4 5 6 
#
# 1 0.018658 -0.009417 -0.003043 0.000000 0.000000 0.000000
# 2 -0.009417 0.018658 -0.003043 0.000000 0.000000 0.000000
# 3 -0.003043 -0.003043 0.020259 0.000000 0.000000 0.000000
# 4 0.000000 0.000000 0.000000 0.058854 0.000000 0.000000
# 5 0.000000 0.000000 0.000000 0.000000 0.058854 0.000000
# 6 0.000000 0.000000 0.000000 0.000000 0.000000 0.038962
#
#
# Mechanical properties :
#
#
# Convention : Reuss Voigt Hill
#
# Bulk Modulus (GPa) = 37.63774 40.79078 39.21426
# Shear Modulus (GPa) = 19.67662 20.74138 20.20900
#
# Velocity S-wave (km/s) = 3.25693 3.34389 3.30070
# Velocity P-wave (km/s) = 5.86803 6.07445 5.97213
#
# Compressibility (1/GPa) = 0.02656908
#
# Stress axis : x y z
#
# Youngs Moduli (GPa) = 53.59501 53.59501 49.36085
#
# Poissons Ratio (x) = 0.50472 0.15021
# Poissons Ratio (y) = 0.50472 0.15021
# Poissons Ratio (z) = 0.16309 0.16309
#
# Static dielectric constant tensor:
#      x y z
#    x 1.651360 0.000000 0.000000 
#    y 0.000000 1.651360 0.000000 
#    z 0.000000 0.000000 1.660000 
# 
# From -- ./inp_files/9374.got.cif
#   From: 2010.05.17/outbox.cif.g08.bks.cpg/sg140_5_cif.got.tgz:9374.got - 2010.06.21 00:45:31.
