data_PCOD9572618
_publ_section_title
;
Structure prediction by ZEFSAII (Michael W. Deem and Ramdas Pophale) SiO2 
 PCOD9572618
Probable space group: I 4/M C M
;
_chemical_formula_sum "Si O2"
_cell_formula_units_Z 224
_cell_length_a 24.553496
_cell_length_b 24.553496
_cell_length_c 23.906352
_cell_angle_alpha 90.000000
_cell_angle_beta 90.000000
_cell_angle_gamma 90.000000
_cell_volume 14412.522020
_symmetry_space_group_name_H-M "I 4/M C M"
_symmetry_group_IT_number 140
_symmetry_cell_setting 'tetragonal'
loop_
_space_group_symop_operation_xyz
x,y,z
-y,x,z
-x,-y,z
y,-x,z
x,-y,1/2-z
-x,y,1/2-z
y,x,1/2-z
-y,-x,1/2-z
-x,-y,-z
y,-x,-z
x,y,-z
-y,x,-z
-x,y,1/2+z
x,-y,1/2+z
-y,-x,1/2+z
y,x,1/2+z
1/2+x,1/2+y,1/2+z
1/2-y,1/2+x,1/2+z
1/2-x,1/2-y,1/2+z
1/2+y,1/2-x,1/2+z
1/2+x,1/2-y,-z
1/2-x,1/2+y,-z
1/2+y,1/2+x,-z
1/2-y,1/2-x,-z
1/2-x,1/2-y,1/2-z
1/2+y,1/2-x,1/2-z
1/2+x,1/2+y,1/2-z
1/2-y,1/2+x,1/2-z
1/2-x,1/2+y,z
1/2+x,1/2-y,z
1/2-y,1/2-x,z
1/2+y,1/2+x,z
loop_
_atom_site_type_symbol
_atom_site_label
_atom_site_fract_x
_atom_site_fract_y
_atom_site_fract_z
Si Si1 0.288672 0.122073 0.060154
Si Si2 0.651768 0.939056 0.500000
Si Si3 0.025253 0.613118 0.306621
Si Si4 0.263646 0.329696 0.876351
Si Si5 0.844605 0.250527 0.174832
Si Si6 0.742677 0.148556 0.000000
Si Si7 0.880732 0.533267 0.581893
Si Si8 0.389760 0.203745 0.285942
O O1 0.319660 0.180341 0.059176
O O2 0.257222 0.120748 0.118150
O O3 0.335716 0.077135 0.064505
O O4 0.260126 0.115949 0.000000
O O5 0.610241 0.889760 0.500000
O O6 0.710512 0.909517 0.500000
O O7 0.636637 0.977711 0.448042
O O8 0.070867 0.570867 0.328465
O O9 0.055137 0.669480 0.290683
O O10 0.000000 0.590819 0.250000
O O11 0.978906 0.620261 0.352527
O O12 0.217647 0.282354 0.878316
O O13 0.310951 0.304416 0.837405
O O14 0.237586 0.379449 0.842347
O O15 0.274755 0.343763 0.941335
O O16 0.799035 0.299035 0.177007
O O17 0.879673 0.259446 0.230846
O O18 0.696038 0.196038 0.000000
O O19 0.939005 0.560996 0.567486
O O20 0.342308 0.157692 0.283784
#
# Coordination Sequence:
#
# PCOD9572618 Si02
#       8
#    32  16  32  32  32  16  32  32
#     4   9  17  29  42  58  80 100 125 167 216 261
#     4  11  21  32  44  56  74 104 139 178 223 265
#     4  11  22  33  45  58  77 104 139 185 233 269
#     4   9  16  26  42  61  82 101 122 151 193 256
#     4   9  16  25  43  63  79  99 122 151 198 259
#     4   9  18  29  39  57  80 102 127 160 206 254
#     4  11  21  33  45  58  75 103 141 184 229 268
#     4   9  17  30  42  58  80 103 128 161 208 259
#
# _framework density 15.542040999999999
#
# number of rings (size 3 to 8) (size 9 to 14) (size 15 to 20)
#    0.000    2.286    0.714    3.214    1.000    8.429 
#    0.000    0.000    0.000    0.000    0.000    0.000 
#    0.000    0.000    0.000    0.000    0.000    0.000 
#
# Total GULP energy -623535.293991 kJ/mol
# GULP energy per Si atom -5567.279411 kJ/mol
# Density = 1.550667 g / cm^3
# Si number density = 15.542041 Si / 1000 Ang^3
#
#
#
# Elastic Constant Matrix: (Units=GPa)
#
#
# Indices 1 2 3 4 5 6 
#
# 1 15.9195 18.3693 5.4602 0.0000 0.0000 0.0000
# 2 18.3693 15.9195 5.4608 0.0000 0.0000 0.0000
# 3 5.4602 5.4608 90.3504 0.0000 0.0000 0.0000
# 4 0.0000 0.0000 0.0000 27.6826 0.0000 0.0000
# 5 0.0000 0.0000 0.0000 0.0000 27.6776 0.0000
# 6 0.0000 0.0000 0.0000 0.0000 0.0000 14.9583
#
#
#
# Elastic Compliance Matrix: (Units=1/GPa)
#
#
# Indices 1 2 3 4 5 6 
#
# 1 -0.189229 0.218966 -0.001799 0.000000 0.000000 0.000000
# 2 0.218966 -0.189230 -0.001796 0.000000 0.000000 0.000000
# 3 -0.001799 -0.001796 0.011285 0.000000 0.000000 0.000000
# 4 0.000000 0.000000 0.000000 0.036124 0.000000 0.000000
# 5 0.000000 0.000000 0.000000 0.000000 0.036130 0.000000
# 6 0.000000 0.000000 0.000000 0.000000 0.000000 0.066852
#
#
# Mechanical properties :
#
#
# Convention : Reuss Voigt Hill
#
# Bulk Modulus (GPa) = 15.73083 20.08555 17.90819
# Shear Modulus (GPa) = -7.84168 20.25697 6.20765
#
# Velocity S-wave (km/s) = -2.24865 3.61413 2.00069
# Velocity P-wave (km/s) = 1.84433 5.51066 4.10907
#
# Compressibility (1/GPa) = 0.06356944
#
# Stress axis : x y z
#
# Youngs Moduli (GPa) = -5.28461 -5.28459 88.61121
#
# Poissons Ratio (x) = 1.15714 0.15938
# Poissons Ratio (y) = 1.15715 0.15912
# Poissons Ratio (z) = -0.00951 -0.00949
#
# Static dielectric constant tensor:
#      x y z
#    x 1.515650 0.000000 0.000000 
#    y 0.000000 1.515650 0.000000 
#    z 0.000000 0.000000 1.580390 
# 
# From -- ./inp_files/10040.got.cif
#   From: 2010.05.17/outbox.cif.g08.bks.cpg/sg140_6_cif.got.tgz:10040.got - 2010.06.21 00:45:31.
