data_PCOD9572141
_publ_section_title
;
Structure prediction by ZEFSAII (Michael W. Deem and Ramdas Pophale) SiO2 
 PCOD9572141
Probable space group: I 4/M C M
;
_chemical_formula_sum "Si O2"
_cell_formula_units_Z 128
_cell_length_a 30.603721
_cell_length_b 30.603721
_cell_length_c 8.467625
_cell_angle_alpha 90.000000
_cell_angle_beta 90.000000
_cell_angle_gamma 90.000000
_cell_volume 7930.673754
_symmetry_space_group_name_H-M "I 4/M C M"
_symmetry_group_IT_number 140
_symmetry_cell_setting 'tetragonal'
loop_
_space_group_symop_operation_xyz
x,y,z
-y,x,z
-x,-y,z
y,-x,z
x,-y,1/2-z
-x,y,1/2-z
y,x,1/2-z
-y,-x,1/2-z
-x,-y,-z
y,-x,-z
x,y,-z
-y,x,-z
-x,y,1/2+z
x,-y,1/2+z
-y,-x,1/2+z
y,x,1/2+z
1/2+x,1/2+y,1/2+z
1/2-y,1/2+x,1/2+z
1/2-x,1/2-y,1/2+z
1/2+y,1/2-x,1/2+z
1/2+x,1/2-y,-z
1/2-x,1/2+y,-z
1/2+y,1/2+x,-z
1/2-y,1/2-x,-z
1/2-x,1/2-y,1/2-z
1/2+y,1/2-x,1/2-z
1/2+x,1/2+y,1/2-z
1/2-y,1/2+x,1/2-z
1/2-x,1/2+y,z
1/2+x,1/2-y,z
1/2-y,1/2-x,z
1/2+y,1/2+x,z
loop_
_atom_site_type_symbol
_atom_site_label
_atom_site_fract_x
_atom_site_fract_y
_atom_site_fract_z
Si Si1 0.626628 0.873373 0.183175
Si Si2 0.456247 0.826677 0.814623
Si Si3 0.200726 0.299275 0.317275
Si Si4 0.770857 0.047281 0.686453
Si Si5 0.285657 0.353458 0.307976
O O1 0.585127 0.854939 0.272088
O O2 0.663754 0.836247 0.184181
O O3 0.616874 0.883127 0.000000
O O4 0.500000 0.848609 0.750000
O O5 0.452388 0.780759 0.723564
O O6 0.459483 0.817797 0.000000
O O7 0.211660 0.288341 0.500000
O O8 0.244172 0.323431 0.250820
O O9 0.778238 0.046583 0.500000
O O10 0.785562 0.095597 0.745644
O O11 0.787528 0.000000 0.750000
O O12 0.328488 0.328488 0.250000
O O13 0.283105 0.354242 0.500000
#
# Coordination Sequence:
#
# PCOD9572141 Si02
#       5
#    16  32  16  32  32
#     4  11  19  34  54  71  98 128 161 208 252 293
#     4  11  21  33  50  74  97 124 163 205 252 302
#     4   9  17  32  48  66  98 136 166 199 244 284
#     4  10  19  33  51  71  97 130 166 208 253 291
#     4  10  20  33  49  70  99 137 171 204 247 292
#
# _framework density 16.139865
#
# number of rings (size 3 to 8) (size 9 to 14) (size 15 to 20)
#    0.000    1.750    2.500    5.250    0.000    2.000 
#    0.000    0.000    0.000    0.375    0.000    2.625 
#    0.000    0.500    0.000    5.500    0.000    4.000 
#
# Total GULP energy -356524.245176 kJ/mol
# GULP energy per Si atom -5570.691331 kJ/mol
# Density = 1.610313 g / cm^3
# Si number density = 16.139865 Si / 1000 Ang^3
#
#
#
# Elastic Constant Matrix: (Units=GPa)
#
#
# Indices 1 2 3 4 5 6 
#
# 1 81.2133 72.6045 8.8755 0.0000 0.0000 0.0000
# 2 72.6045 81.2151 8.8758 0.0000 0.0000 0.0000
# 3 8.8755 8.8758 14.8769 0.0000 0.0000 0.0000
# 4 0.0000 0.0000 0.0000 17.4430 0.0000 0.0000
# 5 0.0000 0.0000 0.0000 0.0000 17.4430 0.0000
# 6 0.0000 0.0000 0.0000 0.0000 0.0000 15.1702
#
#
#
# Elastic Compliance Matrix: (Units=1/GPa)
#
#
# Indices 1 2 3 4 5 6 
#
# 1 0.061566 -0.054583 -0.004165 0.000000 0.000000 0.000000
# 2 -0.054583 0.061564 -0.004166 0.000000 0.000000 0.000000
# 3 -0.004165 -0.004166 0.072189 0.000000 0.000000 0.000000
# 4 0.000000 0.000000 0.000000 0.057330 0.000000 0.000000
# 5 0.000000 0.000000 0.000000 0.000000 0.057330 0.000000
# 6 0.000000 0.000000 0.000000 0.000000 0.000000 0.065919
#
#
# Mechanical properties :
#
#
# Convention : Reuss Voigt Hill
#
# Bulk Modulus (GPa) = 14.39041 39.77966 27.08504
# Shear Modulus (GPa) = 9.52583 15.80786 12.66684
#
# Velocity S-wave (km/s) = 2.43205 3.13298 2.80450
# Velocity P-wave (km/s) = 4.10145 6.14717 5.22540
#
# Compressibility (1/GPa) = 0.06949073
#
# Stress axis : x y z
#
# Youngs Moduli (GPa) = 16.24283 16.24314 13.85256
#
# Poissons Ratio (x) = 0.88660 0.05769
# Poissons Ratio (y) = 0.88659 0.05771
# Poissons Ratio (z) = 0.06764 0.06767
#
# Static dielectric constant tensor:
#      x y z
#    x 1.552000 0.000000 0.000000 
#    y 0.000000 1.552000 0.000000 
#    z 0.000000 0.000000 1.576650 
# 
# From -- ./inp_files/1490.got.cif
#   From: 2010.05.17/outbox.cif.g08.bks.cpg/sg140_1_cif.got.tgz:1490.got - 2010.06.21 00:45:31.
