data_PCOD9572793
_publ_section_title
;
Structure prediction by ZEFSAII (Michael W. Deem and Ramdas Pophale) SiO2 
 PCOD9572793
Probable space group: I 41/A M D
;
_chemical_formula_sum "Si O2"
_cell_formula_units_Z 160
_cell_length_a 18.737278
_cell_length_b 18.737278
_cell_length_c 25.379590
_cell_angle_alpha 90.000000
_cell_angle_beta 90.000000
_cell_angle_gamma 90.000000
_cell_volume 8910.408249
_symmetry_space_group_name_H-M "I 41/A M D"
_symmetry_group_IT_number 141
_space_group.IT_coordinate_system_code '2'
_symmetry_cell_setting 'tetragonal'
loop_
_space_group_symop_operation_xyz
x,y,z
1/4-y,3/4+x,1/4+z
-x,1/2-y,z
1/4+y,1/4-x,3/4+z
x,-y,-z
-x,1/2+y,-z
1/4+y,3/4+x,1/4-z
1/4-y,1/4-x,3/4-z
-x,-y,-z
3/4+y,1/4-x,3/4-z
x,1/2+y,-z
3/4-y,3/4+x,1/4-z
-x,y,z
x,1/2-y,z
3/4-y,1/4-x,3/4+z
3/4+y,3/4+x,1/4+z
1/2+x,1/2+y,1/2+z
3/4-y,1/4+x,3/4+z
1/2-x,-y,1/2+z
3/4+y,3/4-x,1/4+z
1/2+x,1/2-y,1/2-z
1/2-x,y,1/2-z
3/4+y,1/4+x,3/4-z
3/4-y,3/4-x,1/4-z
1/2-x,1/2-y,1/2-z
1/4+y,3/4-x,1/4-z
1/2+x,y,1/2-z
1/4-y,1/4+x,3/4-z
1/2-x,1/2+y,1/2+z
1/2+x,-y,1/2+z
1/4-y,3/4-x,1/4+z
1/4+y,1/4+x,3/4+z
loop_
_atom_site_type_symbol
_atom_site_label
_atom_site_fract_x
_atom_site_fract_y
_atom_site_fract_z
Si Si1 0.919192 0.334920 0.138353
Si Si2 0.177035 0.396438 0.045478
Si Si3 0.303490 0.166538 0.106930
Si Si4 0.810239 0.938400 0.067543
Si Si5 0.358672 0.045736 0.947142
O O1 0.920956 0.250000 0.139960
O O2 0.876561 0.356834 0.085125
O O3 0.875245 0.361325 0.189542
O O4 0.000000 0.362884 0.137423
O O5 0.258078 0.371796 0.060307
O O6 0.166543 0.480068 0.057703
O O7 0.168377 0.390796 0.982584
O O8 0.373780 0.123780 0.125000
O O9 0.314781 0.250000 0.096437
O O10 0.249802 0.154353 0.155584
O O11 0.835509 0.914492 0.125000
O O12 0.724115 0.946581 0.068794
O O13 0.362268 0.000000 0.000000
#
# Coordination Sequence:
#
# PCOD9572793 Si02
#       5
#    32  32  32  32  32
#     4  10  22  39  57  79 115 160 198 233 285 354
#     4  10  18  34  58  83 106 150 189 237 293 353
#     4  11  20  34  52  77 111 154 199 233 283 348
#     4  11  17  31  60  85 111 137 184 242 302 343
#     4  11  18  34  58  84 111 144 189 242 290 337
#
# _framework density 17.956527999999999
#
# number of rings (size 3 to 8) (size 9 to 14) (size 15 to 20)
#    0.000    1.400    8.000    2.400    0.000    1.800 
#    0.000    7.000    0.000    0.000    0.000    1.400 
#    0.000    0.000    0.000    0.000    0.000    0.000 
#
# Total GULP energy -445593.340755 kJ/mol
# GULP energy per Si atom -5569.916759 kJ/mol
# Density = 1.791566 g / cm^3
# Si number density = 17.956528 Si / 1000 Ang^3
#
#
#
# Elastic Constant Matrix: (Units=GPa)
#
#
# Indices 1 2 3 4 5 6 
#
# 1 67.0638 24.2123 20.2436 0.0000 0.0000 0.0000
# 2 24.2123 67.0639 20.2442 0.0000 0.0000 0.0000
# 3 20.2436 20.2442 135.3968 0.0000 0.0000 0.0000
# 4 0.0000 0.0000 0.0000 13.4454 0.0000 0.0000
# 5 0.0000 0.0000 0.0000 0.0000 13.4454 0.0000
# 6 0.0000 0.0000 0.0000 0.0000 0.0000 22.2623
#
#
#
# Elastic Compliance Matrix: (Units=1/GPa)
#
#
# Indices 1 2 3 4 5 6 
#
# 1 0.017535 -0.005801 -0.001754 0.000000 0.000000 0.000000
# 2 -0.005801 0.017535 -0.001754 0.000000 0.000000 0.000000
# 3 -0.001754 -0.001754 0.007910 0.000000 0.000000 0.000000
# 4 0.000000 0.000000 0.000000 0.074375 0.000000 0.000000
# 5 0.000000 0.000000 0.000000 0.000000 0.074375 0.000000
# 6 0.000000 0.000000 0.000000 0.000000 0.000000 0.044919
#
#
# Mechanical properties :
#
#
# Convention : Reuss Voigt Hill
#
# Bulk Modulus (GPa) = 41.04984 44.32498 42.68741
# Shear Modulus (GPa) = 18.98328 23.48556 21.23442
#
# Velocity S-wave (km/s) = 3.25496 3.62043 3.44255
# Velocity P-wave (km/s) = 6.08577 6.49730 6.29490
#
# Compressibility (1/GPa) = 0.02436063
#
# Stress axis : x y z
#
# Youngs Moduli (GPa) = 57.02821 57.02811 126.41705
#
# Poissons Ratio (x) = 0.33083 0.22178
# Poissons Ratio (y) = 0.33083 0.22179
# Poissons Ratio (z) = 0.10005 0.10005
#
# Static dielectric constant tensor:
#      x y z
#    x 1.626330 0.000000 0.000000 
#    y 0.000000 1.626330 0.000000 
#    z 0.000000 0.000000 1.678030 
# 
# From -- ./inp_files/12725.got.cif
#   From: 2010.05.17/outbox.cif.g08.bks.cpg/sg141_7_cif.got.tgz:12725.got - 2010.05.20 13:30:51.
