data_PCOD9572811
_publ_section_title
;
Structure prediction by ZEFSAII (Michael W. Deem and Ramdas Pophale) SiO2 
 PCOD9572811
Probable space group: I 41/A M D
;
_chemical_formula_sum "Si O2"
_cell_formula_units_Z 132
_cell_length_a 20.674131
_cell_length_b 20.674131
_cell_length_c 15.976384
_cell_angle_alpha 90.000000
_cell_angle_beta 90.000000
_cell_angle_gamma 90.000000
_cell_volume 6828.621138
_symmetry_space_group_name_H-M "I 41/A M D"
_symmetry_group_IT_number 141
_space_group.IT_coordinate_system_code '2'
_symmetry_cell_setting 'tetragonal'
loop_
_space_group_symop_operation_xyz
x,y,z
1/4-y,3/4+x,1/4+z
-x,1/2-y,z
1/4+y,1/4-x,3/4+z
x,-y,-z
-x,1/2+y,-z
1/4+y,3/4+x,1/4-z
1/4-y,1/4-x,3/4-z
-x,-y,-z
3/4+y,1/4-x,3/4-z
x,1/2+y,-z
3/4-y,3/4+x,1/4-z
-x,y,z
x,1/2-y,z
3/4-y,1/4-x,3/4+z
3/4+y,3/4+x,1/4+z
1/2+x,1/2+y,1/2+z
3/4-y,1/4+x,3/4+z
1/2-x,-y,1/2+z
3/4+y,3/4-x,1/4+z
1/2+x,1/2-y,1/2-z
1/2-x,y,1/2-z
3/4+y,1/4+x,3/4-z
3/4-y,3/4-x,1/4-z
1/2-x,1/2-y,1/2-z
1/4+y,3/4-x,1/4-z
1/2+x,y,1/2-z
1/4-y,1/4+x,3/4-z
1/2-x,1/2+y,1/2+z
1/2+x,-y,1/2+z
1/4-y,3/4-x,1/4+z
1/4+y,1/4+x,3/4+z
loop_
_atom_site_type_symbol
_atom_site_label
_atom_site_fract_x
_atom_site_fract_y
_atom_site_fract_z
Si Si1 0.392198 0.874535 0.673212
Si Si2 0.756979 0.611778 0.150096
Si Si3 0.301812 0.250000 0.673247
Si Si4 0.000000 0.612987 0.698473
Si Si5 0.000000 0.575877 0.504899
Si Si6 0.000000 0.750000 0.625000
Si Si7 0.577338 0.250000 0.791845
O O1 0.437586 0.902846 0.746989
O O2 0.354004 0.814095 0.711050
O O3 0.438590 0.847483 0.599324
O O4 0.353309 0.935673 0.638349
O O5 0.806493 0.556493 0.125000
O O6 0.750000 0.611373 0.250000
O O7 0.785811 0.682949 0.126580
O O8 0.250000 0.250000 0.750000
O O9 0.373990 0.250000 0.712375
O O10 0.000000 0.690183 0.687141
O O11 0.000000 0.590957 0.603514
O O12 0.000000 0.500000 0.500000
O O13 0.500000 0.250000 0.774873
#
# Coordination Sequence:
#
# PCOD9572811 Si02
#       7
#    32  32  16  16  16   4  16
#     4  11  21  39  66  93 125 172 219 268 334 395
#     4  11  24  44  69  93 129 179 230 277 335 416
#     4  10  18  43  66  93 128 163 213 285 336 397
#     4  11  21  38  64  95 121 159 208 269 327 398
#     4  12  25  38  55  92 139 169 213 277 321 384
#     4  12  16  36  72  92 132 160 210 252 324 408
#     4  11  19  35  71 100 123 160 214 271 346 400
#
# _framework density 19.330403
#
# number of rings (size 3 to 8) (size 9 to 14) (size 15 to 20)
#    0.000    0.970    8.485    0.727    1.697    2.909 
#    2.182    1.212    0.000    0.000    0.000    0.000 
#    0.000    0.000    0.000    0.000    0.000    0.000 
#
# Total GULP energy -368494.883377 kJ/mol
# GULP energy per Si atom -5583.255809 kJ/mol
# Density = 1.928641 g / cm^3
# Si number density = 19.330403 Si / 1000 Ang^3
#
#
#
# Elastic Constant Matrix: (Units=GPa)
#
#
# Indices 1 2 3 4 5 6 
#
# 1 135.9986 72.6279 42.2710 0.0000 0.0000 0.0000
# 2 72.6279 135.9986 42.2710 0.0000 0.0000 0.0000
# 3 42.2710 42.2710 65.9534 0.0000 0.0000 0.0000
# 4 0.0000 0.0000 0.0000 -7.2161 0.0000 0.0000
# 5 0.0000 0.0000 0.0000 0.0000 -7.2161 0.0000
# 6 0.0000 0.0000 0.0000 0.0000 0.0000 30.0496
#
#
#
# Elastic Compliance Matrix: (Units=1/GPa)
#
#
# Indices 1 2 3 4 5 6 
#
# 1 0.011128 -0.004653 -0.004150 0.000000 0.000000 0.000000
# 2 -0.004653 0.011128 -0.004150 0.000000 0.000000 0.000000
# 3 -0.004150 -0.004150 0.020482 0.000000 0.000000 0.000000
# 4 0.000000 0.000000 0.000000 -0.138580 0.000000 0.000000
# 5 0.000000 0.000000 0.000000 0.000000 -0.138580 0.000000
# 6 0.000000 0.000000 0.000000 0.000000 0.000000 0.033278
#
#
# Mechanical properties :
#
#
# Convention : Reuss Voigt Hill
#
# Bulk Modulus (GPa) = 59.41088 72.47672 65.94380
# Shear Modulus (GPa) = -29.47615 15.17554 -7.15031
#
# Velocity S-wave (km/s) = -3.90918 2.80493 -1.92536
# Velocity P-wave (km/s) = 3.22886 6.93291 5.40790
#
# Compressibility (1/GPa) = 0.01683193
#
# Stress axis : x y z
#
# Youngs Moduli (GPa) = 89.86706 89.86706 48.82383
#
# Poissons Ratio (x) = 0.41812 0.20262
# Poissons Ratio (y) = 0.41812 0.20262
# Poissons Ratio (z) = 0.37294 0.37294
#
# Static dielectric constant tensor:
#      x y z
#    x 1.689680 0.000000 0.000000 
#    y 0.000000 1.689680 0.000000 
#    z 0.000000 0.000000 1.522410 
# 
# From -- ./inp_files/6349.got.cif
#   From: 2010.05.17/outbox.cif.g08.bks.cpg/sg141_4_cif.got.tgz:6349.got - 2010.05.20 13:30:51.
