data_PCOD9572708
_publ_section_title
;
Structure prediction by ZEFSAII (Michael W. Deem and Ramdas Pophale) SiO2 
 PCOD9572708
Probable space group: I 4/M C M
;
_chemical_formula_sum "Si O2"
_cell_formula_units_Z 64
_cell_length_a 30.000000
_cell_length_b 30.000000
_cell_length_c 9.000000
_cell_angle_alpha 90.000000
_cell_angle_beta 90.000000
_cell_angle_gamma 90.000000
_cell_volume 8100.000000
_symmetry_space_group_name_H-M "I 4/M C M"
_symmetry_group_IT_number 140
_symmetry_cell_setting 'tetragonal'
loop_
_space_group_symop_operation_xyz
x,y,z
-y,x,z
-x,-y,z
y,-x,z
x,-y,1/2-z
-x,y,1/2-z
y,x,1/2-z
-y,-x,1/2-z
-x,-y,-z
y,-x,-z
x,y,-z
-y,x,-z
-x,y,1/2+z
x,-y,1/2+z
-y,-x,1/2+z
y,x,1/2+z
1/2+x,1/2+y,1/2+z
1/2-y,1/2+x,1/2+z
1/2-x,1/2-y,1/2+z
1/2+y,1/2-x,1/2+z
1/2+x,1/2-y,-z
1/2-x,1/2+y,-z
1/2+y,1/2+x,-z
1/2-y,1/2-x,-z
1/2-x,1/2-y,1/2-z
1/2+y,1/2-x,1/2-z
1/2+x,1/2+y,1/2-z
1/2-y,1/2+x,1/2-z
1/2-x,1/2+y,z
1/2+x,1/2-y,z
1/2-y,1/2-x,z
1/2+y,1/2+x,z
loop_
_atom_site_type_symbol
_atom_site_label
_atom_site_fract_x
_atom_site_fract_y
_atom_site_fract_z
Si Si1 0.227724 0.045839 0.670181
Si Si2 0.148759 0.785335 0.319509
Si Si3 0.704375 0.795626 0.829188
Si Si4 0.664743 0.043933 0.831574
Si Si5 0.870807 0.370807 0.166069
O O1 0.211986 0.043888 0.500000
O O2 0.217720 0.096319 0.725979
O O3 0.281507 0.043713 0.670103
O O4 0.212335 0.000000 0.750000
O O5 0.170557 0.829444 0.250000
O O6 0.150734 0.784249 0.500000
O O7 0.179985 0.745243 0.255205
O O8 0.666773 0.833228 0.838738
O O9 0.717172 0.782829 0.000000
O O10 0.648677 0.087304 0.749460
O O11 0.648648 0.000000 0.750000
O O12 0.649526 0.044382 0.000000
O O13 0.883432 0.383432 0.000000
#
# Coordination Sequence:
#
# PCOD9572708 Si02
#       5
#    32  32  16  32  16
#     4   9  19  33  51  72  97 127 164 206 249 290
#     4  11  22  36  51  72 102 138 173 208 248 295
#     4  11  22  34  49  71  99 137 175 210 245 289
#     4  10  19  33  51  72  96 124 159 205 254 300
#     4  11  21  32  50  74  98 126 165 206 249 300
#
# _framework density 7.9012349999999998
#
# number of rings (size 3 to 8) (size 9 to 14) (size 15 to 20)
#    0.000    1.750    2.500    2.625    0.000    4.000 
#    0.000    0.000    0.000    0.375    0.000    2.625 
#    0.000    0.500    0.000    5.500    0.000    4.000 
#
# Total GULP energy -356575.398268 kJ/mol
# GULP energy per Si atom -5571.490598 kJ/mol
# Density = 0.788325 g / cm^3
# Si number density = 7.901235 Si / 1000 Ang^3
#
#
#
# Elastic Constant Matrix: (Units=GPa)
#
#
# Indices 1 2 3 4 5 6 
#
# 1 97.1089 13.2069 40.7250 0.0000 0.0000 0.0000
# 2 13.2069 97.1023 40.7224 0.0000 0.0000 0.0000
# 3 40.7250 40.7224 102.5721 0.0000 0.0000 0.0000
# 4 0.0000 0.0000 0.0000 33.4353 0.0000 0.0000
# 5 0.0000 0.0000 0.0000 0.0000 33.4375 0.0000
# 6 0.0000 0.0000 0.0000 0.0000 0.0000 17.5928
#
#
#
# Elastic Compliance Matrix: (Units=1/GPa)
#
#
# Indices 1 2 3 4 5 6 
#
# 1 0.012371 0.000453 -0.005092 0.000000 0.000000 0.000000
# 2 0.000453 0.012372 -0.005092 0.000000 0.000000 0.000000
# 3 -0.005092 -0.005092 0.013792 0.000000 0.000000 0.000000
# 4 0.000000 0.000000 0.000000 0.029909 0.000000 0.000000
# 5 0.000000 0.000000 0.000000 0.000000 0.029907 0.000000
# 6 0.000000 0.000000 0.000000 0.000000 0.000000 0.056842
#
#
# Mechanical properties :
#
#
# Convention : Reuss Voigt Hill
#
# Bulk Modulus (GPa) = 52.42557 54.01021 53.21789
# Shear Modulus (GPa) = 27.62250 30.36839 28.99545
#
# Velocity S-wave (km/s) = 4.18543 4.38853 4.28818
# Velocity P-wave (km/s) = 7.52361 7.74154 7.63335
#
# Compressibility (1/GPa) = 0.01907466
#
# Stress axis : x y z
#
# Youngs Moduli (GPa) = 80.83119 80.82666 72.50444
#
# Poissons Ratio (x) = -0.03659 0.36917
# Poissons Ratio (y) = -0.03659 0.36917
# Poissons Ratio (z) = 0.41156 0.41154
#
# Static dielectric constant tensor:
#      x y z
#    x 1.514820 0.000000 0.000000 
#    y 0.000000 1.514820 0.000000 
#    z 0.000000 0.000000 1.557490 
# 
# From -- ./inp_files/1483.got.cif
#   From: 2010.05.17/outbox.ucp.g08.bks.cvg/sg140_1_cif.got.tgz:1483.got - 2010.06.11 11:42:50.
