data_PCOD9572717
_publ_section_title
;
Structure prediction by ZEFSAII (Michael W. Deem and Ramdas Pophale) SiO2 
 PCOD9572717
Probable space group: I 4/M C M
;
_chemical_formula_sum "Si O2"
_cell_formula_units_Z 120
_cell_length_a 21.000000
_cell_length_b 21.000000
_cell_length_c 30.000000
_cell_angle_alpha 90.000000
_cell_angle_beta 90.000000
_cell_angle_gamma 90.000000
_cell_volume 13230.000000
_symmetry_space_group_name_H-M "I 4/M C M"
_symmetry_group_IT_number 140
_symmetry_cell_setting 'tetragonal'
loop_
_space_group_symop_operation_xyz
x,y,z
-y,x,z
-x,-y,z
y,-x,z
x,-y,1/2-z
-x,y,1/2-z
y,x,1/2-z
-y,-x,1/2-z
-x,-y,-z
y,-x,-z
x,y,-z
-y,x,-z
-x,y,1/2+z
x,-y,1/2+z
-y,-x,1/2+z
y,x,1/2+z
1/2+x,1/2+y,1/2+z
1/2-y,1/2+x,1/2+z
1/2-x,1/2-y,1/2+z
1/2+y,1/2-x,1/2+z
1/2+x,1/2-y,-z
1/2-x,1/2+y,-z
1/2+y,1/2+x,-z
1/2-y,1/2-x,-z
1/2-x,1/2-y,1/2-z
1/2+y,1/2-x,1/2-z
1/2+x,1/2+y,1/2-z
1/2-y,1/2+x,1/2-z
1/2-x,1/2+y,z
1/2+x,1/2-y,z
1/2-y,1/2-x,z
1/2+y,1/2+x,z
loop_
_atom_site_type_symbol
_atom_site_label
_atom_site_fract_x
_atom_site_fract_y
_atom_site_fract_z
Si Si1 0.055936 0.342768 0.947055
Si Si2 0.812983 0.414250 0.946416
Si Si3 0.337384 0.578299 0.824276
Si Si4 0.330599 0.383419 0.421570
Si Si5 0.747072 0.143130 0.886830
Si Si6 0.647580 0.249098 0.267195
Si Si7 0.428379 0.420010 0.000000
Si Si8 0.812693 0.068505 0.805452
O O1 0.088413 0.411588 0.940695
O O2 0.099054 0.293072 0.920167
O O3 0.983321 0.337935 0.931675
O O4 0.058743 0.328367 0.000000
O O5 0.857284 0.357284 0.928891
O O6 0.739277 0.406088 0.935181
O O7 0.817779 0.413537 0.000000
O O8 0.349485 0.580158 0.876573
O O9 0.274654 0.621481 0.814210
O O10 0.326616 0.506230 0.808886
O O11 0.394101 0.619625 0.802048
O O12 0.328262 0.308101 0.411864
O O13 0.383516 0.399261 0.457916
O O14 0.699338 0.199338 0.870291
O O15 0.777111 0.098971 0.848281
O O16 0.702623 0.297378 0.250000
O O17 0.680005 0.180005 0.267281
O O18 0.589245 0.265765 0.234459
O O19 0.505058 0.413131 0.000000
#
# Coordination Sequence:
#
# PCOD9572717 Si02
#       8
#    32  32  32  32  32  32  16  32
#     4   9  19  33  51  73 100 138 179 228 290 355
#     4  10  20  33  50  74 102 134 176 229 293 351
#     4  10  22  34  55  84 113 149 196 238 294 351
#     4  11  23  37  58  79 111 150 194 253 298 348
#     4  10  21  35  54  81 110 145 195 243 296 357
#     4   9  18  35  58  81 111 146 182 231 292 355
#     4  11  28  44  59  82 114 163 214 249 295 363
#     4  10  20  36  55  82 114 155 190 238 291 352
#
# _framework density 9.0702949999999998
#
# number of rings (size 3 to 8) (size 9 to 14) (size 15 to 20)
#    0.000    2.067    0.667    2.000    6.533    4.267 
#    0.000    1.333    0.000    2.400    0.000    0.000 
#    0.000    8.533    0.000    0.000    0.000    0.133 
#
# Total GULP energy -669122.986171 kJ/mol
# GULP energy per Si atom -5576.024885 kJ/mol
# Density = 0.904965 g / cm^3
# Si number density = 9.070295 Si / 1000 Ang^3
#
#
#
# Elastic Constant Matrix: (Units=GPa)
#
#
# Indices 1 2 3 4 5 6 
#
# 1 93.3739 32.9332 13.5815 0.0000 0.0000 0.0000
# 2 32.9332 93.3738 13.5814 0.0000 0.0000 0.0000
# 3 13.5815 13.5814 61.8852 0.0000 0.0000 0.0000
# 4 0.0000 0.0000 0.0000 15.6673 0.0000 0.0000
# 5 0.0000 0.0000 0.0000 0.0000 15.6671 0.0000
# 6 0.0000 0.0000 0.0000 0.0000 0.0000 19.4112
#
#
#
# Elastic Compliance Matrix: (Units=1/GPa)
#
#
# Indices 1 2 3 4 5 6 
#
# 1 0.012427 -0.004118 -0.001824 0.000000 0.000000 0.000000
# 2 -0.004118 0.012427 -0.001824 0.000000 0.000000 0.000000
# 3 -0.001824 -0.001824 0.016959 0.000000 0.000000 0.000000
# 4 0.000000 0.000000 0.000000 0.063827 0.000000 0.000000
# 5 0.000000 0.000000 0.000000 0.000000 0.063828 0.000000
# 6 0.000000 0.000000 0.000000 0.000000 0.000000 0.051517
#
#
# Mechanical properties :
#
#
# Convention : Reuss Voigt Hill
#
# Bulk Modulus (GPa) = 38.04631 40.98058 39.51345
# Shear Modulus (GPa) = 20.38510 22.71824 21.55167
#
# Velocity S-wave (km/s) = 3.35584 3.54269 3.45053
# Velocity P-wave (km/s) = 6.00284 6.27485 6.14035
#
# Compressibility (1/GPa) = 0.02628376
#
# Stress axis : x y z
#
# Youngs Moduli (GPa) = 80.46822 80.46819 58.96443
#
# Poissons Ratio (x) = 0.33136 0.10753
# Poissons Ratio (y) = 0.33136 0.10753
# Poissons Ratio (z) = 0.14674 0.14674
#
# Static dielectric constant tensor:
#      x y z
#    x 1.612150 0.000000 0.000000 
#    y 0.000000 1.612150 0.000000 
#    z 0.000000 0.000000 1.680470 
# 
# From -- ./inp_files/11793.got.cif
#   From: 2010.05.17/outbox.ucp.g08.bks.cvg/sg140_6_cif.got.tgz:11793.got - 2010.06.11 11:42:50.
