data_PCOD9572651
_publ_section_title
;
Structure prediction by ZEFSAII (Michael W. Deem and Ramdas Pophale) SiO2 
 PCOD9572651
Probable space group: I 4/M C M
;
_chemical_formula_sum "Si O2"
_cell_formula_units_Z 112
_cell_length_a 15.071483
_cell_length_b 15.071483
_cell_length_c 24.722985
_cell_angle_alpha 90.000000
_cell_angle_beta 90.000000
_cell_angle_gamma 90.000000
_cell_volume 5615.816149
_symmetry_space_group_name_H-M "I 4/M C M"
_symmetry_group_IT_number 140
_symmetry_cell_setting 'tetragonal'
loop_
_space_group_symop_operation_xyz
x,y,z
-y,x,z
-x,-y,z
y,-x,z
x,-y,1/2-z
-x,y,1/2-z
y,x,1/2-z
-y,-x,1/2-z
-x,-y,-z
y,-x,-z
x,y,-z
-y,x,-z
-x,y,1/2+z
x,-y,1/2+z
-y,-x,1/2+z
y,x,1/2+z
1/2+x,1/2+y,1/2+z
1/2-y,1/2+x,1/2+z
1/2-x,1/2-y,1/2+z
1/2+y,1/2-x,1/2+z
1/2+x,1/2-y,-z
1/2-x,1/2+y,-z
1/2+y,1/2+x,-z
1/2-y,1/2-x,-z
1/2-x,1/2-y,1/2-z
1/2+y,1/2-x,1/2-z
1/2+x,1/2+y,1/2-z
1/2-y,1/2+x,1/2-z
1/2-x,1/2+y,z
1/2+x,1/2-y,z
1/2-y,1/2-x,z
1/2+y,1/2+x,z
loop_
_atom_site_type_symbol
_atom_site_label
_atom_site_fract_x
_atom_site_fract_y
_atom_site_fract_z
Si Si1 0.504745 0.146679 0.190630
Si Si2 0.746532 0.606173 0.605371
Si Si3 0.395925 0.392753 0.810875
Si Si4 0.044808 0.142963 0.500000
O O1 0.500000 0.191773 0.250000
O O2 0.432601 0.067400 0.195641
O O3 0.469116 0.204966 0.141560
O O4 0.599459 0.099459 0.181925
O O5 0.819266 0.680735 0.591962
O O6 0.669777 0.645971 0.644202
O O7 0.700498 0.565788 0.552911
O O8 0.502419 0.381497 0.817012
O O9 0.368591 0.368591 0.750000
O O10 0.944354 0.107055 0.500000
#
# Coordination Sequence:
#
# PCOD9572651 Si02
#       4
#    32  32  32  16
#     4   8  16  33  56  85 126 171 200 224 285 373
#     4  11  22  37  62  94 124 149 195 263 310 348
#     4   9  19  36  57  81 117 164 206 238 282 356
#     4  11  25  48  70  79 105 163 214 245 298 375
#
# _framework density 19.943670999999998
#
# number of rings (size 3 to 8) (size 9 to 14) (size 15 to 20)
#    0.000    2.429    0.000    3.857    4.000    2.857 
#    0.000    7.857    0.000    3.429    0.000    0.000 
#    0.000    0.000    0.000    0.000    0.000    0.000 
#
# Total GULP energy -312680.216018 kJ/mol
# GULP energy per Si atom -5583.575286 kJ/mol
# Density = 1.989828 g / cm^3
# Si number density = 19.943671 Si / 1000 Ang^3
#
#
#
# Elastic Constant Matrix: (Units=GPa)
#
#
# Indices 1 2 3 4 5 6 
#
# 1 99.2330 41.5084 72.8031 0.0000 0.0000 0.0000
# 2 41.5084 99.2330 72.8031 0.0000 0.0000 0.0000
# 3 72.8031 72.8031 170.3037 0.0000 0.0000 0.0000
# 4 0.0000 0.0000 0.0000 34.4010 0.0000 0.0000
# 5 0.0000 0.0000 0.0000 0.0000 34.4010 0.0000
# 6 0.0000 0.0000 0.0000 0.0000 0.0000 12.5313
#
#
#
# Elastic Compliance Matrix: (Units=1/GPa)
#
#
# Indices 1 2 3 4 5 6 
#
# 1 0.015032 -0.002292 -0.005446 0.000000 0.000000 0.000000
# 2 -0.002292 0.015032 -0.005446 0.000000 0.000000 0.000000
# 3 -0.005446 -0.005446 0.010528 0.000000 0.000000 0.000000
# 4 0.000000 0.000000 0.000000 0.029069 0.000000 0.000000
# 5 0.000000 0.000000 0.000000 0.000000 0.029069 0.000000
# 6 0.000000 0.000000 0.000000 0.000000 0.000000 0.079800
#
#
# Mechanical properties :
#
#
# Convention : Reuss Voigt Hill
#
# Bulk Modulus (GPa) = 70.30847 82.55545 76.43196
# Shear Modulus (GPa) = 23.85059 28.37700 26.11380
#
# Velocity S-wave (km/s) = 3.46193 3.77617 3.62246
# Velocity P-wave (km/s) = 7.16310 7.77797 7.47686
#
# Compressibility (1/GPa) = 0.01422304
#
# Stress axis : x y z
#
# Youngs Moduli (GPa) = 66.52670 66.52670 94.98406
#
# Poissons Ratio (x) = 0.15249 0.51728
# Poissons Ratio (y) = 0.15249 0.51728
# Poissons Ratio (z) = 0.36230 0.36230
#
# Static dielectric constant tensor:
#      x y z
#    x 1.729740 0.000000 0.000000 
#    y 0.000000 1.729740 0.000000 
#    z 0.000000 0.000000 1.687130 
# 
# From -- ./inp_files/9077.got.cif
#   From: 2010.05.17/outbox.cif.g08.bks.cpg/sg140_5_cif.got.tgz:9077.got - 2010.06.21 00:45:31.
