data_PCOD9572034
_publ_section_title
;
Structure prediction by ZEFSAII (Michael W. Deem and Ramdas Pophale) SiO2 
 PCOD9572034
Probable space group: I 4/M C M
;
_chemical_formula_sum "Si O2"
_cell_formula_units_Z 160
_cell_length_a 19.034958
_cell_length_b 19.034958
_cell_length_c 25.934415
_cell_angle_alpha 90.000000
_cell_angle_beta 90.000000
_cell_angle_gamma 90.000000
_cell_volume 9396.806889
_symmetry_space_group_name_H-M "I 4/M C M"
_symmetry_group_IT_number 140
_symmetry_cell_setting 'tetragonal'
loop_
_space_group_symop_operation_xyz
x,y,z
-y,x,z
-x,-y,z
y,-x,z
x,-y,1/2-z
-x,y,1/2-z
y,x,1/2-z
-y,-x,1/2-z
-x,-y,-z
y,-x,-z
x,y,-z
-y,x,-z
-x,y,1/2+z
x,-y,1/2+z
-y,-x,1/2+z
y,x,1/2+z
1/2+x,1/2+y,1/2+z
1/2-y,1/2+x,1/2+z
1/2-x,1/2-y,1/2+z
1/2+y,1/2-x,1/2+z
1/2+x,1/2-y,-z
1/2-x,1/2+y,-z
1/2+y,1/2+x,-z
1/2-y,1/2-x,-z
1/2-x,1/2-y,1/2-z
1/2+y,1/2-x,1/2-z
1/2+x,1/2+y,1/2-z
1/2-y,1/2+x,1/2-z
1/2-x,1/2+y,z
1/2+x,1/2-y,z
1/2-y,1/2-x,z
1/2+y,1/2+x,z
loop_
_atom_site_type_symbol
_atom_site_label
_atom_site_fract_x
_atom_site_fract_y
_atom_site_fract_z
Si Si1 0.341140 0.158861 0.558951
Si Si2 0.087994 0.921117 0.309249
Si Si3 0.577946 0.411215 0.500000
Si Si4 0.708030 0.007235 0.062782
Si Si5 0.899800 0.183411 0.096948
Si Si6 0.057492 0.557492 0.937929
Si Si7 0.222544 0.722544 0.059256
O O1 0.360939 0.139062 0.500000
O O2 0.308955 0.086765 0.579945
O O3 0.282209 0.217792 0.557775
O O4 0.100480 0.899521 0.250000
O O5 0.141169 0.889770 0.350503
O O6 0.005482 0.905309 0.316999
O O7 0.594987 0.493371 0.500000
O O8 0.606503 0.372188 0.550272
O O9 0.775733 0.973606 0.089804
O O10 0.636782 0.964227 0.075435
O O11 0.719231 0.004416 0.000000
O O12 0.843027 0.243578 0.087352
O O13 0.000000 0.500000 0.919055
O O14 0.054412 0.554412 0.000000
O O15 0.203646 0.703646 0.000000
#
# Coordination Sequence:
#
# PCOD9572034 Si02
#       7
#    16  32  16  32  32  16  16
#     4   9  20  30  46  65 105 149 192 219 270 339
#     4   9  20  40  63  84 105 138 190 244 291 340
#     4  11  24  35  50  80 111 141 190 239 279 338
#     4  10  18  30  46  73 102 149 190 230 271 335
#     4  12  22  34  57  78 114 153 188 232 294 347
#     4   9  15  27  45  64  99 143 203 241 261 297
#     4  11  23  36  45  77 121 159 181 219 280 351
#
# _framework density 17.027061
#
# number of rings (size 3 to 8) (size 9 to 14) (size 15 to 20)
#    0.000    1.800    3.000    2.400    5.600    2.400 
#    0.000    0.500    0.000    0.000    0.000    0.000 
#    0.000    0.000    0.000    0.000    0.000    0.000 
#
# Total GULP energy -446446.188977 kJ/mol
# GULP energy per Si atom -5580.577362 kJ/mol
# Density = 1.698831 g / cm^3
# Si number density = 17.027061 Si / 1000 Ang^3
#
#
#
# Elastic Constant Matrix: (Units=GPa)
#
#
# Indices 1 2 3 4 5 6 
#
# 1 74.6507 9.3914 41.3746 0.0000 0.0000 0.0000
# 2 9.3914 74.6520 41.3751 0.0000 0.0000 0.0000
# 3 41.3746 41.3751 84.3524 0.0000 0.0000 0.0000
# 4 0.0000 0.0000 0.0000 39.5754 0.0000 0.0000
# 5 0.0000 0.0000 0.0000 0.0000 39.5792 0.0000
# 6 0.0000 0.0000 0.0000 0.0000 0.0000 28.6765
#
#
#
# Elastic Compliance Matrix: (Units=1/GPa)
#
#
# Indices 1 2 3 4 5 6 
#
# 1 0.019168 0.003845 -0.011288 0.000000 0.000000 0.000000
# 2 0.003845 0.019168 -0.011288 0.000000 0.000000 0.000000
# 3 -0.011288 -0.011288 0.022928 0.000000 0.000000 0.000000
# 4 0.000000 0.000000 0.000000 0.025268 0.000000 0.000000
# 5 0.000000 0.000000 0.000000 0.000000 0.025266 0.000000
# 6 0.000000 0.000000 0.000000 0.000000 0.000000 0.034872
#
#
# Mechanical properties :
#
#
# Convention : Reuss Voigt Hill
#
# Bulk Modulus (GPa) = 42.01182 46.43749 44.22466
# Shear Modulus (GPa) = 26.03269 31.00049 28.51659
#
# Velocity S-wave (km/s) = 3.91436 4.27155 4.09685
# Velocity P-wave (km/s) = 6.71988 7.18750 6.95762
#
# Compressibility (1/GPa) = 0.02380282
#
# Stress axis : x y z
#
# Youngs Moduli (GPa) = 52.16968 52.17050 43.61414
#
# Poissons Ratio (x) = -0.20058 0.49231
# Poissons Ratio (y) = -0.20058 0.49231
# Poissons Ratio (z) = 0.58888 0.58889
#
# Static dielectric constant tensor:
#      x y z
#    x 1.614280 0.000000 0.000000 
#    y 0.000000 1.614280 0.000000 
#    z 0.000000 0.000000 1.551770 
# 
# From -- ./inp_files/10613.got.cif
#   From: 2010.05.17/outbox.cif.g08.bks.cpg/sg140_6_cif.got.tgz:10613.got - 2010.06.21 00:45:31.
