data_PCOD9572373
_publ_section_title
;
Structure prediction by ZEFSAII (Michael W. Deem and Ramdas Pophale) SiO2 
 PCOD9572373
Probable space group: I 4/M C M
;
_chemical_formula_sum "Si O2"
_cell_formula_units_Z 96
_cell_length_a 13.272000
_cell_length_b 13.272000
_cell_length_c 26.810293
_cell_angle_alpha 90.000000
_cell_angle_beta 90.000000
_cell_angle_gamma 90.000000
_cell_volume 4722.525442
_symmetry_space_group_name_H-M "I 4/M C M"
_symmetry_group_IT_number 140
_symmetry_cell_setting 'tetragonal'
loop_
_space_group_symop_operation_xyz
x,y,z
-y,x,z
-x,-y,z
y,-x,z
x,-y,1/2-z
-x,y,1/2-z
y,x,1/2-z
-y,-x,1/2-z
-x,-y,-z
y,-x,-z
x,y,-z
-y,x,-z
-x,y,1/2+z
x,-y,1/2+z
-y,-x,1/2+z
y,x,1/2+z
1/2+x,1/2+y,1/2+z
1/2-y,1/2+x,1/2+z
1/2-x,1/2-y,1/2+z
1/2+y,1/2-x,1/2+z
1/2+x,1/2-y,-z
1/2-x,1/2+y,-z
1/2+y,1/2+x,-z
1/2-y,1/2-x,-z
1/2-x,1/2-y,1/2-z
1/2+y,1/2-x,1/2-z
1/2+x,1/2+y,1/2-z
1/2-y,1/2+x,1/2-z
1/2-x,1/2+y,z
1/2+x,1/2-y,z
1/2-y,1/2-x,z
1/2+y,1/2+x,z
loop_
_atom_site_type_symbol
_atom_site_label
_atom_site_fract_x
_atom_site_fract_y
_atom_site_fract_z
Si Si1 0.913565 0.413565 0.130412
Si Si2 0.234748 0.734748 0.191555
Si Si3 0.218560 0.451662 0.944133
Si Si4 0.909534 0.136991 0.635178
O O1 0.848932 0.348932 0.171875
O O2 0.832667 0.470570 0.094782
O O3 0.000000 0.500000 0.145064
O O4 0.250000 0.750000 0.250000
O O5 0.208341 0.842542 0.168280
O O6 0.140039 0.359962 0.946303
O O7 0.321972 0.408303 0.921329
O O8 0.229649 0.493190 0.000000
O O9 0.027011 0.132263 0.645854
#
# Coordination Sequence:
#
# PCOD9572373 Si02
#       4
#    16  16  32  32
#     4  10  21  44  72 101 139 179 240 301 334 415
#     4  12  26  47  75  98 135 186 238 297 353 396
#     4  10  20  38  70 104 138 182 227 282 350 413
#     4  11  24  44  67  98 141 177 224 281 341 422
#
# _framework density 20.328106999999999
#
# number of rings (size 3 to 8) (size 9 to 14) (size 15 to 20)
#    0.000    1.333    5.000    0.500    0.000    4.667 
#    0.000    3.333    3.667    0.000    0.000    0.000 
#    0.000    0.000    0.000    0.000    0.000    0.000 
#
# Total GULP energy -267453.269093 kJ/mol
# GULP energy per Si atom -5571.943106 kJ/mol
# Density = 2.028184 g / cm^3
# Si number density = 20.328107 Si / 1000 Ang^3
#
#
#
# Elastic Constant Matrix: (Units=GPa)
#
#
# Indices 1 2 3 4 5 6 
#
# 1 122.6456 41.6226 59.4280 0.0000 0.0000 0.0000
# 2 41.6226 122.6456 59.4280 0.0000 0.0000 0.0000
# 3 59.4280 59.4280 134.5764 0.0000 0.0000 0.0000
# 4 0.0000 0.0000 0.0000 -36.2243 0.0000 0.0000
# 5 0.0000 0.0000 0.0000 0.0000 -36.2243 0.0000
# 6 0.0000 0.0000 0.0000 0.0000 0.0000 13.3499
#
#
#
# Elastic Compliance Matrix: (Units=1/GPa)
#
#
# Indices 1 2 3 4 5 6 
#
# 1 0.010644 -0.001698 -0.003950 0.000000 0.000000 0.000000
# 2 -0.001698 0.010644 -0.003950 0.000000 0.000000 0.000000
# 3 -0.003950 -0.003950 0.010920 0.000000 0.000000 0.000000
# 4 0.000000 0.000000 0.000000 -0.027606 0.000000 0.000000
# 5 0.000000 0.000000 0.000000 0.000000 -0.027606 0.000000
# 6 0.000000 0.000000 0.000000 0.000000 0.000000 0.074907
#
#
# Mechanical properties :
#
#
# Convention : Reuss Voigt Hill
#
# Bulk Modulus (GPa) = 76.86539 77.86943 77.36741
# Shear Modulus (GPa) = 66.27979 2.80618 34.54299
#
# Velocity S-wave (km/s) = 5.71627 1.17620 4.12669
# Velocity P-wave (km/s) = 9.02564 6.34303 7.80052
#
# Compressibility (1/GPa) = 0.01300976
#
# Stress axis : x y z
#
# Youngs Moduli (GPa) = 93.94896 93.94896 91.57734
#
# Poissons Ratio (x) = 0.15954 0.36177
# Poissons Ratio (y) = 0.15954 0.36177
# Poissons Ratio (z) = 0.37114 0.37114
#
# Static dielectric constant tensor:
#      x y z
#    x 1.747620 0.000000 0.000000 
#    y 0.000000 1.747620 0.000000 
#    z 0.000000 0.000000 1.722990 
# 
# From -- ./inp_files/7685.got.cif
#   From: 2010.05.17/outbox.cif.g08.bks.cpg/sg140_4_cif.got.tgz:7685.got - 2010.06.21 00:45:31.
