data_PCOD9572455
_publ_section_title
;
Structure prediction by ZEFSAII (Michael W. Deem and Ramdas Pophale) SiO2 
 PCOD9572455
Probable space group: I 4/M C M
;
_chemical_formula_sum "Si O2"
_cell_formula_units_Z 80
_cell_length_a 13.442833
_cell_length_b 13.442833
_cell_length_c 21.965238
_cell_angle_alpha 90.000000
_cell_angle_beta 90.000000
_cell_angle_gamma 90.000000
_cell_volume 3969.332867
_symmetry_space_group_name_H-M "I 4/M C M"
_symmetry_group_IT_number 140
_symmetry_cell_setting 'tetragonal'
loop_
_space_group_symop_operation_xyz
x,y,z
-y,x,z
-x,-y,z
y,-x,z
x,-y,1/2-z
-x,y,1/2-z
y,x,1/2-z
-y,-x,1/2-z
-x,-y,-z
y,-x,-z
x,y,-z
-y,x,-z
-x,y,1/2+z
x,-y,1/2+z
-y,-x,1/2+z
y,x,1/2+z
1/2+x,1/2+y,1/2+z
1/2-y,1/2+x,1/2+z
1/2-x,1/2-y,1/2+z
1/2+y,1/2-x,1/2+z
1/2+x,1/2-y,-z
1/2-x,1/2+y,-z
1/2+y,1/2+x,-z
1/2-y,1/2-x,-z
1/2-x,1/2-y,1/2-z
1/2+y,1/2-x,1/2-z
1/2+x,1/2+y,1/2-z
1/2-y,1/2+x,1/2-z
1/2-x,1/2+y,z
1/2+x,1/2-y,z
1/2-y,1/2-x,z
1/2+y,1/2+x,z
loop_
_atom_site_type_symbol
_atom_site_label
_atom_site_fract_x
_atom_site_fract_y
_atom_site_fract_z
Si Si1 0.762269 0.428038 0.126347
Si Si2 0.834183 0.495682 0.500000
Si Si3 0.876014 0.210440 0.309057
O O1 0.860474 0.360474 0.137322
O O2 0.670225 0.352979 0.135012
O O3 0.746955 0.514934 0.175102
O O4 0.773606 0.480042 0.060976
O O5 0.888014 0.388014 0.500000
O O6 0.923616 0.576385 0.500000
O O7 0.858474 0.141527 0.250000
O O8 0.806047 0.306047 0.299873
#
# Coordination Sequence:
#
# PCOD9572455 Si02
#       3
#    32  16  32
#     4  10  21  37  58  86 120 156 198 248 295 350
#     4   9  18  34  58  87 117 155 200 239 289 351
#     4  10  21  37  58  86 119 157 201 244 297 360
#
# _framework density 20.154522
#
# number of rings (size 3 to 8) (size 9 to 14) (size 15 to 20)
#    0.000    2.200    0.000    2.400    0.000    4.800 
#    0.000    8.000    0.000   16.800    0.000    0.000 
#    0.000    0.000    0.000    0.000    0.000    0.000 
#
# Total GULP energy -223154.232859 kJ/mol
# GULP energy per Si atom -5578.855821 kJ/mol
# Density = 2.010865 g / cm^3
# Si number density = 20.154522 Si / 1000 Ang^3
#
#
#
# Elastic Constant Matrix: (Units=GPa)
#
#
# Indices 1 2 3 4 5 6 
#
# 1 89.0406 46.0955 47.8285 0.0000 0.0000 0.0000
# 2 46.0955 89.0405 47.8277 0.0000 0.0000 0.0000
# 3 47.8285 47.8277 114.1439 0.0000 0.0000 0.0000
# 4 0.0000 0.0000 0.0000 31.1279 0.0000 0.0000
# 5 0.0000 0.0000 0.0000 0.0000 31.1277 0.0000
# 6 0.0000 0.0000 0.0000 0.0000 0.0000 19.9638
#
#
#
# Elastic Compliance Matrix: (Units=1/GPa)
#
#
# Indices 1 2 3 4 5 6 
#
# 1 0.016903 -0.006383 -0.004408 0.000000 0.000000 0.000000
# 2 -0.006383 0.016903 -0.004408 0.000000 0.000000 0.000000
# 3 -0.004408 -0.004408 0.012455 0.000000 0.000000 0.000000
# 4 0.000000 0.000000 0.000000 0.032126 0.000000 0.000000
# 5 0.000000 0.000000 0.000000 0.000000 0.032126 0.000000
# 6 0.000000 0.000000 0.000000 0.000000 0.000000 0.050091
#
#
# Mechanical properties :
#
#
# Convention : Reuss Voigt Hill
#
# Bulk Modulus (GPa) = 63.03998 63.96983 63.50491
# Shear Modulus (GPa) = 25.47275 26.47545 25.97410
#
# Velocity S-wave (km/s) = 3.55896 3.62833 3.59381
# Velocity P-wave (km/s) = 6.94510 7.02578 6.98556
#
# Compressibility (1/GPa) = 0.01586295
#
# Stress axis : x y z
#
# Youngs Moduli (GPa) = 59.16117 59.16169 80.28871
#
# Poissons Ratio (x) = 0.37761 0.35394
# Poissons Ratio (y) = 0.37760 0.35392
# Poissons Ratio (z) = 0.26080 0.26079
#
# Static dielectric constant tensor:
#      x y z
#    x 1.701740 0.000000 0.000000 
#    y 0.000000 1.701740 0.000000 
#    z 0.000000 0.000000 1.760800 
# 
# From -- ./inp_files/7489.got.cif
#   From: 2010.05.17/outbox.cif.g08.bks.cpg/sg140_4_cif.got.tgz:7489.got - 2010.06.21 00:45:31.
