data_PCOD9572640
_publ_section_title
;
Structure prediction by ZEFSAII (Michael W. Deem and Ramdas Pophale) SiO2 
 PCOD9572640
Probable space group: I 4/M C M
;
_chemical_formula_sum "Si O2"
_cell_formula_units_Z 144
_cell_length_a 21.712854
_cell_length_b 21.712854
_cell_length_c 19.472900
_cell_angle_alpha 90.000000
_cell_angle_beta 90.000000
_cell_angle_gamma 90.000000
_cell_volume 9180.460321
_symmetry_space_group_name_H-M "I 4/M C M"
_symmetry_group_IT_number 140
_symmetry_cell_setting 'tetragonal'
loop_
_space_group_symop_operation_xyz
x,y,z
-y,x,z
-x,-y,z
y,-x,z
x,-y,1/2-z
-x,y,1/2-z
y,x,1/2-z
-y,-x,1/2-z
-x,-y,-z
y,-x,-z
x,y,-z
-y,x,-z
-x,y,1/2+z
x,-y,1/2+z
-y,-x,1/2+z
y,x,1/2+z
1/2+x,1/2+y,1/2+z
1/2-y,1/2+x,1/2+z
1/2-x,1/2-y,1/2+z
1/2+y,1/2-x,1/2+z
1/2+x,1/2-y,-z
1/2-x,1/2+y,-z
1/2+y,1/2+x,-z
1/2-y,1/2-x,-z
1/2-x,1/2-y,1/2-z
1/2+y,1/2-x,1/2-z
1/2+x,1/2+y,1/2-z
1/2-y,1/2+x,1/2-z
1/2-x,1/2+y,z
1/2+x,1/2-y,z
1/2-y,1/2-x,z
1/2+y,1/2+x,z
loop_
_atom_site_type_symbol
_atom_site_label
_atom_site_fract_x
_atom_site_fract_y
_atom_site_fract_z
Si Si1 0.129704 0.008027 0.500000
Si Si2 0.624109 0.656027 0.000000
Si Si3 0.370274 0.228882 0.263814
Si Si4 0.000000 0.784836 0.750000
Si Si5 0.709089 0.307772 0.868106
Si Si6 0.508026 0.598734 0.844764
O O1 0.138162 0.081910 0.500000
O O2 0.175004 0.948387 0.500000
O O3 0.098527 0.994456 0.427054
O O4 0.653824 0.681602 0.930289
O O5 0.338587 0.161414 0.267667
O O6 0.442352 0.241264 0.265229
O O7 0.347148 0.258580 0.192037
O O8 0.341323 0.268151 0.326397
O O9 0.988418 0.833556 0.687611
O O10 0.759938 0.259938 0.895222
O O11 0.444750 0.564764 0.823608
#
# Coordination Sequence:
#
# PCOD9572640 Si02
#       6
#    16  16  32  16  32  32
#     4  12  22  31  44  62 100 140 160 203 224 278
#     4  12  21  31  46  68  92 132 180 195 237 274
#     4   9  20  36  51  72  96 121 157 204 254 290
#     4  12  22  31  56  75  90 128 166 208 242 290
#     4   9  19  35  52  67  93 125 162 210 245 282
#     4  11  22  34  44  66 103 138 174 202 231 276
#
# _framework density 15.685487999999999
#
# number of rings (size 3 to 8) (size 9 to 14) (size 15 to 20)
#    0.000    1.556    2.222    5.000    6.222    2.000 
#    0.000    0.000    0.000    0.333    0.000    0.000 
#    0.000    0.000    0.000    0.000    0.000   75.333 
#
# Total GULP energy -400963.258679 kJ/mol
# GULP energy per Si atom -5568.934148 kJ/mol
# Density = 1.564979 g / cm^3
# Si number density = 15.685488 Si / 1000 Ang^3
#
#
#
# Elastic Constant Matrix: (Units=GPa)
#
#
# Indices 1 2 3 4 5 6 
#
# 1 56.7407 17.5705 -9.1620 0.0000 0.0000 0.0000
# 2 17.5705 56.7407 -9.1620 0.0000 0.0000 0.0000
# 3 -9.1620 -9.1620 76.8795 0.0000 0.0000 0.0000
# 4 0.0000 0.0000 0.0000 35.3851 0.0000 0.0000
# 5 0.0000 0.0000 0.0000 0.0000 35.3851 0.0000
# 6 0.0000 0.0000 0.0000 0.0000 0.0000 20.7149
#
#
#
# Elastic Compliance Matrix: (Units=1/GPa)
#
#
# Indices 1 2 3 4 5 6 
#
# 1 0.019697 -0.005833 0.001652 0.000000 0.000000 0.000000
# 2 -0.005833 0.019697 0.001652 0.000000 0.000000 0.000000
# 3 0.001652 0.001652 0.013401 0.000000 0.000000 0.000000
# 4 0.000000 0.000000 0.000000 0.028260 0.000000 0.000000
# 5 0.000000 0.000000 0.000000 0.000000 0.028260 0.000000
# 6 0.000000 0.000000 0.000000 0.000000 0.000000 0.048274
#
#
# Mechanical properties :
#
#
# Convention : Reuss Voigt Hill
#
# Bulk Modulus (GPa) = 20.94726 20.98376 20.96551
# Shear Modulus (GPa) = 28.00183 31.03798 29.51991
#
# Velocity S-wave (km/s) = 4.22975 4.45316 4.34290
# Velocity P-wave (km/s) = 6.10229 6.31251 6.20829
#
# Compressibility (1/GPa) = 0.04773893
#
# Stress axis : x y z
#
# Youngs Moduli (GPa) = 50.76916 50.76916 74.62030
#
# Poissons Ratio (x) = 0.29612 -0.12329
# Poissons Ratio (y) = 0.29612 -0.12329
# Poissons Ratio (z) = -0.08388 -0.08388
#
# Static dielectric constant tensor:
#      x y z
#    x 1.536880 0.000000 0.000000 
#    y 0.000000 1.536880 0.000000 
#    z 0.000000 0.000000 1.543110 
# 
# From -- ./inp_files/8403.got.cif
#   From: 2010.05.17/outbox.cif.g08.bks.cpg/sg140_5_cif.got.tgz:8403.got - 2010.06.21 00:45:31.
