data_PCOD9572459
_publ_section_title
;
Structure prediction by ZEFSAII (Michael W. Deem and Ramdas Pophale) SiO2 
 PCOD9572459
Probable space group: I 4/M C M
;
_chemical_formula_sum "Si O2"
_cell_formula_units_Z 192
_cell_length_a 18.430681
_cell_length_b 18.430681
_cell_length_c 30.761082
_cell_angle_alpha 90.000000
_cell_angle_beta 90.000000
_cell_angle_gamma 90.000000
_cell_volume 10449.232010
_symmetry_space_group_name_H-M "I 4/M C M"
_symmetry_group_IT_number 140
_symmetry_cell_setting 'tetragonal'
loop_
_space_group_symop_operation_xyz
x,y,z
-y,x,z
-x,-y,z
y,-x,z
x,-y,1/2-z
-x,y,1/2-z
y,x,1/2-z
-y,-x,1/2-z
-x,-y,-z
y,-x,-z
x,y,-z
-y,x,-z
-x,y,1/2+z
x,-y,1/2+z
-y,-x,1/2+z
y,x,1/2+z
1/2+x,1/2+y,1/2+z
1/2-y,1/2+x,1/2+z
1/2-x,1/2-y,1/2+z
1/2+y,1/2-x,1/2+z
1/2+x,1/2-y,-z
1/2-x,1/2+y,-z
1/2+y,1/2+x,-z
1/2-y,1/2-x,-z
1/2-x,1/2-y,1/2-z
1/2+y,1/2-x,1/2-z
1/2+x,1/2+y,1/2-z
1/2-y,1/2+x,1/2-z
1/2-x,1/2+y,z
1/2+x,1/2-y,z
1/2-y,1/2-x,z
1/2+y,1/2+x,z
loop_
_atom_site_type_symbol
_atom_site_label
_atom_site_fract_x
_atom_site_fract_y
_atom_site_fract_z
Si Si1 0.028467 0.881892 0.385021
Si Si2 0.648555 0.967788 0.601939
Si Si3 0.112943 0.612943 0.947805
Si Si4 0.627313 0.749722 0.757390
Si Si5 0.246074 0.989423 0.818828
Si Si6 0.222709 0.895684 0.947965
Si Si7 0.769755 0.269755 0.052555
O O1 0.031931 0.827168 0.344525
O O2 0.049525 0.835697 0.427575
O O3 0.948533 0.915835 0.384264
O O4 0.575928 0.924073 0.612173
O O5 0.690422 0.990284 0.645519
O O6 0.701946 0.917050 0.574059
O O7 0.633747 0.036206 0.571893
O O8 0.171982 0.671982 0.932902
O O9 0.111118 0.611118 0.000000
O O10 0.679843 0.679843 0.750000
O O11 0.681550 0.818451 0.763640
O O12 0.574346 0.760497 0.715952
O O13 0.568337 0.739679 0.796050
O O14 0.208933 0.812021 0.934654
O O15 0.225391 0.900457 0.000000
O O16 0.769795 0.269795 0.000000
#
# Coordination Sequence:
#
# PCOD9572459 Si02
#       7
#    32  32  16  32  32  32  16
#     4  10  22  38  57  87 123 159 200 249 303 364
#     4  11  23  40  60  88 123 162 204 255 307 366
#     4  11  25  40  61  90 123 163 213 263 305 360
#     4  10  21  40  65  92 119 153 198 249 298 366
#     4  10  22  39  62  89 123 157 195 245 309 370
#     4  10  21  37  59  83 117 163 209 253 303 361
#     4   9  20  39  58  82 113 155 208 254 305 356
#
# _framework density 18.374555999999998
#
# number of rings (size 3 to 8) (size 9 to 14) (size 15 to 20)
#    0.000    1.833    0.833    2.250    5.833    2.000 
#    0.000    0.833    0.000    5.000    0.000    0.000 
#    0.000    0.000    0.000    0.000    0.000    0.000 
#
# Total GULP energy -535710.376172 kJ/mol
# GULP energy per Si atom -5580.316418 kJ/mol
# Density = 1.833273 g / cm^3
# Si number density = 18.374556 Si / 1000 Ang^3
#
#
#
# Elastic Constant Matrix: (Units=GPa)
#
#
# Indices 1 2 3 4 5 6 
#
# 1 120.3490 59.6767 48.0409 0.0000 0.0000 0.0000
# 2 59.6767 120.3490 48.0409 0.0000 0.0000 0.0000
# 3 48.0409 48.0409 105.5134 0.0000 0.0000 0.0000
# 4 0.0000 0.0000 0.0000 -54.2179 0.0000 0.0000
# 5 0.0000 0.0000 0.0000 0.0000 -54.2179 0.0000
# 6 0.0000 0.0000 0.0000 0.0000 0.0000 31.8279
#
#
#
# Elastic Compliance Matrix: (Units=1/GPa)
#
#
# Indices 1 2 3 4 5 6 
#
# 1 0.011910 -0.004572 -0.003341 0.000000 0.000000 0.000000
# 2 -0.004572 0.011910 -0.003341 0.000000 0.000000 0.000000
# 3 -0.003341 -0.003341 0.012520 0.000000 0.000000 0.000000
# 4 0.000000 0.000000 0.000000 -0.018444 0.000000 0.000000
# 5 0.000000 0.000000 0.000000 0.000000 -0.018444 0.000000
# 6 0.000000 0.000000 0.000000 0.000000 0.000000 0.031419
#
#
# Mechanical properties :
#
#
# Convention : Reuss Voigt Hill
#
# Bulk Modulus (GPa) = 72.29799 73.08094 72.68947
# Shear Modulus (GPa) = 86.22319 -2.62473 41.79923
#
# Velocity S-wave (km/s) = 6.85764 -1.19648 4.77471
# Velocity P-wave (km/s) = 10.10619 6.16040 8.36916
#
# Compressibility (1/GPa) = 0.01383164
#
# Stress axis : x y z
#
# Youngs Moduli (GPa) = 83.96354 83.96354 79.87334
#
# Poissons Ratio (x) = 0.38388 0.26686
# Poissons Ratio (y) = 0.38388 0.26686
# Poissons Ratio (z) = 0.28052 0.28052
#
# Static dielectric constant tensor:
#      x y z
#    x 1.606110 0.000000 0.000000 
#    y 0.000000 1.606110 0.000000 
#    z 0.000000 0.000000 1.613620 
# 
# From -- ./inp_files/11649.got.cif
#   From: 2010.05.17/outbox.cif.g08.bks.cpg/sg140_6_cif.got.tgz:11649.got - 2010.06.21 00:45:31.
