data_PCOD9572258
_publ_section_title
;
Structure prediction by ZEFSAII (Michael W. Deem and Ramdas Pophale) SiO2 
 PCOD9572258
Probable space group: I 4/M C M
;
_chemical_formula_sum "Si O2"
_cell_formula_units_Z 128
_cell_length_a 25.517354
_cell_length_b 25.517354
_cell_length_c 10.519176
_cell_angle_alpha 90.000000
_cell_angle_beta 90.000000
_cell_angle_gamma 90.000000
_cell_volume 6849.407401
_symmetry_space_group_name_H-M "I 4/M C M"
_symmetry_group_IT_number 140
_symmetry_cell_setting 'tetragonal'
loop_
_space_group_symop_operation_xyz
x,y,z
-y,x,z
-x,-y,z
y,-x,z
x,-y,1/2-z
-x,y,1/2-z
y,x,1/2-z
-y,-x,1/2-z
-x,-y,-z
y,-x,-z
x,y,-z
-y,x,-z
-x,y,1/2+z
x,-y,1/2+z
-y,-x,1/2+z
y,x,1/2+z
1/2+x,1/2+y,1/2+z
1/2-y,1/2+x,1/2+z
1/2-x,1/2-y,1/2+z
1/2+y,1/2-x,1/2+z
1/2+x,1/2-y,-z
1/2-x,1/2+y,-z
1/2+y,1/2+x,-z
1/2-y,1/2-x,-z
1/2-x,1/2-y,1/2-z
1/2+y,1/2-x,1/2-z
1/2+x,1/2+y,1/2-z
1/2-y,1/2+x,1/2-z
1/2-x,1/2+y,z
1/2+x,1/2-y,z
1/2-y,1/2-x,z
1/2+y,1/2+x,z
loop_
_atom_site_type_symbol
_atom_site_label
_atom_site_fract_x
_atom_site_fract_y
_atom_site_fract_z
Si Si1 0.570925 0.158510 0.500000
Si Si2 0.583021 0.534738 0.848611
Si Si3 0.137220 0.449047 0.000000
Si Si4 0.613900 0.321809 0.149683
Si Si5 0.061387 0.284945 0.764876
O O1 0.612743 0.112743 0.500000
O O2 0.512171 0.134295 0.500000
O O3 0.577209 0.192809 0.372512
O O4 0.530091 0.573719 0.823122
O O5 0.638753 0.564540 0.834992
O O6 0.578909 0.532073 0.000000
O O7 0.170605 0.435065 0.873777
O O8 0.083271 0.416730 0.000000
O O9 0.656627 0.343374 0.250000
O O10 0.594837 0.264409 0.189338
O O11 0.629747 0.323473 0.000000
O O12 0.000000 0.269747 0.750000
#
# Coordination Sequence:
#
# PCOD9572258 Si02
#       5
#    16  32  16  32  32
#     4  10  22  37  59  93 125 153 194 240 286 342
#     4  10  20  34  50  73 103 138 180 230 288 347
#     4  10  20  37  63  89 121 161 196 232 286 350
#     4  10  21  36  56  83 112 145 190 245 299 345
#     4  10  20  37  59  87 118 159 203 241 288 349
#
# _framework density 18.687747999999999
#
# number of rings (size 3 to 8) (size 9 to 14) (size 15 to 20)
#    0.000    2.000    1.250    2.250    1.750    1.500 
#    0.000    1.250    0.000    9.000    0.000    0.000 
#    0.000    0.000    0.000    0.000    0.000    0.000 
#
# Total GULP energy -356840.072170 kJ/mol
# GULP energy per Si atom -5575.626128 kJ/mol
# Density = 1.864521 g / cm^3
# Si number density = 18.687748 Si / 1000 Ang^3
#
#
#
# Elastic Constant Matrix: (Units=GPa)
#
#
# Indices 1 2 3 4 5 6 
#
# 1 73.4094 58.7683 55.1065 0.0000 0.0000 0.0000
# 2 58.7683 73.4029 55.1056 0.0000 0.0000 0.0000
# 3 55.1065 55.1056 219.1878 0.0000 0.0000 0.0000
# 4 0.0000 0.0000 0.0000 18.3029 0.0000 0.0000
# 5 0.0000 0.0000 0.0000 0.0000 18.3030 0.0000
# 6 0.0000 0.0000 0.0000 0.0000 0.0000 23.4018
#
#
#
# Elastic Compliance Matrix: (Units=1/GPa)
#
#
# Indices 1 2 3 4 5 6 
#
# 1 0.038942 -0.029372 -0.002406 0.000000 0.000000 0.000000
# 2 -0.029372 0.038946 -0.002407 0.000000 0.000000 0.000000
# 3 -0.002406 -0.002407 0.005772 0.000000 0.000000 0.000000
# 4 0.000000 0.000000 0.000000 0.054636 0.000000 0.000000
# 5 0.000000 0.000000 0.000000 0.000000 0.054636 0.000000
# 6 0.000000 0.000000 0.000000 0.000000 0.000000 0.042732
#
#
# Mechanical properties :
#
#
# Convention : Reuss Voigt Hill
#
# Bulk Modulus (GPa) = 65.39843 78.21790 71.80816
# Shear Modulus (GPa) = 16.17433 25.13618 20.65525
#
# Velocity S-wave (km/s) = 2.94514 3.67149 3.32819
# Velocity P-wave (km/s) = 6.82909 7.74074 7.29916
#
# Compressibility (1/GPa) = 0.01529089
#
# Stress axis : x y z
#
# Youngs Moduli (GPa) = 25.67901 25.67639 173.23818
#
# Poissons Ratio (x) = 0.75416 0.41686
# Poissons Ratio (y) = 0.75424 0.41698
# Poissons Ratio (z) = 0.06179 0.06180
#
# Static dielectric constant tensor:
#      x y z
#    x 1.619140 0.000000 0.000000 
#    y 0.000000 1.619140 0.000000 
#    z 0.000000 0.000000 1.654290 
# 
# From -- ./inp_files/2923.got.cif
#   From: 2010.05.17/outbox.cif.g08.bks.cpg/sg140_2_cif.got.tgz:2923.got - 2010.06.21 00:45:31.
