data_PCOD9572898
_publ_section_title
;
Structure prediction by ZEFSAII (Michael W. Deem and Ramdas Pophale) SiO2 
 PCOD9572898
Probable space group: I 41/A M D
;
_chemical_formula_sum "Si O2"
_cell_formula_units_Z 160
_cell_length_a 21.963804
_cell_length_b 21.963804
_cell_length_c 15.583389
_cell_angle_alpha 90.000000
_cell_angle_beta 90.000000
_cell_angle_gamma 90.000000
_cell_volume 7517.562213
_symmetry_space_group_name_H-M "I 41/A M D"
_symmetry_group_IT_number 141
_space_group.IT_coordinate_system_code '2'
_symmetry_cell_setting 'tetragonal'
loop_
_space_group_symop_operation_xyz
x,y,z
1/4-y,3/4+x,1/4+z
-x,1/2-y,z
1/4+y,1/4-x,3/4+z
x,-y,-z
-x,1/2+y,-z
1/4+y,3/4+x,1/4-z
1/4-y,1/4-x,3/4-z
-x,-y,-z
3/4+y,1/4-x,3/4-z
x,1/2+y,-z
3/4-y,3/4+x,1/4-z
-x,y,z
x,1/2-y,z
3/4-y,1/4-x,3/4+z
3/4+y,3/4+x,1/4+z
1/2+x,1/2+y,1/2+z
3/4-y,1/4+x,3/4+z
1/2-x,-y,1/2+z
3/4+y,3/4-x,1/4+z
1/2+x,1/2-y,1/2-z
1/2-x,y,1/2-z
3/4+y,1/4+x,3/4-z
3/4-y,3/4-x,1/4-z
1/2-x,1/2-y,1/2-z
1/4+y,3/4-x,1/4-z
1/2+x,y,1/2-z
1/4-y,1/4+x,3/4-z
1/2-x,1/2+y,1/2+z
1/2+x,-y,1/2+z
1/4-y,3/4-x,1/4+z
1/4+y,1/4+x,3/4+z
loop_
_atom_site_type_symbol
_atom_site_label
_atom_site_fract_x
_atom_site_fract_y
_atom_site_fract_z
Si Si1 0.256302 0.820256 0.942261
Si Si2 0.068674 0.630244 0.377658
Si Si3 0.570551 0.111722 0.064147
Si Si4 0.132494 0.519723 0.128765
Si Si5 0.070281 0.080892 0.016877
O O1 0.273749 0.750000 0.966235
O O2 0.190094 0.817461 0.899732
O O3 0.304880 0.843343 0.871547
O O4 0.247399 0.861241 0.026244
O O5 0.098492 0.628553 0.472291
O O6 0.103488 0.668022 0.305918
O O7 0.000000 0.653654 0.385192
O O8 0.500000 0.097342 0.047519
O O9 0.580803 0.169198 0.125000
O O10 0.199031 0.550970 0.125000
O O11 0.117884 0.460615 0.071113
O O12 0.088370 0.569297 0.081656
O O13 0.000000 0.063607 0.031719
#
# Coordination Sequence:
#
# PCOD9572898 Si02
#       5
#    32  32  32  32  32
#     4  10  19  36  60  84 114 157 205 255 309 372
#     4  10  21  38  61  89 124 159 205 265 318 379
#     4  10  21  36  57  86 119 158 205 253 309 377
#     4  11  21  38  62  89 123 164 213 263 312 376
#     4  11  23  40  64  93 128 171 214 259 325 389
#
# _framework density 21.283496
#
# number of rings (size 3 to 8) (size 9 to 14) (size 15 to 20)
#    0.000    1.600    2.000    4.200    0.000    5.400 
#    0.000    3.000    4.400    0.000    0.000    0.000 
#    0.000    0.000    0.000    0.000    0.000    0.000 
#
# Total GULP energy -445993.104921 kJ/mol
# GULP energy per Si atom -5574.913812 kJ/mol
# Density = 2.123505 g / cm^3
# Si number density = 21.283496 Si / 1000 Ang^3
#
#
#
# Elastic Constant Matrix: (Units=GPa)
#
#
# Indices 1 2 3 4 5 6 
#
# 1 38.0301 35.7924 3.4727 0.0000 0.0000 0.0000
# 2 35.7924 38.0254 3.4717 0.0000 0.0000 0.0000
# 3 3.4727 3.4717 65.4518 0.0000 0.0000 0.0000
# 4 0.0000 0.0000 0.0000 25.6447 0.0000 0.0000
# 5 0.0000 0.0000 0.0000 0.0000 25.6452 0.0000
# 6 0.0000 0.0000 0.0000 0.0000 0.0000 23.0608
#
#
#
# Elastic Compliance Matrix: (Units=1/GPa)
#
#
# Indices 1 2 3 4 5 6 
#
# 1 0.230478 -0.216877 -0.000725 0.000000 0.000000 0.000000
# 2 -0.216877 0.230506 -0.000719 0.000000 0.000000 0.000000
# 3 -0.000725 -0.000719 0.015355 0.000000 0.000000 0.000000
# 4 0.000000 0.000000 0.000000 0.038994 0.000000 0.000000
# 5 0.000000 0.000000 0.000000 0.000000 0.038994 0.000000
# 6 0.000000 0.000000 0.000000 0.000000 0.000000 0.043364
#
#
# Mechanical properties :
#
#
# Convention : Reuss Voigt Hill
#
# Bulk Modulus (GPa) = 25.19219 25.22011 25.20615
# Shear Modulus (GPa) = 4.77297 21.45483 13.11390
#
# Velocity S-wave (km/s) = 1.49915 3.17843 2.48494
# Velocity P-wave (km/s) = 3.85471 5.03440 4.48352
#
# Compressibility (1/GPa) = 0.03969483
#
# Stress axis : x y z
#
# Youngs Moduli (GPa) = 4.33881 4.33829 65.12512
#
# Poissons Ratio (x) = 0.94088 0.04722
# Poissons Ratio (y) = 0.94099 0.04685
# Poissons Ratio (z) = 0.00315 0.00312
#
# Static dielectric constant tensor:
#      x y z
#    x 1.795860 0.000000 0.000000 
#    y 0.000000 1.795860 0.000000 
#    z 0.000000 0.000000 1.807560 
# 
# From -- ./inp_files/6640.got.cif
#   From: 2010.05.17/outbox.cif.g08.bks.cpg/sg141_4_cif.got.tgz:6640.got - 2010.05.20 13:30:51.
