data_PCOD9572587
_publ_section_title
;
Structure prediction by ZEFSAII (Michael W. Deem and Ramdas Pophale) SiO2 
 PCOD9572587
Probable space group: I 4/M C M
;
_chemical_formula_sum "Si O2"
_cell_formula_units_Z 176
_cell_length_a 18.291323
_cell_length_b 18.291323
_cell_length_c 26.735738
_cell_angle_alpha 90.000000
_cell_angle_beta 90.000000
_cell_angle_gamma 90.000000
_cell_volume 8945.042624
_symmetry_space_group_name_H-M "I 4/M C M"
_symmetry_group_IT_number 140
_symmetry_cell_setting 'tetragonal'
loop_
_space_group_symop_operation_xyz
x,y,z
-y,x,z
-x,-y,z
y,-x,z
x,-y,1/2-z
-x,y,1/2-z
y,x,1/2-z
-y,-x,1/2-z
-x,-y,-z
y,-x,-z
x,y,-z
-y,x,-z
-x,y,1/2+z
x,-y,1/2+z
-y,-x,1/2+z
y,x,1/2+z
1/2+x,1/2+y,1/2+z
1/2-y,1/2+x,1/2+z
1/2-x,1/2-y,1/2+z
1/2+y,1/2-x,1/2+z
1/2+x,1/2-y,-z
1/2-x,1/2+y,-z
1/2+y,1/2+x,-z
1/2-y,1/2-x,-z
1/2-x,1/2-y,1/2-z
1/2+y,1/2-x,1/2-z
1/2+x,1/2+y,1/2-z
1/2-y,1/2+x,1/2-z
1/2-x,1/2+y,z
1/2+x,1/2-y,z
1/2-y,1/2-x,z
1/2+y,1/2+x,z
loop_
_atom_site_type_symbol
_atom_site_label
_atom_site_fract_x
_atom_site_fract_y
_atom_site_fract_z
Si Si1 0.768616 0.731385 0.940666
Si Si2 0.397103 0.564431 0.851507
Si Si3 0.307302 0.807302 0.225205
Si Si4 0.834836 0.460142 0.120126
Si Si5 0.432971 0.267804 0.784364
Si Si6 0.296958 0.397592 0.559657
Si Si7 0.367741 0.867741 0.879306
O O1 0.686910 0.712130 0.923925
O O2 0.827622 0.672379 0.924752
O O3 0.764992 0.735009 0.000000
O O4 0.402685 0.477081 0.844315
O O5 0.339576 0.597734 0.812145
O O6 0.364208 0.574414 0.906988
O O7 0.250000 0.750000 0.250000
O O8 0.381166 0.777404 0.248591
O O9 0.327366 0.827366 0.167890
O O10 0.903592 0.403592 0.119704
O O11 0.787410 0.451533 0.170598
O O12 0.777558 0.438339 0.076327
O O13 0.855862 0.545207 0.118605
O O14 0.500000 0.291024 0.750000
O O15 0.307921 0.402873 0.500000
#
# Coordination Sequence:
#
# PCOD9572587 Si02
#       7
#    16  32  16  32  32  32  16
#     4  10  24  45  67  95 129 168 216 274 326 385
#     4  10  25  43  64  96 133 172 215 269 326 385
#     4  12  28  39  65  97 128 167 216 272 317 377
#     4  11  23  43  67  93 133 173 214 270 330 386
#     4  11  24  42  64  92 130 172 216 260 319 382
#     4  10  23  42  69  96 128 172 217 266 327 392
#     4  12  27  42  66 101 129 171 225 270 326 397
#
# _framework density 19.675702999999999
#
# number of rings (size 3 to 8) (size 9 to 14) (size 15 to 20)
#    0.000    1.273    3.636    0.273   12.727    1.455 
#    0.000    1.818    0.000    1.636    0.000    0.000 
#    0.000    0.000    0.000    0.000    0.000    0.000 
#
# Total GULP energy -491163.246268 kJ/mol
# GULP energy per Si atom -5581.400526 kJ/mol
# Density = 1.963092 g / cm^3
# Si number density = 19.675703 Si / 1000 Ang^3
#
#
#
# Elastic Constant Matrix: (Units=GPa)
#
#
# Indices 1 2 3 4 5 6 
#
# 1 56.5649 12.2481 -2.8078 0.0000 0.0000 0.0000
# 2 12.2481 56.5650 -2.8083 0.0000 0.0000 0.0000
# 3 -2.8078 -2.8083 33.7942 0.0000 0.0000 0.0000
# 4 0.0000 0.0000 0.0000 23.6521 0.0000 0.0000
# 5 0.0000 0.0000 0.0000 0.0000 23.6521 0.0000
# 6 0.0000 0.0000 0.0000 0.0000 0.0000 30.4898
#
#
#
# Elastic Compliance Matrix: (Units=1/GPa)
#
#
# Indices 1 2 3 4 5 6 
#
# 1 0.018598 -0.003967 0.001216 0.000000 0.000000 0.000000
# 2 -0.003967 0.018598 0.001216 0.000000 0.000000 0.000000
# 3 0.001216 0.001216 0.029793 0.000000 0.000000 0.000000
# 4 0.000000 0.000000 0.000000 0.042279 0.000000 0.000000
# 5 0.000000 0.000000 0.000000 0.000000 0.042279 0.000000
# 6 0.000000 0.000000 0.000000 0.000000 0.000000 0.032798
#
#
# Mechanical properties :
#
#
# Convention : Reuss Voigt Hill
#
# Bulk Modulus (GPa) = 15.64490 17.79869 16.72179
# Shear Modulus (GPa) = 23.95525 24.91161 24.43343
#
# Velocity S-wave (km/s) = 3.49306 3.56210 3.52775
# Velocity P-wave (km/s) = 4.92314 5.09743 5.01104
#
# Compressibility (1/GPa) = 0.06391861
#
# Stress axis : x y z
#
# Youngs Moduli (GPa) = 53.76900 53.76903 33.56501
#
# Poissons Ratio (x) = 0.21329 -0.04080
# Poissons Ratio (y) = 0.21329 -0.04081
# Poissons Ratio (z) = -0.06536 -0.06538
#
# Static dielectric constant tensor:
#      x y z
#    x 1.749540 0.000000 0.000000 
#    y 0.000000 1.749540 0.000000 
#    z 0.000000 0.000000 1.674970 
# 
# From -- ./inp_files/10780.got.cif
#   From: 2010.05.17/outbox.cif.g08.bks.cpg/sg140_6_cif.got.tgz:10780.got - 2010.06.21 00:45:31.
