data_PCOD9572243
_publ_section_title
;
Structure prediction by ZEFSAII (Michael W. Deem and Ramdas Pophale) SiO2 
 PCOD9572243
Probable space group: I 4/M C M
;
_chemical_formula_sum "Si O2"
_cell_formula_units_Z 128
_cell_length_a 30.175983
_cell_length_b 30.175983
_cell_length_c 8.915909
_cell_angle_alpha 90.000000
_cell_angle_beta 90.000000
_cell_angle_gamma 90.000000
_cell_volume 8118.737131
_symmetry_space_group_name_H-M "I 4/M C M"
_symmetry_group_IT_number 140
_symmetry_cell_setting 'tetragonal'
loop_
_space_group_symop_operation_xyz
x,y,z
-y,x,z
-x,-y,z
y,-x,z
x,-y,1/2-z
-x,y,1/2-z
y,x,1/2-z
-y,-x,1/2-z
-x,-y,-z
y,-x,-z
x,y,-z
-y,x,-z
-x,y,1/2+z
x,-y,1/2+z
-y,-x,1/2+z
y,x,1/2+z
1/2+x,1/2+y,1/2+z
1/2-y,1/2+x,1/2+z
1/2-x,1/2-y,1/2+z
1/2+y,1/2-x,1/2+z
1/2+x,1/2-y,-z
1/2-x,1/2+y,-z
1/2+y,1/2+x,-z
1/2-y,1/2-x,-z
1/2-x,1/2-y,1/2-z
1/2+y,1/2-x,1/2-z
1/2+x,1/2+y,1/2-z
1/2-y,1/2+x,1/2-z
1/2-x,1/2+y,z
1/2+x,1/2-y,z
1/2-y,1/2-x,z
1/2+y,1/2+x,z
loop_
_atom_site_type_symbol
_atom_site_label
_atom_site_fract_x
_atom_site_fract_y
_atom_site_fract_z
Si Si1 0.368223 0.131778 0.322338
Si Si2 0.952604 0.771775 0.325186
Si Si3 0.202745 0.702745 0.681540
Si Si4 0.335171 0.044623 0.171735
Si Si5 0.144512 0.789328 0.318262
O O1 0.366693 0.133308 0.500000
O O2 0.332857 0.167144 0.265123
O O3 0.354143 0.084804 0.263625
O O4 0.951403 0.786043 0.500000
O O5 0.953632 0.718231 0.323441
O O6 0.905894 0.783696 0.243541
O O7 0.000000 0.786048 0.250000
O O8 0.205187 0.705187 0.500000
O O9 0.179203 0.749322 0.726991
O O10 0.349901 0.000000 0.250000
O O11 0.349165 0.046824 0.000000
O O12 0.166721 0.833280 0.250000
O O13 0.143002 0.790036 0.500000
#
# Coordination Sequence:
#
# PCOD9572243 Si02
#       5
#    16  32  16  32  32
#     4  11  19  32  52  73  98 128 165 210 256 303
#     4  10  20  34  52  74  99 131 169 213 257 300
#     4   9  19  32  48  70 100 138 176 211 250 294
#     4  10  20  33  50  73  97 125 163 208 257 307
#     4  11  21  35  51  73 104 141 178 214 254 303
#
# _framework density 15.765999000000001
#
# number of rings (size 3 to 8) (size 9 to 14) (size 15 to 20)
#    0.000    1.750    2.500    3.000    0.000    2.000 
#    0.000    1.875    0.000    0.375    0.000    2.625 
#    0.000    0.500    0.000    5.000    0.000    3.000 
#
# Total GULP energy -356443.622650 kJ/mol
# GULP energy per Si atom -5569.431604 kJ/mol
# Density = 1.573011 g / cm^3
# Si number density = 15.765999 Si / 1000 Ang^3
#
#
#
# Elastic Constant Matrix: (Units=GPa)
#
#
# Indices 1 2 3 4 5 6 
#
# 1 93.7048 33.8093 37.9773 0.0000 0.0000 0.0000
# 2 33.8093 93.6927 37.9721 0.0000 0.0000 0.0000
# 3 37.9773 37.9721 81.0976 0.0000 0.0000 0.0000
# 4 0.0000 0.0000 0.0000 25.3454 0.0000 0.0000
# 5 0.0000 0.0000 0.0000 0.0000 25.3462 0.0000
# 6 0.0000 0.0000 0.0000 0.0000 0.0000 27.5850
#
#
#
# Elastic Compliance Matrix: (Units=1/GPa)
#
#
# Indices 1 2 3 4 5 6 
#
# 1 0.013786 -0.002911 -0.005093 0.000000 0.000000 0.000000
# 2 -0.002911 0.013787 -0.005093 0.000000 0.000000 0.000000
# 3 -0.005093 -0.005093 0.017100 0.000000 0.000000 0.000000
# 4 0.000000 0.000000 0.000000 0.039455 0.000000 0.000000
# 5 0.000000 0.000000 0.000000 0.000000 0.039454 0.000000
# 6 0.000000 0.000000 0.000000 0.000000 0.000000 0.036252
#
#
# Mechanical properties :
#
#
# Convention : Reuss Voigt Hill
#
# Bulk Modulus (GPa) = 54.10886 54.22361 54.16623
# Shear Modulus (GPa) = 26.01631 26.23776 26.12703
#
# Velocity S-wave (km/s) = 4.06661 4.08389 4.07526
# Velocity P-wave (km/s) = 7.51294 7.53027 7.52161
#
# Compressibility (1/GPa) = 0.01848126
#
# Stress axis : x y z
#
# Youngs Moduli (GPa) = 72.53659 72.52964 58.47828
#
# Poissons Ratio (x) = 0.21111 0.29784
# Poissons Ratio (y) = 0.21113 0.29781
# Poissons Ratio (z) = 0.36944 0.36937
#
# Static dielectric constant tensor:
#      x y z
#    x 1.529780 0.000000 0.000000 
#    y 0.000000 1.529780 0.000000 
#    z 0.000000 0.000000 1.536060 
# 
# From -- ./inp_files/1487.got.cif
#   From: 2010.05.17/outbox.cif.g08.bks.cpg/sg140_1_cif.got.tgz:1487.got - 2010.06.21 00:45:31.
