data_PCOD9572970
_publ_section_title
;
Structure prediction by ZEFSAII (Michael W. Deem and Ramdas Pophale) SiO2 
 PCOD9572970
Probable space group: I 41/A M D
;
_chemical_formula_sum "Si O2"
_cell_formula_units_Z 192
_cell_length_a 18.717745
_cell_length_b 18.717745
_cell_length_c 28.162344
_cell_angle_alpha 90.000000
_cell_angle_beta 90.000000
_cell_angle_gamma 90.000000
_cell_volume 9866.789247
_symmetry_space_group_name_H-M "I 41/A M D"
_symmetry_group_IT_number 141
_space_group.IT_coordinate_system_code '2'
_symmetry_cell_setting 'tetragonal'
loop_
_space_group_symop_operation_xyz
x,y,z
1/4-y,3/4+x,1/4+z
-x,1/2-y,z
1/4+y,1/4-x,3/4+z
x,-y,-z
-x,1/2+y,-z
1/4+y,3/4+x,1/4-z
1/4-y,1/4-x,3/4-z
-x,-y,-z
3/4+y,1/4-x,3/4-z
x,1/2+y,-z
3/4-y,3/4+x,1/4-z
-x,y,z
x,1/2-y,z
3/4-y,1/4-x,3/4+z
3/4+y,3/4+x,1/4+z
1/2+x,1/2+y,1/2+z
3/4-y,1/4+x,3/4+z
1/2-x,-y,1/2+z
3/4+y,3/4-x,1/4+z
1/2+x,1/2-y,1/2-z
1/2-x,y,1/2-z
3/4+y,1/4+x,3/4-z
3/4-y,3/4-x,1/4-z
1/2-x,1/2-y,1/2-z
1/4+y,3/4-x,1/4-z
1/2+x,y,1/2-z
1/4-y,1/4+x,3/4-z
1/2-x,1/2+y,1/2+z
1/2+x,-y,1/2+z
1/4-y,3/4-x,1/4+z
1/4+y,1/4+x,3/4+z
loop_
_atom_site_type_symbol
_atom_site_label
_atom_site_fract_x
_atom_site_fract_y
_atom_site_fract_z
Si Si1 0.652337 0.620820 0.950096
Si Si2 0.084477 0.087414 0.109485
Si Si3 0.000000 0.452940 0.452915
Si Si4 0.737731 0.969783 0.177793
Si Si5 0.500000 0.922823 0.237638
Si Si6 0.000000 0.535951 0.651006
Si Si7 0.000000 0.666561 0.346460
Si Si8 0.887373 0.489917 0.209797
O O1 0.572786 0.592030 0.952382
O O2 0.712577 0.562612 0.937513
O O3 0.665281 0.682009 0.911716
O O4 0.676582 0.647428 0.002074
O O5 0.143594 0.052734 0.073933
O O6 0.107065 0.171186 0.114851
O O7 0.091938 0.043431 0.158913
O O8 0.000000 0.084564 0.095274
O O9 0.000000 0.500000 0.500000
O O10 0.000000 0.493289 0.402191
O O11 0.768277 0.981724 0.125000
O O12 0.807082 0.980359 0.209920
O O13 0.500000 0.848232 0.210526
O O14 0.500000 0.974614 0.190961
O O15 0.434334 0.945011 0.270496
O O16 0.000000 0.750000 0.356864
#
# Coordination Sequence:
#
# PCOD9572970 Si02
#       8
#    32  32  16  32  16  16  16  32
#     4  11  23  37  56  82 114 156 200 240 302 363
#     4  10  20  37  59  87 118 153 200 248 302 359
#     4  12  24  37  57  86 114 148 202 260 295 347
#     4  10  20  35  57  84 114 151 195 247 299 356
#     4  10  20  38  61  82 114 161 193 235 308 373
#     4  10  22  39  58  75 112 160 198 238 305 364
#     4  10  22  36  56  85 119 158 192 241 310 368
#     4  10  20  36  59  84 115 150 197 249 297 357
#
# _framework density 19.459218
#
# number of rings (size 3 to 8) (size 9 to 14) (size 15 to 20)
#    0.000    1.667    0.833    5.000    0.000    5.000 
#    0.000    1.667    0.000    4.000    0.000    0.000 
#    0.000    0.000    0.000    0.000    0.000    0.000 
#
# Total GULP energy -535240.222332 kJ/mol
# GULP energy per Si atom -5575.418983 kJ/mol
# Density = 1.941493 g / cm^3
# Si number density = 19.459218 Si / 1000 Ang^3
#
#
#
# Elastic Constant Matrix: (Units=GPa)
#
#
# Indices 1 2 3 4 5 6 
#
# 1 94.2041 34.4162 16.5064 0.0000 0.0000 0.0000
# 2 34.4162 94.2036 16.5064 0.0000 0.0000 0.0000
# 3 16.5064 16.5064 71.7175 0.0000 0.0000 0.0000
# 4 0.0000 0.0000 0.0000 36.1586 0.0000 0.0000
# 5 0.0000 0.0000 0.0000 0.0000 36.1585 0.0000
# 6 0.0000 0.0000 0.0000 0.0000 0.0000 26.3960
#
#
#
# Elastic Compliance Matrix: (Units=1/GPa)
#
#
# Indices 1 2 3 4 5 6 
#
# 1 0.012494 -0.004231 -0.001902 0.000000 0.000000 0.000000
# 2 -0.004231 0.012494 -0.001902 0.000000 0.000000 0.000000
# 3 -0.001902 -0.001902 0.014819 0.000000 0.000000 0.000000
# 4 0.000000 0.000000 0.000000 0.027656 0.000000 0.000000
# 5 0.000000 0.000000 0.000000 0.000000 0.027656 0.000000
# 6 0.000000 0.000000 0.000000 0.000000 0.000000 0.037885
#
#
# Mechanical properties :
#
#
# Convention : Reuss Voigt Hill
#
# Bulk Modulus (GPa) = 42.12691 43.88702 43.00696
# Shear Modulus (GPa) = 31.84978 32.58905 32.21942
#
# Velocity S-wave (km/s) = 4.05006 4.09679 4.07349
# Velocity P-wave (km/s) = 6.60049 6.70676 6.65384
#
# Compressibility (1/GPa) = 0.02373780
#
# Stress axis : x y z
#
# Youngs Moduli (GPa) = 80.03598 80.03553 67.48081
#
# Poissons Ratio (x) = 0.33867 0.12833
# Poissons Ratio (y) = 0.33867 0.12834
# Poissons Ratio (z) = 0.15221 0.15221
#
# Static dielectric constant tensor:
#      x y z
#    x 1.716450 0.000000 0.000000 
#    y 0.000000 1.716440 0.000000 
#    z 0.000000 0.000000 1.732620 
# 
# From -- ./inp_files/14510.got.cif
#   From: 2010.05.17/outbox.cif.g08.bks.cpg/sg141_8_cif.got.tgz:14510.got - 2010.05.20 13:30:51.
