data_PCOD9572222
_publ_section_title
;
Structure prediction by ZEFSAII (Michael W. Deem and Ramdas Pophale) SiO2 
 PCOD9572222
Probable space group: I 4/M C M
;
_chemical_formula_sum "Si O2"
_cell_formula_units_Z 224
_cell_length_a 24.029744
_cell_length_b 24.029744
_cell_length_c 23.990416
_cell_angle_alpha 90.000000
_cell_angle_beta 90.000000
_cell_angle_gamma 90.000000
_cell_volume 13852.752245
_symmetry_space_group_name_H-M "I 4/M C M"
_symmetry_group_IT_number 140
_symmetry_cell_setting 'tetragonal'
loop_
_space_group_symop_operation_xyz
x,y,z
-y,x,z
-x,-y,z
y,-x,z
x,-y,1/2-z
-x,y,1/2-z
y,x,1/2-z
-y,-x,1/2-z
-x,-y,-z
y,-x,-z
x,y,-z
-y,x,-z
-x,y,1/2+z
x,-y,1/2+z
-y,-x,1/2+z
y,x,1/2+z
1/2+x,1/2+y,1/2+z
1/2-y,1/2+x,1/2+z
1/2-x,1/2-y,1/2+z
1/2+y,1/2-x,1/2+z
1/2+x,1/2-y,-z
1/2-x,1/2+y,-z
1/2+y,1/2+x,-z
1/2-y,1/2-x,-z
1/2-x,1/2-y,1/2-z
1/2+y,1/2-x,1/2-z
1/2+x,1/2+y,1/2-z
1/2-y,1/2+x,1/2-z
1/2-x,1/2+y,z
1/2+x,1/2-y,z
1/2-y,1/2-x,z
1/2+y,1/2+x,z
loop_
_atom_site_type_symbol
_atom_site_label
_atom_site_fract_x
_atom_site_fract_y
_atom_site_fract_z
Si Si1 0.657236 0.435312 0.246858
Si Si2 0.566694 0.249120 0.657901
Si Si3 0.249100 0.158143 0.935124
Si Si4 0.063722 0.250372 0.157417
Si Si5 0.842430 0.565539 0.246586
Si Si6 0.315573 0.619232 0.434405
Si Si7 0.925741 0.949132 0.432178
O O1 0.640430 0.500000 0.250000
O O2 0.605934 0.394067 0.250000
O O3 0.693092 0.424211 0.191031
O O4 0.700895 0.427256 0.297536
O O5 0.606761 0.242090 0.605908
O O6 0.501626 0.248392 0.642796
O O7 0.576782 0.200013 0.702505
O O8 0.291713 0.208288 0.922629
O O9 0.185101 0.176549 0.928432
O O10 0.256765 0.142467 0.000000
O O11 0.076535 0.307063 0.190330
O O12 0.098588 0.234856 0.103443
O O13 0.855832 0.500000 0.250000
O O14 0.895504 0.604497 0.249762
O O15 0.307442 0.606944 0.500000
O O16 0.371939 0.586428 0.415782
O O17 0.926638 0.948873 0.500000
O O18 0.985868 0.924499 0.414341
#
# Coordination Sequence:
#
# PCOD9572222 Si02
#       7
#    32  32  32  32  32  32  32
#     4   9  17  31  48  65  91 125 165 210 248 286
#     4   9  18  33  53  70  94 129 161 201 242 289
#     4  10  21  34  48  71 100 130 167 209 251 292
#     4   9  19  32  48  73  98 126 165 200 238 293
#     4   9  18  34  56  81 102 122 151 192 246 303
#     4  10  20  31  47  69  99 138 172 209 255 296
#     4   8  15  28  44  64  92 126 170 220 259 292
#
# _framework density 16.170072000000001
#
# number of rings (size 3 to 8) (size 9 to 14) (size 15 to 20)
#    0.000    2.857    0.000    3.429    2.000    1.429 
#    0.000    0.000    0.000    4.714    0.000    0.000 
#    0.000    0.000    0.000   15.143    0.000    0.000 
#
# Total GULP energy -624504.841132 kJ/mol
# GULP energy per Si atom -5575.936082 kJ/mol
# Density = 1.613327 g / cm^3
# Si number density = 16.170072 Si / 1000 Ang^3
#
#
#
# Elastic Constant Matrix: (Units=GPa)
#
#
# Indices 1 2 3 4 5 6 
#
# 1 82.0040 70.5425 46.5296 0.0000 0.0000 0.0000
# 2 70.5425 82.0023 46.5299 0.0000 0.0000 0.0000
# 3 46.5296 46.5299 71.5630 0.0000 0.0000 0.0000
# 4 0.0000 0.0000 0.0000 18.0002 0.0000 0.0000
# 5 0.0000 0.0000 0.0000 0.0000 17.9999 0.0000
# 6 0.0000 0.0000 0.0000 0.0000 0.0000 29.5471
#
#
#
# Elastic Compliance Matrix: (Units=1/GPa)
#
#
# Indices 1 2 3 4 5 6 
#
# 1 0.049059 -0.038195 -0.007063 0.000000 0.000000 0.000000
# 2 -0.038195 0.049061 -0.007065 0.000000 0.000000 0.000000
# 3 -0.007063 -0.007065 0.023160 0.000000 0.000000 0.000000
# 4 0.000000 0.000000 0.000000 0.055555 0.000000 0.000000
# 5 0.000000 0.000000 0.000000 0.000000 0.055556 0.000000
# 6 0.000000 0.000000 0.000000 0.000000 0.000000 0.033844
#
#
# Mechanical properties :
#
#
# Convention : Reuss Voigt Hill
#
# Bulk Modulus (GPa) = 60.12257 62.53035 61.32646
# Shear Modulus (GPa) = 13.28282 17.90728 15.59505
#
# Velocity S-wave (km/s) = 2.86919 3.33142 3.10891
# Velocity P-wave (km/s) = 6.94539 7.31794 7.13410
#
# Compressibility (1/GPa) = 0.01663269
#
# Stress axis : x y z
#
# Youngs Moduli (GPa) = 20.38364 20.38283 43.17783
#
# Poissons Ratio (x) = 0.77852 0.30499
# Poissons Ratio (y) = 0.77855 0.30506
# Poissons Ratio (z) = 0.14398 0.14401
#
# Static dielectric constant tensor:
#      x y z
#    x 1.523180 0.000000 0.000000 
#    y 0.000000 1.523180 0.000000 
#    z 0.000000 0.000000 1.556280 
# 
# From -- ./inp_files/9996.got.cif
#   From: 2010.05.17/outbox.cif.g08.bks.cpg/sg140_5_cif.got.tgz:9996.got - 2010.06.21 00:45:31.
