data_PCOD9572485
_publ_section_title
;
Structure prediction by ZEFSAII (Michael W. Deem and Ramdas Pophale) SiO2 
 PCOD9572485
Probable space group: I 4/M C M
;
_chemical_formula_sum "Si O2"
_cell_formula_units_Z 216
_cell_length_a 27.963628
_cell_length_b 27.963628
_cell_length_c 14.937531
_cell_angle_alpha 90.000000
_cell_angle_beta 90.000000
_cell_angle_gamma 90.000000
_cell_volume 11680.618824
_symmetry_space_group_name_H-M "I 4/M C M"
_symmetry_group_IT_number 140
_symmetry_cell_setting 'tetragonal'
loop_
_space_group_symop_operation_xyz
x,y,z
-y,x,z
-x,-y,z
y,-x,z
x,-y,1/2-z
-x,y,1/2-z
y,x,1/2-z
-y,-x,1/2-z
-x,-y,-z
y,-x,-z
x,y,-z
-y,x,-z
-x,y,1/2+z
x,-y,1/2+z
-y,-x,1/2+z
y,x,1/2+z
1/2+x,1/2+y,1/2+z
1/2-y,1/2+x,1/2+z
1/2-x,1/2-y,1/2+z
1/2+y,1/2-x,1/2+z
1/2+x,1/2-y,-z
1/2-x,1/2+y,-z
1/2+y,1/2+x,-z
1/2-y,1/2-x,-z
1/2-x,1/2-y,1/2-z
1/2+y,1/2-x,1/2-z
1/2+x,1/2+y,1/2-z
1/2-y,1/2+x,1/2-z
1/2-x,1/2+y,z
1/2+x,1/2-y,z
1/2-y,1/2-x,z
1/2+y,1/2+x,z
loop_
_atom_site_type_symbol
_atom_site_label
_atom_site_fract_x
_atom_site_fract_y
_atom_site_fract_z
Si Si1 0.699019 0.619545 0.762046
Si Si2 0.118003 0.381998 0.500000
Si Si3 0.974008 0.850949 0.160994
Si Si4 0.448453 0.271535 0.894446
Si Si5 0.715870 0.135457 0.899277
Si Si6 0.455019 0.838494 0.357261
Si Si7 0.440479 0.862663 0.148864
Si Si8 0.423475 0.476275 0.000000
O O1 0.664447 0.664447 0.750000
O O2 0.670873 0.576781 0.811772
O O3 0.714309 0.596722 0.666953
O O4 0.744510 0.632460 0.822847
O O5 0.146164 0.412960 0.422310
O O6 0.968355 0.891000 0.086628
O O7 0.000000 0.870402 0.250000
O O8 0.008710 0.808549 0.125967
O O9 0.463153 0.218324 0.864573
O O10 0.437983 0.272169 0.000000
O O11 0.681231 0.181231 0.887368
O O12 0.681117 0.089557 0.891914
O O13 0.736485 0.137022 0.000000
O O14 0.442957 0.852832 0.255530
O O15 0.505058 0.863450 0.383252
O O16 0.410609 0.910609 0.131050
O O17 0.469370 0.442273 0.000000
#
# Coordination Sequence:
#
# PCOD9572485 Si02
#       8
#    32   8  32  32  32  32  32  16
#     4  11  25  40  63  95 126 164 205 262 329 382
#     4  12  24  38  61 102 122 170 210 262 322 372
#     4  10  24  40  64  92 127 164 214 263 321 374
#     4  11  22  41  64  95 123 165 212 263 318 372
#     4  10  22  40  65  92 122 161 213 259 311 376
#     4  11  22  37  62  89 131 158 211 263 307 379
#     4  10  21  39  62  88 121 166 207 257 316 363
#     4  11  26  43  64  93 126 175 216 257 317 384
#
# _framework density 18.492170999999999
#
# number of rings (size 3 to 8) (size 9 to 14) (size 15 to 20)
#    0.000    1.407    3.704    0.889   10.370    2.074 
#    0.000    1.481    0.000    0.000    0.000    0.000 
#    0.000    0.000    0.000    0.000    0.000    0.000 
#
# Total GULP energy -602473.585377 kJ/mol
# GULP energy per Si atom -5578.459124 kJ/mol
# Density = 1.845008 g / cm^3
# Si number density = 18.492171 Si / 1000 Ang^3
#
#
#
# Elastic Constant Matrix: (Units=GPa)
#
#
# Indices 1 2 3 4 5 6 
#
# 1 42.0469 31.7900 12.1534 0.0000 0.0000 0.0000
# 2 31.7900 42.0476 12.1541 0.0000 0.0000 0.0000
# 3 12.1534 12.1541 76.1742 0.0000 0.0000 0.0000
# 4 0.0000 0.0000 0.0000 -11.7081 0.0000 0.0000
# 5 0.0000 0.0000 0.0000 0.0000 -11.7091 0.0000
# 6 0.0000 0.0000 0.0000 0.0000 0.0000 14.6406
#
#
#
# Elastic Compliance Matrix: (Units=1/GPa)
#
#
# Indices 1 2 3 4 5 6 
#
# 1 0.055893 -0.041599 -0.002280 0.000000 0.000000 0.000000
# 2 -0.041599 0.055893 -0.002281 0.000000 0.000000 0.000000
# 3 -0.002280 -0.002281 0.013856 0.000000 0.000000 0.000000
# 4 0.000000 0.000000 0.000000 -0.085411 0.000000 0.000000
# 5 0.000000 0.000000 0.000000 0.000000 -0.085403 0.000000
# 6 0.000000 0.000000 0.000000 0.000000 0.000000 0.068303
#
#
# Mechanical properties :
#
#
# Convention : Reuss Voigt Hill
#
# Bulk Modulus (GPa) = 30.01094 30.27373 30.14233
# Shear Modulus (GPa) = 39.50760 5.18943 22.34851
#
# Velocity S-wave (km/s) = 4.62719 1.67701 3.48018
# Velocity P-wave (km/s) = 6.69418 4.48960 5.69950
#
# Compressibility (1/GPa) = 0.03332118
#
# Stress axis : x y z
#
# Youngs Moduli (GPa) = 17.89119 17.89141 72.17314
#
# Poissons Ratio (x) = 0.74426 0.16457
# Poissons Ratio (y) = 0.74426 0.16463
# Poissons Ratio (z) = 0.04080 0.04081
#
# Static dielectric constant tensor:
#      x y z
#    x 1.618120 0.000000 0.000000 
#    y 0.000000 1.618120 0.000000 
#    z 0.000000 0.000000 1.650670 
# 
# From -- ./inp_files/5252.got.cif
#   From: 2010.05.17/outbox.cif.g08.bks.cpg/sg140_3_cif.got.tgz:5252.got - 2010.06.21 00:45:31.
