data_PCOD9572789
_publ_section_title
;
Structure prediction by ZEFSAII (Michael W. Deem and Ramdas Pophale) SiO2 
 PCOD9572789
Probable space group: I 41/A M D
;
_chemical_formula_sum "Si O2"
_cell_formula_units_Z 84
_cell_length_a 16.674081
_cell_length_b 16.674081
_cell_length_c 17.727083
_cell_angle_alpha 90.000000
_cell_angle_beta 90.000000
_cell_angle_gamma 90.000000
_cell_volume 4928.571847
_symmetry_space_group_name_H-M "I 41/A M D"
_symmetry_group_IT_number 141
_space_group.IT_coordinate_system_code '2'
_symmetry_cell_setting 'tetragonal'
loop_
_space_group_symop_operation_xyz
x,y,z
1/4-y,3/4+x,1/4+z
-x,1/2-y,z
1/4+y,1/4-x,3/4+z
x,-y,-z
-x,1/2+y,-z
1/4+y,3/4+x,1/4-z
1/4-y,1/4-x,3/4-z
-x,-y,-z
3/4+y,1/4-x,3/4-z
x,1/2+y,-z
3/4-y,3/4+x,1/4-z
-x,y,z
x,1/2-y,z
3/4-y,1/4-x,3/4+z
3/4+y,3/4+x,1/4+z
1/2+x,1/2+y,1/2+z
3/4-y,1/4+x,3/4+z
1/2-x,-y,1/2+z
3/4+y,3/4-x,1/4+z
1/2+x,1/2-y,1/2-z
1/2-x,y,1/2-z
3/4+y,1/4+x,3/4-z
3/4-y,3/4-x,1/4-z
1/2-x,1/2-y,1/2-z
1/4+y,3/4-x,1/4-z
1/2+x,y,1/2-z
1/4-y,1/4+x,3/4-z
1/2-x,1/2+y,1/2+z
1/2+x,-y,1/2+z
1/4-y,3/4-x,1/4+z
1/4+y,1/4+x,3/4+z
loop_
_atom_site_type_symbol
_atom_site_label
_atom_site_fract_x
_atom_site_fract_y
_atom_site_fract_z
Si Si1 0.239585 0.500000 0.000000
Si Si2 0.673589 0.750000 0.859655
Si Si3 0.194325 0.113683 0.124995
Si Si4 0.000000 0.344134 0.556699
Si Si5 0.500000 0.750000 0.875000
O O1 0.190160 0.565726 0.953135
O O2 0.298101 0.457302 0.940051
O O3 0.727480 0.672072 0.875033
O O4 0.643811 0.750000 0.772400
O O5 0.591374 0.750000 0.907040
O O6 0.122306 0.172035 0.147153
O O7 0.000000 0.250000 0.544091
#
# Coordination Sequence:
#
# PCOD9572789 Si02
#       5
#    16  16  32  16   4
#     4  10  18  33  55  72 108 144 184 212 272 324
#     4  11  20  32  49  81 123 137 173 215 278 337
#     4  10  20  35  52  79 108 145 178 231 265 334
#     4  11  21  36  52  82 114 142 180 222 284 330
#     4  12  20  24  48  84 112 156 164 186 264 364
#
# _framework density 17.043476999999999
#
# number of rings (size 3 to 8) (size 9 to 14) (size 15 to 20)
#    0.000    1.524    4.762    3.429    0.000    0.000 
#    3.429    0.952    0.000    0.000    0.000    0.000 
#    0.000    0.000    0.000    0.000    0.000    0.000 
#
# Total GULP energy -234256.114582 kJ/mol
# GULP energy per Si atom -5577.526538 kJ/mol
# Density = 1.700469 g / cm^3
# Si number density = 17.043477 Si / 1000 Ang^3
#
#
#
# Elastic Constant Matrix: (Units=GPa)
#
#
# Indices 1 2 3 4 5 6 
#
# 1 76.1429 36.0461 46.4368 0.0000 0.0000 0.0000
# 2 36.0461 76.1429 46.4368 0.0000 0.0000 0.0000
# 3 46.4368 46.4368 106.0662 0.0000 0.0000 0.0000
# 4 0.0000 0.0000 0.0000 32.3489 0.0000 0.0000
# 5 0.0000 0.0000 0.0000 0.0000 32.3490 0.0000
# 6 0.0000 0.0000 0.0000 0.0000 0.0000 15.7513
#
#
#
# Elastic Compliance Matrix: (Units=1/GPa)
#
#
# Indices 1 2 3 4 5 6 
#
# 1 0.019460 -0.005480 -0.006121 0.000000 0.000000 0.000000
# 2 -0.005480 0.019460 -0.006121 0.000000 0.000000 0.000000
# 3 -0.006121 -0.006121 0.014788 0.000000 0.000000 0.000000
# 4 0.000000 0.000000 0.000000 0.030913 0.000000 0.000000
# 5 0.000000 0.000000 0.000000 0.000000 0.030913 0.000000
# 6 0.000000 0.000000 0.000000 0.000000 0.000000 0.063487
#
#
# Mechanical properties :
#
#
# Convention : Reuss Voigt Hill
#
# Bulk Modulus (GPa) = 54.74834 57.35460 56.05147
# Shear Modulus (GPa) = 22.67047 24.71866 23.69456
#
# Velocity S-wave (km/s) = 3.65109 3.81245 3.73264
# Velocity P-wave (km/s) = 7.06869 7.28730 7.17883
#
# Compressibility (1/GPa) = 0.01826539
#
# Stress axis : x y z
#
# Youngs Moduli (GPa) = 51.38718 51.38718 67.62440
#
# Poissons Ratio (x) = 0.28158 0.41392
# Poissons Ratio (y) = 0.28158 0.41392
# Poissons Ratio (z) = 0.31453 0.31453
#
# Static dielectric constant tensor:
#      x y z
#    x 1.584810 0.000000 0.000000 
#    y 0.000000 1.584810 0.000000 
#    z 0.000000 0.000000 1.682630 
# 
# From -- ./inp_files/7616.got.cif
#   From: 2010.05.17/outbox.cif.g08.bks.cpg/sg141_4_cif.got.tgz:7616.got - 2010.05.20 13:30:51.
