data_PCOD9572987
_publ_section_title
;
Structure prediction by ZEFSAII (Michael W. Deem and Ramdas Pophale) SiO2 
 PCOD9572987
Probable space group: I 41/A M D
;
_chemical_formula_sum "Si O2"
_cell_formula_units_Z 176
_cell_length_a 19.164352
_cell_length_b 19.164352
_cell_length_c 24.639380
_cell_angle_alpha 90.000000
_cell_angle_beta 90.000000
_cell_angle_gamma 90.000000
_cell_volume 9049.363921
_symmetry_space_group_name_H-M "I 41/A M D"
_symmetry_group_IT_number 141
_space_group.IT_coordinate_system_code '2'
_symmetry_cell_setting 'tetragonal'
loop_
_space_group_symop_operation_xyz
x,y,z
1/4-y,3/4+x,1/4+z
-x,1/2-y,z
1/4+y,1/4-x,3/4+z
x,-y,-z
-x,1/2+y,-z
1/4+y,3/4+x,1/4-z
1/4-y,1/4-x,3/4-z
-x,-y,-z
3/4+y,1/4-x,3/4-z
x,1/2+y,-z
3/4-y,3/4+x,1/4-z
-x,y,z
x,1/2-y,z
3/4-y,1/4-x,3/4+z
3/4+y,3/4+x,1/4+z
1/2+x,1/2+y,1/2+z
3/4-y,1/4+x,3/4+z
1/2-x,-y,1/2+z
3/4+y,3/4-x,1/4+z
1/2+x,1/2-y,1/2-z
1/2-x,y,1/2-z
3/4+y,1/4+x,3/4-z
3/4-y,3/4-x,1/4-z
1/2-x,1/2-y,1/2-z
1/4+y,3/4-x,1/4-z
1/2+x,y,1/2-z
1/4-y,1/4+x,3/4-z
1/2-x,1/2+y,1/2+z
1/2+x,-y,1/2+z
1/4-y,3/4-x,1/4+z
1/4+y,1/4+x,3/4+z
loop_
_atom_site_type_symbol
_atom_site_label
_atom_site_fract_x
_atom_site_fract_y
_atom_site_fract_z
Si Si1 0.583512 0.415664 0.947112
Si Si2 0.080473 0.940649 0.740455
Si Si3 0.420703 0.944829 0.883596
Si Si4 0.660964 0.164953 0.518281
Si Si5 0.417211 0.667211 0.375000
Si Si6 0.579824 0.334714 0.411419
O O1 0.500000 0.413536 0.957664
O O2 0.627784 0.383068 0.996321
O O3 0.599604 0.493779 0.925275
O O4 0.600492 0.366374 0.895586
O O5 0.078350 0.970909 0.678997
O O6 0.000000 0.919456 0.752487
O O7 0.103600 0.008095 0.773990
O O8 0.369916 0.880085 0.875000
O O9 0.500000 0.923645 0.897158
O O10 0.659256 0.250000 0.516524
O O11 0.619064 0.141359 0.570700
O O12 0.623576 0.140131 0.463296
O O13 0.405952 0.750000 0.370419
O O14 0.500000 0.359267 0.413052
O O15 0.578583 0.250000 0.414511
#
# Coordination Sequence:
#
# PCOD9572987 Si02
#       6
#    32  32  32  32  16  32
#     4  10  20  36  58  85 115 146 187 236 281 337
#     4  10  20  36  58  83 115 152 188 233 289 338
#     4  10  22  41  62  84 113 148 187 233 289 351
#     4   9  16  29  48  73 109 149 183 225 280 330
#     4   9  16  26  46  78 110 144 190 232 267 318
#     4   9  15  26  50  82 111 142 183 229 275 324
#
# _framework density 19.448881
#
# number of rings (size 3 to 8) (size 9 to 14) (size 15 to 20)
#    0.000    2.455    1.818    1.091    0.000    4.909 
#    1.636    3.636    0.000    1.091    0.000    5.091 
#    0.000    0.000    0.000    0.000    0.000    0.000 
#
# Total GULP energy -490442.692992 kJ/mol
# GULP energy per Si atom -5573.212420 kJ/mol
# Density = 1.940461 g / cm^3
# Si number density = 19.448881 Si / 1000 Ang^3
#
#
#
# Elastic Constant Matrix: (Units=GPa)
#
#
# Indices 1 2 3 4 5 6 
#
# 1 66.4923 48.9968 14.2276 0.0000 0.0000 0.0000
# 2 48.9968 66.4944 14.2268 0.0000 0.0000 0.0000
# 3 14.2276 14.2268 55.4957 0.0000 0.0000 0.0000
# 4 0.0000 0.0000 0.0000 17.6599 0.0000 0.0000
# 5 0.0000 0.0000 0.0000 0.0000 17.6595 0.0000
# 6 0.0000 0.0000 0.0000 0.0000 0.0000 19.4364
#
#
#
# Elastic Compliance Matrix: (Units=1/GPa)
#
#
# Indices 1 2 3 4 5 6 
#
# 1 0.033199 -0.023956 -0.002370 0.000000 0.000000 0.000000
# 2 -0.023956 0.033198 -0.002369 0.000000 0.000000 0.000000
# 3 -0.002370 -0.002369 0.019234 0.000000 0.000000 0.000000
# 4 0.000000 0.000000 0.000000 0.056626 0.000000 0.000000
# 5 0.000000 0.000000 0.000000 0.000000 0.056627 0.000000
# 6 0.000000 0.000000 0.000000 0.000000 0.000000 0.051450
#
#
# Mechanical properties :
#
#
# Convention : Reuss Voigt Hill
#
# Bulk Modulus (GPa) = 35.40889 38.15389 36.78139
# Shear Modulus (GPa) = 15.76608 18.35323 17.05966
#
# Velocity S-wave (km/s) = 2.85027 3.07525 2.96489
# Velocity P-wave (km/s) = 5.39237 5.68064 5.53838
#
# Compressibility (1/GPa) = 0.02824150
#
# Stress axis : x y z
#
# Youngs Moduli (GPa) = 30.12139 30.12260 51.99035
#
# Poissons Ratio (x) = 0.72161 0.12322
# Poissons Ratio (y) = 0.72158 0.12316
# Poissons Ratio (z) = 0.07139 0.07136
#
# Static dielectric constant tensor:
#      x y z
#    x 1.681940 0.000000 0.000000 
#    y 0.000000 1.681940 0.000000 
#    z 0.000000 0.000000 1.752680 
# 
# From -- ./inp_files/12905.got.cif
#   From: 2010.05.17/outbox.cif.g08.bks.cpg/sg141_7_cif.got.tgz:12905.got - 2010.05.20 13:30:51.
