data_PCOD9572399
_publ_section_title
;
Structure prediction by ZEFSAII (Michael W. Deem and Ramdas Pophale) SiO2 
 PCOD9572399
Probable space group: I 4/M C M
;
_chemical_formula_sum "Si O2"
_cell_formula_units_Z 176
_cell_length_a 24.082425
_cell_length_b 24.082425
_cell_length_c 14.326539
_cell_angle_alpha 90.000000
_cell_angle_beta 90.000000
_cell_angle_gamma 90.000000
_cell_volume 8308.865316
_symmetry_space_group_name_H-M "I 4/M C M"
_symmetry_group_IT_number 140
_symmetry_cell_setting 'tetragonal'
loop_
_space_group_symop_operation_xyz
x,y,z
-y,x,z
-x,-y,z
y,-x,z
x,-y,1/2-z
-x,y,1/2-z
y,x,1/2-z
-y,-x,1/2-z
-x,-y,-z
y,-x,-z
x,y,-z
-y,x,-z
-x,y,1/2+z
x,-y,1/2+z
-y,-x,1/2+z
y,x,1/2+z
1/2+x,1/2+y,1/2+z
1/2-y,1/2+x,1/2+z
1/2-x,1/2-y,1/2+z
1/2+y,1/2-x,1/2+z
1/2+x,1/2-y,-z
1/2-x,1/2+y,-z
1/2+y,1/2+x,-z
1/2-y,1/2-x,-z
1/2-x,1/2-y,1/2-z
1/2+y,1/2-x,1/2-z
1/2+x,1/2+y,1/2-z
1/2-y,1/2+x,1/2-z
1/2-x,1/2+y,z
1/2+x,1/2-y,z
1/2-y,1/2-x,z
1/2+y,1/2+x,z
loop_
_atom_site_type_symbol
_atom_site_label
_atom_site_fract_x
_atom_site_fract_y
_atom_site_fract_z
Si Si1 0.924500 0.041973 0.356527
Si Si2 0.000000 0.408252 0.250000
Si Si3 0.079216 0.201445 0.387404
Si Si4 0.508916 0.190399 0.387140
Si Si5 0.706608 0.704408 0.386439
Si Si6 0.381489 0.206788 0.613207
O O1 0.943454 0.056547 0.250000
O O2 0.860732 0.059628 0.363325
O O3 0.979223 0.072466 0.396945
O O4 0.050827 0.449174 0.221980
O O5 0.020034 0.366904 0.332624
O O6 0.078803 0.203176 0.500000
O O7 0.044360 0.255558 0.358194
O O8 0.142025 0.207625 0.353399
O O9 0.513956 0.183308 0.500000
O O10 0.445230 0.204230 0.362218
O O11 0.707133 0.703275 0.500000
O O12 0.759600 0.740401 0.357348
O O13 0.651738 0.738223 0.359065
O O14 0.379630 0.205325 0.500000
O O15 0.345937 0.154063 0.647222
#
# Coordination Sequence:
#
# PCOD9572399 Si02
#       6
#    32  16  32  32  32  32
#     4   9  20  38  56  76 111 163 213 257 311 370
#     4  11  26  46  68  96 128 165 212 266 324 393
#     4  10  21  34  56  90 121 158 205 258 320 381
#     4  10  22  40  63  94 129 165 209 264 327 388
#     4   8  15  29  49  75 109 148 190 236 292 363
#     4   8  14  28  53  80 108 149 197 246 301 364
#
# _framework density 21.182193999999999
#
# number of rings (size 3 to 8) (size 9 to 14) (size 15 to 20)
#    0.000    2.818    0.000    2.182    2.545    4.364 
#    0.000    3.636    0.000    0.545    0.000    0.000 
#    0.000    0.000    0.000    0.000    0.000    0.000 
#
# Total GULP energy -490201.790302 kJ/mol
# GULP energy per Si atom -5570.474890 kJ/mol
# Density = 2.113398 g / cm^3
# Si number density = 21.182194 Si / 1000 Ang^3
#
#
#
# Elastic Constant Matrix: (Units=GPa)
#
#
# Indices 1 2 3 4 5 6 
#
# 1 82.9756 31.8281 -10.2352 0.0000 0.0000 0.0000
# 2 31.8281 82.9758 -10.2352 0.0000 0.0000 0.0000
# 3 -10.2352 -10.2352 74.8335 0.0000 0.0000 0.0000
# 4 0.0000 0.0000 0.0000 9.6862 0.0000 0.0000
# 5 0.0000 0.0000 0.0000 0.0000 9.6892 0.0000
# 6 0.0000 0.0000 0.0000 0.0000 0.0000 5.9124
#
#
#
# Elastic Compliance Matrix: (Units=1/GPa)
#
#
# Indices 1 2 3 4 5 6 
#
# 1 0.014240 -0.005312 0.001221 0.000000 0.000000 0.000000
# 2 -0.005312 0.014240 0.001221 0.000000 0.000000 0.000000
# 3 0.001221 0.001221 0.013697 0.000000 0.000000 0.000000
# 4 0.000000 0.000000 0.000000 0.103239 0.000000 0.000000
# 5 0.000000 0.000000 0.000000 0.000000 0.103207 0.000000
# 6 0.000000 0.000000 0.000000 0.000000 0.000000 0.169136
#
#
# Mechanical properties :
#
#
# Convention : Reuss Voigt Hill
#
# Bulk Modulus (GPa) = 27.44378 29.27780 28.36079
# Shear Modulus (GPa) = 11.47727 20.35271 15.91499
#
# Velocity S-wave (km/s) = 2.33026 3.10311 2.74403
# Velocity P-wave (km/s) = 4.49715 5.16633 4.84331
#
# Compressibility (1/GPa) = 0.03643813
#
# Stress axis : x y z
#
# Youngs Moduli (GPa) = 70.22581 70.22597 73.00846
#
# Poissons Ratio (x) = 0.37301 -0.08915
# Poissons Ratio (y) = 0.37300 -0.08915
# Poissons Ratio (z) = -0.08576 -0.08576
#
# Static dielectric constant tensor:
#      x y z
#    x 1.764340 0.000000 0.000000 
#    y 0.000000 1.764340 0.000000 
#    z 0.000000 0.000000 2.125040 
# 
# From -- ./inp_files/4901.got.cif
#   From: 2010.05.17/outbox.cif.g08.bks.cpg/sg140_3_cif.got.tgz:4901.got - 2010.06.21 00:45:31.
