data_PCOD9572526
_publ_section_title
;
Structure prediction by ZEFSAII (Michael W. Deem and Ramdas Pophale) SiO2 
 PCOD9572526
Probable space group: I 4/M C M
;
_chemical_formula_sum "Si O2"
_cell_formula_units_Z 96
_cell_length_a 13.349289
_cell_length_b 13.349289
_cell_length_c 27.983644
_cell_angle_alpha 90.000000
_cell_angle_beta 90.000000
_cell_angle_gamma 90.000000
_cell_volume 4986.783774
_symmetry_space_group_name_H-M "I 4/M C M"
_symmetry_group_IT_number 140
_symmetry_cell_setting 'tetragonal'
loop_
_space_group_symop_operation_xyz
x,y,z
-y,x,z
-x,-y,z
y,-x,z
x,-y,1/2-z
-x,y,1/2-z
y,x,1/2-z
-y,-x,1/2-z
-x,-y,-z
y,-x,-z
x,y,-z
-y,x,-z
-x,y,1/2+z
x,-y,1/2+z
-y,-x,1/2+z
y,x,1/2+z
1/2+x,1/2+y,1/2+z
1/2-y,1/2+x,1/2+z
1/2-x,1/2-y,1/2+z
1/2+y,1/2-x,1/2+z
1/2+x,1/2-y,-z
1/2-x,1/2+y,-z
1/2+y,1/2+x,-z
1/2-y,1/2-x,-z
1/2-x,1/2-y,1/2-z
1/2+y,1/2-x,1/2-z
1/2+x,1/2+y,1/2-z
1/2-y,1/2+x,1/2-z
1/2-x,1/2+y,z
1/2+x,1/2-y,z
1/2-y,1/2-x,z
1/2+y,1/2+x,z
loop_
_atom_site_type_symbol
_atom_site_label
_atom_site_fract_x
_atom_site_fract_y
_atom_site_fract_z
Si Si1 0.572912 0.764805 0.350005
Si Si2 0.668449 0.480190 0.553654
Si Si3 0.787127 0.876139 0.794726
O O1 0.630349 0.869652 0.344881
O O2 0.533130 0.745440 0.403285
O O3 0.654507 0.679202 0.337601
O O4 0.483714 0.747539 0.312452
O O5 0.606656 0.583877 0.557644
O O6 0.711463 0.474904 0.500000
O O7 0.862442 0.862442 0.750000
O O8 0.689361 0.810640 0.782220
#
# Coordination Sequence:
#
# PCOD9572526 Si02
#       3
#    32  32  32
#     4  11  21  35  59  86 116 158 200 244 305 364
#     4   9  17  32  55  83 117 155 203 259 305 352
#     4  10  22  39  57  84 118 150 194 249 300 361
#
# _framework density 19.250883999999999
#
# number of rings (size 3 to 8) (size 9 to 14) (size 15 to 20)
#    0.000    2.000    3.333    2.000    0.000    2.000 
#    0.000    1.667    0.000    7.000    0.000    2.333 
#    0.000    0.000    0.000    0.000    0.000    0.000 
#
# Total GULP energy -267692.456460 kJ/mol
# GULP energy per Si atom -5576.926176 kJ/mol
# Density = 1.920707 g / cm^3
# Si number density = 19.250884 Si / 1000 Ang^3
#
#
#
# Elastic Constant Matrix: (Units=GPa)
#
#
# Indices 1 2 3 4 5 6 
#
# 1 82.9362 55.3590 46.2160 0.0000 0.0000 0.0000
# 2 55.3590 82.9362 46.2160 0.0000 0.0000 0.0000
# 3 46.2160 46.2160 150.0967 0.0000 0.0000 0.0000
# 4 0.0000 0.0000 0.0000 23.7902 0.0000 0.0000
# 5 0.0000 0.0000 0.0000 0.0000 23.7902 0.0000
# 6 0.0000 0.0000 0.0000 0.0000 0.0000 22.5821
#
#
#
# Elastic Compliance Matrix: (Units=1/GPa)
#
#
# Indices 1 2 3 4 5 6 
#
# 1 0.022683 -0.013579 -0.002803 0.000000 0.000000 0.000000
# 2 -0.013579 0.022683 -0.002803 0.000000 0.000000 0.000000
# 3 -0.002803 -0.002803 0.008389 0.000000 0.000000 0.000000
# 4 0.000000 0.000000 0.000000 0.042034 0.000000 0.000000
# 5 0.000000 0.000000 0.000000 0.000000 0.042034 0.000000
# 6 0.000000 0.000000 0.000000 0.000000 0.000000 0.044283
#
#
# Mechanical properties :
#
#
# Convention : Reuss Voigt Hill
#
# Bulk Modulus (GPa) = 65.00086 67.95013 66.47550
# Shear Modulus (GPa) = 22.16262 25.24436 23.70349
#
# Velocity S-wave (km/s) = 3.39669 3.62517 3.51279
# Velocity P-wave (km/s) = 7.01582 7.27298 7.14556
#
# Compressibility (1/GPa) = 0.01538441
#
# Stress axis : x y z
#
# Youngs Moduli (GPa) = 44.08553 44.08553 119.20734
#
# Poissons Ratio (x) = 0.59862 0.33418
# Poissons Ratio (y) = 0.59862 0.33418
# Poissons Ratio (z) = 0.12359 0.12359
#
# Static dielectric constant tensor:
#      x y z
#    x 1.667690 0.000000 0.000000 
#    y 0.000000 1.667690 0.000000 
#    z 0.000000 0.000000 1.710600 
# 
# From -- ./inp_files/11211.got.cif
#   From: 2010.05.17/outbox.cif.g08.bks.cpg/sg140_6_cif.got.tgz:11211.got - 2010.06.21 00:45:31.
