data_PCOD9572099
_publ_section_title
;
Structure prediction by ZEFSAII (Michael W. Deem and Ramdas Pophale) SiO2 
 PCOD9572099
Probable space group: I 4/M C M
;
_chemical_formula_sum "Si O2"
_cell_formula_units_Z 160
_cell_length_a 23.706553
_cell_length_b 23.706553
_cell_length_c 14.452377
_cell_angle_alpha 90.000000
_cell_angle_beta 90.000000
_cell_angle_gamma 90.000000
_cell_volume 8122.245342
_symmetry_space_group_name_H-M "I 4/M C M"
_symmetry_group_IT_number 140
_symmetry_cell_setting 'tetragonal'
loop_
_space_group_symop_operation_xyz
x,y,z
-y,x,z
-x,-y,z
y,-x,z
x,-y,1/2-z
-x,y,1/2-z
y,x,1/2-z
-y,-x,1/2-z
-x,-y,-z
y,-x,-z
x,y,-z
-y,x,-z
-x,y,1/2+z
x,-y,1/2+z
-y,-x,1/2+z
y,x,1/2+z
1/2+x,1/2+y,1/2+z
1/2-y,1/2+x,1/2+z
1/2-x,1/2-y,1/2+z
1/2+y,1/2-x,1/2+z
1/2+x,1/2-y,-z
1/2-x,1/2+y,-z
1/2+y,1/2+x,-z
1/2-y,1/2-x,-z
1/2-x,1/2-y,1/2-z
1/2+y,1/2-x,1/2-z
1/2+x,1/2+y,1/2-z
1/2-y,1/2+x,1/2-z
1/2-x,1/2+y,z
1/2+x,1/2-y,z
1/2-y,1/2-x,z
1/2+y,1/2+x,z
loop_
_atom_site_type_symbol
_atom_site_label
_atom_site_fract_x
_atom_site_fract_y
_atom_site_fract_z
Si Si1 0.062527 0.764320 0.860469
Si Si2 0.652674 0.058249 0.000000
Si Si3 0.050053 0.076985 0.888738
Si Si4 0.070079 0.335874 0.500000
Si Si5 0.434472 0.746111 0.861897
Si Si6 0.645977 0.344340 0.850334
O O1 0.074811 0.706319 0.912925
O O2 0.066661 0.754784 0.749962
O O3 0.108795 0.811343 0.889656
O O4 0.997152 0.779035 0.885239
O O5 0.693345 0.066865 0.089151
O O6 0.600842 0.100842 0.000000
O O7 0.637233 0.992197 0.000000
O O8 0.086374 0.123402 0.838961
O O9 0.984435 0.074881 0.865902
O O10 0.055129 0.084609 0.000000
O O11 0.117915 0.382086 0.500000
O O12 0.379083 0.711812 0.895416
O O13 0.670459 0.329542 0.750000
#
# Coordination Sequence:
#
# PCOD9572099 Si02
#       6
#    32  16  32  16  32  32
#     4   9  19  35  54  80 114 149 186 228 271 314
#     4  10  22  40  63  87 108 136 170 212 275 340
#     4   9  18  28  38  60  95 135 182 237 285 313
#     4  10  22  40  63  87 108 136 170 212 275 340
#     4   9  19  35  54  80 114 149 186 228 271 314
#     4  10  19  31  49  73 102 143 192 229 260 308
#
# _framework density 19.698986999999999
#
# number of rings (size 3 to 8) (size 9 to 14) (size 15 to 20)
#    0.000    2.600    0.000    1.800    2.800    3.400 
#    0.000    3.000    0.000    3.600    0.000    5.600 
#    0.000    0.000    0.000    0.000    0.000    0.000 
#
# Total GULP energy -445847.914177 kJ/mol
# GULP energy per Si atom -5573.098927 kJ/mol
# Density = 1.965415 g / cm^3
# Si number density = 19.698987 Si / 1000 Ang^3
#
#
#
# Elastic Constant Matrix: (Units=GPa)
#
#
# Indices 1 2 3 4 5 6 
#
# 1 96.4544 80.3570 19.9571 0.0000 0.0000 0.0000
# 2 80.3570 96.4589 19.9579 0.0000 0.0000 0.0000
# 3 19.9571 19.9579 85.8952 0.0000 0.0000 0.0000
# 4 0.0000 0.0000 0.0000 12.7500 0.0000 0.0000
# 5 0.0000 0.0000 0.0000 0.0000 12.7488 0.0000
# 6 0.0000 0.0000 0.0000 0.0000 0.0000 49.0928
#
#
#
# Elastic Compliance Matrix: (Units=1/GPa)
#
#
# Indices 1 2 3 4 5 6 
#
# 1 0.034042 -0.028072 -0.001387 0.000000 0.000000 0.000000
# 2 -0.028072 0.034040 -0.001387 0.000000 0.000000 0.000000
# 3 -0.001387 -0.001387 0.012287 0.000000 0.000000 0.000000
# 4 0.000000 0.000000 0.000000 0.078431 0.000000 0.000000
# 5 0.000000 0.000000 0.000000 0.000000 0.078439 0.000000
# 6 0.000000 0.000000 0.000000 0.000000 0.000000 0.020370
#
#
# Mechanical properties :
#
#
# Convention : Reuss Voigt Hill
#
# Bulk Modulus (GPa) = 53.54251 57.70584 55.62417
# Shear Modulus (GPa) = 15.35978 25.48743 20.42360
#
# Velocity S-wave (km/s) = 2.79538 3.60091 3.22341
# Velocity P-wave (km/s) = 6.13663 6.82980 6.49247
#
# Compressibility (1/GPa) = 0.01867675
#
# Stress axis : x y z
#
# Youngs Moduli (GPa) = 29.37572 29.37702 81.38984
#
# Poissons Ratio (x) = 0.82468 0.11286
# Poissons Ratio (y) = 0.82464 0.11288
# Poissons Ratio (z) = 0.04073 0.04074
#
# Static dielectric constant tensor:
#      x y z
#    x 1.696590 0.000000 0.000000 
#    y 0.000000 1.696590 0.000000 
#    z 0.000000 0.000000 1.743790 
# 
# From -- ./inp_files/4694.got.cif
#   From: 2010.05.17/outbox.cif.g08.bks.cpg/sg140_3_cif.got.tgz:4694.got - 2010.06.21 00:45:31.
