data_PCOD9572000
_publ_section_title
;
Structure prediction by ZEFSAII (Michael W. Deem and Ramdas Pophale) SiO2 
 PCOD9572000
Probable space group: I 4/M C M
;
_chemical_formula_sum "Si O2"
_cell_formula_units_Z 128
_cell_length_a 17.871782
_cell_length_b 17.871782
_cell_length_c 21.135153
_cell_angle_alpha 90.000000
_cell_angle_beta 90.000000
_cell_angle_gamma 90.000000
_cell_volume 6750.580377
_symmetry_space_group_name_H-M "I 4/M C M"
_symmetry_group_IT_number 140
_symmetry_cell_setting 'tetragonal'
loop_
_space_group_symop_operation_xyz
x,y,z
-y,x,z
-x,-y,z
y,-x,z
x,-y,1/2-z
-x,y,1/2-z
y,x,1/2-z
-y,-x,1/2-z
-x,-y,-z
y,-x,-z
x,y,-z
-y,x,-z
-x,y,1/2+z
x,-y,1/2+z
-y,-x,1/2+z
y,x,1/2+z
1/2+x,1/2+y,1/2+z
1/2-y,1/2+x,1/2+z
1/2-x,1/2-y,1/2+z
1/2+y,1/2-x,1/2+z
1/2+x,1/2-y,-z
1/2-x,1/2+y,-z
1/2+y,1/2+x,-z
1/2-y,1/2-x,-z
1/2-x,1/2-y,1/2-z
1/2+y,1/2-x,1/2-z
1/2+x,1/2+y,1/2-z
1/2-y,1/2+x,1/2-z
1/2-x,1/2+y,z
1/2+x,1/2-y,z
1/2-y,1/2-x,z
1/2+y,1/2+x,z
loop_
_atom_site_type_symbol
_atom_site_label
_atom_site_fract_x
_atom_site_fract_y
_atom_site_fract_z
Si Si1 0.613076 0.767933 0.276323
Si Si2 0.214004 0.530019 0.855870
Si Si3 0.600018 0.399983 0.250000
Si Si4 0.116573 0.975473 0.618999
Si Si5 0.561214 0.938787 0.075229
O O1 0.692041 0.807960 0.286851
O O2 0.586673 0.782062 0.204055
O O3 0.550553 0.799110 0.323394
O O4 0.606602 0.679398 0.286815
O O5 0.295162 0.533848 0.889928
O O6 0.144181 0.544223 0.900095
O O7 0.605423 0.463588 0.195761
O O8 0.055737 0.914418 0.595916
O O9 0.500000 0.000000 0.098725
O O10 0.559434 0.940567 0.000000
#
# Coordination Sequence:
#
# PCOD9572000 Si02
#       5
#    32  32  16  32  16
#     4  10  18  30  47  78 122 156 185 231 289 347
#     4  10  20  35  52  84 114 149 196 237 291 347
#     4  10  17  27  44  78 120 166 194 218 270 352
#     4  10  18  30  50  80 120 161 189 224 277 348
#     4  11  24  44  68  83 104 150 202 256 301 347
#
# _framework density 18.961333
#
# number of rings (size 3 to 8) (size 9 to 14) (size 15 to 20)
#    0.000    1.875    3.750    1.875    0.000    1.000 
#    0.000    0.000    0.000    1.500    0.000    1.750 
#    0.000    0.000    0.000    0.000    0.000    0.000 
#
# Total GULP energy -356578.025714 kJ/mol
# GULP energy per Si atom -5571.531652 kJ/mol
# Density = 1.891818 g / cm^3
# Si number density = 18.961333 Si / 1000 Ang^3
#
#
#
# Elastic Constant Matrix: (Units=GPa)
#
#
# Indices 1 2 3 4 5 6 
#
# 1 114.0692 84.8822 22.9442 0.0000 0.0000 0.0000
# 2 84.8822 114.0676 22.9435 0.0000 0.0000 0.0000
# 3 22.9442 22.9435 25.2195 0.0000 0.0000 0.0000
# 4 0.0000 0.0000 0.0000 4.9225 0.0000 0.0000
# 5 0.0000 0.0000 0.0000 0.0000 4.9221 0.0000
# 6 0.0000 0.0000 0.0000 0.0000 0.0000 34.5478
#
#
#
# Elastic Compliance Matrix: (Units=1/GPa)
#
#
# Indices 1 2 3 4 5 6 
#
# 1 0.020312 -0.013951 -0.005788 0.000000 0.000000 0.000000
# 2 -0.013951 0.020312 -0.005787 0.000000 0.000000 0.000000
# 3 -0.005788 -0.005787 0.050182 0.000000 0.000000 0.000000
# 4 0.000000 0.000000 0.000000 0.203149 0.000000 0.000000
# 5 0.000000 0.000000 0.000000 0.000000 0.203166 0.000000
# 6 0.000000 0.000000 0.000000 0.000000 0.000000 0.028945
#
#
# Mechanical properties :
#
#
# Convention : Reuss Voigt Hill
#
# Bulk Modulus (GPa) = 25.15382 57.21068 41.18225
# Shear Modulus (GPa) = 8.46929 17.05091 12.76010
#
# Velocity S-wave (km/s) = 2.11573 3.00200 2.59695
# Velocity P-wave (km/s) = 4.38897 6.50029 5.54603
#
# Compressibility (1/GPa) = 0.03975539
#
# Stress axis : x y z
#
# Youngs Moduli (GPa) = 49.23210 49.23201 19.92757
#
# Poissons Ratio (x) = 0.68683 0.11533
# Poissons Ratio (y) = 0.68683 0.11531
# Poissons Ratio (z) = 0.28494 0.28489
#
# Static dielectric constant tensor:
#      x y z
#    x 1.698020 0.000000 0.000000 
#    y 0.000000 1.698020 0.000000 
#    z 0.000000 0.000000 1.660370 
# 
# From -- ./inp_files/9322.got.cif
#   From: 2010.05.17/outbox.cif.g08.bks.cpg/sg140_5_cif.got.tgz:9322.got - 2010.06.21 00:45:31.
