data_PCOD9572089
_publ_section_title
;
Structure prediction by ZEFSAII (Michael W. Deem and Ramdas Pophale) SiO2 
 PCOD9572089
Probable space group: I 4/M C M
;
_chemical_formula_sum "Si O2"
_cell_formula_units_Z 176
_cell_length_a 17.846482
_cell_length_b 17.846482
_cell_length_c 26.215063
_cell_angle_alpha 90.000000
_cell_angle_beta 90.000000
_cell_angle_gamma 90.000000
_cell_volume 8349.416817
_symmetry_space_group_name_H-M "I 4/M C M"
_symmetry_group_IT_number 140
_symmetry_cell_setting 'tetragonal'
loop_
_space_group_symop_operation_xyz
x,y,z
-y,x,z
-x,-y,z
y,-x,z
x,-y,1/2-z
-x,y,1/2-z
y,x,1/2-z
-y,-x,1/2-z
-x,-y,-z
y,-x,-z
x,y,-z
-y,x,-z
-x,y,1/2+z
x,-y,1/2+z
-y,-x,1/2+z
y,x,1/2+z
1/2+x,1/2+y,1/2+z
1/2-y,1/2+x,1/2+z
1/2-x,1/2-y,1/2+z
1/2+y,1/2-x,1/2+z
1/2+x,1/2-y,-z
1/2-x,1/2+y,-z
1/2+y,1/2+x,-z
1/2-y,1/2-x,-z
1/2-x,1/2-y,1/2-z
1/2+y,1/2-x,1/2-z
1/2+x,1/2+y,1/2-z
1/2-y,1/2+x,1/2-z
1/2-x,1/2+y,z
1/2+x,1/2-y,z
1/2-y,1/2-x,z
1/2+y,1/2+x,z
loop_
_atom_site_type_symbol
_atom_site_label
_atom_site_fract_x
_atom_site_fract_y
_atom_site_fract_z
Si Si1 0.734639 0.351847 0.793631
Si Si2 0.891778 0.054128 0.938704
Si Si3 0.928817 0.697153 0.444309
Si Si4 0.709723 0.000000 0.750000
Si Si5 0.186780 0.808263 0.405290
Si Si6 0.504254 0.123169 0.147831
O O1 0.693376 0.306625 0.750000
O O2 0.818719 0.318719 0.798824
O O3 0.740501 0.435813 0.775171
O O4 0.696230 0.333429 0.846847
O O5 0.820522 0.101067 0.920536
O O6 0.968121 0.097516 0.922022
O O7 0.891415 0.053273 0.000000
O O8 0.965870 0.706624 0.500000
O O9 0.877723 0.622278 0.446221
O O10 0.869207 0.763916 0.436434
O O11 0.979449 0.683728 0.394565
O O12 0.659242 0.974445 0.702122
O O13 0.228267 0.728267 0.411837
O O14 0.573353 0.073353 0.128511
O O15 0.434988 0.065013 0.155848
#
# Coordination Sequence:
#
# PCOD9572089 Si02
#       6
#    32  32  32  16  32  32
#     4  10  22  38  56  82 114 148 189 237 292 348
#     4   9  19  36  59  87 118 153 195 245 300 354
#     4   9  17  30  49  75 108 146 185 228 280 338
#     4  12  20  35  58  77 108 148 194 242 284 342
#     4  10  19  35  58  84 115 152 198 243 292 358
#     4  10  19  30  49  79 110 144 187 233 281 337
#
# _framework density 21.079315999999999
#
# number of rings (size 3 to 8) (size 9 to 14) (size 15 to 20)
#    0.000    2.182    1.818    2.727    0.000    3.636 
#    0.000    1.818    0.000    0.273    0.000    2.545 
#    0.000    0.000    0.000    0.000    0.000    0.000 
#
# Total GULP energy -491217.550581 kJ/mol
# GULP energy per Si atom -5582.017620 kJ/mol
# Density = 2.103134 g / cm^3
# Si number density = 21.079316 Si / 1000 Ang^3
#
#
#
# Elastic Constant Matrix: (Units=GPa)
#
#
# Indices 1 2 3 4 5 6 
#
# 1 46.2407 23.2633 1.3507 0.0000 0.0000 0.0000
# 2 23.2633 46.2382 1.3509 0.0000 0.0000 0.0000
# 3 1.3507 1.3509 100.5012 0.0000 0.0000 0.0000
# 4 0.0000 0.0000 0.0000 17.9469 0.0000 0.0000
# 5 0.0000 0.0000 0.0000 0.0000 17.9433 0.0000
# 6 0.0000 0.0000 0.0000 0.0000 0.0000 13.9471
#
#
#
# Elastic Compliance Matrix: (Units=1/GPa)
#
#
# Indices 1 2 3 4 5 6 
#
# 1 0.028959 -0.014564 -0.000193 0.000000 0.000000 0.000000
# 2 -0.014564 0.028960 -0.000194 0.000000 0.000000 0.000000
# 3 -0.000193 -0.000194 0.009955 0.000000 0.000000 0.000000
# 4 0.000000 0.000000 0.000000 0.055720 0.000000 0.000000
# 5 0.000000 0.000000 0.000000 0.000000 0.055731 0.000000
# 6 0.000000 0.000000 0.000000 0.000000 0.000000 0.071700
#
#
# Mechanical properties :
#
#
# Convention : Reuss Voigt Hill
#
# Bulk Modulus (GPa) = 26.33503 27.21224 26.77364
# Shear Modulus (GPa) = 17.03089 21.10181 19.06635
#
# Velocity S-wave (km/s) = 2.84552 3.16740 3.01076
# Velocity P-wave (km/s) = 4.82870 5.12972 4.98149
#
# Compressibility (1/GPa) = 0.03797224
#
# Stress axis : x y z
#
# Youngs Moduli (GPa) = 34.53202 34.53010 100.44874
#
# Poissons Ratio (x) = 0.50290 0.01943
# Poissons Ratio (y) = 0.50292 0.01944
# Poissons Ratio (z) = 0.00668 0.00668
#
# Static dielectric constant tensor:
#      x y z
#    x 1.822580 0.000000 0.000000 
#    y 0.000000 1.822600 0.000000 
#    z 0.000000 0.000000 1.741980 
# 
# From -- ./inp_files/10728.got.cif
#   From: 2010.05.17/outbox.cif.g08.bks.cpg/sg140_6_cif.got.tgz:10728.got - 2010.06.21 00:45:31.
