data_PCOD9572117
_publ_section_title
;
Structure prediction by ZEFSAII (Michael W. Deem and Ramdas Pophale) SiO2 
 PCOD9572117
Probable space group: I 4/M C M
;
_chemical_formula_sum "Si O2"
_cell_formula_units_Z 160
_cell_length_a 32.902216
_cell_length_b 32.902216
_cell_length_c 8.219262
_cell_angle_alpha 90.000000
_cell_angle_beta 90.000000
_cell_angle_gamma 90.000000
_cell_volume 8897.809895
_symmetry_space_group_name_H-M "I 4/M C M"
_symmetry_group_IT_number 140
_symmetry_cell_setting 'tetragonal'
loop_
_space_group_symop_operation_xyz
x,y,z
-y,x,z
-x,-y,z
y,-x,z
x,-y,1/2-z
-x,y,1/2-z
y,x,1/2-z
-y,-x,1/2-z
-x,-y,-z
y,-x,-z
x,y,-z
-y,x,-z
-x,y,1/2+z
x,-y,1/2+z
-y,-x,1/2+z
y,x,1/2+z
1/2+x,1/2+y,1/2+z
1/2-y,1/2+x,1/2+z
1/2-x,1/2-y,1/2+z
1/2+y,1/2-x,1/2+z
1/2+x,1/2-y,-z
1/2-x,1/2+y,-z
1/2+y,1/2+x,-z
1/2-y,1/2-x,-z
1/2-x,1/2-y,1/2-z
1/2+y,1/2-x,1/2-z
1/2+x,1/2+y,1/2-z
1/2-y,1/2+x,1/2-z
1/2-x,1/2+y,z
1/2+x,1/2-y,z
1/2-y,1/2-x,z
1/2+y,1/2+x,z
loop_
_atom_site_type_symbol
_atom_site_label
_atom_site_fract_x
_atom_site_fract_y
_atom_site_fract_z
Si Si1 0.670219 0.607798 0.813844
Si Si2 0.119177 0.619177 0.190323
Si Si3 0.231231 0.173101 0.810017
Si Si4 0.318450 0.181551 0.687140
Si Si5 0.546895 0.828225 0.304186
Si Si6 0.453414 0.736403 0.803013
O O1 0.628769 0.628769 0.750000
O O2 0.703848 0.643187 0.796758
O O3 0.696739 0.570857 0.738577
O O4 0.662143 0.597450 0.000000
O O5 0.147697 0.647697 0.298895
O O6 0.135594 0.574172 0.231236
O O7 0.126586 0.626586 0.000000
O O8 0.217346 0.217346 0.750000
O O9 0.277992 0.166704 0.775169
O O10 0.222107 0.167323 0.000000
O O11 0.309150 0.190851 0.500000
O O12 0.500000 0.831762 0.250000
O O13 0.549273 0.829868 0.500000
O O14 0.560964 0.782122 0.252931
O O15 0.500000 0.733564 0.750000
O O16 0.450470 0.735779 0.000000
#
# Coordination Sequence:
#
# PCOD9572117 Si02
#       6
#    32  16  32  16  32  32
#     4  10  19  32  48  70  98 132 169 208 251 299
#     4  12  24  37  55  81 105 132 169 209 256 313
#     4  11  21  33  47  65  90 126 167 207 248 295
#     4  12  23  35  48  66  94 127 164 209 252 295
#     4  10  20  37  58  81 108 139 171 213 261 310
#     4   9  19  33  52  75 102 134 172 212 257 305
#
# _framework density 17.981953000000001
#
# number of rings (size 3 to 8) (size 9 to 14) (size 15 to 20)
#    0.000    1.600    0.000    7.500    0.000    4.000 
#    0.000    0.000    0.000    0.300    0.000    2.100 
#    0.000    0.400    0.000    4.400    0.000    3.200 
#
# Total GULP energy -445948.607596 kJ/mol
# GULP energy per Si atom -5574.357595 kJ/mol
# Density = 1.794103 g / cm^3
# Si number density = 17.981953 Si / 1000 Ang^3
#
#
#
# Elastic Constant Matrix: (Units=GPa)
#
#
# Indices 1 2 3 4 5 6 
#
# 1 81.7282 41.5032 4.1312 0.0000 0.0000 0.0000
# 2 41.5032 81.7280 4.1313 0.0000 0.0000 0.0000
# 3 4.1312 4.1313 44.8138 0.0000 0.0000 0.0000
# 4 0.0000 0.0000 0.0000 49.1759 0.0000 0.0000
# 5 0.0000 0.0000 0.0000 0.0000 49.1763 0.0000
# 6 0.0000 0.0000 0.0000 0.0000 0.0000 35.4392
#
#
#
# Elastic Compliance Matrix: (Units=1/GPa)
#
#
# Indices 1 2 3 4 5 6 
#
# 1 0.016513 -0.008347 -0.000753 0.000000 0.000000 0.000000
# 2 -0.008347 0.016513 -0.000753 0.000000 0.000000 0.000000
# 3 -0.000753 -0.000753 0.022453 0.000000 0.000000 0.000000
# 4 0.000000 0.000000 0.000000 0.020335 0.000000 0.000000
# 5 0.000000 0.000000 0.000000 0.000000 0.020335 0.000000
# 6 0.000000 0.000000 0.000000 0.000000 0.000000 0.028217
#
#
# Mechanical properties :
#
#
# Convention : Reuss Voigt Hill
#
# Bulk Modulus (GPa) = 27.95404 34.20015 31.07710
# Shear Modulus (GPa) = 32.05201 37.32524 34.68862
#
# Velocity S-wave (km/s) = 4.22649 4.56093 4.39689
# Velocity P-wave (km/s) = 6.27670 6.84080 6.56482
#
# Compressibility (1/GPa) = 0.03577300
#
# Stress axis : x y z
#
# Youngs Moduli (GPa) = 60.55939 60.55923 44.53677
#
# Poissons Ratio (x) = 0.50552 0.03352
# Poissons Ratio (y) = 0.50552 0.03353
# Poissons Ratio (z) = 0.04558 0.04559
#
# Static dielectric constant tensor:
#      x y z
#    x 1.652610 0.000000 0.000000 
#    y 0.000000 1.652610 0.000000 
#    z 0.000000 0.000000 1.630550 
# 
# From -- ./inp_files/1800.got.cif
#   From: 2010.05.17/outbox.cif.g08.bks.cpg/sg140_1_cif.got.tgz:1800.got - 2010.06.21 00:45:31.
