data_PCOD9572116
_publ_section_title
;
Structure prediction by ZEFSAII (Michael W. Deem and Ramdas Pophale) SiO2 
 PCOD9572116
Probable space group: I 4/M C M
;
_chemical_formula_sum "Si O2"
_cell_formula_units_Z 144
_cell_length_a 23.280704
_cell_length_b 23.280704
_cell_length_c 17.318316
_cell_angle_alpha 90.000000
_cell_angle_beta 90.000000
_cell_angle_gamma 90.000000
_cell_volume 9386.374503
_symmetry_space_group_name_H-M "I 4/M C M"
_symmetry_group_IT_number 140
_symmetry_cell_setting 'tetragonal'
loop_
_space_group_symop_operation_xyz
x,y,z
-y,x,z
-x,-y,z
y,-x,z
x,-y,1/2-z
-x,y,1/2-z
y,x,1/2-z
-y,-x,1/2-z
-x,-y,-z
y,-x,-z
x,y,-z
-y,x,-z
-x,y,1/2+z
x,-y,1/2+z
-y,-x,1/2+z
y,x,1/2+z
1/2+x,1/2+y,1/2+z
1/2-y,1/2+x,1/2+z
1/2-x,1/2-y,1/2+z
1/2+y,1/2-x,1/2+z
1/2+x,1/2-y,-z
1/2-x,1/2+y,-z
1/2+y,1/2+x,-z
1/2-y,1/2-x,-z
1/2-x,1/2-y,1/2-z
1/2+y,1/2-x,1/2-z
1/2+x,1/2+y,1/2-z
1/2-y,1/2+x,1/2-z
1/2-x,1/2+y,z
1/2+x,1/2-y,z
1/2-y,1/2-x,z
1/2+y,1/2+x,z
loop_
_atom_site_type_symbol
_atom_site_label
_atom_site_fract_x
_atom_site_fract_y
_atom_site_fract_z
Si Si1 0.876837 0.281111 0.643670
Si Si2 0.826898 0.492869 0.590286
Si Si3 0.453419 0.046582 0.406124
Si Si4 0.710911 0.690600 0.588798
Si Si5 0.890574 0.705227 0.326439
O O1 0.833069 0.333069 0.620913
O O2 0.936550 0.287804 0.599460
O O3 0.843685 0.222130 0.625906
O O4 0.889228 0.287505 0.734448
O O5 0.830672 0.509492 0.500000
O O6 0.889987 0.472301 0.618136
O O7 0.806050 0.546696 0.639728
O O8 0.452572 0.047429 0.500000
O O9 0.500000 0.000000 0.380834
O O10 0.699585 0.675190 0.500000
O O11 0.760494 0.739507 0.589552
O O12 0.738643 0.638302 0.635394
O O13 0.849170 0.650831 0.345537
#
# Coordination Sequence:
#
# PCOD9572116 Si02
#       5
#    32  32  16  32  32
#     4  10  19  32  48  66  93 122 158 196 243 289
#     4  11  20  31  47  66  92 125 164 203 238 282
#     4   9  18  30  44  62  85 120 165 207 242 272
#     4   9  17  30  49  70  89 115 153 196 242 293
#     4  10  20  32  47  67  95 124 156 197 249 294
#
# _framework density 15.341386999999999
#
# number of rings (size 3 to 8) (size 9 to 14) (size 15 to 20)
#    0.000    2.111    1.111    3.333    0.000    5.778 
#    0.000    0.000    0.000    0.000    0.000    0.000 
#    0.000    0.889    0.000    8.889    0.000    5.333 
#
# Total GULP energy -401688.050215 kJ/mol
# GULP energy per Si atom -5579.000697 kJ/mol
# Density = 1.530647 g / cm^3
# Si number density = 15.341387 Si / 1000 Ang^3
#
#
#
# Elastic Constant Matrix: (Units=GPa)
#
#
# Indices 1 2 3 4 5 6 
#
# 1 56.7867 34.7578 7.7724 0.0000 0.0000 0.0000
# 2 34.7578 56.7869 7.7725 0.0000 0.0000 0.0000
# 3 7.7724 7.7725 35.7654 0.0000 0.0000 0.0000
# 4 0.0000 0.0000 0.0000 22.9116 0.0000 0.0000
# 5 0.0000 0.0000 0.0000 0.0000 22.9116 0.0000
# 6 0.0000 0.0000 0.0000 0.0000 0.0000 23.1812
#
#
#
# Elastic Compliance Matrix: (Units=1/GPa)
#
#
# Indices 1 2 3 4 5 6 
#
# 1 0.028368 -0.017026 -0.002465 0.000000 0.000000 0.000000
# 2 -0.017026 0.028368 -0.002465 0.000000 0.000000 0.000000
# 3 -0.002465 -0.002465 0.029031 0.000000 0.000000 0.000000
# 4 0.000000 0.000000 0.000000 0.043646 0.000000 0.000000
# 5 0.000000 0.000000 0.000000 0.000000 0.043646 0.000000
# 6 0.000000 0.000000 0.000000 0.000000 0.000000 0.043138
#
#
# Mechanical properties :
#
#
# Convention : Reuss Voigt Hill
#
# Bulk Modulus (GPa) = 23.89128 27.77159 25.83144
# Shear Modulus (GPa) = 18.24401 20.40330 19.32365
#
# Velocity S-wave (km/s) = 3.45222 3.65081 3.55290
# Velocity P-wave (km/s) = 5.61225 5.99274 5.80561
#
# Compressibility (1/GPa) = 0.04185627
#
# Stress axis : x y z
#
# Youngs Moduli (GPa) = 35.25038 35.25051 34.44553
#
# Poissons Ratio (x) = 0.60018 0.08490
# Poissons Ratio (y) = 0.60018 0.08490
# Poissons Ratio (z) = 0.08689 0.08689
#
# Static dielectric constant tensor:
#      x y z
#    x 1.496870 0.000000 0.000000 
#    y 0.000000 1.496880 0.000000 
#    z 0.000000 0.000000 1.524810 
# 
# From -- ./inp_files/6641.got.cif
#   From: 2010.05.17/outbox.cif.g08.bks.cpg/sg140_4_cif.got.tgz:6641.got - 2010.06.21 00:45:31.
