data_PCOD9572860
_publ_section_title
;
Structure prediction by ZEFSAII (Michael W. Deem and Ramdas Pophale) SiO2 
 PCOD9572860
Probable space group: I 41/A M D
;
_chemical_formula_sum "Si O2"
_cell_formula_units_Z 192
_cell_length_a 21.833348
_cell_length_b 21.833348
_cell_length_c 19.790050
_cell_angle_alpha 90.000000
_cell_angle_beta 90.000000
_cell_angle_gamma 90.000000
_cell_volume 9433.819565
_symmetry_space_group_name_H-M "I 41/A M D"
_symmetry_group_IT_number 141
_space_group.IT_coordinate_system_code '2'
_symmetry_cell_setting 'tetragonal'
loop_
_space_group_symop_operation_xyz
x,y,z
1/4-y,3/4+x,1/4+z
-x,1/2-y,z
1/4+y,1/4-x,3/4+z
x,-y,-z
-x,1/2+y,-z
1/4+y,3/4+x,1/4-z
1/4-y,1/4-x,3/4-z
-x,-y,-z
3/4+y,1/4-x,3/4-z
x,1/2+y,-z
3/4-y,3/4+x,1/4-z
-x,y,z
x,1/2-y,z
3/4-y,1/4-x,3/4+z
3/4+y,3/4+x,1/4+z
1/2+x,1/2+y,1/2+z
3/4-y,1/4+x,3/4+z
1/2-x,-y,1/2+z
3/4+y,3/4-x,1/4+z
1/2+x,1/2-y,1/2-z
1/2-x,y,1/2-z
3/4+y,1/4+x,3/4-z
3/4-y,3/4-x,1/4-z
1/2-x,1/2-y,1/2-z
1/4+y,3/4-x,1/4-z
1/2+x,y,1/2-z
1/4-y,1/4+x,3/4-z
1/2-x,1/2+y,1/2+z
1/2+x,-y,1/2+z
1/4-y,3/4-x,1/4+z
1/4+y,1/4+x,3/4+z
loop_
_atom_site_type_symbol
_atom_site_label
_atom_site_fract_x
_atom_site_fract_y
_atom_site_fract_z
Si Si1 0.720472 0.817544 0.108710
Si Si2 0.928264 0.432027 0.513358
Si Si3 0.069722 0.527295 0.335647
Si Si4 0.186494 0.912787 0.276895
Si Si5 0.067759 0.900068 0.088381
Si Si6 0.348952 0.818908 0.966079
O O1 0.704933 0.750000 0.138510
O O2 0.700028 0.872904 0.156226
O O3 0.793967 0.819924 0.108509
O O4 0.690050 0.819848 0.035867
O O5 0.901721 0.500000 0.500000
O O6 0.926586 0.433076 0.595477
O O7 0.894725 0.375443 0.477200
O O8 0.000000 0.431842 0.493579
O O9 0.128488 0.545495 0.291969
O O10 0.074885 0.453162 0.341851
O O11 0.000000 0.537379 0.308677
O O12 0.250000 0.942829 0.250000
O O13 0.168107 0.864507 0.219692
O O14 0.089302 0.839302 0.125000
O O15 0.000000 0.895606 0.060583
O O16 0.376527 0.750000 0.960021
#
# Coordination Sequence:
#
# PCOD9572860 Si02
#       6
#    32  32  32  32  32  32
#     4   9  17  32  53  76 105 142 187 236 286 334
#     4  10  22  41  63  86 117 155 192 239 304 366
#     4  10  21  38  59  86 119 152 190 242 304 359
#     4  10  19  33  55  82 108 147 197 244 282 337
#     4  10  20  32  47  70 106 151 193 231 275 331
#     4  10  20  36  61  88 117 154 194 236 290 357
#
# _framework density 20.352308000000001
#
# number of rings (size 3 to 8) (size 9 to 14) (size 15 to 20)
#    0.000    2.167    1.667    1.500    0.000    5.833 
#    0.000    0.000    0.000    1.500    0.000    4.667 
#    0.000    0.000    0.000    0.000    0.000    0.000 
#
# Total GULP energy -535013.790234 kJ/mol
# GULP energy per Si atom -5573.060315 kJ/mol
# Density = 2.030599 g / cm^3
# Si number density = 20.352308 Si / 1000 Ang^3
#
#
#
# Elastic Constant Matrix: (Units=GPa)
#
#
# Indices 1 2 3 4 5 6 
#
# 1 111.2334 77.3937 10.7287 0.0000 0.0000 0.0000
# 2 77.3937 111.2334 10.7287 0.0000 0.0000 0.0000
# 3 10.7287 10.7287 27.1866 0.0000 0.0000 0.0000
# 4 0.0000 0.0000 0.0000 18.8371 0.0000 0.0000
# 5 0.0000 0.0000 0.0000 0.0000 18.8371 0.0000
# 6 0.0000 0.0000 0.0000 0.0000 0.0000 31.9977
#
#
#
# Elastic Compliance Matrix: (Units=1/GPa)
#
#
# Indices 1 2 3 4 5 6 
#
# 1 0.017551 -0.012000 -0.002190 0.000000 0.000000 0.000000
# 2 -0.012000 0.017551 -0.002190 0.000000 0.000000 0.000000
# 3 -0.002190 -0.002190 0.038512 0.000000 0.000000 0.000000
# 4 0.000000 0.000000 0.000000 0.053087 0.000000 0.000000
# 5 0.000000 0.000000 0.000000 0.000000 0.053087 0.000000
# 6 0.000000 0.000000 0.000000 0.000000 0.000000 0.031252
#
#
# Mechanical properties :
#
#
# Convention : Reuss Voigt Hill
#
# Bulk Modulus (GPa) = 24.47910 49.70617 37.09263
# Shear Modulus (GPa) = 19.42362 23.98786 21.70574
#
# Velocity S-wave (km/s) = 3.09264 3.43684 3.26927
# Velocity P-wave (km/s) = 4.98060 6.34232 5.70225
#
# Compressibility (1/GPa) = 0.04085117
#
# Stress axis : x y z
#
# Youngs Moduli (GPa) = 56.97731 56.97731 25.96613
#
# Poissons Ratio (x) = 0.68374 0.05688
# Poissons Ratio (y) = 0.68374 0.05688
# Poissons Ratio (z) = 0.12481 0.12481
#
# Static dielectric constant tensor:
#      x y z
#    x 1.726940 0.000000 0.000000 
#    y 0.000000 1.726940 0.000000 
#    z 0.000000 0.000000 1.786770 
# 
# From -- ./inp_files/11678.got.cif
#   From: 2010.05.17/outbox.cif.g08.bks.cpg/sg141_6_cif.got.tgz:11678.got - 2010.05.20 13:30:51.
