data_PCOD9572667
_publ_section_title
;
Structure prediction by ZEFSAII (Michael W. Deem and Ramdas Pophale) SiO2 
 PCOD9572667
Probable space group: I 4/M C M
;
_chemical_formula_sum "Si O2"
_cell_formula_units_Z 96
_cell_length_a 13.443557
_cell_length_b 13.443557
_cell_length_c 29.382437
_cell_angle_alpha 90.000000
_cell_angle_beta 90.000000
_cell_angle_gamma 90.000000
_cell_volume 5310.265062
_symmetry_space_group_name_H-M "I 4/M C M"
_symmetry_group_IT_number 140
_symmetry_cell_setting 'tetragonal'
loop_
_space_group_symop_operation_xyz
x,y,z
-y,x,z
-x,-y,z
y,-x,z
x,-y,1/2-z
-x,y,1/2-z
y,x,1/2-z
-y,-x,1/2-z
-x,-y,-z
y,-x,-z
x,y,-z
-y,x,-z
-x,y,1/2+z
x,-y,1/2+z
-y,-x,1/2+z
y,x,1/2+z
1/2+x,1/2+y,1/2+z
1/2-y,1/2+x,1/2+z
1/2-x,1/2-y,1/2+z
1/2+y,1/2-x,1/2+z
1/2+x,1/2-y,-z
1/2-x,1/2+y,-z
1/2+y,1/2+x,-z
1/2-y,1/2-x,-z
1/2-x,1/2-y,1/2-z
1/2+y,1/2-x,1/2-z
1/2+x,1/2+y,1/2-z
1/2-y,1/2+x,1/2-z
1/2-x,1/2+y,z
1/2+x,1/2-y,z
1/2-y,1/2-x,z
1/2+y,1/2+x,z
loop_
_atom_site_type_symbol
_atom_site_label
_atom_site_fract_x
_atom_site_fract_y
_atom_site_fract_z
Si Si1 0.505011 0.164015 0.052137
Si Si2 0.029913 0.163207 0.622577
Si Si3 0.262391 0.594615 0.221581
O O1 0.607877 0.107877 0.065416
O O2 0.469937 0.248404 0.086387
O O3 0.421316 0.078685 0.051792
O O4 0.516018 0.200320 0.000000
O O5 0.051671 0.202592 0.673261
O O6 0.922919 0.111353 0.616577
O O7 0.225681 0.500000 0.250000
O O8 0.351655 0.648346 0.250000
O O9 0.177294 0.677294 0.215386
#
# Coordination Sequence:
#
# PCOD9572667 Si02
#       3
#    32  32  32
#     4   9  20  40  63  87 120 161 202 249 305 363
#     4  11  23  38  61  89 120 159 200 248 304 362
#     4  11  23  40  63  88 119 161 204 249 305 367
#
# _framework density 18.078192999999999
#
# number of rings (size 3 to 8) (size 9 to 14) (size 15 to 20)
#    0.000    1.667    3.333    2.000    0.000    6.000 
#    0.000    5.000    0.000    0.000    0.000    0.000 
#    0.000    0.000    0.000    0.000    0.000    0.000 
#
# Total GULP energy -267782.421196 kJ/mol
# GULP energy per Si atom -5578.800442 kJ/mol
# Density = 1.803705 g / cm^3
# Si number density = 18.078193 Si / 1000 Ang^3
#
#
#
# Elastic Constant Matrix: (Units=GPa)
#
#
# Indices 1 2 3 4 5 6 
#
# 1 96.3887 34.1194 63.1286 0.0000 0.0000 0.0000
# 2 34.1194 96.3896 63.1285 0.0000 0.0000 0.0000
# 3 63.1286 63.1285 123.8113 0.0000 0.0000 0.0000
# 4 0.0000 0.0000 0.0000 33.5288 0.0000 0.0000
# 5 0.0000 0.0000 0.0000 0.0000 33.5291 0.0000
# 6 0.0000 0.0000 0.0000 0.0000 0.0000 4.6637
#
#
#
# Elastic Compliance Matrix: (Units=1/GPa)
#
#
# Indices 1 2 3 4 5 6 
#
# 1 0.015590 -0.000469 -0.007710 0.000000 0.000000 0.000000
# 2 -0.000469 0.015590 -0.007710 0.000000 0.000000 0.000000
# 3 -0.007710 -0.007710 0.015939 0.000000 0.000000 0.000000
# 4 0.000000 0.000000 0.000000 0.029825 0.000000 0.000000
# 5 0.000000 0.000000 0.000000 0.000000 0.029825 0.000000
# 6 0.000000 0.000000 0.000000 0.000000 0.000000 0.214420
#
#
# Mechanical properties :
#
#
# Convention : Reuss Voigt Hill
#
# Bulk Modulus (GPa) = 65.18235 70.81585 67.99910
# Shear Modulus (GPa) = 13.96334 24.75854 19.36094
#
# Velocity S-wave (km/s) = 2.78220 3.70472 3.27610
# Velocity P-wave (km/s) = 6.81578 7.58663 7.21151
#
# Compressibility (1/GPa) = 0.01534158
#
# Stress axis : x y z
#
# Youngs Moduli (GPa) = 64.14280 64.14369 62.73930
#
# Poissons Ratio (x) = 0.03009 0.48372
# Poissons Ratio (y) = 0.03009 0.48371
# Poissons Ratio (z) = 0.49454 0.49454
#
# Static dielectric constant tensor:
#      x y z
#    x 1.615730 0.000000 0.000000 
#    y 0.000000 1.615730 0.000000 
#    z 0.000000 0.000000 1.609090 
# 
# From -- ./inp_files/7665.got.cif
#   From: 2010.05.17/outbox.cif.g08.bks.cpg/sg140_4_cif.got.tgz:7665.got - 2010.06.21 00:45:31.
