data_PCOD9572647
_publ_section_title
;
Structure prediction by ZEFSAII (Michael W. Deem and Ramdas Pophale) SiO2 
 PCOD9572647
Probable space group: I 4/M C M
;
_chemical_formula_sum "Si O2"
_cell_formula_units_Z 160
_cell_length_a 25.588384
_cell_length_b 25.588384
_cell_length_c 14.459394
_cell_angle_alpha 90.000000
_cell_angle_beta 90.000000
_cell_angle_gamma 90.000000
_cell_volume 9467.510834
_symmetry_space_group_name_H-M "I 4/M C M"
_symmetry_group_IT_number 140
_symmetry_cell_setting 'tetragonal'
loop_
_space_group_symop_operation_xyz
x,y,z
-y,x,z
-x,-y,z
y,-x,z
x,-y,1/2-z
-x,y,1/2-z
y,x,1/2-z
-y,-x,1/2-z
-x,-y,-z
y,-x,-z
x,y,-z
-y,x,-z
-x,y,1/2+z
x,-y,1/2+z
-y,-x,1/2+z
y,x,1/2+z
1/2+x,1/2+y,1/2+z
1/2-y,1/2+x,1/2+z
1/2-x,1/2-y,1/2+z
1/2+y,1/2-x,1/2+z
1/2+x,1/2-y,-z
1/2-x,1/2+y,-z
1/2+y,1/2+x,-z
1/2-y,1/2-x,-z
1/2-x,1/2-y,1/2-z
1/2+y,1/2-x,1/2-z
1/2+x,1/2+y,1/2-z
1/2-y,1/2+x,1/2-z
1/2-x,1/2+y,z
1/2+x,1/2-y,z
1/2-y,1/2-x,z
1/2+y,1/2+x,z
loop_
_atom_site_type_symbol
_atom_site_label
_atom_site_fract_x
_atom_site_fract_y
_atom_site_fract_z
Si Si1 0.749565 0.937694 0.771000
Si Si2 0.042432 0.542432 0.886393
Si Si3 0.900979 0.687285 0.107061
Si Si4 0.581236 0.534110 0.500000
Si Si5 0.523747 0.158685 0.392230
Si Si6 0.444323 0.366887 0.803791
O O1 0.732754 0.902090 0.683852
O O2 0.701033 0.940294 0.841447
O O3 0.807216 0.924111 0.805500
O O4 0.754069 0.000000 0.750000
O O5 0.100689 0.530577 0.854780
O O6 0.000000 0.500000 0.857486
O O7 0.041839 0.541839 0.000000
O O8 0.859585 0.640416 0.125431
O O9 0.961556 0.669187 0.113557
O O10 0.892506 0.704061 0.000000
O O11 0.526951 0.565907 0.500000
O O12 0.612619 0.547052 0.592691
O O13 0.537589 0.159549 0.500000
O O14 0.500000 0.369377 0.750000
O O15 0.404216 0.404216 0.750000
#
# Coordination Sequence:
#
# PCOD9572647 Si02
#       6
#    32  16  32  16  32  32
#     4   9  20  34  50  75 109 144 181 234 280 335
#     4   9  16  26  44  72 106 141 177 225 289 347
#     4   9  17  32  53  73  98 138 188 239 288 335
#     4  11  22  36  62  92 121 158 183 220 281 342
#     4   9  17  29  46  73 103 141 183 228 281 346
#     4  11  22  39  57  85 120 152 188 229 278 341
#
# _framework density 16.899901
#
# number of rings (size 3 to 8) (size 9 to 14) (size 15 to 20)
#    0.000    2.400    2.000    0.600    2.800    2.600 
#    7.200    0.000    0.000    0.600    0.000    0.000 
#    0.000    0.000    0.000    0.000    0.000    0.000 
#
# Total GULP energy -445528.204956 kJ/mol
# GULP energy per Si atom -5569.102562 kJ/mol
# Density = 1.686144 g / cm^3
# Si number density = 16.899901 Si / 1000 Ang^3
#
#
#
# Elastic Constant Matrix: (Units=GPa)
#
#
# Indices 1 2 3 4 5 6 
#
# 1 105.6925 49.6681 62.7134 0.0000 0.0000 0.0000
# 2 49.6681 105.6925 62.7134 0.0000 0.0000 0.0000
# 3 62.7134 62.7134 127.5438 0.0000 0.0000 0.0000
# 4 0.0000 0.0000 0.0000 24.1258 0.0000 0.0000
# 5 0.0000 0.0000 0.0000 0.0000 24.1258 0.0000
# 6 0.0000 0.0000 0.0000 0.0000 0.0000 10.5890
#
#
#
# Elastic Compliance Matrix: (Units=1/GPa)
#
#
# Indices 1 2 3 4 5 6 
#
# 1 0.014262 -0.003588 -0.005248 0.000000 0.000000 0.000000
# 2 -0.003588 0.014262 -0.005248 0.000000 0.000000 0.000000
# 3 -0.005248 -0.005248 0.013002 0.000000 0.000000 0.000000
# 4 0.000000 0.000000 0.000000 0.041449 0.000000 0.000000
# 5 0.000000 0.000000 0.000000 0.000000 0.041449 0.000000
# 6 0.000000 0.000000 0.000000 0.000000 0.000000 0.094438
#
#
# Mechanical properties :
#
#
# Convention : Reuss Voigt Hill
#
# Bulk Modulus (GPa) = 74.87310 76.56874 75.72092
# Shear Modulus (GPa) = 19.88215 22.69037 21.28626
#
# Velocity S-wave (km/s) = 3.43369 3.66817 3.55286
# Velocity P-wave (km/s) = 7.75373 7.95903 7.85705
#
# Compressibility (1/GPa) = 0.01335593
#
# Stress axis : x y z
#
# Youngs Moduli (GPa) = 70.11867 70.11867 76.91355
#
# Poissons Ratio (x) = 0.25157 0.40366
# Poissons Ratio (y) = 0.25157 0.40366
# Poissons Ratio (z) = 0.36800 0.36800
#
# Static dielectric constant tensor:
#      x y z
#    x 1.589760 0.000000 0.000000 
#    y 0.000000 1.589760 0.000000 
#    z 0.000000 0.000000 1.613050 
# 
# From -- ./inp_files/4824.got.cif
#   From: 2010.05.17/outbox.cif.g08.bks.cpg/sg140_3_cif.got.tgz:4824.got - 2010.06.21 00:45:31.
