data_PCOD9572785
_publ_section_title
;
Structure prediction by ZEFSAII (Michael W. Deem and Ramdas Pophale) SiO2 
 PCOD9572785
Probable space group: I 41/A M D
;
_chemical_formula_sum "Si O2"
_cell_formula_units_Z 192
_cell_length_a 18.994889
_cell_length_b 18.994889
_cell_length_c 29.702986
_cell_angle_alpha 90.000000
_cell_angle_beta 90.000000
_cell_angle_gamma 90.000000
_cell_volume 10717.009867
_symmetry_space_group_name_H-M "I 41/A M D"
_symmetry_group_IT_number 141
_space_group.IT_coordinate_system_code '2'
_symmetry_cell_setting 'tetragonal'
loop_
_space_group_symop_operation_xyz
x,y,z
1/4-y,3/4+x,1/4+z
-x,1/2-y,z
1/4+y,1/4-x,3/4+z
x,-y,-z
-x,1/2+y,-z
1/4+y,3/4+x,1/4-z
1/4-y,1/4-x,3/4-z
-x,-y,-z
3/4+y,1/4-x,3/4-z
x,1/2+y,-z
3/4-y,3/4+x,1/4-z
-x,y,z
x,1/2-y,z
3/4-y,1/4-x,3/4+z
3/4+y,3/4+x,1/4+z
1/2+x,1/2+y,1/2+z
3/4-y,1/4+x,3/4+z
1/2-x,-y,1/2+z
3/4+y,3/4-x,1/4+z
1/2+x,1/2-y,1/2-z
1/2-x,y,1/2-z
3/4+y,1/4+x,3/4-z
3/4-y,3/4-x,1/4-z
1/2-x,1/2-y,1/2-z
1/4+y,3/4-x,1/4-z
1/2+x,y,1/2-z
1/4-y,1/4+x,3/4-z
1/2-x,1/2+y,1/2+z
1/2+x,-y,1/2+z
1/4-y,3/4-x,1/4+z
1/4+y,1/4+x,3/4+z
loop_
_atom_site_type_symbol
_atom_site_label
_atom_site_fract_x
_atom_site_fract_y
_atom_site_fract_z
Si Si1 0.664827 0.527465 0.746887
Si Si2 0.819210 0.096751 0.824097
Si Si3 0.731556 0.425265 0.405719
Si Si4 0.821491 0.750000 0.221276
Si Si5 0.919718 0.367261 0.626880
Si Si6 0.919460 0.830332 0.475204
Si Si7 0.584704 0.250000 0.805588
O O1 0.750000 0.535584 0.750000
O O2 0.650692 0.465073 0.709705
O O3 0.642037 0.504018 0.796970
O O4 0.628673 0.602719 0.737570
O O5 0.848420 0.098420 0.875000
O O6 0.823508 0.175483 0.804740
O O7 0.739256 0.070329 0.830926
O O8 0.792867 0.457134 0.375000
O O9 0.688220 0.373115 0.374812
O O10 0.750000 0.750000 0.250000
O O11 0.885755 0.750000 0.256109
O O12 0.918452 0.329386 0.579136
O O13 0.890585 0.317556 0.666153
O O14 0.000000 0.383163 0.638209
O O15 0.910007 0.750000 0.491615
O O16 0.000000 0.853501 0.487830
O O17 0.500000 0.250000 0.806598
#
# Coordination Sequence:
#
# PCOD9572785 Si02
#       7
#    32  32  32  16  32  32  16
#     4  10  20  36  56  80 115 151 189 238 293 352
#     4  10  21  38  54  81 116 152 201 246 297 349
#     4  10  20  36  56  80 112 142 184 241 286 342
#     4  12  22  36  60  84 108 154 212 252 294 364
#     4  10  18  32  54  79 109 140 178 232 288 340
#     4  10  20  35  56  86 116 143 183 238 296 359
#     4  10  20  34  52  80 110 142 190 238 300 336
#
# _framework density 17.915444999999998
#
# number of rings (size 3 to 8) (size 9 to 14) (size 15 to 20)
#    0.000    1.833    0.833    6.500    0.000    1.000 
#    6.000    0.833    0.000    0.000    0.000    1.167 
#    0.000    0.000    0.000    0.000    0.000    0.000 
#
# Total GULP energy -534756.221502 kJ/mol
# GULP energy per Si atom -5570.377307 kJ/mol
# Density = 1.787467 g / cm^3
# Si number density = 17.915445 Si / 1000 Ang^3
#
#
#
# Elastic Constant Matrix: (Units=GPa)
#
#
# Indices 1 2 3 4 5 6 
#
# 1 80.1229 41.9842 35.2974 0.0000 0.0000 0.0000
# 2 41.9842 80.1248 35.2970 0.0000 0.0000 0.0000
# 3 35.2974 35.2970 81.0533 0.0000 0.0000 0.0000
# 4 0.0000 0.0000 0.0000 26.7195 0.0000 0.0000
# 5 0.0000 0.0000 0.0000 0.0000 26.7195 0.0000
# 6 0.0000 0.0000 0.0000 0.0000 0.0000 21.5388
#
#
#
# Elastic Compliance Matrix: (Units=1/GPa)
#
#
# Indices 1 2 3 4 5 6 
#
# 1 0.018583 -0.007637 -0.004767 0.000000 0.000000 0.000000
# 2 -0.007637 0.018582 -0.004766 0.000000 0.000000 0.000000
# 3 -0.004767 -0.004766 0.016489 0.000000 0.000000 0.000000
# 4 0.000000 0.000000 0.000000 0.037426 0.000000 0.000000
# 5 0.000000 0.000000 0.000000 0.000000 0.037426 0.000000
# 6 0.000000 0.000000 0.000000 0.000000 0.000000 0.046428
#
#
# Mechanical properties :
#
#
# Convention : Reuss Voigt Hill
#
# Bulk Modulus (GPa) = 51.77719 51.82869 51.80294
# Shear Modulus (GPa) = 23.17918 23.57703 23.37811
#
# Velocity S-wave (km/s) = 3.60086 3.63163 3.61628
# Velocity P-wave (km/s) = 6.80087 6.82476 6.81283
#
# Compressibility (1/GPa) = 0.01931352
#
# Stress axis : x y z
#
# Youngs Moduli (GPa) = 53.81387 53.81569 60.64693
#
# Poissons Ratio (x) = 0.41100 0.28908
# Poissons Ratio (y) = 0.41099 0.28905
# Poissons Ratio (z) = 0.25651 0.25649
#
# Static dielectric constant tensor:
#      x y z
#    x 1.450730 0.000000 0.000000 
#    y 0.000000 1.450630 0.000000 
#    z 0.000000 0.000000 1.641940 
# 
# From -- ./inp_files/14483.got.cif
#   From: 2010.05.17/outbox.cif.g08.bks.cpg/sg141_8_cif.got.tgz:14483.got - 2010.05.20 13:30:51.
