data_PCOD9572344
_publ_section_title
;
Structure prediction by ZEFSAII (Michael W. Deem and Ramdas Pophale) SiO2 
 PCOD9572344
Probable space group: I 4/M C M
;
_chemical_formula_sum "Si O2"
_cell_formula_units_Z 160
_cell_length_a 23.173718
_cell_length_b 23.173718
_cell_length_c 14.565225
_cell_angle_alpha 90.000000
_cell_angle_beta 90.000000
_cell_angle_gamma 90.000000
_cell_volume 7821.834694
_symmetry_space_group_name_H-M "I 4/M C M"
_symmetry_group_IT_number 140
_symmetry_cell_setting 'tetragonal'
loop_
_space_group_symop_operation_xyz
x,y,z
-y,x,z
-x,-y,z
y,-x,z
x,-y,1/2-z
-x,y,1/2-z
y,x,1/2-z
-y,-x,1/2-z
-x,-y,-z
y,-x,-z
x,y,-z
-y,x,-z
-x,y,1/2+z
x,-y,1/2+z
-y,-x,1/2+z
y,x,1/2+z
1/2+x,1/2+y,1/2+z
1/2-y,1/2+x,1/2+z
1/2-x,1/2-y,1/2+z
1/2+y,1/2-x,1/2+z
1/2+x,1/2-y,-z
1/2-x,1/2+y,-z
1/2+y,1/2+x,-z
1/2-y,1/2-x,-z
1/2-x,1/2-y,1/2-z
1/2+y,1/2-x,1/2-z
1/2+x,1/2+y,1/2-z
1/2-y,1/2+x,1/2-z
1/2-x,1/2+y,z
1/2+x,1/2-y,z
1/2-y,1/2-x,z
1/2+y,1/2+x,z
loop_
_atom_site_type_symbol
_atom_site_label
_atom_site_fract_x
_atom_site_fract_y
_atom_site_fract_z
Si Si1 0.615844 0.381225 0.107025
Si Si2 0.180313 0.587360 0.703282
Si Si3 0.672673 0.492296 0.149276
Si Si4 0.532846 0.202629 0.396895
Si Si5 0.732040 0.323267 0.389255
O O1 0.625452 0.441944 0.155693
O O2 0.552712 0.353727 0.118092
O O3 0.663737 0.334048 0.135644
O O4 0.624000 0.393649 0.000000
O O5 0.120522 0.620522 0.689622
O O6 0.182832 0.529421 0.642588
O O7 0.188549 0.575194 0.811924
O O8 0.229764 0.629746 0.664062
O O9 0.697905 0.500000 0.250000
O O10 0.727997 0.471164 0.094704
O O11 0.545141 0.179913 0.500000
O O12 0.736625 0.333388 0.500000
O O13 0.760849 0.260849 0.371101
#
# Coordination Sequence:
#
# PCOD9572344 Si02
#       5
#    32  32  32  32  32
#     4  11  22  37  59  87 121 161 212 265 315 370
#     4  10  20  36  61  93 124 158 205 257 306 369
#     4  12  23  40  60  85 120 167 212 258 314 370
#     4  11  21  38  62  89 124 164 205 252 312 373
#     4   9  17  33  60  92 125 162 208 261 315 376
#
# _framework density 20.455559000000001
#
# number of rings (size 3 to 8) (size 9 to 14) (size 15 to 20)
#    0.000    1.400    4.000    3.000    0.000    2.000 
#    0.000    3.000    0.000   10.800    0.000    5.600 
#    0.000    0.000    0.000    0.000    0.000    0.000 
#
# Total GULP energy -446603.309074 kJ/mol
# GULP energy per Si atom -5582.541363 kJ/mol
# Density = 2.040900 g / cm^3
# Si number density = 20.455559 Si / 1000 Ang^3
#
#
#
# Elastic Constant Matrix: (Units=GPa)
#
#
# Indices 1 2 3 4 5 6 
#
# 1 20.2621 79.3595 -1.6494 0.0000 0.0000 0.0000
# 2 79.3595 20.2621 -1.6494 0.0000 0.0000 0.0000
# 3 -1.6494 -1.6494 112.8542 0.0000 0.0000 0.0000
# 4 0.0000 0.0000 0.0000 16.0189 0.0000 0.0000
# 5 0.0000 0.0000 0.0000 0.0000 16.0189 0.0000
# 6 0.0000 0.0000 0.0000 0.0000 0.0000 14.5952
#
#
#
# Elastic Compliance Matrix: (Units=1/GPa)
#
#
# Indices 1 2 3 4 5 6 
#
# 1 -0.003439 0.013482 0.000147 0.000000 0.000000 0.000000
# 2 0.013482 -0.003439 0.000147 0.000000 0.000000 0.000000
# 3 0.000147 0.000147 0.008865 0.000000 0.000000 0.000000
# 4 0.000000 0.000000 0.000000 0.062426 0.000000 0.000000
# 5 0.000000 0.000000 0.000000 0.000000 0.062426 0.000000
# 6 0.000000 0.000000 0.000000 0.000000 0.000000 0.068516
#
#
# Mechanical properties :
#
#
# Convention : Reuss Voigt Hill
#
# Bulk Modulus (GPa) = 33.85460 33.94442 33.89951
# Shear Modulus (GPa) = 28.14525 14.48111 21.31318
#
# Velocity S-wave (km/s) = 3.71337 2.66358 3.23139
# Velocity P-wave (km/s) = 5.91369 5.10782 5.52546
#
# Compressibility (1/GPa) = 0.02953809
#
# Stress axis : x y z
#
# Youngs Moduli (GPa) = -290.76724 -290.76724 112.79961
#
# Poissons Ratio (x) = 3.92013 -0.01656
# Poissons Ratio (y) = 3.92013 -0.01656
# Poissons Ratio (z) = 0.04268 0.04268
#
# Static dielectric constant tensor:
#      x y z
#    x 1.727950 0.000000 0.000000 
#    y 0.000000 1.727950 0.000000 
#    z 0.000000 0.000000 1.788390 
# 
# From -- ./inp_files/4706.got.cif
#   From: 2010.05.17/outbox.cif.g08.bks.cpg/sg140_3_cif.got.tgz:4706.got - 2010.06.21 00:45:31.
