data_PCOD9572325
_publ_section_title
;
Structure prediction by ZEFSAII (Michael W. Deem and Ramdas Pophale) SiO2 
 PCOD9572325
Probable space group: I 4/M C M
;
_chemical_formula_sum "Si O2"
_cell_formula_units_Z 136
_cell_length_a 27.508253
_cell_length_b 27.508253
_cell_length_c 11.073289
_cell_angle_alpha 90.000000
_cell_angle_beta 90.000000
_cell_angle_gamma 90.000000
_cell_volume 8379.201892
_symmetry_space_group_name_H-M "I 4/M C M"
_symmetry_group_IT_number 140
_symmetry_cell_setting 'tetragonal'
loop_
_space_group_symop_operation_xyz
x,y,z
-y,x,z
-x,-y,z
y,-x,z
x,-y,1/2-z
-x,y,1/2-z
y,x,1/2-z
-y,-x,1/2-z
-x,-y,-z
y,-x,-z
x,y,-z
-y,x,-z
-x,y,1/2+z
x,-y,1/2+z
-y,-x,1/2+z
y,x,1/2+z
1/2+x,1/2+y,1/2+z
1/2-y,1/2+x,1/2+z
1/2-x,1/2-y,1/2+z
1/2+y,1/2-x,1/2+z
1/2+x,1/2-y,-z
1/2-x,1/2+y,-z
1/2+y,1/2+x,-z
1/2-y,1/2-x,-z
1/2-x,1/2-y,1/2-z
1/2+y,1/2-x,1/2-z
1/2+x,1/2+y,1/2-z
1/2-y,1/2+x,1/2-z
1/2-x,1/2+y,z
1/2+x,1/2-y,z
1/2-y,1/2-x,z
1/2+y,1/2+x,z
loop_
_atom_site_type_symbol
_atom_site_label
_atom_site_fract_x
_atom_site_fract_y
_atom_site_fract_z
Si Si1 0.891294 0.899389 0.500000
Si Si2 0.289609 0.500000 0.750000
Si Si3 0.147094 0.852907 0.750000
Si Si4 0.828319 0.671682 0.367751
Si Si5 0.894135 0.748568 0.249487
Si Si6 0.148364 0.002332 0.000000
Si Si7 0.739508 0.760492 0.000000
Si Si8 0.767160 0.345735 0.500000
O O1 0.866064 0.882626 0.626957
O O2 0.945072 0.876796 0.500000
O O3 0.889079 0.957626 0.500000
O O4 0.258447 0.549095 0.762715
O O5 0.320823 0.502541 0.625174
O O6 0.202314 0.865511 0.713019
O O7 0.843851 0.656150 0.500000
O O8 0.872623 0.700345 0.309931
O O9 0.786535 0.713466 0.387730
O O10 0.878744 0.742118 0.112594
O O11 0.797557 0.766879 0.000000
O O12 0.820210 0.320210 0.500000
#
# Coordination Sequence:
#
# PCOD9572325 Si02
#       8
#    16  16  16  16  32  16   8  16
#     4  12  23  42  60  81 115 142 208 260 314 344
#     4  12  26  40  64  81 120 153 210 236 302 356
#     4  12  24  35  62  83 110 158 184 250 296 359
#     4  10  23  35  52  86 120 147 188 232 287 344
#     4  12  22  39  58  83 115 156 193 242 284 353
#     4  12  23  45  56  90 104 154 200 265 306 360
#     4   8  18  34  52  86 114 154 180 228 276 366
#     4  10  20  36  53  81 116 147 186 233 275 345
#
# _framework density 16.230664000000001
#
# number of rings (size 3 to 8) (size 9 to 14) (size 15 to 20)
#    0.706    0.000    5.882    2.824    3.294    1.647 
#    0.000    0.000    0.000    2.824    0.000    0.000 
#    0.000    0.471    0.000    2.118    0.000    0.000 
#
# Total GULP energy -378907.312511 kJ/mol
# GULP energy per Si atom -5572.166360 kJ/mol
# Density = 1.619372 g / cm^3
# Si number density = 16.230664 Si / 1000 Ang^3
#
#
#
# Elastic Constant Matrix: (Units=GPa)
#
#
# Indices 1 2 3 4 5 6 
#
# 1 68.7024 73.6731 22.8937 0.0000 0.0000 0.0000
# 2 73.6731 68.7031 22.8978 0.0000 0.0000 0.0000
# 3 22.8937 22.8978 90.8682 0.0000 0.0000 0.0000
# 4 0.0000 0.0000 0.0000 33.2881 0.0000 0.0000
# 5 0.0000 0.0000 0.0000 0.0000 33.2837 0.0000
# 6 0.0000 0.0000 0.0000 0.0000 0.0000 33.0056
#
#
#
# Elastic Compliance Matrix: (Units=1/GPa)
#
#
# Indices 1 2 3 4 5 6 
#
# 1 -0.096775 0.104419 -0.001931 0.000000 0.000000 0.000000
# 2 0.104419 -0.096777 -0.001921 0.000000 0.000000 0.000000
# 3 -0.001931 -0.001921 0.011975 0.000000 0.000000 0.000000
# 4 0.000000 0.000000 0.000000 0.030041 0.000000 0.000000
# 5 0.000000 0.000000 0.000000 0.000000 0.030045 0.000000
# 6 0.000000 0.000000 0.000000 0.000000 0.000000 0.030298
#
#
# Mechanical properties :
#
#
# Convention : Reuss Voigt Hill
#
# Bulk Modulus (GPa) = 51.12906 51.91142 51.52024
# Shear Modulus (GPa) = -17.49428 27.16942 4.83757
#
# Velocity S-wave (km/s) = -3.28663 4.09584 1.72829
# Velocity P-wave (km/s) = 4.14335 7.37705 5.98282
#
# Compressibility (1/GPa) = 0.01955835
#
# Stress axis : x y z
#
# Youngs Moduli (GPa) = -10.33328 -10.33305 83.50436
#
# Poissons Ratio (x) = 1.07896 0.16122
# Poissons Ratio (y) = 1.07899 0.16041
# Poissons Ratio (z) = -0.01995 -0.01985
#
# Static dielectric constant tensor:
#      x y z
#    x 1.582280 0.000000 0.000000 
#    y 0.000000 1.582280 0.000000 
#    z 0.000000 0.000000 1.566430 
# 
# From -- ./inp_files/3141.got.cif
#   From: 2010.05.17/outbox.cif.g08.bks.cpg/sg140_2_cif.got.tgz:3141.got - 2010.06.21 00:45:31.
