data_PCOD9572134
_publ_section_title
;
Structure prediction by ZEFSAII (Michael W. Deem and Ramdas Pophale) SiO2 
 PCOD9572134
Probable space group: I 4/M C M
;
_chemical_formula_sum "Si O2"
_cell_formula_units_Z 216
_cell_length_a 24.465502
_cell_length_b 24.465502
_cell_length_c 20.056268
_cell_angle_alpha 90.000000
_cell_angle_beta 90.000000
_cell_angle_gamma 90.000000
_cell_volume 12004.895581
_symmetry_space_group_name_H-M "I 4/M C M"
_symmetry_group_IT_number 140
_symmetry_cell_setting 'tetragonal'
loop_
_space_group_symop_operation_xyz
x,y,z
-y,x,z
-x,-y,z
y,-x,z
x,-y,1/2-z
-x,y,1/2-z
y,x,1/2-z
-y,-x,1/2-z
-x,-y,-z
y,-x,-z
x,y,-z
-y,x,-z
-x,y,1/2+z
x,-y,1/2+z
-y,-x,1/2+z
y,x,1/2+z
1/2+x,1/2+y,1/2+z
1/2-y,1/2+x,1/2+z
1/2-x,1/2-y,1/2+z
1/2+y,1/2-x,1/2+z
1/2+x,1/2-y,-z
1/2-x,1/2+y,-z
1/2+y,1/2+x,-z
1/2-y,1/2-x,-z
1/2-x,1/2-y,1/2-z
1/2+y,1/2-x,1/2-z
1/2+x,1/2+y,1/2-z
1/2-y,1/2+x,1/2-z
1/2-x,1/2+y,z
1/2+x,1/2-y,z
1/2-y,1/2-x,z
1/2+y,1/2+x,z
loop_
_atom_site_type_symbol
_atom_site_label
_atom_site_fract_x
_atom_site_fract_y
_atom_site_fract_z
Si Si1 0.085286 0.086111 0.578794
Si Si2 0.000000 0.000000 0.124750
Si Si3 0.499951 0.867971 0.676904
Si Si4 0.573086 0.284949 0.077740
Si Si5 0.890614 0.299127 0.681880
Si Si6 0.210359 0.944794 0.578951
Si Si7 0.954279 0.545722 0.925690
Si Si8 0.888512 0.699518 0.665140
O O1 0.072117 0.075581 0.500000
O O2 0.150482 0.083261 0.585953
O O3 0.065216 0.146900 0.595335
O O4 0.054442 0.039667 0.619451
O O5 0.500000 0.896160 0.750000
O O6 0.548056 0.823422 0.682105
O O7 0.518605 0.906435 0.617267
O O8 0.441047 0.841174 0.665161
O O9 0.608693 0.248850 0.127955
O O10 0.508450 0.275761 0.091101
O O11 0.583390 0.271033 0.000000
O O12 0.847754 0.347754 0.666013
O O13 0.879750 0.282036 0.758222
O O14 0.216555 0.934933 0.500000
O O15 0.249993 0.905289 0.619541
O O16 0.000000 0.500000 0.932318
O O17 0.936671 0.563330 0.000000
O O18 0.836044 0.663957 0.644032
#
# Coordination Sequence:
#
# PCOD9572134 Si02
#       8
#    32   8  32  32  32  32  16  32
#     4  10  19  32  54  90 126 152 185 224 279 347
#     4  12  17  28  60  96 129 158 181 228 281 338
#     4  10  20  34  54  75  99 139 184 231 286 347
#     4  10  20  34  55  85 118 150 184 230 286 340
#     4  10  20  37  57  80 105 143 197 239 279 340
#     4  10  20  34  55  85 117 149 185 229 284 341
#     4  11  24  34  44  74 110 138 173 226 290 346
#     4  10  21  37  57  79 105 144 196 239 280 339
#
# _framework density 17.992659
#
# number of rings (size 3 to 8) (size 9 to 14) (size 15 to 20)
#    0.000    1.852    3.704    1.111    2.074    1.778 
#    0.000    1.481    0.000    4.444    0.000    2.074 
#    0.000    0.000    0.000    0.000    0.000    0.000 
#
# Total GULP energy -601461.955343 kJ/mol
# GULP energy per Si atom -5569.092179 kJ/mol
# Density = 1.795171 g / cm^3
# Si number density = 17.992659 Si / 1000 Ang^3
#
#
#
# Elastic Constant Matrix: (Units=GPa)
#
#
# Indices 1 2 3 4 5 6 
#
# 1 71.1077 11.9328 34.6026 0.0000 0.0000 0.0000
# 2 11.9328 71.1077 34.6026 0.0000 0.0000 0.0000
# 3 34.6026 34.6026 73.3889 0.0000 0.0000 0.0000
# 4 0.0000 0.0000 0.0000 13.9833 0.0000 0.0000
# 5 0.0000 0.0000 0.0000 0.0000 13.9833 0.0000
# 6 0.0000 0.0000 0.0000 0.0000 0.0000 27.7077
#
#
#
# Elastic Compliance Matrix: (Units=1/GPa)
#
#
# Indices 1 2 3 4 5 6 
#
# 1 0.018368 0.001469 -0.009353 0.000000 0.000000 0.000000
# 2 0.001469 0.018368 -0.009353 0.000000 0.000000 0.000000
# 3 -0.009353 -0.009353 0.022446 0.000000 0.000000 0.000000
# 4 0.000000 0.000000 0.000000 0.071514 0.000000 0.000000
# 5 0.000000 0.000000 0.000000 0.000000 0.071514 0.000000
# 6 0.000000 0.000000 0.000000 0.000000 0.000000 0.036091
#
#
# Mechanical properties :
#
#
# Convention : Reuss Voigt Hill
#
# Bulk Modulus (GPa) = 40.47319 41.98668 41.22993
# Shear Modulus (GPa) = 17.79289 20.09929 18.94609
#
# Velocity S-wave (km/s) = 3.14809 3.34590 3.24850
# Velocity P-wave (km/s) = 5.97972 6.18974 6.08564
#
# Compressibility (1/GPa) = 0.02470772
#
# Stress axis : x y z
#
# Youngs Moduli (GPa) = 54.44223 54.44224 44.55144
#
# Poissons Ratio (x) = -0.07998 0.41670
# Poissons Ratio (y) = -0.07998 0.41670
# Poissons Ratio (z) = 0.50921 0.50921
#
# Static dielectric constant tensor:
#      x y z
#    x 1.607880 0.000000 0.000000 
#    y 0.000000 1.607880 0.000000 
#    z 0.000000 0.000000 1.639910 
# 
# From -- ./inp_files/8717.got.cif
#   From: 2010.05.17/outbox.cif.g08.bks.cpg/sg140_5_cif.got.tgz:8717.got - 2010.06.21 00:45:31.
