data_PCOD9572078
_publ_section_title
;
Structure prediction by ZEFSAII (Michael W. Deem and Ramdas Pophale) SiO2 
 PCOD9572078
Probable space group: I 4/M C M
;
_chemical_formula_sum "Si O2"
_cell_formula_units_Z 160
_cell_length_a 21.311864
_cell_length_b 21.311864
_cell_length_c 13.934373
_cell_angle_alpha 90.000000
_cell_angle_beta 90.000000
_cell_angle_gamma 90.000000
_cell_volume 6328.930169
_symmetry_space_group_name_H-M "I 4/M C M"
_symmetry_group_IT_number 140
_symmetry_cell_setting 'tetragonal'
loop_
_space_group_symop_operation_xyz
x,y,z
-y,x,z
-x,-y,z
y,-x,z
x,-y,1/2-z
-x,y,1/2-z
y,x,1/2-z
-y,-x,1/2-z
-x,-y,-z
y,-x,-z
x,y,-z
-y,x,-z
-x,y,1/2+z
x,-y,1/2+z
-y,-x,1/2+z
y,x,1/2+z
1/2+x,1/2+y,1/2+z
1/2-y,1/2+x,1/2+z
1/2-x,1/2-y,1/2+z
1/2+y,1/2-x,1/2+z
1/2+x,1/2-y,-z
1/2-x,1/2+y,-z
1/2+y,1/2+x,-z
1/2-y,1/2-x,-z
1/2-x,1/2-y,1/2-z
1/2+y,1/2-x,1/2-z
1/2+x,1/2+y,1/2-z
1/2-y,1/2+x,1/2-z
1/2-x,1/2+y,z
1/2+x,1/2-y,z
1/2-y,1/2-x,z
1/2+y,1/2+x,z
loop_
_atom_site_type_symbol
_atom_site_label
_atom_site_fract_x
_atom_site_fract_y
_atom_site_fract_z
Si Si1 0.208523 0.893322 0.893755
Si Si2 0.575128 0.433426 0.364824
Si Si3 0.266730 0.667767 0.117839
Si Si4 0.241596 0.526451 0.882936
Si Si5 0.599795 0.003257 0.115852
O O1 0.133127 0.895691 0.902009
O O2 0.212650 0.824507 0.848629
O O3 0.226044 0.961063 0.850602
O O4 0.238582 0.891860 0.000000
O O5 0.585091 0.505547 0.394179
O O6 0.572932 0.427069 0.250000
O O7 0.201286 0.701286 0.141998
O O8 0.266325 0.594674 0.149497
O O9 0.270391 0.667755 0.000000
O O10 0.169041 0.516740 0.855470
O O11 0.246880 0.527733 0.000000
O O12 0.549556 0.950445 0.143767
O O13 0.570450 0.070450 0.145431
O O14 0.601130 0.004174 0.000000
#
# Coordination Sequence:
#
# PCOD9572078 Si02
#       5
#    32  32  32  32  32
#     4  10  19  29  44  68  93 116 150 195 234 267
#     4   9  18  32  48  65  87 117 151 184 223 274
#     4   9  17  28  41  59  87 121 150 178 222 279
#     4   9  16  25  38  57  84 117 150 185 227 274
#     4   8  13  21  34  53  78 111 151 190 227 271
#
# _framework density 25.280733999999999
#
# number of rings (size 3 to 8) (size 9 to 14) (size 15 to 20)
#    0.000    3.000    0.000    3.000    0.000    5.600 
#    0.000    5.000    0.000    0.600    0.000    0.000 
#    0.000    0.000    0.000    0.000    0.000   49.000 
#
# Total GULP energy -446696.198525 kJ/mol
# GULP energy per Si atom -5583.702482 kJ/mol
# Density = 2.522319 g / cm^3
# Si number density = 25.280734 Si / 1000 Ang^3
#
#
#
# Elastic Constant Matrix: (Units=GPa)
#
#
# Indices 1 2 3 4 5 6 
#
# 1 147.3380 70.7442 -0.1440 0.0000 0.0000 0.0000
# 2 70.7442 147.3377 -0.1438 0.0000 0.0000 0.0000
# 3 -0.1440 -0.1438 98.3927 0.0000 0.0000 0.0000
# 4 0.0000 0.0000 0.0000 -1.2641 0.0000 0.0000
# 5 0.0000 0.0000 0.0000 0.0000 -1.2701 0.0000
# 6 0.0000 0.0000 0.0000 0.0000 0.0000 42.4635
#
#
#
# Elastic Compliance Matrix: (Units=1/GPa)
#
#
# Indices 1 2 3 4 5 6 
#
# 1 0.008821 -0.004235 0.000007 0.000000 0.000000 0.000000
# 2 -0.004235 0.008821 0.000007 0.000000 0.000000 0.000000
# 3 0.000007 0.000007 0.010163 0.000000 0.000000 0.000000
# 4 0.000000 0.000000 0.000000 -0.791095 0.000000 0.000000
# 5 0.000000 0.000000 0.000000 0.000000 -0.787319 0.000000
# 6 0.000000 0.000000 0.000000 0.000000 0.000000 0.023550
#
#
# Mechanical properties :
#
#
# Convention : Reuss Voigt Hill
#
# Bulk Modulus (GPa) = 51.65000 59.33124 55.49062
# Shear Modulus (GPa) = -3.30652 29.49332 13.09340
#
# Velocity S-wave (km/s) = -1.14488 3.41931 2.27825
# Velocity P-wave (km/s) = 4.32750 6.25370 5.37755
#
# Compressibility (1/GPa) = 0.01936108
#
# Stress axis : x y z
#
# Youngs Moduli (GPa) = 113.37015 113.36994 98.39249
#
# Poissons Ratio (x) = 0.48015 -0.00066
# Poissons Ratio (y) = 0.48015 -0.00066
# Poissons Ratio (z) = -0.00076 -0.00076
#
# Static dielectric constant tensor:
#      x y z
#    x 1.969290 0.000000 0.000000 
#    y 0.000000 1.969290 0.000000 
#    z 0.000000 0.000000 2.030450 
# 
# From -- ./inp_files/6817.got.cif
#   From: 2010.05.17/outbox.cif.g08.bks.cpg/sg140_4_cif.got.tgz:6817.got - 2010.06.21 00:45:31.
