data_PCOD9572272
_publ_section_title
;
Structure prediction by ZEFSAII (Michael W. Deem and Ramdas Pophale) SiO2 
 PCOD9572272
Probable space group: I 4/M C M
;
_chemical_formula_sum "Si O2"
_cell_formula_units_Z 160
_cell_length_a 31.206510
_cell_length_b 31.206510
_cell_length_c 8.690116
_cell_angle_alpha 90.000000
_cell_angle_beta 90.000000
_cell_angle_gamma 90.000000
_cell_volume 8462.837021
_symmetry_space_group_name_H-M "I 4/M C M"
_symmetry_group_IT_number 140
_symmetry_cell_setting 'tetragonal'
loop_
_space_group_symop_operation_xyz
x,y,z
-y,x,z
-x,-y,z
y,-x,z
x,-y,1/2-z
-x,y,1/2-z
y,x,1/2-z
-y,-x,1/2-z
-x,-y,-z
y,-x,-z
x,y,-z
-y,x,-z
-x,y,1/2+z
x,-y,1/2+z
-y,-x,1/2+z
y,x,1/2+z
1/2+x,1/2+y,1/2+z
1/2-y,1/2+x,1/2+z
1/2-x,1/2-y,1/2+z
1/2+y,1/2-x,1/2+z
1/2+x,1/2-y,-z
1/2-x,1/2+y,-z
1/2+y,1/2+x,-z
1/2-y,1/2-x,-z
1/2-x,1/2-y,1/2-z
1/2+y,1/2-x,1/2-z
1/2+x,1/2+y,1/2-z
1/2-y,1/2+x,1/2-z
1/2-x,1/2+y,z
1/2+x,1/2-y,z
1/2-y,1/2-x,z
1/2+y,1/2+x,z
loop_
_atom_site_type_symbol
_atom_site_label
_atom_site_fract_x
_atom_site_fract_y
_atom_site_fract_z
Si Si1 0.548448 0.616271 0.685370
Si Si2 0.385414 0.885414 0.683029
Si Si3 0.255991 0.315961 0.327463
Si Si4 0.952862 0.452862 0.684207
Si Si5 0.291055 0.893760 0.817595
Si Si6 0.047485 0.212519 0.814639
O O1 0.500000 0.610924 0.750000
O O2 0.580557 0.580557 0.750000
O O3 0.546893 0.613523 0.500000
O O4 0.563599 0.664756 0.728838
O O5 0.388719 0.888719 0.500000
O O6 0.418266 0.918266 0.761394
O O7 0.336767 0.895821 0.734671
O O8 0.299433 0.299433 0.250000
O O9 0.262645 0.333429 0.500000
O O10 0.224769 0.275232 0.342984
O O11 0.230855 0.348564 0.219976
O O12 0.941957 0.500000 0.750000
O O13 0.954769 0.454769 0.500000
O O14 0.254415 0.926712 0.763184
O O15 0.298114 0.898636 0.000000
O O16 0.000000 0.215461 0.750000
O O17 0.047098 0.213581 0.000000
#
# Coordination Sequence:
#
# PCOD9572272 Si02
#       6
#    32  16  32  16  32  32
#     4  10  20  37  59  86 118 153 193 241 294 351
#     4  12  25  41  61  91 125 161 202 247 297 355
#     4  10  20  34  53  78 109 146 188 232 284 340
#     4  11  23  44  71  99 127 159 194 239 295 359
#     4  11  22  38  59  85 118 155 197 248 299 351
#     4   9  21  39  59  83 113 151 194 237 288 345
#
# _framework density 18.906189000000001
#
# number of rings (size 3 to 8) (size 9 to 14) (size 15 to 20)
#    0.000    1.700    1.000    3.900    0.000    5.000 
#    0.000    5.000    0.000    0.000    0.000    0.000 
#    0.000    0.000    0.000    0.000    0.000    0.000 
#
# Total GULP energy -446426.472717 kJ/mol
# GULP energy per Si atom -5580.330909 kJ/mol
# Density = 1.886316 g / cm^3
# Si number density = 18.906189 Si / 1000 Ang^3
#
#
#
# Elastic Constant Matrix: (Units=GPa)
#
#
# Indices 1 2 3 4 5 6 
#
# 1 64.8142 140.2048 42.2033 0.0000 0.0000 0.0000
# 2 140.2048 64.8142 42.2033 0.0000 0.0000 0.0000
# 3 42.2033 42.2033 82.2178 0.0000 0.0000 0.0000
# 4 0.0000 0.0000 0.0000 14.1204 0.0000 0.0000
# 5 0.0000 0.0000 0.0000 0.0000 14.1204 0.0000
# 6 0.0000 0.0000 0.0000 0.0000 0.0000 -21.7201
#
#
#
# Elastic Compliance Matrix: (Units=1/GPa)
#
#
# Indices 1 2 3 4 5 6 
#
# 1 -0.003540 0.009724 -0.003175 0.000000 0.000000 0.000000
# 2 0.009724 -0.003540 -0.003175 0.000000 0.000000 0.000000
# 3 -0.003175 -0.003175 0.015422 0.000000 0.000000 0.000000
# 4 0.000000 0.000000 0.000000 0.070819 0.000000 0.000000
# 5 0.000000 0.000000 0.000000 0.000000 0.070819 0.000000
# 6 0.000000 0.000000 0.000000 0.000000 0.000000 -0.046040
#
#
# Mechanical properties :
#
#
# Convention : Reuss Voigt Hill
#
# Bulk Modulus (GPa) = 66.25740 73.45212 69.85476
# Shear Modulus (GPa) = 48.91346 0.45313 24.68330
#
# Velocity S-wave (km/s) = 5.09194 0.49010 3.61718
# Velocity P-wave (km/s) = 8.34817 6.26542 7.38063
#
# Compressibility (1/GPa) = 0.01509265
#
# Stress axis : x y z
#
# Youngs Moduli (GPa) = -282.49923 -282.49923 64.84264
#
# Poissons Ratio (x) = 2.74714 0.20585
# Poissons Ratio (y) = 2.74714 0.20585
# Poissons Ratio (z) = -0.89683 -0.89683
#
# Static dielectric constant tensor:
#      x y z
#    x 1.648890 0.000000 0.000000 
#    y 0.000000 1.648890 0.000000 
#    z 0.000000 0.000000 1.655020 
# 
# From -- ./inp_files/1824.got.cif
#   From: 2010.05.17/outbox.cif.g08.bks.cpg/sg140_1_cif.got.tgz:1824.got - 2010.06.21 00:45:31.
