data_PCOD9572834
_publ_section_title
;
Structure prediction by ZEFSAII (Michael W. Deem and Ramdas Pophale) SiO2 
 PCOD9572834
Probable space group: I 41/A M D
;
_chemical_formula_sum "Si O2"
_cell_formula_units_Z 96
_cell_length_a 13.672527
_cell_length_b 13.672527
_cell_length_c 27.929353
_cell_angle_alpha 90.000000
_cell_angle_beta 90.000000
_cell_angle_gamma 90.000000
_cell_volume 5221.057239
_symmetry_space_group_name_H-M "I 41/A M D"
_symmetry_group_IT_number 141
_space_group.IT_coordinate_system_code '2'
_symmetry_cell_setting 'tetragonal'
loop_
_space_group_symop_operation_xyz
x,y,z
1/4-y,3/4+x,1/4+z
-x,1/2-y,z
1/4+y,1/4-x,3/4+z
x,-y,-z
-x,1/2+y,-z
1/4+y,3/4+x,1/4-z
1/4-y,1/4-x,3/4-z
-x,-y,-z
3/4+y,1/4-x,3/4-z
x,1/2+y,-z
3/4-y,3/4+x,1/4-z
-x,y,z
x,1/2-y,z
3/4-y,1/4-x,3/4+z
3/4+y,3/4+x,1/4+z
1/2+x,1/2+y,1/2+z
3/4-y,1/4+x,3/4+z
1/2-x,-y,1/2+z
3/4+y,3/4-x,1/4+z
1/2+x,1/2-y,1/2-z
1/2-x,y,1/2-z
3/4+y,1/4+x,3/4-z
3/4-y,3/4-x,1/4-z
1/2-x,1/2-y,1/2-z
1/4+y,3/4-x,1/4-z
1/2+x,y,1/2-z
1/4-y,1/4+x,3/4-z
1/2-x,1/2+y,1/2+z
1/2+x,-y,1/2+z
1/4-y,3/4-x,1/4+z
1/4+y,1/4+x,3/4+z
loop_
_atom_site_type_symbol
_atom_site_label
_atom_site_fract_x
_atom_site_fract_y
_atom_site_fract_z
Si Si1 0.381726 0.140317 0.327636
Si Si2 0.697446 0.635378 0.472692
Si Si3 0.116242 0.446647 0.070443
O O1 0.500000 0.146140 0.329999
O O2 0.343853 0.250000 0.320641
O O3 0.350034 0.094454 0.378505
O O4 0.360686 0.061008 0.286943
O O5 0.681279 0.750000 0.462105
O O6 0.638768 0.560855 0.438549
O O7 0.666064 0.610516 0.526556
O O8 0.000000 0.431863 0.066803
#
# Coordination Sequence:
#
# PCOD9572834 Si02
#       3
#    32  32  32
#     4   9  18  33  51  70  98 138 176 211 258 311
#     4  10  19  31  50  75 100 130 174 219 253 299
#     4  10  20  33  50  75 109 143 172 207 259 321
#
# _framework density 18.387080000000001
#
# number of rings (size 3 to 8) (size 9 to 14) (size 15 to 20)
#    0.000    2.333    0.000    4.000    0.000    4.000 
#    0.000    5.000    0.000   12.000    0.000    0.000 
#    0.000    5.333    0.000    0.000    0.000    0.000 
#
# Total GULP energy -267641.557004 kJ/mol
# GULP energy per Si atom -5575.865771 kJ/mol
# Density = 1.834523 g / cm^3
# Si number density = 18.387080 Si / 1000 Ang^3
#
#
#
# Elastic Constant Matrix: (Units=GPa)
#
#
# Indices 1 2 3 4 5 6 
#
# 1 109.1461 17.6644 41.5657 0.0000 0.0000 0.0000
# 2 17.6644 109.1461 41.5657 0.0000 0.0000 0.0000
# 3 41.5657 41.5657 46.3193 0.0000 0.0000 0.0000
# 4 0.0000 0.0000 0.0000 16.5821 0.0000 0.0000
# 5 0.0000 0.0000 0.0000 0.0000 16.5821 0.0000
# 6 0.0000 0.0000 0.0000 0.0000 0.0000 20.3669
#
#
#
# Elastic Compliance Matrix: (Units=1/GPa)
#
#
# Indices 1 2 3 4 5 6 
#
# 1 0.015042 0.004111 -0.017188 0.000000 0.000000 0.000000
# 2 0.004111 0.015042 -0.017188 0.000000 0.000000 0.000000
# 3 -0.017188 -0.017188 0.052437 0.000000 0.000000 0.000000
# 4 0.000000 0.000000 0.000000 0.060306 0.000000 0.000000
# 5 0.000000 0.000000 0.000000 0.000000 0.060306 0.000000
# 6 0.000000 0.000000 0.000000 0.000000 0.000000 0.049099
#
#
# Mechanical properties :
#
#
# Convention : Reuss Voigt Hill
#
# Bulk Modulus (GPa) = 45.46954 51.80032 48.63493
# Shear Modulus (GPa) = 15.62054 21.62726 18.62390
#
# Velocity S-wave (km/s) = 2.91785 3.43333 3.18603
# Velocity P-wave (km/s) = 6.01120 6.62950 6.32791
#
# Compressibility (1/GPa) = 0.02199274
#
# Stress axis : x y z
#
# Youngs Moduli (GPa) = 66.47978 66.47978 19.07065
#
# Poissons Ratio (x) = -0.27330 0.32778
# Poissons Ratio (y) = -0.27330 0.32778
# Poissons Ratio (z) = 1.14262 1.14262
#
# Static dielectric constant tensor:
#      x y z
#    x 1.651300 0.000000 0.000000 
#    y 0.000000 1.651300 0.000000 
#    z 0.000000 0.000000 1.626970 
# 
# From -- ./inp_files/9740.got.cif
#   From: 2010.05.17/outbox.cif.g08.bks.cpg/sg141_5_cif.got.tgz:9740.got - 2010.05.20 13:30:51.
