data_PCOD9572739
_publ_section_title
;
Structure prediction by ZEFSAII (Michael W. Deem and Ramdas Pophale) SiO2 
 PCOD9572739
Probable space group: I 41/A M D
;
_chemical_formula_sum "Si O2"
_cell_formula_units_Z 128
_cell_length_a 19.311128
_cell_length_b 19.311128
_cell_length_c 21.092226
_cell_angle_alpha 90.000000
_cell_angle_beta 90.000000
_cell_angle_gamma 90.000000
_cell_volume 7865.705846
_symmetry_space_group_name_H-M "I 41/A M D"
_symmetry_group_IT_number 141
_space_group.IT_coordinate_system_code '2'
_symmetry_cell_setting 'tetragonal'
loop_
_space_group_symop_operation_xyz
x,y,z
1/4-y,3/4+x,1/4+z
-x,1/2-y,z
1/4+y,1/4-x,3/4+z
x,-y,-z
-x,1/2+y,-z
1/4+y,3/4+x,1/4-z
1/4-y,1/4-x,3/4-z
-x,-y,-z
3/4+y,1/4-x,3/4-z
x,1/2+y,-z
3/4-y,3/4+x,1/4-z
-x,y,z
x,1/2-y,z
3/4-y,1/4-x,3/4+z
3/4+y,3/4+x,1/4+z
1/2+x,1/2+y,1/2+z
3/4-y,1/4+x,3/4+z
1/2-x,-y,1/2+z
3/4+y,3/4-x,1/4+z
1/2+x,1/2-y,1/2-z
1/2-x,y,1/2-z
3/4+y,1/4+x,3/4-z
3/4-y,3/4-x,1/4-z
1/2-x,1/2-y,1/2-z
1/4+y,3/4-x,1/4-z
1/2+x,y,1/2-z
1/4-y,1/4+x,3/4-z
1/2-x,1/2+y,1/2+z
1/2+x,-y,1/2+z
1/4-y,3/4-x,1/4+z
1/4+y,1/4+x,3/4+z
loop_
_atom_site_type_symbol
_atom_site_label
_atom_site_fract_x
_atom_site_fract_y
_atom_site_fract_z
Si Si1 0.416983 0.918465 0.001408
Si Si2 0.611818 0.750000 0.394751
Si Si3 0.583223 0.750000 0.537675
Si Si4 0.921767 0.126977 0.132756
Si Si5 0.918283 0.668283 0.625000
Si Si6 0.757035 0.750000 0.325275
O O1 0.500000 0.911213 0.012474
O O2 0.402002 0.879716 0.935261
O O3 0.379078 0.879835 0.058877
O O4 0.401034 0.000000 0.000000
O O5 0.566254 0.683747 0.375000
O O6 0.620301 0.750000 0.470389
O O7 0.683311 0.750000 0.358004
O O8 0.500000 0.750000 0.524450
O O9 0.599010 0.817129 0.579837
O O10 0.000000 0.148137 0.155116
O O11 0.935214 0.053295 0.099615
O O12 0.908879 0.750000 0.609192
O O13 0.750000 0.750000 0.250000
#
# Coordination Sequence:
#
# PCOD9572739 Si02
#       6
#    32  16  16  32  16  16
#     4  10  19  34  54  84 112 146 186 232 276 329
#     4  11  20  34  58  82 108 131 183 236 291 334
#     4  10  16  32  55  86 102 136 177 237 277 324
#     4   9  19  33  58  79 113 143 186 230 280 337
#     4   9  18  32  56  78 108 142 182 234 279 322
#     4  10  21  36  57  83 110 145 183 230 283 343
#
# _framework density 16.273174000000001
#
# number of rings (size 3 to 8) (size 9 to 14) (size 15 to 20)
#    0.750    1.500    2.500    2.250    0.000    1.000 
#    4.500    0.000    2.750    0.000    0.000    0.000 
#    0.000    0.000    0.000    0.000    0.000    0.000 
#
# Total GULP energy -356579.908851 kJ/mol
# GULP energy per Si atom -5571.561076 kJ/mol
# Density = 1.623614 g / cm^3
# Si number density = 16.273174 Si / 1000 Ang^3
#
#
#
# Elastic Constant Matrix: (Units=GPa)
#
#
# Indices 1 2 3 4 5 6 
#
# 1 101.5555 49.8556 81.9407 0.0000 0.0000 0.0000
# 2 49.8556 101.5557 81.9409 0.0000 0.0000 0.0000
# 3 81.9407 81.9409 168.0516 0.0000 0.0000 0.0000
# 4 0.0000 0.0000 0.0000 21.4122 0.0000 0.0000
# 5 0.0000 0.0000 0.0000 0.0000 21.4127 0.0000
# 6 0.0000 0.0000 0.0000 0.0000 0.0000 11.0160
#
#
#
# Elastic Compliance Matrix: (Units=1/GPa)
#
#
# Indices 1 2 3 4 5 6 
#
# 1 0.016664 -0.002679 -0.006819 0.000000 0.000000 0.000000
# 2 -0.002679 0.016664 -0.006819 0.000000 0.000000 0.000000
# 3 -0.006819 -0.006819 0.012600 0.000000 0.000000 0.000000
# 4 0.000000 0.000000 0.000000 0.046702 0.000000 0.000000
# 5 0.000000 0.000000 0.000000 0.000000 0.046701 0.000000
# 6 0.000000 0.000000 0.000000 0.000000 0.000000 0.090777
#
#
# Mechanical properties :
#
#
# Convention : Reuss Voigt Hill
#
# Bulk Modulus (GPa) = 75.21886 88.73745 81.97816
# Shear Modulus (GPa) = 18.71439 21.26321 19.98880
#
# Velocity S-wave (km/s) = 3.39487 3.61867 3.50855
# Velocity P-wave (km/s) = 7.85428 8.49164 8.17917
#
# Compressibility (1/GPa) = 0.01329454
#
# Stress axis : x y z
#
# Youngs Moduli (GPa) = 60.01023 60.01029 79.36212
#
# Poissons Ratio (x) = 0.16074 0.54118
# Poissons Ratio (y) = 0.16074 0.54118
# Poissons Ratio (z) = 0.40922 0.40922
#
# Static dielectric constant tensor:
#      x y z
#    x 1.540720 0.000000 0.000000 
#    y 0.000000 1.540720 0.000000 
#    z 0.000000 0.000000 1.531230 
# 
# From -- ./inp_files/8342.got.cif
#   From: 2010.05.17/outbox.cif.g08.bks.cpg/sg141_5_cif.got.tgz:8342.got - 2010.05.20 13:30:51.
