data_PCOD9572908
_publ_section_title
;
Structure prediction by ZEFSAII (Michael W. Deem and Ramdas Pophale) SiO2 
 PCOD9572908
Probable space group: I 41/A M D
;
_chemical_formula_sum "Si O2"
_cell_formula_units_Z 144
_cell_length_a 21.071338
_cell_length_b 21.071338
_cell_length_c 17.240765
_cell_angle_alpha 90.000000
_cell_angle_beta 90.000000
_cell_angle_gamma 90.000000
_cell_volume 7654.921816
_symmetry_space_group_name_H-M "I 41/A M D"
_symmetry_group_IT_number 141
_space_group.IT_coordinate_system_code '2'
_symmetry_cell_setting 'tetragonal'
loop_
_space_group_symop_operation_xyz
x,y,z
1/4-y,3/4+x,1/4+z
-x,1/2-y,z
1/4+y,1/4-x,3/4+z
x,-y,-z
-x,1/2+y,-z
1/4+y,3/4+x,1/4-z
1/4-y,1/4-x,3/4-z
-x,-y,-z
3/4+y,1/4-x,3/4-z
x,1/2+y,-z
3/4-y,3/4+x,1/4-z
-x,y,z
x,1/2-y,z
3/4-y,1/4-x,3/4+z
3/4+y,3/4+x,1/4+z
1/2+x,1/2+y,1/2+z
3/4-y,1/4+x,3/4+z
1/2-x,-y,1/2+z
3/4+y,3/4-x,1/4+z
1/2+x,1/2-y,1/2-z
1/2-x,y,1/2-z
3/4+y,1/4+x,3/4-z
3/4-y,3/4-x,1/4-z
1/2-x,1/2-y,1/2-z
1/4+y,3/4-x,1/4-z
1/2+x,y,1/2-z
1/4-y,1/4+x,3/4-z
1/2-x,1/2+y,1/2+z
1/2+x,-y,1/2+z
1/4-y,3/4-x,1/4+z
1/4+y,1/4+x,3/4+z
loop_
_atom_site_type_symbol
_atom_site_label
_atom_site_fract_x
_atom_site_fract_y
_atom_site_fract_z
Si Si1 0.886883 0.000000 0.500000
Si Si2 0.929715 0.073614 0.356536
Si Si3 0.648652 0.471638 0.277898
Si Si4 0.642651 0.940359 0.542316
Si Si5 0.926283 0.326361 0.784773
O O1 0.924568 0.980084 0.576555
O O2 0.838697 0.942865 0.487246
O O3 0.877922 0.127922 0.375000
O O4 0.912909 0.041321 0.274526
O O5 0.000000 0.100653 0.356402
O O6 0.679129 0.536491 0.243982
O O7 0.642425 0.465556 0.369781
O O8 0.607298 0.874525 0.523109
O O9 0.611177 0.000000 0.500000
O O10 0.908752 0.341249 0.875000
O O11 0.924498 0.250000 0.778125
O O12 0.000000 0.346125 0.772022
#
# Coordination Sequence:
#
# PCOD9572908 Si02
#       5
#    16  32  32  32  32
#     4  10  19  40  60  84 119 158 202 242 306 372
#     4  10  22  39  63  89 120 162 205 254 303 363
#     4  11  22  37  59  91 127 156 199 252 316 373
#     4  12  23  36  61  94 127 162 202 263 318 369
#     4   9  20  41  63  84 119 169 217 257 311 385
#
# _framework density 18.811426000000001
#
# number of rings (size 3 to 8) (size 9 to 14) (size 15 to 20)
#    0.000    1.556    3.333    3.000    0.000    2.444 
#    0.000    1.111    0.000    0.000    0.000    0.000 
#    0.000    0.000    0.000    0.000    0.000    0.000 
#
# Total GULP energy -401007.177122 kJ/mol
# GULP energy per Si atom -5569.544127 kJ/mol
# Density = 1.876861 g / cm^3
# Si number density = 18.811426 Si / 1000 Ang^3
#
#
#
# Elastic Constant Matrix: (Units=GPa)
#
#
# Indices 1 2 3 4 5 6 
#
# 1 71.7381 17.2036 37.8048 0.0000 0.0000 0.0000
# 2 17.2036 71.7384 37.8050 0.0000 0.0000 0.0000
# 3 37.8048 37.8050 163.5476 0.0000 0.0000 0.0000
# 4 0.0000 0.0000 0.0000 20.4510 0.0000 0.0000
# 5 0.0000 0.0000 0.0000 0.0000 20.4509 0.0000
# 6 0.0000 0.0000 0.0000 0.0000 0.0000 26.8100
#
#
#
# Elastic Compliance Matrix: (Units=1/GPa)
#
#
# Indices 1 2 3 4 5 6 
#
# 1 0.016165 -0.002172 -0.003235 0.000000 0.000000 0.000000
# 2 -0.002172 0.016165 -0.003235 0.000000 0.000000 0.000000
# 3 -0.003235 -0.003235 0.007610 0.000000 0.000000 0.000000
# 4 0.000000 0.000000 0.000000 0.048897 0.000000 0.000000
# 5 0.000000 0.000000 0.000000 0.000000 0.048898 0.000000
# 6 0.000000 0.000000 0.000000 0.000000 0.000000 0.037300
#
#
# Mechanical properties :
#
#
# Convention : Reuss Voigt Hill
#
# Bulk Modulus (GPa) = 44.13534 54.73900 49.43717
# Shear Modulus (GPa) = 25.01639 27.82309 26.41974
#
# Velocity S-wave (km/s) = 3.65067 3.85002 3.75167
# Velocity P-wave (km/s) = 6.42517 6.99468 6.71596
#
# Compressibility (1/GPa) = 0.02265758
#
# Stress axis : x y z
#
# Youngs Moduli (GPa) = 61.86198 61.86223 131.40951
#
# Poissons Ratio (x) = 0.13436 0.42505
# Poissons Ratio (y) = 0.13436 0.42505
# Poissons Ratio (z) = 0.20010 0.20010
#
# Static dielectric constant tensor:
#      x y z
#    x 1.816300 0.000000 0.000000 
#    y 0.000000 1.816320 0.000000 
#    z 0.000000 0.000000 1.660490 
# 
# From -- ./inp_files/8394.got.cif
#   From: 2010.05.17/outbox.cif.g08.bks.cpg/sg141_5_cif.got.tgz:8394.got - 2010.05.20 13:30:51.
