data_PCOD9572307
_publ_section_title
;
Structure prediction by ZEFSAII (Michael W. Deem and Ramdas Pophale) SiO2 
 PCOD9572307
Probable space group: I 4/M C M
;
_chemical_formula_sum "Si O2"
_cell_formula_units_Z 192
_cell_length_a 19.490540
_cell_length_b 19.490540
_cell_length_c 24.107342
_cell_angle_alpha 90.000000
_cell_angle_beta 90.000000
_cell_angle_gamma 90.000000
_cell_volume 9157.924790
_symmetry_space_group_name_H-M "I 4/M C M"
_symmetry_group_IT_number 140
_symmetry_cell_setting 'tetragonal'
loop_
_space_group_symop_operation_xyz
x,y,z
-y,x,z
-x,-y,z
y,-x,z
x,-y,1/2-z
-x,y,1/2-z
y,x,1/2-z
-y,-x,1/2-z
-x,-y,-z
y,-x,-z
x,y,-z
-y,x,-z
-x,y,1/2+z
x,-y,1/2+z
-y,-x,1/2+z
y,x,1/2+z
1/2+x,1/2+y,1/2+z
1/2-y,1/2+x,1/2+z
1/2-x,1/2-y,1/2+z
1/2+y,1/2-x,1/2+z
1/2+x,1/2-y,-z
1/2-x,1/2+y,-z
1/2+y,1/2+x,-z
1/2-y,1/2-x,-z
1/2-x,1/2-y,1/2-z
1/2+y,1/2-x,1/2-z
1/2+x,1/2+y,1/2-z
1/2-y,1/2+x,1/2-z
1/2-x,1/2+y,z
1/2+x,1/2-y,z
1/2-y,1/2-x,z
1/2+y,1/2+x,z
loop_
_atom_site_type_symbol
_atom_site_label
_atom_site_fract_x
_atom_site_fract_y
_atom_site_fract_z
Si Si1 0.110260 0.991580 0.834369
Si Si2 0.090219 0.299676 0.875783
Si Si3 0.762807 0.460632 0.169404
Si Si4 0.356998 0.746122 0.236773
Si Si5 0.257681 0.641603 0.065041
Si Si6 0.164423 0.078580 0.562413
O O1 0.119900 0.971165 0.898993
O O2 0.060377 0.929536 0.817034
O O3 0.189444 0.001236 0.819500
O O4 0.137304 0.362697 0.893275
O O5 0.131264 0.257521 0.828177
O O6 0.071278 0.244929 0.922680
O O7 0.018914 0.317512 0.845735
O O8 0.770967 0.418794 0.225266
O O9 0.758940 0.410288 0.115706
O O10 0.330028 0.669973 0.250000
O O11 0.297091 0.797091 0.254829
O O12 0.210953 0.710953 0.072113
O O13 0.339912 0.651643 0.070152
O O14 0.245671 0.619383 0.000000
O O15 0.151152 0.059736 0.500000
#
# Coordination Sequence:
#
# PCOD9572307 Si02
#       6
#    32  32  32  32  32  32
#     4  10  21  36  53  81 123 166 197 226 271 343
#     4  10  22  38  55  82 117 149 188 244 300 353
#     4  11  21  36  61  85 115 154 198 238 287 356
#     4  10  21  37  61  88 113 147 193 248 303 346
#     4  10  20  35  56  83 112 143 190 251 299 335
#     4  10  20  35  57  82 110 153 203 246 290 336
#
# _framework density 20.965447999999999
#
# number of rings (size 3 to 8) (size 9 to 14) (size 15 to 20)
#    0.000    1.833    1.667    2.500    2.333    5.667 
#    0.000    0.833    0.000    2.000    0.000    5.833 
#    0.000    0.000    0.000    0.000    0.000    0.000 
#
# Total GULP energy -535046.237313 kJ/mol
# GULP energy per Si atom -5573.398305 kJ/mol
# Density = 2.091773 g / cm^3
# Si number density = 20.965448 Si / 1000 Ang^3
#
#
#
# Elastic Constant Matrix: (Units=GPa)
#
#
# Indices 1 2 3 4 5 6 
#
# 1 47.6737 18.9353 3.9982 0.0000 0.0000 0.0000
# 2 18.9353 47.6743 3.9984 0.0000 0.0000 0.0000
# 3 3.9982 3.9984 79.1290 0.0000 0.0000 0.0000
# 4 0.0000 0.0000 0.0000 25.0330 0.0000 0.0000
# 5 0.0000 0.0000 0.0000 0.0000 25.0327 0.0000
# 6 0.0000 0.0000 0.0000 0.0000 0.0000 31.8847
#
#
#
# Elastic Compliance Matrix: (Units=1/GPa)
#
#
# Indices 1 2 3 4 5 6 
#
# 1 0.024951 -0.009846 -0.000763 0.000000 0.000000 0.000000
# 2 -0.009846 0.024950 -0.000763 0.000000 0.000000 0.000000
# 3 -0.000763 -0.000763 0.012715 0.000000 0.000000 0.000000
# 4 0.000000 0.000000 0.000000 0.039947 0.000000 0.000000
# 5 0.000000 0.000000 0.000000 0.000000 0.039948 0.000000
# 6 0.000000 0.000000 0.000000 0.000000 0.000000 0.031363
#
#
# Mechanical properties :
#
#
# Convention : Reuss Voigt Hill
#
# Bulk Modulus (GPa) = 25.08092 25.37121 25.22607
# Shear Modulus (GPa) = 23.81992 26.22643 25.02317
#
# Velocity S-wave (km/s) = 3.37434 3.54069 3.45852
# Velocity P-wave (km/s) = 5.21253 5.37057 5.29214
#
# Compressibility (1/GPa) = 0.03987094
#
# Stress axis : x y z
#
# Youngs Moduli (GPa) = 40.07927 40.07975 78.64895
#
# Poissons Ratio (x) = 0.39462 0.06002
# Poissons Ratio (y) = 0.39461 0.06003
# Poissons Ratio (z) = 0.03059 0.03059
#
# Static dielectric constant tensor:
#      x y z
#    x 1.805810 0.000000 0.000000 
#    y 0.000000 1.805810 0.000000 
#    z 0.000000 0.000000 1.782620 
# 
# From -- ./inp_files/9742.got.cif
#   From: 2010.05.17/outbox.cif.g08.bks.cpg/sg140_5_cif.got.tgz:9742.got - 2010.06.21 00:45:31.
