data_PCOD9572161
_publ_section_title
;
Structure prediction by ZEFSAII (Michael W. Deem and Ramdas Pophale) SiO2 
 PCOD9572161
Probable space group: I 4/M C M
;
_chemical_formula_sum "Si O2"
_cell_formula_units_Z 176
_cell_length_a 23.836561
_cell_length_b 23.836561
_cell_length_c 15.053185
_cell_angle_alpha 90.000000
_cell_angle_beta 90.000000
_cell_angle_gamma 90.000000
_cell_volume 8552.943345
_symmetry_space_group_name_H-M "I 4/M C M"
_symmetry_group_IT_number 140
_symmetry_cell_setting 'tetragonal'
loop_
_space_group_symop_operation_xyz
x,y,z
-y,x,z
-x,-y,z
y,-x,z
x,-y,1/2-z
-x,y,1/2-z
y,x,1/2-z
-y,-x,1/2-z
-x,-y,-z
y,-x,-z
x,y,-z
-y,x,-z
-x,y,1/2+z
x,-y,1/2+z
-y,-x,1/2+z
y,x,1/2+z
1/2+x,1/2+y,1/2+z
1/2-y,1/2+x,1/2+z
1/2-x,1/2-y,1/2+z
1/2+y,1/2-x,1/2+z
1/2+x,1/2-y,-z
1/2-x,1/2+y,-z
1/2+y,1/2+x,-z
1/2-y,1/2-x,-z
1/2-x,1/2-y,1/2-z
1/2+y,1/2-x,1/2-z
1/2+x,1/2+y,1/2-z
1/2-y,1/2+x,1/2-z
1/2-x,1/2+y,z
1/2+x,1/2-y,z
1/2-y,1/2-x,z
1/2+y,1/2+x,z
loop_
_atom_site_type_symbol
_atom_site_label
_atom_site_fract_x
_atom_site_fract_y
_atom_site_fract_z
Si Si1 0.182210 0.516585 0.343754
Si Si2 0.777759 0.187012 0.391195
Si Si3 0.288296 0.558756 0.892131
Si Si4 0.498886 0.905862 0.500000
Si Si5 0.521647 0.411814 0.608529
Si Si6 0.772396 0.367560 0.601985
O O1 0.157444 0.500000 0.250000
O O2 0.237568 0.479677 0.360747
O O3 0.135521 0.505384 0.417141
O O4 0.203577 0.580300 0.345811
O O5 0.777848 0.189054 0.500000
O O6 0.724809 0.224809 0.361665
O O7 0.777124 0.122771 0.364125
O O8 0.835378 0.217612 0.363487
O O9 0.349439 0.537387 0.861781
O O10 0.288580 0.557707 0.000000
O O11 0.441272 0.941272 0.500000
O O12 0.549278 0.950723 0.500000
O O13 0.566046 0.460049 0.635592
O O14 0.521987 0.411183 0.500000
O O15 0.761815 0.386992 0.500000
O O16 0.819519 0.319519 0.598213
#
# Coordination Sequence:
#
# PCOD9572161 Si02
#       6
#    32  32  32  16  32  32
#     4  12  25  41  64  98 133 165 210 261 317 377
#     4   8  16  30  53  86 118 154 202 253 310 370
#     4  10  19  33  56  88 121 170 211 261 319 380
#     4  11  26  50  76  98 126 165 206 258 322 389
#     4   8  15  27  47  80 119 160 216 276 321 371
#     4   9  17  35  64  89 116 158 207 258 302 364
#
# _framework density 20.577711999999998
#
# number of rings (size 3 to 8) (size 9 to 14) (size 15 to 20)
#    0.000    2.455    1.818    2.182    2.545    2.182 
#    0.000    1.818    0.000    2.182    0.000    1.273 
#    0.000    0.000    0.000    0.000    0.000    0.000 
#
# Total GULP energy -491626.450970 kJ/mol
# GULP energy per Si atom -5586.664216 kJ/mol
# Density = 2.053088 g / cm^3
# Si number density = 20.577712 Si / 1000 Ang^3
#
#
#
# Elastic Constant Matrix: (Units=GPa)
#
#
# Indices 1 2 3 4 5 6 
#
# 1 256.9114 -93.1226 19.7903 0.0000 0.0000 0.0000
# 2 -93.1226 256.8486 19.7648 0.0000 0.0000 0.0000
# 3 19.7903 19.7648 52.2419 0.0000 0.0000 0.0000
# 4 0.0000 0.0000 0.0000 7.6019 0.0000 0.0000
# 5 0.0000 0.0000 0.0000 0.0000 7.5892 0.0000
# 6 0.0000 0.0000 0.0000 0.0000 0.0000 14.8057
#
#
#
# Elastic Compliance Matrix: (Units=1/GPa)
#
#
# Indices 1 2 3 4 5 6 
#
# 1 0.004789 0.001932 -0.002545 0.000000 0.000000 0.000000
# 2 0.001932 0.004790 -0.002544 0.000000 0.000000 0.000000
# 3 -0.002545 -0.002544 0.021068 0.000000 0.000000 0.000000
# 4 0.000000 0.000000 0.000000 0.131545 0.000000 0.000000
# 5 0.000000 0.000000 0.000000 0.000000 0.131766 0.000000
# 6 0.000000 0.000000 0.000000 0.000000 0.000000 0.067542
#
#
# Mechanical properties :
#
#
# Convention : Reuss Voigt Hill
#
# Bulk Modulus (GPa) = 41.09688 50.98521 46.04105
# Shear Modulus (GPa) = 13.30055 47.30400 30.30227
#
# Velocity S-wave (km/s) = 2.54511 4.79978 3.84158
# Velocity P-wave (km/s) = 5.35273 7.45304 6.48844
#
# Compressibility (1/GPa) = 0.02433274
#
# Stress axis : x y z
#
# Youngs Moduli (GPa) = 208.82286 208.78645 47.46469
#
# Poissons Ratio (x) = -0.40338 0.12080
# Poissons Ratio (y) = -0.40345 0.12075
# Poissons Ratio (z) = 0.53146 0.53114
#
# Static dielectric constant tensor:
#      x y z
#    x 1.699850 0.000000 0.000000 
#    y 0.000000 1.699840 0.000000 
#    z 0.000000 0.000000 1.779880 
# 
# From -- ./inp_files/4956.got.cif
#   From: 2010.05.17/outbox.cif.g08.bks.cpg/sg140_3_cif.got.tgz:4956.got - 2010.06.21 00:45:31.
