data_PCOD9572800
_publ_section_title
;
Structure prediction by ZEFSAII (Michael W. Deem and Ramdas Pophale) SiO2 
 PCOD9572800
Probable space group: I 41/A M D
;
_chemical_formula_sum "Si O2"
_cell_formula_units_Z 160
_cell_length_a 20.125370
_cell_length_b 20.125370
_cell_length_c 18.600169
_cell_angle_alpha 90.000000
_cell_angle_beta 90.000000
_cell_angle_gamma 90.000000
_cell_volume 7533.636078
_symmetry_space_group_name_H-M "I 41/A M D"
_symmetry_group_IT_number 141
_space_group.IT_coordinate_system_code '2'
_symmetry_cell_setting 'tetragonal'
loop_
_space_group_symop_operation_xyz
x,y,z
1/4-y,3/4+x,1/4+z
-x,1/2-y,z
1/4+y,1/4-x,3/4+z
x,-y,-z
-x,1/2+y,-z
1/4+y,3/4+x,1/4-z
1/4-y,1/4-x,3/4-z
-x,-y,-z
3/4+y,1/4-x,3/4-z
x,1/2+y,-z
3/4-y,3/4+x,1/4-z
-x,y,z
x,1/2-y,z
3/4-y,1/4-x,3/4+z
3/4+y,3/4+x,1/4+z
1/2+x,1/2+y,1/2+z
3/4-y,1/4+x,3/4+z
1/2-x,-y,1/2+z
3/4+y,3/4-x,1/4+z
1/2+x,1/2-y,1/2-z
1/2-x,y,1/2-z
3/4+y,1/4+x,3/4-z
3/4-y,3/4-x,1/4-z
1/2-x,1/2-y,1/2-z
1/4+y,3/4-x,1/4-z
1/2+x,y,1/2-z
1/4-y,1/4+x,3/4-z
1/2-x,1/2+y,1/2+z
1/2+x,-y,1/2+z
1/4-y,3/4-x,1/4+z
1/4+y,1/4+x,3/4+z
loop_
_atom_site_type_symbol
_atom_site_label
_atom_site_fract_x
_atom_site_fract_y
_atom_site_fract_z
Si Si1 0.576537 0.471587 0.303618
Si Si2 0.077015 0.915972 0.097051
Si Si3 0.500000 0.832822 0.125854
Si Si4 0.867227 0.673646 0.304243
Si Si5 0.828469 0.250000 0.268906
Si Si6 0.817954 0.599299 0.702869
O O1 0.500000 0.479317 0.277564
O O2 0.605417 0.538298 0.339670
O O3 0.575254 0.424952 0.373873
O O4 0.624040 0.438155 0.246157
O O5 0.092036 0.842036 0.125000
O O6 0.000000 0.934540 0.096223
O O7 0.102261 0.920623 0.015551
O O8 0.500000 0.750000 0.116405
O O9 0.436849 0.856076 0.172068
O O10 0.500000 0.871535 0.049957
O O11 0.882729 0.750000 0.284196
O O12 0.750000 0.250000 0.250000
O O13 0.837022 0.322184 0.306251
O O14 0.814952 0.564952 0.625000
O O15 0.750000 0.595849 0.750000
#
# Coordination Sequence:
#
# PCOD9572800 Si02
#       6
#    32  32  16  32  16  32
#     4  10  21  41  66  92 125 170 226 279 335 410
#     4  10  22  37  55  89 126 171 219 272 329 395
#     4  10  18  34  66  98 126 169 219 275 334 394
#     4   9  18  34  59  88 125 162 210 269 325 382
#     4  10  22  44  66  98 136 171 217 278 352 407
#     4  11  26  46  70 100 138 179 226 286 351 416
#
# _framework density 21.238084000000001
#
# number of rings (size 3 to 8) (size 9 to 14) (size 15 to 20)
#    0.000    2.000    2.000    0.600    2.800    5.000 
#    0.000    0.000    0.000    0.000    0.000    0.000 
#    0.000    0.000    0.000    0.000    0.000    0.000 
#
# Total GULP energy -445473.088513 kJ/mol
# GULP energy per Si atom -5568.413606 kJ/mol
# Density = 2.118974 g / cm^3
# Si number density = 21.238084 Si / 1000 Ang^3
#
#
#
# Elastic Constant Matrix: (Units=GPa)
#
#
# Indices 1 2 3 4 5 6 
#
# 1 107.1145 -13.8174 40.1376 0.0000 0.0000 0.0000
# 2 -13.8174 107.1145 40.1375 0.0000 0.0000 0.0000
# 3 40.1376 40.1375 105.5520 0.0000 0.0000 0.0000
# 4 0.0000 0.0000 0.0000 25.1702 0.0000 0.0000
# 5 0.0000 0.0000 0.0000 0.0000 25.1702 0.0000
# 6 0.0000 0.0000 0.0000 0.0000 0.0000 19.6015
#
#
#
# Elastic Compliance Matrix: (Units=1/GPa)
#
#
# Indices 1 2 3 4 5 6 
#
# 1 0.012100 0.003831 -0.006058 0.000000 0.000000 0.000000
# 2 0.003831 0.012100 -0.006058 0.000000 0.000000 0.000000
# 3 -0.006058 -0.006058 0.014081 0.000000 0.000000 0.000000
# 4 0.000000 0.000000 0.000000 0.039729 0.000000 0.000000
# 5 0.000000 0.000000 0.000000 0.000000 0.039729 0.000000
# 6 0.000000 0.000000 0.000000 0.000000 0.000000 0.051017
#
#
# Mechanical properties :
#
#
# Convention : Reuss Voigt Hill
#
# Bulk Modulus (GPa) = 46.05913 50.29960 48.17937
# Shear Modulus (GPa) = 25.96543 30.87660 28.42102
#
# Velocity S-wave (km/s) = 3.50035 3.81705 3.66212
# Velocity P-wave (km/s) = 6.17015 6.56975 6.37308
#
# Compressibility (1/GPa) = 0.02171122
#
# Stress axis : x y z
#
# Youngs Moduli (GPa) = 82.64483 82.64483 71.01670
#
# Poissons Ratio (x) = -0.31660 0.43021
# Poissons Ratio (y) = -0.31660 0.43021
# Poissons Ratio (z) = 0.50065 0.50065
#
# Static dielectric constant tensor:
#      x y z
#    x 1.849390 0.000000 0.000000 
#    y 0.000000 1.849390 0.000000 
#    z 0.000000 0.000000 1.770960 
# 
# From -- ./inp_files/8652.got.cif
#   From: 2010.05.17/outbox.cif.g08.bks.cpg/sg141_5_cif.got.tgz:8652.got - 2010.05.20 13:30:51.
