data_PCOD9572463
_publ_section_title
;
Structure prediction by ZEFSAII (Michael W. Deem and Ramdas Pophale) SiO2 
 PCOD9572463
Probable space group: I 4/M C M
;
_chemical_formula_sum "Si O2"
_cell_formula_units_Z 120
_cell_length_a 19.828981
_cell_length_b 19.828981
_cell_length_c 13.618535
_cell_angle_alpha 90.000000
_cell_angle_beta 90.000000
_cell_angle_gamma 90.000000
_cell_volume 5354.651179
_symmetry_space_group_name_H-M "I 4/M C M"
_symmetry_group_IT_number 140
_symmetry_cell_setting 'tetragonal'
loop_
_space_group_symop_operation_xyz
x,y,z
-y,x,z
-x,-y,z
y,-x,z
x,-y,1/2-z
-x,y,1/2-z
y,x,1/2-z
-y,-x,1/2-z
-x,-y,-z
y,-x,-z
x,y,-z
-y,x,-z
-x,y,1/2+z
x,-y,1/2+z
-y,-x,1/2+z
y,x,1/2+z
1/2+x,1/2+y,1/2+z
1/2-y,1/2+x,1/2+z
1/2-x,1/2-y,1/2+z
1/2+y,1/2-x,1/2+z
1/2+x,1/2-y,-z
1/2-x,1/2+y,-z
1/2+y,1/2+x,-z
1/2-y,1/2-x,-z
1/2-x,1/2-y,1/2-z
1/2+y,1/2-x,1/2-z
1/2+x,1/2+y,1/2-z
1/2-y,1/2+x,1/2-z
1/2-x,1/2+y,z
1/2+x,1/2-y,z
1/2-y,1/2-x,z
1/2+y,1/2+x,z
loop_
_atom_site_type_symbol
_atom_site_label
_atom_site_fract_x
_atom_site_fract_y
_atom_site_fract_z
Si Si1 0.410374 0.201104 0.670979
Si Si2 0.943494 0.667897 0.388191
Si Si3 0.230480 0.269521 0.500000
Si Si4 0.832560 0.156861 0.864667
Si Si5 0.435453 0.407472 0.000000
O O1 0.345148 0.154853 0.653846
O O2 0.420409 0.207205 0.789465
O O3 0.476317 0.165026 0.626959
O O4 0.397887 0.272602 0.620122
O O5 0.929075 0.693013 0.500000
O O6 0.902800 0.597200 0.381633
O O7 0.191697 0.224589 0.583905
O O8 0.834878 0.165123 0.750000
O O9 0.902322 0.130401 0.907963
O O10 0.515507 0.409790 0.000000
#
# Coordination Sequence:
#
# PCOD9572463 Si02
#       5
#    32  32   8  32  16
#     4  10  21  37  61  90 132 181 223 276 336 406
#     4   9  20  37  55  88 129 175 232 280 327 387
#     4  10  22  42  68 104 147 182 221 274 342 436
#     4  11  24  44  70 104 140 182 229 285 358 421
#     4  10  26  50  74 102 133 175 237 302 367 435
#
# _framework density 22.410423999999999
#
# number of rings (size 3 to 8) (size 9 to 14) (size 15 to 20)
#    0.000    2.000    1.333    0.400    3.733    6.400 
#    4.800    5.333    0.000    0.000    0.000    0.000 
#    0.000    0.000    0.000    0.000    0.000    0.000 
#
# Total GULP energy -334314.960735 kJ/mol
# GULP energy per Si atom -5571.916012 kJ/mol
# Density = 2.235942 g / cm^3
# Si number density = 22.410424 Si / 1000 Ang^3
#
#
#
# Elastic Constant Matrix: (Units=GPa)
#
#
# Indices 1 2 3 4 5 6 
#
# 1 12.8173 86.6771 32.9162 0.0000 0.0000 0.0000
# 2 86.6771 12.8157 32.9122 0.0000 0.0000 0.0000
# 3 32.9162 32.9122 170.7775 0.0000 0.0000 0.0000
# 4 0.0000 0.0000 0.0000 -94.2639 0.0000 0.0000
# 5 0.0000 0.0000 0.0000 0.0000 -94.3662 0.0000
# 6 0.0000 0.0000 0.0000 0.0000 0.0000 34.4795
#
#
#
# Elastic Compliance Matrix: (Units=1/GPa)
#
#
# Indices 1 2 3 4 5 6 
#
# 1 -0.001010 0.012529 -0.002220 0.000000 0.000000 0.000000
# 2 0.012529 -0.001010 -0.002220 0.000000 0.000000 0.000000
# 3 -0.002220 -0.002220 0.006711 0.000000 0.000000 0.000000
# 4 0.000000 0.000000 0.000000 -0.010609 0.000000 0.000000
# 5 0.000000 0.000000 0.000000 0.000000 -0.010597 0.000000
# 6 0.000000 0.000000 0.000000 0.000000 0.000000 0.029003
#
#
# Mechanical properties :
#
#
# Convention : Reuss Voigt Hill
#
# Bulk Modulus (GPa) = 47.91522 55.71350 51.81436
# Shear Modulus (GPa) = 1529.86191 -27.90312 750.97939
#
# Velocity S-wave (km/s) = 26.15604 -3.53242 18.32567
# Velocity P-wave (km/s) = 30.55506 2.87701 21.70125
#
# Compressibility (1/GPa) = 0.02087020
#
# Stress axis : x y z
#
# Youngs Moduli (GPa) = -990.52050 -990.52895 149.00033
#
# Poissons Ratio (x) = 12.41079 0.33079
# Poissons Ratio (y) = 12.41069 0.33084
# Poissons Ratio (z) = -2.19904 -2.19938
#
# Static dielectric constant tensor:
#      x y z
#    x 1.838640 0.000000 0.000000 
#    y 0.000000 1.838640 0.000000 
#    z 0.000000 0.000000 1.824390 
# 
# From -- ./inp_files/4322.got.cif
#   From: 2010.05.17/outbox.cif.g08.bks.cpg/sg140_3_cif.got.tgz:4322.got - 2010.06.21 00:45:31.
