data_PCOD9572294
_publ_section_title
;
Structure prediction by ZEFSAII (Michael W. Deem and Ramdas Pophale) SiO2 
 PCOD9572294
Probable space group: I 4/M C M
;
_chemical_formula_sum "Si O2"
_cell_formula_units_Z 128
_cell_length_a 20.794957
_cell_length_b 20.794957
_cell_length_c 14.591519
_cell_angle_alpha 90.000000
_cell_angle_beta 90.000000
_cell_angle_gamma 90.000000
_cell_volume 6309.814014
_symmetry_space_group_name_H-M "I 4/M C M"
_symmetry_group_IT_number 140
_symmetry_cell_setting 'tetragonal'
loop_
_space_group_symop_operation_xyz
x,y,z
-y,x,z
-x,-y,z
y,-x,z
x,-y,1/2-z
-x,y,1/2-z
y,x,1/2-z
-y,-x,1/2-z
-x,-y,-z
y,-x,-z
x,y,-z
-y,x,-z
-x,y,1/2+z
x,-y,1/2+z
-y,-x,1/2+z
y,x,1/2+z
1/2+x,1/2+y,1/2+z
1/2-y,1/2+x,1/2+z
1/2-x,1/2-y,1/2+z
1/2+y,1/2-x,1/2+z
1/2+x,1/2-y,-z
1/2-x,1/2+y,-z
1/2+y,1/2+x,-z
1/2-y,1/2-x,-z
1/2-x,1/2-y,1/2-z
1/2+y,1/2-x,1/2-z
1/2+x,1/2+y,1/2-z
1/2-y,1/2+x,1/2-z
1/2-x,1/2+y,z
1/2+x,1/2-y,z
1/2-y,1/2-x,z
1/2+y,1/2+x,z
loop_
_atom_site_type_symbol
_atom_site_label
_atom_site_fract_x
_atom_site_fract_y
_atom_site_fract_z
Si Si1 0.924508 0.680880 0.246533
Si Si2 0.151057 0.239109 0.894949
Si Si3 0.394996 0.717772 0.609871
Si Si4 0.975692 0.100356 0.888296
O O1 0.883308 0.616693 0.230602
O O2 0.904226 0.732154 0.168369
O O3 0.901330 0.715178 0.339545
O O4 0.000000 0.669316 0.250000
O O5 0.209071 0.290930 0.892426
O O6 0.181153 0.171227 0.866044
O O7 0.128635 0.232185 0.000000
O O8 0.395597 0.725142 0.500000
O O9 0.452542 0.670282 0.639715
O O10 0.045600 0.075551 0.859411
O O11 0.975577 0.100070 0.000000
#
# Coordination Sequence:
#
# PCOD9572294 Si02
#       4
#    32  32  32  32
#     4  11  25  42  61  87 118 154 203 258 307 362
#     4   9  19  38  62  86 114 149 190 240 301 360
#     4  10  20  34  61  93 123 156 193 240 296 356
#     4   8  15  28  47  77 119 162 196 224 265 333
#
# _framework density 20.285858999999999
#
# number of rings (size 3 to 8) (size 9 to 14) (size 15 to 20)
#    0.000    2.500    0.000    2.250    3.500    4.750 
#    0.000    0.000    0.000    0.000    0.000    5.250 
#    0.000    0.000    0.000    0.000    0.000    0.000 
#
# Total GULP energy -357749.948937 kJ/mol
# GULP energy per Si atom -5589.842952 kJ/mol
# Density = 2.023969 g / cm^3
# Si number density = 20.285859 Si / 1000 Ang^3
#
#
#
# Elastic Constant Matrix: (Units=GPa)
#
#
# Indices 1 2 3 4 5 6 
#
# 1 97.2841 31.6621 31.4358 0.0000 0.0000 0.0000
# 2 31.6621 97.2841 31.4358 0.0000 0.0000 0.0000
# 3 31.4358 31.4358 64.5573 0.0000 0.0000 0.0000
# 4 0.0000 0.0000 0.0000 8.0823 0.0000 0.0000
# 5 0.0000 0.0000 0.0000 0.0000 8.0823 0.0000
# 6 0.0000 0.0000 0.0000 0.0000 0.0000 22.8872
#
#
#
# Elastic Compliance Matrix: (Units=1/GPa)
#
#
# Indices 1 2 3 4 5 6 
#
# 1 0.012704 -0.002535 -0.004952 0.000000 0.000000 0.000000
# 2 -0.002535 0.012704 -0.004952 0.000000 0.000000 0.000000
# 3 -0.004952 -0.004952 0.020313 0.000000 0.000000 0.000000
# 4 0.000000 0.000000 0.000000 0.123727 0.000000 0.000000
# 5 0.000000 0.000000 0.000000 0.000000 0.123727 0.000000
# 6 0.000000 0.000000 0.000000 0.000000 0.000000 0.043692
#
#
# Mechanical properties :
#
#
# Convention : Reuss Voigt Hill
#
# Bulk Modulus (GPa) = 47.97548 49.79923 48.88735
# Shear Modulus (GPa) = 13.56141 18.78315 16.17228
#
# Velocity S-wave (km/s) = 2.58837 3.04620 2.82657
# Velocity P-wave (km/s) = 5.71261 6.08066 5.89951
#
# Compressibility (1/GPa) = 0.02084398
#
# Stress axis : x y z
#
# Youngs Moduli (GPa) = 78.71379 78.71379 49.22979
#
# Poissons Ratio (x) = 0.19950 0.24379
# Poissons Ratio (y) = 0.19950 0.24379
# Poissons Ratio (z) = 0.38980 0.38980
#
# Static dielectric constant tensor:
#      x y z
#    x 1.698910 0.000000 0.000000 
#    y 0.000000 1.698910 0.000000 
#    z 0.000000 0.000000 1.753240 
# 
# From -- ./inp_files/6462.got.cif
#   From: 2010.05.17/outbox.cif.g08.bks.cpg/sg140_4_cif.got.tgz:6462.got - 2010.06.21 00:45:31.
