data_PCOD9572844
_publ_section_title
;
Structure prediction by ZEFSAII (Michael W. Deem and Ramdas Pophale) SiO2 
 PCOD9572844
Probable space group: I 41/A M D
;
_chemical_formula_sum "Si O2"
_cell_formula_units_Z 176
_cell_length_a 17.857456
_cell_length_b 17.857456
_cell_length_c 25.000835
_cell_angle_alpha 90.000000
_cell_angle_beta 90.000000
_cell_angle_gamma 90.000000
_cell_volume 7972.484642
_symmetry_space_group_name_H-M "I 41/A M D"
_symmetry_group_IT_number 141
_space_group.IT_coordinate_system_code '2'
_symmetry_cell_setting 'tetragonal'
loop_
_space_group_symop_operation_xyz
x,y,z
1/4-y,3/4+x,1/4+z
-x,1/2-y,z
1/4+y,1/4-x,3/4+z
x,-y,-z
-x,1/2+y,-z
1/4+y,3/4+x,1/4-z
1/4-y,1/4-x,3/4-z
-x,-y,-z
3/4+y,1/4-x,3/4-z
x,1/2+y,-z
3/4-y,3/4+x,1/4-z
-x,y,z
x,1/2-y,z
3/4-y,1/4-x,3/4+z
3/4+y,3/4+x,1/4+z
1/2+x,1/2+y,1/2+z
3/4-y,1/4+x,3/4+z
1/2-x,-y,1/2+z
3/4+y,3/4-x,1/4+z
1/2+x,1/2-y,1/2-z
1/2-x,y,1/2-z
3/4+y,1/4+x,3/4-z
3/4-y,3/4-x,1/4-z
1/2-x,1/2-y,1/2-z
1/4+y,3/4-x,1/4-z
1/2+x,y,1/2-z
1/4-y,1/4+x,3/4-z
1/2-x,1/2+y,1/2+z
1/2+x,-y,1/2+z
1/4-y,3/4-x,1/4+z
1/4+y,1/4+x,3/4+z
loop_
_atom_site_type_symbol
_atom_site_label
_atom_site_fract_x
_atom_site_fract_y
_atom_site_fract_z
Si Si1 0.645230 0.091147 0.318072
Si Si2 0.838745 0.833878 0.317719
Si Si3 0.333755 0.338453 0.051090
Si Si4 0.836119 0.750000 0.817129
Si Si5 0.771606 0.012146 0.689849
Si Si6 0.500000 0.337697 0.044128
Si Si7 0.411351 0.750000 0.568563
O O1 0.589657 0.102764 0.368056
O O2 0.599685 0.077588 0.263604
O O3 0.695823 0.166619 0.309867
O O4 0.700001 0.025349 0.337834
O O5 0.816219 0.750000 0.303700
O O6 0.781356 0.899389 0.305903
O O7 0.919881 0.852488 0.291227
O O8 0.322913 0.250000 0.064010
O O9 0.274665 0.397887 0.073910
O O10 0.419237 0.363823 0.064984
O O11 0.898165 0.750000 0.769855
O O12 0.863594 0.750000 0.877632
O O13 0.750000 0.985015 0.750000
O O14 0.500000 0.250000 0.054279
O O15 0.500000 0.750000 0.581457
#
# Coordination Sequence:
#
# PCOD9572844 Si02
#       7
#    32  32  32  16  32  16  16
#     4   9  17  31  48  72  97 124 160 201 243 285
#     4  10  19  32  51  69  91 122 161 204 247 293
#     4   9  17  29  47  70 100 132 162 196 239 292
#     4   8  13  23  44  67  94 120 147 191 235 274
#     4  10  21  32  45  69 100 128 158 199 245 298
#     4   8  13  23  41  66  93 126 163 190 221 265
#     4   8  15  26  43  69  88 107 147 194 242 284
#
# _framework density 22.075928999999999
#
# number of rings (size 3 to 8) (size 9 to 14) (size 15 to 20)
#    0.000    2.909    0.000    1.364    1.273    5.455 
#    0.000    3.636    0.000    0.000    0.000    0.000 
#    0.000    8.364    0.000    0.000    0.000    0.000 
#
# Total GULP energy -490048.858057 kJ/mol
# GULP energy per Si atom -5568.737023 kJ/mol
# Density = 2.202568 g / cm^3
# Si number density = 22.075929 Si / 1000 Ang^3
#
#
#
# Elastic Constant Matrix: (Units=GPa)
#
#
# Indices 1 2 3 4 5 6 
#
# 1 111.4536 55.3364 -1.2751 0.0000 0.0000 0.0000
# 2 55.3364 111.4536 -1.2751 0.0000 0.0000 0.0000
# 3 -1.2751 -1.2751 32.5163 0.0000 0.0000 0.0000
# 4 0.0000 0.0000 0.0000 19.7219 0.0000 0.0000
# 5 0.0000 0.0000 0.0000 0.0000 19.7219 0.0000
# 6 0.0000 0.0000 0.0000 0.0000 0.0000 34.2389
#
#
#
# Elastic Compliance Matrix: (Units=1/GPa)
#
#
# Indices 1 2 3 4 5 6 
#
# 1 0.011910 -0.005910 0.000235 0.000000 0.000000 0.000000
# 2 -0.005910 0.011910 0.000235 0.000000 0.000000 0.000000
# 3 0.000235 0.000235 0.030772 0.000000 0.000000 0.000000
# 4 0.000000 0.000000 0.000000 0.050705 0.000000 0.000000
# 5 0.000000 0.000000 0.000000 0.000000 0.050705 0.000000
# 6 0.000000 0.000000 0.000000 0.000000 0.000000 0.029207
#
#
# Mechanical properties :
#
#
# Convention : Reuss Voigt Hill
#
# Bulk Modulus (GPa) = 22.87723 40.11066 31.49395
# Shear Modulus (GPa) = 23.73515 28.24570 25.99043
#
# Velocity S-wave (km/s) = 3.28252 3.58086 3.43493
# Velocity P-wave (km/s) = 4.97514 5.94185 5.47986
#
# Compressibility (1/GPa) = 0.04371158
#
# Stress axis : x y z
#
# Youngs Moduli (GPa) = 83.96654 83.96654 32.49682
#
# Poissons Ratio (x) = 0.49627 -0.00765
# Poissons Ratio (y) = 0.49627 -0.00765
# Poissons Ratio (z) = -0.01975 -0.01975
#
# Static dielectric constant tensor:
#      x y z
#    x 1.846730 0.000000 0.000000 
#    y 0.000000 1.846730 0.000000 
#    z 0.000000 0.000000 1.985960 
# 
# From -- ./inp_files/14396.got.cif
#   From: 2010.05.17/outbox.cif.g08.bks.cpg/sg141_8_cif.got.tgz:14396.got - 2010.05.20 13:30:51.
