data_PCOD9572799
_publ_section_title
;
Structure prediction by ZEFSAII (Michael W. Deem and Ramdas Pophale) SiO2 
 PCOD9572799
Probable space group: I 41/A M D
;
_chemical_formula_sum "Si O2"
_cell_formula_units_Z 176
_cell_length_a 26.058345
_cell_length_b 26.058345
_cell_length_c 12.250790
_cell_angle_alpha 90.000000
_cell_angle_beta 90.000000
_cell_angle_gamma 90.000000
_cell_volume 8318.743905
_symmetry_space_group_name_H-M "I 41/A M D"
_symmetry_group_IT_number 141
_space_group.IT_coordinate_system_code '2'
_symmetry_cell_setting 'tetragonal'
loop_
_space_group_symop_operation_xyz
x,y,z
1/4-y,3/4+x,1/4+z
-x,1/2-y,z
1/4+y,1/4-x,3/4+z
x,-y,-z
-x,1/2+y,-z
1/4+y,3/4+x,1/4-z
1/4-y,1/4-x,3/4-z
-x,-y,-z
3/4+y,1/4-x,3/4-z
x,1/2+y,-z
3/4-y,3/4+x,1/4-z
-x,y,z
x,1/2-y,z
3/4-y,1/4-x,3/4+z
3/4+y,3/4+x,1/4+z
1/2+x,1/2+y,1/2+z
3/4-y,1/4+x,3/4+z
1/2-x,-y,1/2+z
3/4+y,3/4-x,1/4+z
1/2+x,1/2-y,1/2-z
1/2-x,y,1/2-z
3/4+y,1/4+x,3/4-z
3/4-y,3/4-x,1/4-z
1/2-x,1/2-y,1/2-z
1/4+y,3/4-x,1/4-z
1/2+x,y,1/2-z
1/4-y,1/4+x,3/4-z
1/2-x,1/2+y,1/2+z
1/2+x,-y,1/2+z
1/4-y,3/4-x,1/4+z
1/4+y,1/4+x,3/4+z
loop_
_atom_site_type_symbol
_atom_site_label
_atom_site_fract_x
_atom_site_fract_y
_atom_site_fract_z
Si Si1 0.888871 0.550107 0.922676
Si Si2 0.906312 0.133439 0.749617
Si Si3 0.558868 0.810196 0.049206
Si Si4 0.500000 0.564059 0.257712
Si Si5 0.101829 0.414376 0.305587
Si Si6 0.000000 0.060615 0.009789
Si Si7 0.000000 0.467476 0.386663
O O1 0.883508 0.546852 0.793122
O O2 0.883234 0.500000 0.000000
O O3 0.860871 0.600414 0.967681
O O4 0.947470 0.571423 0.932119
O O5 0.900634 0.150634 0.875000
O O6 0.929254 0.179519 0.676559
O O7 0.947468 0.089698 0.721250
O O8 0.500000 0.827692 0.023906
O O9 0.561091 0.750000 0.023694
O O10 0.607347 0.837396 0.991633
O O11 0.500000 0.577338 0.385875
O O12 0.500000 0.506193 0.217291
O O13 0.152142 0.402142 0.375000
O O14 0.052333 0.435058 0.371256
O O15 0.000000 0.000000 0.000000
O O16 0.000000 0.500000 0.500000
#
# Coordination Sequence:
#
# PCOD9572799 Si02
#       7
#    32  32  32  16  32  16  16
#     4  10  21  39  64  89 128 179 248 291 346 422
#     4  11  23  34  59  95 138 183 229 294 357 423
#     4  10  22  38  59  85 134 192 238 273 333 430
#     4  12  24  42  61  97 146 170 235 296 379 441
#     4  11  25  42  65  97 136 183 245 292 360 431
#     4  10  18  34  62  87 121 171 230 295 336 411
#     4  12  28  44  69  95 139 192 231 305 375 443
#
# _framework density 21.157039999999999
#
# number of rings (size 3 to 8) (size 9 to 14) (size 15 to 20)
#    0.000    1.273    3.636    2.727   11.455    0.000 
#    0.000    1.818    0.000    0.000    0.000    2.545 
#    0.000    0.000    0.000    0.000    0.000    0.000 
#
# Total GULP energy -490377.584631 kJ/mol
# GULP energy per Si atom -5572.472553 kJ/mol
# Density = 2.110889 g / cm^3
# Si number density = 21.157040 Si / 1000 Ang^3
#
#
#
# Elastic Constant Matrix: (Units=GPa)
#
#
# Indices 1 2 3 4 5 6 
#
# 1 89.2498 32.9323 18.5028 0.0000 0.0000 0.0000
# 2 32.9323 89.2498 18.5028 0.0000 0.0000 0.0000
# 3 18.5028 18.5028 108.0663 0.0000 0.0000 0.0000
# 4 0.0000 0.0000 0.0000 34.4777 0.0000 0.0000
# 5 0.0000 0.0000 0.0000 0.0000 34.4777 0.0000
# 6 0.0000 0.0000 0.0000 0.0000 0.0000 3.4690
#
#
#
# Elastic Compliance Matrix: (Units=1/GPa)
#
#
# Indices 1 2 3 4 5 6 
#
# 1 0.013194 -0.004562 -0.001478 0.000000 0.000000 0.000000
# 2 -0.004562 0.013194 -0.001478 0.000000 0.000000 0.000000
# 3 -0.001478 -0.001478 0.009760 0.000000 0.000000 0.000000
# 4 0.000000 0.000000 0.000000 0.029004 0.000000 0.000000
# 5 0.000000 0.000000 0.000000 0.000000 0.029004 0.000000
# 6 0.000000 0.000000 0.000000 0.000000 0.000000 0.288265
#
#
# Mechanical properties :
#
#
# Convention : Reuss Voigt Hill
#
# Bulk Modulus (GPa) = 47.36624 47.38242 47.37433
# Shear Modulus (GPa) = 12.36107 28.92674 20.64391
#
# Velocity S-wave (km/s) = 2.41976 3.70163 3.12708
# Velocity P-wave (km/s) = 5.49941 6.38072 5.95639
#
# Compressibility (1/GPa) = 0.02111208
#
# Stress axis : x y z
#
# Youngs Moduli (GPa) = 75.79028 75.79028 102.46232
#
# Poissons Ratio (x) = 0.34577 0.15144
# Poissons Ratio (y) = 0.34577 0.15144
# Poissons Ratio (z) = 0.11202 0.11202
#
# Static dielectric constant tensor:
#      x y z
#    x 1.838100 0.000000 0.000000 
#    y 0.000000 1.838100 0.000000 
#    z 0.000000 0.000000 1.864240 
# 
# From -- ./inp_files/5098.got.cif
#   From: 2010.05.17/outbox.cif.g08.bks.cpg/sg141_3_cif.got.tgz:5098.got - 2010.05.20 13:30:51.
