data_PCOD9572506
_publ_section_title
;
Structure prediction by ZEFSAII (Michael W. Deem and Ramdas Pophale) SiO2 
 PCOD9572506
Probable space group: I 4/M C M
;
_chemical_formula_sum "Si O2"
_cell_formula_units_Z 96
_cell_length_a 13.999156
_cell_length_b 13.999156
_cell_length_c 26.524558
_cell_angle_alpha 90.000000
_cell_angle_beta 90.000000
_cell_angle_gamma 90.000000
_cell_volume 5198.186559
_symmetry_space_group_name_H-M "I 4/M C M"
_symmetry_group_IT_number 140
_symmetry_cell_setting 'tetragonal'
loop_
_space_group_symop_operation_xyz
x,y,z
-y,x,z
-x,-y,z
y,-x,z
x,-y,1/2-z
-x,y,1/2-z
y,x,1/2-z
-y,-x,1/2-z
-x,-y,-z
y,-x,-z
x,y,-z
-y,x,-z
-x,y,1/2+z
x,-y,1/2+z
-y,-x,1/2+z
y,x,1/2+z
1/2+x,1/2+y,1/2+z
1/2-y,1/2+x,1/2+z
1/2-x,1/2-y,1/2+z
1/2+y,1/2-x,1/2+z
1/2+x,1/2-y,-z
1/2-x,1/2+y,-z
1/2+y,1/2+x,-z
1/2-y,1/2-x,-z
1/2-x,1/2-y,1/2-z
1/2+y,1/2-x,1/2-z
1/2+x,1/2+y,1/2-z
1/2-y,1/2+x,1/2-z
1/2-x,1/2+y,z
1/2+x,1/2-y,z
1/2-y,1/2-x,z
1/2+y,1/2+x,z
loop_
_atom_site_type_symbol
_atom_site_label
_atom_site_fract_x
_atom_site_fract_y
_atom_site_fract_z
Si Si1 0.156121 0.343880 0.876101
Si Si2 0.849321 0.057077 0.500000
Si Si3 0.693457 0.193457 0.668660
Si Si4 0.952610 0.298743 0.087605
Si Si5 0.390464 0.890464 0.763276
O O1 0.232736 0.267265 0.856326
O O2 0.195256 0.434009 0.907206
O O3 0.117718 0.382283 0.822854
O O4 0.881704 0.946006 0.500000
O O5 0.783069 0.075559 0.451535
O O6 0.720919 0.092589 0.642585
O O7 0.676006 0.176006 0.727696
O O8 0.898444 0.398444 0.073046
O O9 0.500000 0.869808 0.750000
#
# Coordination Sequence:
#
# PCOD9572506 Si02
#       5
#    16  16  16  32  16
#     4  12  21  38  63  87 122 160 199 252 316 355
#     4  11  23  41  62  85 124 169 202 243 304 376
#     4  10  22  35  60  91 122 155 196 254 298 370
#     4  10  22  39  60  90 118 153 202 255 301 355
#     4  11  19  36  61  88 123 159 199 250 302 362
#
# _framework density 18.467977999999999
#
# number of rings (size 3 to 8) (size 9 to 14) (size 15 to 20)
#    1.000    0.333    3.333    3.500    2.333    0.667 
#    3.000    1.667    0.000    0.000    0.000    2.333 
#    0.000    0.000    0.000    0.000    0.000    0.000 
#
# Total GULP energy -267245.690528 kJ/mol
# GULP energy per Si atom -5567.618553 kJ/mol
# Density = 1.842594 g / cm^3
# Si number density = 18.467978 Si / 1000 Ang^3
#
#
#
# Elastic Constant Matrix: (Units=GPa)
#
#
# Indices 1 2 3 4 5 6 
#
# 1 61.1705 33.2541 -2.0341 0.0000 0.0000 0.0000
# 2 33.2541 61.1705 -2.0341 0.0000 0.0000 0.0000
# 3 -2.0341 -2.0341 59.2458 0.0000 0.0000 0.0000
# 4 0.0000 0.0000 0.0000 13.3086 0.0000 0.0000
# 5 0.0000 0.0000 0.0000 0.0000 13.3086 0.0000
# 6 0.0000 0.0000 0.0000 0.0000 0.0000 28.8403
#
#
#
# Elastic Compliance Matrix: (Units=1/GPa)
#
#
# Indices 1 2 3 4 5 6 
#
# 1 0.023214 -0.012608 0.000364 0.000000 0.000000 0.000000
# 2 -0.012608 0.023214 0.000364 0.000000 0.000000 0.000000
# 3 0.000364 0.000364 0.016904 0.000000 0.000000 0.000000
# 4 0.000000 0.000000 0.000000 0.075140 0.000000 0.000000
# 5 0.000000 0.000000 0.000000 0.000000 0.075140 0.000000
# 6 0.000000 0.000000 0.000000 0.000000 0.000000 0.034674
#
#
# Mechanical properties :
#
#
# Convention : Reuss Voigt Hill
#
# Bulk Modulus (GPa) = 25.26993 26.66206 25.96600
# Shear Modulus (GPa) = 17.52951 21.25156 19.39053
#
# Velocity S-wave (km/s) = 3.08423 3.39591 3.24382
# Velocity P-wave (km/s) = 5.13771 5.46302 5.30286
#
# Compressibility (1/GPa) = 0.03957272
#
# Stress axis : x y z
#
# Youngs Moduli (GPa) = 43.07810 43.07810 59.15815
#
# Poissons Ratio (x) = 0.54311 -0.02154
# Poissons Ratio (y) = 0.54311 -0.02154
# Poissons Ratio (z) = -0.01569 -0.01569
#
# Static dielectric constant tensor:
#      x y z
#    x 1.649920 0.000000 0.000000 
#    y 0.000000 1.649920 0.000000 
#    z 0.000000 0.000000 1.618730 
# 
# From -- ./inp_files/10229.got.cif
#   From: 2010.05.17/outbox.cif.g08.bks.cpg/sg140_6_cif.got.tgz:10229.got - 2010.06.21 00:45:31.
