data_PCOD9572073
_publ_section_title
;
Structure prediction by ZEFSAII (Michael W. Deem and Ramdas Pophale) SiO2 
 PCOD9572073
Probable space group: I 4/M C M
;
_chemical_formula_sum "Si O2"
_cell_formula_units_Z 176
_cell_length_a 28.097129
_cell_length_b 28.097129
_cell_length_c 14.156796
_cell_angle_alpha 90.000000
_cell_angle_beta 90.000000
_cell_angle_gamma 90.000000
_cell_volume 11176.063604
_symmetry_space_group_name_H-M "I 4/M C M"
_symmetry_group_IT_number 140
_symmetry_cell_setting 'tetragonal'
loop_
_space_group_symop_operation_xyz
x,y,z
-y,x,z
-x,-y,z
y,-x,z
x,-y,1/2-z
-x,y,1/2-z
y,x,1/2-z
-y,-x,1/2-z
-x,-y,-z
y,-x,-z
x,y,-z
-y,x,-z
-x,y,1/2+z
x,-y,1/2+z
-y,-x,1/2+z
y,x,1/2+z
1/2+x,1/2+y,1/2+z
1/2-y,1/2+x,1/2+z
1/2-x,1/2-y,1/2+z
1/2+y,1/2-x,1/2+z
1/2+x,1/2-y,-z
1/2-x,1/2+y,-z
1/2+y,1/2+x,-z
1/2-y,1/2-x,-z
1/2-x,1/2-y,1/2-z
1/2+y,1/2-x,1/2-z
1/2+x,1/2+y,1/2-z
1/2-y,1/2+x,1/2-z
1/2-x,1/2+y,z
1/2+x,1/2-y,z
1/2-y,1/2-x,z
1/2+y,1/2+x,z
loop_
_atom_site_type_symbol
_atom_site_label
_atom_site_fract_x
_atom_site_fract_y
_atom_site_fract_z
Si Si1 0.218476 0.643259 0.609454
Si Si2 0.158548 0.158548 0.250000
Si Si3 0.076677 0.992762 0.636806
Si Si4 0.812085 0.978403 0.895182
Si Si5 0.788080 0.074032 0.797046
Si Si6 0.225235 0.799938 0.607851
O O1 0.213666 0.627391 0.500000
O O2 0.169828 0.669828 0.638363
O O3 0.240510 0.602716 0.675329
O O4 0.258743 0.684822 0.607907
O O5 0.110254 0.166961 0.194128
O O6 0.162464 0.203596 0.320416
O O7 0.130434 0.982083 0.607761
O O8 0.041542 0.949844 0.607424
O O9 0.078147 0.000000 0.750000
O O10 0.792943 0.946555 0.808697
O O11 0.794012 0.031131 0.869871
O O12 0.797517 0.962947 0.000000
O O13 0.230577 0.816424 0.500000
O O14 0.273811 0.773811 0.638804
#
# Coordination Sequence:
#
# PCOD9572073 Si02
#       6
#    32  16  32  32  32  32
#     4   8  14  28  51  73  90 112 145 184 224 269
#     4  10  19  28  46  62  83 110 144 184 230 272
#     4   9  18  34  54  68  84 109 149 208 264 306
#     4  11  23  35  48  64  90 123 155 190 238 301
#     4  10  21  34  46  65  92 116 149 188 239 282
#     4   8  14  25  41  64  90 111 133 166 215 272
#
# _framework density 15.747942
#
# number of rings (size 3 to 8) (size 9 to 14) (size 15 to 20)
#    0.000    2.727    1.818    2.455    2.545    2.909 
#    0.000    0.909    0.000    0.545    0.000    0.000 
#    0.000    0.000    0.000    0.000    0.000    7.273 
#
# Total GULP energy -490121.625693 kJ/mol
# GULP energy per Si atom -5569.563928 kJ/mol
# Density = 1.571210 g / cm^3
# Si number density = 15.747942 Si / 1000 Ang^3
#
#
#
# Elastic Constant Matrix: (Units=GPa)
#
#
# Indices 1 2 3 4 5 6 
#
# 1 52.2340 39.5810 23.1175 0.0000 0.0000 0.0000
# 2 39.5810 52.2340 23.1175 0.0000 0.0000 0.0000
# 3 23.1175 23.1175 84.5028 0.0000 0.0000 0.0000
# 4 0.0000 0.0000 0.0000 -20.9350 0.0000 0.0000
# 5 0.0000 0.0000 0.0000 0.0000 -20.9350 0.0000
# 6 0.0000 0.0000 0.0000 0.0000 0.0000 18.9453
#
#
#
# Elastic Compliance Matrix: (Units=1/GPa)
#
#
# Indices 1 2 3 4 5 6 
#
# 1 0.045832 -0.033201 -0.003456 0.000000 0.000000 0.000000
# 2 -0.033201 0.045832 -0.003456 0.000000 0.000000 0.000000
# 3 -0.003456 -0.003456 0.013725 0.000000 0.000000 0.000000
# 4 0.000000 0.000000 0.000000 -0.047767 0.000000 0.000000
# 5 0.000000 0.000000 0.000000 0.000000 -0.047767 0.000000
# 6 0.000000 0.000000 0.000000 0.000000 0.000000 0.052784
#
#
# Mechanical properties :
#
#
# Convention : Reuss Voigt Hill
#
# Bulk Modulus (GPa) = 39.73722 40.06697 39.90210
# Shear Modulus (GPa) = 33.05758 2.29205 17.67481
#
# Velocity S-wave (km/s) = 4.58664 1.20773 3.35379
# Velocity P-wave (km/s) = 7.30327 5.23858 6.35533
#
# Compressibility (1/GPa) = 0.02516532
#
# Stress axis : x y z
#
# Youngs Moduli (GPa) = 21.81868 21.81868 72.86156
#
# Poissons Ratio (x) = 0.72439 0.25178
# Poissons Ratio (y) = 0.72439 0.25178
# Poissons Ratio (z) = 0.07540 0.07540
#
# Static dielectric constant tensor:
#      x y z
#    x 1.535840 0.000000 0.000000 
#    y 0.000000 1.535840 0.000000 
#    z 0.000000 0.000000 1.589530 
# 
# From -- ./inp_files/5114.got.cif
#   From: 2010.05.17/outbox.cif.g08.bks.cpg/sg140_3_cif.got.tgz:5114.got - 2010.06.21 00:45:31.
