data_PCOD9572650
_publ_section_title
;
Structure prediction by ZEFSAII (Michael W. Deem and Ramdas Pophale) SiO2 
 PCOD9572650
Probable space group: I 4/M C M
;
_chemical_formula_sum "Si O2"
_cell_formula_units_Z 176
_cell_length_a 23.469399
_cell_length_b 23.469399
_cell_length_c 15.619114
_cell_angle_alpha 90.000000
_cell_angle_beta 90.000000
_cell_angle_gamma 90.000000
_cell_volume 8603.206189
_symmetry_space_group_name_H-M "I 4/M C M"
_symmetry_group_IT_number 140
_symmetry_cell_setting 'tetragonal'
loop_
_space_group_symop_operation_xyz
x,y,z
-y,x,z
-x,-y,z
y,-x,z
x,-y,1/2-z
-x,y,1/2-z
y,x,1/2-z
-y,-x,1/2-z
-x,-y,-z
y,-x,-z
x,y,-z
-y,x,-z
-x,y,1/2+z
x,-y,1/2+z
-y,-x,1/2+z
y,x,1/2+z
1/2+x,1/2+y,1/2+z
1/2-y,1/2+x,1/2+z
1/2-x,1/2-y,1/2+z
1/2+y,1/2-x,1/2+z
1/2+x,1/2-y,-z
1/2-x,1/2+y,-z
1/2+y,1/2+x,-z
1/2-y,1/2-x,-z
1/2-x,1/2-y,1/2-z
1/2+y,1/2-x,1/2-z
1/2+x,1/2+y,1/2-z
1/2-y,1/2+x,1/2-z
1/2-x,1/2+y,z
1/2+x,1/2-y,z
1/2-y,1/2-x,z
1/2+y,1/2+x,z
loop_
_atom_site_type_symbol
_atom_site_label
_atom_site_fract_x
_atom_site_fract_y
_atom_site_fract_z
Si Si1 0.177786 0.514685 0.340098
Si Si2 0.779954 0.187201 0.395408
Si Si3 0.284742 0.555482 0.898175
Si Si4 0.498832 0.904717 0.500000
Si Si5 0.591739 0.508743 0.647019
Si Si6 0.774561 0.370914 0.597702
O O1 0.150006 0.500000 0.250000
O O2 0.233623 0.476265 0.351698
O O3 0.134906 0.503632 0.417310
O O4 0.200802 0.578769 0.346441
O O5 0.779670 0.189461 0.500000
O O6 0.725036 0.225036 0.367345
O O7 0.783058 0.121585 0.370292
O O8 0.837877 0.219307 0.368720
O O9 0.344924 0.524366 0.881832
O O10 0.273893 0.554032 0.000000
O O11 0.551159 0.948842 0.500000
O O12 0.441141 0.941141 0.500000
O O13 0.549607 0.560310 0.618755
O O14 0.592645 0.500000 0.750000
O O15 0.764098 0.392491 0.500000
O O16 0.822109 0.322109 0.591662
#
# Coordination Sequence:
#
# PCOD9572650 Si02
#       6
#    32  32  32  16  32  32
#     4  12  25  42  66 100 135 171 218 265 324 391
#     4   8  17  34  58  88 123 166 210 257 323 382
#     4  11  22  37  60  95 128 172 214 278 328 385
#     4  11  26  50  76 100 132 171 212 272 338 395
#     4   9  20  39  59  84 125 176 225 279 340 397
#     4   9  17  36  66  91 120 164 214 268 312 371
#
# _framework density 20.457488999999999
#
# number of rings (size 3 to 8) (size 9 to 14) (size 15 to 20)
#    0.000    2.091    1.818    2.727    2.545    2.909 
#    0.000    1.818    0.000    2.182    0.000    0.000 
#    0.000    0.000    0.000    0.000    0.000    0.000 
#
# Total GULP energy -491485.282646 kJ/mol
# GULP energy per Si atom -5585.060030 kJ/mol
# Density = 2.041093 g / cm^3
# Si number density = 20.457489 Si / 1000 Ang^3
#
#
#
# Elastic Constant Matrix: (Units=GPa)
#
#
# Indices 1 2 3 4 5 6 
#
# 1 114.5407 10.4526 17.2501 0.0000 0.0000 0.0000
# 2 10.4526 114.5254 17.2413 0.0000 0.0000 0.0000
# 3 17.2501 17.2413 65.1794 0.0000 0.0000 0.0000
# 4 0.0000 0.0000 0.0000 -26.9083 0.0000 0.0000
# 5 0.0000 0.0000 0.0000 0.0000 -26.9409 0.0000
# 6 0.0000 0.0000 0.0000 0.0000 0.0000 9.5244
#
#
#
# Elastic Compliance Matrix: (Units=1/GPa)
#
#
# Indices 1 2 3 4 5 6 
#
# 1 0.009119 -0.000488 -0.002284 0.000000 0.000000 0.000000
# 2 -0.000488 0.009120 -0.002283 0.000000 0.000000 0.000000
# 3 -0.002284 -0.002283 0.016551 0.000000 0.000000 0.000000
# 4 0.000000 0.000000 0.000000 -0.037163 0.000000 0.000000
# 5 0.000000 0.000000 0.000000 0.000000 -0.037118 0.000000
# 6 0.000000 0.000000 0.000000 0.000000 0.000000 0.104994
#
#
# Mechanical properties :
#
#
# Convention : Reuss Voigt Hill
#
# Bulk Modulus (GPa) = 40.52155 42.68151 41.60153
# Shear Modulus (GPa) = 59.63753 7.75512 33.69632
#
# Velocity S-wave (km/s) = 5.40511 1.94912 4.06290
# Velocity P-wave (km/s) = 7.66840 5.09649 6.51070
#
# Compressibility (1/GPa) = 0.02467823
#
# Stress axis : x y z
#
# Youngs Moduli (GPa) = 109.65992 109.64927 60.42018
#
# Poissons Ratio (x) = 0.05355 0.13801
# Poissons Ratio (y) = 0.05356 0.13795
# Poissons Ratio (z) = 0.25049 0.25035
#
# Static dielectric constant tensor:
#      x y z
#    x 1.717500 0.000000 0.000000 
#    y 0.000000 1.717500 0.000000 
#    z 0.000000 0.000000 1.760970 
# 
# From -- ./inp_files/4955.got.cif
#   From: 2010.05.17/outbox.cif.g08.bks.cpg/sg140_3_cif.got.tgz:4955.got - 2010.06.21 00:45:31.
