data_PCOD9572735
_publ_section_title
;
Structure prediction by ZEFSAII (Michael W. Deem and Ramdas Pophale) SiO2 
 PCOD9572735
Probable space group: I 41/A M D
;
_chemical_formula_sum "Si O2"
_cell_formula_units_Z 84
_cell_length_a 10.977979
_cell_length_b 10.977979
_cell_length_c 31.528405
_cell_angle_alpha 90.000000
_cell_angle_beta 90.000000
_cell_angle_gamma 90.000000
_cell_volume 3799.677980
_symmetry_space_group_name_H-M "I 41/A M D"
_symmetry_group_IT_number 141
_space_group.IT_coordinate_system_code '2'
_symmetry_cell_setting 'tetragonal'
loop_
_space_group_symop_operation_xyz
x,y,z
1/4-y,3/4+x,1/4+z
-x,1/2-y,z
1/4+y,1/4-x,3/4+z
x,-y,-z
-x,1/2+y,-z
1/4+y,3/4+x,1/4-z
1/4-y,1/4-x,3/4-z
-x,-y,-z
3/4+y,1/4-x,3/4-z
x,1/2+y,-z
3/4-y,3/4+x,1/4-z
-x,y,z
x,1/2-y,z
3/4-y,1/4-x,3/4+z
3/4+y,3/4+x,1/4+z
1/2+x,1/2+y,1/2+z
3/4-y,1/4+x,3/4+z
1/2-x,-y,1/2+z
3/4+y,3/4-x,1/4+z
1/2+x,1/2-y,1/2-z
1/2-x,y,1/2-z
3/4+y,1/4+x,3/4-z
3/4-y,3/4-x,1/4-z
1/2-x,1/2-y,1/2-z
1/4+y,3/4-x,1/4-z
1/2+x,y,1/2-z
1/4-y,1/4+x,3/4-z
1/2-x,1/2+y,1/2+z
1/2+x,-y,1/2+z
1/4-y,3/4-x,1/4+z
1/4+y,1/4+x,3/4+z
loop_
_atom_site_type_symbol
_atom_site_label
_atom_site_fract_x
_atom_site_fract_y
_atom_site_fract_z
Si Si1 0.356986 0.750000 0.075119
Si Si2 0.764487 0.989383 0.573522
Si Si3 0.862380 0.250000 0.282690
Si Si4 0.500000 0.750000 0.375000
Si Si5 0.263413 0.250000 0.830159
O O1 0.500000 0.750000 0.069099
O O2 0.296522 0.626485 0.058785
O O3 0.336844 0.750000 0.125785
O O4 0.628444 0.958540 0.558201
O O5 0.759877 0.990124 0.625000
O O6 0.876115 0.906396 0.559316
O O7 0.750000 0.250000 0.250000
O O8 0.000000 0.250000 0.266320
O O9 0.500000 0.871407 0.403998
#
# Coordination Sequence:
#
# PCOD9572735 Si02
#       5
#    16  32  16   4  16
#     4  10  16  28  56  95 132 164 206 272 345 384
#     4  10  21  37  68  99 134 174 231 289 337 401
#     4  12  30  48  68  94 140 185 236 283 367 429
#     4  12  12  28  52 104 148 164 196 260 356 412
#     4  10  18  32  57 102 138 167 215 279 337 394
#
# _framework density 22.107135
#
# number of rings (size 3 to 8) (size 9 to 14) (size 15 to 20)
#    0.000    1.524    7.619    0.000    5.333    1.524 
#    0.000    0.952    0.000    0.000    0.000    0.000 
#    0.000    0.000    0.000    0.000    0.000    0.000 
#
# Total GULP energy -234600.080481 kJ/mol
# GULP energy per Si atom -5585.716202 kJ/mol
# Density = 2.205682 g / cm^3
# Si number density = 22.107135 Si / 1000 Ang^3
#
#
#
# Elastic Constant Matrix: (Units=GPa)
#
#
# Indices 1 2 3 4 5 6 
#
# 1 181.0104 46.4703 28.4830 0.0001 0.0000 0.0000
# 2 46.4703 181.0106 28.4829 -0.0009 0.0001 0.0000
# 3 28.4830 28.4829 27.3929 -0.0003 0.0000 0.0000
# 4 0.0001 -0.0009 -0.0003 362.5109 0.0080 -0.0001
# 5 0.0000 0.0001 0.0000 0.0080 361.5764 0.0000
# 6 0.0000 0.0000 0.0000 -0.0001 0.0000 20.4315
#
#
#
# Elastic Compliance Matrix: (Units=1/GPa)
#
#
# Indices 1 2 3 4 5 6 
#
# 1 0.006688 -0.000745 -0.006180 0.000000 0.000000 0.000000
# 2 -0.000745 0.006688 -0.006180 0.000000 0.000000 0.000000
# 3 -0.006180 -0.006180 0.049358 0.000000 0.000000 0.000000
# 4 0.000000 0.000000 0.000000 0.002759 0.000000 0.000000
# 5 0.000000 0.000000 0.000000 0.000000 0.002766 0.000000
# 6 0.000000 0.000000 0.000000 0.000000 0.000000 0.048944
#
#
# Mechanical properties :
#
#
# Convention : Reuss Voigt Hill
#
# Bulk Modulus (GPa) = 27.37880 66.25404 46.81642
# Shear Modulus (GPa) = 32.13640 167.96895 100.05267
#
# Velocity S-wave (km/s) = 3.81683 8.72608 6.73471
# Velocity P-wave (km/s) = 5.64232 11.46998 9.03870
#
# Compressibility (1/GPa) = 0.03652461
#
# Stress axis : x y z
#
# Youngs Moduli (GPa) = 149.51763 149.51806 20.26019
#
# Poissons Ratio (x) = 0.11133 0.12521
# Poissons Ratio (y) = 0.11132 0.12521
# Poissons Ratio (z) = 0.92404 0.92404
#
# Static dielectric constant tensor:
#      x y z
#    x 1.840240 0.000000 0.000000 
#    y 0.000000 1.840240 0.000000 
#    z 0.000000 0.000000 1.832980 
# 
# From -- ./inp_files/13761.got.cif
#   From: 2010.05.17/outbox.cif.g08.bks.cpg/sg141_7_cif.got.tgz:13761.got - 2010.05.20 13:30:51.
