data_PCOD9572249
_publ_section_title
;
Structure prediction by ZEFSAII (Michael W. Deem and Ramdas Pophale) SiO2 
 PCOD9572249
Probable space group: I 4/M C M
;
_chemical_formula_sum "Si O2"
_cell_formula_units_Z 160
_cell_length_a 32.338442
_cell_length_b 32.338442
_cell_length_c 9.023721
_cell_angle_alpha 90.000000
_cell_angle_beta 90.000000
_cell_angle_gamma 90.000000
_cell_volume 9436.780304
_symmetry_space_group_name_H-M "I 4/M C M"
_symmetry_group_IT_number 140
_symmetry_cell_setting 'tetragonal'
loop_
_space_group_symop_operation_xyz
x,y,z
-y,x,z
-x,-y,z
y,-x,z
x,-y,1/2-z
-x,y,1/2-z
y,x,1/2-z
-y,-x,1/2-z
-x,-y,-z
y,-x,-z
x,y,-z
-y,x,-z
-x,y,1/2+z
x,-y,1/2+z
-y,-x,1/2+z
y,x,1/2+z
1/2+x,1/2+y,1/2+z
1/2-y,1/2+x,1/2+z
1/2-x,1/2-y,1/2+z
1/2+y,1/2-x,1/2+z
1/2+x,1/2-y,-z
1/2-x,1/2+y,-z
1/2+y,1/2+x,-z
1/2-y,1/2-x,-z
1/2-x,1/2-y,1/2-z
1/2+y,1/2-x,1/2-z
1/2+x,1/2+y,1/2-z
1/2-y,1/2+x,1/2-z
1/2-x,1/2+y,z
1/2+x,1/2-y,z
1/2-y,1/2-x,z
1/2+y,1/2+x,z
loop_
_atom_site_type_symbol
_atom_site_label
_atom_site_fract_x
_atom_site_fract_y
_atom_site_fract_z
Si Si1 0.544423 0.166091 0.823140
Si Si2 0.675432 0.175432 0.329654
Si Si3 0.113962 0.264665 0.823234
Si Si4 0.395533 0.895533 0.670456
Si Si5 0.113415 0.175890 0.676149
Si Si6 0.606782 0.455614 0.823874
O O1 0.500000 0.172781 0.750000
O O2 0.575297 0.204628 0.792944
O O3 0.566265 0.125562 0.754289
O O4 0.540816 0.161849 0.000000
O O5 0.685474 0.185474 0.500000
O O6 0.713559 0.154502 0.245360
O O7 0.639953 0.139953 0.330808
O O8 0.107659 0.220378 0.749295
O O9 0.118129 0.261035 0.000000
O O10 0.405533 0.905533 0.500000
O O11 0.151670 0.151670 0.750000
O O12 0.119840 0.179669 0.500000
O O13 0.073385 0.146839 0.700724
O O14 0.612137 0.500000 0.750000
O O15 0.568567 0.431434 0.750000
O O16 0.600389 0.459426 0.000000
#
# Coordination Sequence:
#
# PCOD9572249 Si02
#       6
#    32  16  32  16  32  32
#     4  10  20  33  51  77 107 138 174 215 258 305
#     4   9  17  31  52  76 102 134 173 214 258 307
#     4  10  20  34  53  77 106 138 173 215 260 306
#     4   9  17  31  51  73 101 137 173 212 259 309
#     4  10  21  37  56  77 104 139 175 211 256 310
#     4  10  21  37  57  80 106 136 172 213 257 307
#
# _framework density 16.954934000000002
#
# number of rings (size 3 to 8) (size 9 to 14) (size 15 to 20)
#    0.000    2.200    0.000    3.000    0.000    8.200 
#    0.000    5.500    0.000    0.300    0.000    2.100 
#    0.000    0.000    0.000    0.000    0.000    0.000 
#
# Total GULP energy -446485.902303 kJ/mol
# GULP energy per Si atom -5581.073779 kJ/mol
# Density = 1.691634 g / cm^3
# Si number density = 16.954934 Si / 1000 Ang^3
#
#
#
# Elastic Constant Matrix: (Units=GPa)
#
#
# Indices 1 2 3 4 5 6 
#
# 1 55.7518 121.8284 84.7502 0.0000 0.0000 0.0000
# 2 121.8284 55.7101 84.7312 0.0000 0.0000 0.0000
# 3 84.7502 84.7312 129.3740 0.0000 0.0000 0.0000
# 4 0.0000 0.0000 0.0000 33.6146 0.0000 0.0000
# 5 0.0000 0.0000 0.0000 0.0000 33.6146 0.0000
# 6 0.0000 0.0000 0.0000 0.0000 0.0000 8.0826
#
#
#
# Elastic Compliance Matrix: (Units=1/GPa)
#
#
# Indices 1 2 3 4 5 6 
#
# 1 -0.000049 0.015078 -0.009843 0.000000 0.000000 0.000000
# 2 0.015078 -0.000053 -0.009842 0.000000 0.000000 0.000000
# 3 -0.009843 -0.009842 0.020623 0.000000 0.000000 0.000000
# 4 0.000000 0.000000 0.000000 0.029749 0.000000 0.000000
# 5 0.000000 0.000000 0.000000 0.000000 0.029749 0.000000
# 6 0.000000 0.000000 0.000000 0.000000 0.000000 0.123723
#
#
# Mechanical properties :
#
#
# Convention : Reuss Voigt Hill
#
# Bulk Modulus (GPa) = 88.44450 91.49506 89.96978
# Shear Modulus (GPa) = 23.07071 11.69742 17.38406
#
# Velocity S-wave (km/s) = 3.69278 2.62947 3.20552
# Velocity P-wave (km/s) = 8.39404 7.95611 8.17800
#
# Compressibility (1/GPa) = 0.01130653
#
# Stress axis : x y z
#
# Youngs Moduli (GPa) = -20276.97645 -18827.07946 48.48850
#
# Poissons Ratio (x) = 283.87391 0.47726
# Poissons Ratio (y) = 305.73539 0.47725
# Poissons Ratio (z) = -199.58082 -185.30500
#
# Static dielectric constant tensor:
#      x y z
#    x 1.549920 0.000000 0.000000 
#    y 0.000000 1.549920 0.000000 
#    z 0.000000 0.000000 1.563890 
# 
# From -- ./inp_files/1860.got.cif
#   From: 2010.05.17/outbox.cif.g08.bks.cpg/sg140_1_cif.got.tgz:1860.got - 2010.06.21 00:45:31.
