data_PCOD9572565
_publ_section_title
;
Structure prediction by ZEFSAII (Michael W. Deem and Ramdas Pophale) SiO2 
 PCOD9572565
Probable space group: I 4/M C M
;
_chemical_formula_sum "Si O2"
_cell_formula_units_Z 68
_cell_length_a 11.861285
_cell_length_b 11.861285
_cell_length_c 27.660197
_cell_angle_alpha 90.000000
_cell_angle_beta 90.000000
_cell_angle_gamma 90.000000
_cell_volume 3891.515380
_symmetry_space_group_name_H-M "I 4/M C M"
_symmetry_group_IT_number 140
_symmetry_cell_setting 'tetragonal'
loop_
_space_group_symop_operation_xyz
x,y,z
-y,x,z
-x,-y,z
y,-x,z
x,-y,1/2-z
-x,y,1/2-z
y,x,1/2-z
-y,-x,1/2-z
-x,-y,-z
y,-x,-z
x,y,-z
-y,x,-z
-x,y,1/2+z
x,-y,1/2+z
-y,-x,1/2+z
y,x,1/2+z
1/2+x,1/2+y,1/2+z
1/2-y,1/2+x,1/2+z
1/2-x,1/2-y,1/2+z
1/2+y,1/2-x,1/2+z
1/2+x,1/2-y,-z
1/2-x,1/2+y,-z
1/2+y,1/2+x,-z
1/2-y,1/2-x,-z
1/2-x,1/2-y,1/2-z
1/2+y,1/2-x,1/2-z
1/2+x,1/2+y,1/2-z
1/2-y,1/2+x,1/2-z
1/2-x,1/2+y,z
1/2+x,1/2-y,z
1/2-y,1/2-x,z
1/2+y,1/2+x,z
loop_
_atom_site_type_symbol
_atom_site_label
_atom_site_fract_x
_atom_site_fract_y
_atom_site_fract_z
Si Si1 0.410438 0.089563 0.655539
Si Si2 0.000000 0.500000 0.750000
Si Si3 0.002904 0.311958 0.500000
Si Si4 0.525352 0.686153 0.601340
O O1 0.425959 0.074042 0.713062
O O2 0.447448 0.211166 0.636959
O O3 0.500000 0.000000 0.633589
O O4 0.124750 0.375251 0.500000
O O5 0.910350 0.410350 0.500000
O O6 0.981888 0.237576 0.452512
O O7 0.406962 0.622428 0.608064
#
# Coordination Sequence:
#
# PCOD9572565 Si02
#       4
#    16   4  16  32
#     4  10  22  42  68  89 116 159 208 254 319 377
#     4   8  24  44  68  98 108 156 212 256 328 382
#     4  11  22  35  58  93 129 172 212 245 291 359
#     4  11  24  39  61  95 131 168 208 253 303 364
#
# _framework density 17.473913
#
# number of rings (size 3 to 8) (size 9 to 14) (size 15 to 20)
#    0.706    0.706    2.353    2.824    6.588    3.765 
#    0.000    4.706    0.000    2.824    0.000    0.000 
#    0.000    0.000    0.000    0.000    0.000    0.000 
#
# Total GULP energy -189678.574445 kJ/mol
# GULP energy per Si atom -5578.781601 kJ/mol
# Density = 1.743414 g / cm^3
# Si number density = 17.473913 Si / 1000 Ang^3
#
#
#
# Elastic Constant Matrix: (Units=GPa)
#
#
# Indices 1 2 3 4 5 6 
#
# 1 146.7908 87.7131 70.9378 0.0000 0.0000 0.0000
# 2 87.7131 146.7909 70.9378 0.0000 0.0000 0.0000
# 3 70.9378 70.9378 147.4890 0.0000 0.0000 0.0000
# 4 0.0000 0.0000 0.0000 -6.4869 0.0000 0.0000
# 5 0.0000 0.0000 0.0000 0.0000 -6.4859 0.0000
# 6 0.0000 0.0000 0.0000 0.0000 0.0000 16.0851
#
#
#
# Elastic Compliance Matrix: (Units=1/GPa)
#
#
# Indices 1 2 3 4 5 6 
#
# 1 0.011471 -0.005456 -0.002893 0.000000 0.000000 0.000000
# 2 -0.005456 0.011471 -0.002893 0.000000 0.000000 0.000000
# 3 -0.002893 -0.002893 0.009563 0.000000 0.000000 0.000000
# 4 0.000000 0.000000 0.000000 -0.154157 0.000000 0.000000
# 5 0.000000 0.000000 0.000000 0.000000 -0.154180 0.000000
# 6 0.000000 0.000000 0.000000 0.000000 0.000000 0.062170
#
#
# Mechanical properties :
#
#
# Convention : Reuss Voigt Hill
#
# Bulk Modulus (GPa) = 99.79381 100.02756 99.91068
# Shear Modulus (GPa) = -26.61832 14.72125 -5.94854
#
# Velocity S-wave (km/s) = -3.90720 2.90568 -1.84706
# Velocity P-wave (km/s) = 6.07282 8.28405 7.26308
#
# Compressibility (1/GPa) = 0.01002066
#
# Stress axis : x y z
#
# Youngs Moduli (GPa) = 87.17894 87.17905 104.57140
#
# Poissons Ratio (x) = 0.47567 0.30250
# Poissons Ratio (y) = 0.47567 0.30250
# Poissons Ratio (z) = 0.25219 0.25219
#
# Static dielectric constant tensor:
#      x y z
#    x 1.478400 0.000000 0.000000 
#    y 0.000000 1.478390 0.000000 
#    z 0.000000 0.000000 1.571570 
# 
# From -- ./inp_files/10154.got.cif
#   From: 2010.05.17/outbox.cif.g08.bks.cpg/sg140_6_cif.got.tgz:10154.got - 2010.06.21 00:45:31.
