data_PCOD9572447
_publ_section_title
;
Structure prediction by ZEFSAII (Michael W. Deem and Ramdas Pophale) SiO2 
 PCOD9572447
Probable space group: I 4/M C M
;
_chemical_formula_sum "Si O2"
_cell_formula_units_Z 144
_cell_length_a 20.980983
_cell_length_b 20.980983
_cell_length_c 19.826267
_cell_angle_alpha 90.000000
_cell_angle_beta 90.000000
_cell_angle_gamma 90.000000
_cell_volume 8727.555400
_symmetry_space_group_name_H-M "I 4/M C M"
_symmetry_group_IT_number 140
_symmetry_cell_setting 'tetragonal'
loop_
_space_group_symop_operation_xyz
x,y,z
-y,x,z
-x,-y,z
y,-x,z
x,-y,1/2-z
-x,y,1/2-z
y,x,1/2-z
-y,-x,1/2-z
-x,-y,-z
y,-x,-z
x,y,-z
-y,x,-z
-x,y,1/2+z
x,-y,1/2+z
-y,-x,1/2+z
y,x,1/2+z
1/2+x,1/2+y,1/2+z
1/2-y,1/2+x,1/2+z
1/2-x,1/2-y,1/2+z
1/2+y,1/2-x,1/2+z
1/2+x,1/2-y,-z
1/2-x,1/2+y,-z
1/2+y,1/2+x,-z
1/2-y,1/2-x,-z
1/2-x,1/2-y,1/2-z
1/2+y,1/2-x,1/2-z
1/2+x,1/2+y,1/2-z
1/2-y,1/2+x,1/2-z
1/2-x,1/2+y,z
1/2+x,1/2-y,z
1/2-y,1/2-x,z
1/2+y,1/2+x,z
loop_
_atom_site_type_symbol
_atom_site_label
_atom_site_fract_x
_atom_site_fract_y
_atom_site_fract_z
Si Si1 0.997488 0.605934 0.500000
Si Si2 0.336165 0.567768 0.213730
Si Si3 0.977007 0.371966 0.649951
Si Si4 0.090632 0.312128 0.266362
Si Si5 0.043350 0.901498 0.924730
O O1 0.049499 0.549499 0.500000
O O2 0.009521 0.640294 0.571214
O O3 0.928806 0.571195 0.500000
O O4 0.349432 0.500000 0.250000
O O5 0.378161 0.621840 0.250000
O O6 0.261131 0.581040 0.217866
O O7 0.356964 0.562658 0.136246
O O8 0.941841 0.441841 0.656068
O O9 0.928673 0.324885 0.688447
O O10 0.041980 0.356999 0.690491
O O11 0.160605 0.339396 0.278378
O O12 0.968701 0.919555 0.919081
O O13 0.054635 0.875604 0.000000
#
# Coordination Sequence:
#
# PCOD9572447 Si02
#       5
#    16  32  32  32  32
#     4   9  16  26  46  80 110 138 175 220 280 322
#     4  12  22  36  59  83 110 140 182 225 270 322
#     4   9  17  32  54  77 107 138 177 227 267 310
#     4  10  21  37  53  78 111 145 186 219 262 321
#     4   9  18  33  55  85 113 135 166 221 287 333
#
# _framework density 16.499465000000001
#
# number of rings (size 3 to 8) (size 9 to 14) (size 15 to 20)
#    0.000    2.111    4.444    1.333    0.000    2.889 
#    2.000    4.444    2.444    0.000    0.000    0.000 
#    0.000    0.000    0.000    0.000    0.000    0.000 
#
# Total GULP energy -400807.242974 kJ/mol
# GULP energy per Si atom -5566.767264 kJ/mol
# Density = 1.646191 g / cm^3
# Si number density = 16.499465 Si / 1000 Ang^3
#
#
#
# Elastic Constant Matrix: (Units=GPa)
#
#
# Indices 1 2 3 4 5 6 
#
# 1 83.3046 48.1650 55.9251 0.0000 0.0000 0.0000
# 2 48.1650 83.2998 55.9250 0.0000 0.0000 0.0000
# 3 55.9251 55.9250 178.3676 0.0000 0.0000 0.0000
# 4 0.0000 0.0000 0.0000 16.5069 0.0000 0.0000
# 5 0.0000 0.0000 0.0000 0.0000 16.5068 0.0000
# 6 0.0000 0.0000 0.0000 0.0000 0.0000 17.7874
#
#
#
# Elastic Compliance Matrix: (Units=1/GPa)
#
#
# Indices 1 2 3 4 5 6 
#
# 1 0.019416 -0.009043 -0.003252 0.000000 0.000000 0.000000
# 2 -0.009043 0.019417 -0.003253 0.000000 0.000000 0.000000
# 3 -0.003252 -0.003253 0.007646 0.000000 0.000000 0.000000
# 4 0.000000 0.000000 0.000000 0.060581 0.000000 0.000000
# 5 0.000000 0.000000 0.000000 0.000000 0.060581 0.000000
# 6 0.000000 0.000000 0.000000 0.000000 0.000000 0.056220
#
#
# Mechanical properties :
#
#
# Convention : Reuss Voigt Hill
#
# Bulk Modulus (GPa) = 65.00616 73.88913 69.44765
# Shear Modulus (GPa) = 19.22446 22.49066 20.85756
#
# Velocity S-wave (km/s) = 3.41714 3.69604 3.55933
# Velocity P-wave (km/s) = 7.41981 7.94319 7.68596
#
# Compressibility (1/GPa) = 0.01538316
#
# Stress axis : x y z
#
# Youngs Moduli (GPa) = 51.50375 51.50005 130.78752
#
# Poissons Ratio (x) = 0.46572 0.42536
# Poissons Ratio (y) = 0.46575 0.42542
# Poissons Ratio (z) = 0.16751 0.16752
#
# Static dielectric constant tensor:
#      x y z
#    x 1.554350 0.000000 0.000000 
#    y 0.000000 1.554350 0.000000 
#    z 0.000000 0.000000 1.572930 
# 
# From -- ./inp_files/6688.got.cif
#   From: 2010.05.17/outbox.cif.g08.bks.cpg/sg140_4_cif.got.tgz:6688.got - 2010.06.21 00:45:31.
