data_PCOD9572235
_publ_section_title
;
Structure prediction by ZEFSAII (Michael W. Deem and Ramdas Pophale) SiO2 
 PCOD9572235
Probable space group: I 4/M C M
;
_chemical_formula_sum "Si O2"
_cell_formula_units_Z 160
_cell_length_a 32.497277
_cell_length_b 32.497277
_cell_length_c 8.697540
_cell_angle_alpha 90.000000
_cell_angle_beta 90.000000
_cell_angle_gamma 90.000000
_cell_volume 9185.237268
_symmetry_space_group_name_H-M "I 4/M C M"
_symmetry_group_IT_number 140
_symmetry_cell_setting 'tetragonal'
loop_
_space_group_symop_operation_xyz
x,y,z
-y,x,z
-x,-y,z
y,-x,z
x,-y,1/2-z
-x,y,1/2-z
y,x,1/2-z
-y,-x,1/2-z
-x,-y,-z
y,-x,-z
x,y,-z
-y,x,-z
-x,y,1/2+z
x,-y,1/2+z
-y,-x,1/2+z
y,x,1/2+z
1/2+x,1/2+y,1/2+z
1/2-y,1/2+x,1/2+z
1/2-x,1/2-y,1/2+z
1/2+y,1/2-x,1/2+z
1/2+x,1/2-y,-z
1/2-x,1/2+y,-z
1/2+y,1/2+x,-z
1/2-y,1/2-x,-z
1/2-x,1/2-y,1/2-z
1/2+y,1/2-x,1/2-z
1/2+x,1/2+y,1/2-z
1/2-y,1/2+x,1/2-z
1/2-x,1/2+y,z
1/2+x,1/2-y,z
1/2-y,1/2-x,z
1/2+y,1/2+x,z
loop_
_atom_site_type_symbol
_atom_site_label
_atom_site_fract_x
_atom_site_fract_y
_atom_site_fract_z
Si Si1 0.739286 0.321623 0.677515
Si Si2 0.175106 0.324895 0.677273
Si Si3 0.330198 0.391787 0.176237
Si Si4 0.385905 0.885905 0.178601
Si Si5 0.826909 0.453832 0.184803
Si Si6 0.766065 0.045919 0.316050
O O1 0.718240 0.281761 0.750000
O O2 0.751652 0.315723 0.500000
O O3 0.777451 0.332971 0.783999
O O4 0.704346 0.356126 0.677847
O O5 0.165289 0.334712 0.500000
O O6 0.148589 0.351412 0.793457
O O7 0.370791 0.370791 0.250000
O O8 0.305354 0.428239 0.259287
O O9 0.338949 0.403135 0.000000
O O10 0.425676 0.864138 0.254112
O O11 0.393675 0.893675 0.000000
O O12 0.830624 0.500000 0.250000
O O13 0.780345 0.438615 0.230252
O O14 0.828304 0.454412 0.000000
O O15 0.766504 0.045152 0.500000
O O16 0.768902 0.000000 0.250000
#
# Coordination Sequence:
#
# PCOD9572235 Si02
#       6
#    32  16  32  16  32  32
#     4  10  20  33  47  64  90 127 168 209 252 300
#     4  12  23  33  46  66  94 127 166 211 254 299
#     4  10  20  33  50  71  98 132 171 213 258 306
#     4  12  24  37  55  79 105 134 169 211 260 313
#     4  10  21  38  59  83 110 140 174 215 263 316
#     4  10  20  34  54  78 106 139 176 217 263 313
#
# _framework density 17.419256000000001
#
# number of rings (size 3 to 8) (size 9 to 14) (size 15 to 20)
#    0.000    1.600    0.000    5.700    0.000    8.000 
#    0.000    0.000    0.000    0.300    0.000    2.100 
#    0.000    0.400    0.000    4.000    0.000    2.400 
#
# Total GULP energy -446306.185018 kJ/mol
# GULP energy per Si atom -5578.827313 kJ/mol
# Density = 1.737961 g / cm^3
# Si number density = 17.419256 Si / 1000 Ang^3
#
#
#
# Elastic Constant Matrix: (Units=GPa)
#
#
# Indices 1 2 3 4 5 6 
#
# 1 83.0471 44.2817 32.9267 0.0000 0.0000 0.0000
# 2 44.2817 83.0450 32.9422 0.0000 0.0000 0.0000
# 3 32.9267 32.9422 96.8238 0.0000 0.0000 0.0000
# 4 0.0000 0.0000 0.0000 31.7958 0.0000 0.0000
# 5 0.0000 0.0000 0.0000 0.0000 31.7967 0.0000
# 6 0.0000 0.0000 0.0000 0.0000 0.0000 27.1938
#
#
#
# Elastic Compliance Matrix: (Units=1/GPa)
#
#
# Indices 1 2 3 4 5 6 
#
# 1 0.017662 -0.008133 -0.003239 0.000000 0.000000 0.000000
# 2 -0.008133 0.017665 -0.003244 0.000000 0.000000 0.000000
# 3 -0.003239 -0.003244 0.012533 0.000000 0.000000 0.000000
# 4 0.000000 0.000000 0.000000 0.031451 0.000000 0.000000
# 5 0.000000 0.000000 0.000000 0.000000 0.031450 0.000000
# 6 0.000000 0.000000 0.000000 0.000000 0.000000 0.036773
#
#
# Mechanical properties :
#
#
# Convention : Reuss Voigt Hill
#
# Bulk Modulus (GPa) = 53.68386 53.69080 53.68733
# Shear Modulus (GPa) = 27.32575 28.34163 27.83369
#
# Velocity S-wave (km/s) = 3.96499 4.03802 4.00167
# Velocity P-wave (km/s) = 7.20050 7.25468 7.22764
#
# Compressibility (1/GPa) = 0.01862757
#
# Stress axis : x y z
#
# Youngs Moduli (GPa) = 56.61771 56.60779 79.78623
#
# Poissons Ratio (x) = 0.46039 0.25845
# Poissons Ratio (y) = 0.46047 0.25887
# Poissons Ratio (z) = 0.18340 0.18366
#
# Static dielectric constant tensor:
#      x y z
#    x 1.601060 0.000000 0.000000 
#    y 0.000000 1.601050 0.000000 
#    z 0.000000 0.000000 1.600980 
# 
# From -- ./inp_files/1794.got.cif
#   From: 2010.05.17/outbox.cif.g08.bks.cpg/sg140_1_cif.got.tgz:1794.got - 2010.06.21 00:45:31.
