data_PCOD9572609
_publ_section_title
;
Structure prediction by ZEFSAII (Michael W. Deem and Ramdas Pophale) SiO2 
 PCOD9572609
Probable space group: I 4/M C M
;
_chemical_formula_sum "Si O2"
_cell_formula_units_Z 128
_cell_length_a 15.358334
_cell_length_b 15.358334
_cell_length_c 29.468271
_cell_angle_alpha 90.000000
_cell_angle_beta 90.000000
_cell_angle_gamma 90.000000
_cell_volume 6950.929300
_symmetry_space_group_name_H-M "I 4/M C M"
_symmetry_group_IT_number 140
_symmetry_cell_setting 'tetragonal'
loop_
_space_group_symop_operation_xyz
x,y,z
-y,x,z
-x,-y,z
y,-x,z
x,-y,1/2-z
-x,y,1/2-z
y,x,1/2-z
-y,-x,1/2-z
-x,-y,-z
y,-x,-z
x,y,-z
-y,x,-z
-x,y,1/2+z
x,-y,1/2+z
-y,-x,1/2+z
y,x,1/2+z
1/2+x,1/2+y,1/2+z
1/2-y,1/2+x,1/2+z
1/2-x,1/2-y,1/2+z
1/2+y,1/2-x,1/2+z
1/2+x,1/2-y,-z
1/2-x,1/2+y,-z
1/2+y,1/2+x,-z
1/2-y,1/2-x,-z
1/2-x,1/2-y,1/2-z
1/2+y,1/2-x,1/2-z
1/2+x,1/2+y,1/2-z
1/2-y,1/2+x,1/2-z
1/2-x,1/2+y,z
1/2+x,1/2-y,z
1/2-y,1/2-x,z
1/2+y,1/2+x,z
loop_
_atom_site_type_symbol
_atom_site_label
_atom_site_fract_x
_atom_site_fract_y
_atom_site_fract_z
Si Si1 0.315878 0.667868 0.049493
Si Si2 0.977328 0.331643 0.949489
Si Si3 0.854457 0.010267 0.197056
Si Si4 0.903995 0.736074 0.873769
O O1 0.250988 0.750988 0.048486
O O2 0.253229 0.584912 0.053126
O O3 0.373977 0.684348 0.093373
O O4 0.360885 0.663654 0.000000
O O5 0.914734 0.414734 0.945922
O O6 0.042767 0.323851 0.908533
O O7 0.017382 0.333239 0.000000
O O8 0.773487 0.034160 0.165359
O O9 0.922654 0.089698 0.189033
O O10 0.829644 0.000000 0.250000
O O11 0.819972 0.680029 0.857575
#
# Coordination Sequence:
#
# PCOD9572609 Si02
#       4
#    32  32  32  32
#     4   8  15  28  45  67  97 132 167 202 239 281
#     4   9  18  32  48  68 100 141 177 205 239 292
#     4   9  19  38  60  77  96 126 166 210 255 302
#     4  11  20  30  49  77 104 129 163 208 255 300
#
# _framework density 18.414802999999999
#
# number of rings (size 3 to 8) (size 9 to 14) (size 15 to 20)
#    0.000    2.750    0.000    4.500    0.000    2.000 
#    0.000    5.000    0.000    0.000    0.000   10.500 
#    0.000    0.000    0.000    0.000    0.000    0.000 
#
# Total GULP energy -356569.860803 kJ/mol
# GULP energy per Si atom -5571.404075 kJ/mol
# Density = 1.837289 g / cm^3
# Si number density = 18.414803 Si / 1000 Ang^3
#
#
#
# Elastic Constant Matrix: (Units=GPa)
#
#
# Indices 1 2 3 4 5 6 
#
# 1 54.5536 24.1026 50.0174 0.0000 0.0000 0.0000
# 2 24.1026 54.5536 50.0174 0.0000 0.0000 0.0000
# 3 50.0174 50.0174 123.1599 0.0000 0.0000 0.0000
# 4 0.0000 0.0000 0.0000 16.3408 0.0000 0.0000
# 5 0.0000 0.0000 0.0000 0.0000 16.3408 0.0000
# 6 0.0000 0.0000 0.0000 0.0000 0.0000 21.7674
#
#
#
# Elastic Compliance Matrix: (Units=1/GPa)
#
#
# Indices 1 2 3 4 5 6 
#
# 1 0.029567 -0.003272 -0.010679 0.000000 0.000000 0.000000
# 2 -0.003272 0.029567 -0.010679 0.000000 0.000000 0.000000
# 3 -0.010679 -0.010679 0.016793 0.000000 0.000000 0.000000
# 4 0.000000 0.000000 0.000000 0.061197 0.000000 0.000000
# 5 0.000000 0.000000 0.000000 0.000000 0.061197 0.000000
# 6 0.000000 0.000000 0.000000 0.000000 0.000000 0.045940
#
#
# Mechanical properties :
#
#
# Convention : Reuss Voigt Hill
#
# Bulk Modulus (GPa) = 37.49857 53.39358 45.44608
# Shear Modulus (GPa) = 16.53381 18.09843 17.31612
#
# Velocity S-wave (km/s) = 2.99967 3.13840 3.06982
# Velocity P-wave (km/s) = 5.69253 6.49543 6.10719
#
# Compressibility (1/GPa) = 0.02666768
#
# Stress axis : x y z
#
# Youngs Moduli (GPa) = 33.82121 33.82121 59.54782
#
# Poissons Ratio (x) = 0.11068 0.63590
# Poissons Ratio (y) = 0.11068 0.63590
# Poissons Ratio (z) = 0.36117 0.36117
#
# Static dielectric constant tensor:
#      x y z
#    x 1.648360 0.000000 0.000000 
#    y 0.000000 1.648360 0.000000 
#    z 0.000000 0.000000 1.651130 
# 
# From -- ./inp_files/9300.got.cif
#   From: 2010.05.17/outbox.cif.g08.bks.cpg/sg140_5_cif.got.tgz:9300.got - 2010.06.21 00:45:31.
