data_PCOD9572036
_publ_section_title
;
Structure prediction by ZEFSAII (Michael W. Deem and Ramdas Pophale) SiO2 
 PCOD9572036
Probable space group: I 4/M C M
;
_chemical_formula_sum "Si O2"
_cell_formula_units_Z 160
_cell_length_a 32.812359
_cell_length_b 32.812359
_cell_length_c 8.580017
_cell_angle_alpha 90.000000
_cell_angle_beta 90.000000
_cell_angle_gamma 90.000000
_cell_volume 9237.683052
_symmetry_space_group_name_H-M "I 4/M C M"
_symmetry_group_IT_number 140
_symmetry_cell_setting 'tetragonal'
loop_
_space_group_symop_operation_xyz
x,y,z
-y,x,z
-x,-y,z
y,-x,z
x,-y,1/2-z
-x,y,1/2-z
y,x,1/2-z
-y,-x,1/2-z
-x,-y,-z
y,-x,-z
x,y,-z
-y,x,-z
-x,y,1/2+z
x,-y,1/2+z
-y,-x,1/2+z
y,x,1/2+z
1/2+x,1/2+y,1/2+z
1/2-y,1/2+x,1/2+z
1/2-x,1/2-y,1/2+z
1/2+y,1/2-x,1/2+z
1/2+x,1/2-y,-z
1/2-x,1/2+y,-z
1/2+y,1/2+x,-z
1/2-y,1/2-x,-z
1/2-x,1/2-y,1/2-z
1/2+y,1/2-x,1/2-z
1/2+x,1/2+y,1/2-z
1/2-y,1/2+x,1/2-z
1/2-x,1/2+y,z
1/2+x,1/2-y,z
1/2-y,1/2-x,z
1/2+y,1/2+x,z
loop_
_atom_site_type_symbol
_atom_site_label
_atom_site_fract_x
_atom_site_fract_y
_atom_site_fract_z
Si Si1 0.833115 0.454618 0.313467
Si Si2 0.607327 0.892674 0.186718
Si Si3 0.611764 0.674409 0.187749
Si Si4 0.827276 0.672725 0.814188
Si Si5 0.731917 0.889189 0.812569
Si Si6 0.045360 0.891863 0.813200
O O1 0.826904 0.500000 0.250000
O O2 0.834507 0.454158 0.500000
O O3 0.875164 0.435594 0.245644
O O4 0.796536 0.424916 0.256841
O O5 0.639265 0.860736 0.261465
O O6 0.609319 0.890682 0.000000
O O7 0.652074 0.652074 0.250000
O O8 0.606983 0.721153 0.236565
O O9 0.573611 0.646306 0.237128
O O10 0.613275 0.673868 0.000000
O O11 0.845922 0.713903 0.744534
O O12 0.825255 0.674745 0.000000
O O13 0.728935 0.891252 0.000000
O O14 0.068093 0.931908 0.750000
O O15 0.000000 0.888361 0.750000
O O16 0.044777 0.893088 0.000000
#
# Coordination Sequence:
#
# PCOD9572036 Si02
#       6
#    32  16  32  16  32  32
#     4  11  21  34  52  78 107 138 174 215 258 306
#     4  10  18  32  52  74 102 138 172 211 259 309
#     4   9  20  36  55  76 103 136 172 208 254 308
#     4  10  18  30  49  75 101 133 173 213 256 305
#     4  10  19  34  53  76 104 136 171 214 260 306
#     4  10  20  36  55  78 103 132 166 206 250 300
#
# _framework density 17.320360999999998
#
# number of rings (size 3 to 8) (size 9 to 14) (size 15 to 20)
#    0.000    2.000    0.000    7.200    0.000    3.400 
#    0.000    3.500    0.000    0.300    0.000    2.100 
#    0.000    0.000    0.000    0.000    0.000    0.000 
#
# Total GULP energy -446312.272994 kJ/mol
# GULP energy per Si atom -5578.903412 kJ/mol
# Density = 1.728094 g / cm^3
# Si number density = 17.320361 Si / 1000 Ang^3
#
#
#
# Elastic Constant Matrix: (Units=GPa)
#
#
# Indices 1 2 3 4 5 6 
#
# 1 82.1216 105.5924 28.8403 0.0000 0.0000 0.0000
# 2 105.5924 82.0921 28.8345 0.0000 0.0000 0.0000
# 3 28.8403 28.8345 55.8475 0.0000 0.0000 0.0000
# 4 0.0000 0.0000 0.0000 25.3117 0.0000 0.0000
# 5 0.0000 0.0000 0.0000 0.0000 25.3122 0.0000
# 6 0.0000 0.0000 0.0000 0.0000 0.0000 12.1583
#
#
#
# Elastic Compliance Matrix: (Units=1/GPa)
#
#
# Indices 1 2 3 4 5 6 
#
# 1 -0.018120 0.024456 -0.003269 0.000000 0.000000 0.000000
# 2 0.024456 -0.018127 -0.003270 0.000000 0.000000 0.000000
# 3 -0.003269 -0.003270 0.021283 0.000000 0.000000 0.000000
# 4 0.000000 0.000000 0.000000 0.039507 0.000000 0.000000
# 5 0.000000 0.000000 0.000000 0.000000 0.039507 0.000000
# 6 0.000000 0.000000 0.000000 0.000000 0.000000 0.082248
#
#
# Mechanical properties :
#
#
# Convention : Reuss Voigt Hill
#
# Bulk Modulus (GPa) = 47.91957 60.73285 54.32621
# Shear Modulus (GPa) = 42.58169 16.34271 29.46220
#
# Velocity S-wave (km/s) = 4.96368 3.07507 4.12881
# Velocity P-wave (km/s) = 7.78316 6.91004 7.35956
#
# Compressibility (1/GPa) = 0.02086830
#
# Stress axis : x y z
#
# Youngs Moduli (GPa) = -55.18663 -55.16738 46.98654
#
# Poissons Ratio (x) = 1.34917 0.15361
# Poissons Ratio (y) = 1.34964 0.15366
# Poissons Ratio (z) = -0.18042 -0.18042
#
# Static dielectric constant tensor:
#      x y z
#    x 1.600380 0.000000 0.000000 
#    y 0.000000 1.600390 0.000000 
#    z 0.000000 0.000000 1.568600 
# 
# From -- ./inp_files/1829.got.cif
#   From: 2010.05.17/outbox.cif.g08.bks.cpg/sg140_1_cif.got.tgz:1829.got - 2010.06.21 00:45:31.
