data_PCOD9572558
_publ_section_title
;
Structure prediction by ZEFSAII (Michael W. Deem and Ramdas Pophale) SiO2 
 PCOD9572558
Probable space group: I 4/M C M
;
_chemical_formula_sum "Si O2"
_cell_formula_units_Z 160
_cell_length_a 22.479137
_cell_length_b 22.479137
_cell_length_c 15.376824
_cell_angle_alpha 90.000000
_cell_angle_beta 90.000000
_cell_angle_gamma 90.000000
_cell_volume 7770.087542
_symmetry_space_group_name_H-M "I 4/M C M"
_symmetry_group_IT_number 140
_symmetry_cell_setting 'tetragonal'
loop_
_space_group_symop_operation_xyz
x,y,z
-y,x,z
-x,-y,z
y,-x,z
x,-y,1/2-z
-x,y,1/2-z
y,x,1/2-z
-y,-x,1/2-z
-x,-y,-z
y,-x,-z
x,y,-z
-y,x,-z
-x,y,1/2+z
x,-y,1/2+z
-y,-x,1/2+z
y,x,1/2+z
1/2+x,1/2+y,1/2+z
1/2-y,1/2+x,1/2+z
1/2-x,1/2-y,1/2+z
1/2+y,1/2-x,1/2+z
1/2+x,1/2-y,-z
1/2-x,1/2+y,-z
1/2+y,1/2+x,-z
1/2-y,1/2-x,-z
1/2-x,1/2-y,1/2-z
1/2+y,1/2-x,1/2-z
1/2+x,1/2+y,1/2-z
1/2-y,1/2+x,1/2-z
1/2-x,1/2+y,z
1/2+x,1/2-y,z
1/2-y,1/2-x,z
1/2+y,1/2+x,z
loop_
_atom_site_type_symbol
_atom_site_label
_atom_site_fract_x
_atom_site_fract_y
_atom_site_fract_z
Si Si1 0.016501 0.820696 0.095862
Si Si2 0.646034 0.948689 0.000000
Si Si3 0.760207 0.357626 0.334971
Si Si4 0.183068 0.416488 0.000000
Si Si5 0.796261 0.551861 0.311288
Si Si6 0.892862 0.873097 0.847360
O O1 0.024973 0.767547 0.162651
O O2 0.075878 0.859920 0.099745
O O3 0.957747 0.857650 0.117042
O O4 0.010109 0.794151 0.000000
O O5 0.674120 0.932077 0.095417
O O6 0.581165 0.918836 0.000000
O O7 0.654381 0.019193 0.000000
O O8 0.795140 0.295140 0.343669
O O9 0.779622 0.400339 0.414533
O O10 0.783147 0.390851 0.248323
O O11 0.688876 0.356135 0.341135
O O12 0.129672 0.370329 0.000000
O O13 0.825951 0.500000 0.250000
O O14 0.897580 0.897580 0.750000
#
# Coordination Sequence:
#
# PCOD9572558 Si02
#       6
#    32  16  32  16  32  32
#     4  12  25  43  69  96 137 179 225 283 339 409
#     4  12  24  39  65  99 136 174 224 286 336 400
#     4  11  24  43  70 101 135 176 228 281 336 404
#     4  10  22  41  67  95 130 180 226 272 337 409
#     4  12  21  42  69  95 132 180 225 276 339 408
#     4  12  24  43  68  98 131 177 227 272 343 400
#
# _framework density 20.59179
#
# number of rings (size 3 to 8) (size 9 to 14) (size 15 to 20)
#    0.000    0.400    7.000    1.800    2.800    1.000 
#    0.000    2.000    0.000    0.000    0.000    0.000 
#    0.000    0.000    0.000    0.000    0.000    0.000 
#
# Total GULP energy -446980.482802 kJ/mol
# GULP energy per Si atom -5587.256035 kJ/mol
# Density = 2.054492 g / cm^3
# Si number density = 20.591790 Si / 1000 Ang^3
#
#
#
# Elastic Constant Matrix: (Units=GPa)
#
#
# Indices 1 2 3 4 5 6 
#
# 1 79.0711 45.9380 26.8545 0.0000 0.0000 0.0000
# 2 45.9380 79.0721 26.8550 0.0000 0.0000 0.0000
# 3 26.8545 26.8550 149.8126 0.0000 0.0000 0.0000
# 4 0.0000 0.0000 0.0000 24.0987 0.0000 0.0000
# 5 0.0000 0.0000 0.0000 0.0000 24.1020 0.0000
# 6 0.0000 0.0000 0.0000 0.0000 0.0000 33.4005
#
#
#
# Elastic Compliance Matrix: (Units=1/GPa)
#
#
# Indices 1 2 3 4 5 6 
#
# 1 0.019424 -0.010757 -0.001554 0.000000 0.000000 0.000000
# 2 -0.010757 0.019424 -0.001554 0.000000 0.000000 0.000000
# 3 -0.001554 -0.001554 0.007232 0.000000 0.000000 0.000000
# 4 0.000000 0.000000 0.000000 0.041496 0.000000 0.000000
# 5 0.000000 0.000000 0.000000 0.000000 0.041490 0.000000
# 6 0.000000 0.000000 0.000000 0.000000 0.000000 0.029940
#
#
# Mechanical properties :
#
#
# Convention : Reuss Voigt Hill
#
# Bulk Modulus (GPa) = 54.49181 56.36121 55.42651
# Shear Modulus (GPa) = 25.92672 30.20746 28.06709
#
# Velocity S-wave (km/s) = 3.55220 3.83425 3.69592
# Velocity P-wave (km/s) = 6.58366 6.85800 6.72223
#
# Compressibility (1/GPa) = 0.01835138
#
# Stress axis : x y z
#
# Youngs Moduli (GPa) = 51.48273 51.48336 138.27467
#
# Poissons Ratio (x) = 0.55381 0.21482
# Poissons Ratio (y) = 0.55380 0.21482
# Poissons Ratio (z) = 0.07998 0.07998
#
# Static dielectric constant tensor:
#      x y z
#    x 1.747790 0.000000 0.000000 
#    y 0.000000 1.747790 0.000000 
#    z 0.000000 0.000000 1.820260 
# 
# From -- ./inp_files/4804.got.cif
#   From: 2010.05.17/outbox.cif.g08.bks.cpg/sg140_3_cif.got.tgz:4804.got - 2010.06.21 00:45:31.
