data_PCOD9572274
_publ_section_title
;
Structure prediction by ZEFSAII (Michael W. Deem and Ramdas Pophale) SiO2 
 PCOD9572274
Probable space group: I 4/M C M
;
_chemical_formula_sum "Si O2"
_cell_formula_units_Z 240
_cell_length_a 20.448516
_cell_length_b 20.448516
_cell_length_c 27.162980
_cell_angle_alpha 90.000000
_cell_angle_beta 90.000000
_cell_angle_gamma 90.000000
_cell_volume 11357.977530
_symmetry_space_group_name_H-M "I 4/M C M"
_symmetry_group_IT_number 140
_symmetry_cell_setting 'tetragonal'
loop_
_space_group_symop_operation_xyz
x,y,z
-y,x,z
-x,-y,z
y,-x,z
x,-y,1/2-z
-x,y,1/2-z
y,x,1/2-z
-y,-x,1/2-z
-x,-y,-z
y,-x,-z
x,y,-z
-y,x,-z
-x,y,1/2+z
x,-y,1/2+z
-y,-x,1/2+z
y,x,1/2+z
1/2+x,1/2+y,1/2+z
1/2-y,1/2+x,1/2+z
1/2-x,1/2-y,1/2+z
1/2+y,1/2-x,1/2+z
1/2+x,1/2-y,-z
1/2-x,1/2+y,-z
1/2+y,1/2+x,-z
1/2-y,1/2-x,-z
1/2-x,1/2-y,1/2-z
1/2+y,1/2-x,1/2-z
1/2+x,1/2+y,1/2-z
1/2-y,1/2+x,1/2-z
1/2-x,1/2+y,z
1/2+x,1/2-y,z
1/2-y,1/2-x,z
1/2+y,1/2+x,z
loop_
_atom_site_type_symbol
_atom_site_label
_atom_site_fract_x
_atom_site_fract_y
_atom_site_fract_z
Si Si1 0.509170 0.301724 0.195560
Si Si2 0.498137 0.889867 0.500000
Si Si3 0.377092 0.776177 0.847629
Si Si4 0.860300 0.252946 0.052842
Si Si5 0.391637 0.516227 0.600224
Si Si6 0.696791 0.385185 0.446428
Si Si7 0.377359 0.980285 0.890494
Si Si8 0.091801 0.305801 0.343166
O O1 0.500000 0.328817 0.250000
O O2 0.579601 0.265670 0.190026
O O3 0.511126 0.356128 0.153073
O O4 0.450178 0.249080 0.185865
O O5 0.557393 0.942608 0.500000
O O6 0.505000 0.856599 0.446850
O O7 0.431080 0.931080 0.500000
O O8 0.311494 0.811494 0.829323
O O9 0.365761 0.736590 0.897885
O O10 0.426320 0.831061 0.867081
O O11 0.789350 0.289350 0.053313
O O12 0.853792 0.175106 0.051477
O O13 0.892594 0.274324 0.103526
O O14 0.890752 0.273788 0.000000
O O15 0.428857 0.447965 0.594398
O O16 0.335777 0.544175 0.563822
O O17 0.730884 0.385710 0.500000
O O18 0.449321 0.949321 0.891318
O O19 0.363508 0.041580 0.856491
O O20 0.158124 0.341877 0.323880
#
# Coordination Sequence:
#
# PCOD9572274 Si02
#       8
#    32  16  32  32  32  32  32  32
#     4  10  22  40  59  83 112 143 188 246 305 358
#     4   9  16  24  36  58  90 130 170 207 248 292
#     4   9  19  35  55  80 111 151 194 237 284 335
#     4   9  18  32  51  78 112 151 191 227 267 323
#     4  10  22  41  63  87 115 147 186 234 292 355
#     4  10  20  34  56  85 119 156 189 224 268 329
#     4   9  18  30  44  68 103 141 182 226 267 311
#     4  10  20  34  54  79 108 145 186 229 281 339
#
# _framework density 21.130523
#
# number of rings (size 3 to 8) (size 9 to 14) (size 15 to 20)
#    0.000    2.467    0.000    1.600    1.867    3.200 
#    0.000    4.667    0.000    0.000    0.000    9.333 
#    0.000    0.000    0.000    0.000    0.000    0.000 
#
# Total GULP energy -668188.933967 kJ/mol
# GULP energy per Si atom -5568.241116 kJ/mol
# Density = 2.108243 g / cm^3
# Si number density = 21.130523 Si / 1000 Ang^3
#
#
#
# Elastic Constant Matrix: (Units=GPa)
#
#
# Indices 1 2 3 4 5 6 
#
# 1 46.2227 -3.5058 -2.7032 0.0000 0.0000 0.0000
# 2 -3.5058 46.2235 -2.7031 0.0000 0.0000 0.0000
# 3 -2.7032 -2.7031 47.5240 0.0000 0.0000 0.0000
# 4 0.0000 0.0000 0.0000 10.3616 0.0000 0.0000
# 5 0.0000 0.0000 0.0000 0.0000 10.3615 0.0000
# 6 0.0000 0.0000 0.0000 0.0000 0.0000 14.1417
#
#
#
# Elastic Compliance Matrix: (Units=1/GPa)
#
#
# Indices 1 2 3 4 5 6 
#
# 1 0.021844 0.001735 0.001341 0.000000 0.000000 0.000000
# 2 0.001735 0.021844 0.001341 0.000000 0.000000 0.000000
# 3 0.001341 0.001341 0.021195 0.000000 0.000000 0.000000
# 4 0.000000 0.000000 0.000000 0.096510 0.000000 0.000000
# 5 0.000000 0.000000 0.000000 0.000000 0.096511 0.000000
# 6 0.000000 0.000000 0.000000 0.000000 0.000000 0.070713
#
#
# Mechanical properties :
#
#
# Convention : Reuss Voigt Hill
#
# Bulk Modulus (GPa) = 13.56513 13.57175 13.56844
# Shear Modulus (GPa) = 14.51991 16.89845 15.70918
#
# Velocity S-wave (km/s) = 2.62421 2.83100 2.72956
# Velocity P-wave (km/s) = 3.95165 4.13797 4.04589
#
# Compressibility (1/GPa) = 0.07371840
#
# Stress axis : x y z
#
# Youngs Moduli (GPa) = 45.77821 45.77906 47.18185
#
# Poissons Ratio (x) = -0.07944 -0.06328
# Poissons Ratio (y) = -0.07944 -0.06328
# Poissons Ratio (z) = -0.06140 -0.06140
#
# Static dielectric constant tensor:
#      x y z
#    x 1.813470 0.000000 0.000000 
#    y 0.000000 1.813470 0.000000 
#    z 0.000000 0.000000 1.491820 
# 
# From -- ./inp_files/10986.got.cif
#   From: 2010.05.17/outbox.cif.g08.bks.cpg/sg140_6_cif.got.tgz:10986.got - 2010.06.21 00:45:31.
