data_PCOD9572305
_publ_section_title
;
Structure prediction by ZEFSAII (Michael W. Deem and Ramdas Pophale) SiO2 
 PCOD9572305
Probable space group: I 4/M C M
;
_chemical_formula_sum "Si O2"
_cell_formula_units_Z 160
_cell_length_a 31.058196
_cell_length_b 31.058196
_cell_length_c 8.827864
_cell_angle_alpha 90.000000
_cell_angle_beta 90.000000
_cell_angle_gamma 90.000000
_cell_volume 8515.459477
_symmetry_space_group_name_H-M "I 4/M C M"
_symmetry_group_IT_number 140
_symmetry_cell_setting 'tetragonal'
loop_
_space_group_symop_operation_xyz
x,y,z
-y,x,z
-x,-y,z
y,-x,z
x,-y,1/2-z
-x,y,1/2-z
y,x,1/2-z
-y,-x,1/2-z
-x,-y,-z
y,-x,-z
x,y,-z
-y,x,-z
-x,y,1/2+z
x,-y,1/2+z
-y,-x,1/2+z
y,x,1/2+z
1/2+x,1/2+y,1/2+z
1/2-y,1/2+x,1/2+z
1/2-x,1/2-y,1/2+z
1/2+y,1/2-x,1/2+z
1/2+x,1/2-y,-z
1/2-x,1/2+y,-z
1/2+y,1/2+x,-z
1/2-y,1/2-x,-z
1/2-x,1/2-y,1/2-z
1/2+y,1/2-x,1/2-z
1/2+x,1/2+y,1/2-z
1/2-y,1/2+x,1/2-z
1/2-x,1/2+y,z
1/2+x,1/2-y,z
1/2-y,1/2-x,z
1/2+y,1/2+x,z
loop_
_atom_site_type_symbol
_atom_site_label
_atom_site_fract_x
_atom_site_fract_y
_atom_site_fract_z
Si Si1 0.713841 0.547443 0.318865
Si Si2 0.881940 0.618060 0.318799
Si Si3 0.883978 0.951673 0.817881
Si Si4 0.453524 0.953524 0.318784
Si Si5 0.788466 0.605618 0.820826
Si Si6 0.256450 0.315766 0.330091
O O1 0.715459 0.500000 0.250000
O O2 0.718204 0.546375 0.500000
O O3 0.665197 0.563706 0.283711
O O4 0.753425 0.573261 0.248238
O O5 0.877624 0.622376 0.500000
O O6 0.917801 0.582200 0.284398
O O7 0.835853 0.604018 0.251900
O O8 0.919072 0.919072 0.750000
O O9 0.888899 0.000000 0.750000
O O10 0.888384 0.953987 0.000000
O O11 0.500000 0.941726 0.250000
O O12 0.457415 0.957415 0.500000
O O13 0.768638 0.651554 0.775996
O O14 0.791846 0.600182 0.000000
O O15 0.299682 0.299682 0.250000
O O16 0.263582 0.333553 0.500000
O O17 0.225262 0.274739 0.346535
#
# Coordination Sequence:
#
# PCOD9572305 Si02
#       6
#    32  16  32  16  32  32
#     4  10  22  41  62  85 117 157 201 249 300 356
#     4  11  24  42  62  89 124 161 200 249 301 354
#     4  10  21  38  62  90 122 159 201 250 304 361
#     4  10  22  41  68  95 123 155 190 235 291 356
#     4  12  24  38  60  88 120 158 201 248 300 358
#     4  10  20  35  56  80 112 150 190 238 288 341
#
# _framework density 18.789356000000002
#
# number of rings (size 3 to 8) (size 9 to 14) (size 15 to 20)
#    0.000    1.500    1.000    4.500    0.000    6.600 
#    0.000    5.000    0.000    0.000    0.000    0.000 
#    0.000    0.000    0.000    0.000    0.000    0.000 
#
# Total GULP energy -446697.409749 kJ/mol
# GULP energy per Si atom -5583.717622 kJ/mol
# Density = 1.874659 g / cm^3
# Si number density = 18.789356 Si / 1000 Ang^3
#
#
#
# Elastic Constant Matrix: (Units=GPa)
#
#
# Indices 1 2 3 4 5 6 
#
# 1 -15.6273 239.4895 75.3397 0.0000 0.0000 0.0000
# 2 239.4895 -15.6211 75.3298 0.0000 0.0000 0.0000
# 3 75.3397 75.3298 126.9464 0.0000 0.0000 0.0000
# 4 0.0000 0.0000 0.0000 26.3175 0.0000 0.0000
# 5 0.0000 0.0000 0.0000 0.0000 26.3174 0.0000
# 6 0.0000 0.0000 0.0000 0.0000 0.0000 34.2144
#
#
#
# Elastic Compliance Matrix: (Units=1/GPa)
#
#
# Indices 1 2 3 4 5 6 
#
# 1 0.001759 0.005679 -0.004413 0.000000 0.000000 0.000000
# 2 0.005679 0.001759 -0.004414 0.000000 0.000000 0.000000
# 3 -0.004413 -0.004414 0.013116 0.000000 0.000000 0.000000
# 4 0.000000 0.000000 0.000000 0.037998 0.000000 0.000000
# 5 0.000000 0.000000 0.000000 0.000000 0.037998 0.000000
# 6 0.000000 0.000000 0.000000 0.000000 0.000000 0.029227
#
#
# Mechanical properties :
#
#
# Convention : Reuss Voigt Hill
#
# Bulk Modulus (GPa) = 96.74828 97.33510 97.04169
# Shear Modulus (GPa) = 37.99415 -2.26088 17.86664
#
# Velocity S-wave (km/s) = 4.50167 -1.09813 3.08700
# Velocity P-wave (km/s) = 8.86695 7.09281 8.02903
#
# Compressibility (1/GPa) = 0.01033610
#
# Stress axis : x y z
#
# Youngs Moduli (GPa) = 568.62890 568.46002 76.24344
#
# Poissons Ratio (x) = -3.22811 0.33649
# Poissons Ratio (y) = -3.22907 0.33654
# Poissons Ratio (z) = 2.50960 2.50921
#
# Static dielectric constant tensor:
#      x y z
#    x 1.642030 0.000000 0.000000 
#    y 0.000000 1.642030 0.000000 
#    z 0.000000 0.000000 1.642520 
# 
# From -- ./inp_files/1842.got.cif
#   From: 2010.05.17/outbox.cif.g08.bks.cpg/sg140_1_cif.got.tgz:1842.got - 2010.06.21 00:45:31.
