data_PCOD9572508
_publ_section_title
;
Structure prediction by ZEFSAII (Michael W. Deem and Ramdas Pophale) SiO2 
 PCOD9572508
Probable space group: I 4/M C M
;
_chemical_formula_sum "Si O2"
_cell_formula_units_Z 160
_cell_length_a 21.000578
_cell_length_b 21.000578
_cell_length_c 17.499523
_cell_angle_alpha 90.000000
_cell_angle_beta 90.000000
_cell_angle_gamma 90.000000
_cell_volume 7717.714467
_symmetry_space_group_name_H-M "I 4/M C M"
_symmetry_group_IT_number 140
_symmetry_cell_setting 'tetragonal'
loop_
_space_group_symop_operation_xyz
x,y,z
-y,x,z
-x,-y,z
y,-x,z
x,-y,1/2-z
-x,y,1/2-z
y,x,1/2-z
-y,-x,1/2-z
-x,-y,-z
y,-x,-z
x,y,-z
-y,x,-z
-x,y,1/2+z
x,-y,1/2+z
-y,-x,1/2+z
y,x,1/2+z
1/2+x,1/2+y,1/2+z
1/2-y,1/2+x,1/2+z
1/2-x,1/2-y,1/2+z
1/2+y,1/2-x,1/2+z
1/2+x,1/2-y,-z
1/2-x,1/2+y,-z
1/2+y,1/2+x,-z
1/2-y,1/2-x,-z
1/2-x,1/2-y,1/2-z
1/2+y,1/2-x,1/2-z
1/2+x,1/2+y,1/2-z
1/2-y,1/2+x,1/2-z
1/2-x,1/2+y,z
1/2+x,1/2-y,z
1/2-y,1/2-x,z
1/2+y,1/2+x,z
loop_
_atom_site_type_symbol
_atom_site_label
_atom_site_fract_x
_atom_site_fract_y
_atom_site_fract_z
Si Si1 0.314118 0.544681 0.681486
Si Si2 0.751696 0.354012 0.773523
Si Si3 0.552158 0.233596 0.410370
Si Si4 0.581853 0.568756 0.915025
Si Si5 0.105079 0.497469 0.159699
O O1 0.338800 0.500000 0.750000
O O2 0.258546 0.586734 0.717525
O O3 0.284964 0.500621 0.615678
O O4 0.369617 0.589953 0.649312
O O5 0.696919 0.303082 0.750000
O O6 0.817844 0.317844 0.763000
O O7 0.752589 0.385756 0.857870
O O8 0.565683 0.237307 0.500000
O O9 0.520497 0.165857 0.388052
O O10 0.508078 0.584325 0.907696
O O11 0.602276 0.587808 0.000000
O O12 0.121547 0.500000 0.250000
O O13 0.050462 0.550462 0.148146
O O14 0.070415 0.429586 0.142800
#
# Coordination Sequence:
#
# PCOD9572508 Si02
#       5
#    32  32  32  32  32
#     4  10  22  36  58  86 116 152 197 248 302 359
#     4  10  23  43  64  86 117 165 222 267 301 356
#     4  11  23  38  59  90 123 157 200 258 319 371
#     4   9  19  35  56  85 119 151 184 233 299 363
#     4   9  18  34  58  87 119 157 198 242 299 369
#
# _framework density 20.731525999999999
#
# number of rings (size 3 to 8) (size 9 to 14) (size 15 to 20)
#    0.000    2.200    0.000    4.200    5.600    4.400 
#    0.000    3.000    0.000    4.200    0.000    0.000 
#    0.000    0.000    0.000    0.000    0.000    0.000 
#
# Total GULP energy -446618.553104 kJ/mol
# GULP energy per Si atom -5582.731914 kJ/mol
# Density = 2.068434 g / cm^3
# Si number density = 20.731526 Si / 1000 Ang^3
#
#
#
# Elastic Constant Matrix: (Units=GPa)
#
#
# Indices 1 2 3 4 5 6 
#
# 1 79.0043 9.6869 40.2551 0.0000 0.0000 0.0000
# 2 9.6869 79.0048 40.2546 0.0000 0.0000 0.0000
# 3 40.2551 40.2546 117.2790 0.0000 0.0000 0.0000
# 4 0.0000 0.0000 0.0000 21.1781 0.0000 0.0000
# 5 0.0000 0.0000 0.0000 0.0000 21.1773 0.0000
# 6 0.0000 0.0000 0.0000 0.0000 0.0000 29.0510
#
#
#
# Elastic Compliance Matrix: (Units=1/GPa)
#
#
# Indices 1 2 3 4 5 6 
#
# 1 0.015402 0.000976 -0.005622 0.000000 0.000000 0.000000
# 2 0.000976 0.015402 -0.005622 0.000000 0.000000 0.000000
# 3 -0.005622 -0.005622 0.012386 0.000000 0.000000 0.000000
# 4 0.000000 0.000000 0.000000 0.047219 0.000000 0.000000
# 5 0.000000 0.000000 0.000000 0.000000 0.047220 0.000000
# 6 0.000000 0.000000 0.000000 0.000000 0.000000 0.034422
#
#
# Mechanical properties :
#
#
# Convention : Reuss Voigt Hill
#
# Bulk Modulus (GPa) = 44.13943 50.63127 47.38535
# Shear Modulus (GPa) = 24.98277 26.62071 25.80174
#
# Velocity S-wave (km/s) = 3.47517 3.58728 3.53167
# Velocity P-wave (km/s) = 6.11879 6.45240 6.28781
#
# Compressibility (1/GPa) = 0.02265548
#
# Stress axis : x y z
#
# Youngs Moduli (GPa) = 64.92541 64.92623 80.73769
#
# Poissons Ratio (x) = -0.06336 0.45388
# Poissons Ratio (y) = -0.06336 0.45387
# Poissons Ratio (z) = 0.36499 0.36499
#
# Static dielectric constant tensor:
#      x y z
#    x 1.782240 0.000000 0.000000 
#    y 0.000000 1.782240 0.000000 
#    z 0.000000 0.000000 1.735980 
# 
# From -- ./inp_files/6825.got.cif
#   From: 2010.05.17/outbox.cif.g08.bks.cpg/sg140_4_cif.got.tgz:6825.got - 2010.06.21 00:45:31.
