data_PCOD9572858
_publ_section_title
;
Structure prediction by ZEFSAII (Michael W. Deem and Ramdas Pophale) SiO2 
 PCOD9572858
Probable space group: I 41/A M D
;
_chemical_formula_sum "Si O2"
_cell_formula_units_Z 128
_cell_length_a 23.658684
_cell_length_b 23.658684
_cell_length_c 12.816694
_cell_angle_alpha 90.000000
_cell_angle_beta 90.000000
_cell_angle_gamma 90.000000
_cell_volume 7173.930794
_symmetry_space_group_name_H-M "I 41/A M D"
_symmetry_group_IT_number 141
_space_group.IT_coordinate_system_code '2'
_symmetry_cell_setting 'tetragonal'
loop_
_space_group_symop_operation_xyz
x,y,z
1/4-y,3/4+x,1/4+z
-x,1/2-y,z
1/4+y,1/4-x,3/4+z
x,-y,-z
-x,1/2+y,-z
1/4+y,3/4+x,1/4-z
1/4-y,1/4-x,3/4-z
-x,-y,-z
3/4+y,1/4-x,3/4-z
x,1/2+y,-z
3/4-y,3/4+x,1/4-z
-x,y,z
x,1/2-y,z
3/4-y,1/4-x,3/4+z
3/4+y,3/4+x,1/4+z
1/2+x,1/2+y,1/2+z
3/4-y,1/4+x,3/4+z
1/2-x,-y,1/2+z
3/4+y,3/4-x,1/4+z
1/2+x,1/2-y,1/2-z
1/2-x,y,1/2-z
3/4+y,1/4+x,3/4-z
3/4-y,3/4-x,1/4-z
1/2-x,1/2-y,1/2-z
1/4+y,3/4-x,1/4-z
1/2+x,y,1/2-z
1/4-y,1/4+x,3/4-z
1/2-x,1/2+y,1/2+z
1/2+x,-y,1/2+z
1/4-y,3/4-x,1/4+z
1/4+y,1/4+x,3/4+z
loop_
_atom_site_type_symbol
_atom_site_label
_atom_site_fract_x
_atom_site_fract_y
_atom_site_fract_z
Si Si1 0.809620 0.313079 0.376500
Si Si2 0.262667 0.394930 0.631109
Si Si3 0.140002 0.385173 0.543749
Si Si4 0.434678 0.566723 0.215518
O O1 0.822656 0.250000 0.338278
O O2 0.846497 0.327602 0.480020
O O3 0.825458 0.358998 0.290530
O O4 0.743597 0.315779 0.404546
O O5 0.250000 0.378654 0.750000
O O6 0.297892 0.452109 0.625000
O O7 0.202484 0.404395 0.576051
O O8 0.300050 0.348136 0.571086
O O9 0.100639 0.388746 0.646009
O O10 0.500000 0.582917 0.230811
#
# Coordination Sequence:
#
# PCOD9572858 Si02
#       4
#    32  32  32  32
#     4   9  19  34  53  81 113 143 185 231 279 347
#     4  11  22  37  53  80 119 150 188 235 292 356
#     4  10  19  33  54  80 110 148 181 224 291 339
#     4  10  20  35  55  78 106 146 191 233 277 341
#
# _framework density 17.842379000000001
#
# number of rings (size 3 to 8) (size 9 to 14) (size 15 to 20)
#    0.000    2.000    2.500    1.500    0.000    4.500 
#    0.000    0.000    0.000   12.750    0.000    0.000 
#    0.000    0.000    0.000    0.000    0.000    0.000 
#
# Total GULP energy -356660.319374 kJ/mol
# GULP energy per Si atom -5572.817490 kJ/mol
# Density = 1.780177 g / cm^3
# Si number density = 17.842379 Si / 1000 Ang^3
#
#
#
# Elastic Constant Matrix: (Units=GPa)
#
#
# Indices 1 2 3 4 5 6 
#
# 1 71.8501 29.8148 30.6093 0.0000 0.0000 0.0000
# 2 29.8148 71.8416 30.6072 0.0000 0.0000 0.0000
# 3 30.6093 30.6072 103.7677 0.0000 0.0000 0.0000
# 4 0.0000 0.0000 0.0000 19.9118 0.0000 0.0000
# 5 0.0000 0.0000 0.0000 0.0000 19.9125 0.0000
# 6 0.0000 0.0000 0.0000 0.0000 0.0000 6.9618
#
#
#
# Elastic Compliance Matrix: (Units=1/GPa)
#
#
# Indices 1 2 3 4 5 6 
#
# 1 0.017876 -0.005915 -0.003528 0.000000 0.000000 0.000000
# 2 -0.005915 0.017878 -0.003528 0.000000 0.000000 0.000000
# 3 -0.003528 -0.003528 0.011718 0.000000 0.000000 0.000000
# 4 0.000000 0.000000 0.000000 0.050222 0.000000 0.000000
# 5 0.000000 0.000000 0.000000 0.000000 0.050220 0.000000
# 6 0.000000 0.000000 0.000000 0.000000 0.000000 0.143641
#
#
# Mechanical properties :
#
#
# Convention : Reuss Voigt Hill
#
# Bulk Modulus (GPa) = 46.45116 47.72466 47.08791
# Shear Modulus (GPa) = 15.40012 19.78575 17.59293
#
# Velocity S-wave (km/s) = 2.94108 3.33366 3.14350
# Velocity P-wave (km/s) = 6.13384 6.45164 6.29474
#
# Compressibility (1/GPa) = 0.02152799
#
# Stress axis : x y z
#
# Youngs Moduli (GPa) = 55.94239 55.93596 85.33652
#
# Poissons Ratio (x) = 0.33088 0.30108
# Poissons Ratio (y) = 0.33092 0.30109
# Poissons Ratio (z) = 0.19737 0.19736
#
# Static dielectric constant tensor:
#      x y z
#    x 1.595550 0.000000 0.000000 
#    y 0.000000 1.595550 0.000000 
#    z 0.000000 0.000000 1.674960 
# 
# From -- ./inp_files/4542.got.cif
#   From: 2010.05.17/outbox.cif.g08.bks.cpg/sg141_3_cif.got.tgz:4542.got - 2010.05.20 13:30:51.
