data_PCOD9572839
_publ_section_title
;
Structure prediction by ZEFSAII (Michael W. Deem and Ramdas Pophale) SiO2 
 PCOD9572839
Probable space group: I 41/A M D
;
_chemical_formula_sum "Si O2"
_cell_formula_units_Z 192
_cell_length_a 29.854645
_cell_length_b 29.854645
_cell_length_c 14.148851
_cell_angle_alpha 90.000000
_cell_angle_beta 90.000000
_cell_angle_gamma 90.000000
_cell_volume 12610.868464
_symmetry_space_group_name_H-M "I 41/A M D"
_symmetry_group_IT_number 141
_space_group.IT_coordinate_system_code '2'
_symmetry_cell_setting 'tetragonal'
loop_
_space_group_symop_operation_xyz
x,y,z
1/4-y,3/4+x,1/4+z
-x,1/2-y,z
1/4+y,1/4-x,3/4+z
x,-y,-z
-x,1/2+y,-z
1/4+y,3/4+x,1/4-z
1/4-y,1/4-x,3/4-z
-x,-y,-z
3/4+y,1/4-x,3/4-z
x,1/2+y,-z
3/4-y,3/4+x,1/4-z
-x,y,z
x,1/2-y,z
3/4-y,1/4-x,3/4+z
3/4+y,3/4+x,1/4+z
1/2+x,1/2+y,1/2+z
3/4-y,1/4+x,3/4+z
1/2-x,-y,1/2+z
3/4+y,3/4-x,1/4+z
1/2+x,1/2-y,1/2-z
1/2-x,y,1/2-z
3/4+y,1/4+x,3/4-z
3/4-y,3/4-x,1/4-z
1/2-x,1/2-y,1/2-z
1/4+y,3/4-x,1/4-z
1/2+x,y,1/2-z
1/4-y,1/4+x,3/4-z
1/2-x,1/2+y,1/2+z
1/2+x,-y,1/2+z
1/4-y,3/4-x,1/4+z
1/4+y,1/4+x,3/4+z
loop_
_atom_site_type_symbol
_atom_site_label
_atom_site_fract_x
_atom_site_fract_y
_atom_site_fract_z
Si Si1 0.087566 0.447805 0.503302
Si Si2 0.249707 0.547503 0.461732
Si Si3 0.550793 0.442645 0.205853
Si Si4 0.549105 0.049418 0.793515
Si Si5 0.363937 0.082231 0.324000
Si Si6 0.355436 0.917644 0.266649
O O1 0.102494 0.500000 0.500000
O O2 0.064834 0.436651 0.403695
O O3 0.054981 0.444337 0.593552
O O4 0.128534 0.415132 0.525874
O O5 0.230632 0.500000 0.500000
O O6 0.278055 0.528055 0.375000
O O7 0.212320 0.584051 0.440383
O O8 0.288327 0.576128 0.514737
O O9 0.500000 0.426560 0.221262
O O10 0.551298 0.496157 0.223368
O O11 0.588679 0.422051 0.272561
O O12 0.500000 0.065798 0.763656
O O13 0.592241 0.071204 0.744974
O O14 0.367764 0.092004 0.435920
O O15 0.345201 0.904799 0.375000
#
# Coordination Sequence:
#
# PCOD9572839 Si02
#       6
#    32  32  32  32  32  32
#     4   9  18  30  48  74 100 129 161 205 251 299
#     4  11  20  30  44  65  96 137 169 200 241 283
#     4  10  19  32  48  69 100 133 166 208 254 296
#     4   9  17  32  50  68  93 130 173 207 246 298
#     4  11  20  32  48  71  98 130 175 208 242 298
#     4  10  21  34  47  67  96 132 171 207 250 292
#
# _framework density 15.224963000000001
#
# number of rings (size 3 to 8) (size 9 to 14) (size 15 to 20)
#    0.000    2.000    3.333    1.500    0.000    3.333 
#    0.000    0.833    0.000    2.000    0.000    0.000 
#    0.000   43.000    0.000    0.000    0.000    0.000 
#
# Total GULP energy -534428.765674 kJ/mol
# GULP energy per Si atom -5566.966309 kJ/mol
# Density = 1.519031 g / cm^3
# Si number density = 15.224963 Si / 1000 Ang^3
#
#
#
# Elastic Constant Matrix: (Units=GPa)
#
#
# Indices 1 2 3 4 5 6 
#
# 1 93.6715 30.2132 40.2001 0.0000 0.0000 0.0000
# 2 30.2132 93.6711 40.1999 0.0000 0.0000 0.0000
# 3 40.2001 40.1999 82.3369 0.0000 0.0000 0.0000
# 4 0.0000 0.0000 0.0000 12.2675 0.0000 0.0000
# 5 0.0000 0.0000 0.0000 0.0000 12.2672 0.0000
# 6 0.0000 0.0000 0.0000 0.0000 0.0000 9.5298
#
#
#
# Elastic Compliance Matrix: (Units=1/GPa)
#
#
# Indices 1 2 3 4 5 6 
#
# 1 0.013787 -0.001971 -0.005769 0.000000 0.000000 0.000000
# 2 -0.001971 0.013787 -0.005769 0.000000 0.000000 0.000000
# 3 -0.005769 -0.005769 0.017779 0.000000 0.000000 0.000000
# 4 0.000000 0.000000 0.000000 0.081516 0.000000 0.000000
# 5 0.000000 0.000000 0.000000 0.000000 0.081518 0.000000
# 6 0.000000 0.000000 0.000000 0.000000 0.000000 0.104934
#
#
# Mechanical properties :
#
#
# Convention : Reuss Voigt Hill
#
# Bulk Modulus (GPa) = 54.54195 54.54511 54.54353
# Shear Modulus (GPa) = 14.43204 17.41733 15.92468
#
# Velocity S-wave (km/s) = 3.08217 3.38597 3.23764
# Velocity P-wave (km/s) = 6.96909 7.15474 7.06252
#
# Compressibility (1/GPa) = 0.01833451
#
# Stress axis : x y z
#
# Youngs Moduli (GPa) = 72.53083 72.53054 56.24746
#
# Poissons Ratio (x) = 0.14297 0.32450
# Poissons Ratio (y) = 0.14297 0.32450
# Poissons Ratio (z) = 0.41844 0.41843
#
# Static dielectric constant tensor:
#      x y z
#    x 1.508790 0.000000 0.000000 
#    y 0.000000 1.508790 0.000000 
#    z 0.000000 0.000000 1.533150 
# 
# From -- ./inp_files/6951.got.cif
#   From: 2010.05.17/outbox.cif.g08.bks.cpg/sg141_4_cif.got.tgz:6951.got - 2010.05.20 13:30:51.
