data_PCOD9572156
_publ_section_title
;
Structure prediction by ZEFSAII (Michael W. Deem and Ramdas Pophale) SiO2 
 PCOD9572156
Probable space group: I 4/M C M
;
_chemical_formula_sum "Si O2"
_cell_formula_units_Z 176
_cell_length_a 25.913163
_cell_length_b 25.913163
_cell_length_c 11.529604
_cell_angle_alpha 90.000000
_cell_angle_beta 90.000000
_cell_angle_gamma 90.000000
_cell_volume 7742.037041
_symmetry_space_group_name_H-M "I 4/M C M"
_symmetry_group_IT_number 140
_symmetry_cell_setting 'tetragonal'
loop_
_space_group_symop_operation_xyz
x,y,z
-y,x,z
-x,-y,z
y,-x,z
x,-y,1/2-z
-x,y,1/2-z
y,x,1/2-z
-y,-x,1/2-z
-x,-y,-z
y,-x,-z
x,y,-z
-y,x,-z
-x,y,1/2+z
x,-y,1/2+z
-y,-x,1/2+z
y,x,1/2+z
1/2+x,1/2+y,1/2+z
1/2-y,1/2+x,1/2+z
1/2-x,1/2-y,1/2+z
1/2+y,1/2-x,1/2+z
1/2+x,1/2-y,-z
1/2-x,1/2+y,-z
1/2+y,1/2+x,-z
1/2-y,1/2-x,-z
1/2-x,1/2-y,1/2-z
1/2+y,1/2-x,1/2-z
1/2+x,1/2+y,1/2-z
1/2-y,1/2+x,1/2-z
1/2-x,1/2+y,z
1/2+x,1/2-y,z
1/2-y,1/2-x,z
1/2+y,1/2+x,z
loop_
_atom_site_type_symbol
_atom_site_label
_atom_site_fract_x
_atom_site_fract_y
_atom_site_fract_z
Si Si1 0.241600 0.433626 0.871463
Si Si2 0.315775 0.343388 0.375781
Si Si3 0.148434 0.515886 0.872698
Si Si4 0.000000 0.174738 0.750000
Si Si5 0.099242 0.932831 0.627078
Si Si6 0.377060 0.794809 0.672166
O O1 0.198621 0.478681 0.873851
O O2 0.288947 0.454740 0.796660
O O3 0.214819 0.385962 0.808683
O O4 0.259035 0.423020 0.000000
O O5 0.315735 0.315735 0.250000
O O6 0.317431 0.314388 0.500000
O O7 0.365027 0.381490 0.374789
O O8 0.262249 0.375046 0.378676
O O9 0.121498 0.500000 0.750000
O O10 0.170859 0.573819 0.864909
O O11 0.122581 0.509612 0.000000
O O12 0.979447 0.139401 0.853629
O O13 0.068870 0.931131 0.750000
O O14 0.073645 0.936721 0.500000
O O15 0.325761 0.825761 0.645241
#
# Coordination Sequence:
#
# PCOD9572156 Si02
#       6
#    32  32  32  16  32  32
#     4  10  19  33  55  82 112 147 189 241 295 345
#     4  10  21  38  54  74 106 150 199 243 283 332
#     4   9  17  32  51  75 102 134 175 224 280 339
#     4  12  18  36  64  91 110 150 195 246 290 350
#     4  10  22  38  59  90 123 153 192 242 294 351
#     4  11  21  34  52  79 112 149 191 239 289 340
#
# _framework density 22.733035000000001
#
# number of rings (size 3 to 8) (size 9 to 14) (size 15 to 20)
#    0.000    1.818    4.545    1.091    0.000    7.273 
#    0.000    0.000    0.000    0.273    0.000    1.273 
#    0.000   29.455    0.000   86.727    0.000    1.091 
#
# Total GULP energy -490694.508036 kJ/mol
# GULP energy per Si atom -5576.073955 kJ/mol
# Density = 2.268129 g / cm^3
# Si number density = 22.733035 Si / 1000 Ang^3
#
#
#
# Elastic Constant Matrix: (Units=GPa)
#
#
# Indices 1 2 3 4 5 6 
#
# 1 18.9164 11.5644 16.9979 0.0000 0.0000 0.0000
# 2 11.5644 18.9160 16.9976 0.0000 0.0000 0.0000
# 3 16.9979 16.9976 242.9058 0.0000 0.0000 0.0000
# 4 0.0000 0.0000 0.0000 -0.8514 0.0000 0.0000
# 5 0.0000 0.0000 0.0000 0.0000 -0.8510 0.0000
# 6 0.0000 0.0000 0.0000 0.0000 0.0000 12.3765
#
#
#
# Elastic Compliance Matrix: (Units=1/GPa)
#
#
# Indices 1 2 3 4 5 6 
#
# 1 0.085802 -0.050217 -0.002490 0.000000 0.000000 0.000000
# 2 -0.050217 0.085804 -0.002490 0.000000 0.000000 0.000000
# 3 -0.002490 -0.002490 0.004465 0.000000 0.000000 0.000000
# 4 0.000000 0.000000 0.000000 -1.174479 0.000000 0.000000
# 5 0.000000 0.000000 0.000000 0.000000 -1.175021 0.000000
# 6 0.000000 0.000000 0.000000 0.000000 0.000000 0.080798
#
#
# Mechanical properties :
#
#
# Convention : Reuss Voigt Hill
#
# Bulk Modulus (GPa) = 15.22650 41.31755 28.27202
# Shear Modulus (GPa) = -2.55057 17.81337 7.63140
#
# Velocity S-wave (km/s) = -1.06038 2.80230 1.83419
# Velocity P-wave (km/s) = 2.28326 5.35585 4.11694
#
# Compressibility (1/GPa) = 0.06567497
#
# Stress axis : x y z
#
# Youngs Moduli (GPa) = 11.65481 11.65453 223.94789
#
# Poissons Ratio (x) = 0.58526 0.55766
# Poissons Ratio (y) = 0.58527 0.55766
# Poissons Ratio (z) = 0.02902 0.02902
#
# Static dielectric constant tensor:
#      x y z
#    x 1.822820 0.000000 0.000000 
#    y 0.000000 1.822820 0.000000 
#    z 0.000000 0.000000 1.953400 
# 
# From -- ./inp_files/3256.got.cif
#   From: 2010.05.17/outbox.cif.g08.bks.cpg/sg140_2_cif.got.tgz:3256.got - 2010.06.21 00:45:31.
