data_PCOD9572198
_publ_section_title
;
Structure prediction by ZEFSAII (Michael W. Deem and Ramdas Pophale) SiO2 
 PCOD9572198
Probable space group: I 4/M C M
;
_chemical_formula_sum "Si O2"
_cell_formula_units_Z 160
_cell_length_a 21.398622
_cell_length_b 21.398622
_cell_length_c 17.789958
_cell_angle_alpha 90.000000
_cell_angle_beta 90.000000
_cell_angle_gamma 90.000000
_cell_volume 8146.039976
_symmetry_space_group_name_H-M "I 4/M C M"
_symmetry_group_IT_number 140
_symmetry_cell_setting 'tetragonal'
loop_
_space_group_symop_operation_xyz
x,y,z
-y,x,z
-x,-y,z
y,-x,z
x,-y,1/2-z
-x,y,1/2-z
y,x,1/2-z
-y,-x,1/2-z
-x,-y,-z
y,-x,-z
x,y,-z
-y,x,-z
-x,y,1/2+z
x,-y,1/2+z
-y,-x,1/2+z
y,x,1/2+z
1/2+x,1/2+y,1/2+z
1/2-y,1/2+x,1/2+z
1/2-x,1/2-y,1/2+z
1/2+y,1/2-x,1/2+z
1/2+x,1/2-y,-z
1/2-x,1/2+y,-z
1/2+y,1/2+x,-z
1/2-y,1/2-x,-z
1/2-x,1/2-y,1/2-z
1/2+y,1/2-x,1/2-z
1/2+x,1/2+y,1/2-z
1/2-y,1/2+x,1/2-z
1/2-x,1/2+y,z
1/2+x,1/2-y,z
1/2-y,1/2-x,z
1/2+y,1/2+x,z
loop_
_atom_site_type_symbol
_atom_site_label
_atom_site_fract_x
_atom_site_fract_y
_atom_site_fract_z
Si Si1 0.935584 0.920744 0.340022
Si Si2 0.228719 0.170325 0.680208
Si Si3 0.067472 0.331207 0.347442
Si Si4 0.296909 0.622238 0.087942
Si Si5 0.174475 0.426363 0.166490
O O1 0.923068 0.923068 0.250000
O O2 0.902601 0.862256 0.378209
O O3 0.008940 0.915304 0.360808
O O4 0.181486 0.181486 0.750000
O O5 0.290008 0.209993 0.702495
O O6 0.195025 0.200503 0.609396
O O7 0.255624 0.102410 0.660497
O O8 0.113338 0.386662 0.374948
O O9 0.093306 0.264074 0.372858
O O10 0.068705 0.333992 0.256674
O O11 0.994517 0.334981 0.368546
O O12 0.293741 0.610778 0.000000
O O13 0.123056 0.376945 0.137409
#
# Coordination Sequence:
#
# PCOD9572198 Si02
#       5
#    32  32  32  32  32
#     4   9  21  41  63  86 113 152 201 249 296 355
#     4  10  19  36  59  83 113 150 196 246 294 349
#     4  10  21  37  58  88 123 156 199 256 312 368
#     4  12  25  36  56  87 123 161 194 237 301 369
#     4   9  19  36  62  90 114 151 203 259 312 359
#
# _framework density 19.641445000000001
#
# number of rings (size 3 to 8) (size 9 to 14) (size 15 to 20)
#    0.000    2.000    2.000    1.800    2.800    4.400 
#    0.000    3.000    0.000    1.800    0.000    1.400 
#    0.000    0.000    0.000    0.000    0.000    0.000 
#
# Total GULP energy -445819.628789 kJ/mol
# GULP energy per Si atom -5572.745360 kJ/mol
# Density = 1.959674 g / cm^3
# Si number density = 19.641445 Si / 1000 Ang^3
#
#
#
# Elastic Constant Matrix: (Units=GPa)
#
#
# Indices 1 2 3 4 5 6 
#
# 1 116.3736 75.5460 17.5588 0.0000 0.0000 0.0000
# 2 75.5460 116.3736 17.5588 0.0000 0.0000 0.0000
# 3 17.5588 17.5588 30.5209 0.0000 0.0000 0.0000
# 4 0.0000 0.0000 0.0000 5.7612 0.0000 0.0000
# 5 0.0000 0.0000 0.0000 0.0000 5.7612 0.0000
# 6 0.0000 0.0000 0.0000 0.0000 0.0000 33.9110
#
#
#
# Elastic Compliance Matrix: (Units=1/GPa)
#
#
# Indices 1 2 3 4 5 6 
#
# 1 0.015158 -0.009335 -0.003350 0.000000 0.000000 0.000000
# 2 -0.009335 0.015158 -0.003350 0.000000 0.000000 0.000000
# 3 -0.003350 -0.003350 0.036619 0.000000 0.000000 0.000000
# 4 0.000000 0.000000 0.000000 0.173576 0.000000 0.000000
# 5 0.000000 0.000000 0.000000 0.000000 0.173576 0.000000
# 6 0.000000 0.000000 0.000000 0.000000 0.000000 0.029489
#
#
# Mechanical properties :
#
#
# Convention : Reuss Voigt Hill
#
# Bulk Modulus (GPa) = 28.68193 53.84393 41.26293
# Shear Modulus (GPa) = 10.26128 19.26030 14.76079
#
# Velocity S-wave (km/s) = 2.28815 3.13484 2.74435
# Velocity P-wave (km/s) = 4.64923 6.36992 5.57634
#
# Compressibility (1/GPa) = 0.03486516
#
# Stress axis : x y z
#
# Youngs Moduli (GPa) = 65.97004 65.97004 27.30800
#
# Poissons Ratio (x) = 0.61582 0.09149
# Poissons Ratio (y) = 0.61582 0.09149
# Poissons Ratio (z) = 0.22102 0.22102
#
# Static dielectric constant tensor:
#      x y z
#    x 1.715990 0.000000 0.000000 
#    y 0.000000 1.715990 0.000000 
#    z 0.000000 0.000000 1.690060 
# 
# From -- ./inp_files/6875.got.cif
#   From: 2010.05.17/outbox.cif.g08.bks.cpg/sg140_4_cif.got.tgz:6875.got - 2010.06.21 00:45:31.
