data_PCOD9572620
_publ_section_title
;
Structure prediction by ZEFSAII (Michael W. Deem and Ramdas Pophale) SiO2 
 PCOD9572620
Probable space group: I 4/M C M
;
_chemical_formula_sum "Si O2"
_cell_formula_units_Z 128
_cell_length_a 15.965198
_cell_length_b 15.965198
_cell_length_c 28.776975
_cell_angle_alpha 90.000000
_cell_angle_beta 90.000000
_cell_angle_gamma 90.000000
_cell_volume 7334.892573
_symmetry_space_group_name_H-M "I 4/M C M"
_symmetry_group_IT_number 140
_symmetry_cell_setting 'tetragonal'
loop_
_space_group_symop_operation_xyz
x,y,z
-y,x,z
-x,-y,z
y,-x,z
x,-y,1/2-z
-x,y,1/2-z
y,x,1/2-z
-y,-x,1/2-z
-x,-y,-z
y,-x,-z
x,y,-z
-y,x,-z
-x,y,1/2+z
x,-y,1/2+z
-y,-x,1/2+z
y,x,1/2+z
1/2+x,1/2+y,1/2+z
1/2-y,1/2+x,1/2+z
1/2-x,1/2-y,1/2+z
1/2+y,1/2-x,1/2+z
1/2+x,1/2-y,-z
1/2-x,1/2+y,-z
1/2+y,1/2+x,-z
1/2-y,1/2-x,-z
1/2-x,1/2-y,1/2-z
1/2+y,1/2-x,1/2-z
1/2+x,1/2+y,1/2-z
1/2-y,1/2+x,1/2-z
1/2-x,1/2+y,z
1/2+x,1/2-y,z
1/2-y,1/2-x,z
1/2+y,1/2+x,z
loop_
_atom_site_type_symbol
_atom_site_label
_atom_site_fract_x
_atom_site_fract_y
_atom_site_fract_z
Si Si1 0.738604 0.102643 0.625942
Si Si2 0.636305 0.470651 0.055291
Si Si3 0.526518 0.162509 0.804158
Si Si4 0.163667 0.804668 0.699582
O O1 0.682257 0.182257 0.610482
O O2 0.781176 0.051457 0.584408
O O3 0.815924 0.132696 0.658341
O O4 0.681081 0.047583 0.660341
O O5 0.596495 0.561988 0.065370
O O6 0.652331 0.467224 0.000000
O O7 0.500000 0.157658 0.750000
O O8 0.579540 0.079540 0.815076
O O9 0.588221 0.241787 0.808754
O O10 0.153687 0.846314 0.750000
O O11 0.247386 0.747386 0.701890
#
# Coordination Sequence:
#
# PCOD9572620 Si02
#       4
#    32  32  32  32
#     4  11  21  33  53  80 110 145 179 215 264 318
#     4   9  19  38  62  83 103 131 172 226 282 326
#     4  11  21  33  50  73 106 146 186 221 257 311
#     4   9  17  31  47  68 100 139 182 222 255 291
#
# _framework density 17.450835000000001
#
# number of rings (size 3 to 8) (size 9 to 14) (size 15 to 20)
#    0.000    2.000    2.500    3.000    0.000    2.250 
#    0.000    0.000    0.000    2.250    0.000    1.750 
#    0.000    0.000    0.000    0.000    0.000    0.000 
#
# Total GULP energy -356865.114898 kJ/mol
# GULP energy per Si atom -5576.017420 kJ/mol
# Density = 1.741112 g / cm^3
# Si number density = 17.450835 Si / 1000 Ang^3
#
#
#
# Elastic Constant Matrix: (Units=GPa)
#
#
# Indices 1 2 3 4 5 6 
#
# 1 64.1795 22.4516 41.1502 0.0000 0.0000 0.0000
# 2 22.4516 64.1792 41.1503 0.0000 0.0000 0.0000
# 3 41.1502 41.1503 76.5511 0.0000 0.0000 0.0000
# 4 0.0000 0.0000 0.0000 9.0148 0.0000 0.0000
# 5 0.0000 0.0000 0.0000 0.0000 9.0146 0.0000
# 6 0.0000 0.0000 0.0000 0.0000 0.0000 10.2286
#
#
#
# Elastic Compliance Matrix: (Units=1/GPa)
#
#
# Indices 1 2 3 4 5 6 
#
# 1 0.023778 -0.000187 -0.012681 0.000000 0.000000 0.000000
# 2 -0.000187 0.023778 -0.012681 0.000000 0.000000 0.000000
# 3 -0.012681 -0.012681 0.026697 0.000000 0.000000 0.000000
# 4 0.000000 0.000000 0.000000 0.110929 0.000000 0.000000
# 5 0.000000 0.000000 0.000000 0.000000 0.110932 0.000000
# 6 0.000000 0.000000 0.000000 0.000000 0.000000 0.097765
#
#
# Mechanical properties :
#
#
# Convention : Reuss Voigt Hill
#
# Bulk Modulus (GPa) = 43.19066 46.04600 44.61833
# Shear Modulus (GPa) = 11.04500 12.32878 11.68689
#
# Velocity S-wave (km/s) = 2.51852 2.66087 2.59067
# Velocity P-wave (km/s) = 5.76723 5.99030 5.87982
#
# Compressibility (1/GPa) = 0.02315316
#
# Stress axis : x y z
#
# Youngs Moduli (GPa) = 42.05652 42.05606 37.45780
#
# Poissons Ratio (x) = 0.00787 0.47500
# Poissons Ratio (y) = 0.00787 0.47501
# Poissons Ratio (z) = 0.53332 0.53332
#
# Static dielectric constant tensor:
#      x y z
#    x 1.608000 0.000000 0.000000 
#    y 0.000000 1.608000 0.000000 
#    z 0.000000 0.000000 1.596980 
# 
# From -- ./inp_files/9283.got.cif
#   From: 2010.05.17/outbox.cif.g08.bks.cpg/sg140_5_cif.got.tgz:9283.got - 2010.06.21 00:45:31.
