data_PCOD9572988
_publ_section_title
;
Structure prediction by ZEFSAII (Michael W. Deem and Ramdas Pophale) SiO2 
 PCOD9572988
Probable space group: I 41/A M D
;
_chemical_formula_sum "Si O2"
_cell_formula_units_Z 144
_cell_length_a 18.616638
_cell_length_b 18.616638
_cell_length_c 21.204659
_cell_angle_alpha 90.000000
_cell_angle_beta 90.000000
_cell_angle_gamma 90.000000
_cell_volume 7349.093974
_symmetry_space_group_name_H-M "I 41/A M D"
_symmetry_group_IT_number 141
_space_group.IT_coordinate_system_code '2'
_symmetry_cell_setting 'tetragonal'
loop_
_space_group_symop_operation_xyz
x,y,z
1/4-y,3/4+x,1/4+z
-x,1/2-y,z
1/4+y,1/4-x,3/4+z
x,-y,-z
-x,1/2+y,-z
1/4+y,3/4+x,1/4-z
1/4-y,1/4-x,3/4-z
-x,-y,-z
3/4+y,1/4-x,3/4-z
x,1/2+y,-z
3/4-y,3/4+x,1/4-z
-x,y,z
x,1/2-y,z
3/4-y,1/4-x,3/4+z
3/4+y,3/4+x,1/4+z
1/2+x,1/2+y,1/2+z
3/4-y,1/4+x,3/4+z
1/2-x,-y,1/2+z
3/4+y,3/4-x,1/4+z
1/2+x,1/2-y,1/2-z
1/2-x,y,1/2-z
3/4+y,1/4+x,3/4-z
3/4-y,3/4-x,1/4-z
1/2-x,1/2-y,1/2-z
1/4+y,3/4-x,1/4-z
1/2+x,y,1/2-z
1/4-y,1/4+x,3/4-z
1/2-x,1/2+y,1/2+z
1/2+x,-y,1/2+z
1/4-y,3/4-x,1/4+z
1/4+y,1/4+x,3/4+z
loop_
_atom_site_type_symbol
_atom_site_label
_atom_site_fract_x
_atom_site_fract_y
_atom_site_fract_z
Si Si1 0.585991 0.835991 0.875000
Si Si2 0.665016 0.336211 0.999286
Si Si3 0.081019 0.085759 0.757155
Si Si4 0.777078 0.409469 0.817781
Si Si5 0.584669 0.112199 0.389229
O O1 0.597071 0.750000 0.867694
O O2 0.626857 0.862497 0.937509
O O3 0.654725 0.250000 0.999017
O O4 0.750640 0.347145 0.998615
O O5 0.632432 0.361460 0.932755
O O6 0.142681 0.117019 0.802219
O O7 0.090353 0.122135 0.689028
O O8 0.000000 0.094380 0.780262
O O9 0.784555 0.465446 0.875000
O O10 0.750000 0.438254 0.750000
O O11 0.720173 0.349961 0.839381
O O12 0.500000 0.127332 0.392195
#
# Coordination Sequence:
#
# PCOD9572988 Si02
#       5
#    16  32  32  32  32
#     4   9  18  34  58  86 112 146 192 234 283 348
#     4   9  18  36  57  79 112 151 183 231 291 344
#     4  10  21  37  56  82 115 148 188 237 284 334
#     4  10  20  36  58  85 113 152 196 233 279 343
#     4  10  21  38  59  81 111 153 193 234 287 346
#
# _framework density 19.594252000000001
#
# number of rings (size 3 to 8) (size 9 to 14) (size 15 to 20)
#    0.000    2.333    2.222    0.000    0.000    5.333 
#    8.000    3.333    0.000    4.000    0.000    0.000 
#    0.000    0.000    0.000    0.000    0.000    0.000 
#
# Total GULP energy -401242.986691 kJ/mol
# GULP energy per Si atom -5572.819260 kJ/mol
# Density = 1.954965 g / cm^3
# Si number density = 19.594252 Si / 1000 Ang^3
#
#
#
# Elastic Constant Matrix: (Units=GPa)
#
#
# Indices 1 2 3 4 5 6 
#
# 1 32.9775 -1.6645 7.4617 0.0000 0.0000 0.0000
# 2 -1.6645 32.9776 7.4613 0.0000 0.0000 0.0000
# 3 7.4617 7.4613 143.1303 0.0000 0.0000 0.0000
# 4 0.0000 0.0000 0.0000 18.8129 0.0000 0.0000
# 5 0.0000 0.0000 0.0000 0.0000 18.8137 0.0000
# 6 0.0000 0.0000 0.0000 0.0000 0.0000 12.3237
#
#
#
# Elastic Compliance Matrix: (Units=1/GPa)
#
#
# Indices 1 2 3 4 5 6 
#
# 1 0.030808 0.001941 -0.001707 0.000000 0.000000 0.000000
# 2 0.001941 0.030808 -0.001707 0.000000 0.000000 0.000000
# 3 -0.001707 -0.001707 0.007165 0.000000 0.000000 0.000000
# 4 0.000000 0.000000 0.000000 0.053155 0.000000 0.000000
# 5 0.000000 0.000000 0.000000 0.000000 0.053153 0.000000
# 6 0.000000 0.000000 0.000000 0.000000 0.000000 0.081145
#
#
# Mechanical properties :
#
#
# Convention : Reuss Voigt Hill
#
# Bulk Modulus (GPa) = 15.18968 26.17802 20.68385
# Shear Modulus (GPa) = 17.78575 23.04518 20.41546
#
# Velocity S-wave (km/s) = 3.01608 3.43318 3.23137
# Velocity P-wave (km/s) = 4.46071 5.39488 4.94988
#
# Compressibility (1/GPa) = 0.06583418
#
# Stress axis : x y z
#
# Youngs Moduli (GPa) = 32.45908 32.45921 139.57434
#
# Poissons Ratio (x) = -0.06301 0.23829
# Poissons Ratio (y) = -0.06301 0.23828
# Poissons Ratio (z) = 0.05542 0.05541
#
# Static dielectric constant tensor:
#      x y z
#    x 1.691630 0.000000 0.000000 
#    y 0.000000 1.691640 0.000000 
#    z 0.000000 0.000000 1.735950 
# 
# From -- ./inp_files/10322.got.cif
#   From: 2010.05.17/outbox.cif.g08.bks.cpg/sg141_6_cif.got.tgz:10322.got - 2010.05.20 13:30:51.
