data_PCOD9572427
_publ_section_title
;
Structure prediction by ZEFSAII (Michael W. Deem and Ramdas Pophale) SiO2 
 PCOD9572427
Probable space group: I 4/M C M
;
_chemical_formula_sum "Si O2"
_cell_formula_units_Z 80
_cell_length_a 16.222028
_cell_length_b 16.222028
_cell_length_c 15.627964
_cell_angle_alpha 90.000000
_cell_angle_beta 90.000000
_cell_angle_gamma 90.000000
_cell_volume 4112.564246
_symmetry_space_group_name_H-M "I 4/M C M"
_symmetry_group_IT_number 140
_symmetry_cell_setting 'tetragonal'
loop_
_space_group_symop_operation_xyz
x,y,z
-y,x,z
-x,-y,z
y,-x,z
x,-y,1/2-z
-x,y,1/2-z
y,x,1/2-z
-y,-x,1/2-z
-x,-y,-z
y,-x,-z
x,y,-z
-y,x,-z
-x,y,1/2+z
x,-y,1/2+z
-y,-x,1/2+z
y,x,1/2+z
1/2+x,1/2+y,1/2+z
1/2-y,1/2+x,1/2+z
1/2-x,1/2-y,1/2+z
1/2+y,1/2-x,1/2+z
1/2+x,1/2-y,-z
1/2-x,1/2+y,-z
1/2+y,1/2+x,-z
1/2-y,1/2-x,-z
1/2-x,1/2-y,1/2-z
1/2+y,1/2-x,1/2-z
1/2+x,1/2+y,1/2-z
1/2-y,1/2+x,1/2-z
1/2-x,1/2+y,z
1/2+x,1/2-y,z
1/2-y,1/2-x,z
1/2+y,1/2+x,z
loop_
_atom_site_type_symbol
_atom_site_label
_atom_site_fract_x
_atom_site_fract_y
_atom_site_fract_z
Si Si1 0.085176 0.101934 0.147334
Si Si2 0.000000 0.361132 0.750000
Si Si3 0.914763 0.275530 0.404835
O O1 0.096232 0.096232 0.250000
O O2 0.123455 0.185672 0.113679
O O3 0.989103 0.111350 0.119889
O O4 0.922320 0.422320 0.766615
O O5 0.977583 0.303518 0.669490
O O6 0.951768 0.276595 0.500000
O O7 0.842912 0.342912 0.402769
#
# Coordination Sequence:
#
# PCOD9572427 Si02
#       3
#    32  16  32
#     4   9  18  34  56  79 104 139 180 217 259 317
#     4   9  18  34  56  79 106 146 190 227 270 326
#     4  10  21  36  55  82 114 144 179 228 279 323
#
# _framework density 19.452584999999999
#
# number of rings (size 3 to 8) (size 9 to 14) (size 15 to 20)
#    0.000    2.600    0.000    3.600    0.000    3.200 
#    0.000    8.000    0.000    0.000    0.000    0.000 
#    0.000    0.000    0.000    0.000    0.000    0.000 
#
# Total GULP energy -222804.315008 kJ/mol
# GULP energy per Si atom -5570.107875 kJ/mol
# Density = 1.940831 g / cm^3
# Si number density = 19.452585 Si / 1000 Ang^3
#
#
#
# Elastic Constant Matrix: (Units=GPa)
#
#
# Indices 1 2 3 4 5 6 
#
# 1 66.5351 -5.5790 44.3470 0.0000 0.0000 0.0000
# 2 -5.5790 66.5351 44.3470 0.0000 0.0000 0.0000
# 3 44.3470 44.3470 124.5570 0.0000 0.0000 0.0000
# 4 0.0000 0.0000 0.0000 16.5709 0.0000 0.0000
# 5 0.0000 0.0000 0.0000 0.0000 16.5709 0.0000
# 6 0.0000 0.0000 0.0000 0.0000 0.0000 -0.2762
#
#
#
# Elastic Compliance Matrix: (Units=1/GPa)
#
#
# Indices 1 2 3 4 5 6 
#
# 1 0.023953 0.010086 -0.012119 0.000000 0.000000 0.000000
# 2 0.010086 0.023953 -0.012119 0.000000 0.000000 0.000000
# 3 -0.012119 -0.012119 0.016658 0.000000 0.000000 0.000000
# 4 0.000000 0.000000 0.000000 0.060347 0.000000 0.000000
# 5 0.000000 0.000000 0.000000 0.000000 0.060347 0.000000
# 6 0.000000 0.000000 0.000000 0.000000 0.000000 -3.620785
#
#
# Mechanical properties :
#
#
# Convention : Reuss Voigt Hill
#
# Bulk Modulus (GPa) = 27.57864 47.09523 37.33693
# Shear Modulus (GPa) = -1.47270 18.20729 8.36730
#
# Velocity S-wave (km/s) = -0.87104 3.06270 2.07623
# Velocity P-wave (km/s) = 3.63270 6.06380 4.99831
#
# Compressibility (1/GPa) = 0.03625995
#
# Stress axis : x y z
#
# Youngs Moduli (GPa) = 41.74807 41.74807 60.02995
#
# Poissons Ratio (x) = -0.42108 0.72752
# Poissons Ratio (y) = -0.42108 0.72752
# Poissons Ratio (z) = 0.50596 0.50596
#
# Static dielectric constant tensor:
#      x y z
#    x 1.680600 0.000000 0.000000 
#    y 0.000000 1.680600 0.000000 
#    z 0.000000 0.000000 1.706390 
# 
# From -- ./inp_files/3881.got.cif
#   From: 2010.05.17/outbox.cif.g08.bks.cpg/sg140_2_cif.got.tgz:3881.got - 2010.06.21 00:45:31.
