data_PCOD9572656
_publ_section_title
;
Structure prediction by ZEFSAII (Michael W. Deem and Ramdas Pophale) SiO2 
 PCOD9572656
Probable space group: I 4/M C M
;
_chemical_formula_sum "Si O2"
_cell_formula_units_Z 192
_cell_length_a 20.224781
_cell_length_b 20.224781
_cell_length_c 23.922229
_cell_angle_alpha 90.000000
_cell_angle_beta 90.000000
_cell_angle_gamma 90.000000
_cell_volume 9785.190809
_symmetry_space_group_name_H-M "I 4/M C M"
_symmetry_group_IT_number 140
_symmetry_cell_setting 'tetragonal'
loop_
_space_group_symop_operation_xyz
x,y,z
-y,x,z
-x,-y,z
y,-x,z
x,-y,1/2-z
-x,y,1/2-z
y,x,1/2-z
-y,-x,1/2-z
-x,-y,-z
y,-x,-z
x,y,-z
-y,x,-z
-x,y,1/2+z
x,-y,1/2+z
-y,-x,1/2+z
y,x,1/2+z
1/2+x,1/2+y,1/2+z
1/2-y,1/2+x,1/2+z
1/2-x,1/2-y,1/2+z
1/2+y,1/2-x,1/2+z
1/2+x,1/2-y,-z
1/2-x,1/2+y,-z
1/2+y,1/2+x,-z
1/2-y,1/2-x,-z
1/2-x,1/2-y,1/2-z
1/2+y,1/2-x,1/2-z
1/2+x,1/2+y,1/2-z
1/2-y,1/2+x,1/2-z
1/2-x,1/2+y,z
1/2+x,1/2-y,z
1/2-y,1/2-x,z
1/2+y,1/2+x,z
loop_
_atom_site_type_symbol
_atom_site_label
_atom_site_fract_x
_atom_site_fract_y
_atom_site_fract_z
Si Si1 0.795186 0.295186 0.067812
Si Si2 0.079127 0.218099 0.566070
Si Si3 0.315532 0.815532 0.067341
Si Si4 0.263777 0.051293 0.372341
Si Si5 0.496654 0.893877 0.316883
Si Si6 0.643693 0.565633 0.210755
Si Si7 0.428623 0.576998 0.597213
O O1 0.866294 0.269784 0.088036
O O2 0.739900 0.239900 0.079794
O O3 0.799104 0.299104 0.000000
O O4 0.073865 0.225382 0.500000
O O5 0.106276 0.144077 0.578760
O O6 0.007070 0.229693 0.591994
O O7 0.289880 0.884876 0.093741
O O8 0.321997 0.821997 0.000000
O O9 0.210967 0.069991 0.324372
O O10 0.326335 0.015676 0.345030
O O11 0.500000 0.886844 0.250000
O O12 0.426385 0.926385 0.331788
O O13 0.552213 0.947788 0.332401
O O14 0.643296 0.500000 0.250000
O O15 0.627681 0.627681 0.250000
O O16 0.586013 0.568033 0.163402
O O17 0.411613 0.503859 0.577189
#
# Coordination Sequence:
#
# PCOD9572656 Si02
#       7
#    16  32  16  32  32  32  32
#     4   9  22  42  64  87 124 179 215 258 337 392
#     4  11  24  42  64  94 133 173 226 282 331 396
#     4  11  24  44  70  93 132 181 225 278 332 392
#     4  12  23  41  66 100 130 171 231 268 338 402
#     4   9  19  38  65  94 126 166 212 266 328 389
#     4  12  23  39  64  95 133 168 210 266 337 406
#     4  11  22  39  61  92 122 167 219 264 330 392
#
# _framework density 19.621487999999999
#
# number of rings (size 3 to 8) (size 9 to 14) (size 15 to 20)
#    0.000    1.167    4.167    2.500    1.167    0.833 
#    0.000    1.250    0.000    0.500    0.000    0.000 
#    0.000    0.000    0.000    0.000    0.000    0.000 
#
# Total GULP energy -535304.661369 kJ/mol
# GULP energy per Si atom -5576.090223 kJ/mol
# Density = 1.957683 g / cm^3
# Si number density = 19.621488 Si / 1000 Ang^3
#
#
#
# Elastic Constant Matrix: (Units=GPa)
#
#
# Indices 1 2 3 4 5 6 
#
# 1 121.5304 59.0168 46.4638 0.0000 0.0000 0.0000
# 2 59.0168 121.5304 46.4638 0.0000 0.0000 0.0000
# 3 46.4638 46.4638 65.4815 0.0000 0.0000 0.0000
# 4 0.0000 0.0000 0.0000 22.9592 0.0000 0.0000
# 5 0.0000 0.0000 0.0000 0.0000 22.9592 0.0000
# 6 0.0000 0.0000 0.0000 0.0000 0.0000 24.6332
#
#
#
# Elastic Compliance Matrix: (Units=1/GPa)
#
#
# Indices 1 2 3 4 5 6 
#
# 1 0.012361 -0.003636 -0.006191 0.000000 0.000000 0.000000
# 2 -0.003636 0.012361 -0.006191 0.000000 0.000000 0.000000
# 3 -0.006191 -0.006191 0.024058 0.000000 0.000000 0.000000
# 4 0.000000 0.000000 0.000000 0.043556 0.000000 0.000000
# 5 0.000000 0.000000 0.000000 0.000000 0.043556 0.000000
# 6 0.000000 0.000000 0.000000 0.000000 0.000000 0.040596
#
#
# Mechanical properties :
#
#
# Convention : Reuss Voigt Hill
#
# Bulk Modulus (GPa) = 59.72491 68.04790 63.88640
# Shear Modulus (GPa) = 23.35315 24.55016 23.95166
#
# Velocity S-wave (km/s) = 3.45364 3.54105 3.49762
# Velocity P-wave (km/s) = 6.81235 7.17456 6.99580
#
# Compressibility (1/GPa) = 0.01674343
#
# Stress axis : x y z
#
# Youngs Moduli (GPa) = 80.89993 80.89993 41.56655
#
# Poissons Ratio (x) = 0.29412 0.25735
# Poissons Ratio (y) = 0.29412 0.25735
# Poissons Ratio (z) = 0.50087 0.50087
#
# Static dielectric constant tensor:
#      x y z
#    x 1.705180 0.000000 0.000000 
#    y 0.000000 1.705180 0.000000 
#    z 0.000000 0.000000 1.679800 
# 
# From -- ./inp_files/9827.got.cif
#   From: 2010.05.17/outbox.cif.g08.bks.cpg/sg140_5_cif.got.tgz:9827.got - 2010.06.21 00:45:31.
