data_PCOD9572853
_publ_section_title
;
Structure prediction by ZEFSAII (Michael W. Deem and Ramdas Pophale) SiO2 
 PCOD9572853
Probable space group: I 41/A M D
;
_chemical_formula_sum "Si O2"
_cell_formula_units_Z 192
_cell_length_a 17.757787
_cell_length_b 17.757787
_cell_length_c 33.568422
_cell_angle_alpha 90.000000
_cell_angle_beta 90.000000
_cell_angle_gamma 90.000000
_cell_volume 10585.432596
_symmetry_space_group_name_H-M "I 41/A M D"
_symmetry_group_IT_number 141
_space_group.IT_coordinate_system_code '2'
_symmetry_cell_setting 'tetragonal'
loop_
_space_group_symop_operation_xyz
x,y,z
1/4-y,3/4+x,1/4+z
-x,1/2-y,z
1/4+y,1/4-x,3/4+z
x,-y,-z
-x,1/2+y,-z
1/4+y,3/4+x,1/4-z
1/4-y,1/4-x,3/4-z
-x,-y,-z
3/4+y,1/4-x,3/4-z
x,1/2+y,-z
3/4-y,3/4+x,1/4-z
-x,y,z
x,1/2-y,z
3/4-y,1/4-x,3/4+z
3/4+y,3/4+x,1/4+z
1/2+x,1/2+y,1/2+z
3/4-y,1/4+x,3/4+z
1/2-x,-y,1/2+z
3/4+y,3/4-x,1/4+z
1/2+x,1/2-y,1/2-z
1/2-x,y,1/2-z
3/4+y,1/4+x,3/4-z
3/4-y,3/4-x,1/4-z
1/2-x,1/2-y,1/2-z
1/4+y,3/4-x,1/4-z
1/2+x,y,1/2-z
1/4-y,1/4+x,3/4-z
1/2-x,1/2+y,1/2+z
1/2+x,-y,1/2+z
1/4-y,3/4-x,1/4+z
1/4+y,1/4+x,3/4+z
loop_
_atom_site_type_symbol
_atom_site_label
_atom_site_fract_x
_atom_site_fract_y
_atom_site_fract_z
Si Si1 0.709597 0.013175 0.292640
Si Si2 0.327820 0.413132 0.831354
Si Si3 0.281447 0.750000 0.150151
Si Si4 0.087553 0.583664 0.416893
Si Si5 0.089044 0.250000 0.777583
Si Si6 0.622900 0.750000 0.364867
Si Si7 0.081256 0.750000 0.409359
Si Si8 0.331775 0.338657 0.500397
O O1 0.750000 0.007275 0.250000
O O2 0.704114 0.099920 0.305398
O O3 0.757930 0.969820 0.326070
O O4 0.632401 0.968024 0.283270
O O5 0.291795 0.329285 0.827248
O O6 0.375385 0.418067 0.872368
O O7 0.381817 0.432448 0.794209
O O8 0.208260 0.750000 0.121235
O O9 0.353421 0.750000 0.121978
O O10 0.085511 0.670910 0.431308
O O11 0.000000 0.557340 0.416572
O O12 0.135878 0.250000 0.817746
O O13 0.103021 0.171218 0.756390
O O14 0.000000 0.250000 0.789213
O O15 0.572635 0.677366 0.375000
O O16 0.000000 0.750000 0.387828
O O17 0.318898 0.250000 0.503720
#
# Coordination Sequence:
#
# PCOD9572853 Si02
#       8
#    32  32  16  32  16  16  16  32
#     4  10  22  36  53  82 115 143 181 234 284 348
#     4  10  20  37  54  83 110 144 189 237 280 335
#     4  10  20  30  54  76 102 148 186 234 280 322
#     4  10  20  36  58  79 107 141 184 232 284 339
#     4  10  19  33  49  73 101 153 191 232 266 316
#     4  11  22  36  46  68 111 148 195 236 269 332
#     4   8  18  32  47  76 101 125 170 222 271 315
#     4  10  21  35  56  77 112 152 192 231 287 338
#
# _framework density 18.138135999999999
#
# number of rings (size 3 to 8) (size 9 to 14) (size 15 to 20)
#    0.000    2.083    0.833    2.500    1.167    6.333 
#    0.000    5.833    0.000    0.000    0.000    0.000 
#    0.000    7.667    0.000    0.000    0.000    0.000 
#
# Total GULP energy -534638.811990 kJ/mol
# GULP energy per Si atom -5569.154292 kJ/mol
# Density = 1.809685 g / cm^3
# Si number density = 18.138136 Si / 1000 Ang^3
#
#
#
# Elastic Constant Matrix: (Units=GPa)
#
#
# Indices 1 2 3 4 5 6 
#
# 1 93.2234 55.4961 11.2548 0.0000 0.0000 0.0000
# 2 55.4961 93.2243 11.2544 0.0000 0.0000 0.0000
# 3 11.2548 11.2544 28.4242 0.0000 0.0000 0.0000
# 4 0.0000 0.0000 0.0000 17.1820 0.0000 0.0000
# 5 0.0000 0.0000 0.0000 0.0000 17.1829 0.0000
# 6 0.0000 0.0000 0.0000 0.0000 0.0000 26.7053
#
#
#
# Elastic Compliance Matrix: (Units=1/GPa)
#
#
# Indices 1 2 3 4 5 6 
#
# 1 0.016829 -0.009677 -0.002832 0.000000 0.000000 0.000000
# 2 -0.009677 0.016829 -0.002832 0.000000 0.000000 0.000000
# 3 -0.002832 -0.002832 0.037424 0.000000 0.000000 0.000000
# 4 0.000000 0.000000 0.000000 0.058201 0.000000 0.000000
# 5 0.000000 0.000000 0.000000 0.000000 0.058198 0.000000
# 6 0.000000 0.000000 0.000000 0.000000 0.000000 0.037446
#
#
# Mechanical properties :
#
#
# Convention : Reuss Voigt Hill
#
# Bulk Modulus (GPa) = 24.75189 41.20916 32.98052
# Shear Modulus (GPa) = 18.58220 21.33846 19.96033
#
# Velocity S-wave (km/s) = 3.20423 3.43365 3.32092
# Velocity P-wave (km/s) = 5.23119 6.20394 5.73822
#
# Compressibility (1/GPa) = 0.04040096
#
# Stress axis : x y z
#
# Youngs Moduli (GPa) = 59.42016 59.42093 26.72080
#
# Poissons Ratio (x) = 0.57499 0.07568
# Poissons Ratio (y) = 0.57498 0.07567
# Poissons Ratio (z) = 0.16830 0.16827
#
# Static dielectric constant tensor:
#      x y z
#    x 1.670460 0.000000 0.000000 
#    y 0.000000 1.670480 0.000000 
#    z 0.000000 0.000000 1.630780 
# 
# From -- ./inp_files/14505.got.cif
#   From: 2010.05.17/outbox.cif.g08.bks.cpg/sg141_8_cif.got.tgz:14505.got - 2010.05.20 13:30:51.
