data_PCOD9572575
_publ_section_title
;
Structure prediction by ZEFSAII (Michael W. Deem and Ramdas Pophale) SiO2 
 PCOD9572575
Probable space group: I 4/M C M
;
_chemical_formula_sum "Si O2"
_cell_formula_units_Z 100
_cell_length_a 14.194454
_cell_length_b 14.194454
_cell_length_c 21.035140
_cell_angle_alpha 90.000000
_cell_angle_beta 90.000000
_cell_angle_gamma 90.000000
_cell_volume 4238.213107
_symmetry_space_group_name_H-M "I 4/M C M"
_symmetry_group_IT_number 140
_symmetry_cell_setting 'tetragonal'
loop_
_space_group_symop_operation_xyz
x,y,z
-y,x,z
-x,-y,z
y,-x,z
x,-y,1/2-z
-x,y,1/2-z
y,x,1/2-z
-y,-x,1/2-z
-x,-y,-z
y,-x,-z
x,y,-z
-y,x,-z
-x,y,1/2+z
x,-y,1/2+z
-y,-x,1/2+z
y,x,1/2+z
1/2+x,1/2+y,1/2+z
1/2-y,1/2+x,1/2+z
1/2-x,1/2-y,1/2+z
1/2+y,1/2-x,1/2+z
1/2+x,1/2-y,-z
1/2-x,1/2+y,-z
1/2+y,1/2+x,-z
1/2-y,1/2-x,-z
1/2-x,1/2-y,1/2-z
1/2+y,1/2-x,1/2-z
1/2+x,1/2+y,1/2-z
1/2-y,1/2+x,1/2-z
1/2-x,1/2+y,z
1/2+x,1/2-y,z
1/2-y,1/2-x,z
1/2+y,1/2+x,z
loop_
_atom_site_type_symbol
_atom_site_label
_atom_site_fract_x
_atom_site_fract_y
_atom_site_fract_z
Si Si1 0.095759 0.404241 0.631286
Si Si2 0.752771 0.747230 0.848642
Si Si3 0.000000 0.500000 0.750000
Si Si4 0.611670 0.388923 0.000000
Si Si5 0.108466 0.114678 0.143427
Si Si6 0.391188 0.891188 0.075389
O O1 0.174975 0.325026 0.628561
O O2 0.063554 0.436447 0.702393
O O3 0.127789 0.500758 0.596492
O O4 0.829586 0.814953 0.816226
O O5 0.821457 0.678544 0.889272
O O6 0.627897 0.500239 0.000000
O O7 0.640121 0.359102 0.070451
O O8 0.996513 0.127216 0.151628
O O9 0.381504 0.881504 0.000000
#
# Coordination Sequence:
#
# PCOD9572575 Si02
#       6
#    16  16   4  16  32  16
#     4  10  22  46  67  90 124 169 230 285 331 399
#     4  12  22  32  54  91 120 156 208 267 319 386
#     4   8  20  48  82  88 112 176 228 294 364 376
#     4   7  12  25  40  54  84 136 196 232 254 316
#     4   9  18  32  46  67 106 156 201 247 293 356
#     4  10  23  40  57  87 137 183 211 257 333 415
#
# _framework density 23.594850999999998
#
# number of rings (size 3 to 8) (size 9 to 14) (size 15 to 20)
#    0.000    2.720    0.000    4.800    2.240    1.280 
#    5.760    3.200    0.000    0.000    0.000    0.000 
#    0.000   10.240    0.000    0.000    0.000    0.000 
#
# Total GULP energy -278696.991803 kJ/mol
# GULP energy per Si atom -5573.939836 kJ/mol
# Density = 2.354115 g / cm^3
# Si number density = 23.594851 Si / 1000 Ang^3
#
#
#
# Elastic Constant Matrix: (Units=GPa)
#
#
# Indices 1 2 3 4 5 6 
#
# 1 153.8077 123.1071 47.5385 0.0000 0.0000 0.0000
# 2 123.1071 153.8077 47.5385 0.0000 0.0000 0.0000
# 3 47.5385 47.5385 152.7531 0.0000 0.0000 0.0000
# 4 0.0000 0.0000 0.0000 256.5859 0.0000 0.0000
# 5 0.0000 0.0000 0.0000 0.0000 256.5859 0.0000
# 6 0.0000 0.0000 0.0000 0.0000 0.0000 68.3102
#
#
#
# Elastic Compliance Matrix: (Units=1/GPa)
#
#
# Indices 1 2 3 4 5 6 
#
# 1 0.018308 -0.014265 -0.001258 0.000000 0.000000 0.000000
# 2 -0.014265 0.018308 -0.001258 0.000000 0.000000 0.000000
# 3 -0.001258 -0.001258 0.007330 0.000000 0.000000 0.000000
# 4 0.000000 0.000000 0.000000 0.003897 0.000000 0.000000
# 5 0.000000 0.000000 0.000000 0.000000 0.003897 0.000000
# 6 0.000000 0.000000 0.000000 0.000000 0.000000 0.014639
#
#
# Mechanical properties :
#
#
# Convention : Reuss Voigt Hill
#
# Bulk Modulus (GPa) = 96.31141 99.63744 97.97443
# Shear Modulus (GPa) = 48.35445 132.44201 90.39823
#
# Velocity S-wave (km/s) = 4.53190 7.50024 6.19644
# Velocity P-wave (km/s) = 8.26387 10.83166 9.63371
#
# Compressibility (1/GPa) = 0.01038299
#
# Stress axis : x y z
#
# Youngs Moduli (GPa) = 54.62099 54.62099 136.43105
#
# Poissons Ratio (x) = 0.77915 0.17167
# Poissons Ratio (y) = 0.77915 0.17167
# Poissons Ratio (z) = 0.06873 0.06873
#
# Static dielectric constant tensor:
#      x y z
#    x 1.873480 0.000000 0.000000 
#    y 0.000000 1.873480 0.000000 
#    z 0.000000 0.000000 1.945770 
# 
# From -- ./inp_files/9008.got.cif
#   From: 2010.05.17/outbox.cif.g08.bks.cpg/sg140_5_cif.got.tgz:9008.got - 2010.06.21 00:45:31.
