data_PCOD9572037
_publ_section_title
;
Structure prediction by ZEFSAII (Michael W. Deem and Ramdas Pophale) SiO2 
 PCOD9572037
Probable space group: I 4/M C M
;
_chemical_formula_sum "Si O2"
_cell_formula_units_Z 160
_cell_length_a 32.608703
_cell_length_b 32.608703
_cell_length_c 8.734775
_cell_angle_alpha 90.000000
_cell_angle_beta 90.000000
_cell_angle_gamma 90.000000
_cell_volume 9287.926563
_symmetry_space_group_name_H-M "I 4/M C M"
_symmetry_group_IT_number 140
_symmetry_cell_setting 'tetragonal'
loop_
_space_group_symop_operation_xyz
x,y,z
-y,x,z
-x,-y,z
y,-x,z
x,-y,1/2-z
-x,y,1/2-z
y,x,1/2-z
-y,-x,1/2-z
-x,-y,-z
y,-x,-z
x,y,-z
-y,x,-z
-x,y,1/2+z
x,-y,1/2+z
-y,-x,1/2+z
y,x,1/2+z
1/2+x,1/2+y,1/2+z
1/2-y,1/2+x,1/2+z
1/2-x,1/2-y,1/2+z
1/2+y,1/2-x,1/2+z
1/2+x,1/2-y,-z
1/2-x,1/2+y,-z
1/2+y,1/2+x,-z
1/2-y,1/2-x,-z
1/2-x,1/2-y,1/2-z
1/2+y,1/2-x,1/2-z
1/2+x,1/2+y,1/2-z
1/2-y,1/2+x,1/2-z
1/2-x,1/2+y,z
1/2+x,1/2-y,z
1/2-y,1/2-x,z
1/2+y,1/2+x,z
loop_
_atom_site_type_symbol
_atom_site_label
_atom_site_fract_x
_atom_site_fract_y
_atom_site_fract_z
Si Si1 0.545055 0.167791 0.182884
Si Si2 0.669094 0.169094 0.180557
Si Si3 0.110774 0.260901 0.181446
Si Si4 0.393759 0.893759 0.679467
Si Si5 0.109562 0.171876 0.681860
Si Si6 0.608957 0.545484 0.816487
O O1 0.500000 0.173832 0.250000
O O2 0.575161 0.206126 0.221137
O O3 0.565904 0.126271 0.246472
O O4 0.543443 0.165417 0.000000
O O5 0.715153 0.153879 0.205168
O O6 0.640688 0.140688 0.285139
O O7 0.659444 0.159444 0.000000
O O8 0.108181 0.219463 0.275580
O O9 0.107088 0.251740 0.000000
O O10 0.399493 0.899493 0.500000
O O11 0.149961 0.149961 0.750000
O O12 0.108322 0.165572 0.500000
O O13 0.071620 0.147962 0.758934
O O14 0.610462 0.500000 0.750000
O O15 0.569832 0.569832 0.750000
O O16 0.607624 0.545153 0.000000
#
# Coordination Sequence:
#
# PCOD9572037 Si02
#       6
#    32  16  32  16  32  32
#     4  10  20  34  53  78 108 139 175 218 264 311
#     4   8  16  32  53  75 103 137 173 215 264 311
#     4   9  18  34  54  77 106 139 174 218 266 313
#     4  10  18  30  50  74 104 140 176 213 259 313
#     4  11  22  37  56  78 106 142 179 216 261 315
#     4  11  22  39  60  83 109 139 175 215 260 310
#
# _framework density 17.226665000000001
#
# number of rings (size 3 to 8) (size 9 to 14) (size 15 to 20)
#    0.000    2.000    0.000    7.500    0.000    5.000 
#    0.000    3.500    0.000    0.300    0.000    2.100 
#    0.000    0.000    0.000    0.000    0.000    0.000 
#
# Total GULP energy -446358.361640 kJ/mol
# GULP energy per Si atom -5579.479520 kJ/mol
# Density = 1.718746 g / cm^3
# Si number density = 17.226665 Si / 1000 Ang^3
#
#
#
# Elastic Constant Matrix: (Units=GPa)
#
#
# Indices 1 2 3 4 5 6 
#
# 1 56.9260 118.9066 62.3849 0.0000 0.0000 0.0000
# 2 118.9066 56.9260 62.3849 0.0000 0.0000 0.0000
# 3 62.3849 62.3849 131.8097 0.0000 0.0000 0.0000
# 4 0.0000 0.0000 0.0000 30.4886 0.0000 0.0000
# 5 0.0000 0.0000 0.0000 0.0000 30.4886 0.0000
# 6 0.0000 0.0000 0.0000 0.0000 0.0000 6.4578
#
#
#
# Elastic Compliance Matrix: (Units=1/GPa)
#
#
# Indices 1 2 3 4 5 6 
#
# 1 -0.003785 0.012349 -0.004053 0.000000 0.000000 0.000000
# 2 0.012349 -0.003785 -0.004053 0.000000 0.000000 0.000000
# 3 -0.004053 -0.004053 0.011423 0.000000 0.000000 0.000000
# 4 0.000000 0.000000 0.000000 0.032799 0.000000 0.000000
# 5 0.000000 0.000000 0.000000 0.000000 0.032799 0.000000
# 6 0.000000 0.000000 0.000000 0.000000 0.000000 0.154852
#
#
# Mechanical properties :
#
#
# Convention : Reuss Voigt Hill
#
# Bulk Modulus (GPa) = 81.05152 81.44604 81.24878
# Shear Modulus (GPa) = 22.73455 13.61935 18.17695
#
# Velocity S-wave (km/s) = 3.63675 2.81481 3.25185
# Velocity P-wave (km/s) = 8.04902 7.61222 7.83367
#
# Compressibility (1/GPa) = 0.01233783
#
# Stress axis : x y z
#
# Youngs Moduli (GPa) = -264.16812 -264.16812 87.54181
#
# Poissons Ratio (x) = 3.26211 0.35480
# Poissons Ratio (y) = 3.26211 0.35480
# Poissons Ratio (z) = -1.07064 -1.07064
#
# Static dielectric constant tensor:
#      x y z
#    x 1.577380 0.000000 0.000000 
#    y 0.000000 1.577380 0.000000 
#    z 0.000000 0.000000 1.577230 
# 
# From -- ./inp_files/1865.got.cif
#   From: 2010.05.17/outbox.cif.g08.bks.cpg/sg140_1_cif.got.tgz:1865.got - 2010.06.21 00:45:31.
