data_PCOD9572910
_publ_section_title
;
Structure prediction by ZEFSAII (Michael W. Deem and Ramdas Pophale) SiO2 
 PCOD9572910
Probable space group: I 41/A M D
;
_chemical_formula_sum "Si O2"
_cell_formula_units_Z 112
_cell_length_a 19.959714
_cell_length_b 19.959714
_cell_length_c 14.839993
_cell_angle_alpha 90.000000
_cell_angle_beta 90.000000
_cell_angle_gamma 90.000000
_cell_volume 5912.107526
_symmetry_space_group_name_H-M "I 41/A M D"
_symmetry_group_IT_number 141
_space_group.IT_coordinate_system_code '2'
_symmetry_cell_setting 'tetragonal'
loop_
_space_group_symop_operation_xyz
x,y,z
1/4-y,3/4+x,1/4+z
-x,1/2-y,z
1/4+y,1/4-x,3/4+z
x,-y,-z
-x,1/2+y,-z
1/4+y,3/4+x,1/4-z
1/4-y,1/4-x,3/4-z
-x,-y,-z
3/4+y,1/4-x,3/4-z
x,1/2+y,-z
3/4-y,3/4+x,1/4-z
-x,y,z
x,1/2-y,z
3/4-y,1/4-x,3/4+z
3/4+y,3/4+x,1/4+z
1/2+x,1/2+y,1/2+z
3/4-y,1/4+x,3/4+z
1/2-x,-y,1/2+z
3/4+y,3/4-x,1/4+z
1/2+x,1/2-y,1/2-z
1/2-x,y,1/2-z
3/4+y,1/4+x,3/4-z
3/4-y,3/4-x,1/4-z
1/2-x,1/2-y,1/2-z
1/4+y,3/4-x,1/4-z
1/2+x,y,1/2-z
1/4-y,1/4+x,3/4-z
1/2-x,1/2+y,1/2+z
1/2+x,-y,1/2+z
1/4-y,3/4-x,1/4+z
1/4+y,1/4+x,3/4+z
loop_
_atom_site_type_symbol
_atom_site_label
_atom_site_fract_x
_atom_site_fract_y
_atom_site_fract_z
Si Si1 0.500000 0.421127 0.481582
Si Si2 0.500000 0.899387 0.323737
Si Si3 0.358520 0.029745 0.704046
Si Si4 0.642078 0.115908 0.877783
Si Si5 0.500000 0.831515 0.132249
O O1 0.500000 0.500000 0.500000
O O2 0.500000 0.376683 0.572505
O O3 0.434258 0.406868 0.425748
O O4 0.433535 0.944217 0.316503
O O5 0.500000 0.848114 0.240311
O O6 0.312436 0.062436 0.625000
O O7 0.345908 0.058868 0.802840
O O8 0.355796 0.949751 0.700716
O O9 0.565586 0.129846 0.905715
O O10 0.500000 0.750000 0.118687
#
# Coordination Sequence:
#
# PCOD9572910 Si02
#       5
#    16  16  32  32  16
#     4  12  16  29  42  63  96 133 163 188 218 267
#     4  10  20  28  41  62  94 134 169 192 220 264
#     4  11  19  31  46  67  94 129 170 202 238 282
#     4  11  21  32  47  68  98 134 172 204 239 284
#     4  10  22  34  44  65  96 138 174 202 224 274
#
# _framework density 18.944174
#
# number of rings (size 3 to 8) (size 9 to 14) (size 15 to 20)
#    0.000    1.143    7.143    0.857    0.000    0.000 
#    2.571    0.000    0.000    0.000    0.000    4.000 
#    0.000    0.000    0.000    0.000    0.000    0.000 
#
# Total GULP energy -312374.892989 kJ/mol
# GULP energy per Si atom -5578.123089 kJ/mol
# Density = 1.890106 g / cm^3
# Si number density = 18.944174 Si / 1000 Ang^3
#
#
#
# Elastic Constant Matrix: (Units=GPa)
#
#
# Indices 1 2 3 4 5 6 
#
# 1 126.3283 29.0607 17.1532 0.0000 0.0000 0.0000
# 2 29.0607 126.3283 17.1532 0.0000 0.0000 0.0000
# 3 17.1532 17.1532 19.9688 0.0000 0.0000 0.0000
# 4 0.0000 0.0000 0.0000 58.3080 0.0000 0.0000
# 5 0.0000 0.0000 0.0000 0.0000 58.3080 0.0000
# 6 0.0000 0.0000 0.0000 0.0000 0.0000 -41.4159
#
#
#
# Elastic Compliance Matrix: (Units=1/GPa)
#
#
# Indices 1 2 3 4 5 6 
#
# 1 0.009111 -0.001170 -0.006822 0.000000 0.000000 0.000000
# 2 -0.001170 0.009111 -0.006822 0.000000 0.000000 0.000000
# 3 -0.006822 -0.006822 0.061798 0.000000 0.000000 0.000000
# 4 0.000000 0.000000 0.000000 0.017150 0.000000 0.000000
# 5 0.000000 0.000000 0.000000 0.000000 0.017150 0.000000
# 6 0.000000 0.000000 0.000000 0.000000 0.000000 -0.024145
#
#
# Mechanical properties :
#
#
# Convention : Reuss Voigt Hill
#
# Bulk Modulus (GPa) = 19.84372 44.37331 32.10852
# Shear Modulus (GPa) = 36.60319 28.99055 32.79687
#
# Velocity S-wave (km/s) = 4.40040 3.91617 4.16533
# Velocity P-wave (km/s) = 6.02625 6.62741 6.33396
#
# Compressibility (1/GPa) = 0.05039377
#
# Stress axis : x y z
#
# Youngs Moduli (GPa) = 109.75455 109.75455 16.18179
#
# Poissons Ratio (x) = 0.12838 0.11039
# Poissons Ratio (y) = 0.12838 0.11039
# Poissons Ratio (z) = 0.74872 0.74872
#
# Static dielectric constant tensor:
#      x y z
#    x 1.718900 0.000000 0.000000 
#    y 0.000000 1.718900 0.000000 
#    z 0.000000 0.000000 1.646890 
# 
# From -- ./inp_files/7983.got.cif
#   From: 2010.05.17/outbox.cif.g08.bks.cpg/sg141_4_cif.got.tgz:7983.got - 2010.05.20 13:30:51.
