data_PCOD9572433
_publ_section_title
;
Structure prediction by ZEFSAII (Michael W. Deem and Ramdas Pophale) SiO2 
 PCOD9572433
Probable space group: I 4/M C M
;
_chemical_formula_sum "Si O2"
_cell_formula_units_Z 176
_cell_length_a 20.065798
_cell_length_b 20.065798
_cell_length_c 25.634963
_cell_angle_alpha 90.000000
_cell_angle_beta 90.000000
_cell_angle_gamma 90.000000
_cell_volume 10321.565355
_symmetry_space_group_name_H-M "I 4/M C M"
_symmetry_group_IT_number 140
_symmetry_cell_setting 'tetragonal'
loop_
_space_group_symop_operation_xyz
x,y,z
-y,x,z
-x,-y,z
y,-x,z
x,-y,1/2-z
-x,y,1/2-z
y,x,1/2-z
-y,-x,1/2-z
-x,-y,-z
y,-x,-z
x,y,-z
-y,x,-z
-x,y,1/2+z
x,-y,1/2+z
-y,-x,1/2+z
y,x,1/2+z
1/2+x,1/2+y,1/2+z
1/2-y,1/2+x,1/2+z
1/2-x,1/2-y,1/2+z
1/2+y,1/2-x,1/2+z
1/2+x,1/2-y,-z
1/2-x,1/2+y,-z
1/2+y,1/2+x,-z
1/2-y,1/2-x,-z
1/2-x,1/2-y,1/2-z
1/2+y,1/2-x,1/2-z
1/2+x,1/2+y,1/2-z
1/2-y,1/2+x,1/2-z
1/2-x,1/2+y,z
1/2+x,1/2-y,z
1/2-y,1/2-x,z
1/2+y,1/2+x,z
loop_
_atom_site_type_symbol
_atom_site_label
_atom_site_fract_x
_atom_site_fract_y
_atom_site_fract_z
Si Si1 0.137367 0.748262 0.389451
Si Si2 0.491984 0.789962 0.594305
Si Si3 0.950131 0.661627 0.705592
Si Si4 0.109038 0.502849 0.500000
Si Si5 0.244372 0.142687 0.734228
Si Si6 0.758450 0.851061 0.062660
O O1 0.180363 0.680363 0.399051
O O2 0.129266 0.755650 0.327226
O O3 0.182340 0.807617 0.412459
O O4 0.063224 0.745506 0.412086
O O5 0.486656 0.821028 0.651998
O O6 0.491118 0.846993 0.550851
O O7 0.425418 0.746809 0.584929
O O8 0.892246 0.607755 0.695770
O O9 0.917180 0.728222 0.730626
O O10 0.000000 0.635494 0.750000
O O11 0.050932 0.449069 0.500000
O O12 0.075370 0.575370 0.500000
O O13 0.173888 0.173888 0.750000
O O14 0.299535 0.200466 0.742618
O O15 0.690310 0.809691 0.074735
O O16 0.765097 0.853115 0.000000
#
# Coordination Sequence:
#
# PCOD9572433 Si02
#       6
#    32  32  32  16  32  32
#     4  10  21  36  57  86 115 147 193 246 292 339
#     4  12  22  38  60  83 116 154 195 244 292 348
#     4  11  22  35  53  80 116 156 194 230 280 346
#     4  11  24  38  54  80 114 157 200 236 284 345
#     4   9  17  33  55  79 108 143 185 234 289 339
#     4  10  21  37  58  84 113 151 198 244 293 346
#
# _framework density 17.051677000000002
#
# number of rings (size 3 to 8) (size 9 to 14) (size 15 to 20)
#    0.000    1.545    2.727    3.273    1.273    3.818 
#    0.000    0.000    0.000    0.545    0.000    1.273 
#    0.000    0.364    0.000    0.000    0.000    0.000 
#
# Total GULP energy -491147.167490 kJ/mol
# GULP energy per Si atom -5581.217812 kJ/mol
# Density = 1.701287 g / cm^3
# Si number density = 17.051677 Si / 1000 Ang^3
#
#
#
# Elastic Constant Matrix: (Units=GPa)
#
#
# Indices 1 2 3 4 5 6 
#
# 1 92.6883 45.5175 29.2892 0.0000 0.0000 0.0000
# 2 45.5175 92.6875 29.2890 0.0000 0.0000 0.0000
# 3 29.2892 29.2890 85.7843 0.0000 0.0000 0.0000
# 4 0.0000 0.0000 0.0000 21.3134 0.0000 0.0000
# 5 0.0000 0.0000 0.0000 0.0000 21.3137 0.0000
# 6 0.0000 0.0000 0.0000 0.0000 0.0000 19.9073
#
#
#
# Elastic Compliance Matrix: (Units=1/GPa)
#
#
# Indices 1 2 3 4 5 6 
#
# 1 0.014830 -0.006370 -0.002888 0.000000 0.000000 0.000000
# 2 -0.006370 0.014830 -0.002888 0.000000 0.000000 0.000000
# 3 -0.002888 -0.002888 0.013630 0.000000 0.000000 0.000000
# 4 0.000000 0.000000 0.000000 0.046919 0.000000 0.000000
# 5 0.000000 0.000000 0.000000 0.000000 0.046918 0.000000
# 6 0.000000 0.000000 0.000000 0.000000 0.000000 0.050233
#
#
# Mechanical properties :
#
#
# Convention : Reuss Voigt Hill
#
# Bulk Modulus (GPa) = 52.64395 53.26129 52.95262
# Shear Modulus (GPa) = 22.93739 23.64448 23.29093
#
# Velocity S-wave (km/s) = 3.67163 3.72780 3.69982
# Velocity P-wave (km/s) = 6.99391 7.05915 7.02661
#
# Compressibility (1/GPa) = 0.01899553
#
# Stress axis : x y z
#
# Youngs Moduli (GPa) = 67.43202 67.43145 73.37011
#
# Poissons Ratio (x) = 0.42953 0.21192
# Poissons Ratio (y) = 0.42954 0.21192
# Poissons Ratio (z) = 0.19477 0.19477
#
# Static dielectric constant tensor:
#      x y z
#    x 1.581020 0.000000 0.000000 
#    y 0.000000 1.581020 0.000000 
#    z 0.000000 0.000000 1.562660 
# 
# From -- ./inp_files/10694.got.cif
#   From: 2010.05.17/outbox.cif.g08.bks.cpg/sg140_6_cif.got.tgz:10694.got - 2010.06.21 00:45:31.
