data_PCOD9572466
_publ_section_title
;
Structure prediction by ZEFSAII (Michael W. Deem and Ramdas Pophale) SiO2 
 PCOD9572466
Probable space group: I 4/M C M
;
_chemical_formula_sum "Si O2"
_cell_formula_units_Z 160
_cell_length_a 21.934407
_cell_length_b 21.934407
_cell_length_c 17.103768
_cell_angle_alpha 90.000000
_cell_angle_beta 90.000000
_cell_angle_gamma 90.000000
_cell_volume 8228.934252
_symmetry_space_group_name_H-M "I 4/M C M"
_symmetry_group_IT_number 140
_symmetry_cell_setting 'tetragonal'
loop_
_space_group_symop_operation_xyz
x,y,z
-y,x,z
-x,-y,z
y,-x,z
x,-y,1/2-z
-x,y,1/2-z
y,x,1/2-z
-y,-x,1/2-z
-x,-y,-z
y,-x,-z
x,y,-z
-y,x,-z
-x,y,1/2+z
x,-y,1/2+z
-y,-x,1/2+z
y,x,1/2+z
1/2+x,1/2+y,1/2+z
1/2-y,1/2+x,1/2+z
1/2-x,1/2-y,1/2+z
1/2+y,1/2-x,1/2+z
1/2+x,1/2-y,-z
1/2-x,1/2+y,-z
1/2+y,1/2+x,-z
1/2-y,1/2-x,-z
1/2-x,1/2-y,1/2-z
1/2+y,1/2-x,1/2-z
1/2+x,1/2+y,1/2-z
1/2-y,1/2+x,1/2-z
1/2-x,1/2+y,z
1/2+x,1/2-y,z
1/2-y,1/2-x,z
1/2+y,1/2+x,z
loop_
_atom_site_type_symbol
_atom_site_label
_atom_site_fract_x
_atom_site_fract_y
_atom_site_fract_z
Si Si1 0.260422 0.498918 0.587849
Si Si2 0.301780 0.098268 0.177013
Si Si3 0.184040 0.212516 0.587995
Si Si4 0.776911 0.623802 0.143229
Si Si5 0.501572 0.398657 0.344474
O O1 0.258660 0.473539 0.500000
O O2 0.208917 0.468129 0.642902
O O3 0.238372 0.568372 0.587931
O O4 0.330464 0.496339 0.619682
O O5 0.363106 0.136895 0.158217
O O6 0.245296 0.130370 0.132917
O O7 0.291905 0.102647 0.269287
O O8 0.169777 0.190877 0.500000
O O9 0.235120 0.264881 0.580469
O O10 0.214816 0.162488 0.642241
O O11 0.831379 0.668622 0.116971
O O12 0.560409 0.441391 0.365379
O O13 0.500000 0.392506 0.250000
#
# Coordination Sequence:
#
# PCOD9572466 Si02
#       5
#    32  32  32  32  32
#     4  12  25  37  57  87 119 154 191 239 295 348
#     4  10  21  38  59  82 111 149 193 238 286 343
#     4   9  17  31  53  81 112 143 178 227 287 341
#     4  10  21  38  59  82 111 149 193 238 286 343
#     4   9  20  40  62  82 111 155 203 245 284 333
#
# _framework density 19.443587000000001
#
# number of rings (size 3 to 8) (size 9 to 14) (size 15 to 20)
#    0.000    2.000    0.000    4.200    2.800    5.600 
#    0.000    1.000    0.000    0.600    0.000    4.200 
#    0.000    0.000    0.000    0.000    0.000    0.000 
#
# Total GULP energy -445841.264352 kJ/mol
# GULP energy per Si atom -5573.015804 kJ/mol
# Density = 1.939933 g / cm^3
# Si number density = 19.443587 Si / 1000 Ang^3
#
#
#
# Elastic Constant Matrix: (Units=GPa)
#
#
# Indices 1 2 3 4 5 6 
#
# 1 56.6164 17.8182 19.0511 0.0000 0.0000 0.0000
# 2 17.8182 56.6164 19.0511 0.0000 0.0000 0.0000
# 3 19.0511 19.0511 60.0969 0.0000 0.0000 0.0000
# 4 0.0000 0.0000 0.0000 28.1432 0.0000 0.0000
# 5 0.0000 0.0000 0.0000 0.0000 28.1432 0.0000
# 6 0.0000 0.0000 0.0000 0.0000 0.0000 20.4780
#
#
#
# Elastic Compliance Matrix: (Units=1/GPa)
#
#
# Indices 1 2 3 4 5 6 
#
# 1 0.020906 -0.004869 -0.005084 0.000000 0.000000 0.000000
# 2 -0.004869 0.020906 -0.005084 0.000000 0.000000 0.000000
# 3 -0.005084 -0.005084 0.019863 0.000000 0.000000 0.000000
# 4 0.000000 0.000000 0.000000 0.035533 0.000000 0.000000
# 5 0.000000 0.000000 0.000000 0.000000 0.035533 0.000000
# 6 0.000000 0.000000 0.000000 0.000000 0.000000 0.048833
#
#
# Mechanical properties :
#
#
# Convention : Reuss Voigt Hill
#
# Bulk Modulus (GPa) = 31.64392 31.68561 31.66477
# Shear Modulus (GPa) = 22.50440 23.18019 22.84229
#
# Velocity S-wave (km/s) = 3.40578 3.45654 3.43125
# Velocity P-wave (km/s) = 5.63701 5.67994 5.65852
#
# Compressibility (1/GPa) = 0.03160164
#
# Stress axis : x y z
#
# Youngs Moduli (GPa) = 47.83391 47.83391 50.34487
#
# Poissons Ratio (x) = 0.23289 0.25594
# Poissons Ratio (y) = 0.23289 0.25594
# Poissons Ratio (z) = 0.24318 0.24318
#
# Static dielectric constant tensor:
#      x y z
#    x 1.736940 0.000000 0.000000 
#    y 0.000000 1.736940 0.000000 
#    z 0.000000 0.000000 1.665650 
# 
# From -- ./inp_files/6787.got.cif
#   From: 2010.05.17/outbox.cif.g08.bks.cpg/sg140_4_cif.got.tgz:6787.got - 2010.06.21 00:45:31.
