data_PCOD9572933
_publ_section_title
;
Structure prediction by ZEFSAII (Michael W. Deem and Ramdas Pophale) SiO2 
 PCOD9572933
Probable space group: I 41/A M D
;
_chemical_formula_sum "Si O2"
_cell_formula_units_Z 192
_cell_length_a 28.040900
_cell_length_b 28.040900
_cell_length_c 15.179231
_cell_angle_alpha 90.000000
_cell_angle_beta 90.000000
_cell_angle_gamma 90.000000
_cell_volume 11935.309007
_symmetry_space_group_name_H-M "I 41/A M D"
_symmetry_group_IT_number 141
_space_group.IT_coordinate_system_code '2'
_symmetry_cell_setting 'tetragonal'
loop_
_space_group_symop_operation_xyz
x,y,z
1/4-y,3/4+x,1/4+z
-x,1/2-y,z
1/4+y,1/4-x,3/4+z
x,-y,-z
-x,1/2+y,-z
1/4+y,3/4+x,1/4-z
1/4-y,1/4-x,3/4-z
-x,-y,-z
3/4+y,1/4-x,3/4-z
x,1/2+y,-z
3/4-y,3/4+x,1/4-z
-x,y,z
x,1/2-y,z
3/4-y,1/4-x,3/4+z
3/4+y,3/4+x,1/4+z
1/2+x,1/2+y,1/2+z
3/4-y,1/4+x,3/4+z
1/2-x,-y,1/2+z
3/4+y,3/4-x,1/4+z
1/2+x,1/2-y,1/2-z
1/2-x,y,1/2-z
3/4+y,1/4+x,3/4-z
3/4-y,3/4-x,1/4-z
1/2-x,1/2-y,1/2-z
1/4+y,3/4-x,1/4-z
1/2+x,y,1/2-z
1/4-y,1/4+x,3/4-z
1/2-x,1/2+y,1/2+z
1/2+x,-y,1/2+z
1/4-y,3/4-x,1/4+z
1/4+y,1/4+x,3/4+z
loop_
_atom_site_type_symbol
_atom_site_label
_atom_site_fract_x
_atom_site_fract_y
_atom_site_fract_z
Si Si1 0.126726 0.307419 0.425771
Si Si2 0.268957 0.692040 0.845228
Si Si3 0.442056 0.962589 0.262518
Si Si4 0.442730 0.363660 0.384391
Si Si5 0.942810 0.645754 0.211040
Si Si6 0.441975 0.530678 0.582317
O O1 0.122703 0.250000 0.416110
O O2 0.085884 0.335884 0.375000
O O3 0.178551 0.321174 0.383806
O O4 0.118958 0.317806 0.530039
O O5 0.270174 0.750000 0.842274
O O6 0.250000 0.675600 0.750000
O O7 0.229334 0.677276 0.916228
O O8 0.500000 0.962540 0.264081
O O9 0.427483 0.909662 0.288796
O O10 0.426404 0.003330 0.330290
O O11 0.500000 0.358037 0.391867
O O12 0.418459 0.324467 0.446385
O O13 0.427726 0.414758 0.423700
O O14 0.921468 0.671468 0.125000
O O15 0.000000 0.648157 0.205916
O O16 0.426165 0.500000 0.500000
O O17 0.500000 0.531134 0.583603
#
# Coordination Sequence:
#
# PCOD9572933 Si02
#       6
#    32  32  32  32  32  32
#     4  10  21  35  51  73 104 138 173 209 248 304
#     4   9  17  31  52  74  96 124 162 215 272 310
#     4   9  17  31  49  71  95 124 165 216 266 304
#     4  10  20  34  49  69 100 138 174 208 246 294
#     4  11  23  35  49  72 105 143 182 216 248 297
#     4   9  15  27  49  70  90 120 159 206 260 302
#
# _framework density 16.086722000000002
#
# number of rings (size 3 to 8) (size 9 to 14) (size 15 to 20)
#    0.000    2.333    1.667    1.500    2.333    4.667 
#    0.000    1.667    0.000    0.000    0.000    0.000 
#    0.000   12.000    0.000    0.000    0.000    0.000 
#
# Total GULP energy -534465.837634 kJ/mol
# GULP energy per Si atom -5567.352475 kJ/mol
# Density = 1.605011 g / cm^3
# Si number density = 16.086722 Si / 1000 Ang^3
#
#
#
# Elastic Constant Matrix: (Units=GPa)
#
#
# Indices 1 2 3 4 5 6 
#
# 1 52.0852 17.7396 24.1545 0.0000 0.0000 0.0000
# 2 17.7396 52.0852 24.1545 0.0000 0.0000 0.0000
# 3 24.1545 24.1545 89.9118 0.0000 0.0000 0.0000
# 4 0.0000 0.0000 0.0000 22.8703 0.0000 0.0000
# 5 0.0000 0.0000 0.0000 0.0000 22.8703 0.0000
# 6 0.0000 0.0000 0.0000 0.0000 0.0000 -3.5520
#
#
#
# Elastic Compliance Matrix: (Units=1/GPa)
#
#
# Indices 1 2 3 4 5 6 
#
# 1 0.023353 -0.005762 -0.004726 0.000000 0.000000 0.000000
# 2 -0.005762 0.023353 -0.004726 0.000000 0.000000 0.000000
# 3 -0.004726 -0.004726 0.013661 0.000000 0.000000 0.000000
# 4 0.000000 0.000000 0.000000 0.043725 0.000000 0.000000
# 5 0.000000 0.000000 0.000000 0.000000 0.043725 0.000000
# 6 0.000000 0.000000 0.000000 0.000000 0.000000 -0.281535
#
#
# Mechanical properties :
#
#
# Convention : Reuss Voigt Hill
#
# Bulk Modulus (GPa) = 33.39985 36.24216 34.82101
# Shear Modulus (GPa) = -53.58508 16.97330 -18.30589
#
# Velocity S-wave (km/s) = -5.77775 3.25177 -3.37701
# Velocity P-wave (km/s) = 4.86852 6.05614 2.54700
#
# Compressibility (1/GPa) = 0.02994025
#
# Stress axis : x y z
#
# Youngs Moduli (GPa) = 42.82017 42.82017 73.20019
#
# Poissons Ratio (x) = 0.24674 0.34593
# Poissons Ratio (y) = 0.24674 0.34593
# Poissons Ratio (z) = 0.20236 0.20236
#
# Static dielectric constant tensor:
#      x y z
#    x 1.527850 0.000000 0.000000 
#    y 0.000000 1.527850 0.000000 
#    z 0.000000 0.000000 1.635020 
# 
# From -- ./inp_files/6941.got.cif
#   From: 2010.05.17/outbox.cif.g08.bks.cpg/sg141_4_cif.got.tgz:6941.got - 2010.05.20 13:30:51.
