data_PCOD9572154
_publ_section_title
;
Structure prediction by ZEFSAII (Michael W. Deem and Ramdas Pophale) SiO2 
 PCOD9572154
Probable space group: I 4/M C M
;
_chemical_formula_sum "Si O2"
_cell_formula_units_Z 112
_cell_length_a 16.130789
_cell_length_b 16.130789
_cell_length_c 19.946670
_cell_angle_alpha 90.000000
_cell_angle_beta 90.000000
_cell_angle_gamma 90.000000
_cell_volume 5190.170484
_symmetry_space_group_name_H-M "I 4/M C M"
_symmetry_group_IT_number 140
_symmetry_cell_setting 'tetragonal'
loop_
_space_group_symop_operation_xyz
x,y,z
-y,x,z
-x,-y,z
y,-x,z
x,-y,1/2-z
-x,y,1/2-z
y,x,1/2-z
-y,-x,1/2-z
-x,-y,-z
y,-x,-z
x,y,-z
-y,x,-z
-x,y,1/2+z
x,-y,1/2+z
-y,-x,1/2+z
y,x,1/2+z
1/2+x,1/2+y,1/2+z
1/2-y,1/2+x,1/2+z
1/2-x,1/2-y,1/2+z
1/2+y,1/2-x,1/2+z
1/2+x,1/2-y,-z
1/2-x,1/2+y,-z
1/2+y,1/2+x,-z
1/2-y,1/2-x,-z
1/2-x,1/2-y,1/2-z
1/2+y,1/2-x,1/2-z
1/2+x,1/2+y,1/2-z
1/2-y,1/2+x,1/2-z
1/2-x,1/2+y,z
1/2+x,1/2-y,z
1/2-y,1/2-x,z
1/2+y,1/2+x,z
loop_
_atom_site_type_symbol
_atom_site_label
_atom_site_fract_x
_atom_site_fract_y
_atom_site_fract_z
Si Si1 0.071485 0.428516 0.422025
Si Si2 0.676307 0.036134 0.176304
Si Si3 0.063879 0.124048 0.572764
Si Si4 0.675543 0.691032 0.670681
O O1 0.091508 0.408493 0.500000
O O2 0.146089 0.469250 0.378641
O O3 0.000000 0.500000 0.424596
O O4 0.598178 0.098178 0.185860
O O5 0.751762 0.095616 0.154571
O O6 0.694336 0.000000 0.250000
O O7 0.083345 0.161454 0.500000
O O8 0.966927 0.105817 0.575809
O O9 0.104313 0.172861 0.633053
O O10 0.677829 0.677829 0.750000
O O11 0.755824 0.744177 0.651391
#
# Coordination Sequence:
#
# PCOD9572154 Si02
#       4
#    16  32  32  32
#     4   9  18  32  54  86 115 148 206 254 293 361
#     4  10  19  33  55  80 116 159 194 246 306 364
#     4   9  20  40  64  88 115 152 201 255 306 355
#     4  10  23  38  57  89 123 159 201 248 301 370
#
# _framework density 21.579250999999999
#
# number of rings (size 3 to 8) (size 9 to 14) (size 15 to 20)
#    0.000    2.429    1.429    0.857    4.000    1.714 
#    0.000    4.286    0.000    0.000    0.000    0.000 
#    0.000    0.000    0.000    0.000    0.000    0.000 
#
# Total GULP energy -312856.737195 kJ/mol
# GULP energy per Si atom -5586.727450 kJ/mol
# Density = 2.153014 g / cm^3
# Si number density = 21.579251 Si / 1000 Ang^3
#
#
#
# Elastic Constant Matrix: (Units=GPa)
#
#
# Indices 1 2 3 4 5 6 
#
# 1 42.3775 13.4331 17.8386 0.0000 0.0000 0.0000
# 2 13.4331 42.3774 17.8385 0.0000 0.0000 0.0000
# 3 17.8386 17.8385 79.3266 0.0000 0.0000 0.0000
# 4 0.0000 0.0000 0.0000 15.3709 0.0000 0.0000
# 5 0.0000 0.0000 0.0000 0.0000 15.3709 0.0000
# 6 0.0000 0.0000 0.0000 0.0000 0.0000 27.5724
#
#
#
# Elastic Compliance Matrix: (Units=1/GPa)
#
#
# Indices 1 2 3 4 5 6 
#
# 1 0.027737 -0.006812 -0.004706 0.000000 0.000000 0.000000
# 2 -0.006812 0.027738 -0.004706 0.000000 0.000000 0.000000
# 3 -0.004706 -0.004706 0.014722 0.000000 0.000000 0.000000
# 4 0.000000 0.000000 0.000000 0.065058 0.000000 0.000000
# 5 0.000000 0.000000 0.000000 0.000000 0.065058 0.000000
# 6 0.000000 0.000000 0.000000 0.000000 0.000000 0.036268
#
#
# Mechanical properties :
#
#
# Convention : Reuss Voigt Hill
#
# Bulk Modulus (GPa) = 26.48901 29.14465 27.81683
# Shear Modulus (GPa) = 17.75494 19.32758 18.54126
#
# Velocity S-wave (km/s) = 2.87152 2.99600 2.93442
# Velocity P-wave (km/s) = 4.82660 5.05007 4.93960
#
# Compressibility (1/GPa) = 0.03775151
#
# Stress axis : x y z
#
# Youngs Moduli (GPa) = 36.05236 36.05224 67.92327
#
# Poissons Ratio (x) = 0.24557 0.31963
# Poissons Ratio (y) = 0.24557 0.31963
# Poissons Ratio (z) = 0.16965 0.16965
#
# Static dielectric constant tensor:
#      x y z
#    x 1.788500 0.000000 0.000000 
#    y 0.000000 1.788500 0.000000 
#    z 0.000000 0.000000 1.761040 
# 
# From -- ./inp_files/6114.got.cif
#   From: 2010.05.17/outbox.cif.g08.bks.cpg/sg140_4_cif.got.tgz:6114.got - 2010.06.21 00:45:31.
