data_PCOD9572886
_publ_section_title
;
Structure prediction by ZEFSAII (Michael W. Deem and Ramdas Pophale) SiO2 
 PCOD9572886
Probable space group: I 41/A M D
;
_chemical_formula_sum "Si O2"
_cell_formula_units_Z 160
_cell_length_a 20.923859
_cell_length_b 20.923859
_cell_length_c 18.701432
_cell_angle_alpha 90.000000
_cell_angle_beta 90.000000
_cell_angle_gamma 90.000000
_cell_volume 8187.634212
_symmetry_space_group_name_H-M "I 41/A M D"
_symmetry_group_IT_number 141
_space_group.IT_coordinate_system_code '2'
_symmetry_cell_setting 'tetragonal'
loop_
_space_group_symop_operation_xyz
x,y,z
1/4-y,3/4+x,1/4+z
-x,1/2-y,z
1/4+y,1/4-x,3/4+z
x,-y,-z
-x,1/2+y,-z
1/4+y,3/4+x,1/4-z
1/4-y,1/4-x,3/4-z
-x,-y,-z
3/4+y,1/4-x,3/4-z
x,1/2+y,-z
3/4-y,3/4+x,1/4-z
-x,y,z
x,1/2-y,z
3/4-y,1/4-x,3/4+z
3/4+y,3/4+x,1/4+z
1/2+x,1/2+y,1/2+z
3/4-y,1/4+x,3/4+z
1/2-x,-y,1/2+z
3/4+y,3/4-x,1/4+z
1/2+x,1/2-y,1/2-z
1/2-x,y,1/2-z
3/4+y,1/4+x,3/4-z
3/4-y,3/4-x,1/4-z
1/2-x,1/2-y,1/2-z
1/4+y,3/4-x,1/4-z
1/2+x,y,1/2-z
1/4-y,1/4+x,3/4-z
1/2-x,1/2+y,1/2+z
1/2+x,-y,1/2+z
1/4-y,3/4-x,1/4+z
1/4+y,1/4+x,3/4+z
loop_
_atom_site_type_symbol
_atom_site_label
_atom_site_fract_x
_atom_site_fract_y
_atom_site_fract_z
Si Si1 0.827541 0.175403 0.028823
Si Si2 0.202071 0.124713 0.553638
Si Si3 0.647973 0.676719 0.919012
Si Si4 0.114230 0.016610 0.578834
Si Si5 0.075043 0.064991 0.038523
O O1 0.834727 0.250000 0.009269
O O2 0.812951 0.171189 0.114436
O O3 0.886717 0.128211 0.015395
O O4 0.767888 0.143650 0.985743
O O5 0.148065 0.148293 0.498009
O O6 0.183344 0.050670 0.567716
O O7 0.196435 0.161509 0.627782
O O8 0.583658 0.666343 0.875000
O O9 0.667608 0.750000 0.923571
O O10 0.700999 0.640191 0.871963
O O11 0.088204 0.000000 0.500000
O O12 0.000000 0.072414 0.024806
O O13 0.097862 0.000000 0.000000
#
# Coordination Sequence:
#
# PCOD9572886 Si02
#       5
#    32  32  32  32  32
#     4  10  22  37  59  89 118 156 196 244 305 363
#     4  10  20  39  60  84 118 153 192 247 308 361
#     4  11  22  37  56  82 119 161 198 243 296 355
#     4  10  19  35  57  84 114 152 197 244 292 350
#     4  10  22  41  62  86 116 156 202 251 305 363
#
# _framework density 19.541664000000001
#
# number of rings (size 3 to 8) (size 9 to 14) (size 15 to 20)
#    0.000    1.800    2.000    3.600    0.000    3.800 
#    3.600    0.000    0.000    2.400    0.000    2.800 
#    0.000    0.000    0.000    0.000    0.000    0.000 
#
# Total GULP energy -445567.985362 kJ/mol
# GULP energy per Si atom -5569.599817 kJ/mol
# Density = 1.949719 g / cm^3
# Si number density = 19.541664 Si / 1000 Ang^3
#
#
#
# Elastic Constant Matrix: (Units=GPa)
#
#
# Indices 1 2 3 4 5 6 
#
# 1 61.7752 55.3263 15.9696 0.0000 0.0000 0.0000
# 2 55.3263 61.7717 15.9690 0.0000 0.0000 0.0000
# 3 15.9696 15.9690 65.9703 0.0000 0.0000 0.0000
# 4 0.0000 0.0000 0.0000 15.7469 0.0000 0.0000
# 5 0.0000 0.0000 0.0000 0.0000 15.7477 0.0000
# 6 0.0000 0.0000 0.0000 0.0000 0.0000 21.5520
#
#
#
# Elastic Compliance Matrix: (Units=1/GPa)
#
#
# Indices 1 2 3 4 5 6 
#
# 1 0.082123 -0.072982 -0.002213 0.000000 0.000000 0.000000
# 2 -0.072982 0.082128 -0.002213 0.000000 0.000000 0.000000
# 3 -0.002213 -0.002213 0.016230 0.000000 0.000000 0.000000
# 4 0.000000 0.000000 0.000000 0.063505 0.000000 0.000000
# 5 0.000000 0.000000 0.000000 0.000000 0.063501 0.000000
# 6 0.000000 0.000000 0.000000 0.000000 0.000000 0.046399
#
#
# Mechanical properties :
#
#
# Convention : Reuss Voigt Hill
#
# Bulk Modulus (GPa) = 38.96601 40.44967 39.70784
# Shear Modulus (GPa) = 9.66637 17.42613 13.54625
#
# Velocity S-wave (km/s) = 2.22650 2.98945 2.63572
# Velocity P-wave (km/s) = 5.15684 5.71488 5.44301
#
# Compressibility (1/GPa) = 0.02566339
#
# Stress axis : x y z
#
# Youngs Moduli (GPa) = 12.17686 12.17617 61.61467
#
# Poissons Ratio (x) = 0.88864 0.13638
# Poissons Ratio (y) = 0.88869 0.13637
# Poissons Ratio (z) = 0.02695 0.02695
#
# Static dielectric constant tensor:
#      x y z
#    x 1.716740 0.000000 0.000000 
#    y 0.000000 1.716740 0.000000 
#    z 0.000000 0.000000 1.705230 
# 
# From -- ./inp_files/8583.got.cif
#   From: 2010.05.17/outbox.cif.g08.bks.cpg/sg141_5_cif.got.tgz:8583.got - 2010.05.20 13:30:51.
