data_PCOD9572402
_publ_section_title
;
Structure prediction by ZEFSAII (Michael W. Deem and Ramdas Pophale) SiO2 
 PCOD9572402
Probable space group: I 4/M C M
;
_chemical_formula_sum "Si O2"
_cell_formula_units_Z 192
_cell_length_a 19.366014
_cell_length_b 19.366014
_cell_length_c 27.391580
_cell_angle_alpha 90.000000
_cell_angle_beta 90.000000
_cell_angle_gamma 90.000000
_cell_volume 10273.006594
_symmetry_space_group_name_H-M "I 4/M C M"
_symmetry_group_IT_number 140
_symmetry_cell_setting 'tetragonal'
loop_
_space_group_symop_operation_xyz
x,y,z
-y,x,z
-x,-y,z
y,-x,z
x,-y,1/2-z
-x,y,1/2-z
y,x,1/2-z
-y,-x,1/2-z
-x,-y,-z
y,-x,-z
x,y,-z
-y,x,-z
-x,y,1/2+z
x,-y,1/2+z
-y,-x,1/2+z
y,x,1/2+z
1/2+x,1/2+y,1/2+z
1/2-y,1/2+x,1/2+z
1/2-x,1/2-y,1/2+z
1/2+y,1/2-x,1/2+z
1/2+x,1/2-y,-z
1/2-x,1/2+y,-z
1/2+y,1/2+x,-z
1/2-y,1/2-x,-z
1/2-x,1/2-y,1/2-z
1/2+y,1/2-x,1/2-z
1/2+x,1/2+y,1/2-z
1/2-y,1/2+x,1/2-z
1/2-x,1/2+y,z
1/2+x,1/2-y,z
1/2-y,1/2-x,z
1/2+y,1/2+x,z
loop_
_atom_site_type_symbol
_atom_site_label
_atom_site_fract_x
_atom_site_fract_y
_atom_site_fract_z
Si Si1 0.092230 0.777109 0.798748
Si Si2 0.489951 0.386879 0.153821
Si Si3 0.002317 0.807184 0.553838
Si Si4 0.266810 0.122902 0.904259
Si Si5 0.352640 0.260312 0.411632
Si Si6 0.761373 0.854468 0.300989
O O1 0.025693 0.823241 0.810906
O O2 0.103426 0.730181 0.846650
O O3 0.096040 0.746366 0.744705
O O4 0.160412 0.826195 0.799715
O O5 0.559625 0.428055 0.162214
O O6 0.490888 0.360580 0.098161
O O7 0.990625 0.836677 0.500000
O O8 0.080066 0.778361 0.557636
O O9 0.945184 0.748780 0.564939
O O10 0.333692 0.166309 0.918441
O O11 0.201154 0.175201 0.910632
O O12 0.306218 0.193783 0.425464
O O13 0.379943 0.250168 0.356047
O O14 0.711855 0.788146 0.295458
#
# Coordination Sequence:
#
# PCOD9572402 Si02
#       6
#    32  32  32  32  32  32
#     4   9  15  27  48  71  97 130 169 209 250 299
#     4  10  21  35  47  65 101 146 185 217 255 310
#     4  11  22  35  53  75  98 129 175 229 279 323
#     4   9  18  33  52  75 104 135 169 212 260 315
#     4   9  19  36  56  79 106 134 169 218 273 326
#     4   9  15  27  50  75  98 127 167 215 263 310
#
# _framework density 18.689758000000001
#
# number of rings (size 3 to 8) (size 9 to 14) (size 15 to 20)
#    0.000    2.500    0.000    6.000    0.000    3.333 
#    0.000   17.500    0.000    8.500    0.000    1.167 
#    0.000    0.000    0.000    9.333    0.000    1.167 
#
# Total GULP energy -535408.726662 kJ/mol
# GULP energy per Si atom -5577.174236 kJ/mol
# Density = 1.864722 g / cm^3
# Si number density = 18.689758 Si / 1000 Ang^3
#
#
#
# Elastic Constant Matrix: (Units=GPa)
#
#
# Indices 1 2 3 4 5 6 
#
# 1 55.5422 25.0708 8.6431 0.0000 0.0000 0.0000
# 2 25.0708 55.5422 8.6431 0.0000 0.0000 0.0000
# 3 8.6431 8.6431 64.5796 0.0000 0.0000 0.0000
# 4 0.0000 0.0000 0.0000 8.9859 0.0000 0.0000
# 5 0.0000 0.0000 0.0000 0.0000 8.9859 0.0000
# 6 0.0000 0.0000 0.0000 0.0000 0.0000 21.2723
#
#
#
# Elastic Compliance Matrix: (Units=1/GPa)
#
#
# Indices 1 2 3 4 5 6 
#
# 1 0.022795 -0.010023 -0.001709 0.000000 0.000000 0.000000
# 2 -0.010023 0.022795 -0.001709 0.000000 0.000000 0.000000
# 3 -0.001709 -0.001709 0.015942 0.000000 0.000000 0.000000
# 4 0.000000 0.000000 0.000000 0.111286 0.000000 0.000000
# 5 0.000000 0.000000 0.000000 0.000000 0.111286 0.000000
# 6 0.000000 0.000000 0.000000 0.000000 0.000000 0.047010
#
#
# Mechanical properties :
#
#
# Convention : Reuss Voigt Hill
#
# Bulk Modulus (GPa) = 28.86162 28.93089 28.89625
# Shear Modulus (GPa) = 13.53015 16.73594 15.13305
#
# Velocity S-wave (km/s) = 2.69352 2.99567 2.84861
# Velocity P-wave (km/s) = 5.01492 5.24200 5.12971
#
# Compressibility (1/GPa) = 0.03464809
#
# Stress axis : x y z
#
# Youngs Moduli (GPa) = 43.87013 43.87013 62.72621
#
# Poissons Ratio (x) = 0.43971 0.10722
# Poissons Ratio (y) = 0.43971 0.10722
# Poissons Ratio (z) = 0.07499 0.07499
#
# Static dielectric constant tensor:
#      x y z
#    x 1.655200 0.000000 0.000000 
#    y 0.000000 1.655200 0.000000 
#    z 0.000000 0.000000 1.698570 
# 
# From -- ./inp_files/10843.got.cif
#   From: 2010.05.17/outbox.cif.g08.bks.cpg/sg140_6_cif.got.tgz:10843.got - 2010.06.21 00:45:31.
