data_PCOD9572770
_publ_section_title
;
Structure prediction by ZEFSAII (Michael W. Deem and Ramdas Pophale) SiO2 
 PCOD9572770
Probable space group: I 41/A M D
;
_chemical_formula_sum "Si O2"
_cell_formula_units_Z 128
_cell_length_a 14.672720
_cell_length_b 14.672720
_cell_length_c 26.901625
_cell_angle_alpha 90.000000
_cell_angle_beta 90.000000
_cell_angle_gamma 90.000000
_cell_volume 5791.616202
_symmetry_space_group_name_H-M "I 41/A M D"
_symmetry_group_IT_number 141
_space_group.IT_coordinate_system_code '2'
_symmetry_cell_setting 'tetragonal'
loop_
_space_group_symop_operation_xyz
x,y,z
1/4-y,3/4+x,1/4+z
-x,1/2-y,z
1/4+y,1/4-x,3/4+z
x,-y,-z
-x,1/2+y,-z
1/4+y,3/4+x,1/4-z
1/4-y,1/4-x,3/4-z
-x,-y,-z
3/4+y,1/4-x,3/4-z
x,1/2+y,-z
3/4-y,3/4+x,1/4-z
-x,y,z
x,1/2-y,z
3/4-y,1/4-x,3/4+z
3/4+y,3/4+x,1/4+z
1/2+x,1/2+y,1/2+z
3/4-y,1/4+x,3/4+z
1/2-x,-y,1/2+z
3/4+y,3/4-x,1/4+z
1/2+x,1/2-y,1/2-z
1/2-x,y,1/2-z
3/4+y,1/4+x,3/4-z
3/4-y,3/4-x,1/4-z
1/2-x,1/2-y,1/2-z
1/4+y,3/4-x,1/4-z
1/2+x,y,1/2-z
1/4-y,1/4+x,3/4-z
1/2-x,1/2+y,1/2+z
1/2+x,-y,1/2+z
1/4-y,3/4-x,1/4+z
1/4+y,1/4+x,3/4+z
loop_
_atom_site_type_symbol
_atom_site_label
_atom_site_fract_x
_atom_site_fract_y
_atom_site_fract_z
Si Si1 0.098377 0.067302 0.952420
Si Si2 0.204661 0.857920 0.471471
Si Si3 0.104620 0.602901 0.884748
Si Si4 0.104001 0.046333 0.330416
O O1 0.190203 0.122882 0.958408
O O2 0.000000 0.116110 0.951329
O O3 0.103571 0.001021 0.904824
O O4 0.096471 0.000000 0.000000
O O5 0.194151 0.750000 0.476798
O O6 0.146058 0.882248 0.423141
O O7 0.182228 0.895757 0.526110
O O8 0.186309 0.647866 0.915048
O O9 0.000000 0.636252 0.891062
O O10 0.163190 0.086811 0.375000
O O11 0.000000 0.080059 0.334599
#
# Coordination Sequence:
#
# PCOD9572770 Si02
#       4
#    32  32  32  32
#     4  10  18  30  52  84 117 152 190 226 273 337
#     4  10  21  36  55  82 114 150 193 240 289 343
#     4  10  21  37  59  88 120 152 187 231 284 347
#     4  11  24  41  62  85 112 152 198 247 300 348
#
# _framework density 22.100911
#
# number of rings (size 3 to 8) (size 9 to 14) (size 15 to 20)
#    0.000    1.750    2.500    2.250    0.000    1.250 
#    0.000    5.000    0.000    9.000    0.000    0.000 
#    0.000    0.000    0.000    0.000    0.000    0.000 
#
# Total GULP energy -357141.351554 kJ/mol
# GULP energy per Si atom -5580.333618 kJ/mol
# Density = 2.205061 g / cm^3
# Si number density = 22.100911 Si / 1000 Ang^3
#
#
#
# Elastic Constant Matrix: (Units=GPa)
#
#
# Indices 1 2 3 4 5 6 
#
# 1 28.6135 -5.0355 8.8538 0.0000 0.0000 0.0000
# 2 -5.0355 28.6137 8.8551 0.0000 0.0000 0.0000
# 3 8.8538 8.8551 144.0422 0.0000 0.0000 0.0000
# 4 0.0000 0.0000 0.0000 14.6095 0.0000 0.0000
# 5 0.0000 0.0000 0.0000 0.0000 14.6092 0.0000
# 6 0.0000 0.0000 0.0000 0.0000 0.0000 -74.8577
#
#
#
# Elastic Compliance Matrix: (Units=1/GPa)
#
#
# Indices 1 2 3 4 5 6 
#
# 1 0.037092 0.007373 -0.002733 0.000000 0.000000 0.000000
# 2 0.007373 0.037092 -0.002733 0.000000 0.000000 0.000000
# 3 -0.002733 -0.002733 0.007278 0.000000 0.000000 0.000000
# 4 0.000000 0.000000 0.000000 0.068448 0.000000 0.000000
# 5 0.000000 0.000000 0.000000 0.000000 0.068450 0.000000
# 6 0.000000 0.000000 0.000000 0.000000 0.000000 -0.013359
#
#
# Mechanical properties :
#
#
# Convention : Reuss Voigt Hill
#
# Bulk Modulus (GPa) = 11.72672 25.17960 18.45316
# Shear Modulus (GPa) = 21.77571 3.44527 12.61049
#
# Velocity S-wave (km/s) = 3.14233 1.24991 2.39129
# Velocity P-wave (km/s) = 4.29921 3.67434 3.99900
#
# Compressibility (1/GPa) = 0.08527533
#
# Stress axis : x y z
#
# Youngs Moduli (GPa) = 26.96014 26.96016 137.39185
#
# Poissons Ratio (x) = -0.19879 0.37552
# Poissons Ratio (y) = -0.19879 0.37556
# Poissons Ratio (z) = 0.07369 0.07369
#
# Static dielectric constant tensor:
#      x y z
#    x 1.826910 0.000000 0.000000 
#    y 0.000000 1.826910 0.000000 
#    z 0.000000 0.000000 1.891310 
# 
# From -- ./inp_files/11342.got.cif
#   From: 2010.05.17/outbox.cif.g08.bks.cpg/sg141_6_cif.got.tgz:11342.got - 2010.05.20 13:30:51.
