data_PCOD9572972
_publ_section_title
;
Structure prediction by ZEFSAII (Michael W. Deem and Ramdas Pophale) SiO2 
 PCOD9572972
Probable space group: I 41/A M D
;
_chemical_formula_sum "Si O2"
_cell_formula_units_Z 160
_cell_length_a 27.224966
_cell_length_b 27.224966
_cell_length_c 9.268730
_cell_angle_alpha 90.000000
_cell_angle_beta 90.000000
_cell_angle_gamma 90.000000
_cell_volume 6869.971310
_symmetry_space_group_name_H-M "I 41/A M D"
_symmetry_group_IT_number 141
_space_group.IT_coordinate_system_code '2'
_symmetry_cell_setting 'tetragonal'
loop_
_space_group_symop_operation_xyz
x,y,z
1/4-y,3/4+x,1/4+z
-x,1/2-y,z
1/4+y,1/4-x,3/4+z
x,-y,-z
-x,1/2+y,-z
1/4+y,3/4+x,1/4-z
1/4-y,1/4-x,3/4-z
-x,-y,-z
3/4+y,1/4-x,3/4-z
x,1/2+y,-z
3/4-y,3/4+x,1/4-z
-x,y,z
x,1/2-y,z
3/4-y,1/4-x,3/4+z
3/4+y,3/4+x,1/4+z
1/2+x,1/2+y,1/2+z
3/4-y,1/4+x,3/4+z
1/2-x,-y,1/2+z
3/4+y,3/4-x,1/4+z
1/2+x,1/2-y,1/2-z
1/2-x,y,1/2-z
3/4+y,1/4+x,3/4-z
3/4-y,3/4-x,1/4-z
1/2-x,1/2-y,1/2-z
1/4+y,3/4-x,1/4-z
1/2+x,y,1/2-z
1/4-y,1/4+x,3/4-z
1/2-x,1/2+y,1/2+z
1/2+x,-y,1/2+z
1/4-y,3/4-x,1/4+z
1/4+y,1/4+x,3/4+z
loop_
_atom_site_type_symbol
_atom_site_label
_atom_site_fract_x
_atom_site_fract_y
_atom_site_fract_z
Si Si1 0.120311 0.197991 0.835514
Si Si2 0.289680 0.960321 0.375000
Si Si3 0.391444 0.993602 0.670352
Si Si4 0.868913 0.866476 0.427885
Si Si5 0.558107 0.691894 0.875000
Si Si6 0.946395 0.939290 0.365351
O O1 0.064224 0.185777 0.875000
O O2 0.126653 0.250000 0.760583
O O3 0.135684 0.153428 0.735141
O O4 0.151549 0.199897 0.980624
O O5 0.250000 0.967214 0.250000
O O6 0.279375 0.905756 0.433586
O O7 0.376902 0.938179 0.712063
O O8 0.406885 0.000000 0.500000
O O9 0.431847 0.010868 0.785137
O O10 0.902861 0.824580 0.502473
O O11 0.901280 0.915428 0.451544
O O12 0.500000 0.685354 0.912274
O O13 0.000000 0.940967 0.436624
#
# Coordination Sequence:
#
# PCOD9572972 Si02
#       6
#    32  16  32  32  16  32
#     4   9  18  31  52  82 117 151 194 252 316 374
#     4  10  22  37  60  87 124 168 217 265 324 393
#     4  11  21  37  63  94 129 167 206 258 326 403
#     4  11  22  40  63  88 125 167 216 264 319 379
#     4  11  26  47  68  89 122 178 236 278 322 383
#     4  10  20  35  58  92 126 157 198 259 325 382
#
# _framework density 23.289763000000001
#
# number of rings (size 3 to 8) (size 9 to 14) (size 15 to 20)
#    0.000    1.700    2.000    3.600    1.400    3.800 
#    0.000    1.000    0.000    2.400    0.000    0.000 
#    0.000    0.000    0.000    0.000    0.000    0.000 
#
# Total GULP energy -446055.680247 kJ/mol
# GULP energy per Si atom -5575.696003 kJ/mol
# Density = 2.323675 g / cm^3
# Si number density = 23.289763 Si / 1000 Ang^3
#
#
#
# Elastic Constant Matrix: (Units=GPa)
#
#
# Indices 1 2 3 4 5 6 
#
# 1 127.2939 53.2645 5.3835 0.0000 0.0000 0.0000
# 2 53.2645 127.2885 5.3829 0.0000 0.0000 0.0000
# 3 5.3835 5.3829 32.4600 0.0000 0.0000 0.0000
# 4 0.0000 0.0000 0.0000 24.5189 0.0000 0.0000
# 5 0.0000 0.0000 0.0000 0.0000 24.5199 0.0000
# 6 0.0000 0.0000 0.0000 0.0000 0.0000 18.5394
#
#
#
# Elastic Compliance Matrix: (Units=1/GPa)
#
#
# Indices 1 2 3 4 5 6 
#
# 1 0.009551 -0.003957 -0.000928 0.000000 0.000000 0.000000
# 2 -0.003957 0.009551 -0.000928 0.000000 0.000000 0.000000
# 3 -0.000928 -0.000928 0.031115 0.000000 0.000000 0.000000
# 4 0.000000 0.000000 0.000000 0.040785 0.000000 0.000000
# 5 0.000000 0.000000 0.000000 0.000000 0.040783 0.000000
# 6 0.000000 0.000000 0.000000 0.000000 0.000000 0.053939
#
#
# Mechanical properties :
#
#
# Convention : Reuss Voigt Hill
#
# Bulk Modulus (GPa) = 25.91231 46.12270 36.01751
# Shear Modulus (GPa) = 23.78529 28.38308 26.08418
#
# Velocity S-wave (km/s) = 3.19921 3.49477 3.35025
# Velocity P-wave (km/s) = 4.97964 6.01094 5.51943
#
# Compressibility (1/GPa) = 0.03859169
#
# Stress axis : x y z
#
# Youngs Moduli (GPa) = 104.70097 104.69664 32.13899
#
# Poissons Ratio (x) = 0.41433 0.02982
# Poissons Ratio (y) = 0.41435 0.02981
# Poissons Ratio (z) = 0.09714 0.09712
#
# Static dielectric constant tensor:
#      x y z
#    x 1.945430 0.000000 0.000000 
#    y 0.000000 1.945430 0.000000 
#    z 0.000000 0.000000 2.007550 
# 
# From -- ./inp_files/4938.got.cif
#   From: 2010.05.17/outbox.cif.g08.bks.cpg/sg141_3_cif.got.tgz:4938.got - 2010.05.20 13:30:51.
