data_PCOD9572248
_publ_section_title
;
Structure prediction by ZEFSAII (Michael W. Deem and Ramdas Pophale) SiO2 
 PCOD9572248
Probable space group: I 4/M C M
;
_chemical_formula_sum "Si O2"
_cell_formula_units_Z 160
_cell_length_a 31.460731
_cell_length_b 31.460731
_cell_length_c 8.597890
_cell_angle_alpha 90.000000
_cell_angle_beta 90.000000
_cell_angle_gamma 90.000000
_cell_volume 8509.998887
_symmetry_space_group_name_H-M "I 4/M C M"
_symmetry_group_IT_number 140
_symmetry_cell_setting 'tetragonal'
loop_
_space_group_symop_operation_xyz
x,y,z
-y,x,z
-x,-y,z
y,-x,z
x,-y,1/2-z
-x,y,1/2-z
y,x,1/2-z
-y,-x,1/2-z
-x,-y,-z
y,-x,-z
x,y,-z
-y,x,-z
-x,y,1/2+z
x,-y,1/2+z
-y,-x,1/2+z
y,x,1/2+z
1/2+x,1/2+y,1/2+z
1/2-y,1/2+x,1/2+z
1/2-x,1/2-y,1/2+z
1/2+y,1/2-x,1/2+z
1/2+x,1/2-y,-z
1/2-x,1/2+y,-z
1/2+y,1/2+x,-z
1/2-y,1/2-x,-z
1/2-x,1/2-y,1/2-z
1/2+y,1/2-x,1/2-z
1/2+x,1/2+y,1/2-z
1/2-y,1/2+x,1/2-z
1/2-x,1/2+y,z
1/2+x,1/2-y,z
1/2-y,1/2-x,z
1/2+y,1/2+x,z
loop_
_atom_site_type_symbol
_atom_site_label
_atom_site_fract_x
_atom_site_fract_y
_atom_site_fract_z
Si Si1 0.451761 0.615834 0.812957
Si Si2 0.385232 0.885232 0.810305
Si Si3 0.255694 0.315888 0.326042
Si Si4 0.952879 0.547122 0.686371
Si Si5 0.288460 0.895140 0.815209
Si Si6 0.952531 0.211296 0.687998
O O1 0.500000 0.610271 0.750000
O O2 0.419826 0.580175 0.750000
O O3 0.436859 0.663851 0.767509
O O4 0.453114 0.613613 0.000000
O O5 0.418842 0.918842 0.746182
O O6 0.337038 0.896418 0.757210
O O7 0.385996 0.885996 0.000000
O O8 0.298765 0.298765 0.250000
O O9 0.262731 0.332788 0.500000
O O10 0.224071 0.275930 0.339236
O O11 0.231495 0.349519 0.220944
O O12 0.942381 0.500000 0.750000
O O13 0.953893 0.546108 0.500000
O O14 0.252568 0.927233 0.753289
O O15 0.291257 0.901420 0.000000
O O16 0.952134 0.212500 0.500000
O O17 0.000000 0.214172 0.750000
#
# Coordination Sequence:
#
# PCOD9572248 Si02
#       6
#    32  16  32  16  32  32
#     4  10  20  36  57  82 112 145 184 231 281 335
#     4  10  21  37  59  87 121 155 189 233 288 341
#     4  10  20  33  51  75 105 141 184 228 276 327
#     4  11  23  42  67  91 119 149 186 231 284 349
#     4  10  20  36  57  82 114 151 190 235 284 334
#     4   9  20  37  56  79 109 146 188 228 274 328
#
# _framework density 18.801411999999999
#
# number of rings (size 3 to 8) (size 9 to 14) (size 15 to 20)
#    0.000    2.100    1.000    2.400    0.000    5.000 
#    0.000    5.000    0.000    0.000    0.000    0.000 
#    0.000    0.000    0.000    0.000    0.000    0.000 
#
# Total GULP energy -446016.093240 kJ/mol
# GULP energy per Si atom -5575.201165 kJ/mol
# Density = 1.875862 g / cm^3
# Si number density = 18.801412 Si / 1000 Ang^3
#
#
#
# Elastic Constant Matrix: (Units=GPa)
#
#
# Indices 1 2 3 4 5 6 
#
# 1 109.3490 119.5944 27.4282 0.0000 0.0000 0.0000
# 2 119.5944 109.3507 27.4289 0.0000 0.0000 0.0000
# 3 27.4282 27.4289 13.3626 0.0000 0.0000 0.0000
# 4 0.0000 0.0000 0.0000 15.7179 0.0000 0.0000
# 5 0.0000 0.0000 0.0000 0.0000 15.7175 0.0000
# 6 0.0000 0.0000 0.0000 0.0000 0.0000 35.7649
#
#
#
# Elastic Compliance Matrix: (Units=1/GPa)
#
#
# Indices 1 2 3 4 5 6 
#
# 1 -0.044508 0.053104 -0.017647 0.000000 0.000000 0.000000
# 2 0.053104 -0.044509 -0.017639 0.000000 0.000000 0.000000
# 3 -0.017647 -0.017639 0.147265 0.000000 0.000000 0.000000
# 4 0.000000 0.000000 0.000000 0.063622 0.000000 0.000000
# 5 0.000000 0.000000 0.000000 0.000000 0.063624 0.000000
# 6 0.000000 0.000000 0.000000 0.000000 0.000000 0.027960
#
#
# Mechanical properties :
#
#
# Convention : Reuss Voigt Hill
#
# Bulk Modulus (GPa) = 10.65150 64.55172 37.60161
# Shear Modulus (GPa) = 23.91062 17.28076 20.59569
#
# Velocity S-wave (km/s) = 3.57002 3.03499 3.31332
# Velocity P-wave (km/s) = 4.76141 6.83297 5.88899
#
# Compressibility (1/GPa) = 0.09388350
#
# Stress axis : x y z
#
# Youngs Moduli (GPa) = -22.46784 -22.46730 6.79048
#
# Poissons Ratio (x) = 1.19310 0.11983
# Poissons Ratio (y) = 1.19313 0.11978
# Poissons Ratio (z) = -0.39649 -0.39630
#
# Static dielectric constant tensor:
#      x y z
#    x 1.652250 0.000000 0.000000 
#    y 0.000000 1.652250 0.000000 
#    z 0.000000 0.000000 1.647660 
# 
# From -- ./inp_files/1819.got.cif
#   From: 2010.05.17/outbox.cif.g08.bks.cpg/sg140_1_cif.got.tgz:1819.got - 2010.06.21 00:45:31.
