data_PCOD9572380
_publ_section_title
;
Structure prediction by ZEFSAII (Michael W. Deem and Ramdas Pophale) SiO2 
 PCOD9572380
Probable space group: I 4/M C M
;
_chemical_formula_sum "Si O2"
_cell_formula_units_Z 88
_cell_length_a 17.903102
_cell_length_b 17.903102
_cell_length_c 14.769056
_cell_angle_alpha 90.000000
_cell_angle_beta 90.000000
_cell_angle_gamma 90.000000
_cell_volume 4733.793502
_symmetry_space_group_name_H-M "I 4/M C M"
_symmetry_group_IT_number 140
_symmetry_cell_setting 'tetragonal'
loop_
_space_group_symop_operation_xyz
x,y,z
-y,x,z
-x,-y,z
y,-x,z
x,-y,1/2-z
-x,y,1/2-z
y,x,1/2-z
-y,-x,1/2-z
-x,-y,-z
y,-x,-z
x,y,-z
-y,x,-z
-x,y,1/2+z
x,-y,1/2+z
-y,-x,1/2+z
y,x,1/2+z
1/2+x,1/2+y,1/2+z
1/2-y,1/2+x,1/2+z
1/2-x,1/2-y,1/2+z
1/2+y,1/2-x,1/2+z
1/2+x,1/2-y,-z
1/2-x,1/2+y,-z
1/2+y,1/2+x,-z
1/2-y,1/2-x,-z
1/2-x,1/2-y,1/2-z
1/2+y,1/2-x,1/2-z
1/2+x,1/2+y,1/2-z
1/2-y,1/2+x,1/2-z
1/2-x,1/2+y,z
1/2+x,1/2-y,z
1/2-y,1/2-x,z
1/2+y,1/2+x,z
loop_
_atom_site_type_symbol
_atom_site_label
_atom_site_fract_x
_atom_site_fract_y
_atom_site_fract_z
Si Si1 0.288989 0.788989 0.000000
Si Si2 0.462498 0.750152 0.348389
Si Si3 0.952292 0.333779 0.500000
Si Si4 0.977473 0.876146 0.500000
Si Si5 0.289133 0.789133 0.666672
O O1 0.378631 0.780419 0.000000
O O2 0.250420 0.750420 0.083241
O O3 0.500000 0.741219 0.250000
O O4 0.502073 0.813592 0.410188
O O5 0.468371 0.676427 0.411631
O O6 0.376745 0.772430 0.335105
O O7 0.915874 0.415874 0.500000
O O8 0.058153 0.916076 0.500000
O O9 0.250000 0.750000 0.750000
#
# Coordination Sequence:
#
# PCOD9572380 Si02
#       5
#     8  32  16  16  16
#     4  10  20  40  70  91 129 170 212 278 330 384
#     4  11  25  41  68  97 135 174 230 272 338 392
#     4   9  22  42  68  95 134 169 212 277 337 395
#     4  10  25  43  62  95 137 176 217 269 337 405
#     4  12  26  40  68 100 129 172 235 274 321 396
#
# _framework density 18.589742999999999
#
# number of rings (size 3 to 8) (size 9 to 14) (size 15 to 20)
#    0.545    0.909    0.000    4.364   17.818    0.000 
#    0.000    3.636    0.000    0.000    0.000    0.000 
#    0.000    0.000    0.000    0.000    0.000    0.000 
#
# Total GULP energy -245674.573232 kJ/mol
# GULP energy per Si atom -5583.513028 kJ/mol
# Density = 1.854743 g / cm^3
# Si number density = 18.589743 Si / 1000 Ang^3
#
#
#
# Elastic Constant Matrix: (Units=GPa)
#
#
# Indices 1 2 3 4 5 6 
#
# 1 143.3242 43.1013 77.5096 0.0000 0.0000 0.0000
# 2 43.1013 143.3242 77.5096 0.0000 0.0000 0.0000
# 3 77.5096 77.5096 206.0339 0.0000 0.0000 0.0000
# 4 0.0000 0.0000 0.0000 33.2300 0.0000 0.0000
# 5 0.0000 0.0000 0.0000 0.0000 33.2300 0.0000
# 6 0.0000 0.0000 0.0000 0.0000 0.0000 34.4758
#
#
#
# Elastic Compliance Matrix: (Units=1/GPa)
#
#
# Indices 1 2 3 4 5 6 
#
# 1 0.008892 -0.001086 -0.002937 0.000000 0.000000 0.000000
# 2 -0.001086 0.008892 -0.002937 0.000000 0.000000 0.000000
# 3 -0.002937 -0.002937 0.007063 0.000000 0.000000 0.000000
# 4 0.000000 0.000000 0.000000 0.030093 0.000000 0.000000
# 5 0.000000 0.000000 0.000000 0.000000 0.030093 0.000000
# 6 0.000000 0.000000 0.000000 0.000000 0.000000 0.029006
#
#
# Mechanical properties :
#
#
# Convention : Reuss Voigt Hill
#
# Bulk Modulus (GPa) = 91.50301 98.76925 95.13613
# Shear Modulus (GPa) = 37.99386 39.82461 38.90923
#
# Velocity S-wave (km/s) = 4.52575 4.63351 4.57995
# Velocity P-wave (km/s) = 8.75438 9.04833 8.90257
#
# Compressibility (1/GPa) = 0.01092860
#
# Stress axis : x y z
#
# Youngs Moduli (GPa) = 112.46250 112.46250 141.58201
#
# Poissons Ratio (x) = 0.12212 0.41577
# Poissons Ratio (y) = 0.12212 0.41577
# Poissons Ratio (z) = 0.33026 0.33026
#
# Static dielectric constant tensor:
#      x y z
#    x 1.600840 0.000000 0.000000 
#    y 0.000000 1.600840 0.000000 
#    z 0.000000 0.000000 1.593150 
# 
# From -- ./inp_files/4028.got.cif
#   From: 2010.05.17/outbox.cif.g08.bks.cpg/sg140_3_cif.got.tgz:4028.got - 2010.06.21 00:45:31.
