data_PCOD9572262
_publ_section_title
;
Structure prediction by ZEFSAII (Michael W. Deem and Ramdas Pophale) SiO2 
 PCOD9572262
Probable space group: I 4/M C M
;
_chemical_formula_sum "Si O2"
_cell_formula_units_Z 240
_cell_length_a 22.631295
_cell_length_b 22.631295
_cell_length_c 29.131003
_cell_angle_alpha 90.000000
_cell_angle_beta 90.000000
_cell_angle_gamma 90.000000
_cell_volume 14920.186417
_symmetry_space_group_name_H-M "I 4/M C M"
_symmetry_group_IT_number 140
_symmetry_cell_setting 'tetragonal'
loop_
_space_group_symop_operation_xyz
x,y,z
-y,x,z
-x,-y,z
y,-x,z
x,-y,1/2-z
-x,y,1/2-z
y,x,1/2-z
-y,-x,1/2-z
-x,-y,-z
y,-x,-z
x,y,-z
-y,x,-z
-x,y,1/2+z
x,-y,1/2+z
-y,-x,1/2+z
y,x,1/2+z
1/2+x,1/2+y,1/2+z
1/2-y,1/2+x,1/2+z
1/2-x,1/2-y,1/2+z
1/2+y,1/2-x,1/2+z
1/2+x,1/2-y,-z
1/2-x,1/2+y,-z
1/2+y,1/2+x,-z
1/2-y,1/2-x,-z
1/2-x,1/2-y,1/2-z
1/2+y,1/2-x,1/2-z
1/2+x,1/2+y,1/2-z
1/2-y,1/2+x,1/2-z
1/2-x,1/2+y,z
1/2+x,1/2-y,z
1/2-y,1/2-x,z
1/2+y,1/2+x,z
loop_
_atom_site_type_symbol
_atom_site_label
_atom_site_fract_x
_atom_site_fract_y
_atom_site_fract_z
Si Si1 0.169312 1.000000 0.446633
Si Si2 0.374337 0.625663 0.055348
Si Si3 0.696926 0.000001 0.917948
Si Si4 0.200373 0.799629 0.380932
Si Si5 0.892003 0.707898 0.652887
Si Si6 0.067904 0.667937 0.749999
Si Si7 0.792100 0.392000 0.652886
Si Si8 0.500000 0.100904 0.500000
O O1 0.152263 1.000000 0.500000
O O2 0.143699 0.939201 0.427238
O O3 0.239855 1.000000 0.443128
O O4 0.143700 0.060799 0.427238
O O5 0.327292 0.672708 0.073467
O O6 0.373777 0.626223 0.000000
O O7 0.698038 0.942624 0.885013
O O8 0.643660 0.000001 0.954985
O O9 0.698039 0.057380 0.885015
O O10 0.250000 0.750000 0.389918
O O11 0.233202 0.853268 0.354991
O O12 0.146734 0.766801 0.354990
O O13 0.845927 0.654074 0.648740
O O14 0.918941 0.704411 0.703789
O O15 0.112052 0.612052 0.749999
O O16 0.081059 0.704411 0.703787
O O17 0.000000 0.648702 0.750000
O O18 0.845923 0.345923 0.648740
O O19 0.557379 0.057379 0.500000
O O20 0.442624 0.057377 0.500000
#
# Coordination Sequence:
#
# PCOD9572262 Si02
#       8
#    32  32  32  32  32  32  32  16
#     4  10  20  34  53  77 106 138 177 219 268 317
#     4  10  20  34  51  77 107 142 180 222 269 324
#     4  12  19  35  59  77 106 142 186 227 264 316
#     4  10  20  34  51  79 111 138 176 221 276 335
#     4  10  21  35  55  80 107 138 175 224 276 329
#     4  10  20  36  55  79 107 138 178 224 279 332
#     4  10  21  35  55  80 107 138 175 224 276 329
#     4  11  26  42  54  76 114 157 198 230 270 331
#
# _framework density 16.085588999999999
#
# number of rings (size 3 to 8) (size 9 to 14) (size 15 to 20)
#    0.000    1.667    4.667    0.800    0.000    1.200 
#    0.000    4.000    0.000    0.000    0.000    0.000 
#    0.000    0.000    0.000    4.800    0.000    0.000 
#
# Total GULP energy -668627.004655 kJ/mol
# GULP energy per Si atom -5571.891705 kJ/mol
# Density = 1.604898 g / cm^3
# Si number density = 16.085589 Si / 1000 Ang^3
#
#
#
# Elastic Constant Matrix: (Units=GPa)
#
#
# Indices 1 2 3 4 5 6 
#
# 1 106.6933 52.2659 51.4962 0.0000 0.0000 0.0000
# 2 52.2659 106.6931 51.4963 0.0000 0.0000 0.0000
# 3 51.4962 51.4963 92.0396 0.0000 0.0000 0.0000
# 4 0.0000 0.0000 0.0000 21.2989 0.0000 0.0000
# 5 0.0000 0.0000 0.0000 0.0000 21.2989 0.0000
# 6 0.0000 0.0000 0.0000 0.0000 0.0000 17.6047
#
#
#
# Elastic Compliance Matrix: (Units=1/GPa)
#
#
# Indices 1 2 3 4 5 6 
#
# 1 0.014121 -0.004252 -0.005521 0.000000 0.000000 0.000000
# 2 -0.004252 0.014121 -0.005521 0.000000 0.000000 0.000000
# 3 -0.005521 -0.005521 0.017043 0.000000 0.000000 0.000000
# 4 0.000000 0.000000 0.000000 0.046951 0.000000 0.000000
# 5 0.000000 0.000000 0.000000 0.000000 0.046951 0.000000
# 6 0.000000 0.000000 0.000000 0.000000 0.000000 0.056803
#
#
# Mechanical properties :
#
#
# Convention : Reuss Voigt Hill
#
# Bulk Modulus (GPa) = 68.05239 68.43810 68.24524
# Shear Modulus (GPa) = 21.60038 22.05168 21.82603
#
# Velocity S-wave (km/s) = 3.66845 3.70658 3.68757
# Velocity P-wave (km/s) = 7.76799 7.80749 7.78777
#
# Compressibility (1/GPa) = 0.01469456
#
# Stress axis : x y z
#
# Youngs Moduli (GPa) = 70.81811 70.81789 58.67424
#
# Poissons Ratio (x) = 0.30115 0.32396
# Poissons Ratio (y) = 0.30115 0.32396
# Poissons Ratio (z) = 0.39101 0.39101
#
# Static dielectric constant tensor:
#      x y z
#    x 1.539440 0.000000 0.000000 
#    y 0.000000 1.539440 0.000000 
#    z 0.000000 0.000000 1.526730 
# 
# From -- ./inp_files/11794.got.cif
#   From: 2010.05.17/outbox.cif.g08.bks.cpg/sg140_6_cif.got.tgz:11794.got - 2010.06.21 00:45:31.
