data_PCOD9572764
_publ_section_title
;
Structure prediction by ZEFSAII (Michael W. Deem and Ramdas Pophale) SiO2 
 PCOD9572764
Probable space group: I 41/A M D
;
_chemical_formula_sum "Si O2"
_cell_formula_units_Z 192
_cell_length_a 22.345899
_cell_length_b 22.345899
_cell_length_c 25.741245
_cell_angle_alpha 90.000000
_cell_angle_beta 90.000000
_cell_angle_gamma 90.000000
_cell_volume 12853.612740
_symmetry_space_group_name_H-M "I 41/A M D"
_symmetry_group_IT_number 141
_space_group.IT_coordinate_system_code '2'
_symmetry_cell_setting 'tetragonal'
loop_
_space_group_symop_operation_xyz
x,y,z
1/4-y,3/4+x,1/4+z
-x,1/2-y,z
1/4+y,1/4-x,3/4+z
x,-y,-z
-x,1/2+y,-z
1/4+y,3/4+x,1/4-z
1/4-y,1/4-x,3/4-z
-x,-y,-z
3/4+y,1/4-x,3/4-z
x,1/2+y,-z
3/4-y,3/4+x,1/4-z
-x,y,z
x,1/2-y,z
3/4-y,1/4-x,3/4+z
3/4+y,3/4+x,1/4+z
1/2+x,1/2+y,1/2+z
3/4-y,1/4+x,3/4+z
1/2-x,-y,1/2+z
3/4+y,3/4-x,1/4+z
1/2+x,1/2-y,1/2-z
1/2-x,y,1/2-z
3/4+y,1/4+x,3/4-z
3/4-y,3/4-x,1/4-z
1/2-x,1/2-y,1/2-z
1/4+y,3/4-x,1/4-z
1/2+x,y,1/2-z
1/4-y,1/4+x,3/4-z
1/2-x,1/2+y,1/2+z
1/2+x,-y,1/2+z
1/4-y,3/4-x,1/4+z
1/4+y,1/4+x,3/4+z
loop_
_atom_site_type_symbol
_atom_site_label
_atom_site_fract_x
_atom_site_fract_y
_atom_site_fract_z
Si Si1 0.873160 0.924812 0.889266
Si Si2 0.100455 0.901180 0.203410
Si Si3 0.258106 0.956224 0.927681
Si Si4 0.932940 0.819940 0.298385
Si Si5 0.803279 0.817384 0.157825
Si Si6 0.725214 0.410278 0.965368
O O1 0.808014 0.930524 0.916684
O O2 0.906736 0.867812 0.912410
O O3 0.863027 0.927795 0.826837
O O4 0.909821 0.985656 0.900979
O O5 0.069045 0.861803 0.247175
O O6 0.161552 0.864741 0.192711
O O7 0.069073 0.912185 0.147813
O O8 0.116287 0.968408 0.220004
O O9 0.295536 0.954465 0.875000
O O10 0.251234 0.026842 0.941041
O O11 0.291479 0.926050 0.975949
O O12 0.922217 0.750000 0.284971
O O13 0.000000 0.824225 0.320641
O O14 0.804725 0.750000 0.178399
#
# Coordination Sequence:
#
# PCOD9572764 Si02
#       6
#    32  32  32  32  32  32
#     4  10  18  30  46  65  92 121 154 193 231 275
#     4  10  18  31  45  61  89 120 155 200 243 270
#     4   9  15  26  45  72  97 118 137 177 237 293
#     4  11  23  35  45  60  88 129 171 199 224 269
#     4  10  19  29  44  65  86 118 162 204 238 267
#     4   9  16  27  46  70  94 116 144 183 234 284
#
# _framework density 14.937434
#
# number of rings (size 3 to 8) (size 9 to 14) (size 15 to 20)
#    0.000    2.167    3.333    1.500    0.000    0.667 
#    0.000    1.667    0.000    4.000    0.000    9.333 
#    0.000    0.000    0.000    1.833    0.000    0.000 
#
# Total GULP energy -534549.060269 kJ/mol
# GULP energy per Si atom -5568.219378 kJ/mol
# Density = 1.490344 g / cm^3
# Si number density = 14.937434 Si / 1000 Ang^3
#
#
#
# Elastic Constant Matrix: (Units=GPa)
#
#
# Indices 1 2 3 4 5 6 
#
# 1 58.5757 25.4738 26.1521 0.0000 0.0000 0.0000
# 2 25.4738 58.5759 26.1521 0.0000 0.0000 0.0000
# 3 26.1521 26.1521 77.4838 0.0000 0.0000 0.0000
# 4 0.0000 0.0000 0.0000 13.6158 0.0000 0.0000
# 5 0.0000 0.0000 0.0000 0.0000 13.6158 0.0000
# 6 0.0000 0.0000 0.0000 0.0000 0.0000 16.5904
#
#
#
# Elastic Compliance Matrix: (Units=1/GPa)
#
#
# Indices 1 2 3 4 5 6 
#
# 1 0.022635 -0.007574 -0.005083 0.000000 0.000000 0.000000
# 2 -0.007574 0.022635 -0.005083 0.000000 0.000000 0.000000
# 3 -0.005083 -0.005083 0.016337 0.000000 0.000000 0.000000
# 4 0.000000 0.000000 0.000000 0.073444 0.000000 0.000000
# 5 0.000000 0.000000 0.000000 0.000000 0.073444 0.000000
# 6 0.000000 0.000000 0.000000 0.000000 0.000000 0.060276
#
#
# Mechanical properties :
#
#
# Convention : Reuss Voigt Hill
#
# Bulk Modulus (GPa) = 38.27591 38.91017 38.59304
# Shear Modulus (GPa) = 15.97631 16.55487 16.26559
#
# Velocity S-wave (km/s) = 3.27394 3.33270 3.30345
# Velocity P-wave (km/s) = 6.32229 6.39644 6.35948
#
# Compressibility (1/GPa) = 0.02612609
#
# Stress axis : x y z
#
# Youngs Moduli (GPa) = 44.17845 44.17864 61.20931
#
# Poissons Ratio (x) = 0.33462 0.31115
# Poissons Ratio (y) = 0.33462 0.31115
# Poissons Ratio (z) = 0.22458 0.22458
#
# Static dielectric constant tensor:
#      x y z
#    x 1.487830 0.000000 0.000000 
#    y 0.000000 1.487830 0.000000 
#    z 0.000000 0.000000 1.536720 
# 
# From -- ./inp_files/13053.got.cif
#   From: 2010.05.17/outbox.cif.g08.bks.cpg/sg141_7_cif.got.tgz:13053.got - 2010.05.20 13:30:51.
