data_PCOD9572470
_publ_section_title
;
Structure prediction by ZEFSAII (Michael W. Deem and Ramdas Pophale) SiO2 
 PCOD9572470
Probable space group: I 4/M C M
;
_chemical_formula_sum "Si O2"
_cell_formula_units_Z 112
_cell_length_a 18.569204
_cell_length_b 18.569204
_cell_length_c 18.286430
_cell_angle_alpha 90.000000
_cell_angle_beta 90.000000
_cell_angle_gamma 90.000000
_cell_volume 6305.441527
_symmetry_space_group_name_H-M "I 4/M C M"
_symmetry_group_IT_number 140
_symmetry_cell_setting 'tetragonal'
loop_
_space_group_symop_operation_xyz
x,y,z
-y,x,z
-x,-y,z
y,-x,z
x,-y,1/2-z
-x,y,1/2-z
y,x,1/2-z
-y,-x,1/2-z
-x,-y,-z
y,-x,-z
x,y,-z
-y,x,-z
-x,y,1/2+z
x,-y,1/2+z
-y,-x,1/2+z
y,x,1/2+z
1/2+x,1/2+y,1/2+z
1/2-y,1/2+x,1/2+z
1/2-x,1/2-y,1/2+z
1/2+y,1/2-x,1/2+z
1/2+x,1/2-y,-z
1/2-x,1/2+y,-z
1/2+y,1/2+x,-z
1/2-y,1/2-x,-z
1/2-x,1/2-y,1/2-z
1/2+y,1/2-x,1/2-z
1/2+x,1/2+y,1/2-z
1/2-y,1/2+x,1/2-z
1/2-x,1/2+y,z
1/2+x,1/2-y,z
1/2-y,1/2-x,z
1/2+y,1/2+x,z
loop_
_atom_site_type_symbol
_atom_site_label
_atom_site_fract_x
_atom_site_fract_y
_atom_site_fract_z
Si Si1 0.998675 0.300666 0.334537
Si Si2 0.131669 0.248729 0.585274
Si Si3 0.845337 0.774056 0.818742
Si Si4 0.939857 0.439857 0.082310
O O1 0.063046 0.249329 0.361935
O O2 0.019904 0.372395 0.379552
O O3 0.000000 0.322087 0.250000
O O4 0.923652 0.257169 0.338132
O O5 0.112785 0.243367 0.500000
O O6 0.177644 0.322356 0.597278
O O7 0.185061 0.186259 0.611024
O O8 0.828010 0.828010 0.750000
O O9 0.795583 0.704418 0.802428
O O10 0.000000 0.500000 0.077779
O O11 0.918219 0.418219 0.000000
#
# Coordination Sequence:
#
# PCOD9572470 Si02
#       4
#    32  32  32  16
#     4  12  23  36  63  91 124 165 210 264 317 381
#     4  10  21  39  61  87 124 164 205 258 323 383
#     4  10  21  38  59  90 122 161 217 266 308 372
#     4  11  26  40  54  87 134 172 206 254 321 394
#
# _framework density 17.762435
#
# number of rings (size 3 to 8) (size 9 to 14) (size 15 to 20)
#    0.000    1.286    4.286    1.714    4.000    2.286 
#    0.000    2.857    0.000    0.857    0.000    2.000 
#    0.000    0.000    0.000    0.000    0.000    0.000 
#
# Total GULP energy -311806.457207 kJ/mol
# GULP energy per Si atom -5567.972450 kJ/mol
# Density = 1.772201 g / cm^3
# Si number density = 17.762435 Si / 1000 Ang^3
#
#
#
# Elastic Constant Matrix: (Units=GPa)
#
#
# Indices 1 2 3 4 5 6 
#
# 1 104.7848 83.5514 51.0966 0.0000 0.0000 0.0000
# 2 83.5514 104.7848 51.0966 0.0000 0.0000 0.0000
# 3 51.0966 51.0966 128.6444 0.0000 0.0000 0.0000
# 4 0.0000 0.0000 0.0000 27.4718 0.0000 0.0000
# 5 0.0000 0.0000 0.0000 0.0000 27.4718 0.0000
# 6 0.0000 0.0000 0.0000 0.0000 0.0000 29.2808
#
#
#
# Elastic Compliance Matrix: (Units=1/GPa)
#
#
# Indices 1 2 3 4 5 6 
#
# 1 0.026932 -0.020164 -0.002688 0.000000 0.000000 0.000000
# 2 -0.020164 0.026932 -0.002688 0.000000 0.000000 0.000000
# 3 -0.002688 -0.002688 0.009909 0.000000 0.000000 0.000000
# 4 0.000000 0.000000 0.000000 0.036401 0.000000 0.000000
# 5 0.000000 0.000000 0.000000 0.000000 0.036401 0.000000
# 6 0.000000 0.000000 0.000000 0.000000 0.000000 0.034152
#
#
# Mechanical properties :
#
#
# Convention : Reuss Voigt Hill
#
# Bulk Modulus (GPa) = 78.78784 78.85590 78.82187
# Shear Modulus (GPa) = 22.12016 27.00952 24.56484
#
# Velocity S-wave (km/s) = 3.53276 3.90371 3.72286
# Velocity P-wave (km/s) = 7.81622 8.05045 7.93420
#
# Compressibility (1/GPa) = 0.01269231
#
# Stress axis : x y z
#
# Youngs Moduli (GPa) = 37.13060 37.13060 100.91883
#
# Poissons Ratio (x) = 0.74869 0.27131
# Poissons Ratio (y) = 0.74869 0.27131
# Poissons Ratio (z) = 0.09982 0.09982
#
# Static dielectric constant tensor:
#      x y z
#    x 1.638950 0.000000 0.000000 
#    y 0.000000 1.638950 0.000000 
#    z 0.000000 0.000000 1.630730 
# 
# From -- ./inp_files/6081.got.cif
#   From: 2010.05.17/outbox.cif.g08.bks.cpg/sg140_4_cif.got.tgz:6081.got - 2010.06.21 00:45:31.
