data_PCOD9572323
_publ_section_title
;
Structure prediction by ZEFSAII (Michael W. Deem and Ramdas Pophale) SiO2 
 PCOD9572323
Probable space group: I 4/M C M
;
_chemical_formula_sum "Si O2"
_cell_formula_units_Z 160
_cell_length_a 23.498542
_cell_length_b 23.498542
_cell_length_c 15.003331
_cell_angle_alpha 90.000000
_cell_angle_beta 90.000000
_cell_angle_gamma 90.000000
_cell_volume 8284.561458
_symmetry_space_group_name_H-M "I 4/M C M"
_symmetry_group_IT_number 140
_symmetry_cell_setting 'tetragonal'
loop_
_space_group_symop_operation_xyz
x,y,z
-y,x,z
-x,-y,z
y,-x,z
x,-y,1/2-z
-x,y,1/2-z
y,x,1/2-z
-y,-x,1/2-z
-x,-y,-z
y,-x,-z
x,y,-z
-y,x,-z
-x,y,1/2+z
x,-y,1/2+z
-y,-x,1/2+z
y,x,1/2+z
1/2+x,1/2+y,1/2+z
1/2-y,1/2+x,1/2+z
1/2-x,1/2-y,1/2+z
1/2+y,1/2-x,1/2+z
1/2+x,1/2-y,-z
1/2-x,1/2+y,-z
1/2+y,1/2+x,-z
1/2-y,1/2-x,-z
1/2-x,1/2-y,1/2-z
1/2+y,1/2-x,1/2-z
1/2+x,1/2+y,1/2-z
1/2-y,1/2+x,1/2-z
1/2-x,1/2+y,z
1/2+x,1/2-y,z
1/2-y,1/2-x,z
1/2+y,1/2+x,z
loop_
_atom_site_type_symbol
_atom_site_label
_atom_site_fract_x
_atom_site_fract_y
_atom_site_fract_z
Si Si1 0.617443 0.369643 0.151393
Si Si2 0.179343 0.587068 0.716212
Si Si3 0.659180 0.506772 0.398371
Si Si4 0.524565 0.205403 0.394262
Si Si5 0.665719 0.255680 0.097920
O O1 0.638957 0.361044 0.250000
O O2 0.628145 0.434345 0.122968
O O3 0.550003 0.357256 0.153786
O O4 0.653357 0.322679 0.097908
O O5 0.120836 0.620836 0.708253
O O6 0.179927 0.532113 0.651872
O O7 0.190185 0.571983 0.819934
O O8 0.227988 0.627878 0.675295
O O9 0.646326 0.491117 0.500000
O O10 0.726388 0.517248 0.389961
O O11 0.532304 0.190549 0.500000
O O12 0.729339 0.229339 0.107351
O O13 0.644984 0.235166 0.000000
#
# Coordination Sequence:
#
# PCOD9572323 Si02
#       5
#    32  32  32  32  32
#     4  12  24  38  60  87 121 161 211 263 316 373
#     4  10  20  35  62  94 124 159 208 259 309 374
#     4  11  23  40  60  84 117 163 210 258 312 367
#     4  10  21  38  62  89 126 165 206 256 316 378
#     4  10  20  37  62  91 123 162 210 262 315 379
#
# _framework density 19.313033000000001
#
# number of rings (size 3 to 8) (size 9 to 14) (size 15 to 20)
#    0.000    1.400    2.000    4.200    2.800    2.400 
#    0.000    3.000    0.000    6.000    0.000    5.600 
#    0.000    0.000    0.000    0.000    0.000    0.000 
#
# Total GULP energy -445983.831823 kJ/mol
# GULP energy per Si atom -5574.797898 kJ/mol
# Density = 1.926908 g / cm^3
# Si number density = 19.313033 Si / 1000 Ang^3
#
#
#
# Elastic Constant Matrix: (Units=GPa)
#
#
# Indices 1 2 3 4 5 6 
#
# 1 -378.4135 504.9884 25.4119 0.0000 0.0000 0.0000
# 2 504.9884 -378.4339 25.4054 0.0000 0.0000 0.0000
# 3 25.4119 25.4054 121.5743 0.0000 0.0000 0.0000
# 4 0.0000 0.0000 0.0000 48.1836 0.0000 0.0000
# 5 0.0000 0.0000 0.0000 0.0000 48.2459 0.0000
# 6 0.0000 0.0000 0.0000 0.0000 0.0000 0.2224
#
#
#
# Elastic Compliance Matrix: (Units=1/GPa)
#
#
# Indices 1 2 3 4 5 6 
#
# 1 0.003747 0.004878 -0.001803 0.000000 0.000000 0.000000
# 2 0.004878 0.003746 -0.001803 0.000000 0.000000 0.000000
# 3 -0.001803 -0.001803 0.008979 0.000000 0.000000 0.000000
# 4 0.000000 0.000000 0.000000 0.020754 0.000000 0.000000
# 5 0.000000 0.000000 0.000000 0.000000 0.020727 0.000000
# 6 0.000000 0.000000 0.000000 0.000000 0.000000 4.496446
#
#
# Mechanical properties :
#
#
# Convention : Reuss Voigt Hill
#
# Bulk Modulus (GPa) = 52.58090 52.92649 52.75369
# Shear Modulus (GPa) = 1.09693 -60.07489 -29.48898
#
# Velocity S-wave (km/s) = 0.75446 -5.58332 -3.91179
# Velocity P-wave (km/s) = 5.29563 3.75506 2.64037
#
# Compressibility (1/GPa) = 0.01901831
#
# Stress axis : x y z
#
# Youngs Moduli (GPa) = 266.91398 266.92626 111.37236
#
# Poissons Ratio (x) = -1.30218 0.20076
# Poissons Ratio (y) = -1.30212 0.20076
# Poissons Ratio (z) = 0.48113 0.48116
#
# Static dielectric constant tensor:
#      x y z
#    x 1.729460 0.000000 0.000000 
#    y 0.000000 1.729490 0.000000 
#    z 0.000000 0.000000 1.709690 
# 
# From -- ./inp_files/4733.got.cif
#   From: 2010.05.17/outbox.cif.g08.bks.cpg/sg140_3_cif.got.tgz:4733.got - 2010.06.21 00:45:31.
