data_PCOD9572554
_publ_section_title
;
Structure prediction by ZEFSAII (Michael W. Deem and Ramdas Pophale) SiO2 
 PCOD9572554
Probable space group: I 4/M C M
;
_chemical_formula_sum "Si O2"
_cell_formula_units_Z 144
_cell_length_a 18.380104
_cell_length_b 18.380104
_cell_length_c 20.320951
_cell_angle_alpha 90.000000
_cell_angle_beta 90.000000
_cell_angle_gamma 90.000000
_cell_volume 6864.990767
_symmetry_space_group_name_H-M "I 4/M C M"
_symmetry_group_IT_number 140
_symmetry_cell_setting 'tetragonal'
loop_
_space_group_symop_operation_xyz
x,y,z
-y,x,z
-x,-y,z
y,-x,z
x,-y,1/2-z
-x,y,1/2-z
y,x,1/2-z
-y,-x,1/2-z
-x,-y,-z
y,-x,-z
x,y,-z
-y,x,-z
-x,y,1/2+z
x,-y,1/2+z
-y,-x,1/2+z
y,x,1/2+z
1/2+x,1/2+y,1/2+z
1/2-y,1/2+x,1/2+z
1/2-x,1/2-y,1/2+z
1/2+y,1/2-x,1/2+z
1/2+x,1/2-y,-z
1/2-x,1/2+y,-z
1/2+y,1/2+x,-z
1/2-y,1/2-x,-z
1/2-x,1/2-y,1/2-z
1/2+y,1/2-x,1/2-z
1/2+x,1/2+y,1/2-z
1/2-y,1/2+x,1/2-z
1/2-x,1/2+y,z
1/2+x,1/2-y,z
1/2-y,1/2-x,z
1/2+y,1/2+x,z
loop_
_atom_site_type_symbol
_atom_site_label
_atom_site_fract_x
_atom_site_fract_y
_atom_site_fract_z
Si Si1 0.760146 0.856077 0.288483
Si Si2 0.636767 0.668328 0.579758
Si Si3 0.000000 0.322060 0.750000
Si Si4 0.020625 0.788277 0.076797
Si Si5 0.498503 0.881804 0.391219
O O1 0.832341 0.832341 0.250000
O O2 0.696919 0.803082 0.263768
O O3 0.770557 0.843958 0.366547
O O4 0.731225 0.934678 0.269830
O O5 0.646248 0.682667 0.500000
O O6 0.681927 0.597368 0.602242
O O7 0.550071 0.663941 0.593763
O O8 0.010907 0.372407 0.686918
O O9 0.005296 0.702178 0.086129
O O10 0.029369 0.799066 0.000000
O O11 0.573060 0.926941 0.404984
O O12 0.432164 0.932164 0.416582
#
# Coordination Sequence:
#
# PCOD9572554 Si02
#       5
#    32  32  16  32  32
#     4  11  24  40  63  95 131 174 219 272 335 399
#     4  10  22  41  66  96 131 173 220 275 334 400
#     4  12  22  39  62  89 128 164 214 268 322 391
#     4  10  22  41  65  94 128 167 216 269 330 397
#     4  11  23  39  61  90 126 168 214 265 325 392
#
# _framework density 20.975992999999999
#
# number of rings (size 3 to 8) (size 9 to 14) (size 15 to 20)
#    0.000    1.333    2.222    3.333    0.000    5.333 
#    0.000    7.778    0.000    0.333    0.000    0.000 
#    0.000    0.000    0.000    0.000    0.000    0.000 
#
# Total GULP energy -401008.055139 kJ/mol
# GULP energy per Si atom -5569.556321 kJ/mol
# Density = 2.092825 g / cm^3
# Si number density = 20.975993 Si / 1000 Ang^3
#
#
#
# Elastic Constant Matrix: (Units=GPa)
#
#
# Indices 1 2 3 4 5 6 
#
# 1 104.9351 97.6031 2.3761 0.0000 0.0000 0.0000
# 2 97.6031 104.9351 2.3761 0.0000 0.0000 0.0000
# 3 2.3761 2.3761 36.8422 0.0000 0.0000 0.0000
# 4 0.0000 0.0000 0.0000 44.6182 0.0000 0.0000
# 5 0.0000 0.0000 0.0000 0.0000 44.6182 0.0000
# 6 0.0000 0.0000 0.0000 0.0000 0.0000 44.1741
#
#
#
# Elastic Compliance Matrix: (Units=1/GPa)
#
#
# Indices 1 2 3 4 5 6 
#
# 1 0.070667 -0.065722 -0.000319 0.000000 0.000000 0.000000
# 2 -0.065722 0.070667 -0.000319 0.000000 0.000000 0.000000
# 3 -0.000319 -0.000319 0.027184 0.000000 0.000000 0.000000
# 4 0.000000 0.000000 0.000000 0.022412 0.000000 0.000000
# 5 0.000000 0.000000 0.000000 0.000000 0.022412 0.000000
# 6 0.000000 0.000000 0.000000 0.000000 0.000000 0.022638
#
#
# Mechanical properties :
#
#
# Convention : Reuss Voigt Hill
#
# Bulk Modulus (GPa) = 27.93459 50.15812 39.04636
# Shear Modulus (GPa) = 13.13607 36.30593 24.72100
#
# Velocity S-wave (km/s) = 2.50520 4.16484 3.43671
# Velocity P-wave (km/s) = 4.65987 6.86236 5.86542
#
# Compressibility (1/GPa) = 0.03579791
#
# Stress axis : x y z
#
# Youngs Moduli (GPa) = 14.15096 14.15096 36.78647
#
# Poissons Ratio (x) = 0.93003 0.01173
# Poissons Ratio (y) = 0.93003 0.01173
# Poissons Ratio (z) = 0.00451 0.00451
#
# Static dielectric constant tensor:
#      x y z
#    x 1.609360 0.000000 0.000000 
#    y 0.000000 1.609360 0.000000 
#    z 0.000000 0.000000 1.811340 
# 
# From -- ./inp_files/9400.got.cif
#   From: 2010.05.17/outbox.cif.g08.bks.cpg/sg140_5_cif.got.tgz:9400.got - 2010.06.21 00:45:31.
