data_PCOD9572068
_publ_section_title
;
Structure prediction by ZEFSAII (Michael W. Deem and Ramdas Pophale) SiO2 
 PCOD9572068
Probable space group: I 4/M C M
;
_chemical_formula_sum "Si O2"
_cell_formula_units_Z 112
_cell_length_a 17.698210
_cell_length_b 17.698210
_cell_length_c 17.686396
_cell_angle_alpha 90.000000
_cell_angle_beta 90.000000
_cell_angle_gamma 90.000000
_cell_volume 5539.850343
_symmetry_space_group_name_H-M "I 4/M C M"
_symmetry_group_IT_number 140
_symmetry_cell_setting 'tetragonal'
loop_
_space_group_symop_operation_xyz
x,y,z
-y,x,z
-x,-y,z
y,-x,z
x,-y,1/2-z
-x,y,1/2-z
y,x,1/2-z
-y,-x,1/2-z
-x,-y,-z
y,-x,-z
x,y,-z
-y,x,-z
-x,y,1/2+z
x,-y,1/2+z
-y,-x,1/2+z
y,x,1/2+z
1/2+x,1/2+y,1/2+z
1/2-y,1/2+x,1/2+z
1/2-x,1/2-y,1/2+z
1/2+y,1/2-x,1/2+z
1/2+x,1/2-y,-z
1/2-x,1/2+y,-z
1/2+y,1/2+x,-z
1/2-y,1/2-x,-z
1/2-x,1/2-y,1/2-z
1/2+y,1/2-x,1/2-z
1/2+x,1/2+y,1/2-z
1/2-y,1/2+x,1/2-z
1/2-x,1/2+y,z
1/2+x,1/2-y,z
1/2-y,1/2-x,z
1/2+y,1/2+x,z
loop_
_atom_site_type_symbol
_atom_site_label
_atom_site_fract_x
_atom_site_fract_y
_atom_site_fract_z
Si Si1 0.817408 0.682593 0.914481
Si Si2 0.710935 0.396194 0.298233
Si Si3 0.441204 0.941204 0.877310
Si Si4 0.126067 0.017976 0.416735
Si Si5 0.165330 0.500000 0.750000
O O1 0.746894 0.652096 0.866406
O O2 0.882782 0.617219 0.916251
O O3 0.797837 0.702164 0.000000
O O4 0.651192 0.348809 0.250000
O O5 0.675375 0.467334 0.343028
O O6 0.780734 0.426878 0.249243
O O7 0.490207 0.887064 0.822621
O O8 0.500000 0.000000 0.914908
O O9 0.164026 0.023358 0.500000
O O10 0.061256 0.082328 0.414050
#
# Coordination Sequence:
#
# PCOD9572068 Si02
#       5
#    16  32  16  32  16
#     4  10  23  38  54  79 109 146 181 218 276 343
#     4  11  21  34  53  82 111 146 181 226 271 333
#     4  10  18  36  62  81 102 139 184 238 293 327
#     4   9  18  33  53  76 106 145 185 225 271 319
#     4  10  19  32  56  83 110 140 182 234 286 331
#
# _framework density 20.217153
#
# number of rings (size 3 to 8) (size 9 to 14) (size 15 to 20)
#    0.000    2.000    1.429    3.857    0.000    0.286 
#    0.000    1.429    0.000    1.714    0.000    0.000 
#    0.000    0.000    0.000    0.000    0.000    0.000 
#
# Total GULP energy -312268.747082 kJ/mol
# GULP energy per Si atom -5576.227626 kJ/mol
# Density = 2.017114 g / cm^3
# Si number density = 20.217153 Si / 1000 Ang^3
#
#
#
# Elastic Constant Matrix: (Units=GPa)
#
#
# Indices 1 2 3 4 5 6 
#
# 1 39.7565 16.0151 27.0150 0.0000 0.0000 0.0000
# 2 16.0151 39.7544 27.0145 0.0000 0.0000 0.0000
# 3 27.0150 27.0145 109.4476 0.0000 0.0000 0.0000
# 4 0.0000 0.0000 0.0000 14.5427 0.0000 0.0000
# 5 0.0000 0.0000 0.0000 0.0000 14.5422 0.0000
# 6 0.0000 0.0000 0.0000 0.0000 0.0000 40.3888
#
#
#
# Elastic Compliance Matrix: (Units=1/GPa)
#
#
# Indices 1 2 3 4 5 6 
#
# 1 0.032843 -0.009278 -0.005817 0.000000 0.000000 0.000000
# 2 -0.009278 0.032845 -0.005817 0.000000 0.000000 0.000000
# 3 -0.005817 -0.005817 0.012008 0.000000 0.000000 0.000000
# 4 0.000000 0.000000 0.000000 0.068763 0.000000 0.000000
# 5 0.000000 0.000000 0.000000 0.000000 0.068765 0.000000
# 6 0.000000 0.000000 0.000000 0.000000 0.000000 0.024759
#
#
# Mechanical properties :
#
#
# Convention : Reuss Voigt Hill
#
# Bulk Modulus (GPa) = 27.87619 36.56086 32.21853
# Shear Modulus (GPa) = 17.02042 21.82236 19.42139
#
# Velocity S-wave (km/s) = 2.90466 3.28898 3.10278
# Velocity P-wave (km/s) = 5.00677 5.70496 5.36723
#
# Compressibility (1/GPa) = 0.03587290
#
# Stress axis : x y z
#
# Youngs Moduli (GPa) = 30.44782 30.44611 83.27627
#
# Poissons Ratio (x) = 0.28249 0.48438
# Poissons Ratio (y) = 0.28250 0.48440
# Poissons Ratio (z) = 0.17710 0.17710
#
# Static dielectric constant tensor:
#      x y z
#    x 1.743910 0.000000 0.000000 
#    y 0.000000 1.743910 0.000000 
#    z 0.000000 0.000000 1.727570 
# 
# From -- ./inp_files/6186.got.cif
#   From: 2010.05.17/outbox.cif.g08.bks.cpg/sg140_4_cif.got.tgz:6186.got - 2010.06.21 00:45:31.
