data_PCOD9572113
_publ_section_title
;
Structure prediction by ZEFSAII (Michael W. Deem and Ramdas Pophale) SiO2 
 PCOD9572113
Probable space group: I 4/M C M
;
_chemical_formula_sum "Si O2"
_cell_formula_units_Z 176
_cell_length_a 24.279972
_cell_length_b 24.279972
_cell_length_c 15.384740
_cell_angle_alpha 90.000000
_cell_angle_beta 90.000000
_cell_angle_gamma 90.000000
_cell_volume 9069.566391
_symmetry_space_group_name_H-M "I 4/M C M"
_symmetry_group_IT_number 140
_symmetry_cell_setting 'tetragonal'
loop_
_space_group_symop_operation_xyz
x,y,z
-y,x,z
-x,-y,z
y,-x,z
x,-y,1/2-z
-x,y,1/2-z
y,x,1/2-z
-y,-x,1/2-z
-x,-y,-z
y,-x,-z
x,y,-z
-y,x,-z
-x,y,1/2+z
x,-y,1/2+z
-y,-x,1/2+z
y,x,1/2+z
1/2+x,1/2+y,1/2+z
1/2-y,1/2+x,1/2+z
1/2-x,1/2-y,1/2+z
1/2+y,1/2-x,1/2+z
1/2+x,1/2-y,-z
1/2-x,1/2+y,-z
1/2+y,1/2+x,-z
1/2-y,1/2-x,-z
1/2-x,1/2-y,1/2-z
1/2+y,1/2-x,1/2-z
1/2+x,1/2+y,1/2-z
1/2-y,1/2+x,1/2-z
1/2-x,1/2+y,z
1/2+x,1/2-y,z
1/2-y,1/2-x,z
1/2+y,1/2+x,z
loop_
_atom_site_type_symbol
_atom_site_label
_atom_site_fract_x
_atom_site_fract_y
_atom_site_fract_z
Si Si1 0.130088 0.719563 0.710734
Si Si2 0.854901 0.736429 0.404856
Si Si3 0.069281 0.055650 0.605791
Si Si4 0.091352 0.503588 0.000000
Si Si5 0.670085 0.365984 0.601274
Si Si6 0.367442 0.958569 0.827464
O O1 0.189398 0.689398 0.700890
O O2 0.117021 0.720118 0.814061
O O3 0.128953 0.778685 0.666121
O O4 0.085540 0.680851 0.665421
O O5 0.880721 0.723724 0.500000
O O6 0.797057 0.702944 0.404292
O O7 0.846455 0.801806 0.399873
O O8 0.068545 0.055782 0.500000
O O9 0.119222 0.095545 0.630437
O O10 0.008215 0.075305 0.633600
O O11 0.125623 0.492883 0.914492
O O12 0.043011 0.456990 0.000000
O O13 0.062060 0.562060 0.000000
O O14 0.684158 0.380292 0.500000
O O15 0.423172 0.923172 0.811433
O O16 0.357733 0.000000 0.750000
#
# Coordination Sequence:
#
# PCOD9572113 Si02
#       6
#    32  32  32  16  32  32
#     4  10  21  36  55  81 118 155 188 238 295 347
#     4   9  18  35  57  81 108 145 196 241 284 345
#     4   8  15  31  54  80 112 149 191 238 284 333
#     4   9  18  34  60  88 112 146 196 247 286 338
#     4  10  19  31  55  88 116 152 192 230 286 353
#     4  10  21  38  58  84 116 153 196 240 293 347
#
# _framework density 19.405559
#
# number of rings (size 3 to 8) (size 9 to 14) (size 15 to 20)
#    0.000    2.636    0.000    2.182    1.273    3.455 
#    4.909    0.000    0.000    0.000    0.000    5.091 
#    0.000    0.000    0.000    0.000    0.000    0.000 
#
# Total GULP energy -490718.545208 kJ/mol
# GULP energy per Si atom -5576.347105 kJ/mol
# Density = 1.936139 g / cm^3
# Si number density = 19.405559 Si / 1000 Ang^3
#
#
#
# Elastic Constant Matrix: (Units=GPa)
#
#
# Indices 1 2 3 4 5 6 
#
# 1 62.2099 43.9527 35.1883 0.0000 0.0000 0.0000
# 2 43.9527 62.2097 35.1888 0.0000 0.0000 0.0000
# 3 35.1883 35.1888 92.9747 0.0000 0.0000 0.0000
# 4 0.0000 0.0000 0.0000 23.9446 0.0000 0.0000
# 5 0.0000 0.0000 0.0000 0.0000 23.9447 0.0000
# 6 0.0000 0.0000 0.0000 0.0000 0.0000 19.7600
#
#
#
# Elastic Compliance Matrix: (Units=1/GPa)
#
#
# Indices 1 2 3 4 5 6 
#
# 1 0.033674 -0.021100 -0.004759 0.000000 0.000000 0.000000
# 2 -0.021100 0.033674 -0.004759 0.000000 0.000000 0.000000
# 3 -0.004759 -0.004759 0.014358 0.000000 0.000000 0.000000
# 4 0.000000 0.000000 0.000000 0.041763 0.000000 0.000000
# 5 0.000000 0.000000 0.000000 0.000000 0.041763 0.000000
# 6 0.000000 0.000000 0.000000 0.000000 0.000000 0.050607
#
#
# Mechanical properties :
#
#
# Convention : Reuss Voigt Hill
#
# Bulk Modulus (GPa) = 48.85088 49.56153 49.20620
# Shear Modulus (GPa) = 17.61195 20.40081 19.00638
#
# Velocity S-wave (km/s) = 3.01586 3.24587 3.13298
# Velocity P-wave (km/s) = 6.11192 6.29626 6.20477
#
# Compressibility (1/GPa) = 0.02047046
#
# Stress axis : x y z
#
# Youngs Moduli (GPa) = 29.69673 29.69639 69.64761
#
# Poissons Ratio (x) = 0.62658 0.33144
# Poissons Ratio (y) = 0.62659 0.33147
# Poissons Ratio (z) = 0.14132 0.14133
#
# Static dielectric constant tensor:
#      x y z
#    x 1.655750 0.000000 0.000000 
#    y 0.000000 1.655750 0.000000 
#    z 0.000000 0.000000 1.705950 
# 
# From -- ./inp_files/4926.got.cif
#   From: 2010.05.17/outbox.cif.g08.bks.cpg/sg140_3_cif.got.tgz:4926.got - 2010.06.21 00:45:31.
