data_PCOD9572011
_publ_section_title
;
Structure prediction by ZEFSAII (Michael W. Deem and Ramdas Pophale) SiO2 
 PCOD9572011
Probable space group: I 4/M C M
;
_chemical_formula_sum "Si O2"
_cell_formula_units_Z 168
_cell_length_a 24.702136
_cell_length_b 24.702136
_cell_length_c 14.628252
_cell_angle_alpha 90.000000
_cell_angle_beta 90.000000
_cell_angle_gamma 90.000000
_cell_volume 8926.093879
_symmetry_space_group_name_H-M "I 4/M C M"
_symmetry_group_IT_number 140
_symmetry_cell_setting 'tetragonal'
loop_
_space_group_symop_operation_xyz
x,y,z
-y,x,z
-x,-y,z
y,-x,z
x,-y,1/2-z
-x,y,1/2-z
y,x,1/2-z
-y,-x,1/2-z
-x,-y,-z
y,-x,-z
x,y,-z
-y,x,-z
-x,y,1/2+z
x,-y,1/2+z
-y,-x,1/2+z
y,x,1/2+z
1/2+x,1/2+y,1/2+z
1/2-y,1/2+x,1/2+z
1/2-x,1/2-y,1/2+z
1/2+y,1/2-x,1/2+z
1/2+x,1/2-y,-z
1/2-x,1/2+y,-z
1/2+y,1/2+x,-z
1/2-y,1/2-x,-z
1/2-x,1/2-y,1/2-z
1/2+y,1/2-x,1/2-z
1/2+x,1/2+y,1/2-z
1/2-y,1/2+x,1/2-z
1/2-x,1/2+y,z
1/2+x,1/2-y,z
1/2-y,1/2-x,z
1/2+y,1/2+x,z
loop_
_atom_site_type_symbol
_atom_site_label
_atom_site_fract_x
_atom_site_fract_y
_atom_site_fract_z
Si Si1 0.089539 0.319115 0.734396
Si Si2 0.775817 0.275817 0.000000
Si Si3 0.666030 0.505490 0.861327
Si Si4 0.898997 0.890285 0.354597
Si Si5 0.164631 0.221215 0.328807
Si Si6 0.491662 0.205934 0.605482
O O1 0.129426 0.370575 0.733912
O O2 0.124195 0.265770 0.711959
O O3 0.059036 0.310415 0.830755
O O4 0.043658 0.320338 0.655643
O O5 0.809209 0.243697 0.919786
O O6 0.669030 0.500000 0.750000
O O7 0.627634 0.456582 0.893990
O O8 0.638425 0.561646 0.891163
O O9 0.728588 0.501939 0.891170
O O10 0.908911 0.908911 0.250000
O O11 0.865920 0.834572 0.350362
O O12 0.207040 0.207040 0.250000
O O13 0.486570 0.189573 0.500000
#
# Coordination Sequence:
#
# PCOD9572011 Si02
#       6
#    32   8  32  32  32  32
#     4  11  23  42  67  93 131 167 212 272 327 391
#     4  12  26  36  64  90 120 178 231 274 341 412
#     4  10  17  36  57  85 122 170 216 271 325 379
#     4   9  18  32  59  81 120 168 215 268 329 374
#     4  11  22  41  57  89 132 172 217 283 335 395
#     4  11  23  41  65  95 129 169 213 262 331 402
#
# _framework density 18.821223
#
# number of rings (size 3 to 8) (size 9 to 14) (size 15 to 20)
#    0.000    1.524    4.762    2.571    1.333    1.143 
#    6.857    1.905    0.000    4.571    0.000    6.667 
#    0.000    0.000    0.000    0.000    0.000    0.000 
#
# Total GULP energy -467804.273065 kJ/mol
# GULP energy per Si atom -5569.098489 kJ/mol
# Density = 1.877838 g / cm^3
# Si number density = 18.821223 Si / 1000 Ang^3
#
#
#
# Elastic Constant Matrix: (Units=GPa)
#
#
# Indices 1 2 3 4 5 6 
#
# 1 87.8299 123.4896 53.5976 0.0000 0.0000 0.0000
# 2 123.4896 87.8299 53.5976 0.0000 0.0000 0.0000
# 3 53.5976 53.5976 165.9720 0.0000 0.0000 0.0000
# 4 0.0000 0.0000 0.0000 0.9945 0.0000 0.0000
# 5 0.0000 0.0000 0.0000 0.0000 0.9945 0.0000
# 6 0.0000 0.0000 0.0000 0.0000 0.0000 38.5739
#
#
#
# Elastic Compliance Matrix: (Units=1/GPa)
#
#
# Indices 1 2 3 4 5 6 
#
# 1 -0.011192 0.016851 -0.001828 0.000000 0.000000 0.000000
# 2 0.016851 -0.011192 -0.001828 0.000000 0.000000 0.000000
# 3 -0.001828 -0.001828 0.007205 0.000000 0.000000 0.000000
# 4 0.000000 0.000000 0.000000 1.005574 0.000000 0.000000
# 5 0.000000 0.000000 0.000000 0.000000 1.005574 0.000000
# 6 0.000000 0.000000 0.000000 0.000000 0.000000 0.025924
#
#
# Mechanical properties :
#
#
# Convention : Reuss Voigt Hill
#
# Bulk Modulus (GPa) = 89.17639 89.22238 89.19938
# Shear Modulus (GPa) = 2.50095 15.50902 9.00499
#
# Velocity S-wave (km/s) = 1.15398 2.87369 2.18972
# Velocity P-wave (km/s) = 7.01849 7.64976 7.34091
#
# Compressibility (1/GPa) = 0.01121373
#
# Stress axis : x y z
#
# Youngs Moduli (GPa) = -89.35095 -89.35095 138.78379
#
# Poissons Ratio (x) = 1.50566 0.25363
# Poissons Ratio (y) = 1.50566 0.25363
# Poissons Ratio (z) = -0.16329 -0.16329
#
# Static dielectric constant tensor:
#      x y z
#    x 1.650990 0.000000 0.000000 
#    y 0.000000 1.650990 0.000000 
#    z 0.000000 0.000000 1.719890 
# 
# From -- ./inp_files/4969.got.cif
#   From: 2010.05.17/outbox.cif.g08.bks.cpg/sg140_3_cif.got.tgz:4969.got - 2010.06.21 00:45:31.
