data_PCOD9572903
_publ_section_title
;
Structure prediction by ZEFSAII (Michael W. Deem and Ramdas Pophale) SiO2 
 PCOD9572903
Probable space group: I 41/A M D
;
_chemical_formula_sum "Si O2"
_cell_formula_units_Z 176
_cell_length_a 17.764636
_cell_length_b 17.764636
_cell_length_c 28.464595
_cell_angle_alpha 90.000000
_cell_angle_beta 90.000000
_cell_angle_gamma 90.000000
_cell_volume 8982.922137
_symmetry_space_group_name_H-M "I 41/A M D"
_symmetry_group_IT_number 141
_space_group.IT_coordinate_system_code '2'
_symmetry_cell_setting 'tetragonal'
loop_
_space_group_symop_operation_xyz
x,y,z
1/4-y,3/4+x,1/4+z
-x,1/2-y,z
1/4+y,1/4-x,3/4+z
x,-y,-z
-x,1/2+y,-z
1/4+y,3/4+x,1/4-z
1/4-y,1/4-x,3/4-z
-x,-y,-z
3/4+y,1/4-x,3/4-z
x,1/2+y,-z
3/4-y,3/4+x,1/4-z
-x,y,z
x,1/2-y,z
3/4-y,1/4-x,3/4+z
3/4+y,3/4+x,1/4+z
1/2+x,1/2+y,1/2+z
3/4-y,1/4+x,3/4+z
1/2-x,-y,1/2+z
3/4+y,3/4-x,1/4+z
1/2+x,1/2-y,1/2-z
1/2-x,y,1/2-z
3/4+y,1/4+x,3/4-z
3/4-y,3/4-x,1/4-z
1/2-x,1/2-y,1/2-z
1/4+y,3/4-x,1/4-z
1/2+x,y,1/2-z
1/4-y,1/4+x,3/4-z
1/2-x,1/2+y,1/2+z
1/2+x,-y,1/2+z
1/4-y,3/4-x,1/4+z
1/4+y,1/4+x,3/4+z
loop_
_atom_site_type_symbol
_atom_site_label
_atom_site_fract_x
_atom_site_fract_y
_atom_site_fract_z
Si Si1 0.166559 0.113547 0.825289
Si Si2 0.816574 0.929623 0.438963
Si Si3 0.144512 0.436554 0.291639
Si Si4 0.583712 0.917514 0.602767
Si Si5 0.914012 0.335989 0.375000
Si Si6 0.144789 0.337948 0.019792
O O1 0.124360 0.125641 0.875000
O O2 0.250871 0.145137 0.830556
O O3 0.125582 0.136771 0.777728
O O4 0.169840 0.022979 0.819291
O O5 0.840683 0.889937 0.487485
O O6 0.852393 0.892560 0.393472
O O7 0.825751 0.018610 0.443930
O O8 0.099113 0.393097 0.331683
O O9 0.124421 0.525088 0.286417
O O10 0.500000 0.923516 0.622803
O O11 0.589345 0.856785 0.561999
O O12 0.904638 0.250000 0.358126
O O13 0.157063 0.250000 0.012024
#
# Coordination Sequence:
#
# PCOD9572903 Si02
#       6
#    32  32  32  32  16  32
#     4   9  19  35  57  83 114 145 193 242 286 339
#     4   9  19  36  61  89 112 141 192 248 286 334
#     4  10  19  37  63  86 113 147 190 246 291 342
#     4  11  22  36  56  83 118 158 196 233 286 348
#     4  11  24  38  54  82 120 158 192 232 291 358
#     4  11  22  36  58  87 116 151 194 242 294 345
#
# _framework density 19.592734
#
# number of rings (size 3 to 8) (size 9 to 14) (size 15 to 20)
#    0.000    1.909    1.818    2.182    1.273    9.091 
#    0.000    2.727    0.000    0.000    0.000    3.818 
#    0.000    0.000    0.000    0.000    0.000    0.000 
#
# Total GULP energy -490820.312859 kJ/mol
# GULP energy per Si atom -5577.503555 kJ/mol
# Density = 1.954814 g / cm^3
# Si number density = 19.592734 Si / 1000 Ang^3
#
#
#
# Elastic Constant Matrix: (Units=GPa)
#
#
# Indices 1 2 3 4 5 6 
#
# 1 39.8062 7.1388 38.5378 0.0000 0.0000 0.0000
# 2 7.1388 39.8062 38.5386 0.0000 0.0000 0.0000
# 3 38.5378 38.5386 135.7886 0.0000 0.0000 0.0000
# 4 0.0000 0.0000 0.0000 2.8196 0.0000 0.0000
# 5 0.0000 0.0000 0.0000 0.0000 2.8182 0.0000
# 6 0.0000 0.0000 0.0000 0.0000 0.0000 9.8884
#
#
#
# Elastic Compliance Matrix: (Units=1/GPa)
#
#
# Indices 1 2 3 4 5 6 
#
# 1 0.035250 0.004639 -0.011321 0.000000 0.000000 0.000000
# 2 0.004639 0.035250 -0.011321 0.000000 0.000000 0.000000
# 3 -0.011321 -0.011321 0.013790 0.000000 0.000000 0.000000
# 4 0.000000 0.000000 0.000000 0.354665 0.000000 0.000000
# 5 0.000000 0.000000 0.000000 0.000000 0.354838 0.000000
# 6 0.000000 0.000000 0.000000 0.000000 0.000000 0.101128
#
#
# Mechanical properties :
#
#
# Convention : Reuss Voigt Hill
#
# Bulk Modulus (GPa) = 20.71069 42.64794 31.67931
# Shear Modulus (GPa) = 5.27971 11.85095 8.56533
#
# Velocity S-wave (km/s) = 1.64334 2.46207 2.09313
# Velocity P-wave (km/s) = 3.76753 5.46780 4.69527
#
# Compressibility (1/GPa) = 0.04828425
#
# Stress axis : x y z
#
# Youngs Moduli (GPa) = 28.36898 28.36856 72.51467
#
# Poissons Ratio (x) = -0.13159 0.82091
# Poissons Ratio (y) = -0.13159 0.82094
# Poissons Ratio (z) = 0.32115 0.32116
#
# Static dielectric constant tensor:
#      x y z
#    x 1.686940 0.000000 0.000000 
#    y 0.000000 1.686940 0.000000 
#    z 0.000000 0.000000 1.720490 
# 
# From -- ./inp_files/12865.got.cif
#   From: 2010.05.17/outbox.cif.g08.bks.cpg/sg141_7_cif.got.tgz:12865.got - 2010.05.20 13:30:51.
