data_PCOD9572684
_publ_section_title
;
Structure prediction by ZEFSAII (Michael W. Deem and Ramdas Pophale) SiO2 
 PCOD9572684
Probable space group: I 4/M C M
;
_chemical_formula_sum "Si O2"
_cell_formula_units_Z 160
_cell_length_a 19.588308
_cell_length_b 19.588308
_cell_length_c 19.429624
_cell_angle_alpha 90.000000
_cell_angle_beta 90.000000
_cell_angle_gamma 90.000000
_cell_volume 7455.181902
_symmetry_space_group_name_H-M "I 4/M C M"
_symmetry_group_IT_number 140
_symmetry_cell_setting 'tetragonal'
loop_
_space_group_symop_operation_xyz
x,y,z
-y,x,z
-x,-y,z
y,-x,z
x,-y,1/2-z
-x,y,1/2-z
y,x,1/2-z
-y,-x,1/2-z
-x,-y,-z
y,-x,-z
x,y,-z
-y,x,-z
-x,y,1/2+z
x,-y,1/2+z
-y,-x,1/2+z
y,x,1/2+z
1/2+x,1/2+y,1/2+z
1/2-y,1/2+x,1/2+z
1/2-x,1/2-y,1/2+z
1/2+y,1/2-x,1/2+z
1/2+x,1/2-y,-z
1/2-x,1/2+y,-z
1/2+y,1/2+x,-z
1/2-y,1/2-x,-z
1/2-x,1/2-y,1/2-z
1/2+y,1/2-x,1/2-z
1/2+x,1/2+y,1/2-z
1/2-y,1/2+x,1/2-z
1/2-x,1/2+y,z
1/2+x,1/2-y,z
1/2-y,1/2-x,z
1/2+y,1/2+x,z
loop_
_atom_site_type_symbol
_atom_site_label
_atom_site_fract_x
_atom_site_fract_y
_atom_site_fract_z
Si Si1 0.822701 0.086322 0.800469
Si Si2 0.010091 0.114924 0.078287
Si Si3 0.566069 0.179922 0.721041
Si Si4 0.188760 0.195812 0.924525
Si Si5 0.699457 0.082623 0.428507
O O1 0.881288 0.118713 0.750000
O O2 0.844574 0.022470 0.849912
O O3 0.753251 0.075699 0.757399
O O4 0.804872 0.141191 0.859333
O O5 0.940332 0.071830 0.080670
O O6 0.011545 0.145916 0.000000
O O7 0.500000 0.142392 0.750000
O O8 0.634374 0.134374 0.725582
O O9 0.545379 0.192009 0.642141
O O10 0.244329 0.255672 0.918510
O O11 0.230942 0.125454 0.925596
O O12 0.155530 0.203019 0.000000
O O13 0.695725 0.043141 0.500000
O O14 0.639664 0.139664 0.429781
#
# Coordination Sequence:
#
# PCOD9572684 Si02
#       5
#    32  32  32  32  32
#     4  12  23  33  59  91 129 158 197 259 324 367
#     4   9  21  42  63  85 123 176 221 251 292 368
#     4  11  25  43  63  92 126 161 212 266 325 388
#     4   9  17  31  52  81 118 159 196 239 310 380
#     4   8  15  32  58  84 111 151 202 247 291 366
#
# _framework density 21.461582
#
# number of rings (size 3 to 8) (size 9 to 14) (size 15 to 20)
#    0.000    2.200    2.000    3.000    2.800    1.000 
#    0.000    3.000    0.000    3.000    0.000    2.800 
#    0.000    0.000    0.000    0.000    0.000    0.000 
#
# Total GULP energy -446229.401249 kJ/mol
# GULP energy per Si atom -5577.867516 kJ/mol
# Density = 2.141273 g / cm^3
# Si number density = 21.461582 Si / 1000 Ang^3
#
#
#
# Elastic Constant Matrix: (Units=GPa)
#
#
# Indices 1 2 3 4 5 6 
#
# 1 57.6899 8.8748 35.6686 0.0000 0.0000 0.0000
# 2 8.8748 57.6907 35.6684 0.0000 0.0000 0.0000
# 3 35.6686 35.6684 197.5889 0.0000 0.0000 0.0000
# 4 0.0000 0.0000 0.0000 38.2641 0.0000 0.0000
# 5 0.0000 0.0000 0.0000 0.0000 38.2699 0.0000
# 6 0.0000 0.0000 0.0000 0.0000 0.0000 24.9051
#
#
#
# Elastic Compliance Matrix: (Units=1/GPa)
#
#
# Indices 1 2 3 4 5 6 
#
# 1 0.019556 -0.000929 -0.003362 0.000000 0.000000 0.000000
# 2 -0.000929 0.019556 -0.003362 0.000000 0.000000 0.000000
# 3 -0.003362 -0.003362 0.006275 0.000000 0.000000 0.000000
# 4 0.000000 0.000000 0.000000 0.026134 0.000000 0.000000
# 5 0.000000 0.000000 0.000000 0.000000 0.026130 0.000000
# 6 0.000000 0.000000 0.000000 0.000000 0.000000 0.040152
#
#
# Mechanical properties :
#
#
# Convention : Reuss Voigt Hill
#
# Bulk Modulus (GPa) = 33.24685 52.59923 42.92304
# Shear Modulus (GPa) = 30.64890 35.80499 33.22695
#
# Velocity S-wave (km/s) = 3.78310 4.08895 3.93899
# Velocity P-wave (km/s) = 5.88280 6.84503 6.38208
#
# Compressibility (1/GPa) = 0.03007804
#
# Stress axis : x y z
#
# Youngs Moduli (GPa) = 51.13526 51.13610 159.36330
#
# Poissons Ratio (x) = 0.04753 0.53585
# Poissons Ratio (y) = 0.04753 0.53584
# Poissons Ratio (z) = 0.17194 0.17194
#
# Static dielectric constant tensor:
#      x y z
#    x 1.794560 0.000000 0.000000 
#    y 0.000000 1.794560 0.000000 
#    z 0.000000 0.000000 1.825180 
# 
# From -- ./inp_files/6809.got.cif
#   From: 2010.05.17/outbox.cif.g08.bks.cpg/sg140_4_cif.got.tgz:6809.got - 2010.06.21 00:45:31.
