data_PCOD9572760
_publ_section_title
;
Structure prediction by ZEFSAII (Michael W. Deem and Ramdas Pophale) SiO2 
 PCOD9572760
Probable space group: I 41/A M D
;
_chemical_formula_sum "Si O2"
_cell_formula_units_Z 224
_cell_length_a 23.426629
_cell_length_b 23.426629
_cell_length_c 26.142859
_cell_angle_alpha 90.000000
_cell_angle_beta 90.000000
_cell_angle_gamma 90.000000
_cell_volume 14347.382615
_symmetry_space_group_name_H-M "I 41/A M D"
_symmetry_group_IT_number 141
_space_group.IT_coordinate_system_code '2'
_symmetry_cell_setting 'tetragonal'
loop_
_space_group_symop_operation_xyz
x,y,z
1/4-y,3/4+x,1/4+z
-x,1/2-y,z
1/4+y,1/4-x,3/4+z
x,-y,-z
-x,1/2+y,-z
1/4+y,3/4+x,1/4-z
1/4-y,1/4-x,3/4-z
-x,-y,-z
3/4+y,1/4-x,3/4-z
x,1/2+y,-z
3/4-y,3/4+x,1/4-z
-x,y,z
x,1/2-y,z
3/4-y,1/4-x,3/4+z
3/4+y,3/4+x,1/4+z
1/2+x,1/2+y,1/2+z
3/4-y,1/4+x,3/4+z
1/2-x,-y,1/2+z
3/4+y,3/4-x,1/4+z
1/2+x,1/2-y,1/2-z
1/2-x,y,1/2-z
3/4+y,1/4+x,3/4-z
3/4-y,3/4-x,1/4-z
1/2-x,1/2-y,1/2-z
1/4+y,3/4-x,1/4-z
1/2+x,y,1/2-z
1/4-y,1/4+x,3/4-z
1/2-x,1/2+y,1/2+z
1/2+x,-y,1/2+z
1/4-y,3/4-x,1/4+z
1/4+y,1/4+x,3/4+z
loop_
_atom_site_type_symbol
_atom_site_label
_atom_site_fract_x
_atom_site_fract_y
_atom_site_fract_z
Si Si1 0.109119 0.818899 0.070777
Si Si2 0.671468 0.904599 0.015371
Si Si3 0.500000 0.180777 0.502219
Si Si4 0.065579 0.138693 0.572021
Si Si5 0.567116 0.476307 0.739131
Si Si6 0.500000 0.180724 0.385241
Si Si7 0.828274 0.482576 0.416920
Si Si8 0.435995 0.475098 0.859988
O O1 0.099469 0.849469 0.125000
O O2 0.105183 0.750000 0.079001
O O3 0.056926 0.835392 0.033170
O O4 0.169476 0.830555 0.043402
O O5 0.610371 0.876692 0.028136
O O6 0.721066 0.858402 0.022808
O O7 0.679951 0.957587 0.054149
O O8 0.671798 0.932992 0.959384
O O9 0.500000 0.250000 0.500217
O O10 0.500000 0.159788 0.443712
O O11 0.085188 0.193940 0.603605
O O12 0.065268 0.085418 0.611007
O O13 0.000000 0.147045 0.554426
O O14 0.500000 0.489749 0.730575
O O15 0.574184 0.465196 0.799924
O O16 0.500000 0.250000 0.387973
O O17 0.780496 0.469505 0.375000
O O18 0.888210 0.486626 0.386814
O O19 0.500000 0.499118 0.865827
#
# Coordination Sequence:
#
# PCOD9572760 Si02
#       8
#    32  32  16  32  32  16  32  32
#     4  10  18  29  47  73 103 136 171 219 260 295
#     4  10  21  33  52  76  98 133 163 207 255 296
#     4   9  16  26  48  73 101 131 173 214 257 294
#     4   9  18  31  49  74 104 127 162 202 251 303
#     4  10  20  32  49  74 102 131 169 204 254 311
#     4   9  16  28  46  73 101 135 167 202 246 302
#     4  10  19  35  54  73 100 126 170 209 244 299
#     4   9  17  32  52  74 100 128 158 212 258 294
#
# _framework density 15.612605
#
# number of rings (size 3 to 8) (size 9 to 14) (size 15 to 20)
#    0.000    2.429    2.143    0.857    1.000    4.571 
#    0.000    2.857    0.000    0.000    0.000    1.000 
#    0.000    0.000    0.000    0.000    0.000    0.000 
#
# Total GULP energy -623918.438163 kJ/mol
# GULP energy per Si atom -5570.700341 kJ/mol
# Density = 1.557707 g / cm^3
# Si number density = 15.612605 Si / 1000 Ang^3
#
#
#
# Elastic Constant Matrix: (Units=GPa)
#
#
# Indices 1 2 3 4 5 6 
#
# 1 78.6222 54.7094 46.8528 0.0000 0.0000 0.0000
# 2 54.7094 78.6189 46.8515 0.0000 0.0000 0.0000
# 3 46.8528 46.8515 94.7158 0.0000 0.0000 0.0000
# 4 0.0000 0.0000 0.0000 15.7107 0.0000 0.0000
# 5 0.0000 0.0000 0.0000 0.0000 15.7122 0.0000
# 6 0.0000 0.0000 0.0000 0.0000 0.0000 26.6060
#
#
#
# Elastic Compliance Matrix: (Units=1/GPa)
#
#
# Indices 1 2 3 4 5 6 
#
# 1 0.026659 -0.015162 -0.005687 0.000000 0.000000 0.000000
# 2 -0.015162 0.026660 -0.005687 0.000000 0.000000 0.000000
# 3 -0.005687 -0.005687 0.016184 0.000000 0.000000 0.000000
# 4 0.000000 0.000000 0.000000 0.063651 0.000000 0.000000
# 5 0.000000 0.000000 0.000000 0.000000 0.063645 0.000000
# 6 0.000000 0.000000 0.000000 0.000000 0.000000 0.037585
#
#
# Mechanical properties :
#
#
# Convention : Reuss Voigt Hill
#
# Bulk Modulus (GPa) = 60.86462 60.97604 60.92033
# Shear Modulus (GPa) = 17.06868 18.50865 17.78867
#
# Velocity S-wave (km/s) = 3.31004 3.44684 3.37913
# Velocity P-wave (km/s) = 7.32649 7.41494 7.37085
#
# Compressibility (1/GPa) = 0.01642991
#
# Stress axis : x y z
#
# Youngs Moduli (GPa) = 37.51101 37.50968 61.78810
#
# Poissons Ratio (x) = 0.56873 0.35140
# Poissons Ratio (y) = 0.56875 0.35140
# Poissons Ratio (z) = 0.21333 0.21332
#
# Static dielectric constant tensor:
#      x y z
#    x 1.509140 0.000000 0.000000 
#    y 0.000000 1.509140 0.000000 
#    z 0.000000 0.000000 1.511860 
# 
# From -- ./inp_files/11907.got.cif
#   From: 2010.05.17/outbox.cif.g08.bks.cpg/sg141_6_cif.got.tgz:11907.got - 2010.05.20 13:30:51.
