data_PCOD9572027
_publ_section_title
;
Structure prediction by ZEFSAII (Michael W. Deem and Ramdas Pophale) SiO2 
 PCOD9572027
Probable space group: I 4/M C M
;
_chemical_formula_sum "Si O2"
_cell_formula_units_Z 144
_cell_length_a 18.252793
_cell_length_b 18.252793
_cell_length_c 25.961211
_cell_angle_alpha 90.000000
_cell_angle_beta 90.000000
_cell_angle_gamma 90.000000
_cell_volume 8649.352644
_symmetry_space_group_name_H-M "I 4/M C M"
_symmetry_group_IT_number 140
_symmetry_cell_setting 'tetragonal'
loop_
_space_group_symop_operation_xyz
x,y,z
-y,x,z
-x,-y,z
y,-x,z
x,-y,1/2-z
-x,y,1/2-z
y,x,1/2-z
-y,-x,1/2-z
-x,-y,-z
y,-x,-z
x,y,-z
-y,x,-z
-x,y,1/2+z
x,-y,1/2+z
-y,-x,1/2+z
y,x,1/2+z
1/2+x,1/2+y,1/2+z
1/2-y,1/2+x,1/2+z
1/2-x,1/2-y,1/2+z
1/2+y,1/2-x,1/2+z
1/2+x,1/2-y,-z
1/2-x,1/2+y,-z
1/2+y,1/2+x,-z
1/2-y,1/2-x,-z
1/2-x,1/2-y,1/2-z
1/2+y,1/2-x,1/2-z
1/2+x,1/2+y,1/2-z
1/2-y,1/2+x,1/2-z
1/2-x,1/2+y,z
1/2+x,1/2-y,z
1/2-y,1/2-x,z
1/2+y,1/2+x,z
loop_
_atom_site_type_symbol
_atom_site_label
_atom_site_fract_x
_atom_site_fract_y
_atom_site_fract_z
Si Si1 0.563198 0.748978 0.191949
Si Si2 0.917637 0.087033 0.437927
Si Si3 0.702457 0.085836 0.190361
Si Si4 0.192448 0.810498 0.876541
Si Si5 0.621537 0.500000 0.750000
O O1 0.586368 0.775653 0.248977
O O2 0.498313 0.800597 0.172092
O O3 0.632623 0.733532 0.157261
O O4 0.516800 0.674247 0.202140
O O5 0.915224 0.089717 0.500000
O O6 0.861145 0.145391 0.414896
O O7 0.002726 0.100447 0.422458
O O8 0.625795 0.125795 0.184214
O O9 0.761783 0.134539 0.160054
O O10 0.251607 0.751607 0.897981
O O11 0.570044 0.570044 0.750000
#
# Coordination Sequence:
#
# PCOD9572027 Si02
#       5
#    32  32  32  32  16
#     4  10  18  29  44  62  92 125 159 196 233 272
#     4   9  19  36  55  74  97 124 154 192 241 295
#     4   9  18  30  44  64  91 123 159 195 230 271
#     4  11  20  30  48  72  98 127 157 191 236 288
#     4   9  16  24  36  58  88 119 152 192 232 271
#
# _framework density 16.648644000000001
#
# number of rings (size 3 to 8) (size 9 to 14) (size 15 to 20)
#    0.000    2.556    0.000    6.000    0.000    2.222 
#    0.000    4.444    0.000   11.333    0.000    0.000 
#    0.000    0.000    0.000   19.111    0.000    0.000 
#
# Total GULP energy -400988.239139 kJ/mol
# GULP energy per Si atom -5569.281099 kJ/mol
# Density = 1.661075 g / cm^3
# Si number density = 16.648644 Si / 1000 Ang^3
#
#
#
# Elastic Constant Matrix: (Units=GPa)
#
#
# Indices 1 2 3 4 5 6 
#
# 1 92.6595 49.4396 26.3939 0.0000 0.0000 0.0000
# 2 49.4396 92.6595 26.3939 0.0000 0.0000 0.0000
# 3 26.3939 26.3939 32.7128 0.0000 0.0000 0.0000
# 4 0.0000 0.0000 0.0000 20.3798 0.0000 0.0000
# 5 0.0000 0.0000 0.0000 0.0000 20.3798 0.0000
# 6 0.0000 0.0000 0.0000 0.0000 0.0000 62.4395
#
#
#
# Elastic Compliance Matrix: (Units=1/GPa)
#
#
# Indices 1 2 3 4 5 6 
#
# 1 0.016593 -0.006544 -0.008108 0.000000 0.000000 0.000000
# 2 -0.006544 0.016593 -0.008108 0.000000 0.000000 0.000000
# 3 -0.008108 -0.008108 0.043653 0.000000 0.000000 0.000000
# 4 0.000000 0.000000 0.000000 0.049068 0.000000 0.000000
# 5 0.000000 0.000000 0.000000 0.000000 0.049068 0.000000
# 6 0.000000 0.000000 0.000000 0.000000 0.000000 0.016016
#
#
# Mechanical properties :
#
#
# Convention : Reuss Voigt Hill
#
# Bulk Modulus (GPa) = 31.92949 46.94294 39.43622
# Shear Modulus (GPa) = 20.24678 28.36010 24.30344
#
# Velocity S-wave (km/s) = 3.49108 4.13176 3.82486
# Velocity P-wave (km/s) = 5.95569 7.14279 6.57608
#
# Compressibility (1/GPa) = 0.03131901
#
# Stress axis : x y z
#
# Youngs Moduli (GPa) = 60.26472 60.26472 22.90786
#
# Poissons Ratio (x) = 0.39437 0.18574
# Poissons Ratio (y) = 0.39437 0.18574
# Poissons Ratio (z) = 0.48864 0.48864
#
# Static dielectric constant tensor:
#      x y z
#    x 1.620810 0.000000 0.000000 
#    y 0.000000 1.620810 0.000000 
#    z 0.000000 0.000000 1.555540 
# 
# From -- ./inp_files/10405.got.cif
#   From: 2010.05.17/outbox.cif.g08.bks.cpg/sg140_6_cif.got.tgz:10405.got - 2010.06.21 00:45:31.
