data_PCOD9572946
_publ_section_title
;
Structure prediction by ZEFSAII (Michael W. Deem and Ramdas Pophale) SiO2 
 PCOD9572946
Probable space group: I 41/A M D
;
_chemical_formula_sum "Si O2"
_cell_formula_units_Z 160
_cell_length_a 18.242245
_cell_length_b 18.242245
_cell_length_c 26.403636
_cell_angle_alpha 90.000000
_cell_angle_beta 90.000000
_cell_angle_gamma 90.000000
_cell_volume 8786.588856
_symmetry_space_group_name_H-M "I 41/A M D"
_symmetry_group_IT_number 141
_space_group.IT_coordinate_system_code '2'
_symmetry_cell_setting 'tetragonal'
loop_
_space_group_symop_operation_xyz
x,y,z
1/4-y,3/4+x,1/4+z
-x,1/2-y,z
1/4+y,1/4-x,3/4+z
x,-y,-z
-x,1/2+y,-z
1/4+y,3/4+x,1/4-z
1/4-y,1/4-x,3/4-z
-x,-y,-z
3/4+y,1/4-x,3/4-z
x,1/2+y,-z
3/4-y,3/4+x,1/4-z
-x,y,z
x,1/2-y,z
3/4-y,1/4-x,3/4+z
3/4+y,3/4+x,1/4+z
1/2+x,1/2+y,1/2+z
3/4-y,1/4+x,3/4+z
1/2-x,-y,1/2+z
3/4+y,3/4-x,1/4+z
1/2+x,1/2-y,1/2-z
1/2-x,y,1/2-z
3/4+y,1/4+x,3/4-z
3/4-y,3/4-x,1/4-z
1/2-x,1/2-y,1/2-z
1/4+y,3/4-x,1/4-z
1/2+x,y,1/2-z
1/4-y,1/4+x,3/4-z
1/2-x,1/2+y,1/2+z
1/2+x,-y,1/2+z
1/4-y,3/4-x,1/4+z
1/4+y,1/4+x,3/4+z
loop_
_atom_site_type_symbol
_atom_site_label
_atom_site_fract_x
_atom_site_fract_y
_atom_site_fract_z
Si Si1 0.084809 0.831201 0.539448
Si Si2 0.417118 0.627291 0.080125
Si Si3 0.652431 0.020912 0.059708
Si Si4 0.810394 0.531854 0.054878
Si Si5 0.255178 0.833870 0.104395
O O1 0.114923 0.750000 0.547881
O O2 0.084828 0.848195 0.478987
O O3 0.126619 0.896865 0.565804
O O4 0.000000 0.832537 0.555416
O O5 0.500000 0.643761 0.098429
O O6 0.399380 0.540430 0.084445
O O7 0.343910 0.662733 0.103300
O O8 0.737878 0.012698 0.071646
O O9 0.647805 0.000000 0.000000
O O10 0.779204 0.615236 0.059570
O O11 0.875622 0.521021 0.094518
O O12 0.830054 0.500000 0.000000
O O13 0.231676 0.750000 0.100937
#
# Coordination Sequence:
#
# PCOD9572946 Si02
#       5
#    32  32  32  32  32
#     4   9  15  22  37  64  96 129 166 207 247 288
#     4   9  16  26  41  63  94 129 161 197 245 300
#     4   8  14  26  43  62  87 122 163 204 245 295
#     4   9  19  36  55  75 100 133 177 222 268 330
#     4  10  20  34  54  78 105 138 176 222 274 326
#
# _framework density 18.209568999999998
#
# number of rings (size 3 to 8) (size 9 to 14) (size 15 to 20)
#    0.000    3.000    0.000    2.400    0.000    4.000 
#    0.000    2.000    0.000    4.800    0.000    0.000 
#    0.000   22.400    0.000    0.000    0.000    0.000 
#
# Total GULP energy -445564.241535 kJ/mol
# GULP energy per Si atom -5569.553019 kJ/mol
# Density = 1.816812 g / cm^3
# Si number density = 18.209569 Si / 1000 Ang^3
#
#
#
# Elastic Constant Matrix: (Units=GPa)
#
#
# Indices 1 2 3 4 5 6 
#
# 1 122.4738 44.2495 17.8569 0.0000 0.0000 0.0000
# 2 44.2495 122.4738 17.8569 0.0000 0.0000 0.0000
# 3 17.8569 17.8569 56.7051 0.0000 0.0000 0.0000
# 4 0.0000 0.0000 0.0000 15.1022 0.0000 0.0000
# 5 0.0000 0.0000 0.0000 0.0000 15.1022 0.0000
# 6 0.0000 0.0000 0.0000 0.0000 0.0000 11.3196
#
#
#
# Elastic Compliance Matrix: (Units=1/GPa)
#
#
# Indices 1 2 3 4 5 6 
#
# 1 0.009608 -0.003176 -0.002025 0.000000 0.000000 0.000000
# 2 -0.003176 0.009608 -0.002025 0.000000 0.000000 0.000000
# 3 -0.002025 -0.002025 0.018911 0.000000 0.000000 0.000000
# 4 0.000000 0.000000 0.000000 0.066216 0.000000 0.000000
# 5 0.000000 0.000000 0.000000 0.000000 0.066216 0.000000
# 6 0.000000 0.000000 0.000000 0.000000 0.000000 0.088343
#
#
# Mechanical properties :
#
#
# Convention : Reuss Voigt Hill
#
# Bulk Modulus (GPa) = 42.24283 51.28660 46.76472
# Shear Modulus (GPa) = 17.77810 23.08408 20.43109
#
# Velocity S-wave (km/s) = 3.12798 3.56433 3.35326
# Velocity P-wave (km/s) = 6.02446 6.72049 6.38197
#
# Compressibility (1/GPa) = 0.02367266
#
# Stress axis : x y z
#
# Youngs Moduli (GPa) = 104.08223 104.08223 52.88003
#
# Poissons Ratio (x) = 0.33056 0.10710
# Poissons Ratio (y) = 0.33056 0.10710
# Poissons Ratio (z) = 0.21081 0.21081
#
# Static dielectric constant tensor:
#      x y z
#    x 1.633280 0.000000 0.000000 
#    y 0.000000 1.633280 0.000000 
#    z 0.000000 0.000000 1.678440 
# 
# From -- ./inp_files/12706.got.cif
#   From: 2010.05.17/outbox.cif.g08.bks.cpg/sg141_7_cif.got.tgz:12706.got - 2010.05.20 13:30:51.
