data_PCOD9572751
_publ_section_title
;
Structure prediction by ZEFSAII (Michael W. Deem and Ramdas Pophale) SiO2 
 PCOD9572751
Probable space group: I 41/A M D
;
_chemical_formula_sum "Si O2"
_cell_formula_units_Z 68
_cell_length_a 14.583978
_cell_length_b 14.583978
_cell_length_c 16.411813
_cell_angle_alpha 90.000000
_cell_angle_beta 90.000000
_cell_angle_gamma 90.000000
_cell_volume 3490.668130
_symmetry_space_group_name_H-M "I 41/A M D"
_symmetry_group_IT_number 141
_space_group.IT_coordinate_system_code '2'
_symmetry_cell_setting 'tetragonal'
loop_
_space_group_symop_operation_xyz
x,y,z
1/4-y,3/4+x,1/4+z
-x,1/2-y,z
1/4+y,1/4-x,3/4+z
x,-y,-z
-x,1/2+y,-z
1/4+y,3/4+x,1/4-z
1/4-y,1/4-x,3/4-z
-x,-y,-z
3/4+y,1/4-x,3/4-z
x,1/2+y,-z
3/4-y,3/4+x,1/4-z
-x,y,z
x,1/2-y,z
3/4-y,1/4-x,3/4+z
3/4+y,3/4+x,1/4+z
1/2+x,1/2+y,1/2+z
3/4-y,1/4+x,3/4+z
1/2-x,-y,1/2+z
3/4+y,3/4-x,1/4+z
1/2+x,1/2-y,1/2-z
1/2-x,y,1/2-z
3/4+y,1/4+x,3/4-z
3/4-y,3/4-x,1/4-z
1/2-x,1/2-y,1/2-z
1/4+y,3/4-x,1/4-z
1/2+x,y,1/2-z
1/4-y,1/4+x,3/4-z
1/2-x,1/2+y,1/2+z
1/2+x,-y,1/2+z
1/4-y,3/4-x,1/4+z
1/4+y,1/4+x,3/4+z
loop_
_atom_site_type_symbol
_atom_site_label
_atom_site_fract_x
_atom_site_fract_y
_atom_site_fract_z
Si Si1 0.500000 0.750000 0.375000
Si Si2 0.893259 0.417971 0.292931
Si Si3 0.000000 0.640228 0.433742
Si Si4 0.500000 0.579348 0.252734
O O1 0.500000 0.660465 0.317100
O O2 0.834301 0.415700 0.375000
O O3 0.859665 0.339968 0.231988
O O4 0.911090 0.512313 0.244579
O O5 0.000000 0.394953 0.319412
O O6 0.000000 0.750000 0.435905
O O7 0.000000 0.612967 0.340284
#
# Coordination Sequence:
#
# PCOD9572751 Si02
#       4
#     4  32  16  16
#     4  12  24  48  56  76 130 196 244 228 264 388
#     4   9  18  32  62  97 119 144 190 260 342 384
#     4  10  17  35  61  85 114 152 197 253 323 376
#     4  10  23  36  65  84 117 180 209 253 301 363
#
# _framework density 19.480509999999999
#
# number of rings (size 3 to 8) (size 9 to 14) (size 15 to 20)
#    1.412    0.941    3.529    0.000    0.000    3.765 
#    0.000    4.706   15.529    0.000    0.000    0.000 
#    0.000    0.000    0.000    0.000    0.000    0.000 
#
# Total GULP energy -189273.203687 kJ/mol
# GULP energy per Si atom -5566.858932 kJ/mol
# Density = 1.943617 g / cm^3
# Si number density = 19.480510 Si / 1000 Ang^3
#
#
#
# Elastic Constant Matrix: (Units=GPa)
#
#
# Indices 1 2 3 4 5 6 
#
# 1 103.8738 34.1032 61.9715 0.0000 0.0000 0.0000
# 2 34.1032 103.8737 61.9713 0.0000 0.0000 0.0000
# 3 61.9715 61.9713 146.7934 0.0000 0.0000 0.0000
# 4 0.0000 0.0000 0.0000 4.1376 0.0000 0.0000
# 5 0.0000 0.0000 0.0000 0.0000 4.1375 0.0000
# 6 0.0000 0.0000 0.0000 0.0000 0.0000 -4.0925
#
#
#
# Elastic Compliance Matrix: (Units=1/GPa)
#
#
# Indices 1 2 3 4 5 6 
#
# 1 0.013004 -0.001329 -0.004929 0.000000 0.000000 0.000000
# 2 -0.001329 0.013004 -0.004929 0.000000 0.000000 0.000000
# 3 -0.004929 -0.004929 0.010974 0.000000 0.000000 0.000000
# 4 0.000000 0.000000 0.000000 0.241687 0.000000 0.000000
# 5 0.000000 0.000000 0.000000 0.000000 0.241692 0.000000
# 6 0.000000 0.000000 0.000000 0.000000 0.000000 -0.244352
#
#
# Mechanical properties :
#
#
# Convention : Reuss Voigt Hill
#
# Bulk Modulus (GPa) = 68.45231 74.51474 71.48352
# Shear Modulus (GPa) = 16.48797 13.93619 15.21208
#
# Velocity S-wave (km/s) = 2.91242 2.67758 2.79747
# Velocity P-wave (km/s) = 6.82091 6.92049 6.87088
#
# Compressibility (1/GPa) = 0.01460871
#
# Stress axis : x y z
#
# Youngs Moduli (GPa) = 76.89997 76.90007 91.12537
#
# Poissons Ratio (x) = 0.10218 0.44914
# Poissons Ratio (y) = 0.10218 0.44914
# Poissons Ratio (z) = 0.37903 0.37903
#
# Static dielectric constant tensor:
#      x y z
#    x 1.746810 0.000000 0.000000 
#    y 0.000000 1.746810 0.000000 
#    z 0.000000 0.000000 1.642250 
# 
# From -- ./inp_files/3900.got.cif
#   From: 2010.05.17/outbox.cif.g08.bks.cpg/sg141_2_cif.got.tgz:3900.got - 2010.05.20 13:30:51.
