data_PCOD9572925
_publ_section_title
;
Structure prediction by ZEFSAII (Michael W. Deem and Ramdas Pophale) SiO2 
 PCOD9572925
Probable space group: I 41/A M D
;
_chemical_formula_sum "Si O2"
_cell_formula_units_Z 192
_cell_length_a 20.574094
_cell_length_b 20.574094
_cell_length_c 20.748312
_cell_angle_alpha 90.000000
_cell_angle_beta 90.000000
_cell_angle_gamma 90.000000
_cell_volume 8782.622367
_symmetry_space_group_name_H-M "I 41/A M D"
_symmetry_group_IT_number 141
_space_group.IT_coordinate_system_code '2'
_symmetry_cell_setting 'tetragonal'
loop_
_space_group_symop_operation_xyz
x,y,z
1/4-y,3/4+x,1/4+z
-x,1/2-y,z
1/4+y,1/4-x,3/4+z
x,-y,-z
-x,1/2+y,-z
1/4+y,3/4+x,1/4-z
1/4-y,1/4-x,3/4-z
-x,-y,-z
3/4+y,1/4-x,3/4-z
x,1/2+y,-z
3/4-y,3/4+x,1/4-z
-x,y,z
x,1/2-y,z
3/4-y,1/4-x,3/4+z
3/4+y,3/4+x,1/4+z
1/2+x,1/2+y,1/2+z
3/4-y,1/4+x,3/4+z
1/2-x,-y,1/2+z
3/4+y,3/4-x,1/4+z
1/2+x,1/2-y,1/2-z
1/2-x,y,1/2-z
3/4+y,1/4+x,3/4-z
3/4-y,3/4-x,1/4-z
1/2-x,1/2-y,1/2-z
1/4+y,3/4-x,1/4-z
1/2+x,y,1/2-z
1/4-y,1/4+x,3/4-z
1/2-x,1/2+y,1/2+z
1/2+x,-y,1/2+z
1/4-y,3/4-x,1/4+z
1/4+y,1/4+x,3/4+z
loop_
_atom_site_type_symbol
_atom_site_label
_atom_site_fract_x
_atom_site_fract_y
_atom_site_fract_z
Si Si1 0.184994 0.035914 0.944826
Si Si2 0.396029 0.825896 0.671198
Si Si3 0.424586 0.370116 0.058800
Si Si4 0.701916 0.179408 0.856963
Si Si5 0.249454 0.327012 0.368391
Si Si6 0.576136 0.965152 0.263745
O O1 0.217025 0.032976 0.875000
O O2 0.171903 0.111530 0.963283
O O3 0.123634 0.988922 0.934327
O O4 0.225647 0.000000 0.000000
O O5 0.413161 0.750000 0.660040
O O6 0.414174 0.848850 0.743597
O O7 0.421247 0.875089 0.617377
O O8 0.318013 0.833422 0.666846
O O9 0.500000 0.380669 0.042194
O O10 0.419221 0.330780 0.125000
O O11 0.394371 0.439737 0.078116
O O12 0.716170 0.250000 0.830348
O O13 0.732108 0.175305 0.929119
O O14 0.235414 0.250000 0.372600
O O15 0.257872 0.345727 0.443287
O O16 0.500000 0.940196 0.258827
#
# Coordination Sequence:
#
# PCOD9572925 Si02
#       6
#    32  32  32  32  32  32
#     4  10  21  39  61  88 122 156 196 246 301 365
#     4  10  20  34  53  78 111 152 199 250 300 358
#     4  10  20  33  50  75 109 151 198 244 290 344
#     4  10  21  37  57  83 115 151 193 244 305 366
#     4   9  17  32  53  75 103 141 188 240 294 352
#     4   9  18  35  59  82 110 151 193 238 297 365
#
# _framework density 21.861352
#
# number of rings (size 3 to 8) (size 9 to 14) (size 15 to 20)
#    0.000    2.333    0.000    2.500    0.000    4.833 
#    0.000   18.333    0.000    0.500    0.000    3.500 
#    0.000    0.000    0.000    0.000    0.000    0.000 
#
# Total GULP energy -534742.698625 kJ/mol
# GULP energy per Si atom -5570.236444 kJ/mol
# Density = 2.181159 g / cm^3
# Si number density = 21.861352 Si / 1000 Ang^3
#
#
#
# Elastic Constant Matrix: (Units=GPa)
#
#
# Indices 1 2 3 4 5 6 
#
# 1 71.6236 30.1815 19.7075 0.0000 0.0000 0.0000
# 2 30.1815 71.6248 19.7075 0.0000 0.0000 0.0000
# 3 19.7075 19.7075 109.3282 0.0000 0.0000 0.0000
# 4 0.0000 0.0000 0.0000 13.2533 0.0000 0.0000
# 5 0.0000 0.0000 0.0000 0.0000 13.2535 0.0000
# 6 0.0000 0.0000 0.0000 0.0000 0.0000 13.5800
#
#
#
# Elastic Compliance Matrix: (Units=1/GPa)
#
#
# Indices 1 2 3 4 5 6 
#
# 1 0.017345 -0.006785 -0.001903 0.000000 0.000000 0.000000
# 2 -0.006785 0.017344 -0.001903 0.000000 0.000000 0.000000
# 3 -0.001903 -0.001903 0.009833 0.000000 0.000000 0.000000
# 4 0.000000 0.000000 0.000000 0.075453 0.000000 0.000000
# 5 0.000000 0.000000 0.000000 0.000000 0.075452 0.000000
# 6 0.000000 0.000000 0.000000 0.000000 0.000000 0.073638
#
#
# Mechanical properties :
#
#
# Convention : Reuss Voigt Hill
#
# Bulk Modulus (GPa) = 42.84806 43.52997 43.18901
# Shear Modulus (GPa) = 16.77693 20.21603 18.49648
#
# Velocity S-wave (km/s) = 2.77325 3.04425 2.91190
# Velocity P-wave (km/s) = 5.46781 5.68434 5.57713
#
# Compressibility (1/GPa) = 0.02333828
#
# Stress axis : x y z
#
# Youngs Moduli (GPa) = 57.65419 57.65520 101.69832
#
# Poissons Ratio (x) = 0.39119 0.19358
# Poissons Ratio (y) = 0.39119 0.19358
# Poissons Ratio (z) = 0.10974 0.10974
#
# Static dielectric constant tensor:
#      x y z
#    x 1.831970 0.000000 0.000000 
#    y 0.000000 1.831970 0.000000 
#    z 0.000000 0.000000 1.874540 
# 
# From -- ./inp_files/11663.got.cif
#   From: 2010.05.17/outbox.cif.g08.bks.cpg/sg141_6_cif.got.tgz:11663.got - 2010.05.20 13:30:51.
