data_PCOD9572072
_publ_section_title
;
Structure prediction by ZEFSAII (Michael W. Deem and Ramdas Pophale) SiO2 
 PCOD9572072
Probable space group: I 4/M C M
;
_chemical_formula_sum "Si O2"
_cell_formula_units_Z 144
_cell_length_a 20.248281
_cell_length_b 20.248281
_cell_length_c 13.908429
_cell_angle_alpha 90.000000
_cell_angle_beta 90.000000
_cell_angle_gamma 90.000000
_cell_volume 5702.356910
_symmetry_space_group_name_H-M "I 4/M C M"
_symmetry_group_IT_number 140
_symmetry_cell_setting 'tetragonal'
loop_
_space_group_symop_operation_xyz
x,y,z
-y,x,z
-x,-y,z
y,-x,z
x,-y,1/2-z
-x,y,1/2-z
y,x,1/2-z
-y,-x,1/2-z
-x,-y,-z
y,-x,-z
x,y,-z
-y,x,-z
-x,y,1/2+z
x,-y,1/2+z
-y,-x,1/2+z
y,x,1/2+z
1/2+x,1/2+y,1/2+z
1/2-y,1/2+x,1/2+z
1/2-x,1/2-y,1/2+z
1/2+y,1/2-x,1/2+z
1/2+x,1/2-y,-z
1/2-x,1/2+y,-z
1/2+y,1/2+x,-z
1/2-y,1/2-x,-z
1/2-x,1/2-y,1/2-z
1/2+y,1/2-x,1/2-z
1/2+x,1/2+y,1/2-z
1/2-y,1/2+x,1/2-z
1/2-x,1/2+y,z
1/2+x,1/2-y,z
1/2-y,1/2-x,z
1/2+y,1/2+x,z
loop_
_atom_site_type_symbol
_atom_site_label
_atom_site_fract_x
_atom_site_fract_y
_atom_site_fract_z
Si Si1 0.097184 0.229262 0.107064
Si Si2 0.986293 0.895226 0.864260
Si Si3 0.054008 0.554008 0.116692
Si Si4 0.339808 0.269008 0.117013
Si Si5 0.524265 0.796851 0.118260
O O1 0.040494 0.173308 0.100843
O O2 0.162198 0.194627 0.149474
O O3 0.050760 0.283936 0.153980
O O4 0.117015 0.251809 0.000000
O O5 0.054068 0.928757 0.894623
O O6 0.000000 0.891480 0.750000
O O7 0.128777 0.540159 0.145478
O O8 0.000000 0.500000 0.146550
O O9 0.053280 0.553280 0.000000
O O10 0.291637 0.208364 0.143509
O O11 0.415112 0.252527 0.146385
O O12 0.341496 0.272393 0.000000
O O13 0.522146 0.794001 0.000000
#
# Coordination Sequence:
#
# PCOD9572072 Si02
#       5
#    32  32  16  32  32
#     4  10  19  28  45  74  98 122 164 210 246 292
#     4   9  18  32  47  65  93 131 167 196 241 301
#     4   9  16  26  42  62  90 129 164 197 236 291
#     4   9  16  27  42  61  93 132 161 193 251 309
#     4   9  16  27  41  61  92 126 159 194 243 296
#
# _framework density 25.252715999999999
#
# number of rings (size 3 to 8) (size 9 to 14) (size 15 to 20)
#    0.000    2.778    1.111    2.000    0.000    3.556 
#    0.000    5.556    0.000    0.000    2.889    3.111 
#    0.000    0.000    0.000    0.000    0.000    0.000 
#
# Total GULP energy -402002.188439 kJ/mol
# GULP energy per Si atom -5583.363728 kJ/mol
# Density = 2.519524 g / cm^3
# Si number density = 25.252716 Si / 1000 Ang^3
#
#
#
# Elastic Constant Matrix: (Units=GPa)
#
#
# Indices 1 2 3 4 5 6 
#
# 1 82.3305 97.3553 27.6434 0.0000 0.0000 0.0000
# 2 97.3553 82.3305 27.6434 0.0000 0.0000 0.0000
# 3 27.6434 27.6434 99.5366 0.0000 0.0000 0.0000
# 4 0.0000 0.0000 0.0000 8.1635 0.0000 0.0000
# 5 0.0000 0.0000 0.0000 0.0000 8.1635 0.0000
# 6 0.0000 0.0000 0.0000 0.0000 0.0000 29.1131
#
#
#
# Elastic Compliance Matrix: (Units=1/GPa)
#
#
# Indices 1 2 3 4 5 6 
#
# 1 -0.030236 0.036321 -0.001690 0.000000 0.000000 0.000000
# 2 0.036321 -0.030236 -0.001690 0.000000 0.000000 0.000000
# 3 -0.001690 -0.001690 0.010985 0.000000 0.000000 0.000000
# 4 0.000000 0.000000 0.000000 0.122497 0.000000 0.000000
# 5 0.000000 0.000000 0.000000 0.000000 0.122497 0.000000
# 6 0.000000 0.000000 0.000000 0.000000 0.000000 0.034349
#
#
# Mechanical properties :
#
#
# Convention : Reuss Voigt Hill
#
# Bulk Modulus (GPa) = 60.99138 63.27576 62.13357
# Shear Modulus (GPa) = 29.50898 16.52505 23.01702
#
# Velocity S-wave (km/s) = 3.42211 2.56087 3.02233
# Velocity P-wave (km/s) = 6.31025 5.81855 6.06938
#
# Compressibility (1/GPa) = 0.01639576
#
# Stress axis : x y z
#
# Youngs Moduli (GPa) = -33.07356 -33.07356 91.03112
#
# Poissons Ratio (x) = 1.20126 0.15384
# Poissons Ratio (y) = 1.20126 0.15384
# Poissons Ratio (z) = -0.05589 -0.05589
#
# Static dielectric constant tensor:
#      x y z
#    x 1.975310 0.000000 0.000000 
#    y 0.000000 1.975310 0.000000 
#    z 0.000000 0.000000 2.047820 
# 
# From -- ./inp_files/8337.got.cif
#   From: 2010.05.17/outbox.cif.g08.bks.cpg/sg140_5_cif.got.tgz:8337.got - 2010.06.21 00:45:31.
