data_PCOD9572088
_publ_section_title
;
Structure prediction by ZEFSAII (Michael W. Deem and Ramdas Pophale) SiO2 
 PCOD9572088
Probable space group: I 4/M C M
;
_chemical_formula_sum "Si O2"
_cell_formula_units_Z 160
_cell_length_a 21.421405
_cell_length_b 21.421405
_cell_length_c 13.993353
_cell_angle_alpha 90.000000
_cell_angle_beta 90.000000
_cell_angle_gamma 90.000000
_cell_volume 6421.222138
_symmetry_space_group_name_H-M "I 4/M C M"
_symmetry_group_IT_number 140
_symmetry_cell_setting 'tetragonal'
loop_
_space_group_symop_operation_xyz
x,y,z
-y,x,z
-x,-y,z
y,-x,z
x,-y,1/2-z
-x,y,1/2-z
y,x,1/2-z
-y,-x,1/2-z
-x,-y,-z
y,-x,-z
x,y,-z
-y,x,-z
-x,y,1/2+z
x,-y,1/2+z
-y,-x,1/2+z
y,x,1/2+z
1/2+x,1/2+y,1/2+z
1/2-y,1/2+x,1/2+z
1/2-x,1/2-y,1/2+z
1/2+y,1/2-x,1/2+z
1/2+x,1/2-y,-z
1/2-x,1/2+y,-z
1/2+y,1/2+x,-z
1/2-y,1/2-x,-z
1/2-x,1/2-y,1/2-z
1/2+y,1/2-x,1/2-z
1/2+x,1/2+y,1/2-z
1/2-y,1/2+x,1/2-z
1/2-x,1/2+y,z
1/2+x,1/2-y,z
1/2-y,1/2-x,z
1/2+y,1/2+x,z
loop_
_atom_site_type_symbol
_atom_site_label
_atom_site_fract_x
_atom_site_fract_y
_atom_site_fract_z
Si Si1 0.109806 0.792083 0.115472
Si Si2 0.761893 0.164587 0.882957
Si Si3 0.001935 0.400071 0.364765
Si Si4 0.756703 0.476923 0.608069
Si Si5 0.077124 0.939430 0.615002
O O1 0.181926 0.787815 0.146022
O O2 0.101018 0.864739 0.139095
O O3 0.044543 0.762409 0.151009
O O4 0.109588 0.780579 0.000000
O O5 0.696668 0.196668 0.856379
O O6 0.761800 0.091512 0.851906
O O7 0.764687 0.162000 0.000000
O O8 0.949599 0.449599 0.394609
O O9 0.983708 0.331455 0.397575
O O10 0.000000 0.397729 0.250000
O O11 0.069036 0.430965 0.391170
O O12 0.729188 0.476929 0.500000
O O13 0.075124 0.940941 0.500000
O O14 0.010553 0.915208 0.647089
#
# Coordination Sequence:
#
# PCOD9572088 Si02
#       5
#    32  32  32  32  32
#     4   9  16  25  38  60  92 126 158 194 238 286
#     4   9  17  28  41  61  95 134 164 196 248 307
#     4   9  19  36  55  73  95 125 159 197 249 310
#     4  10  19  30  49  76 101 128 167 210 245 285
#     4   8  12  18  30  49  76 112 151 188 225 267
#
# _framework density 24.917373000000001
#
# number of rings (size 3 to 8) (size 9 to 14) (size 15 to 20)
#    0.000    3.000    0.000    3.000    0.000    7.200 
#    0.000    3.000    0.000    1.200    0.000    4.200 
#    0.000    0.000    0.000    2.000    0.000    2.200 
#
# Total GULP energy -446133.922568 kJ/mol
# GULP energy per Si atom -5576.674032 kJ/mol
# Density = 2.486066 g / cm^3
# Si number density = 24.917373 Si / 1000 Ang^3
#
#
#
# Elastic Constant Matrix: (Units=GPa)
#
#
# Indices 1 2 3 4 5 6 
#
# 1 104.9568 87.3169 9.3737 0.0000 0.0000 0.0000
# 2 87.3169 104.9568 9.3737 0.0000 0.0000 0.0000
# 3 9.3737 9.3737 78.6016 0.0000 0.0000 0.0000
# 4 0.0000 0.0000 0.0000 9.8618 0.0000 0.0000
# 5 0.0000 0.0000 0.0000 0.0000 9.8618 0.0000
# 6 0.0000 0.0000 0.0000 0.0000 0.0000 61.4529
#
#
#
# Elastic Compliance Matrix: (Units=1/GPa)
#
#
# Indices 1 2 3 4 5 6 
#
# 1 0.030976 -0.025714 -0.000628 0.000000 0.000000 0.000000
# 2 -0.025714 0.030976 -0.000628 0.000000 0.000000 0.000000
# 3 -0.000628 -0.000628 0.012872 0.000000 0.000000 0.000000
# 4 0.000000 0.000000 0.000000 0.101401 0.000000 0.000000
# 5 0.000000 0.000000 0.000000 0.000000 0.101401 0.000000
# 6 0.000000 0.000000 0.000000 0.000000 0.000000 0.016273
#
#
# Mechanical properties :
#
#
# Convention : Reuss Voigt Hill
#
# Bulk Modulus (GPa) = 47.87866 55.62708 51.75287
# Shear Modulus (GPa) = 14.09253 28.39872 21.24563
#
# Velocity S-wave (km/s) = 2.38075 3.37963 2.92317
# Velocity P-wave (km/s) = 5.17822 6.13207 5.67522
#
# Compressibility (1/GPa) = 0.02088613
#
# Stress axis : x y z
#
# Youngs Moduli (GPa) = 32.28333 32.28333 77.68763
#
# Poissons Ratio (x) = 0.83012 0.04875
# Poissons Ratio (y) = 0.83012 0.04875
# Poissons Ratio (z) = 0.02026 0.02026
#
# Static dielectric constant tensor:
#      x y z
#    x 1.956680 0.000000 0.000000 
#    y 0.000000 1.956680 0.000000 
#    z 0.000000 0.000000 2.108990 
# 
# From -- ./inp_files/6878.got.cif
#   From: 2010.05.17/outbox.cif.g08.bks.cpg/sg140_4_cif.got.tgz:6878.got - 2010.06.21 00:45:31.
