data_PCOD9572904
_publ_section_title
;
Structure prediction by ZEFSAII (Michael W. Deem and Ramdas Pophale) SiO2 
 PCOD9572904
Probable space group: I 41/A M D
;
_chemical_formula_sum "Si O2"
_cell_formula_units_Z 112
_cell_length_a 32.309367
_cell_length_b 32.309367
_cell_length_c 5.655696
_cell_angle_alpha 90.000000
_cell_angle_beta 90.000000
_cell_angle_gamma 90.000000
_cell_volume 5903.953884
_symmetry_space_group_name_H-M "I 41/A M D"
_symmetry_group_IT_number 141
_space_group.IT_coordinate_system_code '2'
_symmetry_cell_setting 'tetragonal'
loop_
_space_group_symop_operation_xyz
x,y,z
1/4-y,3/4+x,1/4+z
-x,1/2-y,z
1/4+y,1/4-x,3/4+z
x,-y,-z
-x,1/2+y,-z
1/4+y,3/4+x,1/4-z
1/4-y,1/4-x,3/4-z
-x,-y,-z
3/4+y,1/4-x,3/4-z
x,1/2+y,-z
3/4-y,3/4+x,1/4-z
-x,y,z
x,1/2-y,z
3/4-y,1/4-x,3/4+z
3/4+y,3/4+x,1/4+z
1/2+x,1/2+y,1/2+z
3/4-y,1/4+x,3/4+z
1/2-x,-y,1/2+z
3/4+y,3/4-x,1/4+z
1/2+x,1/2-y,1/2-z
1/2-x,y,1/2-z
3/4+y,1/4+x,3/4-z
3/4-y,3/4-x,1/4-z
1/2-x,1/2-y,1/2-z
1/4+y,3/4-x,1/4-z
1/2+x,y,1/2-z
1/4-y,1/4+x,3/4-z
1/2-x,1/2+y,1/2+z
1/2+x,-y,1/2+z
1/4-y,3/4-x,1/4+z
1/4+y,1/4+x,3/4+z
loop_
_atom_site_type_symbol
_atom_site_label
_atom_site_fract_x
_atom_site_fract_y
_atom_site_fract_z
Si Si1 0.140793 0.360805 0.129581
Si Si2 0.750000 0.859534 0.250000
Si Si3 0.709061 0.201665 0.415046
Si Si4 0.801407 0.434955 0.618658
O O1 0.116177 0.366177 0.375000
O O2 0.166430 0.318550 0.169166
O O3 0.173285 0.399657 0.125395
O O4 0.116730 0.366730 0.875000
O O5 0.718417 0.828284 0.367521
O O6 0.776728 0.891673 0.401479
O O7 0.705305 0.250000 0.470816
O O8 0.750000 0.197040 0.250000
O O9 0.792472 0.457529 0.375000
O O10 0.794463 0.455538 0.875000
#
# Coordination Sequence:
#
# PCOD9572904 Si02
#       4
#    32  16  32  32
#     4  10  19  38  56  77 109 156 195 225 273 354
#     4  12  21  36  60  82 120 154 198 246 300 362
#     4  11  23  36  56  90 122 150 187 244 307 358
#     4  10  20  34  55  79 103 152 200 235 278 342
#
# _framework density 18.970338000000002
#
# number of rings (size 3 to 8) (size 9 to 14) (size 15 to 20)
#    0.000    1.429    5.714    3.857    0.000    0.000 
#    0.000    0.000    0.000    1.714    0.000    0.000 
#    0.000    3.429    0.000    0.000    0.000    0.000 
#
# Total GULP energy -311987.971699 kJ/mol
# GULP energy per Si atom -5571.213780 kJ/mol
# Density = 1.892716 g / cm^3
# Si number density = 18.970338 Si / 1000 Ang^3
#
#
#
# Elastic Constant Matrix: (Units=GPa)
#
#
# Indices 1 2 3 4 5 6 
#
# 1 96.3184 48.5865 40.4434 0.0000 0.0000 0.0000
# 2 48.5865 96.3212 40.4435 0.0000 0.0000 0.0000
# 3 40.4434 40.4435 152.5395 0.0000 0.0000 0.0000
# 4 0.0000 0.0000 0.0000 8.1203 0.0000 0.0000
# 5 0.0000 0.0000 0.0000 0.0000 8.1209 0.0000
# 6 0.0000 0.0000 0.0000 0.0000 0.0000 1122.9361
#
#
#
# Elastic Compliance Matrix: (Units=1/GPa)
#
#
# Indices 1 2 3 4 5 6 
#
# 1 0.014525 -0.006425 -0.002148 0.000000 0.000000 0.000000
# 2 -0.006425 0.014525 -0.002147 0.000000 0.000000 0.000000
# 3 -0.002148 -0.002147 0.007694 0.000000 0.000000 0.000000
# 4 0.000000 0.000000 0.000000 0.123149 0.000000 0.000000
# 5 0.000000 0.000000 0.000000 0.000000 0.123139 0.000000
# 6 0.000000 0.000000 0.000000 0.000000 0.000000 0.000891
#
#
# Mechanical properties :
#
#
# Convention : Reuss Voigt Hill
#
# Bulk Modulus (GPa) = 65.34294 67.12509 66.23401
# Shear Modulus (GPa) = 16.10492 242.21583 129.16038
#
# Velocity S-wave (km/s) = 2.91684 11.31188 8.26034
# Velocity P-wave (km/s) = 6.77226 14.35522 11.22355
#
# Compressibility (1/GPa) = 0.01530387
#
# Stress axis : x y z
#
# Youngs Moduli (GPa) = 68.84693 68.84912 129.96394
#
# Poissons Ratio (x) = 0.44235 0.27911
# Poissons Ratio (y) = 0.44234 0.27909
# Poissons Ratio (z) = 0.14785 0.14785
#
# Static dielectric constant tensor:
#      x y z
#    x 1.678730 0.000000 0.000000 
#    y 0.000000 1.678740 0.000000 
#    z 0.000000 0.000000 -0.930140 
# 
# From -- ./inp_files/1291.got.cif
#   From: 2010.05.17/outbox.cif.g08.bks.cpg/sg141_1_cif.got.tgz:1291.got - 2010.05.20 13:30:51.
