data_PCOD9572691
_publ_section_title
;
Structure prediction by ZEFSAII (Michael W. Deem and Ramdas Pophale) SiO2 
 PCOD9572691
Probable space group: I 4/M C M
;
_chemical_formula_sum "Si O2"
_cell_formula_units_Z 144
_cell_length_a 21.752304
_cell_length_b 21.752304
_cell_length_c 15.731403
_cell_angle_alpha 90.000000
_cell_angle_beta 90.000000
_cell_angle_gamma 90.000000
_cell_volume 7443.513579
_symmetry_space_group_name_H-M "I 4/M C M"
_symmetry_group_IT_number 140
_symmetry_cell_setting 'tetragonal'
loop_
_space_group_symop_operation_xyz
x,y,z
-y,x,z
-x,-y,z
y,-x,z
x,-y,1/2-z
-x,y,1/2-z
y,x,1/2-z
-y,-x,1/2-z
-x,-y,-z
y,-x,-z
x,y,-z
-y,x,-z
-x,y,1/2+z
x,-y,1/2+z
-y,-x,1/2+z
y,x,1/2+z
1/2+x,1/2+y,1/2+z
1/2-y,1/2+x,1/2+z
1/2-x,1/2-y,1/2+z
1/2+y,1/2-x,1/2+z
1/2+x,1/2-y,-z
1/2-x,1/2+y,-z
1/2+y,1/2+x,-z
1/2-y,1/2-x,-z
1/2-x,1/2-y,1/2-z
1/2+y,1/2-x,1/2-z
1/2+x,1/2+y,1/2-z
1/2-y,1/2+x,1/2-z
1/2-x,1/2+y,z
1/2+x,1/2-y,z
1/2-y,1/2-x,z
1/2+y,1/2+x,z
loop_
_atom_site_type_symbol
_atom_site_label
_atom_site_fract_x
_atom_site_fract_y
_atom_site_fract_z
Si Si1 0.729188 0.871764 0.268983
Si Si2 0.533389 0.868604 0.660068
Si Si3 0.914546 0.689858 0.590462
Si Si4 0.587689 0.555769 0.596450
Si Si5 0.133497 0.866504 0.250000
O O1 0.693349 0.806652 0.270073
O O2 0.686222 0.918487 0.321143
O O3 0.728868 0.898493 0.173009
O O4 0.799685 0.869447 0.294444
O O5 0.500000 0.883562 0.750000
O O6 0.572535 0.927466 0.631248
O O7 0.480218 0.842663 0.601012
O O8 0.910838 0.722665 0.500000
O O9 0.864414 0.635587 0.591818
O O10 0.517980 0.581829 0.603269
O O11 0.609824 0.569938 0.500000
O O12 0.624247 0.583564 0.675718
#
# Coordination Sequence:
#
# PCOD9572691 Si02
#       5
#    32  32  32  32  16
#     4   9  20  36  50  69 101 136 170 214 262 298
#     4   9  17  30  47  69 100 135 167 204 252 299
#     4   9  18  32  50  73 101 133 168 208 256 306
#     4   9  20  38  56  80 115 140 156 198 263 316
#     4  12  21  33  60  84  96 132 188 217 239 304
#
# _framework density 19.345701999999999
#
# number of rings (size 3 to 8) (size 9 to 14) (size 15 to 20)
#    0.000    2.667    0.000    3.667    0.000    9.111 
#    0.000    4.444    0.000    3.333    0.000    0.000 
#    0.000    0.000    0.000    0.000    0.000    0.000 
#
# Total GULP energy -401408.259617 kJ/mol
# GULP energy per Si atom -5575.114717 kJ/mol
# Density = 1.930167 g / cm^3
# Si number density = 19.345702 Si / 1000 Ang^3
#
#
#
# Elastic Constant Matrix: (Units=GPa)
#
#
# Indices 1 2 3 4 5 6 
#
# 1 53.2276 -3.0190 -7.3139 0.0000 0.0000 0.0000
# 2 -3.0190 53.2253 -7.3145 0.0000 0.0000 0.0000
# 3 -7.3139 -7.3145 41.9147 0.0000 0.0000 0.0000
# 4 0.0000 0.0000 0.0000 3.3491 0.0000 0.0000
# 5 0.0000 0.0000 0.0000 0.0000 3.3482 0.0000
# 6 0.0000 0.0000 0.0000 0.0000 0.0000 8.6349
#
#
#
# Elastic Compliance Matrix: (Units=1/GPa)
#
#
# Indices 1 2 3 4 5 6 
#
# 1 0.019381 0.001603 0.003662 0.000000 0.000000 0.000000
# 2 0.001603 0.019382 0.003662 0.000000 0.000000 0.000000
# 3 0.003662 0.003662 0.025136 0.000000 0.000000 0.000000
# 4 0.000000 0.000000 0.000000 0.298585 0.000000 0.000000
# 5 0.000000 0.000000 0.000000 0.000000 0.298665 0.000000
# 6 0.000000 0.000000 0.000000 0.000000 0.000000 0.115809
#
#
# Mechanical properties :
#
#
# Convention : Reuss Voigt Hill
#
# Bulk Modulus (GPa) = 12.23216 12.56364 12.39790
# Shear Modulus (GPa) = 6.35843 14.13412 10.24628
#
# Velocity S-wave (km/s) = 1.81490 2.70591 2.30389
# Velocity P-wave (km/s) = 3.27544 4.03373 3.67420
#
# Compressibility (1/GPa) = 0.08175169
#
# Stress axis : x y z
#
# Youngs Moduli (GPa) = 51.59624 51.59369 39.78362
#
# Poissons Ratio (x) = -0.08268 -0.14567
# Poissons Ratio (y) = -0.08268 -0.14569
# Poissons Ratio (z) = -0.18892 -0.18894
#
# Static dielectric constant tensor:
#      x y z
#    x 1.666590 0.000000 0.000000 
#    y 0.000000 1.666590 0.000000 
#    z 0.000000 0.000000 1.739650 
# 
# From -- ./inp_files/6687.got.cif
#   From: 2010.05.17/outbox.cif.g08.bks.cpg/sg140_4_cif.got.tgz:6687.got - 2010.06.21 00:45:31.
