data_PCOD9572641
_publ_section_title
;
Structure prediction by ZEFSAII (Michael W. Deem and Ramdas Pophale) SiO2 
 PCOD9572641
Probable space group: I 4/M C M
;
_chemical_formula_sum "Si O2"
_cell_formula_units_Z 112
_cell_length_a 15.670254
_cell_length_b 15.670254
_cell_length_c 25.481667
_cell_angle_alpha 90.000000
_cell_angle_beta 90.000000
_cell_angle_gamma 90.000000
_cell_volume 6257.198147
_symmetry_space_group_name_H-M "I 4/M C M"
_symmetry_group_IT_number 140
_symmetry_cell_setting 'tetragonal'
loop_
_space_group_symop_operation_xyz
x,y,z
-y,x,z
-x,-y,z
y,-x,z
x,-y,1/2-z
-x,y,1/2-z
y,x,1/2-z
-y,-x,1/2-z
-x,-y,-z
y,-x,-z
x,y,-z
-y,x,-z
-x,y,1/2+z
x,-y,1/2+z
-y,-x,1/2+z
y,x,1/2+z
1/2+x,1/2+y,1/2+z
1/2-y,1/2+x,1/2+z
1/2-x,1/2-y,1/2+z
1/2+y,1/2-x,1/2+z
1/2+x,1/2-y,-z
1/2-x,1/2+y,-z
1/2+y,1/2+x,-z
1/2-y,1/2-x,-z
1/2-x,1/2-y,1/2-z
1/2+y,1/2-x,1/2-z
1/2+x,1/2+y,1/2-z
1/2-y,1/2+x,1/2-z
1/2-x,1/2+y,z
1/2+x,1/2-y,z
1/2-y,1/2-x,z
1/2+y,1/2+x,z
loop_
_atom_site_type_symbol
_atom_site_label
_atom_site_fract_x
_atom_site_fract_y
_atom_site_fract_z
Si Si1 0.762302 0.526019 0.842398
Si Si2 0.142200 0.000000 0.750000
Si Si3 0.817181 0.682820 0.775338
Si Si4 0.858529 0.020494 0.061211
Si Si5 0.072687 0.427314 0.311871
O O1 0.699625 0.481957 0.800730
O O2 0.771009 0.616898 0.813935
O O3 0.718260 0.530326 0.898544
O O4 0.852081 0.476924 0.841920
O O5 0.080794 0.919207 0.750000
O O6 0.750000 0.750000 0.750000
O O7 0.876201 0.623800 0.735437
O O8 0.907103 0.930516 0.070147
O O9 0.833593 0.024157 0.000000
O O10 0.000000 0.500000 0.301054
#
# Coordination Sequence:
#
# PCOD9572641 Si02
#       5
#    32  16  16  32  16
#     4  12  23  38  62  85 124 162 219 252 321 380
#     4  11  22  34  53  88 126 154 189 254 332 389
#     4  12  26  38  59  93 128 161 219 274 316 376
#     4   9  20  41  67  94 125 162 205 265 344 402
#     4  12  26  44  61  86 129 189 213 249 325 418
#
# _framework density 17.899384999999999
#
# number of rings (size 3 to 8) (size 9 to 14) (size 15 to 20)
#    0.000    1.000    4.286    3.429    6.000    2.286 
#    0.000    1.429    0.000    4.286    0.000    0.000 
#    0.000    0.000    0.000    0.000    0.000    0.000 
#
# Total GULP energy -312307.229473 kJ/mol
# GULP energy per Si atom -5576.914812 kJ/mol
# Density = 1.785865 g / cm^3
# Si number density = 17.899385 Si / 1000 Ang^3
#
#
#
# Elastic Constant Matrix: (Units=GPa)
#
#
# Indices 1 2 3 4 5 6 
#
# 1 133.9198 68.4543 75.3744 0.0000 0.0000 0.0000
# 2 68.4543 133.9213 75.3742 0.0000 0.0000 0.0000
# 3 75.3744 75.3742 126.1252 0.0000 0.0000 0.0000
# 4 0.0000 0.0000 0.0000 33.0810 0.0000 0.0000
# 5 0.0000 0.0000 0.0000 0.0000 33.0921 0.0000
# 6 0.0000 0.0000 0.0000 0.0000 0.0000 2.1680
#
#
#
# Elastic Compliance Matrix: (Units=1/GPa)
#
#
# Indices 1 2 3 4 5 6 
#
# 1 0.012091 -0.003185 -0.005322 0.000000 0.000000 0.000000
# 2 -0.003185 0.012090 -0.005322 0.000000 0.000000 0.000000
# 3 -0.005322 -0.005322 0.014290 0.000000 0.000000 0.000000
# 4 0.000000 0.000000 0.000000 0.030229 0.000000 0.000000
# 5 0.000000 0.000000 0.000000 0.000000 0.030219 0.000000
# 6 0.000000 0.000000 0.000000 0.000000 0.000000 0.461252
#
#
# Mechanical properties :
#
#
# Convention : Reuss Voigt Hill
#
# Bulk Modulus (GPa) = 92.48470 92.48581 92.48526
# Shear Modulus (GPa) = 8.45404 25.31911 16.88657
#
# Velocity S-wave (km/s) = 2.17563 3.76510 3.07484
# Velocity P-wave (km/s) = 7.62184 8.40733 8.02421
#
# Compressibility (1/GPa) = 0.01081260
#
# Stress axis : x y z
#
# Youngs Moduli (GPa) = 82.70894 82.71059 69.97904
#
# Poissons Ratio (x) = 0.26340 0.37245
# Poissons Ratio (y) = 0.26339 0.37244
# Poissons Ratio (z) = 0.44021 0.44020
#
# Static dielectric constant tensor:
#      x y z
#    x 1.606490 0.000000 0.000000 
#    y 0.000000 1.606490 0.000000 
#    z 0.000000 0.000000 1.602320 
# 
# From -- ./inp_files/9124.got.cif
#   From: 2010.05.17/outbox.cif.g08.bks.cpg/sg140_5_cif.got.tgz:9124.got - 2010.06.21 00:45:31.
