data_PCOD9572982
_publ_section_title
;
Structure prediction by ZEFSAII (Michael W. Deem and Ramdas Pophale) SiO2 
 PCOD9572982
Probable space group: I 41/A M D
;
_chemical_formula_sum "Si O2"
_cell_formula_units_Z 160
_cell_length_a 18.902841
_cell_length_b 18.902841
_cell_length_c 17.854345
_cell_angle_alpha 90.000000
_cell_angle_beta 90.000000
_cell_angle_gamma 90.000000
_cell_volume 6379.668096
_symmetry_space_group_name_H-M "I 41/A M D"
_symmetry_group_IT_number 141
_space_group.IT_coordinate_system_code '2'
_symmetry_cell_setting 'tetragonal'
loop_
_space_group_symop_operation_xyz
x,y,z
1/4-y,3/4+x,1/4+z
-x,1/2-y,z
1/4+y,1/4-x,3/4+z
x,-y,-z
-x,1/2+y,-z
1/4+y,3/4+x,1/4-z
1/4-y,1/4-x,3/4-z
-x,-y,-z
3/4+y,1/4-x,3/4-z
x,1/2+y,-z
3/4-y,3/4+x,1/4-z
-x,y,z
x,1/2-y,z
3/4-y,1/4-x,3/4+z
3/4+y,3/4+x,1/4+z
1/2+x,1/2+y,1/2+z
3/4-y,1/4+x,3/4+z
1/2-x,-y,1/2+z
3/4+y,3/4-x,1/4+z
1/2+x,1/2-y,1/2-z
1/2-x,y,1/2-z
3/4+y,1/4+x,3/4-z
3/4-y,3/4-x,1/4-z
1/2-x,1/2-y,1/2-z
1/4+y,3/4-x,1/4-z
1/2+x,y,1/2-z
1/4-y,1/4+x,3/4-z
1/2-x,1/2+y,1/2+z
1/2+x,-y,1/2+z
1/4-y,3/4-x,1/4+z
1/4+y,1/4+x,3/4+z
loop_
_atom_site_type_symbol
_atom_site_label
_atom_site_fract_x
_atom_site_fract_y
_atom_site_fract_z
Si Si1 0.418642 0.057459 0.147484
Si Si2 0.576392 0.335401 0.490597
Si Si3 0.699457 0.431185 0.312377
Si Si4 0.920843 0.833355 0.812652
Si Si5 0.919091 0.974705 0.192400
O O1 0.383426 0.133426 0.125000
O O2 0.500000 0.055990 0.120141
O O3 0.422900 0.020920 0.230606
O O4 0.364224 0.002050 0.111446
O O5 0.500000 0.362125 0.518048
O O6 0.574978 0.250000 0.495245
O O7 0.581542 0.350263 0.401838
O O8 0.645870 0.354875 0.535869
O O9 0.750000 0.465808 0.250000
O O10 0.647270 0.370731 0.279239
O O11 0.644924 0.485921 0.349661
O O12 0.915115 0.750000 0.804680
O O13 0.000000 0.853195 0.785309
O O14 0.000000 0.975091 0.161924
#
# Coordination Sequence:
#
# PCOD9572982 Si02
#       5
#    32  32  32  32  32
#     4  11  23  41  57  76 111 155 197 242 295 349
#     4   8  14  28  53  78 103 140 179 222 279 337
#     4  12  22  33  53  77 108 150 195 235 291 359
#     4   9  17  30  48  72 102 138 187 241 283 329
#     4  10  20  36  55  81 117 146 186 246 300 348
#
# _framework density 25.079675000000002
#
# number of rings (size 3 to 8) (size 9 to 14) (size 15 to 20)
#    0.000    2.000    4.000    2.400    0.000    1.800 
#    0.000    0.000    0.000    0.600    0.000    0.000 
#    0.000    0.000    0.000    0.000    0.000    0.000 
#
# Total GULP energy -446264.162676 kJ/mol
# GULP energy per Si atom -5578.302033 kJ/mol
# Density = 2.502259 g / cm^3
# Si number density = 25.079675 Si / 1000 Ang^3
#
#
#
# Elastic Constant Matrix: (Units=GPa)
#
#
# Indices 1 2 3 4 5 6 
#
# 1 164.9696 52.7350 12.9821 0.0000 0.0000 0.0000
# 2 52.7350 164.9696 12.9821 0.0000 0.0000 0.0000
# 3 12.9821 12.9821 25.4947 0.0000 0.0000 0.0000
# 4 0.0000 0.0000 0.0000 18.3205 0.0000 0.0000
# 5 0.0000 0.0000 0.0000 0.0000 18.3205 0.0000
# 6 0.0000 0.0000 0.0000 0.0000 0.0000 39.4540
#
#
#
# Elastic Compliance Matrix: (Units=1/GPa)
#
#
# Indices 1 2 3 4 5 6 
#
# 1 0.006900 -0.002010 -0.002490 0.000000 0.000000 0.000000
# 2 -0.002010 0.006900 -0.002490 0.000000 0.000000 0.000000
# 3 -0.002490 -0.002490 0.041760 0.000000 0.000000 0.000000
# 4 0.000000 0.000000 0.000000 0.054584 0.000000 0.000000
# 5 0.000000 0.000000 0.000000 0.000000 0.054584 0.000000
# 6 0.000000 0.000000 0.000000 0.000000 0.000000 0.025346
#
#
# Mechanical properties :
#
#
# Convention : Reuss Voigt Hill
#
# Bulk Modulus (GPa) = 24.05017 56.98139 40.51578
# Shear Modulus (GPa) = 22.94482 33.66796 28.30639
#
# Velocity S-wave (km/s) = 3.02798 3.66791 3.36320
# Velocity P-wave (km/s) = 4.67281 6.38025 5.59208
#
# Compressibility (1/GPa) = 0.04157974
#
# Stress axis : x y z
#
# Youngs Moduli (GPa) = 144.92458 144.92459 23.94642
#
# Poissons Ratio (x) = 0.29126 0.05963
# Poissons Ratio (y) = 0.29126 0.05963
# Poissons Ratio (z) = 0.36089 0.36089
#
# Static dielectric constant tensor:
#      x y z
#    x 2.008320 0.000000 0.000000 
#    y 0.000000 2.008320 0.000000 
#    z 0.000000 0.000000 2.118380 
# 
# From -- ./inp_files/12696.got.cif
#   From: 2010.05.17/outbox.cif.g08.bks.cpg/sg141_7_cif.got.tgz:12696.got - 2010.05.20 13:30:51.
