data_PCOD9572823
_publ_section_title
;
Structure prediction by ZEFSAII (Michael W. Deem and Ramdas Pophale) SiO2 
 PCOD9572823
Probable space group: I 41/A M D
;
_chemical_formula_sum "Si O2"
_cell_formula_units_Z 112
_cell_length_a 22.726618
_cell_length_b 22.726618
_cell_length_c 11.872847
_cell_angle_alpha 90.000000
_cell_angle_beta 90.000000
_cell_angle_gamma 90.000000
_cell_volume 6132.315570
_symmetry_space_group_name_H-M "I 41/A M D"
_symmetry_group_IT_number 141
_space_group.IT_coordinate_system_code '2'
_symmetry_cell_setting 'tetragonal'
loop_
_space_group_symop_operation_xyz
x,y,z
1/4-y,3/4+x,1/4+z
-x,1/2-y,z
1/4+y,1/4-x,3/4+z
x,-y,-z
-x,1/2+y,-z
1/4+y,3/4+x,1/4-z
1/4-y,1/4-x,3/4-z
-x,-y,-z
3/4+y,1/4-x,3/4-z
x,1/2+y,-z
3/4-y,3/4+x,1/4-z
-x,y,z
x,1/2-y,z
3/4-y,1/4-x,3/4+z
3/4+y,3/4+x,1/4+z
1/2+x,1/2+y,1/2+z
3/4-y,1/4+x,3/4+z
1/2-x,-y,1/2+z
3/4+y,3/4-x,1/4+z
1/2+x,1/2-y,1/2-z
1/2-x,y,1/2-z
3/4+y,1/4+x,3/4-z
3/4-y,3/4-x,1/4-z
1/2-x,1/2-y,1/2-z
1/4+y,3/4-x,1/4-z
1/2+x,y,1/2-z
1/4-y,1/4+x,3/4-z
1/2-x,1/2+y,1/2+z
1/2+x,-y,1/2+z
1/4-y,3/4-x,1/4+z
1/4+y,1/4+x,3/4+z
loop_
_atom_site_type_symbol
_atom_site_label
_atom_site_fract_x
_atom_site_fract_y
_atom_site_fract_z
Si Si1 0.564899 0.680943 0.700608
Si Si2 0.568638 0.879553 0.274798
Si Si3 0.066979 0.001112 0.363480
Si Si4 0.361921 0.111921 0.125000
O O1 0.500000 0.657789 0.728815
O O2 0.565805 0.750000 0.727165
O O3 0.578963 0.674854 0.569414
O O4 0.615914 0.651390 0.771563
O O5 0.500000 0.879259 0.313462
O O6 0.613233 0.863233 0.375000
O O7 0.577061 0.940546 0.205115
O O8 0.119373 0.046783 0.340179
O O9 0.000000 0.020564 0.331932
O O10 0.066305 0.000000 0.500000
#
# Coordination Sequence:
#
# PCOD9572823 Si02
#       4
#    32  32  32  16
#     4  10  19  30  51  85 117 143 182 245 310 360
#     4  10  20  36  58  84 119 161 201 243 301 371
#     4  10  20  37  60  84 112 156 200 240 298 362
#     4  12  20  33  58  82 114 150 198 246 292 354
#
# _framework density 18.2639
#
# number of rings (size 3 to 8) (size 9 to 14) (size 15 to 20)
#    0.000    1.714    2.857    3.429    0.000    2.571 
#    0.000    1.429    3.143    5.143    0.000    0.000 
#    0.000    0.000    0.000    0.000    0.000    0.000 
#
# Total GULP energy -311869.873241 kJ/mol
# GULP energy per Si atom -5569.104879 kJ/mol
# Density = 1.822233 g / cm^3
# Si number density = 18.263900 Si / 1000 Ang^3
#
#
#
# Elastic Constant Matrix: (Units=GPa)
#
#
# Indices 1 2 3 4 5 6 
#
# 1 76.5277 43.6310 40.5131 0.0000 0.0000 0.0000
# 2 43.6310 76.5277 40.5131 0.0000 0.0000 0.0000
# 3 40.5131 40.5131 75.9553 0.0000 0.0000 0.0000
# 4 0.0000 0.0000 0.0000 232.0320 0.0000 0.0000
# 5 0.0000 0.0000 0.0000 0.0000 232.0320 0.0000
# 6 0.0000 0.0000 0.0000 0.0000 0.0000 25.1180
#
#
#
# Elastic Compliance Matrix: (Units=1/GPa)
#
#
# Indices 1 2 3 4 5 6 
#
# 1 0.021698 -0.008701 -0.006932 0.000000 0.000000 0.000000
# 2 -0.008701 0.021698 -0.006932 0.000000 0.000000 0.000000
# 3 -0.006932 -0.006932 0.020561 0.000000 0.000000 0.000000
# 4 0.000000 0.000000 0.000000 0.004310 0.000000 0.000000
# 5 0.000000 0.000000 0.000000 0.000000 0.004310 0.000000
# 6 0.000000 0.000000 0.000000 0.000000 0.000000 0.039812
#
#
# Mechanical properties :
#
#
# Convention : Reuss Voigt Hill
#
# Bulk Modulus (GPa) = 53.11972 53.14723 53.13347
# Shear Modulus (GPa) = 30.52626 104.79329 67.65978
#
# Velocity S-wave (km/s) = 4.09271 7.58300 6.09312
# Velocity P-wave (km/s) = 7.17505 10.28746 8.86886
#
# Compressibility (1/GPa) = 0.01882540
#
# Stress axis : x y z
#
# Youngs Moduli (GPa) = 46.08800 46.08800 48.63622
#
# Poissons Ratio (x) = 0.40099 0.33716
# Poissons Ratio (y) = 0.40099 0.33716
# Poissons Ratio (z) = 0.31950 0.31950
#
# Static dielectric constant tensor:
#      x y z
#    x 1.654040 0.000000 0.000000 
#    y 0.000000 1.654040 0.000000 
#    z 0.000000 0.000000 1.648560 
# 
# From -- ./inp_files/4459.got.cif
#   From: 2010.05.17/outbox.cif.g08.bks.cpg/sg141_3_cif.got.tgz:4459.got - 2010.05.20 13:30:51.
