data_PCOD9572368
_publ_section_title
;
Structure prediction by ZEFSAII (Michael W. Deem and Ramdas Pophale) SiO2 
 PCOD9572368
Probable space group: I 4/M C M
;
_chemical_formula_sum "Si O2"
_cell_formula_units_Z 112
_cell_length_a 14.126986
_cell_length_b 14.126986
_cell_length_c 23.281297
_cell_angle_alpha 90.000000
_cell_angle_beta 90.000000
_cell_angle_gamma 90.000000
_cell_volume 4646.288799
_symmetry_space_group_name_H-M "I 4/M C M"
_symmetry_group_IT_number 140
_symmetry_cell_setting 'tetragonal'
loop_
_space_group_symop_operation_xyz
x,y,z
-y,x,z
-x,-y,z
y,-x,z
x,-y,1/2-z
-x,y,1/2-z
y,x,1/2-z
-y,-x,1/2-z
-x,-y,-z
y,-x,-z
x,y,-z
-y,x,-z
-x,y,1/2+z
x,-y,1/2+z
-y,-x,1/2+z
y,x,1/2+z
1/2+x,1/2+y,1/2+z
1/2-y,1/2+x,1/2+z
1/2-x,1/2-y,1/2+z
1/2+y,1/2-x,1/2+z
1/2+x,1/2-y,-z
1/2-x,1/2+y,-z
1/2+y,1/2+x,-z
1/2-y,1/2-x,-z
1/2-x,1/2-y,1/2-z
1/2+y,1/2-x,1/2-z
1/2+x,1/2+y,1/2-z
1/2-y,1/2+x,1/2-z
1/2-x,1/2+y,z
1/2+x,1/2-y,z
1/2-y,1/2-x,z
1/2+y,1/2+x,z
loop_
_atom_site_type_symbol
_atom_site_label
_atom_site_fract_x
_atom_site_fract_y
_atom_site_fract_z
Si Si1 0.401304 0.098697 0.222307
Si Si2 0.139201 0.131525 0.500000
Si Si3 0.731247 0.231247 0.660246
Si Si4 0.901944 0.598057 0.593485
Si Si5 0.588894 0.377920 0.132671
Si Si6 0.509470 0.198446 0.000000
O O1 0.500000 0.131631 0.250000
O O2 0.320912 0.179089 0.213894
O O3 0.427234 0.072767 0.157179
O O4 0.117603 0.087994 0.562962
O O5 0.077695 0.225900 0.500000
O O6 0.250507 0.109231 0.500000
O O7 0.678908 0.178908 0.605447
O O8 0.702896 0.340350 0.654224
O O9 0.859891 0.512884 0.556785
O O10 0.629592 0.480248 0.151879
#
# Coordination Sequence:
#
# PCOD9572368 Si02
#       6
#    16  16  16  16  32  16
#     4   9  19  40  71  91 113 171 241 295 352 427
#     4  12  16  29  50  89 136 193 222 267 313 429
#     4  10  20  38  62  92 127 173 224 301 359 402
#     4   9  19  36  53  92 126 173 212 288 356 413
#     4  11  21  34  58  97 142 189 239 280 338 425
#     4  11  20  29  56  93 144 174 222 267 352 423
#
# _framework density 24.105260999999999
#
# number of rings (size 3 to 8) (size 9 to 14) (size 15 to 20)
#    0.857    0.714    5.714    0.000    0.000    2.000 
#    0.000    2.857    0.000   20.571    0.000    2.000 
#    0.000    0.571    0.000    0.000    0.000    0.000 
#
# Total GULP energy -312309.962291 kJ/mol
# GULP energy per Si atom -5576.963612 kJ/mol
# Density = 2.405040 g / cm^3
# Si number density = 24.105261 Si / 1000 Ang^3
#
#
#
# Elastic Constant Matrix: (Units=GPa)
#
#
# Indices 1 2 3 4 5 6 
#
# 1 80.5009 89.7305 20.2691 0.0000 0.0000 0.0000
# 2 89.7305 80.5009 20.2691 0.0000 0.0000 0.0000
# 3 20.2691 20.2691 90.3626 0.0000 0.0000 0.0000
# 4 0.0000 0.0000 0.0000 7.6567 0.0000 0.0000
# 5 0.0000 0.0000 0.0000 0.0000 7.6567 0.0000
# 6 0.0000 0.0000 0.0000 0.0000 0.0000 60.9250
#
#
#
# Elastic Compliance Matrix: (Units=1/GPa)
#
#
# Indices 1 2 3 4 5 6 
#
# 1 -0.051070 0.057276 -0.001392 0.000000 0.000000 0.000000
# 2 0.057276 -0.051070 -0.001392 0.000000 0.000000 0.000000
# 3 -0.001392 -0.001392 0.011691 0.000000 0.000000 0.000000
# 4 0.000000 0.000000 0.000000 0.130605 0.000000 0.000000
# 5 0.000000 0.000000 0.000000 0.000000 0.130605 0.000000
# 6 0.000000 0.000000 0.000000 0.000000 0.000000 0.016414
#
#
# Mechanical properties :
#
#
# Convention : Reuss Voigt Hill
#
# Bulk Modulus (GPa) = 53.95314 56.87799 55.41556
# Shear Modulus (GPa) = 59.26397 23.32071 41.29234
#
# Velocity S-wave (km/s) = 4.96376 3.11377 4.14333
# Velocity P-wave (km/s) = 7.43523 6.04767 6.77706
#
# Compressibility (1/GPa) = 0.01853460
#
# Stress axis : x y z
#
# Youngs Moduli (GPa) = -19.58091 -19.58091 85.53584
#
# Poissons Ratio (x) = 1.12152 0.11907
# Poissons Ratio (y) = 1.12152 0.11907
# Poissons Ratio (z) = -0.02726 -0.02726
#
# Static dielectric constant tensor:
#      x y z
#    x 1.956730 0.000000 0.000000 
#    y 0.000000 1.956730 0.000000 
#    z 0.000000 0.000000 1.881090 
# 
# From -- ./inp_files/9138.got.cif
#   From: 2010.05.17/outbox.cif.g08.bks.cpg/sg140_5_cif.got.tgz:9138.got - 2010.06.21 00:45:31.
