data_PCOD9572580
_publ_section_title
;
Structure prediction by ZEFSAII (Michael W. Deem and Ramdas Pophale) SiO2 
 PCOD9572580
Probable space group: I 4/M C M
;
_chemical_formula_sum "Si O2"
_cell_formula_units_Z 64
_cell_length_a 19.558021
_cell_length_b 19.558021
_cell_length_c 9.069442
_cell_angle_alpha 90.000000
_cell_angle_beta 90.000000
_cell_angle_gamma 90.000000
_cell_volume 3469.208358
_symmetry_space_group_name_H-M "I 4/M C M"
_symmetry_group_IT_number 140
_symmetry_cell_setting 'tetragonal'
loop_
_space_group_symop_operation_xyz
x,y,z
-y,x,z
-x,-y,z
y,-x,z
x,-y,1/2-z
-x,y,1/2-z
y,x,1/2-z
-y,-x,1/2-z
-x,-y,-z
y,-x,-z
x,y,-z
-y,x,-z
-x,y,1/2+z
x,-y,1/2+z
-y,-x,1/2+z
y,x,1/2+z
1/2+x,1/2+y,1/2+z
1/2-y,1/2+x,1/2+z
1/2-x,1/2-y,1/2+z
1/2+y,1/2-x,1/2+z
1/2+x,1/2-y,-z
1/2-x,1/2+y,-z
1/2+y,1/2+x,-z
1/2-y,1/2-x,-z
1/2-x,1/2-y,1/2-z
1/2+y,1/2-x,1/2-z
1/2+x,1/2+y,1/2-z
1/2-y,1/2+x,1/2-z
1/2-x,1/2+y,z
1/2+x,1/2-y,z
1/2-y,1/2-x,z
1/2+y,1/2+x,z
loop_
_atom_site_type_symbol
_atom_site_label
_atom_site_fract_x
_atom_site_fract_y
_atom_site_fract_z
Si Si1 0.429731 0.735673 0.667082
Si Si2 0.698017 0.198017 0.823714
Si Si3 0.555167 0.602667 0.000000
O O1 0.500000 0.745911 0.750000
O O2 0.429328 0.764126 0.500000
O O3 0.373369 0.774024 0.762349
O O4 0.424308 0.653476 0.634671
O O5 0.750000 0.250000 0.750000
O O6 0.699854 0.199854 0.000000
O O7 0.472485 0.589507 0.000000
#
# Coordination Sequence:
#
# PCOD9572580 Si02
#       3
#    32  16  16
#     4  10  23  39  65  94 135 174 225 269 331 397
#     4  12  26  42  66  91 128 173 230 292 348 403
#     4   9  22  39  62  96 144 184 221 260 321 402
#
# _framework density 18.448013
#
# number of rings (size 3 to 8) (size 9 to 14) (size 15 to 20)
#    1.500    0.250    0.000    3.750    7.000    0.000 
#    0.000    2.500    0.000    0.750    0.000    5.250 
#    0.000    0.000    0.000    0.000    0.000    0.000 
#
# Total GULP energy -178189.805568 kJ/mol
# GULP energy per Si atom -5568.431424 kJ/mol
# Density = 1.840602 g / cm^3
# Si number density = 18.448013 Si / 1000 Ang^3
#
#
#
# Elastic Constant Matrix: (Units=GPa)
#
#
# Indices 1 2 3 4 5 6 
#
# 1 133.7591 85.1383 82.7481 0.0000 0.0000 0.0000
# 2 85.1383 133.7591 82.7481 0.0000 0.0000 0.0000
# 3 82.7481 82.7481 204.6222 0.0000 0.0000 0.0000
# 4 0.0000 0.0000 0.0000 3.1856 0.0000 0.0000
# 5 0.0000 0.0000 0.0000 0.0000 3.1856 0.0000
# 6 0.0000 0.0000 0.0000 0.0000 0.0000 27.5891
#
#
#
# Elastic Compliance Matrix: (Units=1/GPa)
#
#
# Indices 1 2 3 4 5 6 
#
# 1 0.013574 -0.006994 -0.002661 0.000000 0.000000 0.000000
# 2 -0.006994 0.013574 -0.002661 0.000000 0.000000 0.000000
# 3 -0.002661 -0.002661 0.007039 0.000000 0.000000 0.000000
# 4 0.000000 0.000000 0.000000 0.313916 0.000000 0.000000
# 5 0.000000 0.000000 0.000000 0.000000 0.313916 0.000000
# 6 0.000000 0.000000 0.000000 0.000000 0.000000 0.036246
#
#
# Mechanical properties :
#
#
# Convention : Reuss Voigt Hill
#
# Bulk Modulus (GPa) = 104.65028 108.15660 106.40344
# Shear Modulus (GPa) = 6.88628 21.55911 14.22270
#
# Velocity S-wave (km/s) = 1.93414 3.42225 2.77963
# Velocity P-wave (km/s) = 7.86372 8.62385 8.25254
#
# Compressibility (1/GPa) = 0.00955564
#
# Stress axis : x y z
#
# Youngs Moduli (GPa) = 73.67158 73.67158 142.06093
#
# Poissons Ratio (x) = 0.51523 0.37802
# Poissons Ratio (y) = 0.51523 0.37802
# Poissons Ratio (z) = 0.19604 0.19604
#
# Static dielectric constant tensor:
#      x y z
#    x 1.604130 0.000000 0.000000 
#    y 0.000000 1.604130 0.000000 
#    z 0.000000 0.000000 1.656860 
# 
# From -- ./inp_files/590.got.cif
#   From: 2010.05.17/outbox.cif.g08.bks.cpg/sg140_1_cif.got.tgz:590.got - 2010.06.21 00:45:31.
