data_PCOD9572025
_publ_section_title
;
Structure prediction by ZEFSAII (Michael W. Deem and Ramdas Pophale) SiO2 
 PCOD9572025
Probable space group: I 4/M C M
;
_chemical_formula_sum "Si O2"
_cell_formula_units_Z 160
_cell_length_a 22.067987
_cell_length_b 22.067987
_cell_length_c 19.289061
_cell_angle_alpha 90.000000
_cell_angle_beta 90.000000
_cell_angle_gamma 90.000000
_cell_volume 9393.696520
_symmetry_space_group_name_H-M "I 4/M C M"
_symmetry_group_IT_number 140
_symmetry_cell_setting 'tetragonal'
loop_
_space_group_symop_operation_xyz
x,y,z
-y,x,z
-x,-y,z
y,-x,z
x,-y,1/2-z
-x,y,1/2-z
y,x,1/2-z
-y,-x,1/2-z
-x,-y,-z
y,-x,-z
x,y,-z
-y,x,-z
-x,y,1/2+z
x,-y,1/2+z
-y,-x,1/2+z
y,x,1/2+z
1/2+x,1/2+y,1/2+z
1/2-y,1/2+x,1/2+z
1/2-x,1/2-y,1/2+z
1/2+y,1/2-x,1/2+z
1/2+x,1/2-y,-z
1/2-x,1/2+y,-z
1/2+y,1/2+x,-z
1/2-y,1/2-x,-z
1/2-x,1/2-y,1/2-z
1/2+y,1/2-x,1/2-z
1/2+x,1/2+y,1/2-z
1/2-y,1/2+x,1/2-z
1/2-x,1/2+y,z
1/2+x,1/2-y,z
1/2-y,1/2-x,z
1/2+y,1/2+x,z
loop_
_atom_site_type_symbol
_atom_site_label
_atom_site_fract_x
_atom_site_fract_y
_atom_site_fract_z
Si Si1 0.169291 0.565866 0.279928
Si Si2 0.827019 0.159782 0.581705
Si Si3 0.559602 0.423492 0.584229
Si Si4 0.288739 0.891575 0.077904
Si Si5 0.156911 0.757122 0.785908
O O1 0.155426 0.500000 0.250000
O O2 0.112353 0.612353 0.272714
O O3 0.188841 0.565411 0.360775
O O4 0.227427 0.595130 0.240594
O O5 0.812246 0.155257 0.500000
O O6 0.869838 0.104077 0.603725
O O7 0.864780 0.221940 0.590832
O O8 0.770233 0.158963 0.632568
O O9 0.582613 0.489875 0.606734
O O10 0.559502 0.424419 0.500000
O O11 0.334157 0.834157 0.079348
O O12 0.290122 0.917674 0.000000
O O13 0.181143 0.818858 0.750000
O O14 0.206315 0.706315 0.766711
#
# Coordination Sequence:
#
# PCOD9572025 Si02
#       5
#    32  32  32  32  32
#     4  10  21  37  57  80 107 143 181 219 269 323
#     4  10  18  28  49  78 103 134 173 214 260 313
#     4   8  15  28  43  61  92 133 171 205 242 287
#     4   9  17  31  53  79 104 132 173 221 262 310
#     4  10  19  34  52  72 103 135 162 205 263 316
#
# _framework density 17.032698
#
# number of rings (size 3 to 8) (size 9 to 14) (size 15 to 20)
#    0.000    2.600    2.000    1.200    0.000    3.000 
#    0.000    3.000    0.000    1.800    0.000    4.200 
#    0.000    0.000    0.000    0.000    0.000    0.000 
#
# Total GULP energy -445518.605367 kJ/mol
# GULP energy per Si atom -5568.982567 kJ/mol
# Density = 1.699393 g / cm^3
# Si number density = 17.032698 Si / 1000 Ang^3
#
#
#
# Elastic Constant Matrix: (Units=GPa)
#
#
# Indices 1 2 3 4 5 6 
#
# 1 42.3924 20.1240 25.9244 0.0000 0.0000 0.0000
# 2 20.1240 42.3916 25.9244 0.0000 0.0000 0.0000
# 3 25.9244 25.9244 84.7474 0.0000 0.0000 0.0000
# 4 0.0000 0.0000 0.0000 19.0742 0.0000 0.0000
# 5 0.0000 0.0000 0.0000 0.0000 19.0742 0.0000
# 6 0.0000 0.0000 0.0000 0.0000 0.0000 5.9119
#
#
#
# Elastic Compliance Matrix: (Units=1/GPa)
#
#
# Indices 1 2 3 4 5 6 
#
# 1 0.033170 -0.011737 -0.006557 0.000000 0.000000 0.000000
# 2 -0.011737 0.033171 -0.006557 0.000000 0.000000 0.000000
# 3 -0.006557 -0.006557 0.015811 0.000000 0.000000 0.000000
# 4 0.000000 0.000000 0.000000 0.052427 0.000000 0.000000
# 5 0.000000 0.000000 0.000000 0.000000 0.052427 0.000000
# 6 0.000000 0.000000 0.000000 0.000000 0.000000 0.169151
#
#
# Mechanical properties :
#
#
# Convention : Reuss Voigt Hill
#
# Bulk Modulus (GPa) = 30.81460 34.83078 32.82269
# Shear Modulus (GPa) = 11.99977 15.31596 13.65786
#
# Velocity S-wave (km/s) = 2.65715 3.00193 2.83479
# Velocity P-wave (km/s) = 5.24830 5.70169 5.47968
#
# Compressibility (1/GPa) = 0.03245215
#
# Stress axis : x y z
#
# Youngs Moduli (GPa) = 30.14755 30.14681 63.24651
#
# Poissons Ratio (x) = 0.35383 0.41468
# Poissons Ratio (y) = 0.35384 0.41469
# Poissons Ratio (z) = 0.19766 0.19767
#
# Static dielectric constant tensor:
#      x y z
#    x 1.574150 0.000000 0.000000 
#    y 0.000000 1.574150 0.000000 
#    z 0.000000 0.000000 1.605570 
# 
# From -- ./inp_files/6804.got.cif
#   From: 2010.05.17/outbox.cif.g08.bks.cpg/sg140_4_cif.got.tgz:6804.got - 2010.06.21 00:45:31.
