data_PCOD9572653
_publ_section_title
;
Structure prediction by ZEFSAII (Michael W. Deem and Ramdas Pophale) SiO2 
 PCOD9572653
Probable space group: I 4/M C M
;
_chemical_formula_sum "Si O2"
_cell_formula_units_Z 160
_cell_length_a 24.030685
_cell_length_b 24.030685
_cell_length_c 15.684661
_cell_angle_alpha 90.000000
_cell_angle_beta 90.000000
_cell_angle_gamma 90.000000
_cell_volume 9057.481128
_symmetry_space_group_name_H-M "I 4/M C M"
_symmetry_group_IT_number 140
_symmetry_cell_setting 'tetragonal'
loop_
_space_group_symop_operation_xyz
x,y,z
-y,x,z
-x,-y,z
y,-x,z
x,-y,1/2-z
-x,y,1/2-z
y,x,1/2-z
-y,-x,1/2-z
-x,-y,-z
y,-x,-z
x,y,-z
-y,x,-z
-x,y,1/2+z
x,-y,1/2+z
-y,-x,1/2+z
y,x,1/2+z
1/2+x,1/2+y,1/2+z
1/2-y,1/2+x,1/2+z
1/2-x,1/2-y,1/2+z
1/2+y,1/2-x,1/2+z
1/2+x,1/2-y,-z
1/2-x,1/2+y,-z
1/2+y,1/2+x,-z
1/2-y,1/2-x,-z
1/2-x,1/2-y,1/2-z
1/2+y,1/2-x,1/2-z
1/2+x,1/2+y,1/2-z
1/2-y,1/2+x,1/2-z
1/2-x,1/2+y,z
1/2+x,1/2-y,z
1/2-y,1/2-x,z
1/2+y,1/2+x,z
loop_
_atom_site_type_symbol
_atom_site_label
_atom_site_fract_x
_atom_site_fract_y
_atom_site_fract_z
Si Si1 0.884861 0.295824 0.102658
Si Si2 0.333131 0.502479 0.500000
Si Si3 0.328779 0.317319 0.153353
Si Si4 0.620964 0.388210 0.000000
Si Si5 0.625579 0.214028 0.102670
Si Si6 0.746364 0.002488 0.846736
O O1 0.853991 0.353991 0.118697
O O2 0.846588 0.247096 0.143684
O O3 0.947790 0.291387 0.136912
O O4 0.885779 0.286420 0.000000
O O5 0.377683 0.453954 0.500000
O O6 0.361265 0.561456 0.500000
O O7 0.294451 0.497491 0.416971
O O8 0.337053 0.337053 0.250000
O O9 0.265804 0.335252 0.130186
O O10 0.366668 0.347583 0.083799
O O11 0.657746 0.157746 0.126758
O O12 0.563374 0.219402 0.139229
O O13 0.620959 0.216704 0.000000
O O14 0.767356 0.000000 0.750000
#
# Coordination Sequence:
#
# PCOD9572653 Si02
#       6
#    32  16  32  16  32  32
#     4  11  22  38  60  88 124 158 195 246 303 362
#     4  12  24  43  60  88 118 157 206 250 294 356
#     4  12  21  35  60  89 120 153 190 247 309 363
#     4  12  24  41  61  86 122 152 208 250 295 353
#     4  11  22  38  60  88 124 158 195 246 303 362
#     4  12  22  38  63  86 120 161 201 246 297 358
#
# _framework density 17.664956
#
# number of rings (size 3 to 8) (size 9 to 14) (size 15 to 20)
#    0.000    0.400    8.000    1.800    0.000    5.800 
#    0.000    0.000    0.000    0.600    0.000    7.000 
#    0.000    0.000    0.000    0.000    0.000    0.000 
#
# Total GULP energy -446884.975129 kJ/mol
# GULP energy per Si atom -5586.062189 kJ/mol
# Density = 1.762475 g / cm^3
# Si number density = 17.664956 Si / 1000 Ang^3
#
#
#
# Elastic Constant Matrix: (Units=GPa)
#
#
# Indices 1 2 3 4 5 6 
#
# 1 33.5521 94.4243 4.7765 0.0000 0.0000 0.0000
# 2 94.4243 33.5521 4.7765 0.0000 0.0000 0.0000
# 3 4.7765 4.7765 102.6518 0.0000 0.0000 0.0000
# 4 0.0000 0.0000 0.0000 -3.5191 0.0000 0.0000
# 5 0.0000 0.0000 0.0000 0.0000 -3.5191 0.0000
# 6 0.0000 0.0000 0.0000 0.0000 0.0000 23.4815
#
#
#
# Elastic Compliance Matrix: (Units=1/GPa)
#
#
# Indices 1 2 3 4 5 6 
#
# 1 -0.004293 0.012135 -0.000365 0.000000 0.000000 0.000000
# 2 0.012135 -0.004293 -0.000365 0.000000 0.000000 0.000000
# 3 -0.000365 -0.000365 0.009776 0.000000 0.000000 0.000000
# 4 0.000000 0.000000 0.000000 -0.284160 0.000000 0.000000
# 5 0.000000 0.000000 0.000000 0.000000 -0.284160 0.000000
# 6 0.000000 0.000000 0.000000 0.000000 0.000000 0.042587
#
#
# Mechanical properties :
#
#
# Convention : Reuss Voigt Hill
#
# Bulk Modulus (GPa) = 41.66922 41.96787 41.81854
# Shear Modulus (GPa) = -9.27035 7.67388 -0.79823
#
# Velocity S-wave (km/s) = -2.29331 2.08652 -0.67295
# Velocity P-wave (km/s) = 4.07768 5.44188 4.80840
#
# Compressibility (1/GPa) = 0.02399853
#
# Stress axis : x y z
#
# Youngs Moduli (GPa) = -232.91860 -232.91860 102.29527
#
# Poissons Ratio (x) = 2.82636 0.03732
# Poissons Ratio (y) = 2.82636 0.03732
# Poissons Ratio (z) = -0.08498 -0.08498
#
# Static dielectric constant tensor:
#      x y z
#    x 1.595240 0.000000 0.000000 
#    y 0.000000 1.595240 0.000000 
#    z 0.000000 0.000000 1.623590 
# 
# From -- ./inp_files/4822.got.cif
#   From: 2010.05.17/outbox.cif.g08.bks.cpg/sg140_3_cif.got.tgz:4822.got - 2010.06.21 00:45:31.
