data_PCOD9572149
_publ_section_title
;
Structure prediction by ZEFSAII (Michael W. Deem and Ramdas Pophale) SiO2 
 PCOD9572149
Probable space group: I 4/M C M
;
_chemical_formula_sum "Si O2"
_cell_formula_units_Z 192
_cell_length_a 20.298650
_cell_length_b 20.298650
_cell_length_c 26.644441
_cell_angle_alpha 90.000000
_cell_angle_beta 90.000000
_cell_angle_gamma 90.000000
_cell_volume 10978.447358
_symmetry_space_group_name_H-M "I 4/M C M"
_symmetry_group_IT_number 140
_symmetry_cell_setting 'tetragonal'
loop_
_space_group_symop_operation_xyz
x,y,z
-y,x,z
-x,-y,z
y,-x,z
x,-y,1/2-z
-x,y,1/2-z
y,x,1/2-z
-y,-x,1/2-z
-x,-y,-z
y,-x,-z
x,y,-z
-y,x,-z
-x,y,1/2+z
x,-y,1/2+z
-y,-x,1/2+z
y,x,1/2+z
1/2+x,1/2+y,1/2+z
1/2-y,1/2+x,1/2+z
1/2-x,1/2-y,1/2+z
1/2+y,1/2-x,1/2+z
1/2+x,1/2-y,-z
1/2-x,1/2+y,-z
1/2+y,1/2+x,-z
1/2-y,1/2-x,-z
1/2-x,1/2-y,1/2-z
1/2+y,1/2-x,1/2-z
1/2+x,1/2+y,1/2-z
1/2-y,1/2+x,1/2-z
1/2-x,1/2+y,z
1/2+x,1/2-y,z
1/2-y,1/2-x,z
1/2+y,1/2+x,z
loop_
_atom_site_type_symbol
_atom_site_label
_atom_site_fract_x
_atom_site_fract_y
_atom_site_fract_z
Si Si1 0.588277 0.674075 0.056477
Si Si2 0.359933 0.750617 0.157710
Si Si3 0.246142 0.142642 0.151718
Si Si4 0.669944 0.448904 0.405751
Si Si5 0.076478 0.311818 0.744103
Si Si6 0.611136 0.504414 0.803693
O O1 0.612977 0.725568 0.098317
O O2 0.614877 0.602585 0.075104
O O3 0.509268 0.677062 0.056925
O O4 0.613093 0.685763 0.000000
O O5 0.308214 0.808214 0.145996
O O6 0.317125 0.685168 0.169650
O O7 0.405152 0.732539 0.110253
O O8 0.399798 0.771993 0.206721
O O9 0.305303 0.194698 0.145797
O O10 0.268953 0.091780 0.194282
O O11 0.651993 0.485308 0.353409
O O12 0.123686 0.376315 0.741265
O O13 0.000000 0.328159 0.750000
O O14 0.560258 0.565610 0.804821
O O15 0.646952 0.500000 0.750000
#
# Coordination Sequence:
#
# PCOD9572149 Si02
#       6
#    32  32  32  32  32  32
#     4  11  23  35  50  72  99 135 177 219 255 299
#     4   9  19  34  53  76 103 132 166 207 249 302
#     4   9  19  36  55  74  99 133 172 213 253 293
#     4  11  20  34  51  71 102 135 171 205 260 308
#     4  10  19  33  53  79 108 135 162 196 247 309
#     4   9  17  30  45  67 100 132 163 199 239 290
#
# _framework density 17.488811999999999
#
# number of rings (size 3 to 8) (size 9 to 14) (size 15 to 20)
#    0.000    2.167    1.667    2.500    0.000    4.833 
#    3.000    0.833    0.000    1.500    0.000    0.000 
#    0.000    0.000    0.000   14.333    0.000    0.000 
#
# Total GULP energy -535605.763358 kJ/mol
# GULP energy per Si atom -5579.226702 kJ/mol
# Density = 1.744901 g / cm^3
# Si number density = 17.488812 Si / 1000 Ang^3
#
#
#
# Elastic Constant Matrix: (Units=GPa)
#
#
# Indices 1 2 3 4 5 6 
#
# 1 82.3037 30.0299 43.5878 0.0000 0.0000 0.0000
# 2 30.0299 82.3037 43.5878 0.0000 0.0000 0.0000
# 3 43.5878 43.5878 110.3508 0.0000 0.0000 0.0000
# 4 0.0000 0.0000 0.0000 17.0888 0.0000 0.0000
# 5 0.0000 0.0000 0.0000 0.0000 17.0888 0.0000
# 6 0.0000 0.0000 0.0000 0.0000 0.0000 14.7055
#
#
#
# Elastic Compliance Matrix: (Units=1/GPa)
#
#
# Indices 1 2 3 4 5 6 
#
# 1 0.015984 -0.003147 -0.005071 0.000000 0.000000 0.000000
# 2 -0.003147 0.015984 -0.005071 0.000000 0.000000 0.000000
# 3 -0.005071 -0.005071 0.013068 0.000000 0.000000 0.000000
# 4 0.000000 0.000000 0.000000 0.058518 0.000000 0.000000
# 5 0.000000 0.000000 0.000000 0.000000 0.058518 0.000000
# 6 0.000000 0.000000 0.000000 0.000000 0.000000 0.068002
#
#
# Mechanical properties :
#
#
# Convention : Reuss Voigt Hill
#
# Bulk Modulus (GPa) = 54.17251 56.59659 55.38455
# Shear Modulus (GPa) = 19.02581 20.29344 19.65963
#
# Velocity S-wave (km/s) = 3.30189 3.41011 3.35644
# Velocity P-wave (km/s) = 6.75125 6.92366 6.83800
#
# Compressibility (1/GPa) = 0.01845955
#
# Stress axis : x y z
#
# Youngs Moduli (GPa) = 62.56442 62.56442 76.52476
#
# Poissons Ratio (x) = 0.19686 0.38802
# Poissons Ratio (y) = 0.19686 0.38802
# Poissons Ratio (z) = 0.31724 0.31724
#
# Static dielectric constant tensor:
#      x y z
#    x 1.612820 0.000000 0.000000 
#    y 0.000000 1.612820 0.000000 
#    z 0.000000 0.000000 1.603560 
# 
# From -- ./inp_files/9810.got.cif
#   From: 2010.05.17/outbox.cif.g08.bks.cpg/sg140_5_cif.got.tgz:9810.got - 2010.06.21 00:45:31.
