data_PCOD9572166
_publ_section_title
;
Structure prediction by ZEFSAII (Michael W. Deem and Ramdas Pophale) SiO2 
 PCOD9572166
Probable space group: I 4/M C M
;
_chemical_formula_sum "Si O2"
_cell_formula_units_Z 144
_cell_length_a 19.008502
_cell_length_b 19.008502
_cell_length_c 22.933570
_cell_angle_alpha 90.000000
_cell_angle_beta 90.000000
_cell_angle_gamma 90.000000
_cell_volume 8286.429714
_symmetry_space_group_name_H-M "I 4/M C M"
_symmetry_group_IT_number 140
_symmetry_cell_setting 'tetragonal'
loop_
_space_group_symop_operation_xyz
x,y,z
-y,x,z
-x,-y,z
y,-x,z
x,-y,1/2-z
-x,y,1/2-z
y,x,1/2-z
-y,-x,1/2-z
-x,-y,-z
y,-x,-z
x,y,-z
-y,x,-z
-x,y,1/2+z
x,-y,1/2+z
-y,-x,1/2+z
y,x,1/2+z
1/2+x,1/2+y,1/2+z
1/2-y,1/2+x,1/2+z
1/2-x,1/2-y,1/2+z
1/2+y,1/2-x,1/2+z
1/2+x,1/2-y,-z
1/2-x,1/2+y,-z
1/2+y,1/2+x,-z
1/2-y,1/2-x,-z
1/2-x,1/2-y,1/2-z
1/2+y,1/2-x,1/2-z
1/2+x,1/2+y,1/2-z
1/2-y,1/2+x,1/2-z
1/2-x,1/2+y,z
1/2+x,1/2-y,z
1/2-y,1/2-x,z
1/2+y,1/2+x,z
loop_
_atom_site_type_symbol
_atom_site_label
_atom_site_fract_x
_atom_site_fract_y
_atom_site_fract_z
Si Si1 0.596418 0.711695 0.603106
Si Si2 0.129210 0.370791 0.570713
Si Si3 0.110931 0.978401 0.181420
Si Si4 0.451310 0.391689 0.500000
Si Si5 0.641047 0.970690 0.570435
Si Si6 0.754773 0.254773 0.928407
O O1 0.556680 0.682918 0.660579
O O2 0.569744 0.656271 0.554736
O O3 0.569648 0.789278 0.588544
O O4 0.680718 0.718869 0.598270
O O5 0.127819 0.372182 0.500000
O O6 0.145790 0.449390 0.591092
O O7 0.186838 0.313163 0.585398
O O8 0.052633 0.921048 0.159925
O O9 0.112669 0.000000 0.250000
O O10 0.534157 0.410139 0.500000
O O11 0.638767 0.972067 0.500000
O O12 0.571998 0.928003 0.589924
O O13 0.747386 0.247386 0.000000
#
# Coordination Sequence:
#
# PCOD9572166 Si02
#       6
#    32  16  32  16  32  16
#     4  12  21  33  57  79 122 158 186 240 304 361
#     4   9  21  32  51  71 111 155 202 232 272 338
#     4   9  20  39  61  83 108 149 202 252 298 359
#     4  11  24  33  48  82 119 158 199 236 286 370
#     4  10  19  34  51  77 110 155 197 239 282 340
#     4  11  22  35  48  86 127 163 196 236 297 372
#
# _framework density 17.37781
#
# number of rings (size 3 to 8) (size 9 to 14) (size 15 to 20)
#    0.000    1.667    3.333    2.333    6.222    3.111 
#    0.000    0.000    0.000    4.000    0.000    0.000 
#    0.000    0.000    0.000    0.000    0.000    0.000 
#
# Total GULP energy -400878.020402 kJ/mol
# GULP energy per Si atom -5567.750283 kJ/mol
# Density = 1.733826 g / cm^3
# Si number density = 17.377810 Si / 1000 Ang^3
#
#
#
# Elastic Constant Matrix: (Units=GPa)
#
#
# Indices 1 2 3 4 5 6 
#
# 1 69.2280 121.8428 19.0237 0.0000 0.0000 0.0000
# 2 121.8428 69.2287 19.0239 0.0000 0.0000 0.0000
# 3 19.0237 19.0239 32.5559 0.0000 0.0000 0.0000
# 4 0.0000 0.0000 0.0000 16.0719 0.0000 0.0000
# 5 0.0000 0.0000 0.0000 0.0000 16.0720 0.0000
# 6 0.0000 0.0000 0.0000 0.0000 0.0000 38.7902
#
#
#
# Elastic Compliance Matrix: (Units=1/GPa)
#
#
# Indices 1 2 3 4 5 6 
#
# 1 -0.006542 0.012465 -0.003461 0.000000 0.000000 0.000000
# 2 0.012465 -0.006542 -0.003461 0.000000 0.000000 0.000000
# 3 -0.003461 -0.003461 0.034761 0.000000 0.000000 0.000000
# 4 0.000000 0.000000 0.000000 0.062220 0.000000 0.000000
# 5 0.000000 0.000000 0.000000 0.000000 0.062220 0.000000
# 6 0.000000 0.000000 0.000000 0.000000 0.000000 0.025780
#
#
# Mechanical properties :
#
#
# Convention : Reuss Voigt Hill
#
# Bulk Modulus (GPa) = 30.52225 54.53260 42.52743
# Shear Modulus (GPa) = 29.11485 14.92830 22.02157
#
# Velocity S-wave (km/s) = 4.09761 2.93412 3.56367
# Velocity P-wave (km/s) = 6.32371 6.55191 6.43882
#
# Compressibility (1/GPa) = 0.03276298
#
# Stress axis : x y z
#
# Youngs Moduli (GPa) = -152.86536 -152.86662 28.76772
#
# Poissons Ratio (x) = 1.90541 0.09957
# Poissons Ratio (y) = 1.90539 0.09956
# Poissons Ratio (z) = -0.52907 -0.52906
#
# Static dielectric constant tensor:
#      x y z
#    x 1.606370 0.000000 0.000000 
#    y 0.000000 1.606370 0.000000 
#    z 0.000000 0.000000 1.658380 
# 
# From -- ./inp_files/9481.got.cif
#   From: 2010.05.17/outbox.cif.g08.bks.cpg/sg140_5_cif.got.tgz:9481.got - 2010.06.21 00:45:31.
