data_PCOD9572818
_publ_section_title
;
Structure prediction by ZEFSAII (Michael W. Deem and Ramdas Pophale) SiO2 
 PCOD9572818
Probable space group: I 41/A M D
;
_chemical_formula_sum "Si O2"
_cell_formula_units_Z 96
_cell_length_a 34.899133
_cell_length_b 34.899133
_cell_length_c 5.115370
_cell_angle_alpha 90.000000
_cell_angle_beta 90.000000
_cell_angle_gamma 90.000000
_cell_volume 6230.262253
_symmetry_space_group_name_H-M "I 41/A M D"
_symmetry_group_IT_number 141
_space_group.IT_coordinate_system_code '2'
_symmetry_cell_setting 'tetragonal'
loop_
_space_group_symop_operation_xyz
x,y,z
1/4-y,3/4+x,1/4+z
-x,1/2-y,z
1/4+y,1/4-x,3/4+z
x,-y,-z
-x,1/2+y,-z
1/4+y,3/4+x,1/4-z
1/4-y,1/4-x,3/4-z
-x,-y,-z
3/4+y,1/4-x,3/4-z
x,1/2+y,-z
3/4-y,3/4+x,1/4-z
-x,y,z
x,1/2-y,z
3/4-y,1/4-x,3/4+z
3/4+y,3/4+x,1/4+z
1/2+x,1/2+y,1/2+z
3/4-y,1/4+x,3/4+z
1/2-x,-y,1/2+z
3/4+y,3/4-x,1/4+z
1/2+x,1/2-y,1/2-z
1/2-x,y,1/2-z
3/4+y,1/4+x,3/4-z
3/4-y,3/4-x,1/4-z
1/2-x,1/2-y,1/2-z
1/4+y,3/4-x,1/4-z
1/2+x,y,1/2-z
1/4-y,1/4+x,3/4-z
1/2-x,1/2+y,1/2+z
1/2+x,-y,1/2+z
1/4-y,3/4-x,1/4+z
1/4+y,1/4+x,3/4+z
loop_
_atom_site_type_symbol
_atom_site_label
_atom_site_fract_x
_atom_site_fract_y
_atom_site_fract_z
Si Si1 0.579733 0.170268 0.125000
Si Si2 0.546054 0.909202 0.059393
Si Si3 0.792657 0.795992 0.302122
Si Si4 0.455880 0.294121 0.625000
O O1 0.569613 0.127847 0.027756
O O2 0.553474 0.180187 0.374924
O O3 0.500000 0.900211 0.064457
O O4 0.552224 0.942055 0.842763
O O5 0.558475 0.926079 0.338407
O O6 0.790615 0.750000 0.265202
O O7 0.750000 0.811292 0.250000
O O8 0.450329 0.250000 0.545949
#
# Coordination Sequence:
#
# PCOD9572818 Si02
#       4
#    16  32  32  16
#     4  12  22  33  46  64  90 116 150 192 233 272
#     4  10  19  30  45  64  86 114 146 183 226 265
#     4   9  17  30  47  65  83 105 140 184 225 268
#     4  11  22  34  46  58  78 116 162 202 233 258
#
# _framework density 15.408662
#
# number of rings (size 3 to 8) (size 9 to 14) (size 15 to 20)
#    0.000    1.833    0.000    6.000    0.000    8.000 
#    0.000    0.000    0.000    0.000    0.000    0.000 
#    0.000    0.000    0.000    0.000    0.000   46.667 
#
# Total GULP energy -267840.349297 kJ/mol
# GULP energy per Si atom -5580.007277 kJ/mol
# Density = 1.537359 g / cm^3
# Si number density = 15.408662 Si / 1000 Ang^3
#
#
#
# Elastic Constant Matrix: (Units=GPa)
#
#
# Indices 1 2 3 4 5 6 
#
# 1 27.9400 5.9213 -12.8281 0.0000 0.0000 0.0000
# 2 5.9213 27.9442 -12.8261 0.0000 0.0000 0.0000
# 3 -12.8281 -12.8261 45.9714 0.0000 0.0000 0.0000
# 4 0.0000 0.0000 0.0000 12.5528 0.0000 0.0000
# 5 0.0000 0.0000 0.0000 0.0000 12.5537 0.0000
# 6 0.0000 0.0000 0.0000 0.0000 0.0000 8.4865
#
#
#
# Elastic Compliance Matrix: (Units=1/GPa)
#
#
# Indices 1 2 3 4 5 6 
#
# 1 0.041433 -0.003983 0.010450 0.000000 0.000000 0.000000
# 2 -0.003983 0.041424 0.010446 0.000000 0.000000 0.000000
# 3 0.010450 0.010446 0.027583 0.000000 0.000000 0.000000
# 4 0.000000 0.000000 0.000000 0.079663 0.000000 0.000000
# 5 0.000000 0.000000 0.000000 0.000000 0.079658 0.000000
# 6 0.000000 0.000000 0.000000 0.000000 0.000000 0.117834
#
#
# Mechanical properties :
#
#
# Convention : Reuss Voigt Hill
#
# Bulk Modulus (GPa) = 6.93156 6.93221 6.93189
# Shear Modulus (GPa) = 12.44219 14.82449 13.63334
#
# Velocity S-wave (km/s) = 2.84470 3.10512 2.97776
# Velocity P-wave (km/s) = 3.91127 4.16706 4.04119
#
# Compressibility (1/GPa) = 0.14426759
#
# Stress axis : x y z
#
# Youngs Moduli (GPa) = 24.13527 24.14049 36.25392
#
# Poissons Ratio (x) = 0.09615 -0.37887
# Poissons Ratio (y) = 0.09613 -0.37871
# Poissons Ratio (z) = -0.25222 -0.25217
#
# Static dielectric constant tensor:
#      x y z
#    x 1.515100 0.000000 0.000000 
#    y 0.000000 1.515100 0.000000 
#    z 0.000000 0.000000 1.532630 
# 
# From -- ./inp_files/1174.got.cif
#   From: 2010.05.17/outbox.cif.g08.bks.cpg/sg141_1_cif.got.tgz:1174.got - 2010.05.20 13:30:51.
