data_PCOD9572762
_publ_section_title
;
Structure prediction by ZEFSAII (Michael W. Deem and Ramdas Pophale) SiO2 
 PCOD9572762
Probable space group: I 41/A M D
;
_chemical_formula_sum "Si O2"
_cell_formula_units_Z 176
_cell_length_a 18.195688
_cell_length_b 18.195688
_cell_length_c 29.147369
_cell_angle_alpha 90.000000
_cell_angle_beta 90.000000
_cell_angle_gamma 90.000000
_cell_volume 9650.200172
_symmetry_space_group_name_H-M "I 41/A M D"
_symmetry_group_IT_number 141
_space_group.IT_coordinate_system_code '2'
_symmetry_cell_setting 'tetragonal'
loop_
_space_group_symop_operation_xyz
x,y,z
1/4-y,3/4+x,1/4+z
-x,1/2-y,z
1/4+y,1/4-x,3/4+z
x,-y,-z
-x,1/2+y,-z
1/4+y,3/4+x,1/4-z
1/4-y,1/4-x,3/4-z
-x,-y,-z
3/4+y,1/4-x,3/4-z
x,1/2+y,-z
3/4-y,3/4+x,1/4-z
-x,y,z
x,1/2-y,z
3/4-y,1/4-x,3/4+z
3/4+y,3/4+x,1/4+z
1/2+x,1/2+y,1/2+z
3/4-y,1/4+x,3/4+z
1/2-x,-y,1/2+z
3/4+y,3/4-x,1/4+z
1/2+x,1/2-y,1/2-z
1/2-x,y,1/2-z
3/4+y,1/4+x,3/4-z
3/4-y,3/4-x,1/4-z
1/2-x,1/2-y,1/2-z
1/4+y,3/4-x,1/4-z
1/2+x,y,1/2-z
1/4-y,1/4+x,3/4-z
1/2-x,1/2+y,1/2+z
1/2+x,-y,1/2+z
1/4-y,3/4-x,1/4+z
1/4+y,1/4+x,3/4+z
loop_
_atom_site_type_symbol
_atom_site_label
_atom_site_fract_x
_atom_site_fract_y
_atom_site_fract_z
Si Si1 0.206840 0.333536 0.881145
Si Si2 0.308333 0.670584 0.209034
Si Si3 0.676349 0.457540 0.297593
Si Si4 0.763693 0.412039 0.049798
Si Si5 0.916883 0.333117 0.375000
Si Si6 0.257716 0.835074 0.851858
O O1 0.181917 0.250000 0.888405
O O2 0.139061 0.389061 0.875000
O O3 0.260371 0.334204 0.837127
O O4 0.257616 0.362892 0.922135
O O5 0.346802 0.750000 0.209958
O O6 0.250000 0.669006 0.250000
O O7 0.356482 0.597644 0.212912
O O8 0.749395 0.507833 0.305623
O O9 0.652066 0.462058 0.244625
O O10 0.706777 0.380343 0.316964
O O11 0.747819 0.372098 0.097623
O O12 0.911403 0.250000 0.395181
O O13 0.845736 0.338603 0.341892
O O14 0.236705 0.750000 0.853610
#
# Coordination Sequence:
#
# PCOD9572762 Si02
#       6
#    32  32  32  32  16  32
#     4  11  20  33  53  76 111 148 182 231 284 340
#     4  10  18  29  51  81 106 138 181 227 285 341
#     4  11  20  36  56  83 111 144 195 247 290 343
#     4  11  19  34  59  80 112 149 191 252 290 350
#     4   9  18  32  52  80 112 148 187 234 300 368
#     4  11  21  36  58  84 118 155 194 244 302 369
#
# _framework density 18.237964000000002
#
# number of rings (size 3 to 8) (size 9 to 14) (size 15 to 20)
#    0.000    1.364    7.273    0.000    0.000    0.909 
#    0.000    2.727    0.000    2.182    0.000    0.000 
#    0.000    0.000    0.000    0.000    0.000    0.000 
#
# Total GULP energy -490071.767463 kJ/mol
# GULP energy per Si atom -5568.997358 kJ/mol
# Density = 1.819645 g / cm^3
# Si number density = 18.237964 Si / 1000 Ang^3
#
#
#
# Elastic Constant Matrix: (Units=GPa)
#
#
# Indices 1 2 3 4 5 6 
#
# 1 89.2602 4.2153 31.6509 0.0000 0.0000 0.0000
# 2 4.2153 89.2599 31.6508 0.0000 0.0000 0.0000
# 3 31.6509 31.6508 109.1287 0.0000 0.0000 0.0000
# 4 0.0000 0.0000 0.0000 108.7832 0.0000 0.0000
# 5 0.0000 0.0000 0.0000 0.0000 108.7830 0.0000
# 6 0.0000 0.0000 0.0000 0.0000 0.0000 18.7089
#
#
#
# Elastic Compliance Matrix: (Units=1/GPa)
#
#
# Indices 1 2 3 4 5 6 
#
# 1 0.012536 0.000777 -0.003861 0.000000 0.000000 0.000000
# 2 0.000777 0.012536 -0.003861 0.000000 0.000000 0.000000
# 3 -0.003861 -0.003861 0.011403 0.000000 0.000000 0.000000
# 4 0.000000 0.000000 0.000000 0.009193 0.000000 0.000000
# 5 0.000000 0.000000 0.000000 0.000000 0.009193 0.000000
# 6 0.000000 0.000000 0.000000 0.000000 0.000000 0.053450
#
#
# Mechanical properties :
#
#
# Convention : Reuss Voigt Hill
#
# Bulk Modulus (GPa) = 44.27869 46.96472 45.62171
# Shear Modulus (GPa) = 38.54206 61.93049 50.23628
#
# Velocity S-wave (km/s) = 4.60204 5.83358 5.25402
# Velocity P-wave (km/s) = 7.25047 8.43689 7.86608
#
# Compressibility (1/GPa) = 0.02258423
#
# Stress axis : x y z
#
# Youngs Moduli (GPa) = 79.77264 79.77240 87.69469
#
# Poissons Ratio (x) = -0.06199 0.33860
# Poissons Ratio (y) = -0.06199 0.33860
# Poissons Ratio (z) = 0.30801 0.30801
#
# Static dielectric constant tensor:
#      x y z
#    x 1.662340 0.000000 0.000000 
#    y 0.000000 1.662350 0.000000 
#    z 0.000000 0.000000 1.660390 
# 
# From -- ./inp_files/12899.got.cif
#   From: 2010.05.17/outbox.cif.g08.bks.cpg/sg141_7_cif.got.tgz:12899.got - 2010.05.20 13:30:51.
