data_PCOD9572934
_publ_section_title
;
Structure prediction by ZEFSAII (Michael W. Deem and Ramdas Pophale) SiO2 
 PCOD9572934
Probable space group: I 41/A M D
;
_chemical_formula_sum "Si O2"
_cell_formula_units_Z 112
_cell_length_a 34.336317
_cell_length_b 34.336317
_cell_length_c 5.182717
_cell_angle_alpha 90.000000
_cell_angle_beta 90.000000
_cell_angle_gamma 90.000000
_cell_volume 6110.333501
_symmetry_space_group_name_H-M "I 41/A M D"
_symmetry_group_IT_number 141
_space_group.IT_coordinate_system_code '2'
_symmetry_cell_setting 'tetragonal'
loop_
_space_group_symop_operation_xyz
x,y,z
1/4-y,3/4+x,1/4+z
-x,1/2-y,z
1/4+y,1/4-x,3/4+z
x,-y,-z
-x,1/2+y,-z
1/4+y,3/4+x,1/4-z
1/4-y,1/4-x,3/4-z
-x,-y,-z
3/4+y,1/4-x,3/4-z
x,1/2+y,-z
3/4-y,3/4+x,1/4-z
-x,y,z
x,1/2-y,z
3/4-y,1/4-x,3/4+z
3/4+y,3/4+x,1/4+z
1/2+x,1/2+y,1/2+z
3/4-y,1/4+x,3/4+z
1/2-x,-y,1/2+z
3/4+y,3/4-x,1/4+z
1/2+x,1/2-y,1/2-z
1/2-x,y,1/2-z
3/4+y,1/4+x,3/4-z
3/4-y,3/4-x,1/4-z
1/2-x,1/2-y,1/2-z
1/4+y,3/4-x,1/4-z
1/2+x,y,1/2-z
1/4-y,1/4+x,3/4-z
1/2-x,1/2+y,1/2+z
1/2+x,-y,1/2+z
1/4-y,3/4-x,1/4+z
1/4+y,1/4+x,3/4+z
loop_
_atom_site_type_symbol
_atom_site_label
_atom_site_fract_x
_atom_site_fract_y
_atom_site_fract_z
Si Si1 0.707468 0.957468 0.875000
Si Si2 0.955000 0.139351 0.878449
Si Si3 0.354105 0.169977 0.127162
Si Si4 0.375771 0.973559 0.744173
O O1 0.750000 0.956292 0.750000
O O2 0.706692 0.918279 0.047115
O O3 0.927559 0.177559 0.875000
O O4 0.939387 0.110351 0.655674
O O5 0.000000 0.148714 0.834131
O O6 0.948534 0.119666 0.155582
O O7 0.382343 0.132343 0.125000
O O8 0.311573 0.154939 0.052692
O O9 0.386137 0.000000 0.500000
O O10 0.374957 0.000000 0.000000
#
# Coordination Sequence:
#
# PCOD9572934 Si02
#       4
#    16  32  32  32
#     4  10  20  34  50  80 116 152 189 238 294 340
#     4  10  21  37  63  89 116 146 176 225 285 349
#     4  10  20  38  57  83 115 150 195 230 277 342
#     4  11  22  35  56  80 112 154 197 244 284 326
#
# _framework density 18.329604
#
# number of rings (size 3 to 8) (size 9 to 14) (size 15 to 20)
#    0.000    1.714    1.429    3.429    0.000    3.714 
#    0.000    0.000    0.000   22.286    0.000    0.000 
#    0.000    0.000    0.000    0.000    0.000    0.000 
#
# Total GULP energy -312432.844892 kJ/mol
# GULP energy per Si atom -5579.157944 kJ/mol
# Density = 1.828788 g / cm^3
# Si number density = 18.329604 Si / 1000 Ang^3
#
#
#
# Elastic Constant Matrix: (Units=GPa)
#
#
# Indices 1 2 3 4 5 6 
#
# 1 91.9940 50.6796 24.0665 0.0000 0.0000 0.0000
# 2 50.6796 91.9940 24.0665 0.0000 0.0000 0.0000
# 3 24.0665 24.0665 100.6750 0.0000 0.0000 0.0000
# 4 0.0000 0.0000 0.0000 18.7475 0.0000 0.0000
# 5 0.0000 0.0000 0.0000 0.0000 18.7475 0.0000
# 6 0.0000 0.0000 0.0000 0.0000 0.0000 48.8671
#
#
#
# Elastic Compliance Matrix: (Units=1/GPa)
#
#
# Indices 1 2 3 4 5 6 
#
# 1 0.015914 -0.008290 -0.001822 0.000000 0.000000 0.000000
# 2 -0.008290 0.015914 -0.001822 0.000000 0.000000 0.000000
# 3 -0.001822 -0.001822 0.010804 0.000000 0.000000 0.000000
# 4 0.000000 0.000000 0.000000 0.053340 0.000000 0.000000
# 5 0.000000 0.000000 0.000000 0.000000 0.053340 0.000000
# 6 0.000000 0.000000 0.000000 0.000000 0.000000 0.020464
#
#
# Mechanical properties :
#
#
# Convention : Reuss Voigt Hill
#
# Bulk Modulus (GPa) = 53.29917 53.58759 53.44338
# Shear Modulus (GPa) = 25.01225 29.66244 27.33734
#
# Velocity S-wave (km/s) = 3.69803 4.02715 3.86609
# Velocity P-wave (km/s) = 6.88297 7.13603 7.01064
#
# Compressibility (1/GPa) = 0.01876202
#
# Stress axis : x y z
#
# Youngs Moduli (GPa) = 62.83673 62.83673 92.55577
#
# Poissons Ratio (x) = 0.52094 0.16868
# Poissons Ratio (y) = 0.52094 0.16868
# Poissons Ratio (z) = 0.11452 0.11452
#
# Static dielectric constant tensor:
#      x y z
#    x 1.622880 0.000000 0.000000 
#    y 0.000000 1.622880 0.000000 
#    z 0.000000 0.000000 1.635560 
# 
# From -- ./inp_files/1298.got.cif
#   From: 2010.05.17/outbox.cif.g08.bks.cpg/sg141_1_cif.got.tgz:1298.got - 2010.05.20 13:30:51.
