data_PCOD9572200
_publ_section_title
;
Structure prediction by ZEFSAII (Michael W. Deem and Ramdas Pophale) SiO2 
 PCOD9572200
Probable space group: I 4/M C M
;
_chemical_formula_sum "Si O2"
_cell_formula_units_Z 216
_cell_length_a 27.247336
_cell_length_b 27.247336
_cell_length_c 15.646042
_cell_angle_alpha 90.000000
_cell_angle_beta 90.000000
_cell_angle_gamma 90.000000
_cell_volume 11615.892556
_symmetry_space_group_name_H-M "I 4/M C M"
_symmetry_group_IT_number 140
_symmetry_cell_setting 'tetragonal'
loop_
_space_group_symop_operation_xyz
x,y,z
-y,x,z
-x,-y,z
y,-x,z
x,-y,1/2-z
-x,y,1/2-z
y,x,1/2-z
-y,-x,1/2-z
-x,-y,-z
y,-x,-z
x,y,-z
-y,x,-z
-x,y,1/2+z
x,-y,1/2+z
-y,-x,1/2+z
y,x,1/2+z
1/2+x,1/2+y,1/2+z
1/2-y,1/2+x,1/2+z
1/2-x,1/2-y,1/2+z
1/2+y,1/2-x,1/2+z
1/2+x,1/2-y,-z
1/2-x,1/2+y,-z
1/2+y,1/2+x,-z
1/2-y,1/2-x,-z
1/2-x,1/2-y,1/2-z
1/2+y,1/2-x,1/2-z
1/2+x,1/2+y,1/2-z
1/2-y,1/2+x,1/2-z
1/2-x,1/2+y,z
1/2+x,1/2-y,z
1/2-y,1/2-x,z
1/2+y,1/2+x,z
loop_
_atom_site_type_symbol
_atom_site_label
_atom_site_fract_x
_atom_site_fract_y
_atom_site_fract_z
Si Si1 0.698020 0.618905 0.752539
Si Si2 0.120733 0.379268 0.500000
Si Si3 0.970863 0.860201 0.168645
Si Si4 0.451490 0.280559 0.899131
Si Si5 0.692955 0.113180 0.814667
Si Si6 0.447290 0.830522 0.354944
Si Si7 0.454809 0.875778 0.099388
Si Si8 0.423610 0.470177 0.000000
O O1 0.670719 0.670719 0.750000
O O2 0.661999 0.579709 0.796960
O O3 0.708769 0.596807 0.658090
O O4 0.749188 0.619240 0.803679
O O5 0.150195 0.410254 0.425896
O O6 0.000000 0.883297 0.250000
O O7 0.006032 0.816086 0.136125
O O8 0.961208 0.894326 0.087476
O O9 0.465086 0.224099 0.880692
O O10 0.444220 0.288291 0.000000
O O11 0.664829 0.164829 0.815441
O O12 0.674538 0.081621 0.733250
O O13 0.671673 0.080551 0.891612
O O14 0.494526 0.865480 0.353042
O O15 0.421853 0.921853 0.129400
O O16 0.467016 0.883569 0.000000
O O17 0.472757 0.438440 0.000000
#
# Coordination Sequence:
#
# PCOD9572200 Si02
#       8
#    32   8  32  32  32  32  32  16
#     4  10  23  38  56  87 116 143 185 235 292 337
#     4  12  20  30  57  90 106 148 186 232 292 328
#     4  10  22  38  62  86 116 153 194 237 282 333
#     4  10  19  36  59  84 109 149 190 236 277 330
#     4  10  21  38  61  81 110 151 188 233 285 342
#     4  11  20  35  56  84 117 142 194 237 281 338
#     4  10  20  35  55  81 112 151 191 233 276 326
#     4  11  26  41  60  89 118 157 194 225 283 354
#
# _framework density 18.595213999999999
#
# number of rings (size 3 to 8) (size 9 to 14) (size 15 to 20)
#    0.000    1.704    2.963    1.333    4.148    2.667 
#    1.333    1.481    0.000    0.000    0.000    0.000 
#    0.000    0.000    0.000    0.000    0.000    0.000 
#
# Total GULP energy -601846.132095 kJ/mol
# GULP energy per Si atom -5572.649371 kJ/mol
# Density = 1.855289 g / cm^3
# Si number density = 18.595214 Si / 1000 Ang^3
#
#
#
# Elastic Constant Matrix: (Units=GPa)
#
#
# Indices 1 2 3 4 5 6 
#
# 1 35.0123 29.9260 8.8083 0.0000 0.0000 0.0000
# 2 29.9260 35.0133 8.8084 0.0000 0.0000 0.0000
# 3 8.8083 8.8084 84.9776 0.0000 0.0000 0.0000
# 4 0.0000 0.0000 0.0000 17.5933 0.0000 0.0000
# 5 0.0000 0.0000 0.0000 0.0000 17.5927 0.0000
# 6 0.0000 0.0000 0.0000 0.0000 0.0000 42.2418
#
#
#
# Elastic Compliance Matrix: (Units=1/GPa)
#
#
# Indices 1 2 3 4 5 6 
#
# 1 0.106218 -0.090371 -0.001642 0.000000 0.000000 0.000000
# 2 -0.090371 0.106215 -0.001642 0.000000 0.000000 0.000000
# 3 -0.001642 -0.001642 0.012108 0.000000 0.000000 0.000000
# 4 0.000000 0.000000 0.000000 0.056840 0.000000 0.000000
# 5 0.000000 0.000000 0.000000 0.000000 0.056842 0.000000
# 6 0.000000 0.000000 0.000000 0.000000 0.000000 0.023673
#
#
# Mechanical properties :
#
#
# Convention : Reuss Voigt Hill
#
# Bulk Modulus (GPa) = 26.86141 27.78761 27.32451
# Shear Modulus (GPa) = 8.90287 22.64960 15.77623
#
# Velocity S-wave (km/s) = 2.19046 3.49382 2.91590
# Velocity P-wave (km/s) = 4.56883 5.59031 5.10518
#
# Compressibility (1/GPa) = 0.03722813
#
# Stress axis : x y z
#
# Youngs Moduli (GPa) = 9.41463 9.41491 82.58809
#
# Poissons Ratio (x) = 0.85084 0.13564
# Poissons Ratio (y) = 0.85081 0.13564
# Poissons Ratio (z) = 0.01546 0.01546
#
# Static dielectric constant tensor:
#      x y z
#    x 1.633870 0.000000 0.000000 
#    y 0.000000 1.633870 0.000000 
#    z 0.000000 0.000000 1.662430 
# 
# From -- ./inp_files/5251.got.cif
#   From: 2010.05.17/outbox.cif.g08.bks.cpg/sg140_3_cif.got.tgz:5251.got - 2010.06.21 00:45:31.
