data_PCOD9572426
_publ_section_title
;
Structure prediction by ZEFSAII (Michael W. Deem and Ramdas Pophale) SiO2 
 PCOD9572426
Probable space group: I 4/M C M
;
_chemical_formula_sum "Si O2"
_cell_formula_units_Z 160
_cell_length_a 23.558368
_cell_length_b 23.558368
_cell_length_c 14.889100
_cell_angle_alpha 90.000000
_cell_angle_beta 90.000000
_cell_angle_gamma 90.000000
_cell_volume 8263.401408
_symmetry_space_group_name_H-M "I 4/M C M"
_symmetry_group_IT_number 140
_symmetry_cell_setting 'tetragonal'
loop_
_space_group_symop_operation_xyz
x,y,z
-y,x,z
-x,-y,z
y,-x,z
x,-y,1/2-z
-x,y,1/2-z
y,x,1/2-z
-y,-x,1/2-z
-x,-y,-z
y,-x,-z
x,y,-z
-y,x,-z
-x,y,1/2+z
x,-y,1/2+z
-y,-x,1/2+z
y,x,1/2+z
1/2+x,1/2+y,1/2+z
1/2-y,1/2+x,1/2+z
1/2-x,1/2-y,1/2+z
1/2+y,1/2-x,1/2+z
1/2+x,1/2-y,-z
1/2-x,1/2+y,-z
1/2+y,1/2+x,-z
1/2-y,1/2-x,-z
1/2-x,1/2-y,1/2-z
1/2+y,1/2-x,1/2-z
1/2+x,1/2+y,1/2-z
1/2-y,1/2+x,1/2-z
1/2-x,1/2+y,z
1/2+x,1/2-y,z
1/2-y,1/2-x,z
1/2+y,1/2+x,z
loop_
_atom_site_type_symbol
_atom_site_label
_atom_site_fract_x
_atom_site_fract_y
_atom_site_fract_z
Si Si1 0.211499 0.198719 0.397894
Si Si2 0.618142 0.793142 0.705809
Si Si3 0.601824 0.242409 0.399314
Si Si4 0.471838 0.722107 0.898527
Si Si5 0.486659 0.409733 0.643214
O O1 0.224523 0.179449 0.500000
O O2 0.238298 0.261703 0.390612
O O3 0.243642 0.161703 0.325195
O O4 0.144817 0.204753 0.387795
O O5 0.648525 0.851476 0.673367
O O6 0.611977 0.795933 0.812686
O O7 0.560972 0.767310 0.663588
O O8 0.612817 0.219237 0.500000
O O9 0.537975 0.263536 0.395346
O O10 0.468840 0.654821 0.877585
O O11 0.451013 0.730539 0.000000
O O12 0.546486 0.437592 0.611003
O O13 0.500000 0.410994 0.750000
#
# Coordination Sequence:
#
# PCOD9572426 Si02
#       5
#    32  32  32  32  32
#     4   9  18  33  54  81 111 145 188 234 283 342
#     4  11  22  37  58  81 112 154 195 239 292 351
#     4  10  21  36  55  81 112 145 186 238 291 346
#     4  11  24  38  55  81 117 158 200 244 294 348
#     4   9  19  36  57  80 109 152 207 259 299 336
#
# _framework density 19.362487999999999
#
# number of rings (size 3 to 8) (size 9 to 14) (size 15 to 20)
#    0.000    2.000    0.000    4.200    2.800    4.800 
#    0.000    1.000    0.000    0.000    0.000    0.000 
#    0.000   13.600    0.000   45.400    0.000    0.000 
#
# Total GULP energy -445710.423309 kJ/mol
# GULP energy per Si atom -5571.380291 kJ/mol
# Density = 1.931842 g / cm^3
# Si number density = 19.362488 Si / 1000 Ang^3
#
#
#
# Elastic Constant Matrix: (Units=GPa)
#
#
# Indices 1 2 3 4 5 6 
#
# 1 84.9593 37.8965 25.4118 0.0000 0.0000 0.0000
# 2 37.8965 84.9593 25.4118 0.0000 0.0000 0.0000
# 3 25.4118 25.4118 108.5695 0.0000 0.0000 0.0000
# 4 0.0000 0.0000 0.0000 12.3375 0.0000 0.0000
# 5 0.0000 0.0000 0.0000 0.0000 12.3375 0.0000
# 6 0.0000 0.0000 0.0000 0.0000 0.0000 19.9499
#
#
#
# Elastic Compliance Matrix: (Units=1/GPa)
#
#
# Indices 1 2 3 4 5 6 
#
# 1 0.015130 -0.006118 -0.002109 0.000000 0.000000 0.000000
# 2 -0.006118 0.015130 -0.002109 0.000000 0.000000 0.000000
# 3 -0.002109 -0.002109 0.010198 0.000000 0.000000 0.000000
# 4 0.000000 0.000000 0.000000 0.081054 0.000000 0.000000
# 5 0.000000 0.000000 0.000000 0.000000 0.081054 0.000000
# 6 0.000000 0.000000 0.000000 0.000000 0.000000 0.050126
#
#
# Mechanical properties :
#
#
# Convention : Reuss Voigt Hill
#
# Bulk Modulus (GPa) = 50.54327 50.65867 50.60097
# Shear Modulus (GPa) = 17.85968 21.57618 19.71793
#
# Velocity S-wave (km/s) = 3.04037 3.34178 3.19463
# Velocity P-wave (km/s) = 6.20367 6.41171 6.30855
#
# Compressibility (1/GPa) = 0.01978503
#
# Stress axis : x y z
#
# Youngs Moduli (GPa) = 66.09285 66.09285 98.05709
#
# Poissons Ratio (x) = 0.40435 0.20684
# Poissons Ratio (y) = 0.40435 0.20684
# Poissons Ratio (z) = 0.13942 0.13942
#
# Static dielectric constant tensor:
#      x y z
#    x 1.696930 0.000000 0.000000 
#    y 0.000000 1.696930 0.000000 
#    z 0.000000 0.000000 1.756120 
# 
# From -- ./inp_files/4740.got.cif
#   From: 2010.05.17/outbox.cif.g08.bks.cpg/sg140_3_cif.got.tgz:4740.got - 2010.06.21 00:45:31.
