data_PCOD9572186
_publ_section_title
;
Structure prediction by ZEFSAII (Michael W. Deem and Ramdas Pophale) SiO2 
 PCOD9572186
Probable space group: I 4/M C M
;
_chemical_formula_sum "Si O2"
_cell_formula_units_Z 160
_cell_length_a 31.608913
_cell_length_b 31.608913
_cell_length_c 8.318376
_cell_angle_alpha 90.000000
_cell_angle_beta 90.000000
_cell_angle_gamma 90.000000
_cell_volume 8311.083954
_symmetry_space_group_name_H-M "I 4/M C M"
_symmetry_group_IT_number 140
_symmetry_cell_setting 'tetragonal'
loop_
_space_group_symop_operation_xyz
x,y,z
-y,x,z
-x,-y,z
y,-x,z
x,-y,1/2-z
-x,y,1/2-z
y,x,1/2-z
-y,-x,1/2-z
-x,-y,-z
y,-x,-z
x,y,-z
-y,x,-z
-x,y,1/2+z
x,-y,1/2+z
-y,-x,1/2+z
y,x,1/2+z
1/2+x,1/2+y,1/2+z
1/2-y,1/2+x,1/2+z
1/2-x,1/2-y,1/2+z
1/2+y,1/2-x,1/2+z
1/2+x,1/2-y,-z
1/2-x,1/2+y,-z
1/2+y,1/2+x,-z
1/2-y,1/2-x,-z
1/2-x,1/2-y,1/2-z
1/2+y,1/2-x,1/2-z
1/2+x,1/2+y,1/2-z
1/2-y,1/2+x,1/2-z
1/2-x,1/2+y,z
1/2+x,1/2-y,z
1/2-y,1/2-x,z
1/2+y,1/2+x,z
loop_
_atom_site_type_symbol
_atom_site_label
_atom_site_fract_x
_atom_site_fract_y
_atom_site_fract_z
Si Si1 0.548499 0.616524 0.692524
Si Si2 0.383307 0.883307 0.802353
Si Si3 0.254767 0.316857 0.319057
Si Si4 0.952454 0.547547 0.807538
Si Si5 0.288114 0.897158 0.812037
Si Si6 0.048047 0.210749 0.805375
O O1 0.500000 0.610273 0.750000
O O2 0.580158 0.580158 0.750000
O O3 0.547891 0.616290 0.500000
O O4 0.563133 0.663807 0.746595
O O5 0.417979 0.917979 0.753455
O O6 0.335864 0.895286 0.745647
O O7 0.382250 0.882250 0.000000
O O8 0.298056 0.298056 0.250000
O O9 0.260376 0.333491 0.500000
O O10 0.221873 0.278128 0.328076
O O11 0.233023 0.351398 0.207911
O O12 0.942251 0.500000 0.750000
O O13 0.952675 0.547326 0.000000
O O14 0.252251 0.927968 0.742079
O O15 0.292780 0.907710 0.000000
O O16 0.000000 0.213446 0.750000
O O17 0.050702 0.211426 0.000000
#
# Coordination Sequence:
#
# PCOD9572186 Si02
#       6
#    32  16  32  16  32  32
#     4  10  20  36  56  81 110 142 178 223 269 321
#     4   9  19  34  56  81 110 143 179 222 275 330
#     4  10  20  33  50  74 103 137 176 218 263 312
#     4  10  20  37  58  83 109 141 178 220 274 334
#     4  10  19  35  56  79 107 144 183 226 273 324
#     4   9  20  36  55  78 107 142 183 221 267 320
#
# _framework density 19.251398999999999
#
# number of rings (size 3 to 8) (size 9 to 14) (size 15 to 20)
#    0.000    2.300    1.000    1.800    0.000    4.200 
#    0.000    5.000    0.000    0.000    0.000    0.000 
#    0.000    0.000    0.000    0.000    0.000    0.000 
#
# Total GULP energy -445880.920153 kJ/mol
# GULP energy per Si atom -5573.511502 kJ/mol
# Density = 1.920758 g / cm^3
# Si number density = 19.251399 Si / 1000 Ang^3
#
#
#
# Elastic Constant Matrix: (Units=GPa)
#
#
# Indices 1 2 3 4 5 6 
#
# 1 114.9547 119.3545 11.7891 0.0000 0.0000 0.0000
# 2 119.3545 114.9546 11.7891 0.0000 0.0000 0.0000
# 3 11.7891 11.7891 12.9785 0.0000 0.0000 0.0000
# 4 0.0000 0.0000 0.0000 12.6346 0.0000 0.0000
# 5 0.0000 0.0000 0.0000 0.0000 12.6347 0.0000
# 6 0.0000 0.0000 0.0000 0.0000 0.0000 34.8914
#
#
#
# Elastic Compliance Matrix: (Units=1/GPa)
#
#
# Indices 1 2 3 4 5 6 
#
# 1 -0.111293 0.115991 -0.004267 0.000000 0.000000 0.000000
# 2 0.115991 -0.111293 -0.004266 0.000000 0.000000 0.000000
# 3 -0.004267 -0.004266 0.084802 0.000000 0.000000 0.000000
# 4 0.000000 0.000000 0.000000 0.079147 0.000000 0.000000
# 5 0.000000 0.000000 0.000000 0.000000 0.079147 0.000000
# 6 0.000000 0.000000 0.000000 0.000000 0.000000 0.028660
#
#
# Mechanical properties :
#
#
# Convention : Reuss Voigt Hill
#
# Bulk Modulus (GPa) = 12.96525 58.75035 35.85780
# Shear Modulus (GPa) = -35.70547 18.69583 -8.50482
#
# Velocity S-wave (km/s) = -4.31129 3.11969 -2.10413
# Velocity P-wave (km/s) = 4.24660 6.60003 3.57259
#
# Compressibility (1/GPa) = 0.07712925
#
# Stress axis : x y z
#
# Youngs Moduli (GPa) = -8.98527 -8.98526 11.79221
#
# Poissons Ratio (x) = 1.04220 0.05032
# Poissons Ratio (y) = 1.04221 0.05031
# Poissons Ratio (z) = -0.03834 -0.03833
#
# Static dielectric constant tensor:
#      x y z
#    x 1.675310 0.000000 0.000000 
#    y 0.000000 1.675310 0.000000 
#    z 0.000000 0.000000 1.661730 
# 
# From -- ./inp_files/1820.got.cif
#   From: 2010.05.17/outbox.cif.g08.bks.cpg/sg140_1_cif.got.tgz:1820.got - 2010.06.21 00:45:31.
