data_PCOD9572867
_publ_section_title
;
Structure prediction by ZEFSAII (Michael W. Deem and Ramdas Pophale) SiO2 
 PCOD9572867
Probable space group: I 41/A M D
;
_chemical_formula_sum "Si O2"
_cell_formula_units_Z 160
_cell_length_a 18.116341
_cell_length_b 18.116341
_cell_length_c 25.419508
_cell_angle_alpha 90.000000
_cell_angle_beta 90.000000
_cell_angle_gamma 90.000000
_cell_volume 8342.728566
_symmetry_space_group_name_H-M "I 41/A M D"
_symmetry_group_IT_number 141
_space_group.IT_coordinate_system_code '2'
_symmetry_cell_setting 'tetragonal'
loop_
_space_group_symop_operation_xyz
x,y,z
1/4-y,3/4+x,1/4+z
-x,1/2-y,z
1/4+y,1/4-x,3/4+z
x,-y,-z
-x,1/2+y,-z
1/4+y,3/4+x,1/4-z
1/4-y,1/4-x,3/4-z
-x,-y,-z
3/4+y,1/4-x,3/4-z
x,1/2+y,-z
3/4-y,3/4+x,1/4-z
-x,y,z
x,1/2-y,z
3/4-y,1/4-x,3/4+z
3/4+y,3/4+x,1/4+z
1/2+x,1/2+y,1/2+z
3/4-y,1/4+x,3/4+z
1/2-x,-y,1/2+z
3/4+y,3/4-x,1/4+z
1/2+x,1/2-y,1/2-z
1/2-x,y,1/2-z
3/4+y,1/4+x,3/4-z
3/4-y,3/4-x,1/4-z
1/2-x,1/2-y,1/2-z
1/4+y,3/4-x,1/4-z
1/2+x,y,1/2-z
1/4-y,1/4+x,3/4-z
1/2-x,1/2+y,1/2+z
1/2+x,-y,1/2+z
1/4-y,3/4-x,1/4+z
1/4+y,1/4+x,3/4+z
loop_
_atom_site_type_symbol
_atom_site_label
_atom_site_fract_x
_atom_site_fract_y
_atom_site_fract_z
Si Si1 0.822847 0.956960 0.359998
Si Si2 0.174707 0.336359 0.216128
Si Si3 0.916682 0.524148 0.077243
Si Si4 0.799183 0.333787 0.469891
Si Si5 0.081414 0.916114 0.196980
O O1 0.869328 0.934019 0.411338
O O2 0.796277 0.887244 0.325574
O O3 0.746418 0.996418 0.375000
O O4 0.867347 0.018099 0.327437
O O5 0.158349 0.250000 0.206773
O O6 0.250000 0.341154 0.250000
O O7 0.115044 0.378489 0.251796
O O8 0.917773 0.548657 0.138707
O O9 0.885154 0.596839 0.048481
O O10 0.000000 0.507100 0.061528
O O11 0.810310 0.250000 0.452450
O O12 0.733495 0.335989 0.512644
O O13 0.000000 0.879863 0.203563
#
# Coordination Sequence:
#
# PCOD9572867 Si02
#       5
#    32  32  32  32  32
#     4  12  21  37  62  90 121 159 203 252 296 354
#     4  11  23  39  62  90 119 155 199 245 299 360
#     4  10  19  33  57  86 115 155 203 244 294 359
#     4  11  23  40  63  88 119 159 203 251 303 360
#     4   9  18  34  55  82 116 154 197 244 298 356
#
# _framework density 19.178377999999999
#
# number of rings (size 3 to 8) (size 9 to 14) (size 15 to 20)
#    0.000    1.400    6.000    0.600    0.000    0.800 
#    0.000    4.000    0.000    3.000    0.000    0.000 
#    0.000    0.000    0.000    0.000    0.000    0.000 
#
# Total GULP energy -446570.990368 kJ/mol
# GULP energy per Si atom -5582.137380 kJ/mol
# Density = 1.913473 g / cm^3
# Si number density = 19.178378 Si / 1000 Ang^3
#
#
#
# Elastic Constant Matrix: (Units=GPa)
#
#
# Indices 1 2 3 4 5 6 
#
# 1 118.3592 56.4916 23.8174 0.0000 0.0000 0.0000
# 2 56.4916 118.3592 23.8174 0.0000 0.0000 0.0000
# 3 23.8174 23.8174 53.3465 0.0000 0.0000 0.0000
# 4 0.0000 0.0000 0.0000 9.4036 0.0000 0.0000
# 5 0.0000 0.0000 0.0000 0.0000 9.4036 0.0000
# 6 0.0000 0.0000 0.0000 0.0000 0.0000 17.2735
#
#
#
# Elastic Compliance Matrix: (Units=1/GPa)
#
#
# Indices 1 2 3 4 5 6 
#
# 1 0.011337 -0.004826 -0.002907 0.000000 0.000000 0.000000
# 2 -0.004826 0.011337 -0.002907 0.000000 0.000000 0.000000
# 3 -0.002907 -0.002907 0.021341 0.000000 0.000000 0.000000
# 4 0.000000 0.000000 0.000000 0.106342 0.000000 0.000000
# 5 0.000000 0.000000 0.000000 0.000000 0.106342 0.000000
# 6 0.000000 0.000000 0.000000 0.000000 0.000000 0.057892
#
#
# Mechanical properties :
#
#
# Convention : Reuss Voigt Hill
#
# Bulk Modulus (GPa) = 43.98431 55.36865 49.67648
# Shear Modulus (GPa) = 14.55811 19.61204 17.08507
#
# Velocity S-wave (km/s) = 2.75815 3.20130 2.98795
# Velocity P-wave (km/s) = 5.75563 6.52667 6.15324
#
# Compressibility (1/GPa) = 0.02273538
#
# Stress axis : x y z
#
# Youngs Moduli (GPa) = 88.20417 88.20417 46.85789
#
# Poissons Ratio (x) = 0.42569 0.13622
# Poissons Ratio (y) = 0.42569 0.13622
# Poissons Ratio (z) = 0.25641 0.25641
#
# Static dielectric constant tensor:
#      x y z
#    x 1.662910 0.000000 0.000000 
#    y 0.000000 1.662910 0.000000 
#    z 0.000000 0.000000 1.669830 
# 
# From -- ./inp_files/12731.got.cif
#   From: 2010.05.17/outbox.cif.g08.bks.cpg/sg141_7_cif.got.tgz:12731.got - 2010.05.20 13:30:51.
