data_PCOD9572411
_publ_section_title
;
Structure prediction by ZEFSAII (Michael W. Deem and Ramdas Pophale) SiO2 
 PCOD9572411
Probable space group: I 4/M C M
;
_chemical_formula_sum "Si O2"
_cell_formula_units_Z 176
_cell_length_a 18.161384
_cell_length_b 18.161384
_cell_length_c 27.246201
_cell_angle_alpha 90.000000
_cell_angle_beta 90.000000
_cell_angle_gamma 90.000000
_cell_volume 8986.774378
_symmetry_space_group_name_H-M "I 4/M C M"
_symmetry_group_IT_number 140
_symmetry_cell_setting 'tetragonal'
loop_
_space_group_symop_operation_xyz
x,y,z
-y,x,z
-x,-y,z
y,-x,z
x,-y,1/2-z
-x,y,1/2-z
y,x,1/2-z
-y,-x,1/2-z
-x,-y,-z
y,-x,-z
x,y,-z
-y,x,-z
-x,y,1/2+z
x,-y,1/2+z
-y,-x,1/2+z
y,x,1/2+z
1/2+x,1/2+y,1/2+z
1/2-y,1/2+x,1/2+z
1/2-x,1/2-y,1/2+z
1/2+y,1/2-x,1/2+z
1/2+x,1/2-y,-z
1/2-x,1/2+y,-z
1/2+y,1/2+x,-z
1/2-y,1/2-x,-z
1/2-x,1/2-y,1/2-z
1/2+y,1/2-x,1/2-z
1/2+x,1/2+y,1/2-z
1/2-y,1/2+x,1/2-z
1/2-x,1/2+y,z
1/2+x,1/2-y,z
1/2-y,1/2-x,z
1/2+y,1/2+x,z
loop_
_atom_site_type_symbol
_atom_site_label
_atom_site_fract_x
_atom_site_fract_y
_atom_site_fract_z
Si Si1 0.840117 0.463836 0.197465
Si Si2 0.681094 0.300214 0.100301
Si Si3 0.224934 0.153891 0.208751
Si Si4 0.624502 0.003201 0.500000
Si Si5 0.097648 0.068201 0.941090
Si Si6 0.820708 0.444325 0.401753
O O1 0.859394 0.500000 0.250000
O O2 0.903040 0.403040 0.185999
O O3 0.761299 0.424955 0.204386
O O4 0.829810 0.515180 0.150187
O O5 0.750808 0.250808 0.082243
O O6 0.695907 0.316867 0.157229
O O7 0.662635 0.378306 0.075995
O O8 0.608491 0.249956 0.095213
O O9 0.164057 0.164057 0.250000
O O10 0.294219 0.205782 0.223500
O O11 0.563219 0.936782 0.500000
O O12 0.671895 0.994526 0.549699
O O13 0.578033 0.078033 0.500000
O O14 0.017262 0.099511 0.924959
O O15 0.097516 0.067830 0.000000
O O16 0.889354 0.389354 0.404028
#
# Coordination Sequence:
#
# PCOD9572411 Si02
#       6
#    32  32  32  16  32  32
#     4  11  22  35  57  86 116 152 197 249 302 360
#     4  10  21  36  60  89 117 154 200 248 299 357
#     4   9  19  37  55  75 109 148 188 237 300 362
#     4   9  18  34  54  76 114 165 202 238 291 350
#     4   9  20  39  62  87 117 156 198 249 311 359
#     4  10  21  35  54  83 118 158 203 243 292 358
#
# _framework density 19.584336
#
# number of rings (size 3 to 8) (size 9 to 14) (size 15 to 20)
#    0.000    2.273    0.000    2.727    3.818    5.273 
#    0.000    0.000    0.000    0.000    0.000    1.273 
#    0.000    0.000    0.000    0.000    0.000    0.000 
#
# Total GULP energy -490646.696627 kJ/mol
# GULP energy per Si atom -5575.530643 kJ/mol
# Density = 1.953976 g / cm^3
# Si number density = 19.584336 Si / 1000 Ang^3
#
#
#
# Elastic Constant Matrix: (Units=GPa)
#
#
# Indices 1 2 3 4 5 6 
#
# 1 44.5958 20.4057 7.3871 0.0000 0.0000 0.0000
# 2 20.4057 44.5958 7.3873 0.0000 0.0000 0.0000
# 3 7.3871 7.3873 56.0177 0.0000 0.0000 0.0000
# 4 0.0000 0.0000 0.0000 89.2310 0.0000 0.0000
# 5 0.0000 0.0000 0.0000 0.0000 89.2350 0.0000
# 6 0.0000 0.0000 0.0000 0.0000 0.0000 17.7114
#
#
#
# Elastic Compliance Matrix: (Units=1/GPa)
#
#
# Indices 1 2 3 4 5 6 
#
# 1 0.028599 -0.012740 -0.002091 0.000000 0.000000 0.000000
# 2 -0.012740 0.028599 -0.002092 0.000000 0.000000 0.000000
# 3 -0.002091 -0.002092 0.018403 0.000000 0.000000 0.000000
# 4 0.000000 0.000000 0.000000 0.011207 0.000000 0.000000
# 5 0.000000 0.000000 0.000000 0.000000 0.011206 0.000000
# 6 0.000000 0.000000 0.000000 0.000000 0.000000 0.056461
#
#
# Mechanical properties :
#
#
# Convention : Reuss Voigt Hill
#
# Bulk Modulus (GPa) = 23.94832 23.95216 23.95024
# Shear Modulus (GPa) = 24.72309 46.57077 35.64693
#
# Velocity S-wave (km/s) = 3.55687 4.88172 4.27098
# Velocity P-wave (km/s) = 5.39660 6.63564 6.04794
#
# Compressibility (1/GPa) = 0.04175658
#
# Stress axis : x y z
#
# Youngs Moduli (GPa) = 34.96576 34.96579 54.33863
#
# Poissons Ratio (x) = 0.44546 0.11364
# Poissons Ratio (y) = 0.44546 0.11365
# Poissons Ratio (z) = 0.07313 0.07313
#
# Static dielectric constant tensor:
#      x y z
#    x 1.717070 0.000000 0.000000 
#    y 0.000000 1.717070 0.000000 
#    z 0.000000 0.000000 1.695690 
# 
# From -- ./inp_files/10676.got.cif
#   From: 2010.05.17/outbox.cif.g08.bks.cpg/sg140_6_cif.got.tgz:10676.got - 2010.06.21 00:45:31.
