data_PCOD9572074
_publ_section_title
;
Structure prediction by ZEFSAII (Michael W. Deem and Ramdas Pophale) SiO2 
 PCOD9572074
Probable space group: I 4/M C M
;
_chemical_formula_sum "Si O2"
_cell_formula_units_Z 160
_cell_length_a 22.262942
_cell_length_b 22.262942
_cell_length_c 13.839853
_cell_angle_alpha 90.000000
_cell_angle_beta 90.000000
_cell_angle_gamma 90.000000
_cell_volume 6859.565178
_symmetry_space_group_name_H-M "I 4/M C M"
_symmetry_group_IT_number 140
_symmetry_cell_setting 'tetragonal'
loop_
_space_group_symop_operation_xyz
x,y,z
-y,x,z
-x,-y,z
y,-x,z
x,-y,1/2-z
-x,y,1/2-z
y,x,1/2-z
-y,-x,1/2-z
-x,-y,-z
y,-x,-z
x,y,-z
-y,x,-z
-x,y,1/2+z
x,-y,1/2+z
-y,-x,1/2+z
y,x,1/2+z
1/2+x,1/2+y,1/2+z
1/2-y,1/2+x,1/2+z
1/2-x,1/2-y,1/2+z
1/2+y,1/2-x,1/2+z
1/2+x,1/2-y,-z
1/2-x,1/2+y,-z
1/2+y,1/2+x,-z
1/2-y,1/2-x,-z
1/2-x,1/2-y,1/2-z
1/2+y,1/2-x,1/2-z
1/2+x,1/2+y,1/2-z
1/2-y,1/2+x,1/2-z
1/2-x,1/2+y,z
1/2+x,1/2-y,z
1/2-y,1/2-x,z
1/2+y,1/2+x,z
loop_
_atom_site_type_symbol
_atom_site_label
_atom_site_fract_x
_atom_site_fract_y
_atom_site_fract_z
Si Si1 0.185136 0.412521 0.882377
Si Si2 0.560036 0.575072 0.365119
Si Si3 0.859892 0.810657 0.890303
Si Si4 0.543111 0.859570 0.118592
Si Si5 0.136771 0.737979 0.888868
O O1 0.142596 0.357404 0.855219
O O2 0.252619 0.394936 0.850510
O O3 0.153329 0.474700 0.851673
O O4 0.186944 0.416770 0.000000
O O5 0.490917 0.581463 0.395700
O O6 0.568586 0.568586 0.250000
O O7 0.596065 0.633002 0.395321
O O8 0.799262 0.838211 0.844802
O O9 0.841713 0.792070 0.000000
O O10 0.580042 0.919959 0.147663
O O11 0.581925 0.801495 0.150757
O O12 0.544320 0.860611 0.000000
O O13 0.191900 0.691900 0.891239
O O14 0.118699 0.752587 0.000000
#
# Coordination Sequence:
#
# PCOD9572074 Si02
#       5
#    32  32  32  32  32
#     4   9  17  27  39  62  98 133 163 198 246 296
#     4   9  20  38  53  66  92 129 162 190 232 292
#     4  10  19  28  48  75  99 124 157 201 245 285
#     4   8  14  24  38  57  86 127 169 202 233 281
#     4   8  14  25  40  61  93 128 156 186 235 292
#
# _framework density 23.325095000000001
#
# number of rings (size 3 to 8) (size 9 to 14) (size 15 to 20)
#    0.000    3.200    0.000    2.400    2.800    3.600 
#    0.000    3.000    0.000    2.400    0.000    0.000 
#    0.000    0.000    0.000    0.000    0.000    0.000 
#
# Total GULP energy -446404.494470 kJ/mol
# GULP energy per Si atom -5580.056181 kJ/mol
# Density = 2.327201 g / cm^3
# Si number density = 23.325095 Si / 1000 Ang^3
#
#
#
# Elastic Constant Matrix: (Units=GPa)
#
#
# Indices 1 2 3 4 5 6 
#
# 1 122.4994 123.7060 0.8195 0.0000 0.0000 0.0000
# 2 123.7060 122.4994 0.8195 0.0000 0.0000 0.0000
# 3 0.8195 0.8195 76.9887 0.0000 0.0000 0.0000
# 4 0.0000 0.0000 0.0000 21.8866 0.0000 0.0000
# 5 0.0000 0.0000 0.0000 0.0000 21.8866 0.0000
# 6 0.0000 0.0000 0.0000 0.0000 0.0000 20.9705
#
#
#
# Elastic Compliance Matrix: (Units=1/GPa)
#
#
# Indices 1 2 3 4 5 6 
#
# 1 -0.412348 0.416410 -0.000043 0.000000 0.000000 0.000000
# 2 0.416410 -0.412348 -0.000043 0.000000 0.000000 0.000000
# 3 -0.000043 -0.000043 0.012990 0.000000 0.000000 0.000000
# 4 0.000000 0.000000 0.000000 0.045690 0.000000 0.000000
# 5 0.000000 0.000000 0.000000 0.000000 0.045690 0.000000
# 6 0.000000 0.000000 0.000000 0.000000 0.000000 0.047686
#
#
# Mechanical properties :
#
#
# Convention : Reuss Voigt Hill
#
# Bulk Modulus (GPa) = 47.75371 63.63081 55.69226
# Shear Modulus (GPa) = -3.33710 26.05823 11.36057
#
# Velocity S-wave (km/s) = -1.19741 3.34604 2.20932
# Velocity P-wave (km/s) = 4.31345 6.50132 5.51693
#
# Compressibility (1/GPa) = 0.02094078
#
# Stress axis : x y z
#
# Youngs Moduli (GPa) = -2.42513 -2.42513 76.98322
#
# Poissons Ratio (x) = 1.00985 0.00333
# Poissons Ratio (y) = 1.00985 0.00333
# Poissons Ratio (z) = -0.00010 -0.00010
#
# Static dielectric constant tensor:
#      x y z
#    x 1.822600 0.000000 0.000000 
#    y 0.000000 1.822600 0.000000 
#    z 0.000000 0.000000 2.348450 
# 
# From -- ./inp_files/6796.got.cif
#   From: 2010.05.17/outbox.cif.g08.bks.cpg/sg140_4_cif.got.tgz:6796.got - 2010.06.21 00:45:31.
