data_PCOD9572159
_publ_section_title
;
Structure prediction by ZEFSAII (Michael W. Deem and Ramdas Pophale) SiO2 
 PCOD9572159
Probable space group: I 4/M C M
;
_chemical_formula_sum "Si O2"
_cell_formula_units_Z 240
_cell_length_a 19.656319
_cell_length_b 19.656319
_cell_length_c 31.782620
_cell_angle_alpha 90.000000
_cell_angle_beta 90.000000
_cell_angle_gamma 90.000000
_cell_volume 12279.878751
_symmetry_space_group_name_H-M "I 4/M C M"
_symmetry_group_IT_number 140
_symmetry_cell_setting 'tetragonal'
loop_
_space_group_symop_operation_xyz
x,y,z
-y,x,z
-x,-y,z
y,-x,z
x,-y,1/2-z
-x,y,1/2-z
y,x,1/2-z
-y,-x,1/2-z
-x,-y,-z
y,-x,-z
x,y,-z
-y,x,-z
-x,y,1/2+z
x,-y,1/2+z
-y,-x,1/2+z
y,x,1/2+z
1/2+x,1/2+y,1/2+z
1/2-y,1/2+x,1/2+z
1/2-x,1/2-y,1/2+z
1/2+y,1/2-x,1/2+z
1/2+x,1/2-y,-z
1/2-x,1/2+y,-z
1/2+y,1/2+x,-z
1/2-y,1/2-x,-z
1/2-x,1/2-y,1/2-z
1/2+y,1/2-x,1/2-z
1/2+x,1/2+y,1/2-z
1/2-y,1/2+x,1/2-z
1/2-x,1/2+y,z
1/2+x,1/2-y,z
1/2-y,1/2-x,z
1/2+y,1/2+x,z
loop_
_atom_site_type_symbol
_atom_site_label
_atom_site_fract_x
_atom_site_fract_y
_atom_site_fract_z
Si Si1 0.614067 0.998054 0.951322
Si Si2 0.674717 0.607095 0.380566
Si Si3 0.113310 0.502321 0.704106
Si Si4 0.551658 0.599278 0.195237
Si Si5 0.415179 0.572327 0.950083
Si Si6 0.658447 0.341554 0.750000
Si Si7 0.648849 0.740854 0.334228
Si Si8 0.006578 0.287364 0.127165
O O1 0.557699 0.057699 0.949690
O O2 0.670277 0.014415 0.916123
O O3 0.571885 0.928116 0.942281
O O4 0.638993 0.994482 0.000000
O O5 0.618014 0.568271 0.352397
O O6 0.641163 0.614538 0.425912
O O7 0.685704 0.679650 0.359082
O O8 0.737742 0.556712 0.379839
O O9 0.147995 0.500000 0.750000
O O10 0.073983 0.573983 0.698902
O O11 0.161177 0.490179 0.665009
O O12 0.054984 0.445016 0.705612
O O13 0.472825 0.588157 0.203589
O O14 0.589184 0.656181 0.222557
O O15 0.407135 0.492341 0.939193
O O16 0.408707 0.578257 0.000000
O O17 0.717394 0.346985 0.714914
O O18 0.689381 0.810620 0.339183
O O19 0.574032 0.748709 0.355058
#
# Coordination Sequence:
#
# PCOD9572159 Si02
#       8
#    32  32  32  32  32  16  32  32
#     4   9  19  38  66  98 124 145 183 249 323 388
#     4  11  23  37  54  79 114 153 196 241 284 344
#     4   9  19  36  59  88 116 141 182 246 312 369
#     4  10  19  33  56  83 112 145 188 247 302 342
#     4   9  17  32  57  85 110 138 176 226 281 330
#     4  10  21  37  56  78 106 148 200 249 299 356
#     4  11  25  42  58  81 118 161 202 248 306 370
#     4  12  23  37  62  87 116 163 210 249 297 368
#
# _framework density 19.544167000000002
#
# number of rings (size 3 to 8) (size 9 to 14) (size 15 to 20)
#    0.000    1.867    0.000    6.600    0.000    7.467 
#    0.000    2.000    0.000    1.200    0.000    0.000 
#    0.000    0.000    0.000    0.000    0.000    0.000 
#
# Total GULP energy -669630.430623 kJ/mol
# GULP energy per Si atom -5580.253589 kJ/mol
# Density = 1.949968 g / cm^3
# Si number density = 19.544167 Si / 1000 Ang^3
#
#
#
# Elastic Constant Matrix: (Units=GPa)
#
#
# Indices 1 2 3 4 5 6 
#
# 1 45.1911 15.3843 27.1027 0.0000 0.0000 0.0000
# 2 15.3843 45.1910 27.1025 0.0000 0.0000 0.0000
# 3 27.1027 27.1025 104.6374 0.0000 0.0000 0.0000
# 4 0.0000 0.0000 0.0000 14.8380 0.0000 0.0000
# 5 0.0000 0.0000 0.0000 0.0000 14.8376 0.0000
# 6 0.0000 0.0000 0.0000 0.0000 0.0000 18.2819
#
#
#
# Elastic Compliance Matrix: (Units=1/GPa)
#
#
# Indices 1 2 3 4 5 6 
#
# 1 0.027519 -0.006030 -0.005566 0.000000 0.000000 0.000000
# 2 -0.006030 0.027519 -0.005566 0.000000 0.000000 0.000000
# 3 -0.005566 -0.005566 0.012440 0.000000 0.000000 0.000000
# 4 0.000000 0.000000 0.000000 0.067394 0.000000 0.000000
# 5 0.000000 0.000000 0.000000 0.000000 0.067396 0.000000
# 6 0.000000 0.000000 0.000000 0.000000 0.000000 0.054699
#
#
# Mechanical properties :
#
#
# Convention : Reuss Voigt Hill
#
# Bulk Modulus (GPa) = 30.16201 37.13317 33.64759
# Shear Modulus (GPa) = 16.53747 17.95352 17.24550
#
# Velocity S-wave (km/s) = 2.91204 3.03415 2.97372
# Velocity P-wave (km/s) = 5.17425 5.59604 5.38927
#
# Compressibility (1/GPa) = 0.03315429
#
# Stress axis : x y z
#
# Youngs Moduli (GPa) = 36.33827 36.33829 80.38491
#
# Poissons Ratio (x) = 0.21913 0.44742
# Poissons Ratio (y) = 0.21913 0.44742
# Poissons Ratio (z) = 0.20226 0.20226
#
# Static dielectric constant tensor:
#      x y z
#    x 1.695710 0.000000 0.000000 
#    y 0.000000 1.695710 0.000000 
#    z 0.000000 0.000000 1.734990 
# 
# From -- ./inp_files/11798.got.cif
#   From: 2010.05.17/outbox.cif.g08.bks.cpg/sg140_6_cif.got.tgz:11798.got - 2010.06.21 00:45:31.
