data_PCOD9572676
_publ_section_title
;
Structure prediction by ZEFSAII (Michael W. Deem and Ramdas Pophale) SiO2 
 PCOD9572676
Probable space group: I 4/M C M
;
_chemical_formula_sum "Si O2"
_cell_formula_units_Z 160
_cell_length_a 18.540018
_cell_length_b 18.540018
_cell_length_c 27.298652
_cell_angle_alpha 90.000000
_cell_angle_beta 90.000000
_cell_angle_gamma 90.000000
_cell_volume 9383.427550
_symmetry_space_group_name_H-M "I 4/M C M"
_symmetry_group_IT_number 140
_symmetry_cell_setting 'tetragonal'
loop_
_space_group_symop_operation_xyz
x,y,z
-y,x,z
-x,-y,z
y,-x,z
x,-y,1/2-z
-x,y,1/2-z
y,x,1/2-z
-y,-x,1/2-z
-x,-y,-z
y,-x,-z
x,y,-z
-y,x,-z
-x,y,1/2+z
x,-y,1/2+z
-y,-x,1/2+z
y,x,1/2+z
1/2+x,1/2+y,1/2+z
1/2-y,1/2+x,1/2+z
1/2-x,1/2-y,1/2+z
1/2+y,1/2-x,1/2+z
1/2+x,1/2-y,-z
1/2-x,1/2+y,-z
1/2+y,1/2+x,-z
1/2-y,1/2-x,-z
1/2-x,1/2-y,1/2-z
1/2+y,1/2-x,1/2-z
1/2+x,1/2+y,1/2-z
1/2-y,1/2+x,1/2-z
1/2-x,1/2+y,z
1/2+x,1/2-y,z
1/2-y,1/2-x,z
1/2+y,1/2+x,z
loop_
_atom_site_type_symbol
_atom_site_label
_atom_site_fract_x
_atom_site_fract_y
_atom_site_fract_z
Si Si1 0.814725 0.510455 0.869744
Si Si2 0.867503 0.367503 0.556647
Si Si3 0.060173 0.560173 0.701862
Si Si4 0.285703 0.613034 0.317035
Si Si5 0.265512 0.234488 0.608422
Si Si6 0.840658 0.340658 0.756832
Si Si7 0.085934 0.914067 0.250000
Si Si8 0.656183 0.843818 0.127511
O O1 0.837395 0.562052 0.914878
O O2 0.874634 0.527568 0.828988
O O3 0.741593 0.539671 0.843885
O O4 0.822669 0.426753 0.881467
O O5 0.881192 0.381192 0.500000
O O6 0.806701 0.306701 0.565517
O O7 0.098149 0.598149 0.748236
O O8 0.000000 0.500000 0.704793
O O9 0.271803 0.674412 0.357154
O O10 0.230774 0.631849 0.271949
O O11 0.365963 0.611880 0.295939
O O12 0.206875 0.293126 0.595427
O O13 0.829357 0.329357 0.814242
O O14 0.000000 0.901704 0.250000
#
# Coordination Sequence:
#
# PCOD9572676 Si02
#       8
#    32  16  16  32  16  16  16  16
#     4   9  20  32  52  78 105 140 170 224 272 320
#     4   9  19  43  62  71  96 143 180 204 277 372
#     4   9  15  32  41  68 116 149 189 209 232 306
#     4   9  19  37  49  70 108 144 198 213 262 304
#     4   9  20  35  58  80  98 140 175 233 270 326
#     4   9  20  29  50  73 100 161 179 214 250 300
#     4  11  24  33  46  70 100 147 198 233 252 288
#     4  12  20  30  49  85 113 130 178 221 274 302
#
# _framework density 17.051338000000001
#
# number of rings (size 3 to 8) (size 9 to 14) (size 15 to 20)
#    0.000    2.500    1.000    3.600    5.600    4.000 
#    3.600    2.000    0.000    0.000    0.000    0.000 
#    0.000    0.000    0.000   16.400    0.000    0.000 
#
# Total GULP energy -446002.375543 kJ/mol
# GULP energy per Si atom -5575.029694 kJ/mol
# Density = 1.701253 g / cm^3
# Si number density = 17.051338 Si / 1000 Ang^3
#
#
#
# Elastic Constant Matrix: (Units=GPa)
#
#
# Indices 1 2 3 4 5 6 
#
# 1 63.2010 53.9781 12.2471 0.0000 0.0000 0.0000
# 2 53.9781 63.2047 12.2473 0.0000 0.0000 0.0000
# 3 12.2471 12.2473 69.2321 0.0000 0.0000 0.0000
# 4 0.0000 0.0000 0.0000 7.4664 0.0000 0.0000
# 5 0.0000 0.0000 0.0000 0.0000 7.4670 0.0000
# 6 0.0000 0.0000 0.0000 0.0000 0.0000 24.5614
#
#
#
# Elastic Compliance Matrix: (Units=1/GPa)
#
#
# Indices 1 2 3 4 5 6 
#
# 1 0.058635 -0.049771 -0.001568 0.000000 0.000000 0.000000
# 2 -0.049771 0.058631 -0.001567 0.000000 0.000000 0.000000
# 3 -0.001568 -0.001567 0.014999 0.000000 0.000000 0.000000
# 4 0.000000 0.000000 0.000000 0.133933 0.000000 0.000000
# 5 0.000000 0.000000 0.000000 0.000000 0.133923 0.000000
# 6 0.000000 0.000000 0.000000 0.000000 0.000000 0.040714
#
#
# Mechanical properties :
#
#
# Convention : Reuss Voigt Hill
#
# Bulk Modulus (GPa) = 37.80523 39.17585 38.49054
# Shear Modulus (GPa) = 9.00147 15.70999 12.35573
#
# Velocity S-wave (km/s) = 2.30011 3.03864 2.69480
# Velocity P-wave (km/s) = 5.41050 5.94443 5.68374
#
# Compressibility (1/GPa) = 0.02645136
#
# Stress axis : x y z
#
# Youngs Moduli (GPa) = 17.05478 17.05579 66.67204
#
# Poissons Ratio (x) = 0.84889 0.10453
# Poissons Ratio (y) = 0.84884 0.10450
# Poissons Ratio (z) = 0.02674 0.02673
#
# Static dielectric constant tensor:
#      x y z
#    x 1.623590 0.000000 0.000000 
#    y 0.000000 1.623580 0.000000 
#    z 0.000000 0.000000 1.547150 
# 
# From -- ./inp_files/11503.got.cif
#   From: 2010.05.17/outbox.cif.g08.bks.cpg/sg140_6_cif.got.tgz:11503.got - 2010.06.21 00:45:31.
