data_PCOD9572589
_publ_section_title
;
Structure prediction by ZEFSAII (Michael W. Deem and Ramdas Pophale) SiO2 
 PCOD9572589
Probable space group: I 4/M C M
;
_chemical_formula_sum "Si O2"
_cell_formula_units_Z 112
_cell_length_a 14.001838
_cell_length_b 14.001838
_cell_length_c 25.140266
_cell_angle_alpha 90.000000
_cell_angle_beta 90.000000
_cell_angle_gamma 90.000000
_cell_volume 4928.786040
_symmetry_space_group_name_H-M "I 4/M C M"
_symmetry_group_IT_number 140
_symmetry_cell_setting 'tetragonal'
loop_
_space_group_symop_operation_xyz
x,y,z
-y,x,z
-x,-y,z
y,-x,z
x,-y,1/2-z
-x,y,1/2-z
y,x,1/2-z
-y,-x,1/2-z
-x,-y,-z
y,-x,-z
x,y,-z
-y,x,-z
-x,y,1/2+z
x,-y,1/2+z
-y,-x,1/2+z
y,x,1/2+z
1/2+x,1/2+y,1/2+z
1/2-y,1/2+x,1/2+z
1/2-x,1/2-y,1/2+z
1/2+y,1/2-x,1/2+z
1/2+x,1/2-y,-z
1/2-x,1/2+y,-z
1/2+y,1/2+x,-z
1/2-y,1/2-x,-z
1/2-x,1/2-y,1/2-z
1/2+y,1/2-x,1/2-z
1/2+x,1/2+y,1/2-z
1/2-y,1/2+x,1/2-z
1/2-x,1/2+y,z
1/2+x,1/2-y,z
1/2-y,1/2-x,z
1/2+y,1/2+x,z
loop_
_atom_site_type_symbol
_atom_site_label
_atom_site_fract_x
_atom_site_fract_y
_atom_site_fract_z
Si Si1 0.891089 0.882057 0.500000
Si Si2 0.314965 0.585008 0.788549
Si Si3 0.003836 0.651063 0.146344
Si Si4 0.301292 0.644712 0.611484
O O1 0.846347 0.841871 0.446078
O O2 0.004559 0.870475 0.500000
O O3 0.352061 0.500000 0.750000
O O4 0.324953 0.675048 0.750000
O O5 0.211238 0.551859 0.806978
O O6 0.366040 0.617700 0.843292
O O7 0.923421 0.576580 0.165230
O O8 0.946076 0.729823 0.112427
O O9 0.086543 0.586543 0.119683
O O10 0.236397 0.736397 0.625591
#
# Coordination Sequence:
#
# PCOD9572589 Si02
#       4
#    16  32  32  32
#     4  11  25  44  70 101 139 187 240 299 354 429
#     4  12  25  44  66 101 141 187 235 290 357 429
#     4  10  23  44  68  98 138 184 236 294 358 429
#     4  11  24  46  73 104 142 186 242 299 361 430
#
# _framework density 22.723647
#
# number of rings (size 3 to 8) (size 9 to 14) (size 15 to 20)
#    0.000    1.000    2.857    3.000    0.000    4.857 
#    0.000    3.571    0.000    3.429    0.000    0.000 
#    0.000    0.000    0.000    0.000    0.000    0.000 
#
# Total GULP energy -312634.923102 kJ/mol
# GULP energy per Si atom -5582.766484 kJ/mol
# Density = 2.267193 g / cm^3
# Si number density = 22.723647 Si / 1000 Ang^3
#
#
#
# Elastic Constant Matrix: (Units=GPa)
#
#
# Indices 1 2 3 4 5 6 
#
# 1 70.6985 48.7477 29.1916 0.0000 0.0000 0.0000
# 2 48.7477 70.6955 29.1913 0.0000 0.0000 0.0000
# 3 29.1916 29.1913 145.4291 0.0000 0.0000 0.0000
# 4 0.0000 0.0000 0.0000 18.8746 0.0000 0.0000
# 5 0.0000 0.0000 0.0000 0.0000 18.8750 0.0000
# 6 0.0000 0.0000 0.0000 0.0000 0.0000 48.5424
#
#
#
# Elastic Compliance Matrix: (Units=1/GPa)
#
#
# Indices 1 2 3 4 5 6 
#
# 1 0.027421 -0.018138 -0.001863 0.000000 0.000000 0.000000
# 2 -0.018138 0.027422 -0.001863 0.000000 0.000000 0.000000
# 3 -0.001863 -0.001863 0.007624 0.000000 0.000000 0.000000
# 4 0.000000 0.000000 0.000000 0.052981 0.000000 0.000000
# 5 0.000000 0.000000 0.000000 0.000000 0.052980 0.000000
# 6 0.000000 0.000000 0.000000 0.000000 0.000000 0.020601
#
#
# Mechanical properties :
#
#
# Convention : Reuss Voigt Hill
#
# Bulk Modulus (GPa) = 53.37128 55.67602 54.52365
# Shear Modulus (GPa) = 20.92017 29.23791 25.07904
#
# Velocity S-wave (km/s) = 3.03749 3.59091 3.32573
# Velocity P-wave (km/s) = 5.98664 6.46123 6.22846
#
# Compressibility (1/GPa) = 0.01873667
#
# Stress axis : x y z
#
# Youngs Moduli (GPa) = 36.46903 36.46742 131.16072
#
# Poissons Ratio (x) = 0.66146 0.24438
# Poissons Ratio (y) = 0.66149 0.24440
# Poissons Ratio (z) = 0.06795 0.06795
#
# Static dielectric constant tensor:
#      x y z
#    x 1.894340 0.000000 0.000000 
#    y 0.000000 1.894340 0.000000 
#    z 0.000000 0.000000 1.785720 
# 
# From -- ./inp_files/10245.got.cif
#   From: 2010.05.17/outbox.cif.g08.bks.cpg/sg140_6_cif.got.tgz:10245.got - 2010.06.21 00:45:31.
