data_PCOD9572132
_publ_section_title
;
Structure prediction by ZEFSAII (Michael W. Deem and Ramdas Pophale) SiO2 
 PCOD9572132
Probable space group: I 4/M C M
;
_chemical_formula_sum "Si O2"
_cell_formula_units_Z 160
_cell_length_a 30.440193
_cell_length_b 30.440193
_cell_length_c 10.283235
_cell_angle_alpha 90.000000
_cell_angle_beta 90.000000
_cell_angle_gamma 90.000000
_cell_volume 9528.500565
_symmetry_space_group_name_H-M "I 4/M C M"
_symmetry_group_IT_number 140
_symmetry_cell_setting 'tetragonal'
loop_
_space_group_symop_operation_xyz
x,y,z
-y,x,z
-x,-y,z
y,-x,z
x,-y,1/2-z
-x,y,1/2-z
y,x,1/2-z
-y,-x,1/2-z
-x,-y,-z
y,-x,-z
x,y,-z
-y,x,-z
-x,y,1/2+z
x,-y,1/2+z
-y,-x,1/2+z
y,x,1/2+z
1/2+x,1/2+y,1/2+z
1/2-y,1/2+x,1/2+z
1/2-x,1/2-y,1/2+z
1/2+y,1/2-x,1/2+z
1/2+x,1/2-y,-z
1/2-x,1/2+y,-z
1/2+y,1/2+x,-z
1/2-y,1/2-x,-z
1/2-x,1/2-y,1/2-z
1/2+y,1/2-x,1/2-z
1/2+x,1/2+y,1/2-z
1/2-y,1/2+x,1/2-z
1/2-x,1/2+y,z
1/2+x,1/2-y,z
1/2-y,1/2-x,z
1/2+y,1/2+x,z
loop_
_atom_site_type_symbol
_atom_site_label
_atom_site_fract_x
_atom_site_fract_y
_atom_site_fract_z
Si Si1 0.363362 0.289622 0.500000
Si Si2 0.755535 0.047158 0.000000
Si Si3 0.821800 0.747035 0.246925
Si Si4 0.550791 0.809363 0.254481
Si Si5 0.448811 0.749047 0.500000
Si Si6 0.639251 0.712678 0.000000
Si Si7 0.884911 0.384911 0.652668
Si Si8 0.041050 0.458951 0.157659
O O1 0.415684 0.292830 0.500000
O O2 0.349714 0.260751 0.623667
O O3 0.332746 0.333149 0.500000
O O4 0.724132 0.052225 0.875241
O O5 0.771191 0.997246 0.000000
O O6 0.781225 0.781225 0.250000
O O7 0.801153 0.698848 0.239800
O O8 0.847146 0.758374 0.376717
O O9 0.500000 0.827876 0.250000
O O10 0.590098 0.844197 0.277770
O O11 0.556284 0.780842 0.124378
O O12 0.412833 0.710804 0.500000
O O13 0.874323 0.374323 0.500000
O O14 0.922279 0.422279 0.652606
O O15 0.056103 0.500000 0.250000
O O16 0.032113 0.467888 0.000000
#
# Coordination Sequence:
#
# PCOD9572132 Si02
#       8
#    16  16  32  32  16  16  16  16
#     4  10  19  32  54  76  94 128 173 206 240 291
#     4  10  20  38  56  72  99 137 172 201 249 302
#     4   9  17  30  46  69 102 134 161 199 248 290
#     4  10  21  39  55  73  99 132 169 206 257 309
#     4  10  22  38  54  72 105 137 164 205 255 304
#     4  10  19  34  50  74 102 128 163 206 250 291
#     4  11  21  37  56  75  94 123 169 221 254 295
#     4  10  20  35  52  76 100 121 152 201 271 336
#
# _framework density 16.791729
#
# number of rings (size 3 to 8) (size 9 to 14) (size 15 to 20)
#    0.000    2.100    1.000    3.000    0.000    2.800 
#   14.400    0.000    0.000    0.000    0.000    0.000 
#    0.000    0.400    0.000    0.000    0.000   31.200 
#
# Total GULP energy -445657.434803 kJ/mol
# GULP energy per Si atom -5570.717935 kJ/mol
# Density = 1.675351 g / cm^3
# Si number density = 16.791729 Si / 1000 Ang^3
#
#
#
# Elastic Constant Matrix: (Units=GPa)
#
#
# Indices 1 2 3 4 5 6 
#
# 1 89.8587 57.4172 27.8940 0.0000 0.0000 0.0000
# 2 57.4172 89.8587 27.8940 0.0000 0.0000 0.0000
# 3 27.8940 27.8940 143.7146 0.0000 0.0000 0.0000
# 4 0.0000 0.0000 0.0000 26.0066 0.0000 0.0000
# 5 0.0000 0.0000 0.0000 0.0000 26.0065 0.0000
# 6 0.0000 0.0000 0.0000 0.0000 0.0000 28.2640
#
#
#
# Elastic Compliance Matrix: (Units=1/GPa)
#
#
# Indices 1 2 3 4 5 6 
#
# 1 0.019077 -0.011748 -0.001422 0.000000 0.000000 0.000000
# 2 -0.011748 0.019077 -0.001422 0.000000 0.000000 0.000000
# 3 -0.001422 -0.001422 0.007510 0.000000 0.000000 0.000000
# 4 0.000000 0.000000 0.000000 0.038452 0.000000 0.000000
# 5 0.000000 0.000000 0.000000 0.000000 0.038452 0.000000
# 6 0.000000 0.000000 0.000000 0.000000 0.000000 0.035381
#
#
# Mechanical properties :
#
#
# Convention : Reuss Voigt Hill
#
# Bulk Modulus (GPa) = 60.68640 61.09359 60.88999
# Shear Modulus (GPa) = 25.95694 30.07055 28.01375
#
# Velocity S-wave (km/s) = 3.93595 4.23637 4.08892
# Velocity P-wave (km/s) = 7.54153 7.77118 7.65722
#
# Compressibility (1/GPa) = 0.01647816
#
# Stress axis : x y z
#
# Youngs Moduli (GPa) = 52.41979 52.41981 133.14837
#
# Poissons Ratio (x) = 0.61583 0.18940
# Poissons Ratio (y) = 0.61582 0.18940
# Poissons Ratio (z) = 0.07457 0.07457
#
# Static dielectric constant tensor:
#      x y z
#    x 1.549530 0.000000 0.000000 
#    y 0.000000 1.549530 0.000000 
#    z 0.000000 0.000000 1.653750 
# 
# From -- ./inp_files/1931.got.cif
#   From: 2010.05.17/outbox.cif.g08.bks.cpg/sg140_1_cif.got.tgz:1931.got - 2010.06.21 00:45:31.
