data_PCOD9572346
_publ_section_title
;
Structure prediction by ZEFSAII (Michael W. Deem and Ramdas Pophale) SiO2 
 PCOD9572346
Probable space group: I 4/M C M
;
_chemical_formula_sum "Si O2"
_cell_formula_units_Z 160
_cell_length_a 22.728188
_cell_length_b 22.728188
_cell_length_c 13.496554
_cell_angle_alpha 90.000000
_cell_angle_beta 90.000000
_cell_angle_gamma 90.000000
_cell_volume 6971.922050
_symmetry_space_group_name_H-M "I 4/M C M"
_symmetry_group_IT_number 140
_symmetry_cell_setting 'tetragonal'
loop_
_space_group_symop_operation_xyz
x,y,z
-y,x,z
-x,-y,z
y,-x,z
x,-y,1/2-z
-x,y,1/2-z
y,x,1/2-z
-y,-x,1/2-z
-x,-y,-z
y,-x,-z
x,y,-z
-y,x,-z
-x,y,1/2+z
x,-y,1/2+z
-y,-x,1/2+z
y,x,1/2+z
1/2+x,1/2+y,1/2+z
1/2-y,1/2+x,1/2+z
1/2-x,1/2-y,1/2+z
1/2+y,1/2-x,1/2+z
1/2+x,1/2-y,-z
1/2-x,1/2+y,-z
1/2+y,1/2+x,-z
1/2-y,1/2-x,-z
1/2-x,1/2-y,1/2-z
1/2+y,1/2-x,1/2-z
1/2+x,1/2+y,1/2-z
1/2-y,1/2+x,1/2-z
1/2-x,1/2+y,z
1/2+x,1/2-y,z
1/2-y,1/2-x,z
1/2+y,1/2+x,z
loop_
_atom_site_type_symbol
_atom_site_label
_atom_site_fract_x
_atom_site_fract_y
_atom_site_fract_z
Si Si1 0.703745 0.069014 0.616283
Si Si2 0.130870 0.460997 0.119202
Si Si3 0.647489 0.398014 0.620657
Si Si4 0.666240 0.471136 0.882532
Si Si5 0.634511 0.775049 0.306503
O O1 0.698262 0.084190 0.500000
O O2 0.763494 0.031221 0.629644
O O3 0.714708 0.122417 0.689985
O O4 0.649718 0.027106 0.648862
O O5 0.071046 0.428955 0.154335
O O6 0.184319 0.416398 0.144222
O O7 0.127537 0.464289 0.000000
O O8 0.651390 0.396470 0.500000
O O9 0.643428 0.466173 0.653116
O O10 0.589615 0.362533 0.651590
O O11 0.708279 0.372207 0.661321
O O12 0.654857 0.471339 0.000000
O O13 0.696403 0.803598 0.334734
#
# Coordination Sequence:
#
# PCOD9572346 Si02
#       5
#    32  32  32  32  32
#     4  10  20  37  57  82 120 164 208 252 307 367
#     4   9  17  31  56  89 119 150 195 249 302 363
#     4  10  20  37  60  91 126 161 204 251 305 367
#     4   9  19  35  58  86 121 164 202 247 302 359
#     4  11  22  35  58  89 122 163 205 251 307 365
#
# _framework density 22.949195
#
# number of rings (size 3 to 8) (size 9 to 14) (size 15 to 20)
#    0.000    2.200    2.000    1.200    0.000    2.800 
#    0.000    4.000    0.000    4.200    0.000    8.400 
#    0.000    0.000    0.000    2.200    0.000    0.000 
#
# Total GULP energy -447229.259286 kJ/mol
# GULP energy per Si atom -5590.365741 kJ/mol
# Density = 2.289696 g / cm^3
# Si number density = 22.949195 Si / 1000 Ang^3
#
#
#
# Elastic Constant Matrix: (Units=GPa)
#
#
# Indices 1 2 3 4 5 6 
#
# 1 106.8036 92.6798 32.8759 0.0000 0.0000 0.0000
# 2 92.6798 106.8036 32.8759 0.0000 0.0000 0.0000
# 3 32.8759 32.8759 83.5026 0.0000 0.0000 0.0000
# 4 0.0000 0.0000 0.0000 25.7092 0.0000 0.0000
# 5 0.0000 0.0000 0.0000 0.0000 25.7092 0.0000
# 6 0.0000 0.0000 0.0000 0.0000 0.0000 126.7630
#
#
#
# Elastic Compliance Matrix: (Units=1/GPa)
#
#
# Indices 1 2 3 4 5 6 
#
# 1 0.038281 -0.032521 -0.002268 0.000000 0.000000 0.000000
# 2 -0.032521 0.038281 -0.002268 0.000000 0.000000 0.000000
# 3 -0.002268 -0.002268 0.013762 0.000000 0.000000 0.000000
# 4 0.000000 0.000000 0.000000 0.038897 0.000000 0.000000
# 5 0.000000 0.000000 0.000000 0.000000 0.038897 0.000000
# 6 0.000000 0.000000 0.000000 0.000000 0.000000 0.007889
#
#
# Mechanical properties :
#
#
# Convention : Reuss Voigt Hill
#
# Bulk Modulus (GPa) = 61.68789 68.21921 64.95355
# Shear Modulus (GPa) = 19.56766 44.88148 32.22457
#
# Velocity S-wave (km/s) = 2.92319 4.42711 3.75129
# Velocity P-wave (km/s) = 6.19128 7.47818 6.86495
#
# Compressibility (1/GPa) = 0.01621064
#
# Stress axis : x y z
#
# Youngs Moduli (GPa) = 26.12233 26.12233 72.66639
#
# Poissons Ratio (x) = 0.84952 0.16480
# Poissons Ratio (y) = 0.84952 0.16480
# Poissons Ratio (z) = 0.05924 0.05924
#
# Static dielectric constant tensor:
#      x y z
#    x 1.834970 0.000000 0.000000 
#    y 0.000000 1.834970 0.000000 
#    z 0.000000 0.000000 1.929230 
# 
# From -- ./inp_files/4710.got.cif
#   From: 2010.05.17/outbox.cif.g08.bks.cpg/sg140_3_cif.got.tgz:4710.got - 2010.06.21 00:45:31.
