data_PCOD9572253
_publ_section_title
;
Structure prediction by ZEFSAII (Michael W. Deem and Ramdas Pophale) SiO2 
 PCOD9572253
Probable space group: I 4/M C M
;
_chemical_formula_sum "Si O2"
_cell_formula_units_Z 160
_cell_length_a 30.651896
_cell_length_b 30.651896
_cell_length_c 9.786710
_cell_angle_alpha 90.000000
_cell_angle_beta 90.000000
_cell_angle_gamma 90.000000
_cell_volume 9194.993069
_symmetry_space_group_name_H-M "I 4/M C M"
_symmetry_group_IT_number 140
_symmetry_cell_setting 'tetragonal'
loop_
_space_group_symop_operation_xyz
x,y,z
-y,x,z
-x,-y,z
y,-x,z
x,-y,1/2-z
-x,y,1/2-z
y,x,1/2-z
-y,-x,1/2-z
-x,-y,-z
y,-x,-z
x,y,-z
-y,x,-z
-x,y,1/2+z
x,-y,1/2+z
-y,-x,1/2+z
y,x,1/2+z
1/2+x,1/2+y,1/2+z
1/2-y,1/2+x,1/2+z
1/2-x,1/2-y,1/2+z
1/2+y,1/2-x,1/2+z
1/2+x,1/2-y,-z
1/2-x,1/2+y,-z
1/2+y,1/2+x,-z
1/2-y,1/2-x,-z
1/2-x,1/2-y,1/2-z
1/2+y,1/2-x,1/2-z
1/2+x,1/2+y,1/2-z
1/2-y,1/2+x,1/2-z
1/2-x,1/2+y,z
1/2+x,1/2-y,z
1/2-y,1/2-x,z
1/2+y,1/2+x,z
loop_
_atom_site_type_symbol
_atom_site_label
_atom_site_fract_x
_atom_site_fract_y
_atom_site_fract_z
Si Si1 0.311223 0.118032 0.158248
Si Si2 0.869153 0.965226 0.000000
Si Si3 0.923214 0.821210 0.247956
Si Si4 0.932368 0.115232 0.500000
Si Si5 0.666500 0.278449 0.344062
Si Si6 0.956935 0.726940 0.161021
O O1 0.356218 0.143783 0.175739
O O2 0.271533 0.152403 0.173271
O O3 0.301771 0.080773 0.267972
O O4 0.308287 0.101816 0.000000
O O5 0.840048 0.953798 0.867534
O O6 0.909681 0.931710 0.000000
O O7 0.884528 0.015073 0.000000
O O8 0.877027 0.806248 0.309820
O O9 0.943538 0.777710 0.181461
O O10 0.917651 0.857790 0.132922
O O11 0.705098 0.294903 0.250000
O O12 0.678502 0.286246 0.500000
O O13 0.000000 0.719632 0.250000
O O14 0.962330 0.718379 0.000000
#
# Coordination Sequence:
#
# PCOD9572253 Si02
#       6
#    32  16  32  16  32  32
#     4   9  20  38  55  77 114 155 186 219 268 319
#     4  12  24  39  56  72  97 127 165 219 278 348
#     4  11  23  37  55  78 103 130 167 222 281 336
#     4  12  24  39  54  74  95 127 167 215 280 344
#     4  10  20  33  53  77 104 137 178 223 266 319
#     4  11  22  36  59  87 113 141 182 229 272 321
#
# _framework density 17.400773999999998
#
# number of rings (size 3 to 8) (size 9 to 14) (size 15 to 20)
#    0.000    1.400    2.000    4.200    4.200    1.800 
#    0.000    0.000    0.000    2.400    0.000    0.000 
#    0.000    0.400    0.000    4.200    0.000    1.800 
#
# Total GULP energy -447204.677675 kJ/mol
# GULP energy per Si atom -5590.058471 kJ/mol
# Density = 1.736117 g / cm^3
# Si number density = 17.400774 Si / 1000 Ang^3
#
#
#
# Elastic Constant Matrix: (Units=GPa)
#
#
# Indices 1 2 3 4 5 6 
#
# 1 47.8862 37.3208 40.5360 0.0000 0.0000 0.0000
# 2 37.3208 47.8925 40.5355 0.0000 0.0000 0.0000
# 3 40.5360 40.5355 146.8952 0.0000 0.0000 0.0000
# 4 0.0000 0.0000 0.0000 20.7156 0.0000 0.0000
# 5 0.0000 0.0000 0.0000 0.0000 20.7154 0.0000
# 6 0.0000 0.0000 0.0000 0.0000 0.0000 17.0040
#
#
#
# Elastic Compliance Matrix: (Units=1/GPa)
#
#
# Indices 1 2 3 4 5 6 
#
# 1 0.055272 -0.039353 -0.004393 0.000000 0.000000 0.000000
# 2 -0.039353 0.055262 -0.004390 0.000000 0.000000 0.000000
# 3 -0.004393 -0.004390 0.009231 0.000000 0.000000 0.000000
# 4 0.000000 0.000000 0.000000 0.048273 0.000000 0.000000
# 5 0.000000 0.000000 0.000000 0.000000 0.048273 0.000000
# 6 0.000000 0.000000 0.000000 0.000000 0.000000 0.058810
#
#
# Mechanical properties :
#
#
# Convention : Reuss Voigt Hill
#
# Bulk Modulus (GPa) = 42.56557 53.27315 47.91936
# Shear Modulus (GPa) = 13.18478 19.97244 16.57861
#
# Velocity S-wave (km/s) = 2.75564 3.39158 3.09002
# Velocity P-wave (km/s) = 5.88555 6.78373 6.35054
#
# Compressibility (1/GPa) = 0.02349317
#
# Stress axis : x y z
#
# Youngs Moduli (GPa) = 18.09229 18.09551 108.32835
#
# Poissons Ratio (x) = 0.71212 0.47588
# Poissons Ratio (y) = 0.71199 0.47555
# Poissons Ratio (z) = 0.07948 0.07944
#
# Static dielectric constant tensor:
#      x y z
#    x 1.585820 0.000000 0.000000 
#    y 0.000000 1.585820 0.000000 
#    z 0.000000 0.000000 1.592800 
# 
# From -- ./inp_files/1804.got.cif
#   From: 2010.05.17/outbox.cif.g08.bks.cpg/sg140_1_cif.got.tgz:1804.got - 2010.06.21 00:45:31.
