data_PCOD9572654
_publ_section_title
;
Structure prediction by ZEFSAII (Michael W. Deem and Ramdas Pophale) SiO2 
 PCOD9572654
Probable space group: I 4/M C M
;
_chemical_formula_sum "Si O2"
_cell_formula_units_Z 80
_cell_length_a 16.767417
_cell_length_b 16.767417
_cell_length_c 14.250709
_cell_angle_alpha 90.000000
_cell_angle_beta 90.000000
_cell_angle_gamma 90.000000
_cell_volume 4006.533721
_symmetry_space_group_name_H-M "I 4/M C M"
_symmetry_group_IT_number 140
_symmetry_cell_setting 'tetragonal'
loop_
_space_group_symop_operation_xyz
x,y,z
-y,x,z
-x,-y,z
y,-x,z
x,-y,1/2-z
-x,y,1/2-z
y,x,1/2-z
-y,-x,1/2-z
-x,-y,-z
y,-x,-z
x,y,-z
-y,x,-z
-x,y,1/2+z
x,-y,1/2+z
-y,-x,1/2+z
y,x,1/2+z
1/2+x,1/2+y,1/2+z
1/2-y,1/2+x,1/2+z
1/2-x,1/2-y,1/2+z
1/2+y,1/2-x,1/2+z
1/2+x,1/2-y,-z
1/2-x,1/2+y,-z
1/2+y,1/2+x,-z
1/2-y,1/2-x,-z
1/2-x,1/2-y,1/2-z
1/2+y,1/2-x,1/2-z
1/2+x,1/2+y,1/2-z
1/2-y,1/2+x,1/2-z
1/2-x,1/2+y,z
1/2+x,1/2-y,z
1/2-y,1/2-x,z
1/2+y,1/2+x,z
loop_
_atom_site_type_symbol
_atom_site_label
_atom_site_fract_x
_atom_site_fract_y
_atom_site_fract_z
Si Si1 0.431718 0.068283 0.390452
Si Si2 0.697124 0.000000 0.250000
Si Si3 0.350420 0.278805 0.843777
Si Si4 0.092174 0.100234 0.500000
O O1 0.415178 0.084823 0.500000
O O2 0.356992 0.038807 0.330850
O O3 0.500000 0.000000 0.386520
O O4 0.744661 0.933714 0.193210
O O5 0.310040 0.310040 0.750000
O O6 0.292127 0.207874 0.881962
O O7 0.369218 0.351885 0.912940
O O8 0.995028 0.109036 0.500000
#
# Coordination Sequence:
#
# PCOD9572654 Si02
#       4
#    16  16  32  16
#     4  11  22  38  63  96 132 178 222 269 328 403
#     4  12  21  44  64  97 138 174 224 272 334 411
#     4  11  24  43  67  99 136 176 219 284 346 408
#     4  11  25  46  70  98 130 178 239 283 336 411
#
# _framework density 19.967385
#
# number of rings (size 3 to 8) (size 9 to 14) (size 15 to 20)
#    0.000    0.800    4.000    3.000    2.800    0.000 
#    3.600    2.000    0.000    0.000    0.000    0.000 
#    0.000    0.000    0.000    0.000    0.000    0.000 
#
# Total GULP energy -223337.809449 kJ/mol
# GULP energy per Si atom -5583.445236 kJ/mol
# Density = 1.992194 g / cm^3
# Si number density = 19.967385 Si / 1000 Ang^3
#
#
#
# Elastic Constant Matrix: (Units=GPa)
#
#
# Indices 1 2 3 4 5 6 
#
# 1 85.9374 30.0936 24.3284 0.0000 0.0000 0.0000
# 2 30.0936 85.9375 24.3284 0.0000 0.0000 0.0000
# 3 24.3284 24.3284 126.1820 0.0000 0.0000 0.0000
# 4 0.0000 0.0000 0.0000 60.4806 0.0000 0.0000
# 5 0.0000 0.0000 0.0000 0.0000 60.4848 0.0000
# 6 0.0000 0.0000 0.0000 0.0000 0.0000 52.5063
#
#
#
# Elastic Compliance Matrix: (Units=1/GPa)
#
#
# Indices 1 2 3 4 5 6 
#
# 1 0.013642 -0.004265 -0.001808 0.000000 0.000000 0.000000
# 2 -0.004265 0.013642 -0.001808 0.000000 0.000000 0.000000
# 3 -0.001808 -0.001808 0.008622 0.000000 0.000000 0.000000
# 4 0.000000 0.000000 0.000000 0.016534 0.000000 0.000000
# 5 0.000000 0.000000 0.000000 0.000000 0.016533 0.000000
# 6 0.000000 0.000000 0.000000 0.000000 0.000000 0.019045
#
#
# Mechanical properties :
#
#
# Convention : Reuss Voigt Hill
#
# Bulk Modulus (GPa) = 49.64297 50.61753 50.13025
# Shear Modulus (GPa) = 45.25095 49.31476 47.28286
#
# Velocity S-wave (km/s) = 4.76567 4.97507 4.87149
# Velocity P-wave (km/s) = 7.42955 7.64244 7.53674
#
# Compressibility (1/GPa) = 0.02014384
#
# Stress axis : x y z
#
# Youngs Moduli (GPa) = 73.30416 73.30420 115.98009
#
# Poissons Ratio (x) = 0.31266 0.20967
# Poissons Ratio (y) = 0.31266 0.20967
# Poissons Ratio (z) = 0.13252 0.13252
#
# Static dielectric constant tensor:
#      x y z
#    x 1.667340 0.000000 0.000000 
#    y 0.000000 1.667340 0.000000 
#    z 0.000000 0.000000 -0.740210 
# 
# From -- ./inp_files/3909.got.cif
#   From: 2010.05.17/outbox.cif.g08.bks.cpg/sg140_2_cif.got.tgz:3909.got - 2010.06.21 00:45:31.
