data_PCOD9572845
_publ_section_title
;
Structure prediction by ZEFSAII (Michael W. Deem and Ramdas Pophale) SiO2 
 PCOD9572845
Probable space group: I 41/A M D
;
_chemical_formula_sum "Si O2"
_cell_formula_units_Z 176
_cell_length_a 28.238641
_cell_length_b 28.238641
_cell_length_c 12.595085
_cell_angle_alpha 90.000000
_cell_angle_beta 90.000000
_cell_angle_gamma 90.000000
_cell_volume 10043.583330
_symmetry_space_group_name_H-M "I 41/A M D"
_symmetry_group_IT_number 141
_space_group.IT_coordinate_system_code '2'
_symmetry_cell_setting 'tetragonal'
loop_
_space_group_symop_operation_xyz
x,y,z
1/4-y,3/4+x,1/4+z
-x,1/2-y,z
1/4+y,1/4-x,3/4+z
x,-y,-z
-x,1/2+y,-z
1/4+y,3/4+x,1/4-z
1/4-y,1/4-x,3/4-z
-x,-y,-z
3/4+y,1/4-x,3/4-z
x,1/2+y,-z
3/4-y,3/4+x,1/4-z
-x,y,z
x,1/2-y,z
3/4-y,1/4-x,3/4+z
3/4+y,3/4+x,1/4+z
1/2+x,1/2+y,1/2+z
3/4-y,1/4+x,3/4+z
1/2-x,-y,1/2+z
3/4+y,3/4-x,1/4+z
1/2+x,1/2-y,1/2-z
1/2-x,y,1/2-z
3/4+y,1/4+x,3/4-z
3/4-y,3/4-x,1/4-z
1/2-x,1/2-y,1/2-z
1/4+y,3/4-x,1/4-z
1/2+x,y,1/2-z
1/4-y,1/4+x,3/4-z
1/2-x,1/2+y,1/2+z
1/2+x,-y,1/2+z
1/4-y,3/4-x,1/4+z
1/4+y,1/4+x,3/4+z
loop_
_atom_site_type_symbol
_atom_site_label
_atom_site_fract_x
_atom_site_fract_y
_atom_site_fract_z
Si Si1 0.056581 0.868677 0.694149
Si Si2 0.398656 0.861439 0.574543
Si Si3 0.689048 0.303728 0.477728
Si Si4 0.719521 0.193848 0.149038
Si Si5 0.056134 0.806134 0.125000
Si Si6 0.694496 0.803348 0.270847
O O1 0.075365 0.825365 0.625000
O O2 0.077296 0.860460 0.811168
O O3 0.073797 0.917880 0.637388
O O4 0.000000 0.870895 0.700280
O O5 0.345825 0.840870 0.576688
O O6 0.424351 0.830890 0.481607
O O7 0.406073 0.915005 0.535917
O O8 0.676455 0.250000 0.442968
O O9 0.743623 0.310982 0.447576
O O10 0.684107 0.306063 0.604102
O O11 0.712647 0.250000 0.170857
O O12 0.750000 0.174975 0.250000
O O13 0.064770 0.750000 0.117626
O O14 0.679846 0.750000 0.234150
O O15 0.750000 0.807266 0.250000
#
# Coordination Sequence:
#
# PCOD9572845 Si02
#       6
#    32  32  32  32  16  32
#     4  11  24  39  56  80 112 149 189 235 283 338
#     4  12  21  35  54  79 112 145 186 233 279 339
#     4  10  19  32  53  79 107 141 183 230 281 335
#     4   9  18  35  56  78 103 137 184 235 286 335
#     4  11  22  34  50  74 110 156 194 224 266 330
#     4  10  19  32  51  76 106 141 183 234 286 330
#
# _framework density 17.523627000000001
#
# number of rings (size 3 to 8) (size 9 to 14) (size 15 to 20)
#    0.000    1.545    1.818    4.364    0.000    6.000 
#    0.000    0.000    0.000    0.000    0.000    6.364 
#    0.000    0.000    0.000    0.000    0.000    0.000 
#
# Total GULP energy -490892.038745 kJ/mol
# GULP energy per Si atom -5578.318622 kJ/mol
# Density = 1.748374 g / cm^3
# Si number density = 17.523627 Si / 1000 Ang^3
#
#
#
# Elastic Constant Matrix: (Units=GPa)
#
#
# Indices 1 2 3 4 5 6 
#
# 1 54.4207 23.7882 11.7079 0.0000 0.0000 0.0000
# 2 23.7882 54.4207 11.7079 0.0000 0.0000 0.0000
# 3 11.7079 11.7079 84.3077 0.0000 0.0000 0.0000
# 4 0.0000 0.0000 0.0000 23.4638 0.0000 0.0000
# 5 0.0000 0.0000 0.0000 0.0000 23.4638 0.0000
# 6 0.0000 0.0000 0.0000 0.0000 0.0000 15.3542
#
#
#
# Elastic Compliance Matrix: (Units=1/GPa)
#
#
# Indices 1 2 3 4 5 6 
#
# 1 0.022993 -0.009652 -0.001853 0.000000 0.000000 0.000000
# 2 -0.009652 0.022993 -0.001853 0.000000 0.000000 0.000000
# 3 -0.001853 -0.001853 0.012376 0.000000 0.000000 0.000000
# 4 0.000000 0.000000 0.000000 0.042619 0.000000 0.000000
# 5 0.000000 0.000000 0.000000 0.000000 0.042619 0.000000
# 6 0.000000 0.000000 0.000000 0.000000 0.000000 0.065129
#
#
# Mechanical properties :
#
#
# Convention : Reuss Voigt Hill
#
# Bulk Modulus (GPa) = 31.59844 31.95076 31.77460
# Shear Modulus (GPa) = 20.32587 22.18606 21.25596
#
# Velocity S-wave (km/s) = 3.40944 3.56204 3.48658
# Velocity P-wave (km/s) = 5.79397 5.93212 5.86345
#
# Compressibility (1/GPa) = 0.03164713
#
# Stress axis : x y z
#
# Youngs Moduli (GPa) = 43.49154 43.49154 80.80237
#
# Poissons Ratio (x) = 0.41978 0.14970
# Poissons Ratio (y) = 0.41978 0.14970
# Poissons Ratio (z) = 0.08058 0.08058
#
# Static dielectric constant tensor:
#      x y z
#    x 1.601260 0.000000 0.000000 
#    y 0.000000 1.601260 0.000000 
#    z 0.000000 0.000000 1.636470 
# 
# From -- ./inp_files/5053.got.cif
#   From: 2010.05.17/outbox.cif.g08.bks.cpg/sg141_3_cif.got.tgz:5053.got - 2010.05.20 13:30:51.
