data_PCOD9572026
_publ_section_title
;
Structure prediction by ZEFSAII (Michael W. Deem and Ramdas Pophale) SiO2 
 PCOD9572026
Probable space group: I 4/M C M
;
_chemical_formula_sum "Si O2"
_cell_formula_units_Z 96
_cell_length_a 24.581560
_cell_length_b 24.581560
_cell_length_c 8.592997
_cell_angle_alpha 90.000000
_cell_angle_beta 90.000000
_cell_angle_gamma 90.000000
_cell_volume 5192.345007
_symmetry_space_group_name_H-M "I 4/M C M"
_symmetry_group_IT_number 140
_symmetry_cell_setting 'tetragonal'
loop_
_space_group_symop_operation_xyz
x,y,z
-y,x,z
-x,-y,z
y,-x,z
x,-y,1/2-z
-x,y,1/2-z
y,x,1/2-z
-y,-x,1/2-z
-x,-y,-z
y,-x,-z
x,y,-z
-y,x,-z
-x,y,1/2+z
x,-y,1/2+z
-y,-x,1/2+z
y,x,1/2+z
1/2+x,1/2+y,1/2+z
1/2-y,1/2+x,1/2+z
1/2-x,1/2-y,1/2+z
1/2+y,1/2-x,1/2+z
1/2+x,1/2-y,-z
1/2-x,1/2+y,-z
1/2+y,1/2+x,-z
1/2-y,1/2-x,-z
1/2-x,1/2-y,1/2-z
1/2+y,1/2-x,1/2-z
1/2+x,1/2+y,1/2-z
1/2-y,1/2+x,1/2-z
1/2-x,1/2+y,z
1/2+x,1/2-y,z
1/2-y,1/2-x,z
1/2+y,1/2+x,z
loop_
_atom_site_type_symbol
_atom_site_label
_atom_site_fract_x
_atom_site_fract_y
_atom_site_fract_z
Si Si1 0.943905 0.556096 0.324034
Si Si2 0.147257 0.647257 0.820299
Si Si3 0.058629 0.855379 0.312965
Si Si4 0.232675 0.440222 0.311376
O O1 0.925167 0.500000 0.250000
O O2 0.956408 0.543593 0.500000
O O3 0.898786 0.601215 0.318412
O O4 0.198449 0.612863 0.755501
O O5 0.161303 0.661303 0.000000
O O6 0.105417 0.894584 0.250000
O O7 0.058270 0.853688 0.500000
O O8 0.065777 0.794530 0.245713
O O9 0.000000 0.874721 0.250000
O O10 0.213698 0.500000 0.250000
O O11 0.229681 0.441793 0.500000
#
# Coordination Sequence:
#
# PCOD9572026 Si02
#       4
#    16  16  32  32
#     4  10  18  29  42  63  93 129 170 222 278 328
#     4   9  19  32  50  73 102 139 185 230 273 321
#     4  11  22  39  61  88 116 146 178 217 265 322
#     4  10  19  35  55  79 109 146 186 231 279 328
#
# _framework density 18.488757
#
# number of rings (size 3 to 8) (size 9 to 14) (size 15 to 20)
#    0.000    1.833    0.000    8.000    0.000    0.333 
#    0.000   10.833    0.000    0.000    0.000    0.000 
#    0.000    0.000    0.000    0.000    0.000    0.000 
#
# Total GULP energy -267584.063859 kJ/mol
# GULP energy per Si atom -5574.667997 kJ/mol
# Density = 1.844668 g / cm^3
# Si number density = 18.488757 Si / 1000 Ang^3
#
#
#
# Elastic Constant Matrix: (Units=GPa)
#
#
# Indices 1 2 3 4 5 6 
#
# 1 95.3238 60.4227 24.9729 0.0000 0.0000 0.0000
# 2 60.4227 95.3398 24.9738 0.0000 0.0000 0.0000
# 3 24.9729 24.9738 105.0827 0.0000 0.0000 0.0000
# 4 0.0000 0.0000 0.0000 43.3588 0.0000 0.0000
# 5 0.0000 0.0000 0.0000 0.0000 43.3603 0.0000
# 6 0.0000 0.0000 0.0000 0.0000 0.0000 44.7572
#
#
#
# Elastic Compliance Matrix: (Units=1/GPa)
#
#
# Indices 1 2 3 4 5 6 
#
# 1 0.017799 -0.010848 -0.001652 0.000000 0.000000 0.000000
# 2 -0.010848 0.017796 -0.001651 0.000000 0.000000 0.000000
# 3 -0.001652 -0.001651 0.010301 0.000000 0.000000 0.000000
# 4 0.000000 0.000000 0.000000 0.023063 0.000000 0.000000
# 5 0.000000 0.000000 0.000000 0.000000 0.023063 0.000000
# 6 0.000000 0.000000 0.000000 0.000000 0.000000 0.022343
#
#
# Mechanical properties :
#
#
# Convention : Reuss Voigt Hill
#
# Bulk Modulus (GPa) = 56.83557 57.38724 57.11140
# Shear Modulus (GPa) = 33.66244 38.65371 36.15808
#
# Velocity S-wave (km/s) = 4.27159 4.57733 4.42710
# Velocity P-wave (km/s) = 7.42536 7.68390 7.55574
#
# Compressibility (1/GPa) = 0.01759462
#
# Stress axis : x y z
#
# Youngs Moduli (GPa) = 56.18140 56.19117 97.07433
#
# Poissons Ratio (x) = 0.60956 0.16036
# Poissons Ratio (y) = 0.60945 0.16031
# Poissons Ratio (z) = 0.09281 0.09280
#
# Static dielectric constant tensor:
#      x y z
#    x 1.639450 0.000000 0.000000 
#    y 0.000000 1.639450 0.000000 
#    z 0.000000 0.000000 1.645160 
# 
# From -- ./inp_files/942.got.cif
#   From: 2010.05.17/outbox.cif.g08.bks.cpg/sg140_1_cif.got.tgz:942.got - 2010.06.21 00:45:31.
