data_PCOD9572055
_publ_section_title
;
Structure prediction by ZEFSAII (Michael W. Deem and Ramdas Pophale) SiO2 
 PCOD9572055
Probable space group: I 4/M C M
;
_chemical_formula_sum "Si O2"
_cell_formula_units_Z 160
_cell_length_a 30.872359
_cell_length_b 30.872359
_cell_length_c 10.322244
_cell_angle_alpha 90.000000
_cell_angle_beta 90.000000
_cell_angle_gamma 90.000000
_cell_volume 9838.157080
_symmetry_space_group_name_H-M "I 4/M C M"
_symmetry_group_IT_number 140
_symmetry_cell_setting 'tetragonal'
loop_
_space_group_symop_operation_xyz
x,y,z
-y,x,z
-x,-y,z
y,-x,z
x,-y,1/2-z
-x,y,1/2-z
y,x,1/2-z
-y,-x,1/2-z
-x,-y,-z
y,-x,-z
x,y,-z
-y,x,-z
-x,y,1/2+z
x,-y,1/2+z
-y,-x,1/2+z
y,x,1/2+z
1/2+x,1/2+y,1/2+z
1/2-y,1/2+x,1/2+z
1/2-x,1/2-y,1/2+z
1/2+y,1/2-x,1/2+z
1/2+x,1/2-y,-z
1/2-x,1/2+y,-z
1/2+y,1/2+x,-z
1/2-y,1/2-x,-z
1/2-x,1/2-y,1/2-z
1/2+y,1/2-x,1/2-z
1/2+x,1/2+y,1/2-z
1/2-y,1/2+x,1/2-z
1/2-x,1/2+y,z
1/2+x,1/2-y,z
1/2-y,1/2-x,z
1/2+y,1/2+x,z
loop_
_atom_site_type_symbol
_atom_site_label
_atom_site_fract_x
_atom_site_fract_y
_atom_site_fract_z
Si Si1 0.750355 0.547921 0.000000
Si Si2 0.163185 0.265407 0.739449
Si Si3 0.265704 0.452812 0.500000
Si Si4 0.931441 0.297761 0.236919
Si Si5 0.108690 0.464105 0.648632
Si Si6 0.284561 0.643862 0.500000
Si Si7 0.796352 0.860599 0.000000
O O1 0.722915 0.503565 0.000000
O O2 0.780661 0.550084 0.873008
O O3 0.722420 0.592086 0.000000
O O4 0.205852 0.294149 0.721231
O O5 0.120762 0.296254 0.743989
O O6 0.154443 0.231828 0.623782
O O7 0.162873 0.239285 0.873700
O O8 0.236058 0.444901 0.625939
O O9 0.299448 0.412879 0.500000
O O10 0.948555 0.344356 0.196631
O O11 0.093290 0.500000 0.750000
O O12 0.111755 0.480186 0.500000
O O13 0.076038 0.423963 0.649866
O O14 0.333989 0.659341 0.500000
#
# Coordination Sequence:
#
# PCOD9572055 Si02
#       7
#    16  32  16  32  32  16  16
#     4  10  20  33  53  74 101 128 159 201 247 293
#     4  10  20  33  49  70  98 132 166 197 234 284
#     4  10  18  33  53  74  97 124 163 201 243 291
#     4  10  20  34  53  77  98 122 158 205 250 290
#     4  11  24  40  57  75  97 124 157 202 255 311
#     4  10  21  34  46  69 101 132 163 201 239 279
#     4  10  21  32  48  71  97 130 167 203 235 279
#
# _framework density 16.263207999999999
#
# number of rings (size 3 to 8) (size 9 to 14) (size 15 to 20)
#    0.000    1.800    1.000    3.600    1.400    3.000 
#    0.000    2.000    0.000    0.000    0.000    0.000 
#    0.000    0.400    0.000    0.000    0.000   31.200 
#
# Total GULP energy -446594.500422 kJ/mol
# GULP energy per Si atom -5582.431255 kJ/mol
# Density = 1.622619 g / cm^3
# Si number density = 16.263208 Si / 1000 Ang^3
#
#
#
# Elastic Constant Matrix: (Units=GPa)
#
#
# Indices 1 2 3 4 5 6 
#
# 1 65.3062 45.3586 24.1824 0.0000 0.0000 0.0000
# 2 45.3586 65.3062 24.1824 0.0000 0.0000 0.0000
# 3 24.1824 24.1824 136.8025 0.0000 0.0000 0.0000
# 4 0.0000 0.0000 0.0000 35.4279 0.0000 0.0000
# 5 0.0000 0.0000 0.0000 0.0000 35.4279 0.0000
# 6 0.0000 0.0000 0.0000 0.0000 0.0000 13.0409
#
#
#
# Elastic Compliance Matrix: (Units=1/GPa)
#
#
# Indices 1 2 3 4 5 6 
#
# 1 0.029962 -0.020169 -0.001731 0.000000 0.000000 0.000000
# 2 -0.020169 0.029962 -0.001731 0.000000 0.000000 0.000000
# 3 -0.001731 -0.001731 0.007922 0.000000 0.000000 0.000000
# 4 0.000000 0.000000 0.000000 0.028226 0.000000 0.000000
# 5 0.000000 0.000000 0.000000 0.000000 0.028226 0.000000
# 6 0.000000 0.000000 0.000000 0.000000 0.000000 0.076682
#
#
# Mechanical properties :
#
#
# Convention : Reuss Voigt Hill
#
# Bulk Modulus (GPa) = 48.58327 50.54018 49.56172
# Shear Modulus (GPa) = 19.59978 28.35875 23.97927
#
# Velocity S-wave (km/s) = 3.47531 4.18034 3.84402
# Velocity P-wave (km/s) = 6.78540 7.37863 7.08822
#
# Compressibility (1/GPa) = 0.02058322
#
# Stress axis : x y z
#
# Youngs Moduli (GPa) = 33.37539 33.37539 126.23383
#
# Poissons Ratio (x) = 0.67316 0.21852
# Poissons Ratio (y) = 0.67316 0.21852
# Poissons Ratio (z) = 0.05778 0.05778
#
# Static dielectric constant tensor:
#      x y z
#    x 1.547570 0.000000 0.000000 
#    y 0.000000 1.547570 0.000000 
#    z 0.000000 0.000000 1.552530 
# 
# From -- ./inp_files/1906.got.cif
#   From: 2010.05.17/outbox.cif.g08.bks.cpg/sg140_1_cif.got.tgz:1906.got - 2010.06.21 00:45:31.
