data_PCOD9572660
_publ_section_title
;
Structure prediction by ZEFSAII (Michael W. Deem and Ramdas Pophale) SiO2 
 PCOD9572660
Probable space group: I 4/M C M
;
_chemical_formula_sum "Si O2"
_cell_formula_units_Z 176
_cell_length_a 19.032583
_cell_length_b 19.032583
_cell_length_c 25.726402
_cell_angle_alpha 90.000000
_cell_angle_beta 90.000000
_cell_angle_gamma 90.000000
_cell_volume 9319.111682
_symmetry_space_group_name_H-M "I 4/M C M"
_symmetry_group_IT_number 140
_symmetry_cell_setting 'tetragonal'
loop_
_space_group_symop_operation_xyz
x,y,z
-y,x,z
-x,-y,z
y,-x,z
x,-y,1/2-z
-x,y,1/2-z
y,x,1/2-z
-y,-x,1/2-z
-x,-y,-z
y,-x,-z
x,y,-z
-y,x,-z
-x,y,1/2+z
x,-y,1/2+z
-y,-x,1/2+z
y,x,1/2+z
1/2+x,1/2+y,1/2+z
1/2-y,1/2+x,1/2+z
1/2-x,1/2-y,1/2+z
1/2+y,1/2-x,1/2+z
1/2+x,1/2-y,-z
1/2-x,1/2+y,-z
1/2+y,1/2+x,-z
1/2-y,1/2-x,-z
1/2-x,1/2-y,1/2-z
1/2+y,1/2-x,1/2-z
1/2+x,1/2+y,1/2-z
1/2-y,1/2+x,1/2-z
1/2-x,1/2+y,z
1/2+x,1/2-y,z
1/2-y,1/2-x,z
1/2+y,1/2+x,z
loop_
_atom_site_type_symbol
_atom_site_label
_atom_site_fract_x
_atom_site_fract_y
_atom_site_fract_z
Si Si1 0.568113 0.404418 0.942810
Si Si2 0.709911 0.044466 0.649386
Si Si3 0.384342 0.000000 0.750000
Si Si4 0.396203 0.723586 0.119590
Si Si5 0.826943 0.787837 0.697395
Si Si6 0.227637 0.272364 0.940583
Si Si7 0.154877 0.654877 0.065483
O O1 0.593809 0.483936 0.940292
O O2 0.594408 0.356785 0.897049
O O3 0.588840 0.376785 0.000000
O O4 0.767058 0.099745 0.671527
O O5 0.677890 0.084522 0.598105
O O6 0.659575 0.026065 0.699152
O O7 0.742536 0.970249 0.632407
O O8 0.435190 0.064811 0.734470
O O9 0.338262 0.722870 0.164155
O O10 0.352690 0.758338 0.073578
O O11 0.831735 0.831735 0.750000
O O12 0.785352 0.714649 0.706973
O O13 0.285424 0.214577 0.919766
O O14 0.238104 0.261897 0.000000
O O15 0.149147 0.649147 0.000000
#
# Coordination Sequence:
#
# PCOD9572660 Si02
#       7
#    32  32  16  32  32  16  16
#     4   9  19  35  55  82 118 158 203 253 307 376
#     4  12  23  42  68  99 133 175 230 269 350 404
#     4  11  24  42  70  96 126 169 224 292 320 395
#     4  12  22  36  62  92 125 165 210 271 318 395
#     4  11  22  41  64  92 127 164 214 278 336 394
#     4  11  24  42  62  93 132 172 224 279 329 387
#     4  11  24  46  69  93 138 182 223 281 342 413
#
# _framework density 18.885919999999999
#
# number of rings (size 3 to 8) (size 9 to 14) (size 15 to 20)
#    0.000    1.000    4.545    3.273    1.273    2.909 
#    0.000    0.000    0.000    0.545    0.000    1.273 
#    0.000    0.000    0.000    0.000    0.000    0.000 
#
# Total GULP energy -489934.085991 kJ/mol
# GULP energy per Si atom -5567.432795 kJ/mol
# Density = 1.884293 g / cm^3
# Si number density = 18.885920 Si / 1000 Ang^3
#
#
#
# Elastic Constant Matrix: (Units=GPa)
#
#
# Indices 1 2 3 4 5 6 
#
# 1 104.7126 20.7207 32.6098 0.0000 0.0000 0.0000
# 2 20.7207 104.7127 32.6101 0.0000 0.0000 0.0000
# 3 32.6098 32.6101 92.3726 0.0000 0.0000 0.0000
# 4 0.0000 0.0000 0.0000 31.4277 0.0000 0.0000
# 5 0.0000 0.0000 0.0000 0.0000 31.4273 0.0000
# 6 0.0000 0.0000 0.0000 0.0000 0.0000 45.4913
#
#
#
# Elastic Compliance Matrix: (Units=1/GPa)
#
#
# Indices 1 2 3 4 5 6 
#
# 1 0.010835 -0.001071 -0.003447 0.000000 0.000000 0.000000
# 2 -0.001071 0.010835 -0.003447 0.000000 0.000000 0.000000
# 3 -0.003447 -0.003447 0.013260 0.000000 0.000000 0.000000
# 4 0.000000 0.000000 0.000000 0.031819 0.000000 0.000000
# 5 0.000000 0.000000 0.000000 0.000000 0.031819 0.000000
# 6 0.000000 0.000000 0.000000 0.000000 0.000000 0.021982
#
#
# Mechanical properties :
#
#
# Convention : Reuss Voigt Hill
#
# Bulk Modulus (GPa) = 52.63079 52.63104 52.63091
# Shear Modulus (GPa) = 35.01044 36.05973 35.53509
#
# Velocity S-wave (km/s) = 4.31023 4.37435 4.34241
# Velocity P-wave (km/s) = 7.25941 7.31037 7.28494
#
# Compressibility (1/GPa) = 0.01900029
#
# Stress axis : x y z
#
# Youngs Moduli (GPa) = 92.29068 92.29057 75.41681
#
# Poissons Ratio (x) = 0.09880 0.25998
# Poissons Ratio (y) = 0.09880 0.25998
# Poissons Ratio (z) = 0.31814 0.31815
#
# Static dielectric constant tensor:
#      x y z
#    x 1.618750 0.000000 0.000000 
#    y 0.000000 1.618750 0.000000 
#    z 0.000000 0.000000 1.798120 
# 
# From -- ./inp_files/10764.got.cif
#   From: 2010.05.17/outbox.cif.g08.bks.cpg/sg140_6_cif.got.tgz:10764.got - 2010.06.21 00:45:31.
