data_PCOD9572315
_publ_section_title
;
Structure prediction by ZEFSAII (Michael W. Deem and Ramdas Pophale) SiO2 
 PCOD9572315
Probable space group: I 4/M C M
;
_chemical_formula_sum "Si O2"
_cell_formula_units_Z 240
_cell_length_a 19.446509
_cell_length_b 19.446509
_cell_length_c 28.561259
_cell_angle_alpha 90.000000
_cell_angle_beta 90.000000
_cell_angle_gamma 90.000000
_cell_volume 10800.917415
_symmetry_space_group_name_H-M "I 4/M C M"
_symmetry_group_IT_number 140
_symmetry_cell_setting 'tetragonal'
loop_
_space_group_symop_operation_xyz
x,y,z
-y,x,z
-x,-y,z
y,-x,z
x,-y,1/2-z
-x,y,1/2-z
y,x,1/2-z
-y,-x,1/2-z
-x,-y,-z
y,-x,-z
x,y,-z
-y,x,-z
-x,y,1/2+z
x,-y,1/2+z
-y,-x,1/2+z
y,x,1/2+z
1/2+x,1/2+y,1/2+z
1/2-y,1/2+x,1/2+z
1/2-x,1/2-y,1/2+z
1/2+y,1/2-x,1/2+z
1/2+x,1/2-y,-z
1/2-x,1/2+y,-z
1/2+y,1/2+x,-z
1/2-y,1/2-x,-z
1/2-x,1/2-y,1/2-z
1/2+y,1/2-x,1/2-z
1/2+x,1/2+y,1/2-z
1/2-y,1/2+x,1/2-z
1/2-x,1/2+y,z
1/2+x,1/2-y,z
1/2-y,1/2-x,z
1/2+y,1/2+x,z
loop_
_atom_site_type_symbol
_atom_site_label
_atom_site_fract_x
_atom_site_fract_y
_atom_site_fract_z
Si Si1 0.888954 0.760075 0.054370
Si Si2 0.453263 0.401171 0.147468
Si Si3 0.964897 0.351518 0.616993
Si Si4 0.336962 0.049773 0.208624
Si Si5 0.841607 0.026897 0.552748
Si Si6 0.185347 0.923087 0.728379
Si Si7 0.754854 0.848055 0.943554
Si Si8 0.941107 0.441107 0.052897
O O1 0.916060 0.701835 0.089314
O O2 0.818430 0.797353 0.068726
O O3 0.949029 0.816834 0.054286
O O4 0.882570 0.735614 0.000000
O O5 0.531862 0.412158 0.162335
O O6 0.455322 0.395834 0.091988
O O7 0.424912 0.336091 0.173936
O O8 0.916602 0.416602 0.630531
O O9 0.002524 0.322664 0.663016
O O10 0.022475 0.380126 0.581158
O O11 0.393826 0.106175 0.196555
O O12 0.267364 0.084747 0.228720
O O13 0.362667 0.000000 0.250000
O O14 0.863397 0.044414 0.500000
O O15 0.776474 0.074590 0.566615
O O16 0.136352 0.863648 0.750000
O O17 0.171838 0.000000 0.750000
O O18 0.685102 0.814899 0.924478
O O19 0.751577 0.846293 0.000000
O O20 0.000000 0.500000 0.049282
O O21 0.920800 0.420800 0.000000
#
# Coordination Sequence:
#
# PCOD9572315 Si02
#       8
#    32  32  32  32  32  32  32  16
#     4  10  20  35  57  87 122 165 219 277 331 390
#     4  11  22  36  62  95 125 164 212 262 324 398
#     4  11  21  37  62  90 125 168 218 276 334 395
#     4  11  25  44  68  97 131 175 219 266 330 400
#     4  10  21  37  55  83 129 174 214 264 321 388
#     4  11  23  44  73 101 130 163 210 275 335 395
#     4   9  18  35  57  79 112 165 219 262 314 380
#     4   9  18  32  54  88 127 164 212 276 341 390
#
# _framework density 22.220336
#
# number of rings (size 3 to 8) (size 9 to 14) (size 15 to 20)
#    0.000    1.667    2.000    2.800    0.000    4.000 
#    1.200    1.333    0.000    0.000    0.000    0.000 
#    0.000    0.000    0.000    0.000    0.000    0.000 
#
# Total GULP energy -670375.192169 kJ/mol
# GULP energy per Si atom -5586.459935 kJ/mol
# Density = 2.216976 g / cm^3
# Si number density = 22.220336 Si / 1000 Ang^3
#
#
#
# Elastic Constant Matrix: (Units=GPa)
#
#
# Indices 1 2 3 4 5 6 
#
# 1 73.3962 15.4234 8.3028 0.0000 0.0000 0.0000
# 2 15.4234 73.3962 8.3028 0.0000 0.0000 0.0000
# 3 8.3028 8.3028 95.5537 0.0000 0.0000 0.0000
# 4 0.0000 0.0000 0.0000 20.9483 0.0000 0.0000
# 5 0.0000 0.0000 0.0000 0.0000 20.9483 0.0000
# 6 0.0000 0.0000 0.0000 0.0000 0.0000 31.4639
#
#
#
# Elastic Compliance Matrix: (Units=1/GPa)
#
#
# Indices 1 2 3 4 5 6 
#
# 1 0.014347 -0.002902 -0.000994 0.000000 0.000000 0.000000
# 2 -0.002902 0.014347 -0.000994 0.000000 0.000000 0.000000
# 3 -0.000994 -0.000994 0.010638 0.000000 0.000000 0.000000
# 4 0.000000 0.000000 0.000000 0.047737 0.000000 0.000000
# 5 0.000000 0.000000 0.000000 0.000000 0.047737 0.000000
# 6 0.000000 0.000000 0.000000 0.000000 0.000000 0.031782
#
#
# Mechanical properties :
#
#
# Convention : Reuss Voigt Hill
#
# Bulk Modulus (GPa) = 33.84125 34.04491 33.94308
# Shear Modulus (GPa) = 26.84992 28.69325 27.77159
#
# Velocity S-wave (km/s) = 3.47990 3.59737 3.53913
# Velocity P-wave (km/s) = 5.60439 5.71048 5.65768
#
# Compressibility (1/GPa) = 0.02954973
#
# Stress axis : x y z
#
# Youngs Moduli (GPa) = 69.70062 69.70062 94.00142
#
# Poissons Ratio (x) = 0.20230 0.09348
# Poissons Ratio (y) = 0.20230 0.09348
# Poissons Ratio (z) = 0.06931 0.06931
#
# Static dielectric constant tensor:
#      x y z
#    x 1.831330 0.000000 0.000000 
#    y 0.000000 1.831330 0.000000 
#    z 0.000000 0.000000 1.803130 
# 
# From -- ./inp_files/10965.got.cif
#   From: 2010.05.17/outbox.cif.g08.bks.cpg/sg140_6_cif.got.tgz:10965.got - 2010.06.21 00:45:31.
