data_PCOD9572820
_publ_section_title
;
Structure prediction by ZEFSAII (Michael W. Deem and Ramdas Pophale) SiO2 
 PCOD9572820
Probable space group: I 41/A M D
;
_chemical_formula_sum "Si O2"
_cell_formula_units_Z 160
_cell_length_a 23.837237
_cell_length_b 23.837237
_cell_length_c 14.786062
_cell_angle_alpha 90.000000
_cell_angle_beta 90.000000
_cell_angle_gamma 90.000000
_cell_volume 8401.645478
_symmetry_space_group_name_H-M "I 41/A M D"
_symmetry_group_IT_number 141
_space_group.IT_coordinate_system_code '2'
_symmetry_cell_setting 'tetragonal'
loop_
_space_group_symop_operation_xyz
x,y,z
1/4-y,3/4+x,1/4+z
-x,1/2-y,z
1/4+y,1/4-x,3/4+z
x,-y,-z
-x,1/2+y,-z
1/4+y,3/4+x,1/4-z
1/4-y,1/4-x,3/4-z
-x,-y,-z
3/4+y,1/4-x,3/4-z
x,1/2+y,-z
3/4-y,3/4+x,1/4-z
-x,y,z
x,1/2-y,z
3/4-y,1/4-x,3/4+z
3/4+y,3/4+x,1/4+z
1/2+x,1/2+y,1/2+z
3/4-y,1/4+x,3/4+z
1/2-x,-y,1/2+z
3/4+y,3/4-x,1/4+z
1/2+x,1/2-y,1/2-z
1/2-x,y,1/2-z
3/4+y,1/4+x,3/4-z
3/4-y,3/4-x,1/4-z
1/2-x,1/2-y,1/2-z
1/4+y,3/4-x,1/4-z
1/2+x,y,1/2-z
1/4-y,1/4+x,3/4-z
1/2-x,1/2+y,1/2+z
1/2+x,-y,1/2+z
1/4-y,3/4-x,1/4+z
1/4+y,1/4+x,3/4+z
loop_
_atom_site_type_symbol
_atom_site_label
_atom_site_fract_x
_atom_site_fract_y
_atom_site_fract_z
Si Si1 0.064482 0.630943 0.430877
Si Si2 0.833454 0.501558 0.178572
Si Si3 0.276618 0.111516 0.365564
Si Si4 0.937990 0.072285 0.391496
Si Si5 0.937420 0.572620 0.826971
O O1 0.088048 0.570930 0.397553
O O2 0.065582 0.625021 0.540946
O O3 0.113380 0.672101 0.396736
O O4 0.000000 0.641848 0.404552
O O5 0.800005 0.550005 0.125000
O O6 0.795283 0.445958 0.180273
O O7 0.846416 0.523011 0.278594
O O8 0.891791 0.473653 0.142619
O O9 0.217300 0.136101 0.335297
O O10 0.935785 0.076224 0.283142
O O11 0.000000 0.047789 0.412134
O O12 0.000000 0.557621 0.854961
#
# Coordination Sequence:
#
# PCOD9572820 Si02
#       5
#    32  32  32  32  32
#     4  10  19  30  48  74 104 139 176 207 235 279
#     4  10  21  35  52  73 100 129 163 208 257 309
#     4  10  20  32  48  71 102 136 170 206 248 295
#     4   9  17  30  47  71 107 146 176 200 231 278
#     4   9  19  34  51  73 102 136 170 204 246 293
#
# _framework density 19.043887999999999
#
# number of rings (size 3 to 8) (size 9 to 14) (size 15 to 20)
#    0.000    2.400    0.000    2.400    0.000   10.800 
#    0.000    0.000    0.000   13.200    0.000    0.000 
#    0.000    0.400    0.000    0.000    0.000    0.000 
#
# Total GULP energy -445686.542404 kJ/mol
# GULP energy per Si atom -5571.081780 kJ/mol
# Density = 1.900054 g / cm^3
# Si number density = 19.043888 Si / 1000 Ang^3
#
#
#
# Elastic Constant Matrix: (Units=GPa)
#
#
# Indices 1 2 3 4 5 6 
#
# 1 108.6175 65.8454 21.5356 0.0000 0.0000 0.0000
# 2 65.8454 108.6175 21.5356 0.0000 0.0000 0.0000
# 3 21.5356 21.5356 31.0749 0.0000 0.0000 0.0000
# 4 0.0000 0.0000 0.0000 22.9849 0.0000 0.0000
# 5 0.0000 0.0000 0.0000 0.0000 22.9849 0.0000
# 6 0.0000 0.0000 0.0000 0.0000 0.0000 16.3658
#
#
#
# Elastic Compliance Matrix: (Units=1/GPa)
#
#
# Indices 1 2 3 4 5 6 
#
# 1 0.015147 -0.008232 -0.004792 0.000000 0.000000 0.000000
# 2 -0.008232 0.015147 -0.004792 0.000000 0.000000 0.000000
# 3 -0.004792 -0.004792 0.038823 0.000000 0.000000 0.000000
# 4 0.000000 0.000000 0.000000 0.043507 0.000000 0.000000
# 5 0.000000 0.000000 0.000000 0.000000 0.043507 0.000000
# 6 0.000000 0.000000 0.000000 0.000000 0.000000 0.061103
#
#
# Mechanical properties :
#
#
# Convention : Reuss Voigt Hill
#
# Bulk Modulus (GPa) = 29.86535 51.79364 40.82950
# Shear Modulus (GPa) = 18.93732 21.76000 20.34866
#
# Velocity S-wave (km/s) = 3.15684 3.38394 3.27236
# Velocity P-wave (km/s) = 5.38553 6.52105 5.98030
#
# Compressibility (1/GPa) = 0.03348362
#
# Stress axis : x y z
#
# Youngs Moduli (GPa) = 66.01812 66.01812 25.75821
#
# Poissons Ratio (x) = 0.54349 0.12344
# Poissons Ratio (y) = 0.54349 0.12344
# Poissons Ratio (z) = 0.31637 0.31637
#
# Static dielectric constant tensor:
#      x y z
#    x 1.692940 0.000000 0.000000 
#    y 0.000000 1.692940 0.000000 
#    z 0.000000 0.000000 1.694720 
# 
# From -- ./inp_files/6567.got.cif
#   From: 2010.05.17/outbox.cif.g08.bks.cpg/sg141_4_cif.got.tgz:6567.got - 2010.05.20 13:30:51.
