data_PCOD9572030
_publ_section_title
;
Structure prediction by ZEFSAII (Michael W. Deem and Ramdas Pophale) SiO2 
 PCOD9572030
Probable space group: I 4/M C M
;
_chemical_formula_sum "Si O2"
_cell_formula_units_Z 160
_cell_length_a 26.784384
_cell_length_b 26.784384
_cell_length_c 16.438822
_cell_angle_alpha 90.000000
_cell_angle_beta 90.000000
_cell_angle_gamma 90.000000
_cell_volume 11793.263939
_symmetry_space_group_name_H-M "I 4/M C M"
_symmetry_group_IT_number 140
_symmetry_cell_setting 'tetragonal'
loop_
_space_group_symop_operation_xyz
x,y,z
-y,x,z
-x,-y,z
y,-x,z
x,-y,1/2-z
-x,y,1/2-z
y,x,1/2-z
-y,-x,1/2-z
-x,-y,-z
y,-x,-z
x,y,-z
-y,x,-z
-x,y,1/2+z
x,-y,1/2+z
-y,-x,1/2+z
y,x,1/2+z
1/2+x,1/2+y,1/2+z
1/2-y,1/2+x,1/2+z
1/2-x,1/2-y,1/2+z
1/2+y,1/2-x,1/2+z
1/2+x,1/2-y,-z
1/2-x,1/2+y,-z
1/2+y,1/2+x,-z
1/2-y,1/2-x,-z
1/2-x,1/2-y,1/2-z
1/2+y,1/2-x,1/2-z
1/2+x,1/2+y,1/2-z
1/2-y,1/2+x,1/2-z
1/2-x,1/2+y,z
1/2+x,1/2-y,z
1/2-y,1/2-x,z
1/2+y,1/2+x,z
loop_
_atom_site_type_symbol
_atom_site_label
_atom_site_fract_x
_atom_site_fract_y
_atom_site_fract_z
Si Si1 0.686290 0.727514 0.332401
Si Si2 0.724383 0.689530 0.500000
Si Si3 0.191366 0.393512 0.820404
Si Si4 0.694112 0.108453 0.500000
Si Si5 0.961316 0.379274 0.594482
Si Si6 0.064938 0.349892 0.659396
O O1 0.696371 0.696371 0.250000
O O2 0.729448 0.770552 0.332810
O O3 0.694167 0.697700 0.416421
O O4 0.633187 0.755728 0.330017
O O5 0.767242 0.732759 0.500000
O O6 0.753596 0.637206 0.500000
O O7 0.152254 0.347747 0.813056
O O8 0.170123 0.427571 0.892766
O O9 0.183248 0.425809 0.739093
O O10 0.652010 0.152010 0.500000
O O11 0.683537 0.076730 0.580392
O O12 0.974955 0.385411 0.500000
O O13 0.925888 0.425888 0.618435
O O14 0.010485 0.373228 0.647986
O O15 0.105277 0.394724 0.661405
#
# Coordination Sequence:
#
# PCOD9572030 Si02
#       6
#    32  16  32  16  32  32
#     4   9  16  26  40  60  80  99 122 151 191 246
#     4   9  16  24  39  59  80 101 122 150 194 246
#     4   9  18  29  42  56  76  99 123 158 204 252
#     4   9  16  26  40  58  77  98 125 161 201 245
#     4  10  20  31  42  57  76 100 134 174 216 256
#     4  10  18  30  44  57  74 101 135 173 215 252
#
# _framework density 13.567067
#
# number of rings (size 3 to 8) (size 9 to 14) (size 15 to 20)
#    0.000    2.600    1.000    1.800    1.400    5.200 
#    0.000    1.000    0.000    3.600    0.000    0.000 
#    0.000    0.000    0.000    0.000    0.000    0.000 
#
# Total GULP energy -445445.796630 kJ/mol
# GULP energy per Si atom -5568.072458 kJ/mol
# Density = 1.353619 g / cm^3
# Si number density = 13.567067 Si / 1000 Ang^3
#
#
#
# Elastic Constant Matrix: (Units=GPa)
#
#
# Indices 1 2 3 4 5 6 
#
# 1 36.3814 37.5253 21.5599 0.0000 0.0000 0.0000
# 2 37.5253 36.3816 21.5598 0.0000 0.0000 0.0000
# 3 21.5599 21.5598 76.2950 0.0000 0.0000 0.0000
# 4 0.0000 0.0000 0.0000 14.2864 0.0000 0.0000
# 5 0.0000 0.0000 0.0000 0.0000 14.2865 0.0000
# 6 0.0000 0.0000 0.0000 0.0000 0.0000 19.0541
#
#
#
# Elastic Compliance Matrix: (Units=1/GPa)
#
#
# Indices 1 2 3 4 5 6 
#
# 1 -0.429041 0.445240 -0.004577 0.000000 0.000000 0.000000
# 2 0.445240 -0.429037 -0.004580 0.000000 0.000000 0.000000
# 3 -0.004577 -0.004580 0.015695 0.000000 0.000000 0.000000
# 4 0.000000 0.000000 0.000000 0.069997 0.000000 0.000000
# 5 0.000000 0.000000 0.000000 0.000000 0.069996 0.000000
# 6 0.000000 0.000000 0.000000 0.000000 0.000000 0.052482
#
#
# Mechanical properties :
#
#
# Convention : Reuss Voigt Hill
#
# Bulk Modulus (GPa) = 33.57445 34.48311 34.02878
# Shear Modulus (GPa) = -3.30656 14.08626 5.38985
#
# Velocity S-wave (km/s) = -1.56285 3.22571 1.99534
# Velocity P-wave (km/s) = 4.64156 6.27261 5.51768
#
# Compressibility (1/GPa) = 0.02978456
#
# Stress axis : x y z
#
# Youngs Moduli (GPa) = -2.33078 -2.33080 63.71623
#
# Poissons Ratio (x) = 1.03777 0.29162
# Poissons Ratio (y) = 1.03776 0.29181
# Poissons Ratio (z) = -0.01067 -0.01067
#
# Static dielectric constant tensor:
#      x y z
#    x 1.433240 0.000000 0.000000 
#    y 0.000000 1.433240 0.000000 
#    z 0.000000 0.000000 1.479510 
# 
# From -- ./inp_files/7207.got.cif
#   From: 2010.05.17/outbox.cif.g08.bks.cpg/sg140_4_cif.got.tgz:7207.got - 2010.06.21 00:45:31.
