data_PCOD9572999
_publ_section_title
;
Structure prediction by ZEFSAII (Michael W. Deem and Ramdas Pophale) SiO2 
 PCOD9572999
Probable space group: I 41/A M D
;
_chemical_formula_sum "Si O2"
_cell_formula_units_Z 160
_cell_length_a 26.007183
_cell_length_b 26.007183
_cell_length_c 12.301053
_cell_angle_alpha 90.000000
_cell_angle_beta 90.000000
_cell_angle_gamma 90.000000
_cell_volume 8320.107103
_symmetry_space_group_name_H-M "I 41/A M D"
_symmetry_group_IT_number 141
_space_group.IT_coordinate_system_code '2'
_symmetry_cell_setting 'tetragonal'
loop_
_space_group_symop_operation_xyz
x,y,z
1/4-y,3/4+x,1/4+z
-x,1/2-y,z
1/4+y,1/4-x,3/4+z
x,-y,-z
-x,1/2+y,-z
1/4+y,3/4+x,1/4-z
1/4-y,1/4-x,3/4-z
-x,-y,-z
3/4+y,1/4-x,3/4-z
x,1/2+y,-z
3/4-y,3/4+x,1/4-z
-x,y,z
x,1/2-y,z
3/4-y,1/4-x,3/4+z
3/4+y,3/4+x,1/4+z
1/2+x,1/2+y,1/2+z
3/4-y,1/4+x,3/4+z
1/2-x,-y,1/2+z
3/4+y,3/4-x,1/4+z
1/2+x,1/2-y,1/2-z
1/2-x,y,1/2-z
3/4+y,1/4+x,3/4-z
3/4-y,3/4-x,1/4-z
1/2-x,1/2-y,1/2-z
1/4+y,3/4-x,1/4-z
1/2+x,y,1/2-z
1/4-y,1/4+x,3/4-z
1/2-x,1/2+y,1/2+z
1/2+x,-y,1/2+z
1/4-y,3/4-x,1/4+z
1/4+y,1/4+x,3/4+z
loop_
_atom_site_type_symbol
_atom_site_label
_atom_site_fract_x
_atom_site_fract_y
_atom_site_fract_z
Si Si1 0.125150 0.807530 0.467445
Si Si2 0.666405 0.943418 0.042466
Si Si3 0.841772 0.470276 0.783487
Si Si4 0.941767 0.603755 0.523185
Si Si5 0.237831 0.691366 0.377773
O O1 0.112382 0.750000 0.433251
O O2 0.075563 0.843971 0.461995
O O3 0.138817 0.807449 0.596295
O O4 0.177916 0.822408 0.404852
O O5 0.665918 0.939936 0.172666
O O6 0.719560 0.917447 0.006412
O O7 0.609842 0.928421 0.000552
O O8 0.674239 0.000000 0.000000
O O9 0.803570 0.446431 0.875000
O O10 0.900766 0.472643 0.821223
O O11 0.000000 0.586972 0.492503
O O12 0.244306 0.750000 0.418516
O O13 0.250000 0.690641 0.250000
#
# Coordination Sequence:
#
# PCOD9572999 Si02
#       5
#    32  32  32  32  32
#     4   9  18  35  60  86 118 154 191 241 293 349
#     4  12  24  37  58  81 116 157 193 242 297 354
#     4  12  24  39  58  85 117 152 201 241 289 351
#     4  10  21  36  57  86 118 154 196 241 292 353
#     4  10  20  36  60  85 113 151 193 238 291 346
#
# _framework density 19.230522000000001
#
# number of rings (size 3 to 8) (size 9 to 14) (size 15 to 20)
#    0.000    1.400    2.000    4.800    2.800    1.600 
#    0.000    2.000    0.000    0.000    0.000    0.000 
#    0.000    0.400    0.000    0.000    0.000    0.000 
#
# Total GULP energy -445571.906369 kJ/mol
# GULP energy per Si atom -5569.648830 kJ/mol
# Density = 1.918675 g / cm^3
# Si number density = 19.230522 Si / 1000 Ang^3
#
#
#
# Elastic Constant Matrix: (Units=GPa)
#
#
# Indices 1 2 3 4 5 6 
#
# 1 75.5438 21.1569 4.8326 0.0000 0.0000 0.0000
# 2 21.1569 75.5402 4.8320 0.0000 0.0000 0.0000
# 3 4.8326 4.8320 39.8385 0.0000 0.0000 0.0000
# 4 0.0000 0.0000 0.0000 15.7483 0.0000 0.0000
# 5 0.0000 0.0000 0.0000 0.0000 15.7482 0.0000
# 6 0.0000 0.0000 0.0000 0.0000 0.0000 29.8402
#
#
#
# Elastic Compliance Matrix: (Units=1/GPa)
#
#
# Indices 1 2 3 4 5 6 
#
# 1 0.014428 -0.003960 -0.001270 0.000000 0.000000 0.000000
# 2 -0.003960 0.014428 -0.001270 0.000000 0.000000 0.000000
# 3 -0.001270 -0.001270 0.025409 0.000000 0.000000 0.000000
# 4 0.000000 0.000000 0.000000 0.063499 0.000000 0.000000
# 5 0.000000 0.000000 0.000000 0.000000 0.063499 0.000000
# 6 0.000000 0.000000 0.000000 0.000000 0.000000 0.033512
#
#
# Mechanical properties :
#
#
# Convention : Reuss Voigt Hill
#
# Bulk Modulus (GPa) = 24.23252 28.06283 26.14767
# Shear Modulus (GPa) = 20.70148 22.94075 21.82111
#
# Velocity S-wave (km/s) = 3.28455 3.45764 3.37220
# Velocity P-wave (km/s) = 5.19738 5.52855 5.36552
#
# Compressibility (1/GPa) = 0.04126686
#
# Stress axis : x y z
#
# Youngs Moduli (GPa) = 69.31203 69.30885 39.35553
#
# Poissons Ratio (x) = 0.27443 0.04998
# Poissons Ratio (y) = 0.27444 0.04997
# Poissons Ratio (z) = 0.08802 0.08800
#
# Static dielectric constant tensor:
#      x y z
#    x 1.758460 0.000000 0.000000 
#    y 0.000000 1.758460 0.000000 
#    z 0.000000 0.000000 1.689500 
# 
# From -- ./inp_files/4883.got.cif
#   From: 2010.05.17/outbox.cif.g08.bks.cpg/sg141_3_cif.got.tgz:4883.got - 2010.05.20 13:30:51.
