data_PCOD9572465
_publ_section_title
;
Structure prediction by ZEFSAII (Michael W. Deem and Ramdas Pophale) SiO2 
 PCOD9572465
Probable space group: I 4/M C M
;
_chemical_formula_sum "Si O2"
_cell_formula_units_Z 96
_cell_length_a 24.567781
_cell_length_b 24.567781
_cell_length_c 8.563184
_cell_angle_alpha 90.000000
_cell_angle_beta 90.000000
_cell_angle_gamma 90.000000
_cell_volume 5168.531175
_symmetry_space_group_name_H-M "I 4/M C M"
_symmetry_group_IT_number 140
_symmetry_cell_setting 'tetragonal'
loop_
_space_group_symop_operation_xyz
x,y,z
-y,x,z
-x,-y,z
y,-x,z
x,-y,1/2-z
-x,y,1/2-z
y,x,1/2-z
-y,-x,1/2-z
-x,-y,-z
y,-x,-z
x,y,-z
-y,x,-z
-x,y,1/2+z
x,-y,1/2+z
-y,-x,1/2+z
y,x,1/2+z
1/2+x,1/2+y,1/2+z
1/2-y,1/2+x,1/2+z
1/2-x,1/2-y,1/2+z
1/2+y,1/2-x,1/2+z
1/2+x,1/2-y,-z
1/2-x,1/2+y,-z
1/2+y,1/2+x,-z
1/2-y,1/2-x,-z
1/2-x,1/2-y,1/2-z
1/2+y,1/2-x,1/2-z
1/2+x,1/2+y,1/2-z
1/2-y,1/2+x,1/2-z
1/2-x,1/2+y,z
1/2+x,1/2-y,z
1/2-y,1/2-x,z
1/2+y,1/2+x,z
loop_
_atom_site_type_symbol
_atom_site_label
_atom_site_fract_x
_atom_site_fract_y
_atom_site_fract_z
Si Si1 0.144005 0.941423 0.186519
Si Si2 0.644450 0.144450 0.316672
Si Si3 0.728997 0.940002 0.687160
Si Si4 0.559850 0.940151 0.311716
O O1 0.106449 0.893552 0.250000
O O2 0.207454 0.934927 0.232354
O O3 0.125385 0.000000 0.250000
O O4 0.141707 0.941996 0.000000
O O5 0.652498 0.152498 0.500000
O O6 0.697417 0.113809 0.246592
O O7 0.599649 0.099649 0.275406
O O8 0.723634 0.941940 0.500000
O O9 0.710285 0.000000 0.750000
O O10 0.500000 0.927554 0.250000
O O11 0.563354 0.936647 0.500000
#
# Coordination Sequence:
#
# PCOD9572465 Si02
#       4
#    32  16  32  16
#     4  10  21  38  62  89 119 150 184 225 275 332
#     4  12  23  35  53  77 105 143 189 233 276 330
#     4  10  21  38  58  82 112 148 188 234 283 333
#     4  11  21  34  49  69  99 133 174 227 284 337
#
# _framework density 18.573944000000001
#
# number of rings (size 3 to 8) (size 9 to 14) (size 15 to 20)
#    0.000    1.500    0.000    6.500    0.000    4.333 
#    0.000    2.500    0.000    0.000    0.000    0.000 
#    0.000    0.000    0.000    0.000    0.000    0.000 
#
# Total GULP energy -267848.156650 kJ/mol
# GULP energy per Si atom -5580.169930 kJ/mol
# Density = 1.853167 g / cm^3
# Si number density = 18.573944 Si / 1000 Ang^3
#
#
#
# Elastic Constant Matrix: (Units=GPa)
#
#
# Indices 1 2 3 4 5 6 
#
# 1 99.1570 62.1137 27.4013 0.0000 0.0000 0.0000
# 2 62.1137 99.1705 27.3995 0.0000 0.0000 0.0000
# 3 27.4013 27.3995 51.7737 0.0000 0.0000 0.0000
# 4 0.0000 0.0000 0.0000 31.1827 0.0000 0.0000
# 5 0.0000 0.0000 0.0000 0.0000 31.1824 0.0000
# 6 0.0000 0.0000 0.0000 0.0000 0.0000 40.2904
#
#
#
# Elastic Compliance Matrix: (Units=1/GPa)
#
#
# Indices 1 2 3 4 5 6 
#
# 1 0.017277 -0.009715 -0.004002 0.000000 0.000000 0.000000
# 2 -0.009715 0.017274 -0.004000 0.000000 0.000000 0.000000
# 3 -0.004002 -0.004000 0.023550 0.000000 0.000000 0.000000
# 4 0.000000 0.000000 0.000000 0.032069 0.000000 0.000000
# 5 0.000000 0.000000 0.000000 0.000000 0.032069 0.000000
# 6 0.000000 0.000000 0.000000 0.000000 0.000000 0.024820
#
#
# Mechanical properties :
#
#
# Convention : Reuss Voigt Hill
#
# Bulk Modulus (GPa) = 44.11943 53.77000 48.94471
# Shear Modulus (GPa) = 26.30910 29.41021 27.85966
#
# Velocity S-wave (km/s) = 3.76766 3.98353 3.87710
# Velocity P-wave (km/s) = 6.53697 7.08308 6.81550
#
# Compressibility (1/GPa) = 0.02266575
#
# Stress axis : x y z
#
# Youngs Moduli (GPa) = 57.88101 57.89155 42.46324
#
# Poissons Ratio (x) = 0.56243 0.16995
# Poissons Ratio (y) = 0.56233 0.16984
# Poissons Ratio (z) = 0.23166 0.23155
#
# Static dielectric constant tensor:
#      x y z
#    x 1.631550 0.000000 0.000000 
#    y 0.000000 1.631550 0.000000 
#    z 0.000000 0.000000 1.625010 
# 
# From -- ./inp_files/943.got.cif
#   From: 2010.05.17/outbox.cif.g08.bks.cpg/sg140_1_cif.got.tgz:943.got - 2010.06.21 00:45:31.
