data_PCOD9572911
_publ_section_title
;
Structure prediction by ZEFSAII (Michael W. Deem and Ramdas Pophale) SiO2 
 PCOD9572911
Probable space group: I 41/A M D
;
_chemical_formula_sum "Si O2"
_cell_formula_units_Z 160
_cell_length_a 27.153300
_cell_length_b 27.153300
_cell_length_c 12.474283
_cell_angle_alpha 90.000000
_cell_angle_beta 90.000000
_cell_angle_gamma 90.000000
_cell_volume 9197.310073
_symmetry_space_group_name_H-M "I 41/A M D"
_symmetry_group_IT_number 141
_space_group.IT_coordinate_system_code '2'
_symmetry_cell_setting 'tetragonal'
loop_
_space_group_symop_operation_xyz
x,y,z
1/4-y,3/4+x,1/4+z
-x,1/2-y,z
1/4+y,1/4-x,3/4+z
x,-y,-z
-x,1/2+y,-z
1/4+y,3/4+x,1/4-z
1/4-y,1/4-x,3/4-z
-x,-y,-z
3/4+y,1/4-x,3/4-z
x,1/2+y,-z
3/4-y,3/4+x,1/4-z
-x,y,z
x,1/2-y,z
3/4-y,1/4-x,3/4+z
3/4+y,3/4+x,1/4+z
1/2+x,1/2+y,1/2+z
3/4-y,1/4+x,3/4+z
1/2-x,-y,1/2+z
3/4+y,3/4-x,1/4+z
1/2+x,1/2-y,1/2-z
1/2-x,y,1/2-z
3/4+y,1/4+x,3/4-z
3/4-y,3/4-x,1/4-z
1/2-x,1/2-y,1/2-z
1/4+y,3/4-x,1/4-z
1/2+x,y,1/2-z
1/4-y,1/4+x,3/4-z
1/2-x,1/2+y,1/2+z
1/2+x,-y,1/2+z
1/4-y,3/4-x,1/4+z
1/4+y,1/4+x,3/4+z
loop_
_atom_site_type_symbol
_atom_site_label
_atom_site_fract_x
_atom_site_fract_y
_atom_site_fract_z
Si Si1 0.234580 0.935308 0.867341
Si Si2 0.856941 0.193131 0.634831
Si Si3 0.800301 0.193968 0.862683
Si Si4 0.943329 0.349156 0.765850
Si Si5 0.371055 0.467579 0.315002
O O1 0.250000 0.915683 0.750000
O O2 0.176466 0.945111 0.875866
O O3 0.262038 0.987963 0.875000
O O4 0.258038 0.901279 0.958227
O O5 0.862677 0.250000 0.603380
O O6 0.825316 0.192190 0.745959
O O7 0.907876 0.168713 0.671912
O O8 0.826796 0.159831 0.551858
O O9 0.780254 0.250000 0.876454
O O10 0.844015 0.186247 0.948833
O O11 0.760375 0.151744 0.876834
O O12 0.930579 0.319422 0.875000
O O13 0.000000 0.341659 0.738726
#
# Coordination Sequence:
#
# PCOD9572911 Si02
#       5
#    32  32  32  32  32
#     4   9  21  36  50  72  94 120 160 203 250 295
#     4  10  20  30  44  71 102 134 167 199 246 296
#     4   9  18  30  45  70 103 135 165 196 237 294
#     4   9  17  29  45  67  98 137 176 210 251 304
#     4  11  19  32  51  68  96 132 163 200 242 296
#
# _framework density 17.39639
#
# number of rings (size 3 to 8) (size 9 to 14) (size 15 to 20)
#    0.000    2.400    0.000    4.200    0.000   10.200 
#    0.000    0.000    0.000    2.400    0.000   22.400 
#    0.000    0.000    0.000    0.600    0.000    0.200 
#
# Total GULP energy -446169.647672 kJ/mol
# GULP energy per Si atom -5577.120596 kJ/mol
# Density = 1.735679 g / cm^3
# Si number density = 17.396390 Si / 1000 Ang^3
#
#
#
# Elastic Constant Matrix: (Units=GPa)
#
#
# Indices 1 2 3 4 5 6 
#
# 1 109.6448 68.3193 28.8008 0.0000 0.0000 0.0000
# 2 68.3193 109.6427 28.7995 0.0000 0.0000 0.0000
# 3 28.8008 28.7995 38.2230 0.0000 0.0000 0.0000
# 4 0.0000 0.0000 0.0000 15.6949 0.0000 0.0000
# 5 0.0000 0.0000 0.0000 0.0000 15.6954 0.0000
# 6 0.0000 0.0000 0.0000 0.0000 0.0000 15.8534
#
#
#
# Elastic Compliance Matrix: (Units=1/GPa)
#
#
# Indices 1 2 3 4 5 6 
#
# 1 0.015815 -0.008384 -0.005600 0.000000 0.000000 0.000000
# 2 -0.008384 0.015815 -0.005599 0.000000 0.000000 0.000000
# 3 -0.005600 -0.005599 0.034600 0.000000 0.000000 0.000000
# 4 0.000000 0.000000 0.000000 0.063715 0.000000 0.000000
# 5 0.000000 0.000000 0.000000 0.000000 0.063713 0.000000
# 6 0.000000 0.000000 0.000000 0.000000 0.000000 0.063078
#
#
# Mechanical properties :
#
#
# Convention : Reuss Voigt Hill
#
# Bulk Modulus (GPa) = 36.94737 56.59442 46.77090
# Shear Modulus (GPa) = 16.39756 18.22147 17.30952
#
# Velocity S-wave (km/s) = 3.07348 3.23991 3.15779
# Velocity P-wave (km/s) = 5.82063 6.82634 6.34345
#
# Compressibility (1/GPa) = 0.02706552
#
# Stress axis : x y z
#
# Youngs Moduli (GPa) = 63.23074 63.23061 28.90140
#
# Poissons Ratio (x) = 0.53010 0.16184
# Poissons Ratio (y) = 0.53010 0.16182
# Poissons Ratio (z) = 0.35408 0.35403
#
# Static dielectric constant tensor:
#      x y z
#    x 1.614880 0.000000 0.000000 
#    y 0.000000 1.614890 0.000000 
#    z 0.000000 0.000000 1.594970 
# 
# From -- ./inp_files/4828.got.cif
#   From: 2010.05.17/outbox.cif.g08.bks.cpg/sg141_3_cif.got.tgz:4828.got - 2010.05.20 13:30:51.
