data_PCOD9572710
_publ_section_title
;
Structure prediction by ZEFSAII (Michael W. Deem and Ramdas Pophale) SiO2 
 PCOD9572710
Probable space group: I 4/M C M
;
_chemical_formula_sum "Si O2"
_cell_formula_units_Z 88
_cell_length_a 18.000000
_cell_length_b 18.000000
_cell_length_c 27.000000
_cell_angle_alpha 90.000000
_cell_angle_beta 90.000000
_cell_angle_gamma 90.000000
_cell_volume 8748.000000
_symmetry_space_group_name_H-M "I 4/M C M"
_symmetry_group_IT_number 140
_symmetry_cell_setting 'tetragonal'
loop_
_space_group_symop_operation_xyz
x,y,z
-y,x,z
-x,-y,z
y,-x,z
x,-y,1/2-z
-x,y,1/2-z
y,x,1/2-z
-y,-x,1/2-z
-x,-y,-z
y,-x,-z
x,y,-z
-y,x,-z
-x,y,1/2+z
x,-y,1/2+z
-y,-x,1/2+z
y,x,1/2+z
1/2+x,1/2+y,1/2+z
1/2-y,1/2+x,1/2+z
1/2-x,1/2-y,1/2+z
1/2+y,1/2-x,1/2+z
1/2+x,1/2-y,-z
1/2-x,1/2+y,-z
1/2+y,1/2+x,-z
1/2-y,1/2-x,-z
1/2-x,1/2-y,1/2-z
1/2+y,1/2-x,1/2-z
1/2+x,1/2+y,1/2-z
1/2-y,1/2+x,1/2-z
1/2-x,1/2+y,z
1/2+x,1/2-y,z
1/2-y,1/2-x,z
1/2+y,1/2+x,z
loop_
_atom_site_type_symbol
_atom_site_label
_atom_site_fract_x
_atom_site_fract_y
_atom_site_fract_z
Si Si1 0.201657 0.176490 0.059512
Si Si2 0.104307 0.933391 0.107884
Si Si3 0.958519 0.335590 0.302577
Si Si4 0.996940 0.625315 0.000000
Si Si5 0.817988 0.442527 0.099553
Si Si6 0.328119 0.575023 0.282989
O O1 0.245105 0.254896 0.068941
O O2 0.117513 0.163776 0.078464
O O3 0.249976 0.113374 0.088132
O O4 0.205684 0.164221 0.000000
O O5 0.125867 0.928930 0.165963
O O6 0.021643 0.900810 0.096997
O O7 0.904060 0.404060 0.314171
O O8 0.915372 0.258519 0.294350
O O9 0.000000 0.350969 0.250000
O O10 0.012831 0.317248 0.348903
O O11 0.006764 0.671615 0.949441
O O12 0.921271 0.578730 0.000000
O O13 0.064603 0.564603 0.000000
O O14 0.890310 0.390310 0.102399
O O15 0.336844 0.500000 0.250000
O O16 0.359023 0.640978 0.250000
#
# Coordination Sequence:
#
# PCOD9572710 Si02
#       6
#    32  32  32  16  32  32
#     4  10  22  42  67  97 136 180 223 273 339 414
#     4  11  23  40  68 103 134 170 220 284 349 405
#     4  11  25  41  60  93 135 177 222 274 341 408
#     4   9  16  28  54  88 114 155 220 272 311 362
#     4  10  19  36  60  88 128 175 221 269 322 391
#     4  11  23  42  67  93 124 164 215 275 336 406
#
# _framework density 10.059442000000001
#
# number of rings (size 3 to 8) (size 9 to 14) (size 15 to 20)
#    0.000    1.545    2.727    2.182    2.545    4.000 
#    0.000    0.909    0.000    0.000    0.000    0.000 
#    0.000    0.000    0.000    0.000    0.000    0.000 
#
# Total GULP energy -491618.422039 kJ/mol
# GULP energy per Si atom -5586.572978 kJ/mol
# Density = 1.003655 g / cm^3
# Si number density = 10.059442 Si / 1000 Ang^3
#
#
#
# Elastic Constant Matrix: (Units=GPa)
#
#
# Indices 1 2 3 4 5 6 
#
# 1 63.7193 26.2291 18.5226 0.0000 0.0000 0.0000
# 2 26.2291 63.7204 18.5234 0.0000 0.0000 0.0000
# 3 18.5226 18.5234 107.9928 0.0000 0.0000 0.0000
# 4 0.0000 0.0000 0.0000 30.5782 0.0000 0.0000
# 5 0.0000 0.0000 0.0000 0.0000 30.5778 0.0000
# 6 0.0000 0.0000 0.0000 0.0000 0.0000 23.7748
#
#
#
# Elastic Compliance Matrix: (Units=1/GPa)
#
#
# Indices 1 2 3 4 5 6 
#
# 1 0.019318 -0.007355 -0.002052 0.000000 0.000000 0.000000
# 2 -0.007355 0.019318 -0.002052 0.000000 0.000000 0.000000
# 3 -0.002052 -0.002052 0.009964 0.000000 0.000000 0.000000
# 4 0.000000 0.000000 0.000000 0.032703 0.000000 0.000000
# 5 0.000000 0.000000 0.000000 0.000000 0.032703 0.000000
# 6 0.000000 0.000000 0.000000 0.000000 0.000000 0.042061
#
#
# Mechanical properties :
#
#
# Convention : Reuss Voigt Hill
#
# Bulk Modulus (GPa) = 38.93864 40.22029 39.57946
# Shear Modulus (GPa) = 26.66017 28.46333 27.56175
#
# Velocity S-wave (km/s) = 3.64418 3.76541 3.70529
# Velocity P-wave (km/s) = 6.09123 6.24012 6.16612
#
# Compressibility (1/GPa) = 0.02568143
#
# Stress axis : x y z
#
# Youngs Moduli (GPa) = 51.76524 51.76597 100.36402
#
# Poissons Ratio (x) = 0.38076 0.20592
# Poissons Ratio (y) = 0.38075 0.20594
# Poissons Ratio (z) = 0.10621 0.10622
#
# Static dielectric constant tensor:
#      x y z
#    x 1.718730 0.000000 0.000000 
#    y 0.000000 1.718730 0.000000 
#    z 0.000000 0.000000 1.692470 
# 
# From -- ./inp_files/10714.got.cif
#   From: 2010.05.17/outbox.ucp.g08.bks.cvg/sg140_6_cif.got.tgz:10714.got - 2010.06.11 11:42:50.
