data_PCOD9572716
_publ_section_title
;
Structure prediction by ZEFSAII (Michael W. Deem and Ramdas Pophale) SiO2 
 PCOD9572716
Probable space group: I 4/M C M
;
_chemical_formula_sum "Si O2"
_cell_formula_units_Z 106
_cell_length_a 21.000000
_cell_length_b 21.000000
_cell_length_c 27.000000
_cell_angle_alpha 90.000000
_cell_angle_beta 90.000000
_cell_angle_gamma 90.000000
_cell_volume 11907.000000
_symmetry_space_group_name_H-M "I 4/M C M"
_symmetry_group_IT_number 140
_symmetry_cell_setting 'tetragonal'
loop_
_space_group_symop_operation_xyz
x,y,z
-y,x,z
-x,-y,z
y,-x,z
x,-y,1/2-z
-x,y,1/2-z
y,x,1/2-z
-y,-x,1/2-z
-x,-y,-z
y,-x,-z
x,y,-z
-y,x,-z
-x,y,1/2+z
x,-y,1/2+z
-y,-x,1/2+z
y,x,1/2+z
1/2+x,1/2+y,1/2+z
1/2-y,1/2+x,1/2+z
1/2-x,1/2-y,1/2+z
1/2+y,1/2-x,1/2+z
1/2+x,1/2-y,-z
1/2-x,1/2+y,-z
1/2+y,1/2+x,-z
1/2-y,1/2-x,-z
1/2-x,1/2-y,1/2-z
1/2+y,1/2-x,1/2-z
1/2+x,1/2+y,1/2-z
1/2-y,1/2+x,1/2-z
1/2-x,1/2+y,z
1/2+x,1/2-y,z
1/2-y,1/2-x,z
1/2+y,1/2+x,z
loop_
_atom_site_type_symbol
_atom_site_label
_atom_site_fract_x
_atom_site_fract_y
_atom_site_fract_z
Si Si1 0.615107 0.223684 0.441530
Si Si2 0.004894 0.686379 0.866512
Si Si3 0.397157 0.790301 0.716910
Si Si4 0.652229 0.683566 0.857788
Si Si5 0.777605 0.619016 0.168537
Si Si6 0.500000 0.000000 0.250000
Si Si7 0.425366 0.423558 0.807207
Si Si8 0.449831 0.949831 0.848444
O O1 0.603412 0.233947 0.500000
O O2 0.669840 0.169840 0.436695
O O3 0.553681 0.199766 0.410540
O O4 0.637914 0.285647 0.410977
O O5 0.039852 0.692485 0.813419
O O6 0.943568 0.731098 0.864503
O O7 0.974352 0.617121 0.866883
O O8 0.350728 0.850728 0.714641
O O9 0.367519 0.734515 0.683885
O O10 0.400992 0.770241 0.773980
O O11 0.725150 0.668276 0.848530
O O12 0.612528 0.620333 0.844951
O O13 0.845874 0.654127 0.164728
O O14 0.542191 0.042191 0.211848
O O15 0.501148 0.413141 0.812989
O O16 0.407778 0.407778 0.750000
O O17 0.500000 0.000000 0.868667
#
# Coordination Sequence:
#
# PCOD9572716 Si02
#       8
#    32  32  32  32  32   4  32  16
#     4  10  23  45  67  82 103 144 202 256 305 360
#     4  11  21  35  55  85 117 157 198 243 285 345
#     4  10  21  33  52  78 120 165 202 228 269 342
#     4  11  21  36  59  85 111 149 195 247 291 345
#     4  11  22  33  52  83 126 155 186 230 291 344
#     4   8  24  24  56  76 126 176 204 208 276 348
#     4   9  19  34  54  83 122 160 187 215 265 341
#     4  10  20  32  51  80 124 165 202 232 272 342
#
# _framework density 8.9023260000000004
#
# number of rings (size 3 to 8) (size 9 to 14) (size 15 to 20)
#    0.226    1.509    0.755    5.887    6.340    1.208 
#    0.000    1.132    0.000    2.264    0.000    1.057 
#    0.000    0.000    0.000    0.000    0.000    0.000 
#
# Total GULP energy -591143.193882 kJ/mol
# GULP energy per Si atom -5576.822584 kJ/mol
# Density = 0.888206 g / cm^3
# Si number density = 8.902326 Si / 1000 Ang^3
#
#
#
# Elastic Constant Matrix: (Units=GPa)
#
#
# Indices 1 2 3 4 5 6 
#
# 1 71.5841 42.3995 47.6936 0.0000 0.0000 0.0000
# 2 42.3995 71.5841 47.6936 0.0000 0.0000 0.0000
# 3 47.6936 47.6936 126.7838 0.0000 0.0000 0.0000
# 4 0.0000 0.0000 0.0000 26.8474 0.0000 0.0000
# 5 0.0000 0.0000 0.0000 0.0000 26.8474 0.0000
# 6 0.0000 0.0000 0.0000 0.0000 0.0000 34.7617
#
#
#
# Elastic Compliance Matrix: (Units=1/GPa)
#
#
# Indices 1 2 3 4 5 6 
#
# 1 0.023534 -0.010730 -0.004817 0.000000 0.000000 0.000000
# 2 -0.010730 0.023534 -0.004817 0.000000 0.000000 0.000000
# 3 -0.004817 -0.004817 0.011511 0.000000 0.000000 0.000000
# 4 0.000000 0.000000 0.000000 0.037248 0.000000 0.000000
# 5 0.000000 0.000000 0.000000 0.000000 0.037248 0.000000
# 6 0.000000 0.000000 0.000000 0.000000 0.000000 0.028767
#
#
# Mechanical properties :
#
#
# Convention : Reuss Voigt Hill
#
# Bulk Modulus (GPa) = 56.01366 60.61393 58.31379
# Shear Modulus (GPa) = 23.97848 26.50231 25.24039
#
# Velocity S-wave (km/s) = 3.67380 3.86230 3.76923
# Velocity P-wave (km/s) = 7.03734 7.34899 7.19485
#
# Compressibility (1/GPa) = 0.01785279
#
# Stress axis : x y z
#
# Youngs Moduli (GPa) = 42.49120 42.49120 86.87148
#
# Poissons Ratio (x) = 0.45594 0.41842
# Poissons Ratio (y) = 0.45594 0.41842
# Poissons Ratio (z) = 0.20466 0.20466
#
# Static dielectric constant tensor:
#      x y z
#    x 1.643760 0.000000 0.000000 
#    y 0.000000 1.643760 0.000000 
#    z 0.000000 0.000000 1.562780 
# 
# From -- ./inp_files/10953.got.cif
#   From: 2010.05.17/outbox.ucp.g08.bks.cvg/sg140_6_cif.got.tgz:10953.got - 2010.06.11 11:42:50.
