data_PCOD9572922
_publ_section_title
;
Structure prediction by ZEFSAII (Michael W. Deem and Ramdas Pophale) SiO2 
 PCOD9572922
Probable space group: I 41/A M D
;
_chemical_formula_sum "Si O2"
_cell_formula_units_Z 84
_cell_length_a 12.153605
_cell_length_b 12.153605
_cell_length_c 27.650576
_cell_angle_alpha 90.000000
_cell_angle_beta 90.000000
_cell_angle_gamma 90.000000
_cell_volume 4084.269747
_symmetry_space_group_name_H-M "I 41/A M D"
_symmetry_group_IT_number 141
_space_group.IT_coordinate_system_code '2'
_symmetry_cell_setting 'tetragonal'
loop_
_space_group_symop_operation_xyz
x,y,z
1/4-y,3/4+x,1/4+z
-x,1/2-y,z
1/4+y,1/4-x,3/4+z
x,-y,-z
-x,1/2+y,-z
1/4+y,3/4+x,1/4-z
1/4-y,1/4-x,3/4-z
-x,-y,-z
3/4+y,1/4-x,3/4-z
x,1/2+y,-z
3/4-y,3/4+x,1/4-z
-x,y,z
x,1/2-y,z
3/4-y,1/4-x,3/4+z
3/4+y,3/4+x,1/4+z
1/2+x,1/2+y,1/2+z
3/4-y,1/4+x,3/4+z
1/2-x,-y,1/2+z
3/4+y,3/4-x,1/4+z
1/2+x,1/2-y,1/2-z
1/2-x,y,1/2-z
3/4+y,1/4+x,3/4-z
3/4-y,3/4-x,1/4-z
1/2-x,1/2-y,1/2-z
1/4+y,3/4-x,1/4-z
1/2+x,y,1/2-z
1/4-y,1/4+x,3/4-z
1/2-x,1/2+y,1/2+z
1/2+x,-y,1/2+z
1/4-y,3/4-x,1/4+z
1/4+y,1/4+x,3/4+z
loop_
_atom_site_type_symbol
_atom_site_label
_atom_site_fract_x
_atom_site_fract_y
_atom_site_fract_z
Si Si1 0.500000 0.750000 0.875000
Si Si2 0.500000 0.875429 0.782345
Si Si3 0.627527 0.622490 0.646140
Si Si4 0.199349 0.528425 0.296702
O O1 0.500000 0.853760 0.840415
O O2 0.500000 0.750000 0.762273
O O3 0.608567 0.945347 0.774426
O O4 0.500000 0.599636 0.657863
O O5 0.651306 0.750000 0.657168
O O6 0.709608 0.544864 0.675619
O O7 0.647863 0.602907 0.588865
O O8 0.250000 0.588060 0.250000
#
# Coordination Sequence:
#
# PCOD9572922 Si02
#       4
#     4  16  32  32
#     4   8  16  32  52  76 120 160 188 224 308 364
#     4  10  20  32  59  85 124 160 193 243 307 371
#     4  10  22  40  61  87 122 162 204 251 302 358
#     4  11  23  38  61  89 124 159 204 251 306 365
#
# _framework density 20.566711999999999
#
# number of rings (size 3 to 8) (size 9 to 14) (size 15 to 20)
#    0.571    1.143    1.905    3.429    2.667    3.810 
#    0.000    0.000    0.000    9.143    0.000    0.000 
#    0.000    0.000    0.000    0.000    0.000    0.000 
#
# Total GULP energy -234510.942826 kJ/mol
# GULP energy per Si atom -5583.593877 kJ/mol
# Density = 2.051990 g / cm^3
# Si number density = 20.566712 Si / 1000 Ang^3
#
#
#
# Elastic Constant Matrix: (Units=GPa)
#
#
# Indices 1 2 3 4 5 6 
#
# 1 67.1169 12.7169 -2.5195 0.0000 0.0000 0.0000
# 2 12.7169 67.1169 -2.5195 0.0000 0.0000 0.0000
# 3 -2.5195 -2.5195 84.2448 0.0000 0.0000 0.0000
# 4 0.0000 0.0000 0.0000 3.7616 0.0000 0.0000
# 5 0.0000 0.0000 0.0000 0.0000 3.7616 0.0000
# 6 0.0000 0.0000 0.0000 0.0000 0.0000 19.8501
#
#
#
# Elastic Compliance Matrix: (Units=1/GPa)
#
#
# Indices 1 2 3 4 5 6 
#
# 1 0.015466 -0.002916 0.000375 0.000000 0.000000 0.000000
# 2 -0.002916 0.015466 0.000375 0.000000 0.000000 0.000000
# 3 0.000375 0.000375 0.011893 0.000000 0.000000 0.000000
# 4 0.000000 0.000000 0.000000 0.265847 0.000000 0.000000
# 5 0.000000 0.000000 0.000000 0.000000 0.265846 0.000000
# 6 0.000000 0.000000 0.000000 0.000000 0.000000 0.050378
#
#
# Mechanical properties :
#
#
# Convention : Reuss Voigt Hill
#
# Bulk Modulus (GPa) = 25.97852 25.98160 25.98006
# Shear Modulus (GPa) = 7.78746 19.52801 13.65774
#
# Velocity S-wave (km/s) = 1.94799 3.08473 2.57975
# Velocity P-wave (km/s) = 4.20931 5.03465 4.64037
#
# Compressibility (1/GPa) = 0.03849334
#
# Stress axis : x y z
#
# Youngs Moduli (GPa) = 64.65776 64.65776 84.08573
#
# Poissons Ratio (x) = 0.18856 -0.03156
# Poissons Ratio (y) = 0.18856 -0.03156
# Poissons Ratio (z) = -0.02427 -0.02427
#
# Static dielectric constant tensor:
#      x y z
#    x 1.736020 0.000000 0.000000 
#    y 0.000000 1.736020 0.000000 
#    z 0.000000 0.000000 1.806060 
# 
# From -- ./inp_files/13718.got.cif
#   From: 2010.05.17/outbox.cif.g08.bks.cpg/sg141_7_cif.got.tgz:13718.got - 2010.05.20 13:30:51.
