data_PCOD9572574
_publ_section_title
;
Structure prediction by ZEFSAII (Michael W. Deem and Ramdas Pophale) SiO2 
 PCOD9572574
Probable space group: I 4/M C M
;
_chemical_formula_sum "Si O2"
_cell_formula_units_Z 84
_cell_length_a 13.949810
_cell_length_b 13.949810
_cell_length_c 24.938930
_cell_angle_alpha 90.000000
_cell_angle_beta 90.000000
_cell_angle_gamma 90.000000
_cell_volume 4853.045925
_symmetry_space_group_name_H-M "I 4/M C M"
_symmetry_group_IT_number 140
_symmetry_cell_setting 'tetragonal'
loop_
_space_group_symop_operation_xyz
x,y,z
-y,x,z
-x,-y,z
y,-x,z
x,-y,1/2-z
-x,y,1/2-z
y,x,1/2-z
-y,-x,1/2-z
-x,-y,-z
y,-x,-z
x,y,-z
-y,x,-z
-x,y,1/2+z
x,-y,1/2+z
-y,-x,1/2+z
y,x,1/2+z
1/2+x,1/2+y,1/2+z
1/2-y,1/2+x,1/2+z
1/2-x,1/2-y,1/2+z
1/2+y,1/2-x,1/2+z
1/2+x,1/2-y,-z
1/2-x,1/2+y,-z
1/2+y,1/2+x,-z
1/2-y,1/2-x,-z
1/2-x,1/2-y,1/2-z
1/2+y,1/2-x,1/2-z
1/2+x,1/2+y,1/2-z
1/2-y,1/2+x,1/2-z
1/2-x,1/2+y,z
1/2+x,1/2-y,z
1/2-y,1/2-x,z
1/2+y,1/2+x,z
loop_
_atom_site_type_symbol
_atom_site_label
_atom_site_fract_x
_atom_site_fract_y
_atom_site_fract_z
Si Si1 0.000000 0.500000 0.500000
Si Si2 0.956200 0.844627 0.394939
Si Si3 0.567787 0.216374 0.500000
Si Si4 0.240018 0.098114 0.780504
O O1 0.119575 0.496594 0.500000
O O2 0.946393 0.778853 0.447026
O O3 0.930375 0.788599 0.340736
O O4 0.063655 0.886248 0.395333
O O5 0.675618 0.175618 0.500000
O O6 0.152360 0.152360 0.750000
O O7 0.328417 0.171584 0.780297
O O8 0.262741 0.000000 0.750000
#
# Coordination Sequence:
#
# PCOD9572574 Si02
#       4
#     4  32  16  32
#     4   8  24  48  60  84 134 184 198 254 328 386
#     4  11  22  40  69  96 125 163 212 275 320 377
#     4  10  22  45  60  91 129 168 213 250 326 391
#     4  11  23  42  64  95 130 171 217 262 327 388
#
# _framework density 17.308717999999999
#
# number of rings (size 3 to 8) (size 9 to 14) (size 15 to 20)
#    0.571    0.762    3.810    2.286    0.000    2.286 
#   13.714    0.000    0.000    0.000    0.000    0.000 
#    0.000    0.000    0.000    0.000    0.000    0.000 
#
# Total GULP energy -233808.820774 kJ/mol
# GULP energy per Si atom -5566.876685 kJ/mol
# Density = 1.726932 g / cm^3
# Si number density = 17.308718 Si / 1000 Ang^3
#
#
#
# Elastic Constant Matrix: (Units=GPa)
#
#
# Indices 1 2 3 4 5 6 
#
# 1 120.9141 68.3689 82.7799 0.0000 0.0000 0.0000
# 2 68.3689 120.9141 82.7799 0.0000 0.0000 0.0000
# 3 82.7799 82.7799 195.4630 0.0000 0.0000 0.0000
# 4 0.0000 0.0000 0.0000 -121.9172 0.0000 0.0000
# 5 0.0000 0.0000 0.0000 0.0000 -121.9173 0.0000
# 6 0.0000 0.0000 0.0000 0.0000 0.0000 12.5520
#
#
#
# Elastic Compliance Matrix: (Units=1/GPa)
#
#
# Indices 1 2 3 4 5 6 
#
# 1 0.013711 -0.005320 -0.003554 0.000000 0.000000 0.000000
# 2 -0.005320 0.013711 -0.003554 0.000000 0.000000 0.000000
# 3 -0.003554 -0.003554 0.008126 0.000000 0.000000 0.000000
# 4 0.000000 0.000000 0.000000 -0.008202 0.000000 0.000000
# 5 0.000000 0.000000 0.000000 0.000000 -0.008202 0.000000
# 6 0.000000 0.000000 0.000000 0.000000 0.000000 0.079669
#
#
# Mechanical properties :
#
#
# Convention : Reuss Voigt Hill
#
# Bulk Modulus (GPa) = 93.51183 100.57209 97.04196
# Shear Modulus (GPa) = 39.29797 -32.69900 3.29949
#
# Velocity S-wave (km/s) = 4.77006 -4.35117 1.38217
# Velocity P-wave (km/s) = 9.19136 5.74347 7.66383
#
# Compressibility (1/GPa) = 0.01069383
#
# Stress axis : x y z
#
# Youngs Moduli (GPa) = 72.93205 72.93205 123.05812
#
# Poissons Ratio (x) = 0.38799 0.43733
# Poissons Ratio (y) = 0.38799 0.43733
# Poissons Ratio (z) = 0.25919 0.25919
#
# Static dielectric constant tensor:
#      x y z
#    x 1.574850 0.000000 0.000000 
#    y 0.000000 1.574850 0.000000 
#    z 0.000000 0.000000 3.367510 
# 
# From -- ./inp_files/7571.got.cif
#   From: 2010.05.17/outbox.cif.g08.bks.cpg/sg140_4_cif.got.tgz:7571.got - 2010.06.21 00:45:31.
