data_PCOD9572179
_publ_section_title
;
Structure prediction by ZEFSAII (Michael W. Deem and Ramdas Pophale) SiO2 
 PCOD9572179
Probable space group: I 4/M C M
;
_chemical_formula_sum "Si O2"
_cell_formula_units_Z 160
_cell_length_a 20.227691
_cell_length_b 20.227691
_cell_length_c 20.698575
_cell_angle_alpha 90.000000
_cell_angle_beta 90.000000
_cell_angle_gamma 90.000000
_cell_volume 8469.018250
_symmetry_space_group_name_H-M "I 4/M C M"
_symmetry_group_IT_number 140
_symmetry_cell_setting 'tetragonal'
loop_
_space_group_symop_operation_xyz
x,y,z
-y,x,z
-x,-y,z
y,-x,z
x,-y,1/2-z
-x,y,1/2-z
y,x,1/2-z
-y,-x,1/2-z
-x,-y,-z
y,-x,-z
x,y,-z
-y,x,-z
-x,y,1/2+z
x,-y,1/2+z
-y,-x,1/2+z
y,x,1/2+z
1/2+x,1/2+y,1/2+z
1/2-y,1/2+x,1/2+z
1/2-x,1/2-y,1/2+z
1/2+y,1/2-x,1/2+z
1/2+x,1/2-y,-z
1/2-x,1/2+y,-z
1/2+y,1/2+x,-z
1/2-y,1/2-x,-z
1/2-x,1/2-y,1/2-z
1/2+y,1/2-x,1/2-z
1/2+x,1/2+y,1/2-z
1/2-y,1/2+x,1/2-z
1/2-x,1/2+y,z
1/2+x,1/2-y,z
1/2-y,1/2-x,z
1/2+y,1/2+x,z
loop_
_atom_site_type_symbol
_atom_site_label
_atom_site_fract_x
_atom_site_fract_y
_atom_site_fract_z
Si Si1 0.591658 0.800651 0.861108
Si Si2 0.776081 0.169935 0.000000
Si Si3 0.516221 0.877496 0.423222
Si Si4 0.279263 0.113895 0.000000
Si Si5 0.378928 0.770681 0.124220
Si Si6 0.077009 0.809218 0.749480
O O1 0.663174 0.836826 0.856843
O O2 0.538300 0.859779 0.869088
O O3 0.585127 0.744147 0.807917
O O4 0.579637 0.769179 0.931909
O O5 0.781674 0.133432 0.067426
O O6 0.702426 0.202426 0.000000
O O7 0.826966 0.228300 0.000000
O O8 0.496236 0.873443 0.500000
O O9 0.552615 0.947386 0.415123
O O10 0.571467 0.822697 0.408142
O O11 0.351840 0.148161 0.000000
O O12 0.311768 0.811768 0.140960
O O13 0.408309 0.734552 0.185894
O O14 0.130627 0.869374 0.750000
O O15 0.000000 0.831435 0.750000
#
# Coordination Sequence:
#
# PCOD9572179 Si02
#       6
#    32  16  32  16  32  32
#     4  11  22  38  60  88 122 161 204 249 297 355
#     4   9  16  29  54  87 116 147 189 241 300 355
#     4  10  19  34  59  91 127 167 205 242 287 351
#     4   9  18  31  51  84 120 149 188 242 294 345
#     4  10  19  35  60  88 117 152 197 247 298 357
#     4  12  26  43  63  87 116 152 196 251 315 374
#
# _framework density 18.892391
#
# number of rings (size 3 to 8) (size 9 to 14) (size 15 to 20)
#    0.000    1.600    4.000    1.800    0.000    3.800 
#    0.000    1.000    0.000    0.000    0.000    0.000 
#    0.000    6.400    0.000    0.000    0.000    0.000 
#
# Total GULP energy -445444.170098 kJ/mol
# GULP energy per Si atom -5568.052126 kJ/mol
# Density = 1.884939 g / cm^3
# Si number density = 18.892391 Si / 1000 Ang^3
#
#
#
# Elastic Constant Matrix: (Units=GPa)
#
#
# Indices 1 2 3 4 5 6 
#
# 1 88.1528 55.6569 44.8452 0.0000 0.0000 0.0000
# 2 55.6569 88.1547 44.8462 0.0000 0.0000 0.0000
# 3 44.8452 44.8462 135.7009 0.0000 0.0000 0.0000
# 4 0.0000 0.0000 0.0000 7.9379 0.0000 0.0000
# 5 0.0000 0.0000 0.0000 0.0000 7.9375 0.0000
# 6 0.0000 0.0000 0.0000 0.0000 0.0000 36.2933
#
#
#
# Elastic Compliance Matrix: (Units=1/GPa)
#
#
# Indices 1 2 3 4 5 6 
#
# 1 0.019766 -0.011007 -0.002895 0.000000 0.000000 0.000000
# 2 -0.011007 0.019765 -0.002895 0.000000 0.000000 0.000000
# 3 -0.002895 -0.002895 0.009282 0.000000 0.000000 0.000000
# 4 0.000000 0.000000 0.000000 0.125977 0.000000 0.000000
# 5 0.000000 0.000000 0.000000 0.000000 0.125984 0.000000
# 6 0.000000 0.000000 0.000000 0.000000 0.000000 0.027553
#
#
# Mechanical properties :
#
#
# Convention : Reuss Voigt Hill
#
# Bulk Modulus (GPa) = 65.69553 66.96719 66.33136
# Shear Modulus (GPa) = 13.62424 21.54443 17.58433
#
# Velocity S-wave (km/s) = 2.68834 3.38061 3.05415
# Velocity P-wave (km/s) = 6.66972 7.12472 6.90097
#
# Compressibility (1/GPa) = 0.01522174
#
# Stress axis : x y z
#
# Youngs Moduli (GPa) = 50.59269 50.59354 107.73172
#
# Poissons Ratio (x) = 0.55687 0.31183
# Poissons Ratio (y) = 0.55686 0.31184
# Poissons Ratio (z) = 0.14644 0.14645
#
# Static dielectric constant tensor:
#      x y z
#    x 1.713220 0.000000 0.000000 
#    y 0.000000 1.713210 0.000000 
#    z 0.000000 0.000000 1.678980 
# 
# From -- ./inp_files/6886.got.cif
#   From: 2010.05.17/outbox.cif.g08.bks.cpg/sg140_4_cif.got.tgz:6886.got - 2010.06.21 00:45:31.
