data_PCOD9572041
_publ_section_title
;
Structure prediction by ZEFSAII (Michael W. Deem and Ramdas Pophale) SiO2 
 PCOD9572041
Probable space group: I 4/M C M
;
_chemical_formula_sum "Si O2"
_cell_formula_units_Z 192
_cell_length_a 16.680267
_cell_length_b 16.680267
_cell_length_c 32.329650
_cell_angle_alpha 90.000000
_cell_angle_beta 90.000000
_cell_angle_gamma 90.000000
_cell_volume 8995.120781
_symmetry_space_group_name_H-M "I 4/M C M"
_symmetry_group_IT_number 140
_symmetry_cell_setting 'tetragonal'
loop_
_space_group_symop_operation_xyz
x,y,z
-y,x,z
-x,-y,z
y,-x,z
x,-y,1/2-z
-x,y,1/2-z
y,x,1/2-z
-y,-x,1/2-z
-x,-y,-z
y,-x,-z
x,y,-z
-y,x,-z
-x,y,1/2+z
x,-y,1/2+z
-y,-x,1/2+z
y,x,1/2+z
1/2+x,1/2+y,1/2+z
1/2-y,1/2+x,1/2+z
1/2-x,1/2-y,1/2+z
1/2+y,1/2-x,1/2+z
1/2+x,1/2-y,-z
1/2-x,1/2+y,-z
1/2+y,1/2+x,-z
1/2-y,1/2-x,-z
1/2-x,1/2-y,1/2-z
1/2+y,1/2-x,1/2-z
1/2+x,1/2+y,1/2-z
1/2-y,1/2+x,1/2-z
1/2-x,1/2+y,z
1/2+x,1/2-y,z
1/2-y,1/2-x,z
1/2+y,1/2+x,z
loop_
_atom_site_type_symbol
_atom_site_label
_atom_site_fract_x
_atom_site_fract_y
_atom_site_fract_z
Si Si1 0.706575 0.664172 0.364469
Si Si2 0.899767 0.090912 0.202746
Si Si3 0.500000 0.134430 0.750000
Si Si4 0.332068 0.693780 0.953912
Si Si5 0.682313 0.049997 0.078233
Si Si6 0.664265 0.032465 0.339907
Si Si7 0.064975 0.564975 0.048725
O O1 0.747848 0.752153 0.363336
O O2 0.635374 0.651574 0.332055
O O3 0.684086 0.645093 0.412003
O O4 0.773593 0.601363 0.350865
O O5 0.881951 0.118050 0.250000
O O6 0.995018 0.108754 0.198105
O O7 0.422932 0.077068 0.747231
O O8 0.493968 0.179420 0.793093
O O9 0.261174 0.761174 0.955223
O O10 0.415361 0.739068 0.942760
O O11 0.334891 0.657567 0.000000
O O12 0.614968 0.114968 0.065730
O O13 0.678564 0.038390 0.127458
O O14 0.651442 0.964060 0.062593
O O15 0.575358 0.075358 0.342969
O O16 0.000000 0.500000 0.065625
O O17 0.061511 0.561511 0.000000
#
# Coordination Sequence:
#
# PCOD9572041 Si02
#       7
#    32  32  16  32  32  32  16
#     4  10  22  38  59  87 120 154 191 244 300 351
#     4   9  20  40  66  91 115 151 198 246 296 348
#     4   9  18  32  52  76 114 167 204 232 284 359
#     4   9  19  37  56  75 107 154 197 230 279 352
#     4  10  18  30  53  80 111 149 188 234 281 349
#     4  10  20  34  51  80 121 155 195 238 286 344
#     4   9  16  26  44  76 110 138 175 232 286 327
#
# _framework density 21.344905000000001
#
# number of rings (size 3 to 8) (size 9 to 14) (size 15 to 20)
#    0.000    2.500    0.833    1.500    2.333    4.333 
#    0.000    1.667    0.000    0.000    0.000    1.167 
#    0.000    0.000    0.000    0.000    0.000    0.000 
#
# Total GULP energy -535569.980084 kJ/mol
# GULP energy per Si atom -5578.853959 kJ/mol
# Density = 2.129632 g / cm^3
# Si number density = 21.344905 Si / 1000 Ang^3
#
#
#
# Elastic Constant Matrix: (Units=GPa)
#
#
# Indices 1 2 3 4 5 6 
#
# 1 23.1503 18.6839 35.5189 0.0000 0.0000 0.0000
# 2 18.6839 23.1499 35.5189 0.0000 0.0000 0.0000
# 3 35.5189 35.5189 202.8785 0.0000 0.0000 0.0000
# 4 0.0000 0.0000 0.0000 18.9387 0.0000 0.0000
# 5 0.0000 0.0000 0.0000 0.0000 18.9386 0.0000
# 6 0.0000 0.0000 0.0000 0.0000 0.0000 16.2549
#
#
#
# Elastic Compliance Matrix: (Units=1/GPa)
#
#
# Indices 1 2 3 4 5 6 
#
# 1 0.128959 -0.094944 -0.005955 0.000000 0.000000 0.000000
# 2 -0.094944 0.128962 -0.005956 0.000000 0.000000 0.000000
# 3 -0.005955 -0.005956 0.007014 0.000000 0.000000 0.000000
# 4 0.000000 0.000000 0.000000 0.052802 0.000000 0.000000
# 5 0.000000 0.000000 0.000000 0.000000 0.052802 0.000000
# 6 0.000000 0.000000 0.000000 0.000000 0.000000 0.061520
#
#
# Mechanical properties :
#
#
# Convention : Reuss Voigt Hill
#
# Bulk Modulus (GPa) = 19.52126 47.62469 33.57297
# Shear Modulus (GPa) = 7.54325 21.45693 14.50009
#
# Velocity S-wave (km/s) = 1.88193 3.17400 2.60921
# Velocity P-wave (km/s) = 3.72662 5.98271 4.98400
#
# Compressibility (1/GPa) = 0.05122621
#
# Stress axis : x y z
#
# Youngs Moduli (GPa) = 7.75439 7.75421 142.56437
#
# Poissons Ratio (x) = 0.73621 0.84901
# Poissons Ratio (y) = 0.73623 0.84907
# Poissons Ratio (z) = 0.04618 0.04618
#
# Static dielectric constant tensor:
#      x y z
#    x 1.807430 0.000000 0.000000 
#    y 0.000000 1.807430 0.000000 
#    z 0.000000 0.000000 1.787430 
# 
# From -- ./inp_files/11661.got.cif
#   From: 2010.05.17/outbox.cif.g08.bks.cpg/sg140_6_cif.got.tgz:11661.got - 2010.06.21 00:45:31.
