data_PCOD9572632
_publ_section_title
;
Structure prediction by ZEFSAII (Michael W. Deem and Ramdas Pophale) SiO2 
 PCOD9572632
Probable space group: I 4/M C M
;
_chemical_formula_sum "Si O2"
_cell_formula_units_Z 128
_cell_length_a 19.169883
_cell_length_b 19.169883
_cell_length_c 17.956893
_cell_angle_alpha 90.000000
_cell_angle_beta 90.000000
_cell_angle_gamma 90.000000
_cell_volume 6598.878306
_symmetry_space_group_name_H-M "I 4/M C M"
_symmetry_group_IT_number 140
_symmetry_cell_setting 'tetragonal'
loop_
_space_group_symop_operation_xyz
x,y,z
-y,x,z
-x,-y,z
y,-x,z
x,-y,1/2-z
-x,y,1/2-z
y,x,1/2-z
-y,-x,1/2-z
-x,-y,-z
y,-x,-z
x,y,-z
-y,x,-z
-x,y,1/2+z
x,-y,1/2+z
-y,-x,1/2+z
y,x,1/2+z
1/2+x,1/2+y,1/2+z
1/2-y,1/2+x,1/2+z
1/2-x,1/2-y,1/2+z
1/2+y,1/2-x,1/2+z
1/2+x,1/2-y,-z
1/2-x,1/2+y,-z
1/2+y,1/2+x,-z
1/2-y,1/2-x,-z
1/2-x,1/2-y,1/2-z
1/2+y,1/2-x,1/2-z
1/2+x,1/2+y,1/2-z
1/2-y,1/2+x,1/2-z
1/2-x,1/2+y,z
1/2+x,1/2-y,z
1/2-y,1/2-x,z
1/2+y,1/2+x,z
loop_
_atom_site_type_symbol
_atom_site_label
_atom_site_fract_x
_atom_site_fract_y
_atom_site_fract_z
Si Si1 0.188224 0.981603 0.335906
Si Si2 0.346424 0.372784 0.910453
Si Si3 0.290521 0.790521 0.909494
Si Si4 0.964249 0.648596 0.329711
Si Si5 0.903345 0.403345 0.587651
O O1 0.143588 0.918611 0.369343
O O2 0.268892 0.958430 0.339023
O O3 0.171080 0.000000 0.250000
O O4 0.179188 0.051177 0.384773
O O5 0.286174 0.317151 0.887950
O O6 0.354752 0.370257 0.000000
O O7 0.347206 0.847206 0.881180
O O8 0.291731 0.791731 0.000000
O O9 0.891891 0.608110 0.334637
O O10 0.000000 0.635006 0.250000
O O11 0.019772 0.617478 0.387207
O O12 0.898774 0.398774 0.500000
#
# Coordination Sequence:
#
# PCOD9572632 Si02
#       5
#    32  32  16  32  16
#     4  11  25  43  65  98 131 167 217 273 324 384
#     4  11  23  44  69  94 128 174 219 269 330 386
#     4   9  20  39  64  92 128 167 214 271 325 379
#     4  11  23  39  61  92 132 175 216 261 320 392
#     4  11  21  38  62  90 127 173 216 268 325 379
#
# _framework density 19.397235999999999
#
# number of rings (size 3 to 8) (size 9 to 14) (size 15 to 20)
#    0.000    1.250    3.750    1.875    1.750    2.500 
#    0.000    3.750    0.000    0.000    0.000    0.000 
#    0.000    0.000    0.000    0.000    0.000    0.000 
#
# Total GULP energy -357677.025982 kJ/mol
# GULP energy per Si atom -5588.703531 kJ/mol
# Density = 1.935309 g / cm^3
# Si number density = 19.397236 Si / 1000 Ang^3
#
#
#
# Elastic Constant Matrix: (Units=GPa)
#
#
# Indices 1 2 3 4 5 6 
#
# 1 100.0275 65.4157 42.7787 0.0000 0.0000 0.0000
# 2 65.4157 100.0275 42.7787 0.0000 0.0000 0.0000
# 3 42.7787 42.7787 79.6812 0.0000 0.0000 0.0000
# 4 0.0000 0.0000 0.0000 24.9035 0.0000 0.0000
# 5 0.0000 0.0000 0.0000 0.0000 24.9035 0.0000
# 6 0.0000 0.0000 0.0000 0.0000 0.0000 183.2147
#
#
#
# Elastic Compliance Matrix: (Units=1/GPa)
#
#
# Indices 1 2 3 4 5 6 
#
# 1 0.018630 -0.010262 -0.004492 0.000000 0.000000 0.000000
# 2 -0.010262 0.018630 -0.004492 0.000000 0.000000 0.000000
# 3 -0.004492 -0.004492 0.017374 0.000000 0.000000 0.000000
# 4 0.000000 0.000000 0.000000 0.040155 0.000000 0.000000
# 5 0.000000 0.000000 0.000000 0.000000 0.040155 0.000000
# 6 0.000000 0.000000 0.000000 0.000000 0.000000 0.005458
#
#
# Mechanical properties :
#
#
# Convention : Reuss Voigt Hill
#
# Bulk Modulus (GPa) = 61.95997 64.63138 63.29567
# Shear Modulus (GPa) = 27.13342 55.18854 41.16098
#
# Velocity S-wave (km/s) = 3.74415 5.33981 4.61152
# Velocity P-wave (km/s) = 7.12064 8.45046 7.81389
#
# Compressibility (1/GPa) = 0.01613945
#
# Stress axis : x y z
#
# Youngs Moduli (GPa) = 53.67766 53.67766 57.55855
#
# Poissons Ratio (x) = 0.55085 0.25857
# Poissons Ratio (y) = 0.55085 0.25857
# Poissons Ratio (z) = 0.24114 0.24114
#
# Static dielectric constant tensor:
#      x y z
#    x 1.675180 0.000000 0.000000 
#    y 0.000000 1.675180 0.000000 
#    z 0.000000 0.000000 1.669030 
# 
# From -- ./inp_files/4417.got.cif
#   From: 2010.05.17/outbox.cif.g08.bks.cpg/sg140_3_cif.got.tgz:4417.got - 2010.06.21 00:45:31.
