data_PCOD9572401
_publ_section_title
;
Structure prediction by ZEFSAII (Michael W. Deem and Ramdas Pophale) SiO2 
 PCOD9572401
Probable space group: I 4/M C M
;
_chemical_formula_sum "Si O2"
_cell_formula_units_Z 176
_cell_length_a 18.742777
_cell_length_b 18.742777
_cell_length_c 24.814478
_cell_angle_alpha 90.000000
_cell_angle_beta 90.000000
_cell_angle_gamma 90.000000
_cell_volume 8717.119905
_symmetry_space_group_name_H-M "I 4/M C M"
_symmetry_group_IT_number 140
_symmetry_cell_setting 'tetragonal'
loop_
_space_group_symop_operation_xyz
x,y,z
-y,x,z
-x,-y,z
y,-x,z
x,-y,1/2-z
-x,y,1/2-z
y,x,1/2-z
-y,-x,1/2-z
-x,-y,-z
y,-x,-z
x,y,-z
-y,x,-z
-x,y,1/2+z
x,-y,1/2+z
-y,-x,1/2+z
y,x,1/2+z
1/2+x,1/2+y,1/2+z
1/2-y,1/2+x,1/2+z
1/2-x,1/2-y,1/2+z
1/2+y,1/2-x,1/2+z
1/2+x,1/2-y,-z
1/2-x,1/2+y,-z
1/2+y,1/2+x,-z
1/2-y,1/2-x,-z
1/2-x,1/2-y,1/2-z
1/2+y,1/2-x,1/2-z
1/2+x,1/2+y,1/2-z
1/2-y,1/2+x,1/2-z
1/2-x,1/2+y,z
1/2+x,1/2-y,z
1/2-y,1/2-x,z
1/2+y,1/2+x,z
loop_
_atom_site_type_symbol
_atom_site_label
_atom_site_fract_x
_atom_site_fract_y
_atom_site_fract_z
Si Si1 0.371451 0.285992 0.062551
Si Si2 0.691157 0.191157 0.236671
Si Si3 0.382709 0.882709 0.062979
Si Si4 0.950961 0.109139 0.121704
Si Si5 0.350566 0.963195 0.434748
Si Si6 0.804174 0.080679 0.273224
Si Si7 0.219880 0.719880 0.613100
O O1 0.424363 0.352999 0.067550
O O2 0.415282 0.216341 0.080553
O O3 0.302689 0.294165 0.100588
O O4 0.349135 0.276716 0.000000
O O5 0.750000 0.250000 0.250000
O O6 0.727788 0.119440 0.261286
O O7 0.692509 0.192509 0.171264
O O8 0.456815 0.854008 0.086663
O O9 0.323765 0.823765 0.069350
O O10 0.396655 0.896655 0.000000
O O11 0.930084 0.167546 0.166301
O O12 0.034244 0.090569 0.126977
O O13 0.346538 0.965485 0.500000
O O14 0.422544 0.922544 0.419879
O O15 0.865619 0.134382 0.250000
O O16 0.804542 0.000000 0.250000
#
# Coordination Sequence:
#
# PCOD9572401 Si02
#       7
#    32  16  16  32  32  32  16
#     4  11  23  39  61  87 128 175 214 257 312 384
#     4  10  24  42  63  96 126 160 206 274 334 389
#     4  10  21  34  60  90 117 154 208 259 306 366
#     4  11  25  41  63  95 128 169 215 266 328 394
#     4   9  18  36  57  83 116 159 207 255 305 354
#     4  11  21  40  69  97 128 163 211 275 333 390
#     4  12  24  41  62  89 124 165 214 261 316 391
#
# _framework density 20.190155000000001
#
# number of rings (size 3 to 8) (size 9 to 14) (size 15 to 20)
#    0.000    1.455    2.727    3.273    2.545    2.000 
#    0.000    0.909    0.000    0.273    0.000    0.000 
#    0.000    0.000    0.182    0.000    0.000    0.000 
#
# Total GULP energy -490530.963358 kJ/mol
# GULP energy per Si atom -5574.215493 kJ/mol
# Density = 2.014420 g / cm^3
# Si number density = 20.190155 Si / 1000 Ang^3
#
#
#
# Elastic Constant Matrix: (Units=GPa)
#
#
# Indices 1 2 3 4 5 6 
#
# 1 132.0291 54.5437 13.9832 0.0000 0.0000 0.0000
# 2 54.5437 132.0293 13.9832 0.0000 0.0000 0.0000
# 3 13.9832 13.9832 36.6415 0.0000 0.0000 0.0000
# 4 0.0000 0.0000 0.0000 9.3440 0.0000 0.0000
# 5 0.0000 0.0000 0.0000 0.0000 9.3437 0.0000
# 6 0.0000 0.0000 0.0000 0.0000 0.0000 29.7502
#
#
#
# Elastic Compliance Matrix: (Units=1/GPa)
#
#
# Indices 1 2 3 4 5 6 
#
# 1 0.009295 -0.003610 -0.002170 0.000000 0.000000 0.000000
# 2 -0.003610 0.009295 -0.002170 0.000000 0.000000 0.000000
# 3 -0.002170 -0.002170 0.028947 0.000000 0.000000 0.000000
# 4 0.000000 0.000000 0.000000 0.107021 0.000000 0.000000
# 5 0.000000 0.000000 0.000000 0.000000 0.107024 0.000000
# 6 0.000000 0.000000 0.000000 0.000000 0.000000 0.033613
#
#
# Mechanical properties :
#
#
# Convention : Reuss Voigt Hill
#
# Bulk Modulus (GPa) = 31.60630 51.74668 41.67649
# Shear Modulus (GPa) = 15.54524 24.23355 19.88940
#
# Velocity S-wave (km/s) = 2.77779 3.46824 3.14204
# Velocity P-wave (km/s) = 5.09671 6.45938 5.81808
#
# Compressibility (1/GPa) = 0.03163927
#
# Stress axis : x y z
#
# Youngs Moduli (GPa) = 107.58071 107.58086 34.54551
#
# Poissons Ratio (x) = 0.38840 0.07495
# Poissons Ratio (y) = 0.38840 0.07495
# Poissons Ratio (z) = 0.23340 0.23340
#
# Static dielectric constant tensor:
#      x y z
#    x 1.728510 0.000000 0.000000 
#    y 0.000000 1.728510 0.000000 
#    z 0.000000 0.000000 1.663180 
# 
# From -- ./inp_files/10752.got.cif
#   From: 2010.05.17/outbox.cif.g08.bks.cpg/sg140_6_cif.got.tgz:10752.got - 2010.06.21 00:45:31.
