data_PCOD9572062
_publ_section_title
;
Structure prediction by ZEFSAII (Michael W. Deem and Ramdas Pophale) SiO2 
 PCOD9572062
Probable space group: I 4/M C M
;
_chemical_formula_sum "Si O2"
_cell_formula_units_Z 192
_cell_length_a 26.916780
_cell_length_b 26.916780
_cell_length_c 15.000395
_cell_angle_alpha 90.000000
_cell_angle_beta 90.000000
_cell_angle_gamma 90.000000
_cell_volume 10867.981866
_symmetry_space_group_name_H-M "I 4/M C M"
_symmetry_group_IT_number 140
_symmetry_cell_setting 'tetragonal'
loop_
_space_group_symop_operation_xyz
x,y,z
-y,x,z
-x,-y,z
y,-x,z
x,-y,1/2-z
-x,y,1/2-z
y,x,1/2-z
-y,-x,1/2-z
-x,-y,-z
y,-x,-z
x,y,-z
-y,x,-z
-x,y,1/2+z
x,-y,1/2+z
-y,-x,1/2+z
y,x,1/2+z
1/2+x,1/2+y,1/2+z
1/2-y,1/2+x,1/2+z
1/2-x,1/2-y,1/2+z
1/2+y,1/2-x,1/2+z
1/2+x,1/2-y,-z
1/2-x,1/2+y,-z
1/2+y,1/2+x,-z
1/2-y,1/2-x,-z
1/2-x,1/2-y,1/2-z
1/2+y,1/2-x,1/2-z
1/2+x,1/2+y,1/2-z
1/2-y,1/2+x,1/2-z
1/2-x,1/2+y,z
1/2+x,1/2-y,z
1/2-y,1/2-x,z
1/2+y,1/2+x,z
loop_
_atom_site_type_symbol
_atom_site_label
_atom_site_fract_x
_atom_site_fract_y
_atom_site_fract_z
Si Si1 0.744343 0.840884 0.000000
Si Si2 0.618308 0.197283 0.138831
Si Si3 0.421460 0.342254 0.239255
Si Si4 0.404104 0.769221 0.679989
Si Si5 0.839375 0.995788 0.602730
Si Si6 0.781518 0.495291 0.399215
Si Si7 0.175045 0.759401 0.500000
O O1 0.738795 0.874727 0.911957
O O2 0.700855 0.799146 0.000000
O O3 0.797862 0.812540 0.000000
O O4 0.648691 0.148691 0.107672
O O5 0.625662 0.202611 0.244112
O O6 0.559197 0.198103 0.123135
O O7 0.641663 0.244097 0.084980
O O8 0.370103 0.370103 0.250000
O O9 0.414538 0.283881 0.225602
O O10 0.453756 0.356831 0.151882
O O11 0.452746 0.353769 0.328276
O O12 0.457462 0.794437 0.661192
O O13 0.855365 0.991323 0.500000
O O14 0.778906 0.994464 0.602883
O O15 0.796605 0.506961 0.500000
O O16 0.220522 0.720522 0.500000
#
# Coordination Sequence:
#
# PCOD9572062 Si02
#       7
#    16  32  32  32  32  32  16
#     4  11  24  39  52  74 117 155 194 231 267 334
#     4  11  21  35  57  82 113 150 191 230 279 334
#     4  10  21  34  53  84 109 137 185 236 276 337
#     4  11  22  37  54  82 110 149 190 230 287 325
#     4   9  19  36  54  75 107 142 178 228 290 334
#     4  10  18  35  57  76 106 145 182 234 280 322
#     4   9  22  37  50  76 112 156 194 229 268 323
#
# _framework density 17.666573
#
# number of rings (size 3 to 8) (size 9 to 14) (size 15 to 20)
#    0.000    1.833    3.333    1.000    3.500    0.667 
#    0.000    2.500    0.000    4.000    0.000    4.667 
#    0.000   12.000    0.000    0.000    0.000    0.000 
#
# Total GULP energy -534972.665925 kJ/mol
# GULP energy per Si atom -5572.631937 kJ/mol
# Density = 1.762636 g / cm^3
# Si number density = 17.666573 Si / 1000 Ang^3
#
#
#
# Elastic Constant Matrix: (Units=GPa)
#
#
# Indices 1 2 3 4 5 6 
#
# 1 68.9275 30.5493 30.9201 0.0000 0.0000 0.0000
# 2 30.5493 68.9275 30.9201 0.0000 0.0000 0.0000
# 3 30.9201 30.9201 138.7334 0.0000 0.0000 0.0000
# 4 0.0000 0.0000 0.0000 12.2430 0.0000 0.0000
# 5 0.0000 0.0000 0.0000 0.0000 12.2428 0.0000
# 6 0.0000 0.0000 0.0000 0.0000 0.0000 13.3970
#
#
#
# Elastic Compliance Matrix: (Units=1/GPa)
#
#
# Indices 1 2 3 4 5 6 
#
# 1 0.018863 -0.007194 -0.002601 0.000000 0.000000 0.000000
# 2 -0.007194 0.018863 -0.002601 0.000000 0.000000 0.000000
# 3 -0.002601 -0.002601 0.008367 0.000000 0.000000 0.000000
# 4 0.000000 0.000000 0.000000 0.081680 0.000000 0.000000
# 5 0.000000 0.000000 0.000000 0.000000 0.081680 0.000000
# 6 0.000000 0.000000 0.000000 0.000000 0.000000 0.074644
#
#
# Mechanical properties :
#
#
# Convention : Reuss Voigt Hill
#
# Bulk Modulus (GPa) = 46.94189 51.26305 49.10247
# Shear Modulus (GPa) = 15.82338 19.85649 17.83994
#
# Velocity S-wave (km/s) = 2.99602 3.35619 3.18120
# Velocity P-wave (km/s) = 6.21264 6.64068 6.43022
#
# Compressibility (1/GPa) = 0.02130294
#
# Stress axis : x y z
#
# Youngs Moduli (GPa) = 53.01410 53.01409 119.51180
#
# Poissons Ratio (x) = 0.38136 0.31083
# Poissons Ratio (y) = 0.38136 0.31083
# Poissons Ratio (z) = 0.13788 0.13788
#
# Static dielectric constant tensor:
#      x y z
#    x 1.605780 0.000000 0.000000 
#    y 0.000000 1.605780 0.000000 
#    z 0.000000 0.000000 1.651840 
# 
# From -- ./inp_files/5222.got.cif
#   From: 2010.05.17/outbox.cif.g08.bks.cpg/sg140_3_cif.got.tgz:5222.got - 2010.06.21 00:45:31.
