data_PCOD9572812
_publ_section_title
;
Structure prediction by ZEFSAII (Michael W. Deem and Ramdas Pophale) SiO2 
 PCOD9572812
Probable space group: I 41/A M D
;
_chemical_formula_sum "Si O2"
_cell_formula_units_Z 68
_cell_length_a 16.460897
_cell_length_b 16.460897
_cell_length_c 8.957875
_cell_angle_alpha 90.000000
_cell_angle_beta 90.000000
_cell_angle_gamma 90.000000
_cell_volume 2427.235933
_symmetry_space_group_name_H-M "I 41/A M D"
_symmetry_group_IT_number 141
_space_group.IT_coordinate_system_code '2'
_symmetry_cell_setting 'tetragonal'
loop_
_space_group_symop_operation_xyz
x,y,z
1/4-y,3/4+x,1/4+z
-x,1/2-y,z
1/4+y,1/4-x,3/4+z
x,-y,-z
-x,1/2+y,-z
1/4+y,3/4+x,1/4-z
1/4-y,1/4-x,3/4-z
-x,-y,-z
3/4+y,1/4-x,3/4-z
x,1/2+y,-z
3/4-y,3/4+x,1/4-z
-x,y,z
x,1/2-y,z
3/4-y,1/4-x,3/4+z
3/4+y,3/4+x,1/4+z
1/2+x,1/2+y,1/2+z
3/4-y,1/4+x,3/4+z
1/2-x,-y,1/2+z
3/4+y,3/4-x,1/4+z
1/2+x,1/2-y,1/2-z
1/2-x,y,1/2-z
3/4+y,1/4+x,3/4-z
3/4-y,3/4-x,1/4-z
1/2-x,1/2-y,1/2-z
1/4+y,3/4-x,1/4-z
1/2+x,y,1/2-z
1/4-y,1/4+x,3/4-z
1/2-x,1/2+y,1/2+z
1/2+x,-y,1/2+z
1/4-y,3/4-x,1/4+z
1/4+y,1/4+x,3/4+z
loop_
_atom_site_type_symbol
_atom_site_label
_atom_site_fract_x
_atom_site_fract_y
_atom_site_fract_z
Si Si1 0.673854 0.844319 0.065262
Si Si2 0.500000 0.250000 0.625000
Si Si3 0.906165 0.750000 0.828673
Si Si4 0.337355 0.587355 0.375000
O O1 0.684149 0.750000 0.020122
O O2 0.584881 0.879492 0.023751
O O3 0.665395 0.846104 0.246327
O O4 0.752516 0.898712 0.037285
O O5 0.500000 0.326526 0.741090
O O6 0.000000 0.750000 0.777953
#
# Coordination Sequence:
#
# PCOD9572812 Si02
#       4
#    32   4  16  16
#     4  10  20  30  47  69  99 135 160 193 245 293
#     4   8  12  24  44  72 100 112 156 206 220 288
#     4   8  16  26  43  67  88 127 158 189 230 283
#     4  10  19  28  41  70 100 125 164 193 240 286
#
# _framework density 28.015405999999999
#
# number of rings (size 3 to 8) (size 9 to 14) (size 15 to 20)
#    0.706    1.882    0.000    4.235    6.588    0.000 
#    0.000    0.000    0.000    5.647    0.000    0.000 
#    0.000    0.000    0.000    0.000    0.000    0.000 
#
# Total GULP energy -189595.575635 kJ/mol
# GULP energy per Si atom -5576.340460 kJ/mol
# Density = 2.795164 g / cm^3
# Si number density = 28.015406 Si / 1000 Ang^3
#
#
#
# Elastic Constant Matrix: (Units=GPa)
#
#
# Indices 1 2 3 4 5 6 
#
# 1 202.6580 61.4444 -4.8303 0.0000 0.0000 0.0000
# 2 61.4444 202.6580 -4.8303 0.0000 0.0000 0.0000
# 3 -4.8303 -4.8303 112.7899 0.0000 0.0000 0.0000
# 4 0.0000 0.0000 0.0000 17.4286 0.0000 0.0000
# 5 0.0000 0.0000 0.0000 0.0000 17.4286 0.0000
# 6 0.0000 0.0000 0.0000 0.0000 0.0000 34.8806
#
#
#
# Elastic Compliance Matrix: (Units=1/GPa)
#
#
# Indices 1 2 3 4 5 6 
#
# 1 0.005437 -0.001645 0.000162 0.000000 0.000000 0.000000
# 2 -0.001645 0.005437 0.000162 0.000000 0.000000 0.000000
# 3 0.000162 0.000162 0.008880 0.000000 0.000000 0.000000
# 4 0.000000 0.000000 0.000000 0.057377 0.000000 0.000000
# 5 0.000000 0.000000 0.000000 0.000000 0.057377 0.000000
# 6 0.000000 0.000000 0.000000 0.000000 0.000000 0.028669
#
#
# Mechanical properties :
#
#
# Convention : Reuss Voigt Hill
#
# Bulk Modulus (GPa) = 58.43070 69.07485 63.75277
# Shear Modulus (GPa) = 29.15089 45.03568 37.09329
#
# Velocity S-wave (km/s) = 3.22923 4.01375 3.64267
# Velocity P-wave (km/s) = 5.89964 6.79631 6.36379
#
# Compressibility (1/GPa) = 0.01711429
#
# Stress axis : x y z
#
# Youngs Moduli (GPa) = 183.92794 183.92794 112.61325
#
# Poissons Ratio (x) = 0.30248 -0.01829
# Poissons Ratio (y) = 0.30248 -0.01829
# Poissons Ratio (z) = -0.02987 -0.02987
#
# Static dielectric constant tensor:
#      x y z
#    x 2.289880 0.000000 0.000000 
#    y 0.000000 2.289880 0.000000 
#    z 0.000000 0.000000 2.294320 
# 
# From -- ./inp_files/3868.got.cif
#   From: 2010.05.17/outbox.cif.g08.bks.cpg/sg141_2_cif.got.tgz:3868.got - 2010.05.20 13:30:51.
