data_PCOD9572591
_publ_section_title
;
Structure prediction by ZEFSAII (Michael W. Deem and Ramdas Pophale) SiO2 
 PCOD9572591
Probable space group: I 4/M C M
;
_chemical_formula_sum "Si O2"
_cell_formula_units_Z 96
_cell_length_a 13.917620
_cell_length_b 13.917620
_cell_length_c 20.102361
_cell_angle_alpha 90.000000
_cell_angle_beta 90.000000
_cell_angle_gamma 90.000000
_cell_volume 3893.830270
_symmetry_space_group_name_H-M "I 4/M C M"
_symmetry_group_IT_number 140
_symmetry_cell_setting 'tetragonal'
loop_
_space_group_symop_operation_xyz
x,y,z
-y,x,z
-x,-y,z
y,-x,z
x,-y,1/2-z
-x,y,1/2-z
y,x,1/2-z
-y,-x,1/2-z
-x,-y,-z
y,-x,-z
x,y,-z
-y,x,-z
-x,y,1/2+z
x,-y,1/2+z
-y,-x,1/2+z
y,x,1/2+z
1/2+x,1/2+y,1/2+z
1/2-y,1/2+x,1/2+z
1/2-x,1/2-y,1/2+z
1/2+y,1/2-x,1/2+z
1/2+x,1/2-y,-z
1/2-x,1/2+y,-z
1/2+y,1/2+x,-z
1/2-y,1/2-x,-z
1/2-x,1/2-y,1/2-z
1/2+y,1/2-x,1/2-z
1/2+x,1/2+y,1/2-z
1/2-y,1/2+x,1/2-z
1/2-x,1/2+y,z
1/2+x,1/2-y,z
1/2-y,1/2-x,z
1/2+y,1/2+x,z
loop_
_atom_site_type_symbol
_atom_site_label
_atom_site_fract_x
_atom_site_fract_y
_atom_site_fract_z
Si Si1 0.686457 0.585357 0.202026
Si Si2 0.651109 0.995556 0.620172
Si Si3 0.357121 0.695055 0.573995
O O1 0.648438 0.500000 0.250000
O O2 0.675960 0.675960 0.250000
O O3 0.791001 0.552541 0.179722
O O4 0.637247 0.617505 0.132770
O O5 0.587410 0.912591 0.585744
O O6 0.576034 0.076034 0.643144
O O7 0.731019 0.053694 0.579023
O O8 0.352519 0.653492 0.500000
O O9 0.261811 0.761811 0.584327
#
# Coordination Sequence:
#
# PCOD9572591 Si02
#       3
#    32  32  32
#     4  12  25  47  71 104 146 198 252 309 378 444
#     4  10  23  44  73 109 146 189 247 311 374 446
#     4  10  23  45  73 109 152 198 245 303 382 459
#
# _framework density 24.654387
#
# number of rings (size 3 to 8) (size 9 to 14) (size 15 to 20)
#    0.000    1.333    3.333    1.000    0.000    7.667 
#    0.000    5.000    0.000    2.000    0.000    0.000 
#    0.000    0.000    0.000    0.000    0.000    0.000 
#
# Total GULP energy -268004.135466 kJ/mol
# GULP energy per Si atom -5583.419489 kJ/mol
# Density = 2.459827 g / cm^3
# Si number density = 24.654387 Si / 1000 Ang^3
#
#
#
# Elastic Constant Matrix: (Units=GPa)
#
#
# Indices 1 2 3 4 5 6 
#
# 1 54.7555 114.7916 70.9392 0.0000 0.0000 0.0000
# 2 114.7916 54.7555 70.9392 0.0000 0.0000 0.0000
# 3 70.9392 70.9392 207.9167 0.0000 0.0000 0.0000
# 4 0.0000 0.0000 0.0000 -0.7152 0.0000 0.0000
# 5 0.0000 0.0000 0.0000 0.0000 -0.7152 0.0000
# 6 0.0000 0.0000 0.0000 0.0000 0.0000 56.7008
#
#
#
# Elastic Compliance Matrix: (Units=1/GPa)
#
#
# Indices 1 2 3 4 5 6 
#
# 1 -0.004201 0.012456 -0.002817 0.000000 0.000000 0.000000
# 2 0.012456 -0.004201 -0.002817 0.000000 0.000000 0.000000
# 3 -0.002817 -0.002817 0.006732 0.000000 0.000000 0.000000
# 4 0.000000 0.000000 0.000000 -1.398292 -0.000001 0.000000
# 5 0.000000 0.000000 0.000000 -0.000001 -1.398287 0.000000
# 6 0.000000 0.000000 0.000000 0.000000 0.000000 0.017636
#
#
# Mechanical properties :
#
#
# Convention : Reuss Voigt Hill
#
# Bulk Modulus (GPa) = 83.50448 92.30752 87.90600
# Shear Modulus (GPa) = -1.79194 15.10462 6.65634
#
# Velocity S-wave (km/s) = -0.85347 2.47787 1.64491
# Velocity P-wave (km/s) = 5.74216 6.76079 6.27219
#
# Compressibility (1/GPa) = 0.01197540
#
# Stress axis : x y z
#
# Youngs Moduli (GPa) = -238.04653 -238.04654 148.55424
#
# Poissons Ratio (x) = 2.96506 0.41840
# Poissons Ratio (y) = 2.96506 0.41840
# Poissons Ratio (z) = -0.67046 -0.67046
#
# Static dielectric constant tensor:
#      x y z
#    x 2.006940 0.000000 0.000000 
#    y 0.000000 2.006940 0.000000 
#    z 0.000000 0.000000 1.906780 
# 
# From -- ./inp_files/7668.got.cif
#   From: 2010.05.17/outbox.cif.g08.bks.cpg/sg140_4_cif.got.tgz:7668.got - 2010.06.21 00:45:31.
