data_PCOD9572213
_publ_section_title
;
Structure prediction by ZEFSAII (Michael W. Deem and Ramdas Pophale) SiO2 
 PCOD9572213
Probable space group: I 4/M C M
;
_chemical_formula_sum "Si O2"
_cell_formula_units_Z 136
_cell_length_a 17.805930
_cell_length_b 17.805930
_cell_length_c 20.023789
_cell_angle_alpha 90.000000
_cell_angle_beta 90.000000
_cell_angle_gamma 90.000000
_cell_volume 6348.565193
_symmetry_space_group_name_H-M "I 4/M C M"
_symmetry_group_IT_number 140
_symmetry_cell_setting 'tetragonal'
loop_
_space_group_symop_operation_xyz
x,y,z
-y,x,z
-x,-y,z
y,-x,z
x,-y,1/2-z
-x,y,1/2-z
y,x,1/2-z
-y,-x,1/2-z
-x,-y,-z
y,-x,-z
x,y,-z
-y,x,-z
-x,y,1/2+z
x,-y,1/2+z
-y,-x,1/2+z
y,x,1/2+z
1/2+x,1/2+y,1/2+z
1/2-y,1/2+x,1/2+z
1/2-x,1/2-y,1/2+z
1/2+y,1/2-x,1/2+z
1/2+x,1/2-y,-z
1/2-x,1/2+y,-z
1/2+y,1/2+x,-z
1/2-y,1/2-x,-z
1/2-x,1/2-y,1/2-z
1/2+y,1/2-x,1/2-z
1/2+x,1/2+y,1/2-z
1/2-y,1/2+x,1/2-z
1/2-x,1/2+y,z
1/2+x,1/2-y,z
1/2-y,1/2-x,z
1/2+y,1/2+x,z
loop_
_atom_site_type_symbol
_atom_site_label
_atom_site_fract_x
_atom_site_fract_y
_atom_site_fract_z
Si Si1 0.345416 0.038370 0.817304
Si Si2 0.203860 0.296141 0.500000
Si Si3 0.130264 0.841483 0.071519
Si Si4 0.817313 0.076613 0.288786
Si Si5 0.790584 0.582615 0.075988
O O1 0.407825 0.092176 0.847578
O O2 0.272359 0.083206 0.792199
O O3 0.375603 0.000000 0.750000
O O4 0.316855 0.977182 0.870004
O O5 0.160961 0.243189 0.443081
O O6 0.077159 0.844448 0.134786
O O7 0.205386 0.889960 0.084862
O O8 0.096711 0.865405 0.000000
O O9 0.855684 0.144316 0.250000
O O10 0.835177 0.000000 0.250000
O O11 0.844542 0.655459 0.079858
O O12 0.797488 0.552563 0.000000
#
# Coordination Sequence:
#
# PCOD9572213 Si02
#       5
#    32   8  32  32  32
#     4  11  25  39  56  86 124 167 211 253 301 369
#     4   8  16  32  66 104 121 162 207 274 304 378
#     4   9  17  36  66  95 126 159 210 264 313 374
#     4  11  25  44  63  91 123 162 213 268 334 388
#     4  10  19  38  65  95 128 164 208 254 307 369
#
# _framework density 21.422163000000001
#
# number of rings (size 3 to 8) (size 9 to 14) (size 15 to 20)
#    0.706    1.176    1.176    3.529    1.647    3.765 
#    0.000    2.353    0.000    0.000    0.000    4.941 
#    0.000    0.000    0.000    0.000    0.000    0.000 
#
# Total GULP energy -378718.036067 kJ/mol
# GULP energy per Si atom -5569.382883 kJ/mol
# Density = 2.137340 g / cm^3
# Si number density = 21.422163 Si / 1000 Ang^3
#
#
#
# Elastic Constant Matrix: (Units=GPa)
#
#
# Indices 1 2 3 4 5 6 
#
# 1 34.2346 39.9453 50.5679 0.0000 0.0000 0.0000
# 2 39.9453 34.2344 50.5678 0.0000 0.0000 0.0000
# 3 50.5679 50.5678 164.5320 0.0000 0.0000 0.0000
# 4 0.0000 0.0000 0.0000 27.1462 0.0000 0.0000
# 5 0.0000 0.0000 0.0000 0.0000 27.1466 0.0000
# 6 0.0000 0.0000 0.0000 0.0000 0.0000 20.2779
#
#
#
# Elastic Compliance Matrix: (Units=1/GPa)
#
#
# Indices 1 2 3 4 5 6 
#
# 1 -0.075951 0.099155 -0.007132 0.000000 0.000000 0.000000
# 2 0.099155 -0.075952 -0.007132 0.000000 0.000000 0.000000
# 3 -0.007132 -0.007132 0.010462 0.000000 0.000000 0.000000
# 4 0.000000 0.000000 0.000000 0.036838 0.000000 0.000000
# 5 0.000000 0.000000 0.000000 0.000000 0.036837 0.000000
# 6 0.000000 0.000000 0.000000 0.000000 0.000000 0.049315
#
#
# Mechanical properties :
#
#
# Convention : Reuss Voigt Hill
#
# Bulk Modulus (GPa) = 35.28213 57.24034 46.26123
# Shear Modulus (GPa) = -27.96601 21.04215 -3.46193
#
# Velocity S-wave (km/s) = -3.61705 3.13750 -1.27262
# Velocity P-wave (km/s) = 0.96870 6.31691 4.41390
#
# Compressibility (1/GPa) = 0.02834296
#
# Stress axis : x y z
#
# Youngs Moduli (GPa) = -13.16636 -13.16628 95.58843
#
# Poissons Ratio (x) = 1.30550 0.68169
# Poissons Ratio (y) = 1.30551 0.68169
# Poissons Ratio (z) = -0.09390 -0.09390
#
# Static dielectric constant tensor:
#      x y z
#    x 1.776130 0.000000 0.000000 
#    y 0.000000 1.776130 0.000000 
#    z 0.000000 0.000000 1.821230 
# 
# From -- ./inp_files/8095.got.cif
#   From: 2010.05.17/outbox.cif.g08.bks.cpg/sg140_5_cif.got.tgz:8095.got - 2010.06.21 00:45:31.
