data_PCOD9572202
_publ_section_title
;
Structure prediction by ZEFSAII (Michael W. Deem and Ramdas Pophale) SiO2 
 PCOD9572202
Probable space group: I 4/M C M
;
_chemical_formula_sum "Si O2"
_cell_formula_units_Z 176
_cell_length_a 25.480992
_cell_length_b 25.480992
_cell_length_c 14.543176
_cell_angle_alpha 90.000000
_cell_angle_beta 90.000000
_cell_angle_gamma 90.000000
_cell_volume 9442.607177
_symmetry_space_group_name_H-M "I 4/M C M"
_symmetry_group_IT_number 140
_symmetry_cell_setting 'tetragonal'
loop_
_space_group_symop_operation_xyz
x,y,z
-y,x,z
-x,-y,z
y,-x,z
x,-y,1/2-z
-x,y,1/2-z
y,x,1/2-z
-y,-x,1/2-z
-x,-y,-z
y,-x,-z
x,y,-z
-y,x,-z
-x,y,1/2+z
x,-y,1/2+z
-y,-x,1/2+z
y,x,1/2+z
1/2+x,1/2+y,1/2+z
1/2-y,1/2+x,1/2+z
1/2-x,1/2-y,1/2+z
1/2+y,1/2-x,1/2+z
1/2+x,1/2-y,-z
1/2-x,1/2+y,-z
1/2+y,1/2+x,-z
1/2-y,1/2-x,-z
1/2-x,1/2-y,1/2-z
1/2+y,1/2-x,1/2-z
1/2+x,1/2+y,1/2-z
1/2-y,1/2+x,1/2-z
1/2-x,1/2+y,z
1/2+x,1/2-y,z
1/2-y,1/2-x,z
1/2+y,1/2+x,z
loop_
_atom_site_type_symbol
_atom_site_label
_atom_site_fract_x
_atom_site_fract_y
_atom_site_fract_z
Si Si1 0.022307 0.724304 0.110026
Si Si2 0.212272 0.370498 0.720634
Si Si3 0.579354 0.837798 0.392321
Si Si4 0.823429 0.823429 0.250000
Si Si5 0.884617 0.107693 0.888941
Si Si6 0.343072 0.496085 0.389154
O O1 0.076842 0.718195 0.162081
O O2 0.999677 0.781763 0.137400
O O3 0.980764 0.677730 0.129498
O O4 0.030915 0.725342 0.000000
O O5 0.164103 0.335898 0.684916
O O6 0.198485 0.387188 0.824761
O O7 0.264473 0.336279 0.722287
O O8 0.586721 0.825001 0.500000
O O9 0.603467 0.896534 0.379036
O O10 0.859504 0.840821 0.164276
O O11 0.940938 0.131503 0.860543
O O12 0.876120 0.047062 0.862341
O O13 0.879889 0.112190 0.000000
O O14 0.343632 0.495295 0.500000
#
# Coordination Sequence:
#
# PCOD9572202 Si02
#       6
#    32  32  32  16  32  32
#     4  10  19  36  60  84 113 150 192 234 288 353
#     4  11  23  37  55  83 115 150 190 233 286 345
#     4   9  19  36  59  86 112 142 187 240 287 338
#     4  12  23  36  56  77 110 154 192 236 279 336
#     4  10  21  36  54  79 109 143 190 238 283 335
#     4   9  18  34  55  78 106 145 188 235 286 334
#
# _framework density 18.638919999999999
#
# number of rings (size 3 to 8) (size 9 to 14) (size 15 to 20)
#    0.000    2.000    1.818    1.909    0.000    3.636 
#    0.000    1.818    0.000    4.909    0.000    5.091 
#    0.000    0.000    0.000    0.000    0.000    0.000 
#
# Total GULP energy -490887.037921 kJ/mol
# GULP energy per Si atom -5578.261795 kJ/mol
# Density = 1.859650 g / cm^3
# Si number density = 18.638920 Si / 1000 Ang^3
#
#
#
# Elastic Constant Matrix: (Units=GPa)
#
#
# Indices 1 2 3 4 5 6 
#
# 1 -4.0032 162.1207 20.4301 0.0000 0.0000 0.0000
# 2 162.1207 -4.0032 20.4301 0.0000 0.0000 0.0000
# 3 20.4301 20.4301 56.5146 0.0000 0.0000 0.0000
# 4 0.0000 0.0000 0.0000 20.7739 0.0000 0.0000
# 5 0.0000 0.0000 0.0000 0.0000 20.7739 0.0000
# 6 0.0000 0.0000 0.0000 0.0000 0.0000 40.1670
#
#
#
# Elastic Compliance Matrix: (Units=1/GPa)
#
#
# Indices 1 2 3 4 5 6 
#
# 1 0.000478 0.006498 -0.002522 0.000000 0.000000 0.000000
# 2 0.006498 0.000478 -0.002522 0.000000 0.000000 0.000000
# 3 -0.002522 -0.002522 0.019518 0.000000 0.000000 0.000000
# 4 0.000000 0.000000 0.000000 0.048137 0.000000 0.000000
# 5 0.000000 0.000000 0.000000 0.000000 0.048137 0.000000
# 6 0.000000 0.000000 0.000000 0.000000 0.000000 0.024896
#
#
# Mechanical properties :
#
#
# Convention : Reuss Voigt Hill
#
# Bulk Modulus (GPa) = 42.76686 50.49665 46.63176
# Shear Modulus (GPa) = 34.12244 6.04476 20.08360
#
# Velocity S-wave (km/s) = 4.28332 1.80281 3.28610
# Velocity P-wave (km/s) = 6.88892 5.61109 6.28258
#
# Compressibility (1/GPa) = 0.02338259
#
# Stress axis : x y z
#
# Youngs Moduli (GPa) = 2090.94746 2090.94746 51.23512
#
# Poissons Ratio (x) = -13.58667 0.12921
# Poissons Ratio (y) = -13.58667 0.12921
# Poissons Ratio (z) = 5.27310 5.27310
#
# Static dielectric constant tensor:
#      x y z
#    x 1.642640 0.000000 0.000000 
#    y 0.000000 1.642640 0.000000 
#    z 0.000000 0.000000 1.663350 
# 
# From -- ./inp_files/4958.got.cif
#   From: 2010.05.17/outbox.cif.g08.bks.cpg/sg140_3_cif.got.tgz:4958.got - 2010.06.21 00:45:31.
