data_PCOD9572182
_publ_section_title
;
Structure prediction by ZEFSAII (Michael W. Deem and Ramdas Pophale) SiO2 
 PCOD9572182
Probable space group: I 4/M C M
;
_chemical_formula_sum "Si O2"
_cell_formula_units_Z 160
_cell_length_a 21.539657
_cell_length_b 21.539657
_cell_length_c 18.009919
_cell_angle_alpha 90.000000
_cell_angle_beta 90.000000
_cell_angle_gamma 90.000000
_cell_volume 8355.824814
_symmetry_space_group_name_H-M "I 4/M C M"
_symmetry_group_IT_number 140
_symmetry_cell_setting 'tetragonal'
loop_
_space_group_symop_operation_xyz
x,y,z
-y,x,z
-x,-y,z
y,-x,z
x,-y,1/2-z
-x,y,1/2-z
y,x,1/2-z
-y,-x,1/2-z
-x,-y,-z
y,-x,-z
x,y,-z
-y,x,-z
-x,y,1/2+z
x,-y,1/2+z
-y,-x,1/2+z
y,x,1/2+z
1/2+x,1/2+y,1/2+z
1/2-y,1/2+x,1/2+z
1/2-x,1/2-y,1/2+z
1/2+y,1/2-x,1/2+z
1/2+x,1/2-y,-z
1/2-x,1/2+y,-z
1/2+y,1/2+x,-z
1/2-y,1/2-x,-z
1/2-x,1/2-y,1/2-z
1/2+y,1/2-x,1/2-z
1/2+x,1/2+y,1/2-z
1/2-y,1/2+x,1/2-z
1/2-x,1/2+y,z
1/2+x,1/2-y,z
1/2-y,1/2-x,z
1/2+y,1/2+x,z
loop_
_atom_site_type_symbol
_atom_site_label
_atom_site_fract_x
_atom_site_fract_y
_atom_site_fract_z
Si Si1 0.063243 0.338756 0.654270
Si Si2 0.219991 0.173834 0.328727
Si Si3 0.474241 0.403160 0.909548
Si Si4 0.323930 0.923769 0.831551
Si Si5 0.288544 0.602959 0.912279
O O1 0.099151 0.400850 0.629638
O O2 0.067615 0.336138 0.743576
O O3 0.098444 0.278344 0.624860
O O4 0.991266 0.331811 0.632811
O O5 0.185185 0.185185 0.250000
O O6 0.272001 0.228000 0.333324
O O7 0.257204 0.109511 0.336195
O O8 0.168798 0.181806 0.391653
O O9 0.542482 0.426062 0.886525
O O10 0.450132 0.336303 0.884575
O O11 0.474211 0.402542 0.000000
O O12 0.375434 0.875434 0.860239
O O13 0.281528 0.596428 0.000000
#
# Coordination Sequence:
#
# PCOD9572182 Si02
#       5
#    32  32  32  32  32
#     4  10  20  35  55  82 113 144 185 236 288 338
#     4  10  19  35  55  76 108 145 179 222 275 331
#     4   8  16  32  50  70 102 142 179 216 263 324
#     4   9  19  36  58  81 107 144 190 235 282 338
#     4  11  22  33  54  84 113 144 183 228 282 343
#
# _framework density 19.148318
#
# number of rings (size 3 to 8) (size 9 to 14) (size 15 to 20)
#    0.000    2.400    2.000    1.200    2.800    2.000 
#    0.000    2.000    0.000    1.800    0.000    2.800 
#    0.000    0.000    0.000    0.000    0.000    0.000 
#
# Total GULP energy -446034.619196 kJ/mol
# GULP energy per Si atom -5575.432740 kJ/mol
# Density = 1.910474 g / cm^3
# Si number density = 19.148318 Si / 1000 Ang^3
#
#
#
# Elastic Constant Matrix: (Units=GPa)
#
#
# Indices 1 2 3 4 5 6 
#
# 1 105.8664 44.5058 3.4407 0.0000 0.0000 0.0000
# 2 44.5058 105.8664 3.4407 0.0000 0.0000 0.0000
# 3 3.4407 3.4407 3.2981 0.0000 0.0000 0.0000
# 4 0.0000 0.0000 0.0000 11.1214 0.0000 0.0000
# 5 0.0000 0.0000 0.0000 0.0000 11.1214 0.0000
# 6 0.0000 0.0000 0.0000 0.0000 0.0000 22.6629
#
#
#
# Elastic Compliance Matrix: (Units=1/GPa)
#
#
# Indices 1 2 3 4 5 6 
#
# 1 0.011640 -0.004657 -0.007285 0.000000 0.000000 0.000000
# 2 -0.004657 0.011640 -0.007285 0.000000 0.000000 0.000000
# 3 -0.007285 -0.007285 0.318407 0.000000 0.000000 0.000000
# 4 0.000000 0.000000 0.000000 0.089917 0.000000 0.000000
# 5 0.000000 0.000000 0.000000 0.000000 0.089917 0.000000
# 6 0.000000 0.000000 0.000000 0.000000 0.000000 0.044125
#
#
# Mechanical properties :
#
#
# Convention : Reuss Voigt Hill
#
# Bulk Modulus (GPa) = 3.29781 35.31169 19.30475
# Shear Modulus (GPa) = 7.09040 19.89071 13.49055
#
# Velocity S-wave (km/s) = 1.92638 3.22649 2.65718
# Velocity P-wave (km/s) = 2.58339 5.68872 4.41788
#
# Compressibility (1/GPa) = 0.30323168
#
# Stress axis : x y z
#
# Youngs Moduli (GPa) = 85.90818 85.90818 3.14064
#
# Poissons Ratio (x) = 0.40005 0.02288
# Poissons Ratio (y) = 0.40005 0.02288
# Poissons Ratio (z) = 0.62588 0.62588
#
# Static dielectric constant tensor:
#      x y z
#    x 1.689050 0.000000 0.000000 
#    y 0.000000 1.689050 0.000000 
#    z 0.000000 0.000000 1.648870 
# 
# From -- ./inp_files/6793.got.cif
#   From: 2010.05.17/outbox.cif.g08.bks.cpg/sg140_4_cif.got.tgz:6793.got - 2010.06.21 00:45:31.
