data_PCOD9572483
_publ_section_title
;
Structure prediction by ZEFSAII (Michael W. Deem and Ramdas Pophale) SiO2 
 PCOD9572483
Probable space group: I 4/M C M
;
_chemical_formula_sum "Si O2"
_cell_formula_units_Z 160
_cell_length_a 22.736373
_cell_length_b 22.736373
_cell_length_c 16.868129
_cell_angle_alpha 90.000000
_cell_angle_beta 90.000000
_cell_angle_gamma 90.000000
_cell_volume 8719.855427
_symmetry_space_group_name_H-M "I 4/M C M"
_symmetry_group_IT_number 140
_symmetry_cell_setting 'tetragonal'
loop_
_space_group_symop_operation_xyz
x,y,z
-y,x,z
-x,-y,z
y,-x,z
x,-y,1/2-z
-x,y,1/2-z
y,x,1/2-z
-y,-x,1/2-z
-x,-y,-z
y,-x,-z
x,y,-z
-y,x,-z
-x,y,1/2+z
x,-y,1/2+z
-y,-x,1/2+z
y,x,1/2+z
1/2+x,1/2+y,1/2+z
1/2-y,1/2+x,1/2+z
1/2-x,1/2-y,1/2+z
1/2+y,1/2-x,1/2+z
1/2+x,1/2-y,-z
1/2-x,1/2+y,-z
1/2+y,1/2+x,-z
1/2-y,1/2-x,-z
1/2-x,1/2-y,1/2-z
1/2+y,1/2-x,1/2-z
1/2+x,1/2+y,1/2-z
1/2-y,1/2+x,1/2-z
1/2-x,1/2+y,z
1/2+x,1/2-y,z
1/2-y,1/2-x,z
1/2+y,1/2+x,z
loop_
_atom_site_type_symbol
_atom_site_label
_atom_site_fract_x
_atom_site_fract_y
_atom_site_fract_z
Si Si1 0.009113 0.838526 0.908704
Si Si2 0.632373 0.616800 0.157139
Si Si3 0.780343 0.482134 0.661197
Si Si4 0.002011 0.403374 0.906371
Si Si5 0.757787 0.644712 0.905503
O O1 0.070896 0.863957 0.880704
O O2 0.952988 0.859613 0.857880
O O3 0.009267 0.768349 0.896769
O O4 0.997915 0.853588 0.000000
O O5 0.630736 0.630736 0.250000
O O6 0.688925 0.648492 0.117434
O O7 0.763096 0.500000 0.750000
O O8 0.844838 0.505364 0.642739
O O9 0.780155 0.412275 0.643089
O O10 0.060688 0.439313 0.883913
O O11 0.948285 0.448285 0.896739
O O12 0.006959 0.389153 0.000000
O O13 0.798337 0.701664 0.889073
O O14 0.762298 0.632445 0.000000
#
# Coordination Sequence:
#
# PCOD9572483 Si02
#       5
#    32  32  32  32  32
#     4  11  22  39  61  83 111 148 188 226 271 334
#     4  11  22  39  60  88 120 147 182 231 286 332
#     4  11  21  34  53  80 111 144 182 231 283 328
#     4   9  18  33  52  74 103 141 184 228 275 331
#     4  10  21  39  62  84 109 149 198 236 272 332
#
# _framework density 18.348928000000001
#
# number of rings (size 3 to 8) (size 9 to 14) (size 15 to 20)
#    0.000    1.600    0.000    9.000    0.000    4.000 
#    0.000    4.000    0.000    3.600    0.000    0.000 
#    0.000    0.000    0.000    0.000    0.000    0.000 
#
# Total GULP energy -446694.970216 kJ/mol
# GULP energy per Si atom -5583.687128 kJ/mol
# Density = 1.830716 g / cm^3
# Si number density = 18.348928 Si / 1000 Ang^3
#
#
#
# Elastic Constant Matrix: (Units=GPa)
#
#
# Indices 1 2 3 4 5 6 
#
# 1 86.3154 49.4378 35.8006 0.0000 0.0000 0.0000
# 2 49.4378 86.3154 35.8006 0.0000 0.0000 0.0000
# 3 35.8006 35.8006 81.2019 0.0000 0.0000 0.0000
# 4 0.0000 0.0000 0.0000 101.5197 0.0000 0.0000
# 5 0.0000 0.0000 0.0000 0.0000 101.5197 0.0000
# 6 0.0000 0.0000 0.0000 0.0000 0.0000 11.6583
#
#
#
# Elastic Compliance Matrix: (Units=1/GPa)
#
#
# Indices 1 2 3 4 5 6 
#
# 1 0.018358 -0.008759 -0.004232 0.000000 0.000000 0.000000
# 2 -0.008759 0.018358 -0.004232 0.000000 0.000000 0.000000
# 3 -0.004232 -0.004232 0.016046 0.000000 0.000000 0.000000
# 4 0.000000 0.000000 0.000000 0.009850 0.000000 0.000000
# 5 0.000000 0.000000 0.000000 0.000000 0.009850 0.000000
# 6 0.000000 0.000000 0.000000 0.000000 0.000000 0.085776
#
#
# Mechanical properties :
#
#
# Convention : Reuss Voigt Hill
#
# Bulk Modulus (GPa) = 54.59695 55.10117 54.84906
# Shear Modulus (GPa) = 25.15234 51.79247 38.47241
#
# Velocity S-wave (km/s) = 3.70642 5.31862 4.58395
# Velocity P-wave (km/s) = 6.93802 8.23479 7.61406
#
# Compressibility (1/GPa) = 0.01831604
#
# Stress axis : x y z
#
# Youngs Moduli (GPa) = 54.47365 54.47365 62.31943
#
# Poissons Ratio (x) = 0.47715 0.26372
# Poissons Ratio (y) = 0.47715 0.26372
# Poissons Ratio (z) = 0.23052 0.23052
#
# Static dielectric constant tensor:
#      x y z
#    x 1.626850 0.000000 0.000000 
#    y 0.000000 1.626850 0.000000 
#    z 0.000000 0.000000 1.649780 
# 
# From -- ./inp_files/4728.got.cif
#   From: 2010.05.17/outbox.cif.g08.bks.cpg/sg140_3_cif.got.tgz:4728.got - 2010.06.21 00:45:31.
