data_PCOD9572865
_publ_section_title
;
Structure prediction by ZEFSAII (Michael W. Deem and Ramdas Pophale) SiO2 
 PCOD9572865
Probable space group: I 41/A M D
;
_chemical_formula_sum "Si O2"
_cell_formula_units_Z 160
_cell_length_a 18.130907
_cell_length_b 18.130907
_cell_length_c 24.934343
_cell_angle_alpha 90.000000
_cell_angle_beta 90.000000
_cell_angle_gamma 90.000000
_cell_volume 8196.661304
_symmetry_space_group_name_H-M "I 41/A M D"
_symmetry_group_IT_number 141
_space_group.IT_coordinate_system_code '2'
_symmetry_cell_setting 'tetragonal'
loop_
_space_group_symop_operation_xyz
x,y,z
1/4-y,3/4+x,1/4+z
-x,1/2-y,z
1/4+y,1/4-x,3/4+z
x,-y,-z
-x,1/2+y,-z
1/4+y,3/4+x,1/4-z
1/4-y,1/4-x,3/4-z
-x,-y,-z
3/4+y,1/4-x,3/4-z
x,1/2+y,-z
3/4-y,3/4+x,1/4-z
-x,y,z
x,1/2-y,z
3/4-y,1/4-x,3/4+z
3/4+y,3/4+x,1/4+z
1/2+x,1/2+y,1/2+z
3/4-y,1/4+x,3/4+z
1/2-x,-y,1/2+z
3/4+y,3/4-x,1/4+z
1/2+x,1/2-y,1/2-z
1/2-x,y,1/2-z
3/4+y,1/4+x,3/4-z
3/4-y,3/4-x,1/4-z
1/2-x,1/2-y,1/2-z
1/4+y,3/4-x,1/4-z
1/2+x,y,1/2-z
1/4-y,1/4+x,3/4-z
1/2-x,1/2+y,1/2+z
1/2+x,-y,1/2+z
1/4-y,3/4-x,1/4+z
1/4+y,1/4+x,3/4+z
loop_
_atom_site_type_symbol
_atom_site_label
_atom_site_fract_x
_atom_site_fract_y
_atom_site_fract_z
Si Si1 0.312039 0.661557 0.038111
Si Si2 0.583166 0.663745 0.244626
Si Si3 0.195365 0.422179 0.800198
Si Si4 0.844843 0.914394 0.357952
Si Si5 0.086795 0.071887 0.336577
O O1 0.303253 0.750000 0.045192
O O2 0.237364 0.614197 0.044812
O O3 0.360621 0.627175 0.086217
O O4 0.336674 0.648193 0.976578
O O5 0.500000 0.637976 0.257614
O O6 0.580839 0.750000 0.234088
O O7 0.643236 0.648010 0.290649
O O8 0.612599 0.623868 0.191219
O O9 0.250000 0.433124 0.750000
O O10 0.256567 0.411711 0.846097
O O11 0.869840 0.999070 0.356184
O O12 0.112746 0.137255 0.375000
O O13 0.000000 0.057612 0.341257
#
# Coordination Sequence:
#
# PCOD9572865 Si02
#       5
#    32  32  32  32  32
#     4  11  22  38  60  90 123 158 201 256 313 369
#     4  10  20  35  55  83 125 172 211 253 313 377
#     4  10  19  33  57  85 119 160 204 254 301 363
#     4  11  22  36  62  93 122 159 209 264 308 366
#     4  11  24  43  67  90 123 162 203 254 321 384
#
# _framework density 19.520142
#
# number of rings (size 3 to 8) (size 9 to 14) (size 15 to 20)
#    0.000    1.400    4.000    3.600    0.000    4.600 
#    0.000    3.000    0.000    2.400    0.000    2.800 
#    0.000    0.000    0.000    0.000    0.000    0.000 
#
# Total GULP energy -445894.266076 kJ/mol
# GULP energy per Si atom -5573.678326 kJ/mol
# Density = 1.947571 g / cm^3
# Si number density = 19.520142 Si / 1000 Ang^3
#
#
#
# Elastic Constant Matrix: (Units=GPa)
#
#
# Indices 1 2 3 4 5 6 
#
# 1 66.2973 37.0619 38.0357 0.0000 0.0000 0.0000
# 2 37.0619 66.2896 38.0321 0.0000 0.0000 0.0000
# 3 38.0357 38.0321 119.3445 0.0000 0.0000 0.0000
# 4 0.0000 0.0000 0.0000 19.3912 0.0000 0.0000
# 5 0.0000 0.0000 0.0000 0.0000 19.3913 0.0000
# 6 0.0000 0.0000 0.0000 0.0000 0.0000 28.3501
#
#
#
# Elastic Compliance Matrix: (Units=1/GPa)
#
#
# Indices 1 2 3 4 5 6 
#
# 1 0.023424 -0.010785 -0.004028 0.000000 0.000000 0.000000
# 2 -0.010785 0.023426 -0.004028 0.000000 0.000000 0.000000
# 3 -0.004028 -0.004028 0.010947 0.000000 0.000000 0.000000
# 4 0.000000 0.000000 0.000000 0.051570 0.000000 0.000000
# 5 0.000000 0.000000 0.000000 0.000000 0.051570 0.000000
# 6 0.000000 0.000000 0.000000 0.000000 0.000000 0.035273
#
#
# Mechanical properties :
#
#
# Convention : Reuss Voigt Hill
#
# Bulk Modulus (GPa) = 49.71721 53.13230 51.42476
# Shear Modulus (GPa) = 20.78172 22.67997 21.73085
#
# Velocity S-wave (km/s) = 3.26641 3.41233 3.34016
# Velocity P-wave (km/s) = 6.30483 6.54245 6.42474
#
# Compressibility (1/GPa) = 0.02011376
#
# Stress axis : x y z
#
# Youngs Moduli (GPa) = 42.69184 42.68758 91.35214
#
# Poissons Ratio (x) = 0.46037 0.36800
# Poissons Ratio (y) = 0.46042 0.36798
# Poissons Ratio (z) = 0.17198 0.17195
#
# Static dielectric constant tensor:
#      x y z
#    x 1.696100 0.000000 0.000000 
#    y 0.000000 1.696100 0.000000 
#    z 0.000000 0.000000 1.773990 
# 
# From -- ./inp_files/12716.got.cif
#   From: 2010.05.17/outbox.cif.g08.bks.cpg/sg141_7_cif.got.tgz:12716.got - 2010.05.20 13:30:51.
