data_PCOD9572635
_publ_section_title
;
Structure prediction by ZEFSAII (Michael W. Deem and Ramdas Pophale) SiO2 
 PCOD9572635
Probable space group: I 4/M C M
;
_chemical_formula_sum "Si O2"
_cell_formula_units_Z 80
_cell_length_a 13.451295
_cell_length_b 13.451295
_cell_length_c 21.816293
_cell_angle_alpha 90.000000
_cell_angle_beta 90.000000
_cell_angle_gamma 90.000000
_cell_volume 3947.381962
_symmetry_space_group_name_H-M "I 4/M C M"
_symmetry_group_IT_number 140
_symmetry_cell_setting 'tetragonal'
loop_
_space_group_symop_operation_xyz
x,y,z
-y,x,z
-x,-y,z
y,-x,z
x,-y,1/2-z
-x,y,1/2-z
y,x,1/2-z
-y,-x,1/2-z
-x,-y,-z
y,-x,-z
x,y,-z
-y,x,-z
-x,y,1/2+z
x,-y,1/2+z
-y,-x,1/2+z
y,x,1/2+z
1/2+x,1/2+y,1/2+z
1/2-y,1/2+x,1/2+z
1/2-x,1/2-y,1/2+z
1/2+y,1/2-x,1/2+z
1/2+x,1/2-y,-z
1/2-x,1/2+y,-z
1/2+y,1/2+x,-z
1/2-y,1/2-x,-z
1/2-x,1/2-y,1/2-z
1/2+y,1/2-x,1/2-z
1/2+x,1/2+y,1/2-z
1/2-y,1/2+x,1/2-z
1/2-x,1/2+y,z
1/2+x,1/2-y,z
1/2-y,1/2-x,z
1/2+y,1/2+x,z
loop_
_atom_site_type_symbol
_atom_site_label
_atom_site_fract_x
_atom_site_fract_y
_atom_site_fract_z
Si Si1 0.612232 0.726883 0.130098
Si Si2 0.366207 0.600656 0.000000
Si Si3 0.920626 0.251275 0.305767
O O1 0.675246 0.824755 0.141888
O O2 0.633857 0.686066 0.062487
O O3 0.654149 0.646438 0.179448
O O4 0.497086 0.752236 0.137568
O O5 0.366928 0.480659 0.000000
O O6 0.843731 0.343731 0.301564
O O7 0.000000 0.250837 0.250000
#
# Coordination Sequence:
#
# PCOD9572635 Si02
#       3
#    32  16  32
#     4  11  23  41  65  94 129 169 213 265 320 378
#     4  11  21  40  66  91 126 166 216 269 324 368
#     4  11  24  42  65  94 130 169 212 261 316 380
#
# _framework density 20.266597999999998
#
# number of rings (size 3 to 8) (size 9 to 14) (size 15 to 20)
#    0.000    1.000    4.000    3.000    0.000    6.800 
#    0.000    3.000    0.000    2.400    0.000    0.000 
#    0.000    0.000    0.000    0.000    0.000    0.000 
#
# Total GULP energy -223150.101015 kJ/mol
# GULP energy per Si atom -5578.752525 kJ/mol
# Density = 2.022047 g / cm^3
# Si number density = 20.266598 Si / 1000 Ang^3
#
#
#
# Elastic Constant Matrix: (Units=GPa)
#
#
# Indices 1 2 3 4 5 6 
#
# 1 99.5260 50.2943 23.5608 0.0000 0.0000 0.0000
# 2 50.2943 99.5260 23.5608 0.0000 0.0000 0.0000
# 3 23.5608 23.5608 109.8150 0.0000 0.0000 0.0000
# 4 0.0000 0.0000 0.0000 26.7054 0.0000 0.0000
# 5 0.0000 0.0000 0.0000 0.0000 26.7054 0.0000
# 6 0.0000 0.0000 0.0000 0.0000 0.0000 15.8300
#
#
#
# Elastic Compliance Matrix: (Units=1/GPa)
#
#
# Indices 1 2 3 4 5 6 
#
# 1 0.013735 -0.006577 -0.001536 0.000000 0.000000 0.000000
# 2 -0.006577 0.013735 -0.001536 0.000000 0.000000 0.000000
# 3 -0.001536 -0.001536 0.009765 0.000000 0.000000 0.000000
# 4 0.000000 0.000000 0.000000 0.037446 0.000000 0.000000
# 5 0.000000 0.000000 0.000000 0.000000 0.037446 0.000000
# 6 0.000000 0.000000 0.000000 0.000000 0.000000 0.063171
#
#
# Mechanical properties :
#
#
# Convention : Reuss Voigt Hill
#
# Bulk Modulus (GPa) = 55.74820 55.96656 55.85738
# Shear Modulus (GPa) = 24.92844 27.94487 26.43666
#
# Velocity S-wave (km/s) = 3.51098 3.71733 3.61563
# Velocity P-wave (km/s) = 6.63348 6.78969 6.71204
#
# Compressibility (1/GPa) = 0.01793780
#
# Stress axis : x y z
#
# Youngs Moduli (GPa) = 72.80728 72.80728 102.40463
#
# Poissons Ratio (x) = 0.47887 0.15726
# Poissons Ratio (y) = 0.47887 0.15726
# Poissons Ratio (z) = 0.11181 0.11181
#
# Static dielectric constant tensor:
#      x y z
#    x 1.691630 0.000000 0.000000 
#    y 0.000000 1.691630 0.000000 
#    z 0.000000 0.000000 1.802710 
# 
# From -- ./inp_files/7483.got.cif
#   From: 2010.05.17/outbox.cif.g08.bks.cpg/sg140_4_cif.got.tgz:7483.got - 2010.06.21 00:45:31.
