data_PCOD9572577
_publ_section_title
;
Structure prediction by ZEFSAII (Michael W. Deem and Ramdas Pophale) SiO2 
 PCOD9572577
Probable space group: I 4/M C M
;
_chemical_formula_sum "Si O2"
_cell_formula_units_Z 80
_cell_length_a 14.131020
_cell_length_b 14.131020
_cell_length_c 20.841917
_cell_angle_alpha 90.000000
_cell_angle_beta 90.000000
_cell_angle_gamma 90.000000
_cell_volume 4161.833332
_symmetry_space_group_name_H-M "I 4/M C M"
_symmetry_group_IT_number 140
_symmetry_cell_setting 'tetragonal'
loop_
_space_group_symop_operation_xyz
x,y,z
-y,x,z
-x,-y,z
y,-x,z
x,-y,1/2-z
-x,y,1/2-z
y,x,1/2-z
-y,-x,1/2-z
-x,-y,-z
y,-x,-z
x,y,-z
-y,x,-z
-x,y,1/2+z
x,-y,1/2+z
-y,-x,1/2+z
y,x,1/2+z
1/2+x,1/2+y,1/2+z
1/2-y,1/2+x,1/2+z
1/2-x,1/2-y,1/2+z
1/2+y,1/2-x,1/2+z
1/2+x,1/2-y,-z
1/2-x,1/2+y,-z
1/2+y,1/2+x,-z
1/2-y,1/2-x,-z
1/2-x,1/2-y,1/2-z
1/2+y,1/2-x,1/2-z
1/2+x,1/2+y,1/2-z
1/2-y,1/2+x,1/2-z
1/2-x,1/2+y,z
1/2+x,1/2-y,z
1/2-y,1/2-x,z
1/2+y,1/2+x,z
loop_
_atom_site_type_symbol
_atom_site_label
_atom_site_fract_x
_atom_site_fract_y
_atom_site_fract_z
Si Si1 0.059118 0.146561 0.000000
Si Si2 0.789054 0.289054 0.684345
Si Si3 0.701338 0.048880 0.894822
Si Si4 0.671992 0.828009 0.078045
O O1 0.078119 0.211820 0.939548
O O2 0.949101 0.117807 0.000000
O O3 0.750000 0.250000 0.750000
O O4 0.902178 0.276452 0.673545
O O5 0.736327 0.236327 0.624908
O O6 0.605761 0.105761 0.915043
O O7 0.690341 0.937640 0.903345
O O8 0.684795 0.815206 0.000000
#
# Coordination Sequence:
#
# PCOD9572577 Si02
#       4
#    16  16  32  16
#     4  11  21  35  58  95 134 171 212 267 332 398
#     4  10  26  44  61  90 135 184 218 261 330 410
#     4  10  23  37  64  95 131 169 217 270 336 390
#     4  12  23  38  69 100 135 167 213 289 338 385
#
# _framework density 19.222296
#
# number of rings (size 3 to 8) (size 9 to 14) (size 15 to 20)
#    1.200    0.200    2.000    3.600    2.800    2.400 
#    0.000    0.000    4.400    0.000    0.000    2.800 
#    0.000    0.000    0.000    0.000    0.000    0.000 
#
# Total GULP energy -222756.754517 kJ/mol
# GULP energy per Si atom -5568.918863 kJ/mol
# Density = 1.917855 g / cm^3
# Si number density = 19.222296 Si / 1000 Ang^3
#
#
#
# Elastic Constant Matrix: (Units=GPa)
#
#
# Indices 1 2 3 4 5 6 
#
# 1 105.1956 16.2485 38.5164 0.0000 0.0000 0.0000
# 2 16.2485 105.1954 38.5166 0.0000 0.0000 0.0000
# 3 38.5164 38.5166 108.7421 0.0000 0.0000 0.0000
# 4 0.0000 0.0000 0.0000 -282.5314 0.0000 0.0000
# 5 0.0000 0.0000 0.0000 0.0000 -282.6280 0.0000
# 6 0.0000 0.0000 0.0000 0.0000 0.0000 32.1414
#
#
#
# Elastic Compliance Matrix: (Units=1/GPa)
#
#
# Indices 1 2 3 4 5 6 
#
# 1 0.010931 -0.000311 -0.003762 0.000000 0.000000 0.000000
# 2 -0.000311 0.010932 -0.003762 0.000000 0.000000 0.000000
# 3 -0.003762 -0.003762 0.011861 0.000000 0.000000 0.000000
# 4 0.000000 0.000000 0.000000 -0.003539 0.000000 0.000000
# 5 0.000000 0.000000 0.000000 0.000000 -0.003538 0.000000
# 6 0.000000 0.000000 0.000000 0.000000 0.000000 0.031113
#
#
# Mechanical properties :
#
#
# Convention : Reuss Voigt Hill
#
# Bulk Modulus (GPa) = 55.38739 56.18846 55.78792
# Shear Modulus (GPa) = 62.93568 -91.54682 -14.30557
#
# Velocity S-wave (km/s) = 5.72818 -6.90860 -2.73099
# Velocity P-wave (km/s) = 8.52209 5.86037 4.37505
#
# Compressibility (1/GPa) = 0.01805465
#
# Stress axis : x y z
#
# Youngs Moduli (GPa) = 91.47894 91.47859 84.31072
#
# Poissons Ratio (x) = 0.02846 0.31715
# Poissons Ratio (y) = 0.02846 0.31716
# Poissons Ratio (z) = 0.34412 0.34412
#
# Static dielectric constant tensor:
#      x y z
#    x 1.693840 0.000000 0.000000 
#    y 0.000000 1.693840 0.000000 
#    z 0.000000 0.000000 1.710950 
# 
# From -- ./inp_files/7531.got.cif
#   From: 2010.05.17/outbox.cif.g08.bks.cpg/sg140_4_cif.got.tgz:7531.got - 2010.06.21 00:45:31.
