data_PCOD9572852
_publ_section_title
;
Structure prediction by ZEFSAII (Michael W. Deem and Ramdas Pophale) SiO2 
 PCOD9572852
Probable space group: I 41/A M D
;
_chemical_formula_sum "Si O2"
_cell_formula_units_Z 64
_cell_length_a 18.668653
_cell_length_b 18.668653
_cell_length_c 5.995504
_cell_angle_alpha 90.000000
_cell_angle_beta 90.000000
_cell_angle_gamma 90.000000
_cell_volume 2089.544689
_symmetry_space_group_name_H-M "I 41/A M D"
_symmetry_group_IT_number 141
_space_group.IT_coordinate_system_code '2'
_symmetry_cell_setting 'tetragonal'
loop_
_space_group_symop_operation_xyz
x,y,z
1/4-y,3/4+x,1/4+z
-x,1/2-y,z
1/4+y,1/4-x,3/4+z
x,-y,-z
-x,1/2+y,-z
1/4+y,3/4+x,1/4-z
1/4-y,1/4-x,3/4-z
-x,-y,-z
3/4+y,1/4-x,3/4-z
x,1/2+y,-z
3/4-y,3/4+x,1/4-z
-x,y,z
x,1/2-y,z
3/4-y,1/4-x,3/4+z
3/4+y,3/4+x,1/4+z
1/2+x,1/2+y,1/2+z
3/4-y,1/4+x,3/4+z
1/2-x,-y,1/2+z
3/4+y,3/4-x,1/4+z
1/2+x,1/2-y,1/2-z
1/2-x,y,1/2-z
3/4+y,1/4+x,3/4-z
3/4-y,3/4-x,1/4-z
1/2-x,1/2-y,1/2-z
1/4+y,3/4-x,1/4-z
1/2+x,y,1/2-z
1/4-y,1/4+x,3/4-z
1/2-x,1/2+y,1/2+z
1/2+x,-y,1/2+z
1/4-y,3/4-x,1/4+z
1/4+y,1/4+x,3/4+z
loop_
_atom_site_type_symbol
_atom_site_label
_atom_site_fract_x
_atom_site_fract_y
_atom_site_fract_z
Si Si1 0.303489 0.750000 0.961804
Si Si2 0.500000 0.164925 0.886772
Si Si3 0.645015 0.410524 0.386306
O O1 0.250000 0.750000 0.750000
O O2 0.387841 0.750000 0.891046
O O3 0.299881 0.679341 0.100798
O O4 0.500000 0.250000 0.839086
O O5 0.425109 0.124144 0.824186
O O6 0.680846 0.430846 0.625000
O O7 0.671881 0.421881 0.125000
#
# Coordination Sequence:
#
# PCOD9572852 Si02
#       3
#    16  16  32
#     4  10  21  34  51  84 128 160 206 302 402 406
#     4  10  19  32  56  80 109 162 244 280 304 422
#     4  10  20  33  53  81 107 155 224 283 325 406
#
# _framework density 30.628681
#
# number of rings (size 3 to 8) (size 9 to 14) (size 15 to 20)
#    0.000    2.000    2.500    1.500   10.500    0.000 
#    0.000   20.000    0.000    0.000    0.000    0.000 
#    0.000    0.000    0.000  486.000   27.000   90.000 
#
# Total GULP energy -178176.301796 kJ/mol
# GULP energy per Si atom -5568.009431 kJ/mol
# Density = 3.055897 g / cm^3
# Si number density = 30.628681 Si / 1000 Ang^3
#
#
#
# Elastic Constant Matrix: (Units=GPa)
#
#
# Indices 1 2 3 4 5 6 
#
# 1 132.8356 21.9243 86.3080 0.0000 0.0000 0.0000
# 2 21.9243 132.8356 86.3080 0.0000 0.0000 0.0000
# 3 86.3080 86.3080 357.6280 0.0000 0.0000 0.0000
# 4 0.0000 0.0000 0.0000 42.7044 0.0000 0.0000
# 5 0.0000 0.0000 0.0000 0.0000 42.7044 0.0000
# 6 0.0000 0.0000 0.0000 0.0000 0.0000 14.4826
#
#
#
# Elastic Compliance Matrix: (Units=1/GPa)
#
#
# Indices 1 2 3 4 5 6 
#
# 1 0.008929 -0.000087 -0.002134 0.000000 0.000000 0.000000
# 2 -0.000087 0.008929 -0.002134 0.000000 0.000000 0.000000
# 3 -0.002134 -0.002134 0.003826 0.000000 0.000000 0.000000
# 4 0.000000 0.000000 0.000000 0.023417 0.000000 0.000000
# 5 0.000000 0.000000 0.000000 0.000000 0.023417 0.000000
# 6 0.000000 0.000000 0.000000 0.000000 0.000000 0.069048
#
#
# Mechanical properties :
#
#
# Convention : Reuss Voigt Hill
#
# Bulk Modulus (GPa) = 77.07613 112.48663 94.78138
# Shear Modulus (GPa) = 33.20048 48.56223 40.88135
#
# Velocity S-wave (km/s) = 3.29594 3.98617 3.65737
# Velocity P-wave (km/s) = 6.30108 7.61523 6.98911
#
# Compressibility (1/GPa) = 0.01297418
#
# Stress axis : x y z
#
# Youngs Moduli (GPa) = 111.99575 111.99575 261.36177
#
# Poissons Ratio (x) = 0.00978 0.55769
# Poissons Ratio (y) = 0.00978 0.55769
# Poissons Ratio (z) = 0.23897 0.23897
#
# Static dielectric constant tensor:
#      x y z
#    x 2.671000 0.000000 0.000000 
#    y 0.000000 2.671000 0.000000 
#    z 0.000000 0.000000 2.618360 
# 
# From -- ./inp_files/815.got.cif
#   From: 2010.05.17/outbox.cif.g08.bks.cpg/sg141_1_cif.got.tgz:815.got - 2010.05.20 13:30:51.
