data_PCOD9572101
_publ_section_title
;
Structure prediction by ZEFSAII (Michael W. Deem and Ramdas Pophale) SiO2 
 PCOD9572101
Probable space group: I 4/M C M
;
_chemical_formula_sum "Si O2"
_cell_formula_units_Z 160
_cell_length_a 32.736929
_cell_length_b 32.736929
_cell_length_c 8.935669
_cell_angle_alpha 90.000000
_cell_angle_beta 90.000000
_cell_angle_gamma 90.000000
_cell_volume 9576.414731
_symmetry_space_group_name_H-M "I 4/M C M"
_symmetry_group_IT_number 140
_symmetry_cell_setting 'tetragonal'
loop_
_space_group_symop_operation_xyz
x,y,z
-y,x,z
-x,-y,z
y,-x,z
x,-y,1/2-z
-x,y,1/2-z
y,x,1/2-z
-y,-x,1/2-z
-x,-y,-z
y,-x,-z
x,y,-z
-y,x,-z
-x,y,1/2+z
x,-y,1/2+z
-y,-x,1/2+z
y,x,1/2+z
1/2+x,1/2+y,1/2+z
1/2-y,1/2+x,1/2+z
1/2-x,1/2-y,1/2+z
1/2+y,1/2-x,1/2+z
1/2+x,1/2-y,-z
1/2-x,1/2+y,-z
1/2+y,1/2+x,-z
1/2-y,1/2-x,-z
1/2-x,1/2-y,1/2-z
1/2+y,1/2-x,1/2-z
1/2+x,1/2+y,1/2-z
1/2-y,1/2+x,1/2-z
1/2-x,1/2+y,z
1/2+x,1/2-y,z
1/2-y,1/2-x,z
1/2+y,1/2+x,z
loop_
_atom_site_type_symbol
_atom_site_label
_atom_site_fract_x
_atom_site_fract_y
_atom_site_fract_z
Si Si1 0.165813 0.455481 0.679745
Si Si2 0.325604 0.174397 0.671167
Si Si3 0.455470 0.393136 0.820271
Si Si4 0.104296 0.604296 0.672643
Si Si5 0.387283 0.767359 0.319995
Si Si6 0.388008 0.326269 0.179752
O O1 0.170773 0.500000 0.750000
O O2 0.163799 0.457762 0.500000
O O3 0.125199 0.433587 0.743570
O O4 0.203914 0.425824 0.721112
O O5 0.315823 0.184178 0.500000
O O6 0.360664 0.139337 0.672783
O O7 0.346621 0.212378 0.752761
O O8 0.500000 0.389581 0.750000
O O9 0.431468 0.431468 0.750000
O O10 0.427697 0.353548 0.783315
O O11 0.457609 0.397069 0.000000
O O12 0.094646 0.594646 0.500000
O O13 0.384469 0.768499 0.500000
O O14 0.392158 0.720575 0.271322
O O15 0.349371 0.349371 0.250000
O O16 0.383805 0.326764 0.000000
#
# Coordination Sequence:
#
# PCOD9572101 Si02
#       6
#    32  16  32  16  32  32
#     4  10  19  31  49  74 102 131 164 202 245 292
#     4   9  17  29  48  74  98 124 164 209 248 287
#     4  10  20  35  54  76 101 129 163 202 245 293
#     4   9  17  31  49  69  97 131 165 203 246 291
#     4   9  18  33  51  71  99 133 165 201 247 295
#     4   9  19  35  53  73  99 132 167 202 244 295
#
# _framework density 16.707715
#
# number of rings (size 3 to 8) (size 9 to 14) (size 15 to 20)
#    0.000    2.600    0.000    1.800    0.000    5.800 
#    0.000    1.500    0.000    0.300    0.000    2.100 
#    0.000    0.000    0.000    0.000    0.000    0.000 
#
# Total GULP energy -446038.869580 kJ/mol
# GULP energy per Si atom -5575.485870 kJ/mol
# Density = 1.666969 g / cm^3
# Si number density = 16.707715 Si / 1000 Ang^3
#
#
#
# Elastic Constant Matrix: (Units=GPa)
#
#
# Indices 1 2 3 4 5 6 
#
# 1 93.3240 119.7704 49.1792 0.0000 0.0000 0.0000
# 2 119.7704 93.3242 49.1796 0.0000 0.0000 0.0000
# 3 49.1792 49.1796 53.9240 0.0000 0.0000 0.0000
# 4 0.0000 0.0000 0.0000 26.4316 0.0000 0.0000
# 5 0.0000 0.0000 0.0000 0.0000 26.4316 0.0000
# 6 0.0000 0.0000 0.0000 0.0000 0.0000 10.1612
#
#
#
# Elastic Compliance Matrix: (Units=1/GPa)
#
#
# Indices 1 2 3 4 5 6 
#
# 1 -0.014854 0.022958 -0.007391 0.000000 0.000000 0.000000
# 2 0.022958 -0.014854 -0.007391 0.000000 0.000000 0.000000
# 3 -0.007391 -0.007391 0.032027 0.000000 0.000000 0.000000
# 4 0.000000 0.000000 0.000000 0.037834 0.000000 0.000000
# 5 0.000000 0.000000 0.000000 0.000000 0.037834 0.000000
# 6 0.000000 0.000000 0.000000 0.000000 0.000000 0.098414
#
#
# Mechanical properties :
#
#
# Convention : Reuss Voigt Hill
#
# Bulk Modulus (GPa) = 53.56154 75.20339 64.38246
# Shear Modulus (GPa) = 30.07135 14.10106 22.08621
#
# Velocity S-wave (km/s) = 4.24706 2.90829 3.63976
# Velocity P-wave (km/s) = 7.49517 7.50909 7.50214
#
# Compressibility (1/GPa) = 0.01867011
#
# Stress axis : x y z
#
# Youngs Moduli (GPa) = -67.32190 -67.32141 31.22403
#
# Poissons Ratio (x) = 1.54560 0.23079
# Poissons Ratio (y) = 1.54561 0.23078
# Poissons Ratio (z) = -0.49761 -0.49758
#
# Static dielectric constant tensor:
#      x y z
#    x 1.547060 0.000000 0.000000 
#    y 0.000000 1.547060 0.000000 
#    z 0.000000 0.000000 1.559840 
# 
# From -- ./inp_files/1858.got.cif
#   From: 2010.05.17/outbox.cif.g08.bks.cpg/sg140_1_cif.got.tgz:1858.got - 2010.06.21 00:45:31.
