data_PCOD9572439
_publ_section_title
;
Structure prediction by ZEFSAII (Michael W. Deem and Ramdas Pophale) SiO2 
 PCOD9572439
Probable space group: I 4/M C M
;
_chemical_formula_sum "Si O2"
_cell_formula_units_Z 240
_cell_length_a 28.230834
_cell_length_b 28.230834
_cell_length_c 16.360835
_cell_angle_alpha 90.000000
_cell_angle_beta 90.000000
_cell_angle_gamma 90.000000
_cell_volume 13039.258087
_symmetry_space_group_name_H-M "I 4/M C M"
_symmetry_group_IT_number 140
_symmetry_cell_setting 'tetragonal'
loop_
_space_group_symop_operation_xyz
x,y,z
-y,x,z
-x,-y,z
y,-x,z
x,-y,1/2-z
-x,y,1/2-z
y,x,1/2-z
-y,-x,1/2-z
-x,-y,-z
y,-x,-z
x,y,-z
-y,x,-z
-x,y,1/2+z
x,-y,1/2+z
-y,-x,1/2+z
y,x,1/2+z
1/2+x,1/2+y,1/2+z
1/2-y,1/2+x,1/2+z
1/2-x,1/2-y,1/2+z
1/2+y,1/2-x,1/2+z
1/2+x,1/2-y,-z
1/2-x,1/2+y,-z
1/2+y,1/2+x,-z
1/2-y,1/2-x,-z
1/2-x,1/2-y,1/2-z
1/2+y,1/2-x,1/2-z
1/2+x,1/2+y,1/2-z
1/2-y,1/2+x,1/2-z
1/2-x,1/2+y,z
1/2+x,1/2-y,z
1/2-y,1/2-x,z
1/2+y,1/2+x,z
loop_
_atom_site_type_symbol
_atom_site_label
_atom_site_fract_x
_atom_site_fract_y
_atom_site_fract_z
Si Si1 0.105184 0.906299 0.096272
Si Si2 0.298247 0.718849 0.589590
Si Si3 0.702031 0.373999 0.326724
Si Si4 0.749267 0.991689 0.847831
Si Si5 0.860812 0.006057 0.348166
Si Si6 0.292492 0.915130 0.093182
Si Si7 0.259610 0.886145 0.668631
Si Si8 0.846294 0.346294 0.279434
O O1 0.148820 0.884945 0.148114
O O2 0.055925 0.883658 0.125847
O O3 0.110391 0.962575 0.111919
O O4 0.111361 0.896359 0.000000
O O5 0.295120 0.695803 0.500000
O O6 0.259027 0.759027 0.593983
O O7 0.289174 0.681468 0.660668
O O8 0.349325 0.741333 0.602384
O O9 0.738908 0.397658 0.388738
O O10 0.718042 0.390472 0.237560
O O11 0.804878 0.996983 0.872071
O O12 0.733018 0.938397 0.864788
O O13 0.747466 0.000000 0.750000
O O14 0.713739 0.029432 0.887293
O O15 0.862933 0.000000 0.250000
O O16 0.325907 0.885670 0.153665
O O17 0.305617 0.906708 0.000000
O O18 0.304952 0.864565 0.714425
#
# Coordination Sequence:
#
# PCOD9572439 Si02
#       8
#    32  32  32  32  32  32  32  16
#     4  12  24  42  61  84 112 144 197 265 328 379
#     4  11  24  37  53  82 120 158 207 259 308 368
#     4  11  22  37  58  82 113 155 201 252 311 376
#     4  11  20  39  61  86 116 157 208 250 301 363
#     4  11  24  40  61  84 110 150 198 256 322 381
#     4  11  22  37  60  90 126 160 203 256 303 361
#     4  11  22  39  62  85 118 167 207 249 304 375
#     4  10  21  36  58  88 124 165 200 240 307 359
#
# _framework density 18.405954999999999
#
# number of rings (size 3 to 8) (size 9 to 14) (size 15 to 20)
#    0.000    0.933    4.667    4.200    3.733    2.933 
#    0.000    1.333    0.000    0.000    0.000    0.000 
#    0.000    4.267    0.000    5.067    0.000    0.000 
#
# Total GULP energy -668548.731856 kJ/mol
# GULP energy per Si atom -5571.239432 kJ/mol
# Density = 1.836406 g / cm^3
# Si number density = 18.405955 Si / 1000 Ang^3
#
#
#
# Elastic Constant Matrix: (Units=GPa)
#
#
# Indices 1 2 3 4 5 6 
#
# 1 77.3462 51.6387 10.0999 0.0000 0.0000 0.0000
# 2 51.6387 77.3462 10.0999 0.0000 0.0000 0.0000
# 3 10.0999 10.0999 47.3080 0.0000 0.0000 0.0000
# 4 0.0000 0.0000 0.0000 10.7702 0.0000 0.0000
# 5 0.0000 0.0000 0.0000 0.0000 10.7702 0.0000
# 6 0.0000 0.0000 0.0000 0.0000 0.0000 27.1839
#
#
#
# Elastic Compliance Matrix: (Units=1/GPa)
#
#
# Indices 1 2 3 4 5 6 
#
# 1 0.023460 -0.015439 -0.001712 0.000000 0.000000 0.000000
# 2 -0.015439 0.023460 -0.001712 0.000000 0.000000 0.000000
# 3 -0.001712 -0.001712 0.021869 0.000000 0.000000 0.000000
# 4 0.000000 0.000000 0.000000 0.092848 0.000000 0.000000
# 5 0.000000 0.000000 0.000000 0.000000 0.092848 0.000000
# 6 0.000000 0.000000 0.000000 0.000000 0.000000 0.036786
#
#
# Mechanical properties :
#
#
# Convention : Reuss Voigt Hill
#
# Bulk Modulus (GPa) = 32.19412 38.40861 35.30136
# Shear Modulus (GPa) = 14.73385 18.42233 16.57809
#
# Velocity S-wave (km/s) = 2.83237 3.16712 3.00441
# Velocity P-wave (km/s) = 5.31277 5.85551 5.59073
#
# Compressibility (1/GPa) = 0.03106157
#
# Stress axis : x y z
#
# Youngs Moduli (GPa) = 42.62555 42.62555 45.72629
#
# Poissons Ratio (x) = 0.65810 0.07830
# Poissons Ratio (y) = 0.65810 0.07830
# Poissons Ratio (z) = 0.07299 0.07299
#
# Static dielectric constant tensor:
#      x y z
#    x 1.652570 0.000000 0.000000 
#    y 0.000000 1.652570 0.000000 
#    z 0.000000 0.000000 1.681410 
# 
# From -- ./inp_files/7272.got.cif
#   From: 2010.05.17/outbox.cif.g08.bks.cpg/sg140_4_cif.got.tgz:7272.got - 2010.06.21 00:45:31.
