data_PCOD9572052
_publ_section_title
;
Structure prediction by ZEFSAII (Michael W. Deem and Ramdas Pophale) SiO2 
 PCOD9572052
Probable space group: I 4/M C M
;
_chemical_formula_sum "Si O2"
_cell_formula_units_Z 192
_cell_length_a 17.847970
_cell_length_b 17.847970
_cell_length_c 30.280715
_cell_angle_alpha 90.000000
_cell_angle_beta 90.000000
_cell_angle_gamma 90.000000
_cell_volume 9645.922766
_symmetry_space_group_name_H-M "I 4/M C M"
_symmetry_group_IT_number 140
_symmetry_cell_setting 'tetragonal'
loop_
_space_group_symop_operation_xyz
x,y,z
-y,x,z
-x,-y,z
y,-x,z
x,-y,1/2-z
-x,y,1/2-z
y,x,1/2-z
-y,-x,1/2-z
-x,-y,-z
y,-x,-z
x,y,-z
-y,x,-z
-x,y,1/2+z
x,-y,1/2+z
-y,-x,1/2+z
y,x,1/2+z
1/2+x,1/2+y,1/2+z
1/2-y,1/2+x,1/2+z
1/2-x,1/2-y,1/2+z
1/2+y,1/2-x,1/2+z
1/2+x,1/2-y,-z
1/2-x,1/2+y,-z
1/2+y,1/2+x,-z
1/2-y,1/2-x,-z
1/2-x,1/2-y,1/2-z
1/2+y,1/2-x,1/2-z
1/2+x,1/2+y,1/2-z
1/2-y,1/2+x,1/2-z
1/2-x,1/2+y,z
1/2+x,1/2-y,z
1/2-y,1/2-x,z
1/2+y,1/2+x,z
loop_
_atom_site_type_symbol
_atom_site_label
_atom_site_fract_x
_atom_site_fract_y
_atom_site_fract_z
Si Si1 0.658129 0.618284 0.593484
Si Si2 0.945218 0.887405 0.500000
Si Si3 0.677263 0.051971 0.952952
Si Si4 0.530891 0.285010 0.870812
Si Si5 0.170806 0.453805 0.794269
Si Si6 0.893228 0.393228 0.938192
Si Si7 0.558120 0.058120 0.349207
Si Si8 0.768864 0.268864 0.948803
O O1 0.651086 0.577958 0.545693
O O2 0.580594 0.642719 0.616423
O O3 0.697909 0.557628 0.625007
O O4 0.703522 0.692903 0.579848
O O5 0.032872 0.903580 0.500000
O O6 0.621241 0.121241 0.949955
O O7 0.728375 0.048299 0.910640
O O8 0.630440 0.975294 0.953014
O O9 0.719095 0.056636 0.000000
O O10 0.554062 0.243224 0.825749
O O11 0.188861 0.500000 0.750000
O O12 0.123388 0.376613 0.786633
O O13 0.113204 0.508011 0.820408
O O14 0.896513 0.396513 0.885248
O O15 0.832674 0.332674 0.952286
O O16 0.500000 0.000000 0.372180
O O17 0.748453 0.248453 0.000000
#
# Coordination Sequence:
#
# PCOD9572052 Si02
#       8
#    32  16  32  32  32  16  16  16
#     4  12  26  43  64  93 134 181 230 285 338 399
#     4  11  22  41  70  98 124 176 255 304 323 364
#     4  11  23  36  54  85 127 174 217 259 320 405
#     4  12  27  44  65  93 131 174 229 284 342 393
#     4  11  22  41  72 105 132 165 214 272 338 415
#     4  12  20  35  58  86 131 176 209 257 331 404
#     4  10  18  32  59  94 128 160 203 262 318 390
#     4  12  24  36  57  88 132 177 222 275 337 400
#
# _framework density 19.904783999999999
#
# number of rings (size 3 to 8) (size 9 to 14) (size 15 to 20)
#    0.000    0.583    6.667    2.000    4.667    1.000 
#    0.000    0.833    0.000    1.000    0.000    1.167 
#    0.000    0.000    0.000    0.000    0.000    0.000 
#
# Total GULP energy -536598.545312 kJ/mol
# GULP energy per Si atom -5589.568180 kJ/mol
# Density = 1.985948 g / cm^3
# Si number density = 19.904784 Si / 1000 Ang^3
#
#
#
# Elastic Constant Matrix: (Units=GPa)
#
#
# Indices 1 2 3 4 5 6 
#
# 1 54.6100 14.8324 20.1923 0.0000 0.0000 0.0000
# 2 14.8324 54.6100 20.1923 0.0000 0.0000 0.0000
# 3 20.1923 20.1923 110.6280 0.0000 0.0000 0.0000
# 4 0.0000 0.0000 0.0000 15.5520 0.0000 0.0000
# 5 0.0000 0.0000 0.0000 0.0000 15.5520 0.0000
# 6 0.0000 0.0000 0.0000 0.0000 0.0000 38.7877
#
#
#
# Elastic Compliance Matrix: (Units=1/GPa)
#
#
# Indices 1 2 3 4 5 6 
#
# 1 0.020625 -0.004515 -0.002941 0.000000 0.000000 0.000000
# 2 -0.004515 0.020625 -0.002941 0.000000 0.000000 0.000000
# 3 -0.002941 -0.002941 0.010113 0.000000 0.000000 0.000000
# 4 0.000000 0.000000 0.000000 0.064300 0.000000 0.000000
# 5 0.000000 0.000000 0.000000 0.000000 0.064300 0.000000
# 6 0.000000 0.000000 0.000000 0.000000 0.000000 0.025781
#
#
# Mechanical properties :
#
#
# Convention : Reuss Voigt Hill
#
# Bulk Modulus (GPa) = 32.71016 36.69800 34.70408
# Shear Modulus (GPa) = 21.12136 24.95374 23.03755
#
# Velocity S-wave (km/s) = 3.26102 3.54454 3.40573
# Velocity P-wave (km/s) = 5.53606 5.93536 5.73918
#
# Compressibility (1/GPa) = 0.03057154
#
# Stress axis : x y z
#
# Youngs Moduli (GPa) = 48.48448 48.48448 98.88502
#
# Poissons Ratio (x) = 0.21889 0.29078
# Poissons Ratio (y) = 0.21889 0.29078
# Poissons Ratio (z) = 0.14257 0.14257
#
# Static dielectric constant tensor:
#      x y z
#    x 1.723150 0.000000 0.000000 
#    y 0.000000 1.723150 0.000000 
#    z 0.000000 0.000000 1.693380 
# 
# From -- ./inp_files/11692.got.cif
#   From: 2010.05.17/outbox.cif.g08.bks.cpg/sg140_6_cif.got.tgz:11692.got - 2010.06.21 00:45:31.
