data_PCOD9572196
_publ_section_title
;
Structure prediction by ZEFSAII (Michael W. Deem and Ramdas Pophale) SiO2 
 PCOD9572196
Probable space group: I 4/M C M
;
_chemical_formula_sum "Si O2"
_cell_formula_units_Z 160
_cell_length_a 29.871252
_cell_length_b 29.871252
_cell_length_c 10.559580
_cell_angle_alpha 90.000000
_cell_angle_beta 90.000000
_cell_angle_gamma 90.000000
_cell_volume 9422.225548
_symmetry_space_group_name_H-M "I 4/M C M"
_symmetry_group_IT_number 140
_symmetry_cell_setting 'tetragonal'
loop_
_space_group_symop_operation_xyz
x,y,z
-y,x,z
-x,-y,z
y,-x,z
x,-y,1/2-z
-x,y,1/2-z
y,x,1/2-z
-y,-x,1/2-z
-x,-y,-z
y,-x,-z
x,y,-z
-y,x,-z
-x,y,1/2+z
x,-y,1/2+z
-y,-x,1/2+z
y,x,1/2+z
1/2+x,1/2+y,1/2+z
1/2-y,1/2+x,1/2+z
1/2-x,1/2-y,1/2+z
1/2+y,1/2-x,1/2+z
1/2+x,1/2-y,-z
1/2-x,1/2+y,-z
1/2+y,1/2+x,-z
1/2-y,1/2-x,-z
1/2-x,1/2-y,1/2-z
1/2+y,1/2-x,1/2-z
1/2+x,1/2+y,1/2-z
1/2-y,1/2+x,1/2-z
1/2-x,1/2+y,z
1/2+x,1/2-y,z
1/2-y,1/2-x,z
1/2+y,1/2+x,z
loop_
_atom_site_type_symbol
_atom_site_label
_atom_site_fract_x
_atom_site_fract_y
_atom_site_fract_z
Si Si1 0.109865 0.185264 0.250000
Si Si2 0.447183 0.699282 0.000000
Si Si3 0.500000 0.133389 0.000000
Si Si4 0.859319 0.287515 0.750000
Si Si5 0.447183 0.699282 0.500000
Si Si6 0.801253 0.416175 0.000000
Si Si7 0.416175 0.801253 0.000000
Si Si8 0.500000 0.925406 0.250000
O O1 0.146050 0.146050 0.250000
O O2 0.078574 0.183052 0.125744
O O3 0.135786 0.233429 0.250000
O O4 0.078574 0.183052 0.374256
O O5 0.500000 0.688657 0.000000
O O6 0.440322 0.752924 0.000000
O O7 0.455240 0.162814 0.000000
O O8 0.544760 0.162814 0.000000
O O9 0.500000 0.103991 0.125171
O O10 0.810283 0.310283 0.750000
O O11 0.885595 0.303704 0.875112
O O12 0.885595 0.303704 0.624888
O O13 0.440323 0.752924 0.500000
O O14 0.456965 0.956965 0.250001
#
# Coordination Sequence:
#
# PCOD9572196 Si02
#       8
#    32  16  16  32  16  16  16  16
#     4  10  21  35  55  83 115 147 184 224 257 308
#     4  10  19  36  57  80 112 146 175 217 275 308
#     4  12  22  37  60  76  96 130 172 228 287 334
#     4  10  21  35  52  76 111 148 181 219 264 318
#     4  10  19  36  57  80 112 146 175 217 275 308
#     4  10  21  34  53  80 104 130 177 228 271 325
#     4  10  21  34  53  80 104 130 177 228 271 325
#     4  11  26  42  52  68  94 128 170 220 286 350
#
# _framework density 16.981126
#
# number of rings (size 3 to 8) (size 9 to 14) (size 15 to 20)
#    0.000    1.700    1.000    3.600    0.000    6.000 
#    0.000    0.000    0.000    7.200    0.000    0.000 
#    0.000   28.000    0.000    0.000    0.000    0.000 
#
# Total GULP energy -446751.442626 kJ/mol
# GULP energy per Si atom -5584.393033 kJ/mol
# Density = 1.694248 g / cm^3
# Si number density = 16.981126 Si / 1000 Ang^3
#
#
#
# Elastic Constant Matrix: (Units=GPa)
#
#
# Indices 1 2 3 4 5 6 
#
# 1 115.9753 87.2848 76.3920 0.0000 0.0000 0.0000
# 2 87.2848 115.9753 76.3920 0.0000 0.0000 0.0000
# 3 76.3920 76.3920 190.8384 0.0000 0.0000 0.0000
# 4 0.0000 0.0000 0.0000 20.8763 0.0000 0.0000
# 5 0.0000 0.0000 0.0000 0.0000 20.8763 0.0000
# 6 0.0000 0.0000 0.0000 0.0000 0.0000 56.5029
#
#
#
# Elastic Compliance Matrix: (Units=1/GPa)
#
#
# Indices 1 2 3 4 5 6 
#
# 1 0.020946 -0.013909 -0.002817 0.000000 0.000000 0.000000
# 2 -0.013909 0.020946 -0.002817 0.000000 0.000000 0.000000
# 3 -0.002817 -0.002817 0.007495 0.000000 0.000000 0.000000
# 4 0.000000 0.000000 0.000000 0.047901 0.000000 0.000000
# 5 0.000000 0.000000 0.000000 0.000000 0.047901 0.000000
# 6 0.000000 0.000000 0.000000 0.000000 0.000000 0.017698
#
#
# Mechanical properties :
#
#
# Convention : Reuss Voigt Hill
#
# Bulk Modulus (GPa) = 97.07006 100.32517 98.69761
# Shear Modulus (GPa) = 24.34183 31.83243 28.08713
#
# Velocity S-wave (km/s) = 3.79022 4.33434 4.07138
# Velocity P-wave (km/s) = 8.74311 9.17918 8.96379
#
# Compressibility (1/GPa) = 0.01030184
#
# Stress axis : x y z
#
# Youngs Moduli (GPa) = 47.74172 47.74172 133.41707
#
# Poissons Ratio (x) = 0.66403 0.37583
# Poissons Ratio (y) = 0.66403 0.37583
# Poissons Ratio (z) = 0.13449 0.13449
#
# Static dielectric constant tensor:
#      x y z
#    x 1.548710 0.000000 0.000000 
#    y 0.000000 1.548710 0.000000 
#    z 0.000000 0.000000 1.562220 
# 
# From -- ./inp_files/3246.got.cif
#   From: 2010.05.17/outbox.cif.g08.bks.cpg/sg140_2_cif.got.tgz:3246.got - 2010.06.21 00:45:31.
