data_PCOD9572671
_publ_section_title
;
Structure prediction by ZEFSAII (Michael W. Deem and Ramdas Pophale) SiO2 
 PCOD9572671
Probable space group: I 4/M C M
;
_chemical_formula_sum "Si O2"
_cell_formula_units_Z 80
_cell_length_a 13.130669
_cell_length_b 13.130669
_cell_length_c 24.082797
_cell_angle_alpha 90.000000
_cell_angle_beta 90.000000
_cell_angle_gamma 90.000000
_cell_volume 4152.222642
_symmetry_space_group_name_H-M "I 4/M C M"
_symmetry_group_IT_number 140
_symmetry_cell_setting 'tetragonal'
loop_
_space_group_symop_operation_xyz
x,y,z
-y,x,z
-x,-y,z
y,-x,z
x,-y,1/2-z
-x,y,1/2-z
y,x,1/2-z
-y,-x,1/2-z
-x,-y,-z
y,-x,-z
x,y,-z
-y,x,-z
-x,y,1/2+z
x,-y,1/2+z
-y,-x,1/2+z
y,x,1/2+z
1/2+x,1/2+y,1/2+z
1/2-y,1/2+x,1/2+z
1/2-x,1/2-y,1/2+z
1/2+y,1/2-x,1/2+z
1/2+x,1/2-y,-z
1/2-x,1/2+y,-z
1/2+y,1/2+x,-z
1/2-y,1/2-x,-z
1/2-x,1/2-y,1/2-z
1/2+y,1/2-x,1/2-z
1/2+x,1/2+y,1/2-z
1/2-y,1/2+x,1/2-z
1/2-x,1/2+y,z
1/2+x,1/2-y,z
1/2-y,1/2-x,z
1/2+y,1/2+x,z
loop_
_atom_site_type_symbol
_atom_site_label
_atom_site_fract_x
_atom_site_fract_y
_atom_site_fract_z
Si Si1 0.332736 0.478923 0.593417
Si Si2 0.003344 0.332755 0.000000
Si Si3 0.236859 0.907369 0.713824
O O1 0.415079 0.390758 0.582351
O O2 0.236313 0.481612 0.553591
O O3 0.302314 0.457848 0.657049
O O4 0.923146 0.423146 0.000000
O O5 0.115106 0.384895 0.000000
O O6 0.147322 0.852679 0.750000
O O7 0.320745 0.820745 0.702348
O O8 0.280243 0.000000 0.750000
#
# Coordination Sequence:
#
# PCOD9572671 Si02
#       3
#    32  16  32
#     4  11  23  41  69  97 126 167 221 275 325 390
#     4  11  26  45  64  92 134 177 216 269 336 400
#     4  11  23  40  65  96 132 174 218 271 335 395
#
# _framework density 19.266787999999998
#
# number of rings (size 3 to 8) (size 9 to 14) (size 15 to 20)
#    0.000    1.000    4.000    2.400    0.000    8.800 
#    0.000    0.000    0.000    0.000    0.000    0.000 
#    0.000    0.000    0.000    0.000    0.000    0.000 
#
# Total GULP energy -223374.120435 kJ/mol
# GULP energy per Si atom -5584.353011 kJ/mol
# Density = 1.922294 g / cm^3
# Si number density = 19.266788 Si / 1000 Ang^3
#
#
#
# Elastic Constant Matrix: (Units=GPa)
#
#
# Indices 1 2 3 4 5 6 
#
# 1 105.4119 48.9472 55.0003 0.0000 0.0000 0.0000
# 2 48.9472 105.4124 55.0012 0.0000 0.0000 0.0000
# 3 55.0003 55.0012 113.5082 0.0000 0.0000 0.0000
# 4 0.0000 0.0000 0.0000 5.8951 0.0000 0.0000
# 5 0.0000 0.0000 0.0000 0.0000 5.8896 0.0000
# 6 0.0000 0.0000 0.0000 0.0000 0.0000 9.2896
#
#
#
# Elastic Compliance Matrix: (Units=1/GPa)
#
#
# Indices 1 2 3 4 5 6 
#
# 1 0.013803 -0.003907 -0.004795 0.000000 0.000000 0.000000
# 2 -0.003907 0.013803 -0.004795 0.000000 0.000000 0.000000
# 3 -0.004795 -0.004795 0.013457 0.000000 0.000000 0.000000
# 4 0.000000 0.000000 0.000000 0.169633 0.000000 0.000000
# 5 0.000000 0.000000 0.000000 0.000000 0.169792 0.000000
# 6 0.000000 0.000000 0.000000 0.000000 0.000000 0.107647
#
#
# Mechanical properties :
#
#
# Convention : Reuss Voigt Hill
#
# Bulk Modulus (GPa) = 71.08319 71.35890 71.22104
# Shear Modulus (GPa) = 9.61876 15.24043 12.42959
#
# Velocity S-wave (km/s) = 2.23679 2.81556 2.54270
# Velocity P-wave (km/s) = 6.60645 6.90561 6.75769
#
# Compressibility (1/GPa) = 0.01406802
#
# Stress axis : x y z
#
# Youngs Moduli (GPa) = 72.44963 72.44927 74.31286
#
# Poissons Ratio (x) = 0.28309 0.35631
# Poissons Ratio (y) = 0.28309 0.35632
# Poissons Ratio (z) = 0.34738 0.34739
#
# Static dielectric constant tensor:
#      x y z
#    x 1.665970 0.000000 0.000000 
#    y 0.000000 1.665970 0.000000 
#    z 0.000000 0.000000 1.713620 
# 
# From -- ./inp_files/7500.got.cif
#   From: 2010.05.17/outbox.cif.g08.bks.cpg/sg140_4_cif.got.tgz:7500.got - 2010.06.21 00:45:31.
