data_PCOD9572926
_publ_section_title
;
Structure prediction by ZEFSAII (Michael W. Deem and Ramdas Pophale) SiO2 
 PCOD9572926
Probable space group: I 41/A M D
;
_chemical_formula_sum "Si O2"
_cell_formula_units_Z 176
_cell_length_a 27.704198
_cell_length_b 27.704198
_cell_length_c 11.307236
_cell_angle_alpha 90.000000
_cell_angle_beta 90.000000
_cell_angle_gamma 90.000000
_cell_volume 8678.559025
_symmetry_space_group_name_H-M "I 41/A M D"
_symmetry_group_IT_number 141
_space_group.IT_coordinate_system_code '2'
_symmetry_cell_setting 'tetragonal'
loop_
_space_group_symop_operation_xyz
x,y,z
1/4-y,3/4+x,1/4+z
-x,1/2-y,z
1/4+y,1/4-x,3/4+z
x,-y,-z
-x,1/2+y,-z
1/4+y,3/4+x,1/4-z
1/4-y,1/4-x,3/4-z
-x,-y,-z
3/4+y,1/4-x,3/4-z
x,1/2+y,-z
3/4-y,3/4+x,1/4-z
-x,y,z
x,1/2-y,z
3/4-y,1/4-x,3/4+z
3/4+y,3/4+x,1/4+z
1/2+x,1/2+y,1/2+z
3/4-y,1/4+x,3/4+z
1/2-x,-y,1/2+z
3/4+y,3/4-x,1/4+z
1/2+x,1/2-y,1/2-z
1/2-x,y,1/2-z
3/4+y,1/4+x,3/4-z
3/4-y,3/4-x,1/4-z
1/2-x,1/2-y,1/2-z
1/4+y,3/4-x,1/4-z
1/2+x,y,1/2-z
1/4-y,1/4+x,3/4-z
1/2-x,1/2+y,1/2+z
1/2+x,-y,1/2+z
1/4-y,3/4-x,1/4+z
1/4+y,1/4+x,3/4+z
loop_
_atom_site_type_symbol
_atom_site_label
_atom_site_fract_x
_atom_site_fract_y
_atom_site_fract_z
Si Si1 0.552848 0.694888 0.016382
Si Si2 0.445702 0.447077 0.793581
Si Si3 0.870835 0.376056 0.625735
Si Si4 0.120134 0.197424 0.832007
Si Si5 0.221494 0.528506 0.125000
Si Si6 0.383929 0.510428 0.636224
O O1 0.552747 0.697254 0.875000
O O2 0.500000 0.675986 0.056561
O O3 0.557198 0.750000 0.058716
O O4 0.596361 0.661523 0.054451
O O5 0.500000 0.453405 0.843345
O O6 0.402538 0.424857 0.872515
O O7 0.449225 0.406023 0.692275
O O8 0.425342 0.493656 0.725877
O O9 0.865904 0.347593 0.750544
O O10 0.815622 0.380979 0.589040
O O11 0.066459 0.183542 0.875000
O O12 0.122730 0.250000 0.774290
O O13 0.250000 0.517386 0.250000
O O14 0.165082 0.520058 0.150927
O O15 0.399633 0.500000 0.500000
#
# Coordination Sequence:
#
# PCOD9572926 Si02
#       6
#    32  32  32  32  16  32
#     4   9  19  37  60  84 110 147 197 245 291 356
#     4  10  20  33  50  80 117 150 185 236 299 357
#     4  11  20  34  57  81 112 150 193 240 299 357
#     4   9  18  29  44  71 109 147 183 224 277 342
#     4  10  22  40  64  88 118 160 211 267 320 370
#     4  11  21  36  59  83 114 158 206 246 299 368
#
# _framework density 20.279865000000001
#
# number of rings (size 3 to 8) (size 9 to 14) (size 15 to 20)
#    0.000    2.000    1.818    3.818    1.273    2.727 
#    1.636    0.000    0.000    0.000    0.000    3.818 
#    0.000    0.000    0.000    0.000    0.000    0.000 
#
# Total GULP energy -490218.975520 kJ/mol
# GULP energy per Si atom -5570.670176 kJ/mol
# Density = 2.023371 g / cm^3
# Si number density = 20.279865 Si / 1000 Ang^3
#
#
#
# Elastic Constant Matrix: (Units=GPa)
#
#
# Indices 1 2 3 4 5 6 
#
# 1 96.7063 52.0886 -0.2059 0.0000 0.0000 0.0000
# 2 52.0886 96.7038 -0.2101 0.0000 0.0000 0.0000
# 3 -0.2059 -0.2101 18.8830 0.0000 0.0000 0.0000
# 4 0.0000 0.0000 0.0000 22.3639 0.0000 0.0000
# 5 0.0000 0.0000 0.0000 0.0000 22.3639 0.0000
# 6 0.0000 0.0000 0.0000 0.0000 0.0000 26.2378
#
#
#
# Elastic Compliance Matrix: (Units=1/GPa)
#
#
# Indices 1 2 3 4 5 6 
#
# 1 0.014567 -0.007846 0.000072 0.000000 0.000000 0.000000
# 2 -0.007846 0.014567 0.000077 0.000000 0.000000 0.000000
# 3 0.000072 0.000077 0.052959 0.000000 0.000000 0.000000
# 4 0.000000 0.000000 0.000000 0.044715 0.000000 0.000000
# 5 0.000000 0.000000 0.000000 0.000000 0.044715 0.000000
# 6 0.000000 0.000000 0.000000 0.000000 0.000000 0.038113
#
#
# Mechanical properties :
#
#
# Convention : Reuss Voigt Hill
#
# Bulk Modulus (GPa) = 14.99314 35.07094 25.03204
# Shear Modulus (GPa) = 20.22122 24.90114 22.56118
#
# Velocity S-wave (km/s) = 3.16113 3.50791 3.33902
# Velocity P-wave (km/s) = 4.55333 5.80846 5.21877
#
# Compressibility (1/GPa) = 0.06669718
#
# Stress axis : x y z
#
# Youngs Moduli (GPa) = 68.64883 68.64698 18.88245
#
# Poissons Ratio (x) = 0.53862 -0.00135
# Poissons Ratio (y) = 0.53863 -0.00145
# Poissons Ratio (z) = -0.00491 -0.00525
#
# Static dielectric constant tensor:
#      x y z
#    x 1.745540 0.000000 0.000000 
#    y 0.000000 1.745540 0.000000 
#    z 0.000000 0.000000 1.468010 
# 
# From -- ./inp_files/5008.got.cif
#   From: 2010.05.17/outbox.cif.g08.bks.cpg/sg141_3_cif.got.tgz:5008.got - 2010.05.20 13:30:51.
