data_PCOD9572849
_publ_section_title
;
Structure prediction by ZEFSAII (Michael W. Deem and Ramdas Pophale) SiO2 
 PCOD9572849
Probable space group: I 41/A M D
;
_chemical_formula_sum "Si O2"
_cell_formula_units_Z 164
_cell_length_a 25.426855
_cell_length_b 25.426855
_cell_length_c 11.887221
_cell_angle_alpha 90.000000
_cell_angle_beta 90.000000
_cell_angle_gamma 90.000000
_cell_volume 7685.385024
_symmetry_space_group_name_H-M "I 41/A M D"
_symmetry_group_IT_number 141
_space_group.IT_coordinate_system_code '2'
_symmetry_cell_setting 'tetragonal'
loop_
_space_group_symop_operation_xyz
x,y,z
1/4-y,3/4+x,1/4+z
-x,1/2-y,z
1/4+y,1/4-x,3/4+z
x,-y,-z
-x,1/2+y,-z
1/4+y,3/4+x,1/4-z
1/4-y,1/4-x,3/4-z
-x,-y,-z
3/4+y,1/4-x,3/4-z
x,1/2+y,-z
3/4-y,3/4+x,1/4-z
-x,y,z
x,1/2-y,z
3/4-y,1/4-x,3/4+z
3/4+y,3/4+x,1/4+z
1/2+x,1/2+y,1/2+z
3/4-y,1/4+x,3/4+z
1/2-x,-y,1/2+z
3/4+y,3/4-x,1/4+z
1/2+x,1/2-y,1/2-z
1/2-x,y,1/2-z
3/4+y,1/4+x,3/4-z
3/4-y,3/4-x,1/4-z
1/2-x,1/2-y,1/2-z
1/4+y,3/4-x,1/4-z
1/2+x,y,1/2-z
1/4-y,1/4+x,3/4-z
1/2-x,1/2+y,1/2+z
1/2+x,-y,1/2+z
1/4-y,3/4-x,1/4+z
1/4+y,1/4+x,3/4+z
loop_
_atom_site_type_symbol
_atom_site_label
_atom_site_fract_x
_atom_site_fract_y
_atom_site_fract_z
Si Si1 0.938646 0.444202 0.943499
Si Si2 0.561709 0.536652 0.174103
Si Si3 0.500000 0.250000 0.625000
Si Si4 0.940195 0.079607 0.323011
Si Si5 0.385683 0.860395 0.138932
Si Si6 0.000000 0.189245 0.672037
Si Si7 0.940713 0.190713 0.375000
O O1 0.935958 0.453046 0.809255
O O2 0.000000 0.433637 0.971589
O O3 0.923842 0.500000 0.000000
O O4 0.905587 0.396760 0.998773
O O5 0.500000 0.545468 0.140001
O O6 0.578089 0.477643 0.141500
O O7 0.602411 0.578491 0.127445
O O8 0.446130 0.250000 0.556059
O O9 0.911441 0.101367 0.213349
O O10 0.941292 0.128603 0.409187
O O11 0.000000 0.069209 0.287124
O O12 0.444368 0.834878 0.139002
O O13 0.000000 0.250000 0.636554
O O14 0.941215 0.250000 0.429094
#
# Coordination Sequence:
#
# PCOD9572849 Si02
#       7
#    32  32   4  32  32  16  16
#     4  10  19  32  52  78 111 157 196 227 272 330
#     4  10  21  35  53  82 116 150 191 229 275 343
#     4   8  24  32  32  68 132 146 172 216 300 316
#     4  10  21  39  59  84 116 148 187 241 295 351
#     4  12  21  33  55  83 113 150 194 234 278 342
#     4  10  22  30  46  79 116 152 178 229 286 338
#     4   9  20  38  64  90 112 141 182 237 304 362
#
# _framework density 21.339203999999999
#
# number of rings (size 3 to 8) (size 9 to 14) (size 15 to 20)
#    0.293    1.463    2.927    2.341    4.098    0.000 
#    0.000    0.976    0.000    5.854    0.000    0.000 
#    0.000    0.000    0.000    0.000    0.000    0.000 
#
# Total GULP energy -456705.685922 kJ/mol
# GULP energy per Si atom -5569.581536 kJ/mol
# Density = 2.129064 g / cm^3
# Si number density = 21.339204 Si / 1000 Ang^3
#
#
#
# Elastic Constant Matrix: (Units=GPa)
#
#
# Indices 1 2 3 4 5 6 
#
# 1 150.6918 56.2643 13.1093 0.0000 0.0000 0.0000
# 2 56.2643 150.6918 13.1093 0.0000 0.0000 0.0000
# 3 13.1093 13.1093 52.4281 0.0000 0.0000 0.0000
# 4 0.0000 0.0000 0.0000 23.0878 0.0000 0.0000
# 5 0.0000 0.0000 0.0000 0.0000 23.0878 0.0000
# 6 0.0000 0.0000 0.0000 0.0000 0.0000 28.6807
#
#
#
# Elastic Compliance Matrix: (Units=1/GPa)
#
#
# Indices 1 2 3 4 5 6 
#
# 1 0.007790 -0.002800 -0.001248 0.000000 0.000000 0.000000
# 2 -0.002800 0.007790 -0.001248 0.000000 0.000000 0.000000
# 3 -0.001248 -0.001248 0.019698 0.000000 0.000000 0.000000
# 4 0.000000 0.000000 0.000000 0.043313 0.000000 0.000000
# 5 0.000000 0.000000 0.000000 0.000000 0.043313 0.000000
# 6 0.000000 0.000000 0.000000 0.000000 0.000000 0.034867
#
#
# Mechanical properties :
#
#
# Convention : Reuss Voigt Hill
#
# Bulk Modulus (GPa) = 40.50739 57.64194 49.07467
# Shear Modulus (GPa) = 28.47540 33.05986 30.76763
#
# Velocity S-wave (km/s) = 3.65693 3.94033 3.80127
# Velocity P-wave (km/s) = 6.07081 6.91176 6.50489
#
# Compressibility (1/GPa) = 0.02468685
#
# Stress axis : x y z
#
# Youngs Moduli (GPa) = 128.36846 128.36846 50.76732
#
# Poissons Ratio (x) = 0.35944 0.06334
# Poissons Ratio (y) = 0.35944 0.06334
# Poissons Ratio (z) = 0.16017 0.16017
#
# Static dielectric constant tensor:
#      x y z
#    x 1.783090 0.000000 0.000000 
#    y 0.000000 1.783090 0.000000 
#    z 0.000000 0.000000 1.945860 
# 
# From -- ./inp_files/8833.got.cif
#   From: 2010.05.17/outbox.cif.g08.bks.cpg/sg141_5_cif.got.tgz:8833.got - 2010.05.20 13:30:51.
