data_PCOD9572264
_publ_section_title
;
Structure prediction by ZEFSAII (Michael W. Deem and Ramdas Pophale) SiO2 
 PCOD9572264
Probable space group: I 4/M C M
;
_chemical_formula_sum "Si O2"
_cell_formula_units_Z 160
_cell_length_a 21.171486
_cell_length_b 21.171486
_cell_length_c 14.363065
_cell_angle_alpha 90.000000
_cell_angle_beta 90.000000
_cell_angle_gamma 90.000000
_cell_volume 6437.982758
_symmetry_space_group_name_H-M "I 4/M C M"
_symmetry_group_IT_number 140
_symmetry_cell_setting 'tetragonal'
loop_
_space_group_symop_operation_xyz
x,y,z
-y,x,z
-x,-y,z
y,-x,z
x,-y,1/2-z
-x,y,1/2-z
y,x,1/2-z
-y,-x,1/2-z
-x,-y,-z
y,-x,-z
x,y,-z
-y,x,-z
-x,y,1/2+z
x,-y,1/2+z
-y,-x,1/2+z
y,x,1/2+z
1/2+x,1/2+y,1/2+z
1/2-y,1/2+x,1/2+z
1/2-x,1/2-y,1/2+z
1/2+y,1/2-x,1/2+z
1/2+x,1/2-y,-z
1/2-x,1/2+y,-z
1/2+y,1/2+x,-z
1/2-y,1/2-x,-z
1/2-x,1/2-y,1/2-z
1/2+y,1/2-x,1/2-z
1/2+x,1/2+y,1/2-z
1/2-y,1/2+x,1/2-z
1/2-x,1/2+y,z
1/2+x,1/2-y,z
1/2-y,1/2-x,z
1/2+y,1/2+x,z
loop_
_atom_site_type_symbol
_atom_site_label
_atom_site_fract_x
_atom_site_fract_y
_atom_site_fract_z
Si Si1 0.613630 0.292872 0.603620
Si Si2 0.161291 0.240314 0.885630
Si Si3 0.246964 0.481293 0.106304
Si Si4 0.431545 0.575064 0.638089
Si Si5 0.398658 0.998307 0.637729
O O1 0.615717 0.263579 0.500000
O O2 0.683430 0.291962 0.645850
O O3 0.547548 0.271459 0.649481
O O4 0.607041 0.368483 0.596980
O O5 0.193351 0.306650 0.859411
O O6 0.088082 0.237022 0.854160
O O7 0.160628 0.238137 0.000000
O O8 0.171512 0.489120 0.104390
O O9 0.271439 0.481247 0.000000
O O10 0.414342 0.504357 0.611341
O O11 0.424566 0.575435 0.750000
O O12 0.432196 0.932196 0.611123
O O13 0.396431 0.000000 0.750000
O O14 0.446257 0.053744 0.608251
#
# Coordination Sequence:
#
# PCOD9572264 Si02
#       5
#    32  32  32  32  32
#     4  10  20  34  52  78 108 138 179 229 277 325
#     4   9  18  33  52  74 106 145 176 214 277 340
#     4  10  20  34  55  83 111 143 191 238 276 334
#     4   9  18  33  51  72 101 137 177 220 268 320
#     4   9  19  37  58  80 110 145 182 230 287 344
#
# _framework density 24.852505000000001
#
# number of rings (size 3 to 8) (size 9 to 14) (size 15 to 20)
#    0.000    2.600    0.000    3.000    0.000    4.800 
#    7.200    4.000    0.000    0.600    0.000    0.000 
#    0.000    0.000    0.000    0.000    0.000    0.000 
#
# Total GULP energy -446730.748529 kJ/mol
# GULP energy per Si atom -5584.134357 kJ/mol
# Density = 2.479594 g / cm^3
# Si number density = 24.852505 Si / 1000 Ang^3
#
#
#
# Elastic Constant Matrix: (Units=GPa)
#
#
# Indices 1 2 3 4 5 6 
#
# 1 136.0948 55.2249 7.6697 0.0000 0.0000 0.0000
# 2 55.2249 136.0953 7.6693 0.0000 0.0000 0.0000
# 3 7.6697 7.6693 78.0375 0.0000 0.0000 0.0000
# 4 0.0000 0.0000 0.0000 9.8132 0.0000 0.0000
# 5 0.0000 0.0000 0.0000 0.0000 9.8132 0.0000
# 6 0.0000 0.0000 0.0000 0.0000 0.0000 38.2967
#
#
#
# Elastic Compliance Matrix: (Units=1/GPa)
#
#
# Indices 1 2 3 4 5 6 
#
# 1 0.008817 -0.003549 -0.000518 0.000000 0.000000 0.000000
# 2 -0.003549 0.008817 -0.000518 0.000000 0.000000 0.000000
# 3 -0.000518 -0.000518 0.012916 0.000000 0.000000 0.000000
# 4 0.000000 0.000000 0.000000 0.101904 0.000000 0.000000
# 5 0.000000 0.000000 0.000000 0.000000 0.101903 0.000000
# 6 0.000000 0.000000 0.000000 0.000000 0.000000 0.026112
#
#
# Mechanical properties :
#
#
# Convention : Reuss Voigt Hill
#
# Bulk Modulus (GPa) = 46.76887 54.59505 50.68196
# Shear Modulus (GPa) = 18.06589 30.22886 24.14737
#
# Velocity S-wave (km/s) = 2.69908 3.49138 3.12048
# Velocity P-wave (km/s) = 5.34535 6.18613 5.78105
#
# Compressibility (1/GPa) = 0.02138175
#
# Stress axis : x y z
#
# Youngs Moduli (GPa) = 113.41799 113.41844 77.42260
#
# Poissons Ratio (x) = 0.40247 0.04009
# Poissons Ratio (y) = 0.40247 0.04008
# Poissons Ratio (z) = 0.05873 0.05872
#
# Static dielectric constant tensor:
#      x y z
#    x 1.958980 0.000000 0.000000 
#    y 0.000000 1.958980 0.000000 
#    z 0.000000 0.000000 1.977060 
# 
# From -- ./inp_files/6818.got.cif
#   From: 2010.05.17/outbox.cif.g08.bks.cpg/sg140_4_cif.got.tgz:6818.got - 2010.06.21 00:45:31.
