data_PCOD9572309
_publ_section_title
;
Structure prediction by ZEFSAII (Michael W. Deem and Ramdas Pophale) SiO2 
 PCOD9572309
Probable space group: I 4/M C M
;
_chemical_formula_sum "Si O2"
_cell_formula_units_Z 192
_cell_length_a 26.116513
_cell_length_b 26.116513
_cell_length_c 13.952719
_cell_angle_alpha 90.000000
_cell_angle_beta 90.000000
_cell_angle_gamma 90.000000
_cell_volume 9516.762460
_symmetry_space_group_name_H-M "I 4/M C M"
_symmetry_group_IT_number 140
_symmetry_cell_setting 'tetragonal'
loop_
_space_group_symop_operation_xyz
x,y,z
-y,x,z
-x,-y,z
y,-x,z
x,-y,1/2-z
-x,y,1/2-z
y,x,1/2-z
-y,-x,1/2-z
-x,-y,-z
y,-x,-z
x,y,-z
-y,x,-z
-x,y,1/2+z
x,-y,1/2+z
-y,-x,1/2+z
y,x,1/2+z
1/2+x,1/2+y,1/2+z
1/2-y,1/2+x,1/2+z
1/2-x,1/2-y,1/2+z
1/2+y,1/2-x,1/2+z
1/2+x,1/2-y,-z
1/2-x,1/2+y,-z
1/2+y,1/2+x,-z
1/2-y,1/2-x,-z
1/2-x,1/2-y,1/2-z
1/2+y,1/2-x,1/2-z
1/2+x,1/2+y,1/2-z
1/2-y,1/2+x,1/2-z
1/2-x,1/2+y,z
1/2+x,1/2-y,z
1/2-y,1/2-x,z
1/2+y,1/2+x,z
loop_
_atom_site_type_symbol
_atom_site_label
_atom_site_fract_x
_atom_site_fract_y
_atom_site_fract_z
Si Si1 0.942000 0.187916 0.383404
Si Si2 0.556667 0.200907 0.219609
Si Si3 0.212970 0.287031 0.110210
Si Si4 0.171745 0.819124 0.615327
Si Si5 0.635306 0.779105 0.112963
Si Si6 0.082780 0.989758 0.883916
Si Si7 0.626283 0.126283 0.107208
O O1 0.944964 0.194354 0.500000
O O2 0.945910 0.243949 0.335346
O O3 0.885298 0.167746 0.354987
O O4 0.980282 0.141767 0.355776
O O5 0.500000 0.188358 0.250000
O O6 0.592539 0.203885 0.313143
O O7 0.579885 0.155290 0.156877
O O8 0.188694 0.236455 0.154192
O O9 0.170161 0.329840 0.106438
O O10 0.227176 0.272825 0.000000
O O11 0.168061 0.814636 0.500000
O O12 0.219182 0.855633 0.632995
O O13 0.687124 0.812877 0.128137
O O14 0.622282 0.784815 0.000000
O O15 0.043190 0.944245 0.855723
O O16 0.083255 0.989186 0.000000
O O17 0.612334 0.112334 0.000000
#
# Coordination Sequence:
#
# PCOD9572309 Si02
#       7
#    32  32  16  32  32  32  16
#     4  10  20  35  56  87 128 168 211 270 327 373
#     4  12  26  41  61  95 128 161 205 255 310 381
#     4   9  14  27  55  86 117 155 201 237 276 360
#     4   9  16  29  54  87 121 161 206 252 303 374
#     4  10  21  39  61  86 122 164 203 250 312 374
#     4   8  15  30  54  81 114 170 237 286 324 367
#     4  11  22  43  70  95 129 172 207 243 306 381
#
# _framework density 20.174927
#
# number of rings (size 3 to 8) (size 9 to 14) (size 15 to 20)
#    0.000    2.167    3.333    1.000    0.000    3.333 
#    0.000    5.000    0.000    0.250    0.000    1.750 
#    0.000    0.000    0.000    1.833    0.000    0.167 
#
# Total GULP energy -535911.288273 kJ/mol
# GULP energy per Si atom -5582.409253 kJ/mol
# Density = 2.012901 g / cm^3
# Si number density = 20.174927 Si / 1000 Ang^3
#
#
#
# Elastic Constant Matrix: (Units=GPa)
#
#
# Indices 1 2 3 4 5 6 
#
# 1 70.7721 54.6939 47.7595 0.0000 0.0000 0.0000
# 2 54.6939 70.7708 47.7588 0.0000 0.0000 0.0000
# 3 47.7595 47.7588 111.8399 0.0000 0.0000 0.0000
# 4 0.0000 0.0000 0.0000 38.0571 0.0000 0.0000
# 5 0.0000 0.0000 0.0000 0.0000 38.0578 0.0000
# 6 0.0000 0.0000 0.0000 0.0000 0.0000 22.8036
#
#
#
# Elastic Compliance Matrix: (Units=1/GPa)
#
#
# Indices 1 2 3 4 5 6 
#
# 1 0.037004 -0.025194 -0.005043 0.000000 0.000000 0.000000
# 2 -0.025194 0.037004 -0.005043 0.000000 0.000000 0.000000
# 3 -0.005043 -0.005043 0.013248 0.000000 0.000000 0.000000
# 4 0.000000 0.000000 0.000000 0.026276 0.000000 0.000000
# 5 0.000000 0.000000 0.000000 0.000000 0.026276 0.000000
# 6 0.000000 0.000000 0.000000 0.000000 0.000000 0.043853
#
#
# Mechanical properties :
#
#
# Convention : Reuss Voigt Hill
#
# Bulk Modulus (GPa) = 59.89659 61.53416 60.71537
# Shear Modulus (GPa) = 19.24645 26.66176 22.95410
#
# Velocity S-wave (km/s) = 3.09201 3.63923 3.37672
# Velocity P-wave (km/s) = 6.51923 6.94443 6.73519
#
# Compressibility (1/GPa) = 0.01669544
#
# Stress axis : x y z
#
# Youngs Moduli (GPa) = 27.02417 27.02377 75.48031
#
# Poissons Ratio (x) = 0.68085 0.38066
# Poissons Ratio (y) = 0.68086 0.38065
# Poissons Ratio (z) = 0.13629 0.13628
#
# Static dielectric constant tensor:
#      x y z
#    x 1.725810 0.000000 0.000000 
#    y 0.000000 1.725810 0.000000 
#    z 0.000000 0.000000 1.777910 
# 
# From -- ./inp_files/5201.got.cif
#   From: 2010.05.17/outbox.cif.g08.bks.cpg/sg140_3_cif.got.tgz:5201.got - 2010.06.21 00:45:31.
