data_PCOD9572757
_publ_section_title
;
Structure prediction by ZEFSAII (Michael W. Deem and Ramdas Pophale) SiO2 
 PCOD9572757
Probable space group: I 41/A M D
;
_chemical_formula_sum "Si O2"
_cell_formula_units_Z 176
_cell_length_a 18.138816
_cell_length_b 18.138816
_cell_length_c 29.231908
_cell_angle_alpha 90.000000
_cell_angle_beta 90.000000
_cell_angle_gamma 90.000000
_cell_volume 9617.784323
_symmetry_space_group_name_H-M "I 41/A M D"
_symmetry_group_IT_number 141
_space_group.IT_coordinate_system_code '2'
_symmetry_cell_setting 'tetragonal'
loop_
_space_group_symop_operation_xyz
x,y,z
1/4-y,3/4+x,1/4+z
-x,1/2-y,z
1/4+y,1/4-x,3/4+z
x,-y,-z
-x,1/2+y,-z
1/4+y,3/4+x,1/4-z
1/4-y,1/4-x,3/4-z
-x,-y,-z
3/4+y,1/4-x,3/4-z
x,1/2+y,-z
3/4-y,3/4+x,1/4-z
-x,y,z
x,1/2-y,z
3/4-y,1/4-x,3/4+z
3/4+y,3/4+x,1/4+z
1/2+x,1/2+y,1/2+z
3/4-y,1/4+x,3/4+z
1/2-x,-y,1/2+z
3/4+y,3/4-x,1/4+z
1/2+x,1/2-y,1/2-z
1/2-x,y,1/2-z
3/4+y,1/4+x,3/4-z
3/4-y,3/4-x,1/4-z
1/2-x,1/2-y,1/2-z
1/4+y,3/4-x,1/4-z
1/2+x,y,1/2-z
1/4-y,1/4+x,3/4-z
1/2-x,1/2+y,1/2+z
1/2+x,-y,1/2+z
1/4-y,3/4-x,1/4+z
1/4+y,1/4+x,3/4+z
loop_
_atom_site_type_symbol
_atom_site_label
_atom_site_fract_x
_atom_site_fract_y
_atom_site_fract_z
Si Si1 0.584674 0.445949 0.544569
Si Si2 0.661876 0.339678 0.030731
Si Si3 0.410117 0.834005 0.688361
Si Si4 0.587696 0.419095 0.763831
Si Si5 0.411920 0.161920 0.125000
Si Si6 0.910839 0.415824 0.097268
O O1 0.584555 0.500000 0.500000
O O2 0.500000 0.421985 0.551715
O O3 0.636176 0.378904 0.530276
O O4 0.609064 0.499790 0.585391
O O5 0.658696 0.250000 0.031238
O O6 0.746475 0.360207 0.022576
O O7 0.629680 0.363606 0.079384
O O8 0.613546 0.364615 0.987548
O O9 0.500000 0.834236 0.688776
O O10 0.386383 0.750000 0.680328
O O11 0.387457 0.886466 0.646669
O O12 0.500000 0.415328 0.758817
O O13 0.614010 0.372569 0.807857
O O14 0.500000 0.150830 0.119038
O O15 0.000000 0.411948 0.094117
#
# Coordination Sequence:
#
# PCOD9572757 Si02
#       6
#    32  32  32  32  16  32
#     4   8  15  28  46  69 100 134 169 214 260 303
#     4   9  18  30  47  73 103 134 166 209 260 310
#     4   9  16  28  49  77 103 125 162 216 263 300
#     4  10  18  28  46  71 103 138 171 210 257 314
#     4   9  16  30  54  76  96 132 178 216 258 315
#     4   9  17  30  51  76  99 128 168 220 270 304
#
# _framework density 18.299434000000002
#
# number of rings (size 3 to 8) (size 9 to 14) (size 15 to 20)
#    0.000    3.000    0.000    2.727    0.000    4.364 
#    0.000    0.909   12.000    0.000    0.000    6.364 
#    0.000   14.545    0.000    0.000    0.000    0.000 
#
# Total GULP energy -490418.947632 kJ/mol
# GULP energy per Si atom -5572.942587 kJ/mol
# Density = 1.825778 g / cm^3
# Si number density = 18.299434 Si / 1000 Ang^3
#
#
#
# Elastic Constant Matrix: (Units=GPa)
#
#
# Indices 1 2 3 4 5 6 
#
# 1 59.9178 47.6634 55.2297 0.0000 0.0000 0.0000
# 2 47.6634 59.9178 55.2297 0.0000 0.0000 0.0000
# 3 55.2297 55.2297 142.0735 0.0000 0.0000 0.0000
# 4 0.0000 0.0000 0.0000 9.7482 0.0000 0.0000
# 5 0.0000 0.0000 0.0000 0.0000 9.7482 0.0000
# 6 0.0000 0.0000 0.0000 0.0000 0.0000 7.9598
#
#
#
# Elastic Compliance Matrix: (Units=1/GPa)
#
#
# Indices 1 2 3 4 5 6 
#
# 1 0.048537 -0.033067 -0.006014 0.000000 0.000000 0.000000
# 2 -0.033067 0.048537 -0.006014 0.000000 0.000000 0.000000
# 3 -0.006014 -0.006014 0.011714 0.000000 0.000000 0.000000
# 4 0.000000 0.000000 0.000000 0.102583 0.000000 0.000000
# 5 0.000000 0.000000 0.000000 0.000000 0.102583 0.000000
# 6 0.000000 0.000000 0.000000 0.000000 0.000000 0.125631
#
#
# Mechanical properties :
#
#
# Convention : Reuss Voigt Hill
#
# Bulk Modulus (GPa) = 53.76635 64.23942 59.00288
# Shear Modulus (GPa) = 9.32879 12.41030 10.86955
#
# Velocity S-wave (km/s) = 2.26029 2.60701 2.43982
# Velocity P-wave (km/s) = 6.02139 6.65153 6.34429
#
# Compressibility (1/GPa) = 0.01859899
#
# Stress axis : x y z
#
# Youngs Moduli (GPa) = 20.60284 20.60284 85.36615
#
# Poissons Ratio (x) = 0.68127 0.51338
# Poissons Ratio (y) = 0.68127 0.51338
# Poissons Ratio (z) = 0.12390 0.12390
#
# Static dielectric constant tensor:
#      x y z
#    x 1.624480 0.000000 0.000000 
#    y 0.000000 1.624480 0.000000 
#    z 0.000000 0.000000 1.637180 
# 
# From -- ./inp_files/12919.got.cif
#   From: 2010.05.17/outbox.cif.g08.bks.cpg/sg141_7_cif.got.tgz:12919.got - 2010.05.20 13:30:51.
