data_PCOD9572495
_publ_section_title
;
Structure prediction by ZEFSAII (Michael W. Deem and Ramdas Pophale) SiO2 
 PCOD9572495
Probable space group: I 4/M C M
;
_chemical_formula_sum "Si O2"
_cell_formula_units_Z 176
_cell_length_a 18.025426
_cell_length_b 18.025426
_cell_length_c 27.551295
_cell_angle_alpha 90.000000
_cell_angle_beta 90.000000
_cell_angle_gamma 90.000000
_cell_volume 8951.856084
_symmetry_space_group_name_H-M "I 4/M C M"
_symmetry_group_IT_number 140
_symmetry_cell_setting 'tetragonal'
loop_
_space_group_symop_operation_xyz
x,y,z
-y,x,z
-x,-y,z
y,-x,z
x,-y,1/2-z
-x,y,1/2-z
y,x,1/2-z
-y,-x,1/2-z
-x,-y,-z
y,-x,-z
x,y,-z
-y,x,-z
-x,y,1/2+z
x,-y,1/2+z
-y,-x,1/2+z
y,x,1/2+z
1/2+x,1/2+y,1/2+z
1/2-y,1/2+x,1/2+z
1/2-x,1/2-y,1/2+z
1/2+y,1/2-x,1/2+z
1/2+x,1/2-y,-z
1/2-x,1/2+y,-z
1/2+y,1/2+x,-z
1/2-y,1/2-x,-z
1/2-x,1/2-y,1/2-z
1/2+y,1/2-x,1/2-z
1/2+x,1/2+y,1/2-z
1/2-y,1/2+x,1/2-z
1/2-x,1/2+y,z
1/2+x,1/2-y,z
1/2-y,1/2-x,z
1/2+y,1/2+x,z
loop_
_atom_site_type_symbol
_atom_site_label
_atom_site_fract_x
_atom_site_fract_y
_atom_site_fract_z
Si Si1 0.956765 0.335936 0.095934
Si Si2 0.220043 0.156102 0.058448
Si Si3 0.586058 0.413737 0.607838
Si Si4 0.060426 0.560426 0.557013
Si Si5 0.442651 0.823324 0.707706
Si Si6 0.148252 0.068973 0.215116
O O1 0.895942 0.395942 0.077904
O O2 0.917197 0.261114 0.079722
O O3 0.965776 0.345098 0.153360
O O4 0.034100 0.358880 0.072854
O O5 0.271997 0.228004 0.071230
O O6 0.139471 0.146363 0.082641
O O7 0.216279 0.153007 0.000000
O O8 0.601222 0.499527 0.595010
O O9 0.583609 0.397210 0.665920
O O10 0.056075 0.556075 0.500000
O O11 0.000000 0.500000 0.577572
O O12 0.500000 0.844607 0.750000
O O13 0.364728 0.864728 0.716881
O O14 0.440169 0.734589 0.704698
O O15 0.138906 0.138906 0.250000
O O16 0.123831 0.000000 0.250000
#
# Coordination Sequence:
#
# PCOD9572495 Si02
#       6
#    32  32  32  16  32  32
#     4   9  17  31  53  79 111 153 206 255 303 366
#     4  10  21  40  66  90 121 167 211 255 314 380
#     4  11  23  39  66  99 129 163 206 262 322 377
#     4   9  16  26  46  78 110 142 199 268 312 354
#     4  10  22  36  53  82 119 162 209 253 309 376
#     4  11  21  36  61  88 118 155 199 251 311 378
#
# _framework density 19.660727000000001
#
# number of rings (size 3 to 8) (size 9 to 14) (size 15 to 20)
#    0.000    1.909    3.636    0.545    1.273    3.636 
#    0.000    0.909    2.000    0.000    0.000    0.000 
#    0.000    0.000    0.000    0.000    0.000    0.000 
#
# Total GULP energy -489935.076563 kJ/mol
# GULP energy per Si atom -5567.444052 kJ/mol
# Density = 1.961598 g / cm^3
# Si number density = 19.660727 Si / 1000 Ang^3
#
#
#
# Elastic Constant Matrix: (Units=GPa)
#
#
# Indices 1 2 3 4 5 6 
#
# 1 35.1323 34.6317 20.7765 0.0000 0.0000 0.0000
# 2 34.6317 35.1323 20.7765 0.0000 0.0000 0.0000
# 3 20.7765 20.7765 75.4878 0.0000 0.0000 0.0000
# 4 0.0000 0.0000 0.0000 25.7783 0.0000 0.0000
# 5 0.0000 0.0000 0.0000 0.0000 25.7783 0.0000
# 6 0.0000 0.0000 0.0000 0.0000 0.0000 20.7257
#
#
#
# Elastic Compliance Matrix: (Units=1/GPa)
#
#
# Indices 1 2 3 4 5 6 
#
# 1 1.007352 -0.990208 -0.004719 0.000000 0.000000 0.000000
# 2 -0.990208 1.007352 -0.004719 0.000000 0.000000 0.000000
# 3 -0.004719 -0.004719 0.015845 0.000000 0.000000 0.000000
# 4 0.000000 0.000000 0.000000 0.038792 0.000000 0.000000
# 5 0.000000 0.000000 0.000000 0.000000 0.038792 0.000000
# 6 0.000000 0.000000 0.000000 0.000000 0.000000 0.048249
#
#
# Mechanical properties :
#
#
# Convention : Reuss Voigt Hill
#
# Bulk Modulus (GPa) = 31.99078 33.12464 32.55771
# Shear Modulus (GPa) = 1.20017 19.09429 10.14723
#
# Velocity S-wave (km/s) = 0.78215 3.11977 2.27428
# Velocity P-wave (km/s) = 4.13792 5.46461 4.84688
#
# Compressibility (1/GPa) = 0.03125900
#
# Stress axis : x y z
#
# Youngs Moduli (GPa) = 0.99270 0.99270 63.11291
#
# Poissons Ratio (x) = 0.98298 0.29781
# Poissons Ratio (y) = 0.98298 0.29781
# Poissons Ratio (z) = 0.00468 0.00468
#
# Static dielectric constant tensor:
#      x y z
#    x 1.770270 0.000000 0.000000 
#    y 0.000000 1.770270 0.000000 
#    z 0.000000 0.000000 1.689640 
# 
# From -- ./inp_files/10715.got.cif
#   From: 2010.05.17/outbox.cif.g08.bks.cpg/sg140_6_cif.got.tgz:10715.got - 2010.06.21 00:45:31.
