data_PCOD9572295
_publ_section_title
;
Structure prediction by ZEFSAII (Michael W. Deem and Ramdas Pophale) SiO2 
 PCOD9572295
Probable space group: I 4/M C M
;
_chemical_formula_sum "Si O2"
_cell_formula_units_Z 96
_cell_length_a 22.913453
_cell_length_b 22.913453
_cell_length_c 10.120870
_cell_angle_alpha 90.000000
_cell_angle_beta 90.000000
_cell_angle_gamma 90.000000
_cell_volume 5313.723216
_symmetry_space_group_name_H-M "I 4/M C M"
_symmetry_group_IT_number 140
_symmetry_cell_setting 'tetragonal'
loop_
_space_group_symop_operation_xyz
x,y,z
-y,x,z
-x,-y,z
y,-x,z
x,-y,1/2-z
-x,y,1/2-z
y,x,1/2-z
-y,-x,1/2-z
-x,-y,-z
y,-x,-z
x,y,-z
-y,x,-z
-x,y,1/2+z
x,-y,1/2+z
-y,-x,1/2+z
y,x,1/2+z
1/2+x,1/2+y,1/2+z
1/2-y,1/2+x,1/2+z
1/2-x,1/2-y,1/2+z
1/2+y,1/2-x,1/2+z
1/2+x,1/2-y,-z
1/2-x,1/2+y,-z
1/2+y,1/2+x,-z
1/2-y,1/2-x,-z
1/2-x,1/2-y,1/2-z
1/2+y,1/2-x,1/2-z
1/2+x,1/2+y,1/2-z
1/2-y,1/2+x,1/2-z
1/2-x,1/2+y,z
1/2+x,1/2-y,z
1/2-y,1/2-x,z
1/2+y,1/2+x,z
loop_
_atom_site_type_symbol
_atom_site_label
_atom_site_fract_x
_atom_site_fract_y
_atom_site_fract_z
Si Si1 0.445726 0.945726 0.342380
Si Si2 0.162496 0.063828 0.000000
Si Si3 0.652064 0.847937 0.845885
Si Si4 0.567213 0.748363 0.247563
Si Si5 0.568351 0.665712 0.500000
O O1 0.500000 0.925334 0.250000
O O2 0.458215 0.958215 0.500000
O O3 0.397253 0.897253 0.348754
O O4 0.204337 0.069673 0.125346
O O5 0.113835 0.113232 0.000000
O O6 0.140062 0.997292 0.000000
O O7 0.619235 0.794644 0.773331
O O8 0.666870 0.833131 0.000000
O O9 0.500000 0.773201 0.250000
O O10 0.575104 0.708526 0.375643
#
# Coordination Sequence:
#
# PCOD9572295 Si02
#       5
#    16  16  16  32  16
#     4  10  20  35  52  79 112 147 193 252 309 345
#     4  10  20  40  63  87 122 152 192 238 301 354
#     4  11  21  37  59  81 113 161 204 239 289 349
#     4  10  21  39  59  86 120 157 198 242 294 343
#     4  10  22  38  63  91 118 154 190 244 293 360
#
# _framework density 18.066427000000001
#
# number of rings (size 3 to 8) (size 9 to 14) (size 15 to 20)
#    0.000    1.833    1.667    3.000    0.000    1.000 
#    6.000    5.000    0.000    6.000    0.000    0.000 
#    0.000    0.000    0.000    0.000    0.000    0.000 
#
# Total GULP energy -267348.945326 kJ/mol
# GULP energy per Si atom -5569.769694 kJ/mol
# Density = 1.802531 g / cm^3
# Si number density = 18.066427 Si / 1000 Ang^3
#
#
#
# Elastic Constant Matrix: (Units=GPa)
#
#
# Indices 1 2 3 4 5 6 
#
# 1 110.0386 83.7368 48.6866 0.0000 0.0000 0.0000
# 2 83.7368 110.0389 48.6867 0.0000 0.0000 0.0000
# 3 48.6866 48.6867 165.9614 0.0000 0.0000 0.0000
# 4 0.0000 0.0000 0.0000 16.4406 0.0000 0.0000
# 5 0.0000 0.0000 0.0000 0.0000 16.4407 0.0000
# 6 0.0000 0.0000 0.0000 0.0000 0.0000 52.5627
#
#
#
# Elastic Compliance Matrix: (Units=1/GPa)
#
#
# Indices 1 2 3 4 5 6 
#
# 1 0.022037 -0.015984 -0.001776 0.000000 0.000000 0.000000
# 2 -0.015984 0.022036 -0.001776 0.000000 0.000000 0.000000
# 3 -0.001776 -0.001776 0.007067 0.000000 0.000000 0.000000
# 4 0.000000 0.000000 0.000000 0.060825 0.000000 0.000000
# 5 0.000000 0.000000 0.000000 0.000000 0.060825 0.000000
# 6 0.000000 0.000000 0.000000 0.000000 0.000000 0.019025
#
#
# Mechanical properties :
#
#
# Convention : Reuss Voigt Hill
#
# Bulk Modulus (GPa) = 82.84738 83.13992 82.99365
# Shear Modulus (GPa) = 21.28487 30.75069 26.01778
#
# Velocity S-wave (km/s) = 3.43614 4.13012 3.79901
# Velocity P-wave (km/s) = 7.85489 8.29836 8.07967
#
# Compressibility (1/GPa) = 0.01207039
#
# Stress axis : x y z
#
# Youngs Moduli (GPa) = 45.37925 45.37936 141.49608
#
# Poissons Ratio (x) = 0.72532 0.25125
# Poissons Ratio (y) = 0.72532 0.25125
# Poissons Ratio (z) = 0.08058 0.08058
#
# Static dielectric constant tensor:
#      x y z
#    x 1.622300 0.000000 0.000000 
#    y 0.000000 1.622300 0.000000 
#    z 0.000000 0.000000 1.581860 
# 
# From -- ./inp_files/1016.got.cif
#   From: 2010.05.17/outbox.cif.g08.bks.cpg/sg140_1_cif.got.tgz:1016.got - 2010.06.21 00:45:31.
