data_PCOD9572704
_publ_section_title
;
Structure prediction by ZEFSAII (Michael W. Deem and Ramdas Pophale) SiO2 
 PCOD9572704
Probable space group: I 4/M C M
;
_chemical_formula_sum "Si O2"
_cell_formula_units_Z 112
_cell_length_a 17.952950
_cell_length_b 17.952950
_cell_length_c 16.261096
_cell_angle_alpha 90.000000
_cell_angle_beta 90.000000
_cell_angle_gamma 90.000000
_cell_volume 5241.088057
_symmetry_space_group_name_H-M "I 4/M C M"
_symmetry_group_IT_number 140
_symmetry_cell_setting 'tetragonal'
loop_
_space_group_symop_operation_xyz
x,y,z
-y,x,z
-x,-y,z
y,-x,z
x,-y,1/2-z
-x,y,1/2-z
y,x,1/2-z
-y,-x,1/2-z
-x,-y,-z
y,-x,-z
x,y,-z
-y,x,-z
-x,y,1/2+z
x,-y,1/2+z
-y,-x,1/2+z
y,x,1/2+z
1/2+x,1/2+y,1/2+z
1/2-y,1/2+x,1/2+z
1/2-x,1/2-y,1/2+z
1/2+y,1/2-x,1/2+z
1/2+x,1/2-y,-z
1/2-x,1/2+y,-z
1/2+y,1/2+x,-z
1/2-y,1/2-x,-z
1/2-x,1/2-y,1/2-z
1/2+y,1/2-x,1/2-z
1/2+x,1/2+y,1/2-z
1/2-y,1/2+x,1/2-z
1/2-x,1/2+y,z
1/2+x,1/2-y,z
1/2-y,1/2-x,z
1/2+y,1/2+x,z
loop_
_atom_site_type_symbol
_atom_site_label
_atom_site_fract_x
_atom_site_fract_y
_atom_site_fract_z
Si Si1 0.068464 0.094815 0.847098
Si Si2 0.873983 0.500000 0.750000
Si Si3 0.311650 0.062993 0.908343
Si Si4 0.193616 0.808309 0.902306
O O1 0.078523 0.078523 0.750000
O O2 0.114058 0.168204 0.866238
O O3 0.984171 0.100093 0.879767
O O4 0.928565 0.571436 0.758341
O O5 0.824474 0.509108 0.668236
O O6 0.386601 0.113400 0.912878
O O7 0.246777 0.122869 0.890887
O O8 0.299959 0.030381 0.000000
O O9 0.266047 0.766047 0.868177
O O10 0.203132 0.816220 0.000000
#
# Coordination Sequence:
#
# PCOD9572704 Si02
#       4
#    32  16  32  32
#     4   9  19  35  54  80 113 144 177 222 275 329
#     4   9  16  24  38  64  94 127 172 222 276 339
#     4   8  15  28  44  64  93 129 171 220 270 321
#     4   9  18  33  53  76 102 136 180 225 268 321
#
# _framework density 21.369609000000001
#
# number of rings (size 3 to 8) (size 9 to 14) (size 15 to 20)
#    0.000    3.286    0.000    2.571    0.000    4.571 
#    0.000    4.286    0.000    1.714    0.000    0.000 
#    0.000    0.000    0.000    6.286    0.000    6.857 
#
# Total GULP energy -312066.053513 kJ/mol
# GULP energy per Si atom -5572.608098 kJ/mol
# Density = 2.132097 g / cm^3
# Si number density = 21.369609 Si / 1000 Ang^3
#
#
#
# Elastic Constant Matrix: (Units=GPa)
#
#
# Indices 1 2 3 4 5 6 
#
# 1 50.1621 37.5673 0.2037 0.0000 0.0000 0.0000
# 2 37.5673 50.1621 0.2037 0.0000 0.0000 0.0000
# 3 0.2037 0.2037 31.3849 0.0000 0.0000 0.0000
# 4 0.0000 0.0000 0.0000 24.5738 0.0000 0.0000
# 5 0.0000 0.0000 0.0000 0.0000 24.5738 0.0000
# 6 0.0000 0.0000 0.0000 0.0000 0.0000 20.8039
#
#
#
# Elastic Compliance Matrix: (Units=1/GPa)
#
#
# Indices 1 2 3 4 5 6 
#
# 1 0.045399 -0.034000 -0.000074 0.000000 0.000000 0.000000
# 2 -0.034000 0.045399 -0.000074 0.000000 0.000000 0.000000
# 3 -0.000074 -0.000074 0.031863 0.000000 0.000000 0.000000
# 4 0.000000 0.000000 0.000000 0.040694 0.000000 0.000000
# 5 0.000000 0.000000 0.000000 0.000000 0.040694 0.000000
# 6 0.000000 0.000000 0.000000 0.000000 0.000000 0.048068
#
#
# Mechanical properties :
#
#
# Convention : Reuss Voigt Hill
#
# Bulk Modulus (GPa) = 18.39399 23.07315 20.73357
# Shear Modulus (GPa) = 14.76961 20.23927 17.50444
#
# Velocity S-wave (km/s) = 2.63183 3.08085 2.86515
# Velocity P-wave (km/s) = 4.22630 4.84521 4.54630
#
# Compressibility (1/GPa) = 0.05436559
#
# Stress axis : x y z
#
# Youngs Moduli (GPa) = 22.02710 22.02710 31.38396
#
# Poissons Ratio (x) = 0.74891 0.00232
# Poissons Ratio (y) = 0.74891 0.00232
# Poissons Ratio (z) = 0.00163 0.00163
#
# Static dielectric constant tensor:
#      x y z
#    x 1.787940 0.000000 0.000000 
#    y 0.000000 1.787940 0.000000 
#    z 0.000000 0.000000 1.816700 
# 
# From -- ./inp_files/6119.got.cif
#   From: 2010.05.17/outbox.cif.g08.bks.cpg/sg140_4_cif.got.tgz:6119.got - 2010.06.21 00:45:31.
