data_PCOD9572516
_publ_section_title
;
Structure prediction by ZEFSAII (Michael W. Deem and Ramdas Pophale) SiO2 
 PCOD9572516
Probable space group: I 4/M C M
;
_chemical_formula_sum "Si O2"
_cell_formula_units_Z 96
_cell_length_a 13.348206
_cell_length_b 13.348206
_cell_length_c 28.910929
_cell_angle_alpha 90.000000
_cell_angle_beta 90.000000
_cell_angle_gamma 90.000000
_cell_volume 5151.193309
_symmetry_space_group_name_H-M "I 4/M C M"
_symmetry_group_IT_number 140
_symmetry_cell_setting 'tetragonal'
loop_
_space_group_symop_operation_xyz
x,y,z
-y,x,z
-x,-y,z
y,-x,z
x,-y,1/2-z
-x,y,1/2-z
y,x,1/2-z
-y,-x,1/2-z
-x,-y,-z
y,-x,-z
x,y,-z
-y,x,-z
-x,y,1/2+z
x,-y,1/2+z
-y,-x,1/2+z
y,x,1/2+z
1/2+x,1/2+y,1/2+z
1/2-y,1/2+x,1/2+z
1/2-x,1/2-y,1/2+z
1/2+y,1/2-x,1/2+z
1/2+x,1/2-y,-z
1/2-x,1/2+y,-z
1/2+y,1/2+x,-z
1/2-y,1/2-x,-z
1/2-x,1/2-y,1/2-z
1/2+y,1/2-x,1/2-z
1/2+x,1/2+y,1/2-z
1/2-y,1/2+x,1/2-z
1/2-x,1/2+y,z
1/2+x,1/2-y,z
1/2-y,1/2-x,z
1/2+y,1/2+x,z
loop_
_atom_site_type_symbol
_atom_site_label
_atom_site_fract_x
_atom_site_fract_y
_atom_site_fract_z
Si Si1 0.617825 0.287048 0.051817
Si Si2 0.492668 0.669441 0.301305
Si Si3 0.072613 0.742212 0.105432
O O1 0.705039 0.205039 0.050073
O O2 0.517519 0.234329 0.069246
O O3 0.657334 0.369139 0.088328
O O4 0.605518 0.329254 0.000000
O O5 0.399652 0.591600 0.304213
O O6 0.500000 0.716187 0.250000
O O7 0.475317 0.742783 0.344006
O O8 0.150902 0.650902 0.104553
#
# Coordination Sequence:
#
# PCOD9572516 Si02
#       3
#    32  32  32
#     4  10  22  38  56  82 114 150 194 237 282 341
#     4   9  17  33  57  82 109 138 182 232 280 334
#     4  11  21  36  58  84 114 151 190 236 289 339
#
# _framework density 18.636457
#
# number of rings (size 3 to 8) (size 9 to 14) (size 15 to 20)
#    0.000    2.000    3.333    2.000    0.000    3.333 
#    0.000    8.333    0.000    0.000    0.000    0.000 
#    0.000    0.000    0.000    0.000    0.000    0.000 
#
# Total GULP energy -267494.386675 kJ/mol
# GULP energy per Si atom -5572.799722 kJ/mol
# Density = 1.859404 g / cm^3
# Si number density = 18.636457 Si / 1000 Ang^3
#
#
#
# Elastic Constant Matrix: (Units=GPa)
#
#
# Indices 1 2 3 4 5 6 
#
# 1 41.4379 -6.4044 30.3229 0.0000 0.0000 0.0000
# 2 -6.4044 41.4379 30.3229 0.0000 0.0000 0.0000
# 3 30.3229 30.3229 152.6966 0.0000 0.0000 0.0000
# 4 0.0000 0.0000 0.0000 20.2797 0.0000 0.0000
# 5 0.0000 0.0000 0.0000 0.0000 20.2797 0.0000
# 6 0.0000 0.0000 0.0000 0.0000 0.0000 6.0963
#
#
#
# Elastic Compliance Matrix: (Units=1/GPa)
#
#
# Indices 1 2 3 4 5 6 
#
# 1 0.032199 0.011297 -0.008638 0.000000 0.000000 0.000000
# 2 0.011297 0.032199 -0.008638 0.000000 0.000000 0.000000
# 3 -0.008638 -0.008638 0.009980 0.000000 0.000000 0.000000
# 4 0.000000 0.000000 0.000000 0.049310 0.000000 0.000000
# 5 0.000000 0.000000 0.000000 0.000000 0.049310 0.000000
# 6 0.000000 0.000000 0.000000 0.000000 0.000000 0.164033
#
#
# Mechanical properties :
#
#
# Convention : Reuss Voigt Hill
#
# Bulk Modulus (GPa) = 16.01997 38.22837 27.12417
# Shear Modulus (GPa) = 13.52097 21.41985 17.47041
#
# Velocity S-wave (km/s) = 2.69646 3.39389 3.06507
# Velocity P-wave (km/s) = 4.27892 5.99293 5.20694
#
# Compressibility (1/GPa) = 0.06242207
#
# Stress axis : x y z
#
# Youngs Moduli (GPa) = 31.05654 31.05654 100.20508
#
# Poissons Ratio (x) = -0.35086 0.86554
# Poissons Ratio (y) = -0.35086 0.86554
# Poissons Ratio (z) = 0.26826 0.26826
#
# Static dielectric constant tensor:
#      x y z
#    x 1.635050 0.000000 0.000000 
#    y 0.000000 1.635050 0.000000 
#    z 0.000000 0.000000 1.685110 
# 
# From -- ./inp_files/11215.got.cif
#   From: 2010.05.17/outbox.cif.g08.bks.cpg/sg140_6_cif.got.tgz:11215.got - 2010.06.21 00:45:31.
