data_PCOD9572924
_publ_section_title
;
Structure prediction by ZEFSAII (Michael W. Deem and Ramdas Pophale) SiO2 
 PCOD9572924
Probable space group: I 41/A M D
;
_chemical_formula_sum "Si O2"
_cell_formula_units_Z 176
_cell_length_a 15.516041
_cell_length_b 15.516041
_cell_length_c 30.735471
_cell_angle_alpha 90.000000
_cell_angle_beta 90.000000
_cell_angle_gamma 90.000000
_cell_volume 7399.488675
_symmetry_space_group_name_H-M "I 41/A M D"
_symmetry_group_IT_number 141
_space_group.IT_coordinate_system_code '2'
_symmetry_cell_setting 'tetragonal'
loop_
_space_group_symop_operation_xyz
x,y,z
1/4-y,3/4+x,1/4+z
-x,1/2-y,z
1/4+y,1/4-x,3/4+z
x,-y,-z
-x,1/2+y,-z
1/4+y,3/4+x,1/4-z
1/4-y,1/4-x,3/4-z
-x,-y,-z
3/4+y,1/4-x,3/4-z
x,1/2+y,-z
3/4-y,3/4+x,1/4-z
-x,y,z
x,1/2-y,z
3/4-y,1/4-x,3/4+z
3/4+y,3/4+x,1/4+z
1/2+x,1/2+y,1/2+z
3/4-y,1/4+x,3/4+z
1/2-x,-y,1/2+z
3/4+y,3/4-x,1/4+z
1/2+x,1/2-y,1/2-z
1/2-x,y,1/2-z
3/4+y,1/4+x,3/4-z
3/4-y,3/4-x,1/4-z
1/2-x,1/2-y,1/2-z
1/4+y,3/4-x,1/4-z
1/2+x,y,1/2-z
1/4-y,1/4+x,3/4-z
1/2-x,1/2+y,1/2+z
1/2+x,-y,1/2+z
1/4-y,3/4-x,1/4+z
1/4+y,1/4+x,3/4+z
loop_
_atom_site_type_symbol
_atom_site_label
_atom_site_fract_x
_atom_site_fract_y
_atom_site_fract_z
Si Si1 0.402085 0.600582 0.597025
Si Si2 0.396275 0.108089 0.311340
Si Si3 0.345133 0.852500 0.969000
Si Si4 0.336447 0.418927 0.578983
Si Si5 0.897122 0.852879 0.625000
Si Si6 0.644727 0.845170 0.506501
O O1 0.500000 0.567831 0.604332
O O2 0.375481 0.648525 0.641546
O O3 0.339792 0.520036 0.588702
O O4 0.403114 0.650852 0.552106
O O5 0.500000 0.112371 0.306751
O O6 0.362633 0.137381 0.263966
O O7 0.367512 0.008834 0.319214
O O8 0.367091 0.750000 0.965806
O O9 0.363726 0.889196 0.921197
O O10 0.243874 0.859884 0.979247
O O11 0.369669 0.380332 0.625000
O O12 0.383864 0.405628 0.533007
O O13 0.882226 0.750000 0.625729
O O14 0.639169 0.750000 0.487311
#
# Coordination Sequence:
#
# PCOD9572924 Si02
#       6
#    32  32  32  32  16  32
#     4  10  20  33  50  73 100 126 161 211 253 287
#     4   8  15  31  53  73  98 129 161 201 247 296
#     4   8  15  30  50  71  96 130 163 198 242 290
#     4   9  17  31  52  75  93 118 162 210 253 290
#     4   9  16  28  50  80 106 128 162 208 253 292
#     4  10  20  34  50  68  99 138 168 195 243 307
#
# _framework density 23.785428
#
# number of rings (size 3 to 8) (size 9 to 14) (size 15 to 20)
#    0.000    3.000    0.000    2.182    0.000    2.545 
#    4.909    0.909    0.000    4.909    0.000   14.000 
#    0.000    0.000    0.000    0.000    0.000    0.000 
#
# Total GULP energy -489872.627178 kJ/mol
# GULP energy per Si atom -5566.734400 kJ/mol
# Density = 2.373129 g / cm^3
# Si number density = 23.785428 Si / 1000 Ang^3
#
#
#
# Elastic Constant Matrix: (Units=GPa)
#
#
# Indices 1 2 3 4 5 6 
#
# 1 12.6637 17.7184 31.5767 0.0000 0.0000 0.0000
# 2 17.7184 12.6632 31.5765 0.0000 0.0000 0.0000
# 3 31.5767 31.5765 298.4350 0.0000 0.0000 0.0000
# 4 0.0000 0.0000 0.0000 38.4683 0.0000 0.0000
# 5 0.0000 0.0000 0.0000 0.0000 38.4676 0.0000
# 6 0.0000 0.0000 0.0000 0.0000 0.0000 0.6456
#
#
#
# Elastic Compliance Matrix: (Units=1/GPa)
#
#
# Indices 1 2 3 4 5 6 
#
# 1 -0.077814 0.120010 -0.004465 0.000000 0.000000 0.000000
# 2 0.120010 -0.077818 -0.004464 0.000000 0.000000 0.000000
# 3 -0.004465 -0.004464 0.004296 0.000000 0.000000 0.000000
# 4 0.000000 0.000000 0.000000 0.025995 0.000000 0.000000
# 5 0.000000 0.000000 0.000000 0.000000 0.025996 0.000000
# 6 0.000000 0.000000 0.000000 0.000000 0.000000 1.548993
#
#
# Mechanical properties :
#
#
# Convention : Reuss Voigt Hill
#
# Bulk Modulus (GPa) = 14.11899 53.94502 34.03201
# Shear Modulus (GPa) = 3.99650 31.70897 17.85274
#
# Velocity S-wave (km/s) = 1.29764 3.65516 2.74263
# Velocity P-wave (km/s) = 2.86252 6.36732 4.93643
#
# Compressibility (1/GPa) = 0.07082658
#
# Stress axis : x y z
#
# Youngs Moduli (GPa) = -12.85123 -12.85057 232.79818
#
# Poissons Ratio (x) = 1.54220 1.03936
# Poissons Ratio (y) = 1.54228 1.03929
# Poissons Ratio (z) = -0.05738 -0.05737
#
# Static dielectric constant tensor:
#      x y z
#    x 1.936990 0.000000 0.000000 
#    y 0.000000 1.937000 0.000000 
#    z 0.000000 0.000000 2.052280 
# 
# From -- ./inp_files/14365.got.cif
#   From: 2010.05.17/outbox.cif.g08.bks.cpg/sg141_8_cif.got.tgz:14365.got - 2010.05.20 13:30:51.
