data_PCOD9572698
_publ_section_title
;
Structure prediction by ZEFSAII (Michael W. Deem and Ramdas Pophale) SiO2 
 PCOD9572698
Probable space group: I 4/M C M
;
_chemical_formula_sum "Si O2"
_cell_formula_units_Z 112
_cell_length_a 17.884270
_cell_length_b 17.884270
_cell_length_c 14.476031
_cell_angle_alpha 90.000000
_cell_angle_beta 90.000000
_cell_angle_gamma 90.000000
_cell_volume 4630.116729
_symmetry_space_group_name_H-M "I 4/M C M"
_symmetry_group_IT_number 140
_symmetry_cell_setting 'tetragonal'
loop_
_space_group_symop_operation_xyz
x,y,z
-y,x,z
-x,-y,z
y,-x,z
x,-y,1/2-z
-x,y,1/2-z
y,x,1/2-z
-y,-x,1/2-z
-x,-y,-z
y,-x,-z
x,y,-z
-y,x,-z
-x,y,1/2+z
x,-y,1/2+z
-y,-x,1/2+z
y,x,1/2+z
1/2+x,1/2+y,1/2+z
1/2-y,1/2+x,1/2+z
1/2-x,1/2-y,1/2+z
1/2+y,1/2-x,1/2+z
1/2+x,1/2-y,-z
1/2-x,1/2+y,-z
1/2+y,1/2+x,-z
1/2-y,1/2-x,-z
1/2-x,1/2-y,1/2-z
1/2+y,1/2-x,1/2-z
1/2+x,1/2+y,1/2-z
1/2-y,1/2+x,1/2-z
1/2-x,1/2+y,z
1/2+x,1/2-y,z
1/2-y,1/2-x,z
1/2+y,1/2+x,z
loop_
_atom_site_type_symbol
_atom_site_label
_atom_site_fract_x
_atom_site_fract_y
_atom_site_fract_z
Si Si1 0.786246 0.830869 0.390027
Si Si2 0.062522 0.437479 0.612807
Si Si3 0.822722 0.548191 0.891911
Si Si4 0.407475 0.572096 0.859139
O O1 0.774160 0.834100 0.500000
O O2 0.742346 0.757655 0.356743
O O3 0.746508 0.905972 0.350260
O O4 0.873971 0.838552 0.377260
O O5 0.065658 0.434343 0.500000
O O6 0.140877 0.471828 0.646585
O O7 0.000000 0.500000 0.635374
O O8 0.889507 0.610494 0.891648
O O9 0.805883 0.532274 0.000000
O O10 0.398661 0.488011 0.894737
O O11 0.421971 0.578030 0.750000
#
# Coordination Sequence:
#
# PCOD9572698 Si02
#       4
#    32  16  32  32
#     4   9  17  29  48  77 110 138 167 210 265 322
#     4   7   8  12  26  48  78 120 165 196 217 259
#     4   7  10  17  31  55  88 126 162 192 228 280
#     4   9  19  36  56  76  98 131 179 228 267 311
#
# _framework density 24.189454000000001
#
# number of rings (size 3 to 8) (size 9 to 14) (size 15 to 20)
#    0.000    3.857    0.000    4.286    0.000    1.714 
#    0.000    1.429    3.143    0.000    0.000    0.000 
#    0.000    0.000    0.000    0.000    0.000    0.000 
#
# Total GULP energy -311799.764497 kJ/mol
# GULP energy per Si atom -5567.852937 kJ/mol
# Density = 2.413440 g / cm^3
# Si number density = 24.189454 Si / 1000 Ang^3
#
#
#
# Elastic Constant Matrix: (Units=GPa)
#
#
# Indices 1 2 3 4 5 6 
#
# 1 67.4478 44.0566 -1.1334 0.0000 0.0000 0.0000
# 2 44.0566 67.4485 -1.1333 0.0000 0.0000 0.0000
# 3 -1.1334 -1.1333 64.3350 0.0000 0.0000 0.0000
# 4 0.0000 0.0000 0.0000 10.1239 0.0000 0.0000
# 5 0.0000 0.0000 0.0000 0.0000 10.1239 0.0000
# 6 0.0000 0.0000 0.0000 0.0000 0.0000 7.1414
#
#
#
# Elastic Compliance Matrix: (Units=1/GPa)
#
#
# Indices 1 2 3 4 5 6 
#
# 1 0.025861 -0.016890 0.000158 0.000000 0.000000 0.000000
# 2 -0.016890 0.025861 0.000158 0.000000 0.000000 0.000000
# 3 0.000158 0.000158 0.015549 0.000000 0.000000 0.000000
# 4 0.000000 0.000000 0.000000 0.098776 0.000000 0.000000
# 5 0.000000 0.000000 0.000000 0.000000 0.098776 0.000000
# 6 0.000000 0.000000 0.000000 0.000000 0.000000 0.140028
#
#
# Mechanical properties :
#
#
# Convention : Reuss Voigt Hill
#
# Bulk Modulus (GPa) = 29.30466 31.42345 30.36405
# Shear Modulus (GPa) = 11.12662 15.97394 13.55028
#
# Velocity S-wave (km/s) = 2.14704 2.57255 2.36937
# Velocity P-wave (km/s) = 4.27636 4.67363 4.47940
#
# Compressibility (1/GPa) = 0.03412427
#
# Stress axis : x y z
#
# Youngs Moduli (GPa) = 38.66812 38.66855 64.31192
#
# Poissons Ratio (x) = 0.65309 -0.01017
# Poissons Ratio (y) = 0.65309 -0.01016
# Poissons Ratio (z) = -0.00611 -0.00611
#
# Static dielectric constant tensor:
#      x y z
#    x 1.974880 0.000000 0.000000 
#    y 0.000000 1.974880 0.000000 
#    z 0.000000 0.000000 1.984360 
# 
# From -- ./inp_files/7904.got.cif
#   From: 2010.05.17/outbox.cif.g08.bks.cpg/sg140_4_cif.got.tgz:7904.got - 2010.06.21 00:45:31.
