data_PCOD9572197
_publ_section_title
;
Structure prediction by ZEFSAII (Michael W. Deem and Ramdas Pophale) SiO2 
 PCOD9572197
Probable space group: I 4/M C M
;
_chemical_formula_sum "Si O2"
_cell_formula_units_Z 168
_cell_length_a 22.485636
_cell_length_b 22.485636
_cell_length_c 19.668973
_cell_angle_alpha 90.000000
_cell_angle_beta 90.000000
_cell_angle_gamma 90.000000
_cell_volume 9944.708009
_symmetry_space_group_name_H-M "I 4/M C M"
_symmetry_group_IT_number 140
_symmetry_cell_setting 'tetragonal'
loop_
_space_group_symop_operation_xyz
x,y,z
-y,x,z
-x,-y,z
y,-x,z
x,-y,1/2-z
-x,y,1/2-z
y,x,1/2-z
-y,-x,1/2-z
-x,-y,-z
y,-x,-z
x,y,-z
-y,x,-z
-x,y,1/2+z
x,-y,1/2+z
-y,-x,1/2+z
y,x,1/2+z
1/2+x,1/2+y,1/2+z
1/2-y,1/2+x,1/2+z
1/2-x,1/2-y,1/2+z
1/2+y,1/2-x,1/2+z
1/2+x,1/2-y,-z
1/2-x,1/2+y,-z
1/2+y,1/2+x,-z
1/2-y,1/2-x,-z
1/2-x,1/2-y,1/2-z
1/2+y,1/2-x,1/2-z
1/2+x,1/2+y,1/2-z
1/2-y,1/2+x,1/2-z
1/2-x,1/2+y,z
1/2+x,1/2-y,z
1/2-y,1/2-x,z
1/2+y,1/2+x,z
loop_
_atom_site_type_symbol
_atom_site_label
_atom_site_fract_x
_atom_site_fract_y
_atom_site_fract_z
Si Si1 0.716930 0.882550 0.765161
Si Si2 0.548386 0.951615 0.342427
Si Si3 0.632893 0.233161 0.895113
Si Si4 0.773469 0.825348 0.118489
Si Si5 0.107243 0.704230 0.000000
Si Si6 0.067524 0.432477 0.000000
Si Si7 0.035306 0.704744 0.500000
Si Si8 0.347120 0.000000 0.750000
O O1 0.662353 0.837648 0.780655
O O2 0.729362 0.877102 0.685464
O O3 0.771743 0.861227 0.811170
O O4 0.693311 0.948140 0.780600
O O5 0.547842 0.952159 0.424185
O O6 0.610580 0.971009 0.307929
O O7 0.500000 0.000000 0.321646
O O8 0.677334 0.177334 0.914021
O O9 0.666404 0.295603 0.908106
O O10 0.571194 0.229952 0.935145
O O11 0.733117 0.766884 0.130812
O O12 0.739019 0.865678 0.064426
O O13 0.036017 0.708082 0.000000
O O14 0.138168 0.638168 0.000000
O O15 0.051280 0.364118 0.000000
#
# Coordination Sequence:
#
# PCOD9572197 Si02
#       8
#    32  16  32  32  16   8  16  16
#     4  10  20  32  52  79 103 136 182 232 277 324
#     4  12  23  40  50  69 100 165 207 236 255 308
#     4  10  19  36  58  77 103 137 187 230 280 326
#     4   9  19  36  57  78 101 140 179 228 282 336
#     4  10  23  38  52  76 114 149 184 218 275 327
#     4  12  27  36  52  74 108 136 204 246 274 291
#     4  12  23  37  54  78 110 148 186 235 268 321
#     4  12  21  36  54  72 114 152 193 226 272 328
#
# _framework density 16.893407
#
# number of rings (size 3 to 8) (size 9 to 14) (size 15 to 20)
#    0.000    1.524    2.857    2.429    5.333    4.571 
#    0.000    0.000    0.000    0.000    0.000    0.000 
#    0.000    6.095    0.000    1.714    0.000    0.000 
#
# Total GULP energy -468470.393678 kJ/mol
# GULP energy per Si atom -5577.028496 kJ/mol
# Density = 1.685496 g / cm^3
# Si number density = 16.893407 Si / 1000 Ang^3
#
#
#
# Elastic Constant Matrix: (Units=GPa)
#
#
# Indices 1 2 3 4 5 6 
#
# 1 72.9412 58.9655 23.4435 0.0000 0.0000 0.0000
# 2 58.9655 72.9412 23.4440 0.0000 0.0000 0.0000
# 3 23.4435 23.4440 91.3770 0.0000 0.0000 0.0000
# 4 0.0000 0.0000 0.0000 33.5701 0.0000 0.0000
# 5 0.0000 0.0000 0.0000 0.0000 33.5689 0.0000
# 6 0.0000 0.0000 0.0000 0.0000 0.0000 21.1601
#
#
#
# Elastic Compliance Matrix: (Units=1/GPa)
#
#
# Indices 1 2 3 4 5 6 
#
# 1 0.039947 -0.031605 -0.002140 0.000000 0.000000 0.000000
# 2 -0.031605 0.039947 -0.002140 0.000000 0.000000 0.000000
# 3 -0.002140 -0.002140 0.012042 0.000000 0.000000 0.000000
# 4 0.000000 0.000000 0.000000 0.029788 0.000000 0.000000
# 5 0.000000 0.000000 0.000000 0.000000 0.029789 0.000000
# 6 0.000000 0.000000 0.000000 0.000000 0.000000 0.047259
#
#
# Mechanical properties :
#
#
# Convention : Reuss Voigt Hill
#
# Bulk Modulus (GPa) = 49.59134 49.88504 49.73819
# Shear Modulus (GPa) = 18.03320 26.42025 22.22672
#
# Velocity S-wave (km/s) = 3.27076 3.95896 3.63120
# Velocity P-wave (km/s) = 6.60931 7.10571 6.86200
#
# Compressibility (1/GPa) = 0.02016481
#
# Stress axis : x y z
#
# Youngs Moduli (GPa) = 25.03300 25.03291 83.04367
#
# Poissons Ratio (x) = 0.79118 0.17771
# Poissons Ratio (y) = 0.79118 0.17775
# Poissons Ratio (z) = 0.05357 0.05358
#
# Static dielectric constant tensor:
#      x y z
#    x 1.580620 0.000000 0.000000 
#    y 0.000000 1.580620 0.000000 
#    z 0.000000 0.000000 1.646610 
# 
# From -- ./inp_files/8487.got.cif
#   From: 2010.05.17/outbox.cif.g08.bks.cpg/sg140_5_cif.got.tgz:8487.got - 2010.06.21 00:45:31.
