data_PCOD9572500
_publ_section_title
;
Structure prediction by ZEFSAII (Michael W. Deem and Ramdas Pophale) SiO2 
 PCOD9572500
Probable space group: I 4/M C M
;
_chemical_formula_sum "Si O2"
_cell_formula_units_Z 176
_cell_length_a 24.257673
_cell_length_b 24.257673
_cell_length_c 14.469232
_cell_angle_alpha 90.000000
_cell_angle_beta 90.000000
_cell_angle_gamma 90.000000
_cell_volume 8514.198182
_symmetry_space_group_name_H-M "I 4/M C M"
_symmetry_group_IT_number 140
_symmetry_cell_setting 'tetragonal'
loop_
_space_group_symop_operation_xyz
x,y,z
-y,x,z
-x,-y,z
y,-x,z
x,-y,1/2-z
-x,y,1/2-z
y,x,1/2-z
-y,-x,1/2-z
-x,-y,-z
y,-x,-z
x,y,-z
-y,x,-z
-x,y,1/2+z
x,-y,1/2+z
-y,-x,1/2+z
y,x,1/2+z
1/2+x,1/2+y,1/2+z
1/2-y,1/2+x,1/2+z
1/2-x,1/2-y,1/2+z
1/2+y,1/2-x,1/2+z
1/2+x,1/2-y,-z
1/2-x,1/2+y,-z
1/2+y,1/2+x,-z
1/2-y,1/2-x,-z
1/2-x,1/2-y,1/2-z
1/2+y,1/2-x,1/2-z
1/2+x,1/2+y,1/2-z
1/2-y,1/2+x,1/2-z
1/2-x,1/2+y,z
1/2+x,1/2-y,z
1/2-y,1/2-x,z
1/2+y,1/2+x,z
loop_
_atom_site_type_symbol
_atom_site_label
_atom_site_fract_x
_atom_site_fract_y
_atom_site_fract_z
Si Si1 0.908586 0.316663 0.500000
Si Si2 0.226307 0.362123 0.648189
Si Si3 0.900376 0.506030 0.000000
Si Si4 0.649221 0.373219 0.140802
Si Si5 0.450384 0.133389 0.184716
Si Si6 0.753214 0.341080 0.362081
Si Si7 0.073427 0.059858 0.000000
O O1 0.870131 0.370131 0.500000
O O2 0.968469 0.339054 0.500000
O O3 0.891425 0.284601 0.590957
O O4 0.190828 0.309173 0.608884
O O5 0.286038 0.385992 0.618524
O O6 0.183036 0.411762 0.651732
O O7 0.241071 0.343546 0.752530
O O8 0.897784 0.474469 0.903844
O O9 0.951029 0.548972 0.000000
O O10 0.631582 0.368419 0.250000
O O11 0.650991 0.309352 0.109847
O O12 0.606623 0.412362 0.086421
O O13 0.500000 0.151057 0.250000
O O14 0.409451 0.090550 0.236527
O O15 0.785456 0.285456 0.392305
O O16 0.007624 0.075382 0.000000
#
# Coordination Sequence:
#
# PCOD9572500 Si02
#       7
#    16  32  16  32  32  32  16
#     4   9  17  30  50  79 115 155 200 252 305 353
#     4   9  19  37  59  90 133 165 194 247 315 372
#     4  11  23  38  55  77 109 158 221 271 300 336
#     4  10  21  41  68 101 124 158 204 244 297 378
#     4  11  23  39  57  82 119 165 211 258 310 355
#     4   9  16  31  59  93 129 163 193 236 299 374
#     4  11  27  51  69  87 124 166 207 263 316 365
#
# _framework density 20.671353
#
# number of rings (size 3 to 8) (size 9 to 14) (size 15 to 20)
#    0.000    2.091    0.000    3.000    0.000    8.182 
#   13.091    3.182    0.000    0.000    0.000    0.000 
#    0.000    0.000    0.000    0.000    0.000    0.000 
#
# Total GULP energy -489923.539588 kJ/mol
# GULP energy per Si atom -5567.312950 kJ/mol
# Density = 2.062430 g / cm^3
# Si number density = 20.671353 Si / 1000 Ang^3
#
#
#
# Elastic Constant Matrix: (Units=GPa)
#
#
# Indices 1 2 3 4 5 6 
#
# 1 133.5645 85.9656 32.7903 0.0000 0.0000 0.0000
# 2 85.9656 133.5644 32.7903 0.0000 0.0000 0.0000
# 3 32.7903 32.7903 82.2099 0.0000 0.0000 0.0000
# 4 0.0000 0.0000 0.0000 29.9706 0.0000 0.0000
# 5 0.0000 0.0000 0.0000 0.0000 29.9704 0.0000
# 6 0.0000 0.0000 0.0000 0.0000 0.0000 42.4642
#
#
#
# Elastic Compliance Matrix: (Units=1/GPa)
#
#
# Indices 1 2 3 4 5 6 
#
# 1 0.013090 -0.007919 -0.002063 0.000000 0.000000 0.000000
# 2 -0.007919 0.013090 -0.002063 0.000000 0.000000 0.000000
# 3 -0.002063 -0.002063 0.013809 0.000000 0.000000 0.000000
# 4 0.000000 0.000000 0.000000 0.033366 0.000000 0.000000
# 5 0.000000 0.000000 0.000000 0.000000 0.033366 0.000000
# 6 0.000000 0.000000 0.000000 0.000000 0.000000 0.023549
#
#
# Mechanical properties :
#
#
# Convention : Reuss Voigt Hill
#
# Bulk Modulus (GPa) = 62.88704 72.49234 67.68969
# Shear Modulus (GPa) = 31.31656 33.66721 32.49188
#
# Velocity S-wave (km/s) = 3.89649 4.04008 3.96893
# Velocity P-wave (km/s) = 7.12263 7.54375 7.33621
#
# Compressibility (1/GPa) = 0.01590153
#
# Stress axis : x y z
#
# Youngs Moduli (GPa) = 76.39336 76.39327 72.41436
#
# Poissons Ratio (x) = 0.60494 0.14937
# Poissons Ratio (y) = 0.60494 0.14937
# Poissons Ratio (z) = 0.15757 0.15757
#
# Static dielectric constant tensor:
#      x y z
#    x 1.776490 0.000000 0.000000 
#    y 0.000000 1.776490 0.000000 
#    z 0.000000 0.000000 1.778590 
# 
# From -- ./inp_files/4975.got.cif
#   From: 2010.05.17/outbox.cif.g08.bks.cpg/sg140_3_cif.got.tgz:4975.got - 2010.06.21 00:45:31.
