data_PCOD9572729
_publ_section_title
;
Structure prediction by ZEFSAII (Michael W. Deem and Ramdas Pophale) SiO2 
 PCOD9572729
Probable space group: I 41/A M D
;
_chemical_formula_sum "Si O2"
_cell_formula_units_Z 84
_cell_length_a 22.178721
_cell_length_b 22.178721
_cell_length_c 6.874163
_cell_angle_alpha 90.000000
_cell_angle_beta 90.000000
_cell_angle_gamma 90.000000
_cell_volume 3381.370982
_symmetry_space_group_name_H-M "I 41/A M D"
_symmetry_group_IT_number 141
_space_group.IT_coordinate_system_code '2'
_symmetry_cell_setting 'tetragonal'
loop_
_space_group_symop_operation_xyz
x,y,z
1/4-y,3/4+x,1/4+z
-x,1/2-y,z
1/4+y,1/4-x,3/4+z
x,-y,-z
-x,1/2+y,-z
1/4+y,3/4+x,1/4-z
1/4-y,1/4-x,3/4-z
-x,-y,-z
3/4+y,1/4-x,3/4-z
x,1/2+y,-z
3/4-y,3/4+x,1/4-z
-x,y,z
x,1/2-y,z
3/4-y,1/4-x,3/4+z
3/4+y,3/4+x,1/4+z
1/2+x,1/2+y,1/2+z
3/4-y,1/4+x,3/4+z
1/2-x,-y,1/2+z
3/4+y,3/4-x,1/4+z
1/2+x,1/2-y,1/2-z
1/2-x,y,1/2-z
3/4+y,1/4+x,3/4-z
3/4-y,3/4-x,1/4-z
1/2-x,1/2-y,1/2-z
1/4+y,3/4-x,1/4-z
1/2+x,y,1/2-z
1/4-y,1/4+x,3/4-z
1/2-x,1/2+y,1/2+z
1/2+x,-y,1/2+z
1/4-y,3/4-x,1/4+z
1/4+y,1/4+x,3/4+z
loop_
_atom_site_type_symbol
_atom_site_label
_atom_site_fract_x
_atom_site_fract_y
_atom_site_fract_z
Si Si1 0.141595 0.367709 0.604771
Si Si2 0.000000 0.750000 0.625000
Si Si3 0.268258 0.819662 0.522586
Si Si4 0.500000 0.825847 0.613513
O O1 0.127021 0.377021 0.375000
O O2 0.211267 0.347348 0.592775
O O3 0.116635 0.426387 0.715844
O O4 0.106151 0.310560 0.693037
O O5 0.925092 0.750000 0.597478
O O6 0.282150 0.750000 0.461947
O O7 0.250000 0.814916 0.750000
O O8 0.500000 0.750000 0.602783
#
# Coordination Sequence:
#
# PCOD9572729 Si02
#       4
#    32   4  32  16
#     4  10  16  24  33  50  73 106 140 170 200 243
#     4   8  16  16  28  48  64  96 128 160 184 226
#     4   9  17  24  35  50  74 108 140 168 202 247
#     4  10  14  20  32  49  71  99 135 159 193 232
#
# _framework density 24.841996999999999
#
# number of rings (size 3 to 8) (size 9 to 14) (size 15 to 20)
#    0.571    1.905    3.810    1.143    2.667    0.000 
#    0.000    0.000    0.000    0.000    0.000    0.000 
#    0.000    0.000   12.952   27.048    0.000    7.429 
#
# Total GULP energy -233956.486252 kJ/mol
# GULP energy per Si atom -5570.392530 kJ/mol
# Density = 2.478546 g / cm^3
# Si number density = 24.841997 Si / 1000 Ang^3
#
#
#
# Elastic Constant Matrix: (Units=GPa)
#
#
# Indices 1 2 3 4 5 6 
#
# 1 237.9235 155.9441 64.6847 0.0000 0.0000 0.0000
# 2 155.9441 237.9235 64.6847 0.0000 0.0000 0.0000
# 3 64.6847 64.6847 92.6925 0.0000 0.0000 0.0000
# 4 0.0000 0.0000 0.0000 29.1675 0.0000 0.0000
# 5 0.0000 0.0000 0.0000 0.0000 29.1675 0.0000
# 6 0.0000 0.0000 0.0000 0.0000 0.0000 42.3726
#
#
#
# Elastic Compliance Matrix: (Units=1/GPa)
#
#
# Indices 1 2 3 4 5 6 
#
# 1 0.007746 -0.004452 -0.002299 0.000000 0.000000 0.000000
# 2 -0.004452 0.007746 -0.002299 0.000000 0.000000 0.000000
# 3 -0.002299 -0.002299 0.013997 0.000000 0.000000 0.000000
# 4 0.000000 0.000000 0.000000 0.034285 0.000000 0.000000
# 5 0.000000 0.000000 0.000000 0.000000 0.034285 0.000000
# 6 0.000000 0.000000 0.000000 0.000000 0.000000 0.023600
#
#
# Mechanical properties :
#
#
# Convention : Reuss Voigt Hill
#
# Bulk Modulus (GPa) = 87.79762 126.57403 107.18583
# Shear Modulus (GPa) = 34.83015 39.02325 36.92670
#
# Velocity S-wave (km/s) = 3.74848 3.96770 3.85965
# Velocity P-wave (km/s) = 7.35894 8.48837 7.94375
#
# Compressibility (1/GPa) = 0.01138983
#
# Stress axis : x y z
#
# Youngs Moduli (GPa) = 129.09787 129.09787 71.44626
#
# Poissons Ratio (x) = 0.57476 0.16423
# Poissons Ratio (y) = 0.57476 0.16423
# Poissons Ratio (z) = 0.29675 0.29675
#
# Static dielectric constant tensor:
#      x y z
#    x 1.978830 0.000000 0.000000 
#    y 0.000000 1.978830 0.000000 
#    z 0.000000 0.000000 2.052880 
# 
# From -- ./inp_files/4113.got.cif
#   From: 2010.05.17/outbox.cif.g08.bks.cpg/sg141_3_cif.got.tgz:4113.got - 2010.05.20 13:30:51.
