data_PCOD9572985
_publ_section_title
;
Structure prediction by ZEFSAII (Michael W. Deem and Ramdas Pophale) SiO2 
 PCOD9572985
Probable space group: I 41/A M D
;
_chemical_formula_sum "Si O2"
_cell_formula_units_Z 176
_cell_length_a 17.719143
_cell_length_b 17.719143
_cell_length_c 28.600210
_cell_angle_alpha 90.000000
_cell_angle_beta 90.000000
_cell_angle_gamma 90.000000
_cell_volume 8979.551553
_symmetry_space_group_name_H-M "I 41/A M D"
_symmetry_group_IT_number 141
_space_group.IT_coordinate_system_code '2'
_symmetry_cell_setting 'tetragonal'
loop_
_space_group_symop_operation_xyz
x,y,z
1/4-y,3/4+x,1/4+z
-x,1/2-y,z
1/4+y,1/4-x,3/4+z
x,-y,-z
-x,1/2+y,-z
1/4+y,3/4+x,1/4-z
1/4-y,1/4-x,3/4-z
-x,-y,-z
3/4+y,1/4-x,3/4-z
x,1/2+y,-z
3/4-y,3/4+x,1/4-z
-x,y,z
x,1/2-y,z
3/4-y,1/4-x,3/4+z
3/4+y,3/4+x,1/4+z
1/2+x,1/2+y,1/2+z
3/4-y,1/4+x,3/4+z
1/2-x,-y,1/2+z
3/4+y,3/4-x,1/4+z
1/2+x,1/2-y,1/2-z
1/2-x,y,1/2-z
3/4+y,1/4+x,3/4-z
3/4-y,3/4-x,1/4-z
1/2-x,1/2-y,1/2-z
1/4+y,3/4-x,1/4-z
1/2+x,y,1/2-z
1/4-y,1/4+x,3/4-z
1/2-x,1/2+y,1/2+z
1/2+x,-y,1/2+z
1/4-y,3/4-x,1/4+z
1/4+y,1/4+x,3/4+z
loop_
_atom_site_type_symbol
_atom_site_label
_atom_site_fract_x
_atom_site_fract_y
_atom_site_fract_z
Si Si1 0.749309 0.526713 0.320406
Si Si2 0.585451 0.911819 0.600804
Si Si3 0.868616 0.412267 0.284306
Si Si4 0.410322 0.750000 0.639147
Si Si5 0.255509 0.667833 0.448011
Si Si6 0.000000 0.911995 0.490241
Si Si7 0.414622 0.835379 0.875000
O O1 0.745430 0.504571 0.375000
O O2 0.799429 0.601809 0.318999
O O3 0.790372 0.457193 0.294438
O O4 0.663884 0.545156 0.304680
O O5 0.500000 0.918973 0.582818
O O6 0.604314 0.824797 0.609579
O O7 0.585712 0.950230 0.652652
O O8 0.914088 0.460554 0.246595
O O9 0.864231 0.328982 0.262179
O O10 0.904322 0.397249 0.334914
O O11 0.500000 0.750000 0.651983
O O12 0.361683 0.750000 0.686125
O O13 0.294969 0.750000 0.444982
O O14 0.000000 0.000000 0.500000
O O15 0.500000 0.842293 0.893938
#
# Coordination Sequence:
#
# PCOD9572985 Si02
#       7
#    32  32  32  16  32  16  16
#     4  10  21  37  58  84 120 148 190 253 303 359
#     4   9  19  37  62  88 113 147 194 248 305 354
#     4  12  22  38  53  79 118 161 204 246 292 346
#     4  10  20  36  60  88 118 156 206 256 288 348
#     4  10  20  36  58  82 109 153 204 245 293 350
#     4  12  24  32  54  80 116 164 206 240 286 342
#     4  11  24  38  50  74 116 164 208 249 292 336
#
# _framework density 19.600086999999998
#
# number of rings (size 3 to 8) (size 9 to 14) (size 15 to 20)
#    0.000    1.545    3.636    2.182    2.545    0.727 
#    3.273    0.000    0.000    2.727    0.000    3.818 
#    0.000    0.000    0.000    0.000    0.000    0.000 
#
# Total GULP energy -490699.256627 kJ/mol
# GULP energy per Si atom -5576.127916 kJ/mol
# Density = 1.955548 g / cm^3
# Si number density = 19.600087 Si / 1000 Ang^3
#
#
#
# Elastic Constant Matrix: (Units=GPa)
#
#
# Indices 1 2 3 4 5 6 
#
# 1 110.7584 65.4982 23.2347 0.0000 0.0000 0.0000
# 2 65.4982 110.7585 23.2352 0.0000 0.0000 0.0000
# 3 23.2347 23.2352 50.1481 0.0000 0.0000 0.0000
# 4 0.0000 0.0000 0.0000 10.6445 0.0000 0.0000
# 5 0.0000 0.0000 0.0000 0.0000 10.6446 0.0000
# 6 0.0000 0.0000 0.0000 0.0000 0.0000 19.7249
#
#
#
# Elastic Compliance Matrix: (Units=1/GPa)
#
#
# Indices 1 2 3 4 5 6 
#
# 1 0.014279 -0.007816 -0.002994 0.000000 0.000000 0.000000
# 2 -0.007816 0.014279 -0.002995 0.000000 0.000000 0.000000
# 3 -0.002994 -0.002995 0.022716 0.000000 0.000000 0.000000
# 4 0.000000 0.000000 0.000000 0.093945 0.000000 0.000000
# 5 0.000000 0.000000 0.000000 0.000000 0.093945 0.000000
# 6 0.000000 0.000000 0.000000 0.000000 0.000000 0.050697
#
#
# Mechanical properties :
#
#
# Convention : Reuss Voigt Hill
#
# Bulk Modulus (GPa) = 42.25850 55.06681 48.66266
# Shear Modulus (GPa) = 15.36769 18.84925 17.10847
#
# Velocity S-wave (km/s) = 2.80315 3.10448 2.95765
# Velocity P-wave (km/s) = 5.66428 6.40364 6.04527
#
# Compressibility (1/GPa) = 0.02366388
#
# Stress axis : x y z
#
# Youngs Moduli (GPa) = 70.03421 70.03404 44.02222
#
# Poissons Ratio (x) = 0.54737 0.13182
# Poissons Ratio (y) = 0.54737 0.13183
# Poissons Ratio (z) = 0.20971 0.20972
#
# Static dielectric constant tensor:
#      x y z
#    x 1.647090 0.000000 0.000000 
#    y 0.000000 1.647100 0.000000 
#    z 0.000000 0.000000 1.682970 
# 
# From -- ./inp_files/12983.got.cif
#   From: 2010.05.17/outbox.cif.g08.bks.cpg/sg141_7_cif.got.tgz:12983.got - 2010.05.20 13:30:51.
