data_PCOD9572945
_publ_section_title
;
Structure prediction by ZEFSAII (Michael W. Deem and Ramdas Pophale) SiO2 
 PCOD9572945
Probable space group: I 41/A M D
;
_chemical_formula_sum "Si O2"
_cell_formula_units_Z 192
_cell_length_a 18.053110
_cell_length_b 18.053110
_cell_length_c 27.140811
_cell_angle_alpha 90.000000
_cell_angle_beta 90.000000
_cell_angle_gamma 90.000000
_cell_volume 8845.591464
_symmetry_space_group_name_H-M "I 41/A M D"
_symmetry_group_IT_number 141
_space_group.IT_coordinate_system_code '2'
_symmetry_cell_setting 'tetragonal'
loop_
_space_group_symop_operation_xyz
x,y,z
1/4-y,3/4+x,1/4+z
-x,1/2-y,z
1/4+y,1/4-x,3/4+z
x,-y,-z
-x,1/2+y,-z
1/4+y,3/4+x,1/4-z
1/4-y,1/4-x,3/4-z
-x,-y,-z
3/4+y,1/4-x,3/4-z
x,1/2+y,-z
3/4-y,3/4+x,1/4-z
-x,y,z
x,1/2-y,z
3/4-y,1/4-x,3/4+z
3/4+y,3/4+x,1/4+z
1/2+x,1/2+y,1/2+z
3/4-y,1/4+x,3/4+z
1/2-x,-y,1/2+z
3/4+y,3/4-x,1/4+z
1/2+x,1/2-y,1/2-z
1/2-x,y,1/2-z
3/4+y,1/4+x,3/4-z
3/4-y,3/4-x,1/4-z
1/2-x,1/2-y,1/2-z
1/4+y,3/4-x,1/4-z
1/2+x,y,1/2-z
1/4-y,1/4+x,3/4-z
1/2-x,1/2+y,1/2+z
1/2+x,-y,1/2+z
1/4-y,3/4-x,1/4+z
1/4+y,1/4+x,3/4+z
loop_
_atom_site_type_symbol
_atom_site_label
_atom_site_fract_x
_atom_site_fract_y
_atom_site_fract_z
Si Si1 0.084640 0.097047 0.805622
Si Si2 0.810285 0.450342 0.292597
Si Si3 0.715493 0.168275 0.339563
Si Si4 0.831712 0.250000 0.689447
Si Si5 0.318634 0.161600 0.956368
Si Si6 0.618192 0.909446 0.190197
Si Si7 0.500000 0.413812 0.559468
O O1 0.087077 0.097116 0.745397
O O2 0.127356 0.170846 0.822433
O O3 0.000000 0.104801 0.821681
O O4 0.109317 0.012601 0.816611
O O5 0.750000 0.442359 0.250000
O O6 0.783038 0.388584 0.330490
O O7 0.887623 0.435609 0.264230
O O8 0.809881 0.536988 0.307031
O O9 0.728836 0.250000 0.318364
O O10 0.641311 0.130664 0.317057
O O11 0.700860 0.174746 0.397521
O O12 0.868035 0.174014 0.673163
O O13 0.833944 0.250000 0.749298
O O14 0.747434 0.250000 0.672808
O O15 0.328927 0.250000 0.950918
#
# Coordination Sequence:
#
# PCOD9572945 Si02
#       7
#    32  32  32  16  32  32  16
#     4   9  17  32  53  79 108 143 186 223 271 320
#     4   9  20  37  60  81 106 144 191 234 271 330
#     4  11  23  37  56  82 112 144 185 230 286 340
#     4   9  20  28  48  78 110 142 178 214 270 329
#     4   9  20  36  56  79 110 147 184 231 281 336
#     4  10  20  34  53  80 113 144 175 227 284 334
#     4   9  17  28  50  78 107 141 182 228 254 313
#
# _framework density 21.705728000000001
#
# number of rings (size 3 to 8) (size 9 to 14) (size 15 to 20)
#    0.000    2.500    0.000    1.250   10.500    4.000 
#    0.000    0.833    0.000    0.000    0.000    0.000 
#    2.500    0.000    0.000    0.000    0.000    0.000 
#
# Total GULP energy -535145.845620 kJ/mol
# GULP energy per Si atom -5574.435892 kJ/mol
# Density = 2.165633 g / cm^3
# Si number density = 21.705728 Si / 1000 Ang^3
#
#
#
# Elastic Constant Matrix: (Units=GPa)
#
#
# Indices 1 2 3 4 5 6 
#
# 1 88.4743 17.6103 12.6812 0.0000 0.0000 0.0000
# 2 17.6103 88.4743 12.6812 0.0000 0.0000 0.0000
# 3 12.6812 12.6812 53.8201 0.0000 0.0000 0.0000
# 4 0.0000 0.0000 0.0000 14.0561 0.0000 0.0000
# 5 0.0000 0.0000 0.0000 0.0000 14.0561 0.0000
# 6 0.0000 0.0000 0.0000 0.0000 0.0000 6.7596
#
#
#
# Elastic Compliance Matrix: (Units=1/GPa)
#
#
# Indices 1 2 3 4 5 6 
#
# 1 0.012050 -0.002061 -0.002354 0.000000 0.000000 0.000000
# 2 -0.002061 0.012050 -0.002354 0.000000 0.000000 0.000000
# 3 -0.002354 -0.002354 0.019690 0.000000 0.000000 0.000000
# 4 0.000000 0.000000 0.000000 0.071144 0.000000 0.000000
# 5 0.000000 0.000000 0.000000 0.000000 0.071144 0.000000
# 6 0.000000 0.000000 0.000000 0.000000 0.000000 0.147937
#
#
# Mechanical properties :
#
#
# Convention : Reuss Voigt Hill
#
# Bulk Modulus (GPa) = 33.05433 35.19044 34.12238
# Shear Modulus (GPa) = 13.98070 19.49409 16.73740
#
# Velocity S-wave (km/s) = 2.54067 3.00010 2.77989
# Velocity P-wave (km/s) = 4.88550 5.31493 5.10473
#
# Compressibility (1/GPa) = 0.03025323
#
# Stress axis : x y z
#
# Youngs Moduli (GPa) = 82.98522 82.98522 50.78829
#
# Poissons Ratio (x) = 0.17105 0.11954
# Poissons Ratio (y) = 0.17105 0.11954
# Poissons Ratio (z) = 0.19532 0.19532
#
# Static dielectric constant tensor:
#      x y z
#    x 1.828480 0.000000 0.000000 
#    y 0.000000 1.828480 0.000000 
#    z 0.000000 0.000000 1.896670 
# 
# From -- ./inp_files/14490.got.cif
#   From: 2010.05.17/outbox.cif.g08.bks.cpg/sg141_8_cif.got.tgz:14490.got - 2010.05.20 13:30:51.
