data_PCOD9572006
_publ_section_title
;
Structure prediction by ZEFSAII (Michael W. Deem and Ramdas Pophale) SiO2 
 PCOD9572006
Probable space group: I 4/M C M
;
_chemical_formula_sum "Si O2"
_cell_formula_units_Z 144
_cell_length_a 17.519341
_cell_length_b 17.519341
_cell_length_c 24.483722
_cell_angle_alpha 90.000000
_cell_angle_beta 90.000000
_cell_angle_gamma 90.000000
_cell_volume 7514.722910
_symmetry_space_group_name_H-M "I 4/M C M"
_symmetry_group_IT_number 140
_symmetry_cell_setting 'tetragonal'
loop_
_space_group_symop_operation_xyz
x,y,z
-y,x,z
-x,-y,z
y,-x,z
x,-y,1/2-z
-x,y,1/2-z
y,x,1/2-z
-y,-x,1/2-z
-x,-y,-z
y,-x,-z
x,y,-z
-y,x,-z
-x,y,1/2+z
x,-y,1/2+z
-y,-x,1/2+z
y,x,1/2+z
1/2+x,1/2+y,1/2+z
1/2-y,1/2+x,1/2+z
1/2-x,1/2-y,1/2+z
1/2+y,1/2-x,1/2+z
1/2+x,1/2-y,-z
1/2-x,1/2+y,-z
1/2+y,1/2+x,-z
1/2-y,1/2-x,-z
1/2-x,1/2-y,1/2-z
1/2+y,1/2-x,1/2-z
1/2+x,1/2+y,1/2-z
1/2-y,1/2+x,1/2-z
1/2-x,1/2+y,z
1/2+x,1/2-y,z
1/2-y,1/2-x,z
1/2+y,1/2+x,z
loop_
_atom_site_type_symbol
_atom_site_label
_atom_site_fract_x
_atom_site_fract_y
_atom_site_fract_z
Si Si1 0.732056 0.109628 0.616787
Si Si2 0.566206 0.396256 0.630420
Si Si3 0.410909 0.210428 0.753983
Si Si4 0.493333 0.124174 0.435908
Si Si5 0.879540 0.879540 0.750000
O O1 0.681566 0.181566 0.596249
O O2 0.822275 0.108667 0.606984
O O3 0.721952 0.106950 0.682012
O O4 0.694764 0.031492 0.594414
O O5 0.602201 0.477191 0.614672
O O6 0.568337 0.391177 0.697009
O O7 0.500000 0.192080 0.750000
O O8 0.356229 0.143772 0.732639
O O9 0.392088 0.292996 0.728868
O O10 0.483640 0.141235 0.500000
O O11 0.557904 0.057904 0.431910
O O12 0.415361 0.084640 0.415129
#
# Coordination Sequence:
#
# PCOD9572006 Si02
#       5
#    32  32  32  32  16
#     4   9  18  32  48  70  99 127 159 203 255 307
#     4  10  19  31  48  69  93 124 164 206 247 294
#     4  10  20  31  44  65  96 133 166 196 240 301
#     4   8  14  27  50  77 100 125 161 205 252 299
#     4  10  17  31  48  66  88 117 165 218 254 274
#
# _framework density 19.162382000000001
#
# number of rings (size 3 to 8) (size 9 to 14) (size 15 to 20)
#    0.000    2.667    0.000    4.333    0.000    2.889 
#    0.000    3.333    0.000    1.333    0.000    4.667 
#    0.000    0.000    0.000    0.000    0.000    0.000 
#
# Total GULP energy -401140.302655 kJ/mol
# GULP energy per Si atom -5571.393092 kJ/mol
# Density = 1.911877 g / cm^3
# Si number density = 19.162382 Si / 1000 Ang^3
#
#
#
# Elastic Constant Matrix: (Units=GPa)
#
#
# Indices 1 2 3 4 5 6 
#
# 1 110.4889 65.7957 1.3031 0.0000 0.0000 0.0000
# 2 65.7957 110.4889 1.3031 0.0000 0.0000 0.0000
# 3 1.3031 1.3031 9.3892 0.0000 0.0000 0.0000
# 4 0.0000 0.0000 0.0000 -0.8312 0.0000 0.0000
# 5 0.0000 0.0000 0.0000 0.0000 -0.8312 0.0000
# 6 0.0000 0.0000 0.0000 0.0000 0.0000 18.7792
#
#
#
# Elastic Compliance Matrix: (Units=1/GPa)
#
#
# Indices 1 2 3 4 5 6 
#
# 1 0.014030 -0.008345 -0.000789 0.000000 0.000000 0.000000
# 2 -0.008345 0.014030 -0.000789 0.000000 0.000000 0.000000
# 3 -0.000789 -0.000789 0.106724 0.000000 0.000000 0.000000
# 4 0.000000 0.000000 0.000000 -1.203120 0.000001 0.000000
# 5 0.000000 0.000000 0.000000 0.000001 -1.203122 0.000000
# 6 0.000000 0.000000 0.000000 0.000000 0.000000 0.053250
#
#
# Mechanical properties :
#
#
# Convention : Reuss Voigt Hill
#
# Bulk Modulus (GPa) = 8.70040 40.79678 24.74859
# Shear Modulus (GPa) = -2.31476 14.22104 5.95314
#
# Velocity S-wave (km/s) = -1.10027 2.72717 1.76449
# Velocity P-wave (km/s) = 1.71350 5.59042 4.13455
#
# Compressibility (1/GPa) = 0.11493724
#
# Stress axis : x y z
#
# Youngs Moduli (GPa) = 71.27818 71.27818 9.36993
#
# Poissons Ratio (x) = 0.59483 0.00739
# Poissons Ratio (y) = 0.59483 0.00739
# Poissons Ratio (z) = 0.05623 0.05623
#
# Static dielectric constant tensor:
#      x y z
#    x 1.704530 0.000000 0.000000 
#    y 0.000000 1.704530 0.000000 
#    z 0.000000 0.000000 1.656590 
# 
# From -- ./inp_files/10434.got.cif
#   From: 2010.05.17/outbox.cif.g08.bks.cpg/sg140_6_cif.got.tgz:10434.got - 2010.06.21 00:45:31.
