data_PCOD9572366
_publ_section_title
;
Structure prediction by ZEFSAII (Michael W. Deem and Ramdas Pophale) SiO2 
 PCOD9572366
Probable space group: I 4/M C M
;
_chemical_formula_sum "Si O2"
_cell_formula_units_Z 160
_cell_length_a 16.624707
_cell_length_b 16.624707
_cell_length_c 28.631607
_cell_angle_alpha 90.000000
_cell_angle_beta 90.000000
_cell_angle_gamma 90.000000
_cell_volume 7913.228820
_symmetry_space_group_name_H-M "I 4/M C M"
_symmetry_group_IT_number 140
_symmetry_cell_setting 'tetragonal'
loop_
_space_group_symop_operation_xyz
x,y,z
-y,x,z
-x,-y,z
y,-x,z
x,-y,1/2-z
-x,y,1/2-z
y,x,1/2-z
-y,-x,1/2-z
-x,-y,-z
y,-x,-z
x,y,-z
-y,x,-z
-x,y,1/2+z
x,-y,1/2+z
-y,-x,1/2+z
y,x,1/2+z
1/2+x,1/2+y,1/2+z
1/2-y,1/2+x,1/2+z
1/2-x,1/2-y,1/2+z
1/2+y,1/2-x,1/2+z
1/2+x,1/2-y,-z
1/2-x,1/2+y,-z
1/2+y,1/2+x,-z
1/2-y,1/2-x,-z
1/2-x,1/2-y,1/2-z
1/2+y,1/2-x,1/2-z
1/2+x,1/2+y,1/2-z
1/2-y,1/2+x,1/2-z
1/2-x,1/2+y,z
1/2+x,1/2-y,z
1/2-y,1/2-x,z
1/2+y,1/2+x,z
loop_
_atom_site_type_symbol
_atom_site_label
_atom_site_fract_x
_atom_site_fract_y
_atom_site_fract_z
Si Si1 0.697016 0.935113 0.636114
Si Si2 0.729793 0.100521 0.333241
Si Si3 0.287273 0.657750 0.553457
Si Si4 0.124120 0.242281 0.231457
Si Si5 0.387221 0.424372 0.387261
O O1 0.614506 0.885495 0.642218
O O2 0.740507 0.898111 0.590872
O O3 0.751341 0.920918 0.682662
O O4 0.688765 0.030800 0.636215
O O5 0.685063 0.185063 0.340861
O O6 0.722154 0.082915 0.277882
O O7 0.822933 0.102166 0.348181
O O8 0.275201 0.632291 0.500000
O O9 0.245423 0.745423 0.558331
O O10 0.380806 0.650969 0.567357
O O11 0.157046 0.157046 0.250000
O O12 0.202123 0.297878 0.222430
O O13 0.479214 0.393796 0.385282
#
# Coordination Sequence:
#
# PCOD9572366 Si02
#       5
#    32  32  32  32  32
#     4  10  20  38  61  88 126 164 206 260 311 364
#     4  11  22  38  62  93 126 164 211 256 306 372
#     4  10  21  40  67  92 116 156 207 256 309 367
#     4   9  18  32  57  88 118 162 208 246 302 370
#     4  11  23  40  62  90 126 164 203 251 310 372
#
# _framework density 20.219307000000001
#
# number of rings (size 3 to 8) (size 9 to 14) (size 15 to 20)
#    0.000    1.800    2.000    2.400    0.000    4.400 
#    0.000    1.000    0.000    4.200    0.000    2.800 
#    0.000    0.000    0.000    0.000    0.000    0.000 
#
# Total GULP energy -445728.130816 kJ/mol
# GULP energy per Si atom -5571.601635 kJ/mol
# Density = 2.017329 g / cm^3
# Si number density = 20.219307 Si / 1000 Ang^3
#
#
#
# Elastic Constant Matrix: (Units=GPa)
#
#
# Indices 1 2 3 4 5 6 
#
# 1 110.3009 57.1031 37.5185 0.0000 0.0000 0.0000
# 2 57.1031 110.3009 37.5185 0.0000 0.0000 0.0000
# 3 37.5185 37.5185 135.8472 0.0000 0.0000 0.0000
# 4 0.0000 0.0000 0.0000 22.7981 0.0000 0.0000
# 5 0.0000 0.0000 0.0000 0.0000 22.7981 0.0000
# 6 0.0000 0.0000 0.0000 0.0000 0.0000 36.5212
#
#
#
# Elastic Compliance Matrix: (Units=1/GPa)
#
#
# Indices 1 2 3 4 5 6 
#
# 1 0.012808 -0.005990 -0.001883 0.000000 0.000000 0.000000
# 2 -0.005990 0.012808 -0.001883 0.000000 0.000000 0.000000
# 3 -0.001883 -0.001883 0.008401 0.000000 0.000000 0.000000
# 4 0.000000 0.000000 0.000000 0.043863 0.000000 0.000000
# 5 0.000000 0.000000 0.000000 0.000000 0.043863 0.000000
# 6 0.000000 0.000000 0.000000 0.000000 0.000000 0.027381
#
#
# Mechanical properties :
#
#
# Convention : Reuss Voigt Hill
#
# Bulk Modulus (GPa) = 68.94258 68.96991 68.95625
# Shear Modulus (GPa) = 28.82324 31.37741 30.10033
#
# Velocity S-wave (km/s) = 3.77972 3.94363 3.86254
# Velocity P-wave (km/s) = 7.29519 7.41089 7.35327
#
# Compressibility (1/GPa) = 0.01450482
#
# Stress axis : x y z
#
# Youngs Moduli (GPa) = 78.07818 78.07818 119.02999
#
# Poissons Ratio (x) = 0.46770 0.22412
# Poissons Ratio (y) = 0.46770 0.22412
# Poissons Ratio (z) = 0.14701 0.14701
#
# Static dielectric constant tensor:
#      x y z
#    x 1.768310 0.000000 0.000000 
#    y 0.000000 1.768310 0.000000 
#    z 0.000000 0.000000 1.737690 
# 
# From -- ./inp_files/10531.got.cif
#   From: 2010.05.17/outbox.cif.g08.bks.cpg/sg140_6_cif.got.tgz:10531.got - 2010.06.21 00:45:31.
