data_PCOD9572627
_publ_section_title
;
Structure prediction by ZEFSAII (Michael W. Deem and Ramdas Pophale) SiO2 
 PCOD9572627
Probable space group: I 4/M C M
;
_chemical_formula_sum "Si O2"
_cell_formula_units_Z 112
_cell_length_a 14.243476
_cell_length_b 14.243476
_cell_length_c 32.297704
_cell_angle_alpha 90.000000
_cell_angle_beta 90.000000
_cell_angle_gamma 90.000000
_cell_volume 6552.448652
_symmetry_space_group_name_H-M "I 4/M C M"
_symmetry_group_IT_number 140
_symmetry_cell_setting 'tetragonal'
loop_
_space_group_symop_operation_xyz
x,y,z
-y,x,z
-x,-y,z
y,-x,z
x,-y,1/2-z
-x,y,1/2-z
y,x,1/2-z
-y,-x,1/2-z
-x,-y,-z
y,-x,-z
x,y,-z
-y,x,-z
-x,y,1/2+z
x,-y,1/2+z
-y,-x,1/2+z
y,x,1/2+z
1/2+x,1/2+y,1/2+z
1/2-y,1/2+x,1/2+z
1/2-x,1/2-y,1/2+z
1/2+y,1/2-x,1/2+z
1/2+x,1/2-y,-z
1/2-x,1/2+y,-z
1/2+y,1/2+x,-z
1/2-y,1/2-x,-z
1/2-x,1/2-y,1/2-z
1/2+y,1/2-x,1/2-z
1/2+x,1/2+y,1/2-z
1/2-y,1/2+x,1/2-z
1/2-x,1/2+y,z
1/2+x,1/2-y,z
1/2-y,1/2-x,z
1/2+y,1/2+x,z
loop_
_atom_site_type_symbol
_atom_site_label
_atom_site_fract_x
_atom_site_fract_y
_atom_site_fract_z
Si Si1 0.854165 0.062410 0.000000
Si Si2 0.657811 0.520669 0.839701
Si Si3 0.919629 0.580372 0.546635
Si Si4 0.063825 0.723438 0.420501
Si Si5 0.840657 0.000000 0.750000
O O1 0.794205 0.082843 0.041331
O O2 0.951955 0.118638 0.000000
O O3 0.577124 0.600604 0.842124
O O4 0.724521 0.543250 0.877718
O O5 0.707731 0.512519 0.794548
O O6 0.893259 0.606742 0.500000
O O7 0.833230 0.530737 0.568365
O O8 0.000000 0.500000 0.544361
O O9 0.149249 0.649249 0.417418
O O10 0.910683 0.089318 0.750000
#
# Coordination Sequence:
#
# PCOD9572627 Si02
#       5
#    16  32  16  32  16
#     4  11  23  39  54  75 108 139 170 217 263 300
#     4   9  17  33  55  80 107 135 170 215 262 306
#     4   9  18  36  56  68  95 140 178 210 247 301
#     4  11  21  36  54  77 106 139 175 212 256 311
#     4   7  12  26  54  78  97 134 172 202 251 314
#
# _framework density 17.092846999999999
#
# number of rings (size 3 to 8) (size 9 to 14) (size 15 to 20)
#    0.000    2.429    1.429    3.857    0.000    2.286 
#   12.857    0.000    3.143    2.571    0.000    0.000 
#    0.000    0.000    0.000    0.000    0.000    0.000 
#
# Total GULP energy -311810.130633 kJ/mol
# GULP energy per Si atom -5568.038047 kJ/mol
# Density = 1.705394 g / cm^3
# Si number density = 17.092847 Si / 1000 Ang^3
#
#
#
# Elastic Constant Matrix: (Units=GPa)
#
#
# Indices 1 2 3 4 5 6 
#
# 1 60.1590 32.9723 63.7713 0.0000 0.0000 0.0000
# 2 32.9723 60.1583 63.7713 0.0000 0.0000 0.0000
# 3 63.7713 63.7713 211.5424 0.0000 0.0000 0.0000
# 4 0.0000 0.0000 0.0000 10.4162 0.0000 0.0000
# 5 0.0000 0.0000 0.0000 0.0000 10.4159 0.0000
# 6 0.0000 0.0000 0.0000 0.0000 0.0000 38.6295
#
#
#
# Elastic Compliance Matrix: (Units=1/GPa)
#
#
# Indices 1 2 3 4 5 6 
#
# 1 0.027535 -0.009248 -0.005513 0.000000 0.000000 0.000000
# 2 -0.009248 0.027536 -0.005513 0.000000 0.000000 0.000000
# 3 -0.005513 -0.005513 0.008051 0.000000 0.000000 0.000000
# 4 0.000000 0.000000 0.000000 0.096004 0.000000 0.000000
# 5 0.000000 0.000000 0.000000 0.000000 0.096007 0.000000
# 6 0.000000 0.000000 0.000000 0.000000 0.000000 0.025887
#
#
# Mechanical properties :
#
#
# Convention : Reuss Voigt Hill
#
# Bulk Modulus (GPa) = 44.29807 72.54327 58.42067
# Shear Modulus (GPa) = 15.19331 23.31530 19.25431
#
# Velocity S-wave (km/s) = 2.98463 3.69730 3.35991
# Velocity P-wave (km/s) = 6.15221 7.79484 7.02173
#
# Compressibility (1/GPa) = 0.02257435
#
# Stress axis : x y z
#
# Youngs Moduli (GPa) = 36.31724 36.31668 124.20771
#
# Poissons Ratio (x) = 0.33585 0.68474
# Poissons Ratio (y) = 0.33586 0.68476
# Poissons Ratio (z) = 0.20021 0.20021
#
# Static dielectric constant tensor:
#      x y z
#    x 1.572690 0.000000 0.000000 
#    y 0.000000 1.572700 0.000000 
#    z 0.000000 0.000000 1.622580 
# 
# From -- ./inp_files/10287.got.cif
#   From: 2010.05.17/outbox.cif.g08.bks.cpg/sg140_6_cif.got.tgz:10287.got - 2010.06.21 00:45:31.
