data_PCOD9572205
_publ_section_title
;
Structure prediction by ZEFSAII (Michael W. Deem and Ramdas Pophale) SiO2 
 PCOD9572205
Probable space group: I 4/M C M
;
_chemical_formula_sum "Si O2"
_cell_formula_units_Z 160
_cell_length_a 19.388718
_cell_length_b 19.388718
_cell_length_c 22.016671
_cell_angle_alpha 90.000000
_cell_angle_beta 90.000000
_cell_angle_gamma 90.000000
_cell_volume 8276.559487
_symmetry_space_group_name_H-M "I 4/M C M"
_symmetry_group_IT_number 140
_symmetry_cell_setting 'tetragonal'
loop_
_space_group_symop_operation_xyz
x,y,z
-y,x,z
-x,-y,z
y,-x,z
x,-y,1/2-z
-x,y,1/2-z
y,x,1/2-z
-y,-x,1/2-z
-x,-y,-z
y,-x,-z
x,y,-z
-y,x,-z
-x,y,1/2+z
x,-y,1/2+z
-y,-x,1/2+z
y,x,1/2+z
1/2+x,1/2+y,1/2+z
1/2-y,1/2+x,1/2+z
1/2-x,1/2-y,1/2+z
1/2+y,1/2-x,1/2+z
1/2+x,1/2-y,-z
1/2-x,1/2+y,-z
1/2+y,1/2+x,-z
1/2-y,1/2-x,-z
1/2-x,1/2-y,1/2-z
1/2+y,1/2-x,1/2-z
1/2+x,1/2+y,1/2-z
1/2-y,1/2+x,1/2-z
1/2-x,1/2+y,z
1/2+x,1/2-y,z
1/2-y,1/2-x,z
1/2+y,1/2+x,z
loop_
_atom_site_type_symbol
_atom_site_label
_atom_site_fract_x
_atom_site_fract_y
_atom_site_fract_z
Si Si1 0.751304 0.365612 0.878192
Si Si2 0.885064 0.502144 0.684696
Si Si3 0.302267 0.417746 0.750180
Si Si4 0.749095 0.636442 0.878640
Si Si5 0.208687 0.497357 0.066819
O O1 0.821866 0.321866 0.882369
O O2 0.738870 0.393959 0.809996
O O3 0.690223 0.311983 0.891099
O O4 0.751683 0.431141 0.922217
O O5 0.847119 0.500000 0.750000
O O6 0.926824 0.573177 0.681197
O O7 0.842733 0.494179 0.623777
O O8 0.941698 0.441698 0.687611
O O9 0.313658 0.500000 0.750000
O O10 0.373914 0.373914 0.750000
O O11 0.262439 0.392894 0.810667
O O12 0.820251 0.679750 0.882276
O O13 0.747779 0.572072 0.923909
O O14 0.176549 0.497515 0.000000
#
# Coordination Sequence:
#
# PCOD9572205 Si02
#       5
#    32  32  32  32  32
#     4  10  22  40  62  89 122 161 205 252 304 365
#     4   9  20  38  58  82 115 157 199 238 290 357
#     4  10  19  36  63  96 128 158 201 258 312 364
#     4  10  22  40  62  89 122 161 205 252 304 365
#     4  12  25  39  59  89 121 156 200 252 309 364
#
# _framework density 19.331704999999999
#
# number of rings (size 3 to 8) (size 9 to 14) (size 15 to 20)
#    0.000    1.800    2.000    2.400    2.800    6.600 
#    0.000    3.000    0.000    0.600    0.000    1.400 
#    0.000    0.000    0.000    0.000    0.000    0.000 
#
# Total GULP energy -446889.113337 kJ/mol
# GULP energy per Si atom -5586.113917 kJ/mol
# Density = 1.928771 g / cm^3
# Si number density = 19.331705 Si / 1000 Ang^3
#
#
#
# Elastic Constant Matrix: (Units=GPa)
#
#
# Indices 1 2 3 4 5 6 
#
# 1 115.7686 42.0042 36.7956 0.0000 0.0000 0.0000
# 2 42.0042 115.7686 36.7956 0.0000 0.0000 0.0000
# 3 36.7956 36.7956 126.6278 0.0000 0.0000 0.0000
# 4 0.0000 0.0000 0.0000 1.9953 0.0000 0.0000
# 5 0.0000 0.0000 0.0000 0.0000 1.9953 0.0000
# 6 0.0000 0.0000 0.0000 0.0000 0.0000 24.7729
#
#
#
# Elastic Compliance Matrix: (Units=1/GPa)
#
#
# Indices 1 2 3 4 5 6 
#
# 1 0.010444 -0.003112 -0.002131 0.000000 0.000000 0.000000
# 2 -0.003112 0.010444 -0.002131 0.000000 0.000000 0.000000
# 3 -0.002131 -0.002131 0.009135 0.000000 0.000000 0.000000
# 4 0.000000 0.000000 0.000000 0.501173 0.000000 0.000000
# 5 0.000000 0.000000 0.000000 0.000000 0.501172 0.000000
# 6 0.000000 0.000000 0.000000 0.000000 0.000000 0.040367
#
#
# Mechanical properties :
#
#
# Convention : Reuss Voigt Hill
#
# Bulk Modulus (GPa) = 65.45708 65.48397 65.47053
# Shear Modulus (GPa) = 4.57635 21.92402 13.25018
#
# Velocity S-wave (km/s) = 1.54026 3.37129 2.62088
# Velocity P-wave (km/s) = 6.09071 7.00725 6.56499
#
# Compressibility (1/GPa) = 0.01527719
#
# Stress axis : x y z
#
# Youngs Moduli (GPa) = 95.74574 95.74573 109.46487
#
# Poissons Ratio (x) = 0.29799 0.23322
# Poissons Ratio (y) = 0.29799 0.23322
# Poissons Ratio (z) = 0.20399 0.20399
#
# Static dielectric constant tensor:
#      x y z
#    x 1.701650 0.000000 0.000000 
#    y 0.000000 1.701650 0.000000 
#    z 0.000000 0.000000 1.670250 
# 
# From -- ./inp_files/6874.got.cif
#   From: 2010.05.17/outbox.cif.g08.bks.cpg/sg140_4_cif.got.tgz:6874.got - 2010.06.21 00:45:31.
