data_PCOD9572532
_publ_section_title
;
Structure prediction by ZEFSAII (Michael W. Deem and Ramdas Pophale) SiO2 
 PCOD9572532
Probable space group: I 4/M C M
;
_chemical_formula_sum "Si O2"
_cell_formula_units_Z 160
_cell_length_a 23.640159
_cell_length_b 23.640159
_cell_length_c 13.381256
_cell_angle_alpha 90.000000
_cell_angle_beta 90.000000
_cell_angle_gamma 90.000000
_cell_volume 7478.210157
_symmetry_space_group_name_H-M "I 4/M C M"
_symmetry_group_IT_number 140
_symmetry_cell_setting 'tetragonal'
loop_
_space_group_symop_operation_xyz
x,y,z
-y,x,z
-x,-y,z
y,-x,z
x,-y,1/2-z
-x,y,1/2-z
y,x,1/2-z
-y,-x,1/2-z
-x,-y,-z
y,-x,-z
x,y,-z
-y,x,-z
-x,y,1/2+z
x,-y,1/2+z
-y,-x,1/2+z
y,x,1/2+z
1/2+x,1/2+y,1/2+z
1/2-y,1/2+x,1/2+z
1/2-x,1/2-y,1/2+z
1/2+y,1/2-x,1/2+z
1/2+x,1/2-y,-z
1/2-x,1/2+y,-z
1/2+y,1/2+x,-z
1/2-y,1/2-x,-z
1/2-x,1/2-y,1/2-z
1/2+y,1/2-x,1/2-z
1/2+x,1/2+y,1/2-z
1/2-y,1/2+x,1/2-z
1/2-x,1/2+y,z
1/2+x,1/2-y,z
1/2-y,1/2-x,z
1/2+y,1/2+x,z
loop_
_atom_site_type_symbol
_atom_site_label
_atom_site_fract_x
_atom_site_fract_y
_atom_site_fract_z
Si Si1 0.690930 0.398349 0.618544
Si Si2 0.811325 0.541902 0.112372
Si Si3 0.913755 0.676864 0.323011
Si Si4 0.916913 0.962485 0.377962
Si Si5 0.824971 0.231579 0.880089
O O1 0.681350 0.394297 0.500000
O O2 0.747763 0.434587 0.626871
O O3 0.639260 0.433766 0.661903
O O4 0.689165 0.332744 0.649352
O O5 0.815279 0.474029 0.123276
O O6 0.839639 0.570083 0.209099
O O7 0.829901 0.558024 0.000000
O O8 0.871950 0.628051 0.364101
O O9 0.877739 0.735248 0.330558
O O10 0.914737 0.962805 0.500000
O O11 0.972660 0.927405 0.350340
O O12 0.770148 0.270148 0.861430
O O13 0.836010 0.232680 0.000000
#
# Coordination Sequence:
#
# PCOD9572532 Si02
#       5
#    32  32  32  32  32
#     4   9  18  30  50  82 119 161 203 250 302 356
#     4  10  22  39  60  90 124 157 199 250 309 368
#     4  10  22  40  63  91 123 161 204 249 301 366
#     4   8  14  24  40  68 106 150 201 248 288 334
#     4   9  18  33  55  85 121 161 204 248 296 354
#
# _framework density 21.395495
#
# number of rings (size 3 to 8) (size 9 to 14) (size 15 to 20)
#    0.000    2.800    0.000    1.200    2.800    3.200 
#    0.000    4.000    0.000    4.800    0.000    5.600 
#    0.000    0.000    0.000    0.000    0.000    0.000 
#
# Total GULP energy -446403.896709 kJ/mol
# GULP energy per Si atom -5580.048709 kJ/mol
# Density = 2.134680 g / cm^3
# Si number density = 21.395495 Si / 1000 Ang^3
#
#
#
# Elastic Constant Matrix: (Units=GPa)
#
#
# Indices 1 2 3 4 5 6 
#
# 1 43.1446 86.5952 12.9813 0.0000 0.0000 0.0000
# 2 86.5952 43.1446 12.9813 0.0000 0.0000 0.0000
# 3 12.9813 12.9813 101.3720 0.0000 0.0000 0.0000
# 4 0.0000 0.0000 0.0000 16.4673 0.0000 0.0000
# 5 0.0000 0.0000 0.0000 0.0000 16.4673 0.0000
# 6 0.0000 0.0000 0.0000 0.0000 0.0000 23.6835
#
#
#
# Elastic Compliance Matrix: (Units=1/GPa)
#
#
# Indices 1 2 3 4 5 6 
#
# 1 -0.007552 0.015463 -0.001013 0.000000 0.000000 0.000000
# 2 0.015463 -0.007552 -0.001013 0.000000 0.000000 0.000000
# 3 -0.001013 -0.001013 0.010124 0.000000 0.000000 0.000000
# 4 0.000000 0.000000 0.000000 0.060727 0.000000 0.000000
# 5 0.000000 0.000000 0.000000 0.000000 0.060727 0.000000
# 6 0.000000 0.000000 0.000000 0.000000 0.000000 0.042223
#
#
# Mechanical properties :
#
#
# Convention : Reuss Voigt Hill
#
# Bulk Modulus (GPa) = 45.67659 45.86411 45.77035
# Shear Modulus (GPa) = 35.93995 16.33050 26.13522
#
# Velocity S-wave (km/s) = 4.10297 2.76573 3.49883
# Velocity P-wave (km/s) = 6.62124 5.62867 6.14503
#
# Compressibility (1/GPa) = 0.02189305
#
# Stress axis : x y z
#
# Youngs Moduli (GPa) = -132.41356 -132.41356 98.77425
#
# Poissons Ratio (x) = 2.04745 0.10006
# Poissons Ratio (y) = 2.04745 0.10006
# Poissons Ratio (z) = -0.13413 -0.13413
#
# Static dielectric constant tensor:
#      x y z
#    x 1.740300 0.000000 0.000000 
#    y 0.000000 1.740300 0.000000 
#    z 0.000000 0.000000 1.881130 
# 
# From -- ./inp_files/4766.got.cif
#   From: 2010.05.17/outbox.cif.g08.bks.cpg/sg140_3_cif.got.tgz:4766.got - 2010.06.21 00:45:31.
