data_PCOD9572814
_publ_section_title
;
Structure prediction by ZEFSAII (Michael W. Deem and Ramdas Pophale) SiO2 
 PCOD9572814
Probable space group: I 41/A M D
;
_chemical_formula_sum "Si O2"
_cell_formula_units_Z 128
_cell_length_a 16.411385
_cell_length_b 16.411385
_cell_length_c 20.401087
_cell_angle_alpha 90.000000
_cell_angle_beta 90.000000
_cell_angle_gamma 90.000000
_cell_volume 5494.697341
_symmetry_space_group_name_H-M "I 41/A M D"
_symmetry_group_IT_number 141
_space_group.IT_coordinate_system_code '2'
_symmetry_cell_setting 'tetragonal'
loop_
_space_group_symop_operation_xyz
x,y,z
1/4-y,3/4+x,1/4+z
-x,1/2-y,z
1/4+y,1/4-x,3/4+z
x,-y,-z
-x,1/2+y,-z
1/4+y,3/4+x,1/4-z
1/4-y,1/4-x,3/4-z
-x,-y,-z
3/4+y,1/4-x,3/4-z
x,1/2+y,-z
3/4-y,3/4+x,1/4-z
-x,y,z
x,1/2-y,z
3/4-y,1/4-x,3/4+z
3/4+y,3/4+x,1/4+z
1/2+x,1/2+y,1/2+z
3/4-y,1/4+x,3/4+z
1/2-x,-y,1/2+z
3/4+y,3/4-x,1/4+z
1/2+x,1/2-y,1/2-z
1/2-x,y,1/2-z
3/4+y,1/4+x,3/4-z
3/4-y,3/4-x,1/4-z
1/2-x,1/2-y,1/2-z
1/4+y,3/4-x,1/4-z
1/2+x,y,1/2-z
1/4-y,1/4+x,3/4-z
1/2-x,1/2+y,1/2+z
1/2+x,-y,1/2+z
1/4-y,3/4-x,1/4+z
1/4+y,1/4+x,3/4+z
loop_
_atom_site_type_symbol
_atom_site_label
_atom_site_fract_x
_atom_site_fract_y
_atom_site_fract_z
Si Si1 0.599061 0.162703 0.460887
Si Si2 0.406340 0.432633 0.580606
Si Si3 0.598892 0.419377 0.331211
Si Si4 0.099637 0.845214 0.697244
O O1 0.500000 0.163359 0.465462
O O2 0.631314 0.250000 0.483326
O O3 0.627323 0.091548 0.509416
O O4 0.618542 0.149417 0.385068
O O5 0.500000 0.456248 0.570013
O O6 0.398173 0.351828 0.625000
O O7 0.372566 0.500332 0.630357
O O8 0.500000 0.423621 0.326112
O O9 0.628788 0.397890 0.258967
O O10 0.124924 0.874924 0.625000
O O11 0.122577 0.750000 0.706137
O O12 0.000000 0.846391 0.696324
#
# Coordination Sequence:
#
# PCOD9572814 Si02
#       4
#    32  32  32  32
#     4   9  16  26  42  64  91 123 159 203 252 296
#     4  10  19  29  41  61  92 128 165 203 243 290
#     4   9  16  26  41  64  94 126 162 203 246 293
#     4   8  13  22  39  66  99 130 160 199 245 288
#
# _framework density 23.295186999999999
#
# number of rings (size 3 to 8) (size 9 to 14) (size 15 to 20)
#    0.000    3.000    0.000    3.000    0.000    7.250 
#    0.000    0.000    0.000    0.000    0.000    8.750 
#    0.000   10.000    0.000    0.000    0.000    0.500 
#
# Total GULP energy -356610.812377 kJ/mol
# GULP energy per Si atom -5572.043943 kJ/mol
# Density = 2.324217 g / cm^3
# Si number density = 23.295187 Si / 1000 Ang^3
#
#
#
# Elastic Constant Matrix: (Units=GPa)
#
#
# Indices 1 2 3 4 5 6 
#
# 1 51.4654 13.5641 47.1988 0.0000 0.0000 0.0000
# 2 13.5641 51.4669 47.1985 0.0000 0.0000 0.0000
# 3 47.1988 47.1985 254.7235 0.0000 0.0000 0.0000
# 4 0.0000 0.0000 0.0000 -12.3470 0.0000 0.0000
# 5 0.0000 0.0000 0.0000 0.0000 -12.3466 0.0000
# 6 0.0000 0.0000 0.0000 0.0000 0.0000 5.8810
#
#
#
# Elastic Compliance Matrix: (Units=1/GPa)
#
#
# Indices 1 2 3 4 5 6 
#
# 1 0.023710 -0.002674 -0.003898 0.000000 0.000000 0.000000
# 2 -0.002674 0.023709 -0.003898 0.000000 0.000000 0.000000
# 3 -0.003898 -0.003898 0.005370 0.000000 0.000000 0.000000
# 4 0.000000 0.000000 0.000000 -0.080991 0.000000 0.000000
# 5 0.000000 0.000000 0.000000 0.000000 -0.080994 0.000000
# 6 0.000000 0.000000 0.000000 0.000000 0.000000 0.170038
#
#
# Mechanical properties :
#
#
# Convention : Reuss Voigt Hill
#
# Bulk Modulus (GPa) = 31.39709 63.73096 47.56402
# Shear Modulus (GPa) = 54.11362 12.88377 33.49870
#
# Velocity S-wave (km/s) = 4.82493 2.35429 3.79622
# Velocity P-wave (km/s) = 6.67436 5.89980 6.29900
#
# Compressibility (1/GPa) = 0.03185008
#
# Stress axis : x y z
#
# Youngs Moduli (GPa) = 42.17624 42.17782 186.21038
#
# Poissons Ratio (x) = 0.11279 0.72581
# Poissons Ratio (y) = 0.11279 0.72578
# Poissons Ratio (z) = 0.16440 0.16439
#
# Static dielectric constant tensor:
#      x y z
#    x 1.990320 0.000000 0.000000 
#    y 0.000000 1.990320 0.000000 
#    z 0.000000 0.000000 1.908540 
# 
# From -- ./inp_files/8270.got.cif
#   From: 2010.05.17/outbox.cif.g08.bks.cpg/sg141_5_cif.got.tgz:8270.got - 2010.05.20 13:30:51.
