data_PCOD9572723
_publ_section_title
;
Structure prediction by ZEFSAII (Michael W. Deem and Ramdas Pophale) SiO2 
 PCOD9572723
Probable space group: I 4/M C M
;
_chemical_formula_sum "Si O2"
_cell_formula_units_Z 88
_cell_length_a 24.000000
_cell_length_b 24.000000
_cell_length_c 15.000000
_cell_angle_alpha 90.000000
_cell_angle_beta 90.000000
_cell_angle_gamma 90.000000
_cell_volume 8640.000000
_symmetry_space_group_name_H-M "I 4/M C M"
_symmetry_group_IT_number 140
_symmetry_cell_setting 'tetragonal'
loop_
_space_group_symop_operation_xyz
x,y,z
-y,x,z
-x,-y,z
y,-x,z
x,-y,1/2-z
-x,y,1/2-z
y,x,1/2-z
-y,-x,1/2-z
-x,-y,-z
y,-x,-z
x,y,-z
-y,x,-z
-x,y,1/2+z
x,-y,1/2+z
-y,-x,1/2+z
y,x,1/2+z
1/2+x,1/2+y,1/2+z
1/2-y,1/2+x,1/2+z
1/2-x,1/2-y,1/2+z
1/2+y,1/2-x,1/2+z
1/2+x,1/2-y,-z
1/2-x,1/2+y,-z
1/2+y,1/2+x,-z
1/2-y,1/2-x,-z
1/2-x,1/2-y,1/2-z
1/2+y,1/2-x,1/2-z
1/2+x,1/2+y,1/2-z
1/2-y,1/2+x,1/2-z
1/2-x,1/2+y,z
1/2+x,1/2-y,z
1/2-y,1/2-x,z
1/2+y,1/2+x,z
loop_
_atom_site_type_symbol
_atom_site_label
_atom_site_fract_x
_atom_site_fract_y
_atom_site_fract_z
Si Si1 0.873052 0.462505 0.893066
Si Si2 0.548124 0.048124 0.893821
Si Si3 0.040852 0.844748 0.891956
Si Si4 0.061413 0.735133 0.793657
Si Si5 0.332865 0.258067 0.683356
Si Si6 0.912906 0.854818 0.106543
O O1 0.917020 0.417020 0.861648
O O2 0.895304 0.522011 0.857472
O O3 0.813689 0.443931 0.863773
O O4 0.875733 0.464728 0.000000
O O5 0.500000 0.000000 0.885251
O O6 0.555959 0.055959 0.000000
O O7 0.069273 0.791948 0.846841
O O8 0.083035 0.894072 0.866279
O O9 0.976387 0.845819 0.861496
O O10 0.040777 0.840536 0.000000
O O11 0.115198 0.727114 0.731430
O O12 0.000000 0.736727 0.750000
O O13 0.294161 0.294161 0.750000
O O14 0.289528 0.210473 0.644790
O O15 0.368242 0.306318 0.630745
O O16 0.915604 0.854656 0.000000
#
# Coordination Sequence:
#
# PCOD9572723 Si02
#       6
#    32  16  32  32  32  32
#     4   9  18  35  57  80 109 147 196 247 293 346
#     4   7  12  28  54  76 100 138 180 233 297 347
#     4  10  21  38  62  89 117 151 191 236 293 359
#     4  12  22  36  57  82 117 157 194 242 292 350
#     4  11  23  40  61  85 119 159 200 244 293 346
#     4  10  21  40  64  90 121 155 194 241 297 361
#
# _framework density 10.185185000000001
#
# number of rings (size 3 to 8) (size 9 to 14) (size 15 to 20)
#    0.000    1.909    3.636    2.182    0.000    0.727 
#    3.273    1.818    0.000    0.000    0.000    0.000 
#    0.000    0.000    0.000    0.000    0.000    0.000 
#
# Total GULP energy -489932.674478 kJ/mol
# GULP energy per Si atom -5567.416755 kJ/mol
# Density = 1.016200 g / cm^3
# Si number density = 10.185185 Si / 1000 Ang^3
#
#
#
# Elastic Constant Matrix: (Units=GPa)
#
#
# Indices 1 2 3 4 5 6 
#
# 1 -296.9877 428.5998 14.9579 0.0000 0.0000 0.0000
# 2 428.5998 -296.9877 14.9579 0.0000 0.0000 0.0000
# 3 14.9579 14.9579 17.4346 0.0000 0.0000 0.0000
# 4 0.0000 0.0000 0.0000 -10.0614 0.0000 0.0000
# 5 0.0000 0.0000 0.0000 0.0000 -10.0614 0.0000
# 6 0.0000 0.0000 0.0000 0.0000 0.0000 -23.6112
#
#
#
# Elastic Compliance Matrix: (Units=1/GPa)
#
#
# Indices 1 2 3 4 5 6 
#
# 1 0.004030 0.005408 -0.008098 0.000000 0.000000 0.000000
# 2 0.005408 0.004030 -0.008098 0.000000 0.000000 0.000000
# 3 -0.008098 -0.008098 0.071252 0.000000 0.000000 0.000000
# 4 0.000000 0.000000 0.000000 -0.099390 0.000000 0.000000
# 5 0.000000 0.000000 0.000000 0.000000 -0.099390 0.000000
# 6 0.000000 0.000000 0.000000 0.000000 0.000000 -0.042353
#
#
# Mechanical properties :
#
#
# Convention : Reuss Voigt Hill
#
# Bulk Modulus (GPa) = 17.31961 37.83227 27.57594
# Shear Modulus (GPa) = -41.32280 -77.75057 -59.53669
#
# Velocity S-wave (km/s) = -4.50886 -6.18477 -5.41207
# Velocity P-wave (km/s) = 4.31110 5.69115 5.04850
#
# Compressibility (1/GPa) = 0.05773802
#
# Stress axis : x y z
#
# Youngs Moduli (GPa) = 248.12178 248.12178 14.03469
#
# Poissons Ratio (x) = -1.34196 0.11365
# Poissons Ratio (y) = -1.34196 0.11365
# Poissons Ratio (z) = 2.00926 2.00926
#
# Static dielectric constant tensor:
#      x y z
#    x 1.809070 0.000000 0.000000 
#    y 0.000000 1.809070 0.000000 
#    z 0.000000 0.000000 1.757220 
# 
# From -- ./inp_files/4896.got.cif
#   From: 2010.05.17/outbox.ucp.g08.bks.cvg/sg140_3_cif.got.tgz:4896.got - 2010.06.11 11:42:50.
