data_PCOD9572314
_publ_section_title
;
Structure prediction by ZEFSAII (Michael W. Deem and Ramdas Pophale) SiO2 
 PCOD9572314
Probable space group: I 4/M C M
;
_chemical_formula_sum "Si O2"
_cell_formula_units_Z 192
_cell_length_a 21.918484
_cell_length_b 21.918484
_cell_length_c 21.642309
_cell_angle_alpha 90.000000
_cell_angle_beta 90.000000
_cell_angle_gamma 90.000000
_cell_volume 10397.396810
_symmetry_space_group_name_H-M "I 4/M C M"
_symmetry_group_IT_number 140
_symmetry_cell_setting 'tetragonal'
loop_
_space_group_symop_operation_xyz
x,y,z
-y,x,z
-x,-y,z
y,-x,z
x,-y,1/2-z
-x,y,1/2-z
y,x,1/2-z
-y,-x,1/2-z
-x,-y,-z
y,-x,-z
x,y,-z
-y,x,-z
-x,y,1/2+z
x,-y,1/2+z
-y,-x,1/2+z
y,x,1/2+z
1/2+x,1/2+y,1/2+z
1/2-y,1/2+x,1/2+z
1/2-x,1/2-y,1/2+z
1/2+y,1/2-x,1/2+z
1/2+x,1/2-y,-z
1/2-x,1/2+y,-z
1/2+y,1/2+x,-z
1/2-y,1/2-x,-z
1/2-x,1/2-y,1/2-z
1/2+y,1/2-x,1/2-z
1/2+x,1/2+y,1/2-z
1/2-y,1/2+x,1/2-z
1/2-x,1/2+y,z
1/2+x,1/2-y,z
1/2-y,1/2-x,z
1/2+y,1/2+x,z
loop_
_atom_site_type_symbol
_atom_site_label
_atom_site_fract_x
_atom_site_fract_y
_atom_site_fract_z
Si Si1 0.593951 0.001949 0.822873
Si Si2 0.376635 0.613869 0.869042
Si Si3 0.575699 0.431196 0.500000
Si Si4 0.683626 0.490480 0.321367
Si Si5 0.743018 0.344226 0.927418
Si Si6 0.702016 0.024858 0.604641
Si Si7 0.396028 0.000091 0.500000
O O1 0.546750 0.953251 0.851462
O O2 0.660673 0.977484 0.835020
O O3 0.586894 0.000000 0.750000
O O4 0.568517 0.068517 0.842933
O O5 0.357639 0.548979 0.839774
O O6 0.427546 0.647099 0.828489
O O7 0.315145 0.652156 0.882556
O O8 0.404502 0.602729 0.937153
O O9 0.583382 0.503814 0.500000
O O10 0.703842 0.500000 0.250000
O O11 0.736912 0.490498 0.373729
O O12 0.788882 0.288882 0.914367
O O13 0.778263 0.408456 0.917992
O O14 0.725148 0.340769 0.000000
O O15 0.652068 0.998701 0.556726
O O16 0.443753 0.056248 0.500000
O O17 0.438210 0.938210 0.500000
#
# Coordination Sequence:
#
# PCOD9572314 Si02
#       7
#    32  32  16  32  32  32  16
#     4   9  17  30  50  77 109 147 193 242 291 345
#     4  11  22  39  65  90 127 155 198 257 310 375
#     4  11  20  34  59  96 130 152 185 236 318 385
#     4  11  25  42  62  88 120 162 208 255 307 365
#     4  10  20  35  57  85 115 156 202 239 286 356
#     4  11  21  35  58  81 119 159 201 248 295 364
#     4  11  22  36  60  96 132 159 194 256 326 377
#
# _framework density 18.466161
#
# number of rings (size 3 to 8) (size 9 to 14) (size 15 to 20)
#    0.000    1.500    3.333    3.500    0.000    2.333 
#    0.000    2.500    0.000   11.000    0.000    0.000 
#    0.000    0.000    0.000    0.000    0.000    0.000 
#
# Total GULP energy -534730.554384 kJ/mol
# GULP energy per Si atom -5570.109942 kJ/mol
# Density = 1.842413 g / cm^3
# Si number density = 18.466161 Si / 1000 Ang^3
#
#
#
# Elastic Constant Matrix: (Units=GPa)
#
#
# Indices 1 2 3 4 5 6 
#
# 1 98.9260 43.7776 22.9743 0.0000 0.0000 0.0000
# 2 43.7776 98.9267 22.9746 0.0000 0.0000 0.0000
# 3 22.9743 22.9746 77.6244 0.0000 0.0000 0.0000
# 4 0.0000 0.0000 0.0000 14.6723 0.0000 0.0000
# 5 0.0000 0.0000 0.0000 0.0000 14.6721 0.0000
# 6 0.0000 0.0000 0.0000 0.0000 0.0000 23.9862
#
#
#
# Elastic Compliance Matrix: (Units=1/GPa)
#
#
# Indices 1 2 3 4 5 6 
#
# 1 0.012939 -0.005194 -0.002292 0.000000 0.000000 0.000000
# 2 -0.005194 0.012939 -0.002293 0.000000 0.000000 0.000000
# 3 -0.002292 -0.002293 0.014240 0.000000 0.000000 0.000000
# 4 0.000000 0.000000 0.000000 0.068156 0.000000 0.000000
# 5 0.000000 0.000000 0.000000 0.000000 0.068157 0.000000
# 6 0.000000 0.000000 0.000000 0.000000 0.000000 0.041691
#
#
# Mechanical properties :
#
#
# Convention : Reuss Voigt Hill
#
# Bulk Modulus (GPa) = 48.63586 50.54781 49.59183
# Shear Modulus (GPa) = 20.44724 23.04948 21.74836
#
# Velocity S-wave (km/s) = 3.33119 3.53682 3.43555
# Velocity P-wave (km/s) = 6.41801 6.64164 6.53078
#
# Compressibility (1/GPa) = 0.02056096
#
# Stress axis : x y z
#
# Youngs Moduli (GPa) = 77.28414 77.28461 70.22685
#
# Poissons Ratio (x) = 0.40138 0.16099
# Poissons Ratio (y) = 0.40138 0.16100
# Poissons Ratio (z) = 0.17717 0.17718
#
# Static dielectric constant tensor:
#      x y z
#    x 1.643880 0.000000 0.000000 
#    y 0.000000 1.643880 0.000000 
#    z 0.000000 0.000000 1.744380 
# 
# From -- ./inp_files/9849.got.cif
#   From: 2010.05.17/outbox.cif.g08.bks.cpg/sg140_5_cif.got.tgz:9849.got - 2010.06.21 00:45:31.
