data_PCOD9572604
_publ_section_title
;
Structure prediction by ZEFSAII (Michael W. Deem and Ramdas Pophale) SiO2 
 PCOD9572604
Probable space group: I 4/M C M
;
_chemical_formula_sum "Si O2"
_cell_formula_units_Z 96
_cell_length_a 14.143200
_cell_length_b 14.143200
_cell_length_c 22.310279
_cell_angle_alpha 90.000000
_cell_angle_beta 90.000000
_cell_angle_gamma 90.000000
_cell_volume 4462.727479
_symmetry_space_group_name_H-M "I 4/M C M"
_symmetry_group_IT_number 140
_symmetry_cell_setting 'tetragonal'
loop_
_space_group_symop_operation_xyz
x,y,z
-y,x,z
-x,-y,z
y,-x,z
x,-y,1/2-z
-x,y,1/2-z
y,x,1/2-z
-y,-x,1/2-z
-x,-y,-z
y,-x,-z
x,y,-z
-y,x,-z
-x,y,1/2+z
x,-y,1/2+z
-y,-x,1/2+z
y,x,1/2+z
1/2+x,1/2+y,1/2+z
1/2-y,1/2+x,1/2+z
1/2-x,1/2-y,1/2+z
1/2+y,1/2-x,1/2+z
1/2+x,1/2-y,-z
1/2-x,1/2+y,-z
1/2+y,1/2+x,-z
1/2-y,1/2-x,-z
1/2-x,1/2-y,1/2-z
1/2+y,1/2-x,1/2-z
1/2+x,1/2+y,1/2-z
1/2-y,1/2+x,1/2-z
1/2-x,1/2+y,z
1/2+x,1/2-y,z
1/2-y,1/2-x,z
1/2+y,1/2+x,z
loop_
_atom_site_type_symbol
_atom_site_label
_atom_site_fract_x
_atom_site_fract_y
_atom_site_fract_z
Si Si1 0.513240 0.167233 0.000000
Si Si2 0.709549 0.790451 0.812505
Si Si3 0.831235 0.827641 0.000000
Si Si4 0.404394 0.377085 0.126911
Si Si5 0.419125 0.919125 0.610535
O O1 0.461262 0.159641 0.064283
O O2 0.570299 0.070299 0.000000
O O3 0.588690 0.248455 0.000000
O O4 0.750000 0.750000 0.750000
O O5 0.663145 0.697558 0.841237
O O6 0.629227 0.870774 0.831126
O O7 0.852578 0.890334 0.057398
O O8 0.731198 0.768803 0.000000
O O9 0.515704 0.372168 0.141110
O O10 0.500000 0.000000 0.623802
#
# Coordination Sequence:
#
# PCOD9572604 Si02
#       5
#    16  16  16  32  16
#     4   8  16  30  62 107 142 178 222 286 373 446
#     4  12  27  47  72 102 140 194 255 301 352 423
#     4  11  19  36  67 106 141 178 218 283 363 438
#     4  11  25  46  73 104 143 186 233 296 367 439
#     4   9  18  38  67 107 143 179 231 299 366 428
#
# _framework density 21.511507999999999
#
# number of rings (size 3 to 8) (size 9 to 14) (size 15 to 20)
#    0.000    1.667    1.667    4.000    0.000    5.333 
#    3.000    1.667    3.667    0.000    0.000    1.167 
#    0.000    0.000    0.000    0.000    0.000    0.000 
#
# Total GULP energy -267597.356885 kJ/mol
# GULP energy per Si atom -5574.944935 kJ/mol
# Density = 2.146255 g / cm^3
# Si number density = 21.511508 Si / 1000 Ang^3
#
#
#
# Elastic Constant Matrix: (Units=GPa)
#
#
# Indices 1 2 3 4 5 6 
#
# 1 155.8237 96.8846 49.2814 0.0000 0.0000 0.0000
# 2 96.8846 155.8230 49.2814 0.0000 0.0000 0.0000
# 3 49.2814 49.2814 116.5973 0.0000 0.0000 0.0000
# 4 0.0000 0.0000 0.0000 13.1736 0.0000 0.0000
# 5 0.0000 0.0000 0.0000 0.0000 13.1740 0.0000
# 6 0.0000 0.0000 0.0000 0.0000 0.0000 62.0441
#
#
#
# Elastic Compliance Matrix: (Units=1/GPa)
#
#
# Indices 1 2 3 4 5 6 
#
# 1 0.010852 -0.006114 -0.002003 0.000000 0.000000 0.000000
# 2 -0.006114 0.010853 -0.002003 0.000000 0.000000 0.000000
# 3 -0.002003 -0.002003 0.010269 0.000000 0.000000 0.000000
# 4 0.000000 0.000000 0.000000 0.075910 0.000000 0.000000
# 5 0.000000 0.000000 0.000000 0.000000 0.075907 0.000000
# 6 0.000000 0.000000 0.000000 0.000000 0.000000 0.016118
#
#
# Mechanical properties :
#
#
# Convention : Reuss Voigt Hill
#
# Bulk Modulus (GPa) = 85.21369 91.01541 88.11455
# Shear Modulus (GPa) = 22.31546 33.19810 27.75678
#
# Velocity S-wave (km/s) = 3.22432 3.93271 3.59600
# Velocity P-wave (km/s) = 7.31852 7.93874 7.63493
#
# Compressibility (1/GPa) = 0.01173520
#
# Stress axis : x y z
#
# Youngs Moduli (GPa) = 92.14496 92.14449 97.37628
#
# Poissons Ratio (x) = 0.56340 0.19501
# Poissons Ratio (y) = 0.56340 0.19501
# Poissons Ratio (z) = 0.18454 0.18454
#
# Static dielectric constant tensor:
#      x y z
#    x 1.825600 0.000000 0.000000 
#    y 0.000000 1.825600 0.000000 
#    z 0.000000 0.000000 1.768430 
# 
# From -- ./inp_files/7734.got.cif
#   From: 2010.05.17/outbox.cif.g08.bks.cpg/sg140_4_cif.got.tgz:7734.got - 2010.06.21 00:45:31.
