data_PCOD9572752
_publ_section_title
;
Structure prediction by ZEFSAII (Michael W. Deem and Ramdas Pophale) SiO2 
 PCOD9572752
Probable space group: I 41/A M D
;
_chemical_formula_sum "Si O2"
_cell_formula_units_Z 104
_cell_length_a 22.895671
_cell_length_b 22.895671
_cell_length_c 13.077337
_cell_angle_alpha 90.000000
_cell_angle_beta 90.000000
_cell_angle_gamma 90.000000
_cell_volume 6855.293721
_symmetry_space_group_name_H-M "I 41/A M D"
_symmetry_group_IT_number 141
_space_group.IT_coordinate_system_code '2'
_symmetry_cell_setting 'tetragonal'
loop_
_space_group_symop_operation_xyz
x,y,z
1/4-y,3/4+x,1/4+z
-x,1/2-y,z
1/4+y,1/4-x,3/4+z
x,-y,-z
-x,1/2+y,-z
1/4+y,3/4+x,1/4-z
1/4-y,1/4-x,3/4-z
-x,-y,-z
3/4+y,1/4-x,3/4-z
x,1/2+y,-z
3/4-y,3/4+x,1/4-z
-x,y,z
x,1/2-y,z
3/4-y,1/4-x,3/4+z
3/4+y,3/4+x,1/4+z
1/2+x,1/2+y,1/2+z
3/4-y,1/4+x,3/4+z
1/2-x,-y,1/2+z
3/4+y,3/4-x,1/4+z
1/2+x,1/2-y,1/2-z
1/2-x,y,1/2-z
3/4+y,1/4+x,3/4-z
3/4-y,3/4-x,1/4-z
1/2-x,1/2-y,1/2-z
1/4+y,3/4-x,1/4-z
1/2+x,y,1/2-z
1/4-y,1/4+x,3/4-z
1/2-x,1/2+y,1/2+z
1/2+x,-y,1/2+z
1/4-y,3/4-x,1/4+z
1/4+y,1/4+x,3/4+z
loop_
_atom_site_type_symbol
_atom_site_label
_atom_site_fract_x
_atom_site_fract_y
_atom_site_fract_z
Si Si1 0.500000 0.250000 0.967469
Si Si2 0.500000 0.122088 0.185690
Si Si3 0.500000 0.379787 0.937222
Si Si4 0.613158 0.955128 0.095289
Si Si5 0.376991 0.435587 0.221877
O O1 0.500000 0.311626 0.908581
O O2 0.439598 0.250000 0.031203
O O3 0.558057 0.090733 0.227352
O O4 0.500000 0.118258 0.062063
O O5 0.443025 0.413817 0.899880
O O6 0.621304 0.996634 0.192431
O O7 0.667488 0.913962 0.065867
O O8 0.603338 0.000000 0.000000
O O9 0.347582 0.402419 0.125000
#
# Coordination Sequence:
#
# PCOD9572752 Si02
#       5
#     8  16  16  32  32
#     4  12  21  22  36  52  78 104 136 168 177 215
#     4  12  16  26  33  51  72 103 134 160 188 211
#     4  12  17  26  34  50  74 102 134 160 189 214
#     4  10  18  27  36  50  70 102 136 167 195 220
#     4  10  18  26  38  50  71 101 135 168 192 223
#
# _framework density 15.170757
#
# number of rings (size 3 to 8) (size 9 to 14) (size 15 to 20)
#    0.000    1.231    9.231    2.769    0.000    0.000 
#    0.000    0.000    0.000    0.000    0.000    0.000 
#    0.000    0.000    0.000  213.231    0.000    0.000 
#
# Total GULP energy -289904.279303 kJ/mol
# GULP energy per Si atom -5575.082294 kJ/mol
# Density = 1.513623 g / cm^3
# Si number density = 15.170757 Si / 1000 Ang^3
#
#
#
# Elastic Constant Matrix: (Units=GPa)
#
#
# Indices 1 2 3 4 5 6 
#
# 1 136.7303 67.4228 29.5216 0.0000 0.0000 0.0000
# 2 67.4228 136.7301 29.5215 0.0000 0.0000 0.0000
# 3 29.5216 29.5215 14.3171 0.0000 0.0000 0.0000
# 4 0.0000 0.0000 0.0000 9.3924 0.0000 0.0000
# 5 0.0000 0.0000 0.0000 0.0000 9.3919 0.0000
# 6 0.0000 0.0000 0.0000 0.0000 0.0000 12.8951
#
#
#
# Elastic Compliance Matrix: (Units=1/GPa)
#
#
# Indices 1 2 3 4 5 6 
#
# 1 0.013282 -0.001147 -0.025022 0.000000 0.000000 0.000000
# 2 -0.001147 0.013282 -0.025022 0.000000 0.000000 0.000000
# 3 -0.025022 -0.025022 0.173034 0.000000 0.000000 0.000000
# 4 0.000000 0.000000 0.000000 0.106469 0.000000 0.000000
# 5 0.000000 0.000000 0.000000 0.000000 0.106475 0.000000
# 6 0.000000 0.000000 0.000000 0.000000 0.000000 0.077549
#
#
# Mechanical properties :
#
#
# Convention : Reuss Voigt Hill
#
# Bulk Modulus (GPa) = 10.28622 60.07883 35.18252
# Shear Modulus (GPa) = 8.00159 17.09000 12.54579
#
# Velocity S-wave (km/s) = 2.29909 3.35999 2.87883
# Velocity P-wave (km/s) = 3.72058 7.39868 5.85590
#
# Compressibility (1/GPa) = 0.09721744
#
# Stress axis : x y z
#
# Youngs Moduli (GPa) = 75.29187 75.29202 5.77920
#
# Poissons Ratio (x) = 0.08635 0.14461
# Poissons Ratio (y) = 0.08635 0.14460
# Poissons Ratio (z) = 1.88393 1.88393
#
# Static dielectric constant tensor:
#      x y z
#    x 1.527380 0.000000 0.000000 
#    y 0.000000 1.527380 0.000000 
#    z 0.000000 0.000000 1.476790 
# 
# From -- ./inp_files/6099.got.cif
#   From: 2010.05.17/outbox.cif.g08.bks.cpg/sg141_4_cif.got.tgz:6099.got - 2010.05.20 13:30:51.
