data_PCOD9572347
_publ_section_title
;
Structure prediction by ZEFSAII (Michael W. Deem and Ramdas Pophale) SiO2 
 PCOD9572347
Probable space group: I 4/M C M
;
_chemical_formula_sum "Si O2"
_cell_formula_units_Z 176
_cell_length_a 18.884731
_cell_length_b 18.884731
_cell_length_c 28.991936
_cell_angle_alpha 90.000000
_cell_angle_beta 90.000000
_cell_angle_gamma 90.000000
_cell_volume 10339.482994
_symmetry_space_group_name_H-M "I 4/M C M"
_symmetry_group_IT_number 140
_symmetry_cell_setting 'tetragonal'
loop_
_space_group_symop_operation_xyz
x,y,z
-y,x,z
-x,-y,z
y,-x,z
x,-y,1/2-z
-x,y,1/2-z
y,x,1/2-z
-y,-x,1/2-z
-x,-y,-z
y,-x,-z
x,y,-z
-y,x,-z
-x,y,1/2+z
x,-y,1/2+z
-y,-x,1/2+z
y,x,1/2+z
1/2+x,1/2+y,1/2+z
1/2-y,1/2+x,1/2+z
1/2-x,1/2-y,1/2+z
1/2+y,1/2-x,1/2+z
1/2+x,1/2-y,-z
1/2-x,1/2+y,-z
1/2+y,1/2+x,-z
1/2-y,1/2-x,-z
1/2-x,1/2-y,1/2-z
1/2+y,1/2-x,1/2-z
1/2+x,1/2+y,1/2-z
1/2-y,1/2+x,1/2-z
1/2-x,1/2+y,z
1/2+x,1/2-y,z
1/2-y,1/2-x,z
1/2+y,1/2+x,z
loop_
_atom_site_type_symbol
_atom_site_label
_atom_site_fract_x
_atom_site_fract_y
_atom_site_fract_z
Si Si1 0.161837 0.781996 0.388748
Si Si2 0.517721 0.799188 0.606555
Si Si3 0.956104 0.663970 0.703188
Si Si4 0.058282 0.558282 0.555110
Si Si5 0.281831 0.339504 0.704688
Si Si6 0.741409 0.877603 0.945998
O O1 0.212503 0.712503 0.386262
O O2 0.174616 0.826046 0.341830
O O3 0.192465 0.830027 0.429902
O O4 0.082204 0.755767 0.393844
O O5 0.504634 0.828241 0.658143
O O6 0.536979 0.865897 0.574857
O O7 0.445822 0.766390 0.586126
O O8 0.900259 0.599742 0.697338
O O9 0.911058 0.736667 0.705900
O O10 0.000000 0.653817 0.750000
O O11 0.060409 0.560409 0.500000
O O12 0.000000 0.500000 0.569183
O O13 0.328831 0.328831 0.750000
O O14 0.222514 0.277487 0.705093
O O15 0.672276 0.827725 0.938639
O O16 0.744921 0.895833 0.000000
#
# Coordination Sequence:
#
# PCOD9572347 Si02
#       6
#    32  32  32  16  32  32
#     4  10  20  37  57  85 114 151 201 249 290 342
#     4  12  22  38  60  86 121 156 199 247 298 356
#     4  11  23  36  54  85 121 160 197 235 294 361
#     4  11  24  38  56  84 123 166 198 233 296 375
#     4   9  17  33  56  77 108 146 189 239 287 336
#     4  10  21  38  60  84 117 157 196 243 301 358
#
# _framework density 17.022127000000001
#
# number of rings (size 3 to 8) (size 9 to 14) (size 15 to 20)
#    0.000    1.545    2.727    3.273    1.273    4.545 
#    0.000    0.000    0.000    0.545    0.000    1.273 
#    0.000    0.000    0.000    0.000    0.000    0.000 
#
# Total GULP energy -491403.211583 kJ/mol
# GULP energy per Si atom -5584.127404 kJ/mol
# Density = 1.698338 g / cm^3
# Si number density = 17.022127 Si / 1000 Ang^3
#
#
#
# Elastic Constant Matrix: (Units=GPa)
#
#
# Indices 1 2 3 4 5 6 
#
# 1 52.0425 59.2765 29.0063 0.0000 0.0000 0.0000
# 2 59.2765 52.0425 29.0063 0.0000 0.0000 0.0000
# 3 29.0063 29.0063 88.0182 0.0000 0.0000 0.0000
# 4 0.0000 0.0000 0.0000 23.6960 0.0000 0.0000
# 5 0.0000 0.0000 0.0000 0.0000 23.6960 0.0000
# 6 0.0000 0.0000 0.0000 0.0000 0.0000 23.2375
#
#
#
# Elastic Compliance Matrix: (Units=1/GPa)
#
#
# Indices 1 2 3 4 5 6 
#
# 1 -0.063695 0.074541 -0.003574 0.000000 0.000000 0.000000
# 2 0.074541 -0.063695 -0.003574 0.000000 0.000000 0.000000
# 3 -0.003574 -0.003574 0.013717 0.000000 0.000000 0.000000
# 4 0.000000 0.000000 0.000000 0.042201 0.000000 0.000000
# 5 0.000000 0.000000 0.000000 0.000000 0.042201 0.000000
# 6 0.000000 0.000000 0.000000 0.000000 0.000000 0.043034
#
#
# Mechanical properties :
#
#
# Convention : Reuss Voigt Hill
#
# Bulk Modulus (GPa) = 47.36679 47.40901 47.38790
# Shear Modulus (GPa) = -43.86616 19.11351 -12.37632
#
# Velocity S-wave (km/s) = -5.08193 3.35455 -2.69935
# Velocity P-wave (km/s) = 2.55885 6.55102 4.26428
#
# Compressibility (1/GPa) = 0.02111184
#
# Stress axis : x y z
#
# Youngs Moduli (GPa) = -15.69989 -15.69989 72.90195
#
# Poissons Ratio (x) = 1.17028 0.26057
# Poissons Ratio (y) = 1.17028 0.26057
# Poissons Ratio (z) = -0.05612 -0.05612
#
# Static dielectric constant tensor:
#      x y z
#    x 1.560350 0.000000 0.000000 
#    y 0.000000 1.560350 0.000000 
#    z 0.000000 0.000000 1.581790 
# 
# From -- ./inp_files/10671.got.cif
#   From: 2010.05.17/outbox.cif.g08.bks.cpg/sg140_6_cif.got.tgz:10671.got - 2010.06.21 00:45:31.
