data_PCOD9572846
_publ_section_title
;
Structure prediction by ZEFSAII (Michael W. Deem and Ramdas Pophale) SiO2 
 PCOD9572846
Probable space group: I 41/A M D
;
_chemical_formula_sum "Si O2"
_cell_formula_units_Z 160
_cell_length_a 21.935993
_cell_length_b 21.935993
_cell_length_c 17.015158
_cell_angle_alpha 90.000000
_cell_angle_beta 90.000000
_cell_angle_gamma 90.000000
_cell_volume 8187.486256
_symmetry_space_group_name_H-M "I 41/A M D"
_symmetry_group_IT_number 141
_space_group.IT_coordinate_system_code '2'
_symmetry_cell_setting 'tetragonal'
loop_
_space_group_symop_operation_xyz
x,y,z
1/4-y,3/4+x,1/4+z
-x,1/2-y,z
1/4+y,1/4-x,3/4+z
x,-y,-z
-x,1/2+y,-z
1/4+y,3/4+x,1/4-z
1/4-y,1/4-x,3/4-z
-x,-y,-z
3/4+y,1/4-x,3/4-z
x,1/2+y,-z
3/4-y,3/4+x,1/4-z
-x,y,z
x,1/2-y,z
3/4-y,1/4-x,3/4+z
3/4+y,3/4+x,1/4+z
1/2+x,1/2+y,1/2+z
3/4-y,1/4+x,3/4+z
1/2-x,-y,1/2+z
3/4+y,3/4-x,1/4+z
1/2+x,1/2-y,1/2-z
1/2-x,y,1/2-z
3/4+y,1/4+x,3/4-z
3/4-y,3/4-x,1/4-z
1/2-x,1/2-y,1/2-z
1/4+y,3/4-x,1/4-z
1/2+x,y,1/2-z
1/4-y,1/4+x,3/4-z
1/2-x,1/2+y,1/2+z
1/2+x,-y,1/2+z
1/4-y,3/4-x,1/4+z
1/4+y,1/4+x,3/4+z
loop_
_atom_site_type_symbol
_atom_site_label
_atom_site_fract_x
_atom_site_fract_y
_atom_site_fract_z
Si Si1 0.682107 0.482168 0.348518
Si Si2 0.825224 0.890560 0.972651
Si Si3 0.623591 0.609964 0.999312
Si Si4 0.427538 0.320576 0.848459
Si Si5 0.929303 0.536158 0.638885
O O1 0.749387 0.500614 0.375000
O O2 0.653602 0.540940 0.304608
O O3 0.655311 0.452821 0.427628
O O4 0.678078 0.429082 0.285813
O O5 0.885739 0.850031 0.969123
O O6 0.772983 0.858292 0.918139
O O7 0.657896 0.659460 0.945116
O O8 0.584507 0.563730 0.947027
O O9 0.590380 0.645767 0.069622
O O10 0.500000 0.319930 0.842235
O O11 0.405853 0.250000 0.847332
O O12 0.000000 0.521379 0.646598
#
# Coordination Sequence:
#
# PCOD9572846 Si02
#       5
#    32  32  32  32  32
#     4  10  21  34  56  79 112 139 179 226 282 332
#     4  10  22  34  55  83 112 147 184 229 279 337
#     4   9  20  33  51  81 113 151 190 224 267 330
#     4  10  20  36  56  76 105 146 192 233 273 329
#     4  10  19  32  51  79 121 155 183 225 267 324
#
# _framework density 19.542017999999999
#
# number of rings (size 3 to 8) (size 9 to 14) (size 15 to 20)
#    0.000    2.200    0.000    2.400    8.400    2.400 
#    0.000    6.000    0.000   20.400    0.000    1.400 
#    0.000    0.000    0.000    0.000    0.000    0.000 
#
# Total GULP energy -445855.026833 kJ/mol
# GULP energy per Si atom -5573.187835 kJ/mol
# Density = 1.949754 g / cm^3
# Si number density = 19.542018 Si / 1000 Ang^3
#
#
#
# Elastic Constant Matrix: (Units=GPa)
#
#
# Indices 1 2 3 4 5 6 
#
# 1 99.8930 45.0112 48.0677 0.0000 0.0000 0.0000
# 2 45.0112 99.8952 48.0699 0.0000 0.0000 0.0000
# 3 48.0677 48.0699 57.1100 0.0000 0.0000 0.0000
# 4 0.0000 0.0000 0.0000 16.6854 0.0000 0.0000
# 5 0.0000 0.0000 0.0000 0.0000 16.6840 0.0000
# 6 0.0000 0.0000 0.0000 0.0000 0.0000 34.5053
#
#
#
# Elastic Compliance Matrix: (Units=1/GPa)
#
#
# Indices 1 2 3 4 5 6 
#
# 1 0.016924 -0.001296 -0.013153 0.000000 0.000000 0.000000
# 2 -0.001296 0.016925 -0.013154 0.000000 0.000000 0.000000
# 3 -0.013153 -0.013154 0.039653 0.000000 0.000000 0.000000
# 4 0.000000 0.000000 0.000000 0.059932 0.000000 0.000000
# 5 0.000000 0.000000 0.000000 0.000000 0.059938 0.000000
# 6 0.000000 0.000000 0.000000 0.000000 0.000000 0.028981
#
#
# Mechanical properties :
#
#
# Convention : Reuss Voigt Hill
#
# Bulk Modulus (GPa) = 54.66445 59.91065 57.28755
# Shear Modulus (GPa) = 17.62678 21.29157 19.45918
#
# Velocity S-wave (km/s) = 3.00658 3.30438 3.15899
# Velocity P-wave (km/s) = 6.33137 6.72923 6.53333
#
# Compressibility (1/GPa) = 0.01829342
#
# Stress axis : x y z
#
# Youngs Moduli (GPa) = 59.08731 59.08571 25.21872
#
# Poissons Ratio (x) = 0.07659 0.33171
# Poissons Ratio (y) = 0.07659 0.33174
# Poissons Ratio (z) = 0.77720 0.77724
#
# Static dielectric constant tensor:
#      x y z
#    x 1.700630 0.000000 0.000000 
#    y 0.000000 1.700630 0.000000 
#    z 0.000000 0.000000 1.747090 
# 
# From -- ./inp_files/8579.got.cif
#   From: 2010.05.17/outbox.cif.g08.bks.cpg/sg141_5_cif.got.tgz:8579.got - 2010.05.20 13:30:51.
