data_PCOD9572981
_publ_section_title
;
Structure prediction by ZEFSAII (Michael W. Deem and Ramdas Pophale) SiO2 
 PCOD9572981
Probable space group: I 41/A M D
;
_chemical_formula_sum "Si O2"
_cell_formula_units_Z 128
_cell_length_a 25.143727
_cell_length_b 25.143727
_cell_length_c 9.648971
_cell_angle_alpha 90.000000
_cell_angle_beta 90.000000
_cell_angle_gamma 90.000000
_cell_volume 6100.147081
_symmetry_space_group_name_H-M "I 41/A M D"
_symmetry_group_IT_number 141
_space_group.IT_coordinate_system_code '2'
_symmetry_cell_setting 'tetragonal'
loop_
_space_group_symop_operation_xyz
x,y,z
1/4-y,3/4+x,1/4+z
-x,1/2-y,z
1/4+y,1/4-x,3/4+z
x,-y,-z
-x,1/2+y,-z
1/4+y,3/4+x,1/4-z
1/4-y,1/4-x,3/4-z
-x,-y,-z
3/4+y,1/4-x,3/4-z
x,1/2+y,-z
3/4-y,3/4+x,1/4-z
-x,y,z
x,1/2-y,z
3/4-y,1/4-x,3/4+z
3/4+y,3/4+x,1/4+z
1/2+x,1/2+y,1/2+z
3/4-y,1/4+x,3/4+z
1/2-x,-y,1/2+z
3/4+y,3/4-x,1/4+z
1/2+x,1/2-y,1/2-z
1/2-x,y,1/2-z
3/4+y,1/4+x,3/4-z
3/4-y,3/4-x,1/4-z
1/2-x,1/2-y,1/2-z
1/4+y,3/4-x,1/4-z
1/2+x,y,1/2-z
1/4-y,1/4+x,3/4-z
1/2-x,1/2+y,1/2+z
1/2+x,-y,1/2+z
1/4-y,3/4-x,1/4+z
1/4+y,1/4+x,3/4+z
loop_
_atom_site_type_symbol
_atom_site_label
_atom_site_fract_x
_atom_site_fract_y
_atom_site_fract_z
Si Si1 0.941037 0.116381 0.570709
Si Si2 0.119248 0.543987 0.620521
Si Si3 0.125139 0.686583 0.246278
Si Si4 0.221889 0.689546 0.067169
O O1 0.925571 0.085075 0.432774
O O2 0.896166 0.158003 0.616629
O O3 0.941837 0.071722 0.692215
O O4 0.000000 0.140204 0.563844
O O5 0.123416 0.500000 0.500000
O O6 0.173493 0.576508 0.625000
O O7 0.100834 0.515563 0.760838
O O8 0.120537 0.750000 0.252035
O O9 0.086897 0.663104 0.125000
O O10 0.185669 0.674264 0.198784
O O11 0.242495 0.750000 0.083402
#
# Coordination Sequence:
#
# PCOD9572981 Si02
#       4
#    32  32  32  32
#     4   9  17  30  51  77 104 137 174 214 267 331
#     4  10  20  36  54  73  98 134 183 232 279 331
#     4   9  16  27  47  78 111 141 173 212 267 330
#     4   8  15  30  53  76  98 131 177 222 261 313
#
# _framework density 20.983101999999999
#
# number of rings (size 3 to 8) (size 9 to 14) (size 15 to 20)
#    0.000    3.000    0.000    3.000    0.000    4.750 
#    0.000   10.000    0.000    3.000    0.000    0.000 
#    0.000    0.000    0.000    0.000    0.000    0.000 
#
# Total GULP energy -357226.897857 kJ/mol
# GULP energy per Si atom -5581.670279 kJ/mol
# Density = 2.093534 g / cm^3
# Si number density = 20.983102 Si / 1000 Ang^3
#
#
#
# Elastic Constant Matrix: (Units=GPa)
#
#
# Indices 1 2 3 4 5 6 
#
# 1 113.7547 78.1324 49.1164 0.0000 0.0000 0.0000
# 2 78.1324 113.7557 49.1158 0.0000 0.0000 0.0000
# 3 49.1164 49.1158 72.7989 0.0000 0.0000 0.0000
# 4 0.0000 0.0000 0.0000 21.3757 0.0000 0.0000
# 5 0.0000 0.0000 0.0000 0.0000 21.3731 0.0000
# 6 0.0000 0.0000 0.0000 0.0000 0.0000 36.6044
#
#
#
# Elastic Compliance Matrix: (Units=1/GPa)
#
#
# Indices 1 2 3 4 5 6 
#
# 1 0.018017 -0.010055 -0.005371 0.000000 0.000000 0.000000
# 2 -0.010055 0.018016 -0.005371 0.000000 0.000000 0.000000
# 3 -0.005371 -0.005371 0.020984 0.000000 0.000000 0.000000
# 4 0.000000 0.000000 0.000000 0.046782 0.000000 0.000000
# 5 0.000000 0.000000 0.000000 0.000000 0.046788 0.000000
# 6 0.000000 0.000000 0.000000 0.000000 0.000000 0.027319
#
#
# Mechanical properties :
#
#
# Convention : Reuss Voigt Hill
#
# Bulk Modulus (GPa) = 64.84442 72.55985 68.70213
# Shear Modulus (GPa) = 22.25764 24.13363 23.19563
#
# Velocity S-wave (km/s) = 3.26044 3.39506 3.32843
# Velocity P-wave (km/s) = 6.71894 7.07275 6.89811
#
# Compressibility (1/GPa) = 0.01542153
#
# Stress axis : x y z
#
# Youngs Moduli (GPa) = 55.50413 55.50537 47.65507
#
# Poissons Ratio (x) = 0.55813 0.25598
# Poissons Ratio (y) = 0.55812 0.25595
# Poissons Ratio (z) = 0.29814 0.29811
#
# Static dielectric constant tensor:
#      x y z
#    x 1.748300 0.000000 0.000000 
#    y 0.000000 1.748300 0.000000 
#    z 0.000000 0.000000 1.800470 
# 
# From -- ./inp_files/4557.got.cif
#   From: 2010.05.17/outbox.cif.g08.bks.cpg/sg141_3_cif.got.tgz:4557.got - 2010.05.20 13:30:51.
