data_PCOD9572448
_publ_section_title
;
Structure prediction by ZEFSAII (Michael W. Deem and Ramdas Pophale) SiO2 
 PCOD9572448
Probable space group: I 4/M C M
;
_chemical_formula_sum "Si O2"
_cell_formula_units_Z 160
_cell_length_a 21.607690
_cell_length_b 21.607690
_cell_length_c 18.711095
_cell_angle_alpha 90.000000
_cell_angle_beta 90.000000
_cell_angle_gamma 90.000000
_cell_volume 8736.065565
_symmetry_space_group_name_H-M "I 4/M C M"
_symmetry_group_IT_number 140
_symmetry_cell_setting 'tetragonal'
loop_
_space_group_symop_operation_xyz
x,y,z
-y,x,z
-x,-y,z
y,-x,z
x,-y,1/2-z
-x,y,1/2-z
y,x,1/2-z
-y,-x,1/2-z
-x,-y,-z
y,-x,-z
x,y,-z
-y,x,-z
-x,y,1/2+z
x,-y,1/2+z
-y,-x,1/2+z
y,x,1/2+z
1/2+x,1/2+y,1/2+z
1/2-y,1/2+x,1/2+z
1/2-x,1/2-y,1/2+z
1/2+y,1/2-x,1/2+z
1/2+x,1/2-y,-z
1/2-x,1/2+y,-z
1/2+y,1/2+x,-z
1/2-y,1/2-x,-z
1/2-x,1/2-y,1/2-z
1/2+y,1/2-x,1/2-z
1/2+x,1/2+y,1/2-z
1/2-y,1/2+x,1/2-z
1/2-x,1/2+y,z
1/2+x,1/2-y,z
1/2-y,1/2-x,z
1/2+y,1/2+x,z
loop_
_atom_site_type_symbol
_atom_site_label
_atom_site_fract_x
_atom_site_fract_y
_atom_site_fract_z
Si Si1 0.266680 0.867722 0.189985
Si Si2 0.296913 0.972031 0.919669
Si Si3 0.606359 0.623375 0.331382
Si Si4 0.661801 0.941512 0.199358
Si Si5 0.345888 0.512909 0.918544
O O1 0.302229 0.802229 0.192617
O O2 0.298681 0.910474 0.128939
O O3 0.193780 0.867650 0.173513
O O4 0.280635 0.904846 0.263946
O O5 0.224968 0.991119 0.922438
O O6 0.327815 0.028765 0.877733
O O7 0.319850 0.962383 0.000000
O O8 0.601193 0.601193 0.250000
O O9 0.648269 0.577856 0.378230
O O10 0.540077 0.622644 0.370702
O O11 0.605892 0.894108 0.200479
O O12 0.649613 0.000000 0.250000
O O13 0.369931 0.516320 0.000000
#
# Coordination Sequence:
#
# PCOD9572448 Si02
#       5
#    32  32  32  32  32
#     4   9  19  35  55  79 106 138 174 213 258 308
#     4   9  18  33  53  76 104 139 176 213 254 305
#     4  11  21  35  57  81 105 134 175 219 256 302
#     4   9  17  31  51  74 102 136 172 212 262 314
#     4  10  21  37  54  75 106 141 173 210 262 312
#
# _framework density 18.314882000000001
#
# number of rings (size 3 to 8) (size 9 to 14) (size 15 to 20)
#    0.000    2.400    0.000    2.400    0.000    5.800 
#    0.000    3.000    0.000    1.200    0.000    5.600 
#    0.000    0.000    0.000    0.000    0.000    0.000 
#
# Total GULP energy -445992.229990 kJ/mol
# GULP energy per Si atom -5574.902875 kJ/mol
# Density = 1.827320 g / cm^3
# Si number density = 18.314882 Si / 1000 Ang^3
#
#
#
# Elastic Constant Matrix: (Units=GPa)
#
#
# Indices 1 2 3 4 5 6 
#
# 1 50.9523 25.2098 26.1922 0.0000 0.0000 0.0000
# 2 25.2098 50.9523 26.1922 0.0000 0.0000 0.0000
# 3 26.1922 26.1922 125.5563 0.0000 0.0000 0.0000
# 4 0.0000 0.0000 0.0000 9.0798 0.0000 0.0000
# 5 0.0000 0.0000 0.0000 0.0000 9.0798 0.0000
# 6 0.0000 0.0000 0.0000 0.0000 0.0000 15.3204
#
#
#
# Elastic Compliance Matrix: (Units=1/GPa)
#
#
# Indices 1 2 3 4 5 6 
#
# 1 0.027088 -0.011758 -0.003198 0.000000 0.000000 0.000000
# 2 -0.011758 0.027088 -0.003198 0.000000 0.000000 0.000000
# 3 -0.003198 -0.003198 0.009299 0.000000 0.000000 0.000000
# 4 0.000000 0.000000 0.000000 0.110134 0.000000 0.000000
# 5 0.000000 0.000000 0.000000 0.000000 0.110134 0.000000
# 6 0.000000 0.000000 0.000000 0.000000 0.000000 0.065272
#
#
# Mechanical properties :
#
#
# Convention : Reuss Voigt Hill
#
# Bulk Modulus (GPa) = 36.81059 42.51662 39.66360
# Shear Modulus (GPa) = 12.67816 16.68712 14.68264
#
# Velocity S-wave (km/s) = 2.63389 3.02176 2.83446
# Velocity P-wave (km/s) = 5.42145 5.95309 5.69348
#
# Compressibility (1/GPa) = 0.02716609
#
# Stress axis : x y z
#
# Youngs Moduli (GPa) = 36.91691 36.91691 107.54125
#
# Poissons Ratio (x) = 0.43409 0.34390
# Poissons Ratio (y) = 0.43409 0.34390
# Poissons Ratio (z) = 0.11805 0.11805
#
# Static dielectric constant tensor:
#      x y z
#    x 1.634280 0.000000 0.000000 
#    y 0.000000 1.634280 0.000000 
#    z 0.000000 0.000000 1.652420 
# 
# From -- ./inp_files/6781.got.cif
#   From: 2010.05.17/outbox.cif.g08.bks.cpg/sg140_4_cif.got.tgz:6781.got - 2010.06.21 00:45:31.
