data_PCOD9572233
_publ_section_title
;
Structure prediction by ZEFSAII (Michael W. Deem and Ramdas Pophale) SiO2 
 PCOD9572233
Probable space group: I 4/M C M
;
_chemical_formula_sum "Si O2"
_cell_formula_units_Z 112
_cell_length_a 17.391249
_cell_length_b 17.391249
_cell_length_c 17.124103
_cell_angle_alpha 90.000000
_cell_angle_beta 90.000000
_cell_angle_gamma 90.000000
_cell_volume 5179.279850
_symmetry_space_group_name_H-M "I 4/M C M"
_symmetry_group_IT_number 140
_symmetry_cell_setting 'tetragonal'
loop_
_space_group_symop_operation_xyz
x,y,z
-y,x,z
-x,-y,z
y,-x,z
x,-y,1/2-z
-x,y,1/2-z
y,x,1/2-z
-y,-x,1/2-z
-x,-y,-z
y,-x,-z
x,y,-z
-y,x,-z
-x,y,1/2+z
x,-y,1/2+z
-y,-x,1/2+z
y,x,1/2+z
1/2+x,1/2+y,1/2+z
1/2-y,1/2+x,1/2+z
1/2-x,1/2-y,1/2+z
1/2+y,1/2-x,1/2+z
1/2+x,1/2-y,-z
1/2-x,1/2+y,-z
1/2+y,1/2+x,-z
1/2-y,1/2-x,-z
1/2-x,1/2-y,1/2-z
1/2+y,1/2-x,1/2-z
1/2+x,1/2+y,1/2-z
1/2-y,1/2+x,1/2-z
1/2-x,1/2+y,z
1/2+x,1/2-y,z
1/2-y,1/2-x,z
1/2+y,1/2+x,z
loop_
_atom_site_type_symbol
_atom_site_label
_atom_site_fract_x
_atom_site_fract_y
_atom_site_fract_z
Si Si1 0.184748 0.446975 0.089781
Si Si2 0.935192 0.896502 0.593419
Si Si3 0.203337 0.824805 0.159150
Si Si4 0.063108 0.436893 0.595250
O O1 0.113387 0.386614 0.085895
O O2 0.248117 0.402449 0.140347
O O3 0.145754 0.527013 0.118078
O O4 0.213614 0.456533 0.000000
O O5 0.936906 0.897311 0.500000
O O6 0.879681 0.830184 0.620539
O O7 0.022617 0.898524 0.620818
O O8 0.189382 0.810618 0.250000
O O9 0.255724 0.755724 0.127290
O O10 0.063167 0.436834 0.500000
O O11 0.000000 0.500000 0.621525
#
# Coordination Sequence:
#
# PCOD9572233 Si02
#       4
#    32  32  32  16
#     4   8  13  23  42  69 103 145 190 234 281 333
#     4   9  19  37  61  87 111 138 183 243 295 342
#     4  10  20  32  50  82 121 159 194 233 284 348
#     4   7  10  18  36  64  96 134 184 235 275 323
#
# _framework density 21.624628999999999
#
# number of rings (size 3 to 8) (size 9 to 14) (size 15 to 20)
#    0.000    3.286    0.000    3.429    0.000    2.857 
#    0.000    1.429    3.143    0.000    3.714    0.000 
#    0.000    0.000    0.000    0.143    0.000   14.571 
#
# Total GULP energy -312017.467532 kJ/mol
# GULP energy per Si atom -5571.740492 kJ/mol
# Density = 2.157541 g / cm^3
# Si number density = 21.624629 Si / 1000 Ang^3
#
#
#
# Elastic Constant Matrix: (Units=GPa)
#
#
# Indices 1 2 3 4 5 6 
#
# 1 62.2043 52.2479 22.9546 0.0000 0.0000 0.0000
# 2 52.2479 62.2035 22.9546 0.0000 0.0000 0.0000
# 3 22.9546 22.9546 25.6701 0.0000 0.0000 0.0000
# 4 0.0000 0.0000 0.0000 -3.6439 0.0000 0.0000
# 5 0.0000 0.0000 0.0000 0.0000 -3.6387 0.0000
# 6 0.0000 0.0000 0.0000 0.0000 0.0000 26.8139
#
#
#
# Elastic Compliance Matrix: (Units=1/GPa)
#
#
# Indices 1 2 3 4 5 6 
#
# 1 0.057032 -0.043409 -0.012183 0.000000 0.000000 0.000000
# 2 -0.043409 0.057033 -0.012183 0.000000 0.000000 0.000000
# 3 -0.012183 -0.012183 0.060744 0.000000 0.000000 0.000000
# 4 0.000000 0.000000 0.000000 -0.274434 0.000000 0.000000
# 5 0.000000 0.000000 0.000000 0.000000 -0.274824 0.000000
# 6 0.000000 0.000000 0.000000 0.000000 0.000000 0.037294
#
#
# Mechanical properties :
#
#
# Convention : Reuss Voigt Hill
#
# Bulk Modulus (GPa) = 25.47073 38.48801 31.97937
# Shear Modulus (GPa) = -26.52261 7.36767 -9.57747
#
# Velocity S-wave (km/s) = -3.50594 1.84783 -2.10679
# Velocity P-wave (km/s) = 2.14119 4.73175 2.98369
#
# Compressibility (1/GPa) = 0.03926075
#
# Stress axis : x y z
#
# Youngs Moduli (GPa) = 17.53393 17.53363 16.46249
#
# Poissons Ratio (x) = 0.76111 0.20056
# Poissons Ratio (y) = 0.76112 0.20057
# Poissons Ratio (z) = 0.21361 0.21362
#
# Static dielectric constant tensor:
#      x y z
#    x 1.860990 0.000000 0.000000 
#    y 0.000000 1.860990 0.000000 
#    z 0.000000 0.000000 1.734480 
# 
# From -- ./inp_files/6063.got.cif
#   From: 2010.05.17/outbox.cif.g08.bks.cpg/sg140_4_cif.got.tgz:6063.got - 2010.06.21 00:45:31.
