data_PCOD9572340
_publ_section_title
;
Structure prediction by ZEFSAII (Michael W. Deem and Ramdas Pophale) SiO2 
 PCOD9572340
Probable space group: I 4/M C M
;
_chemical_formula_sum "Si O2"
_cell_formula_units_Z 144
_cell_length_a 20.829554
_cell_length_b 20.829554
_cell_length_c 16.334681
_cell_angle_alpha 90.000000
_cell_angle_beta 90.000000
_cell_angle_gamma 90.000000
_cell_volume 7087.133270
_symmetry_space_group_name_H-M "I 4/M C M"
_symmetry_group_IT_number 140
_symmetry_cell_setting 'tetragonal'
loop_
_space_group_symop_operation_xyz
x,y,z
-y,x,z
-x,-y,z
y,-x,z
x,-y,1/2-z
-x,y,1/2-z
y,x,1/2-z
-y,-x,1/2-z
-x,-y,-z
y,-x,-z
x,y,-z
-y,x,-z
-x,y,1/2+z
x,-y,1/2+z
-y,-x,1/2+z
y,x,1/2+z
1/2+x,1/2+y,1/2+z
1/2-y,1/2+x,1/2+z
1/2-x,1/2-y,1/2+z
1/2+y,1/2-x,1/2+z
1/2+x,1/2-y,-z
1/2-x,1/2+y,-z
1/2+y,1/2+x,-z
1/2-y,1/2-x,-z
1/2-x,1/2-y,1/2-z
1/2+y,1/2-x,1/2-z
1/2+x,1/2+y,1/2-z
1/2-y,1/2+x,1/2-z
1/2-x,1/2+y,z
1/2+x,1/2-y,z
1/2-y,1/2-x,z
1/2+y,1/2+x,z
loop_
_atom_site_type_symbol
_atom_site_label
_atom_site_fract_x
_atom_site_fract_y
_atom_site_fract_z
Si Si1 0.554215 0.054215 0.092897
Si Si2 0.765152 0.265152 0.399751
Si Si3 0.447118 0.412256 0.600074
Si Si4 0.842146 0.657855 0.599303
Si Si5 0.222341 0.904183 0.097378
Si Si6 0.817084 0.511125 0.655166
O O1 0.523374 0.115389 0.135586
O O2 0.500000 0.000000 0.089621
O O3 0.572547 0.072547 0.000000
O O4 0.765319 0.265319 0.500000
O O5 0.711510 0.211510 0.377534
O O6 0.837285 0.250201 0.370451
O O7 0.521388 0.414789 0.625221
O O8 0.446324 0.411584 0.500000
O O9 0.414070 0.348751 0.631361
O O10 0.845283 0.654718 0.500000
O O11 0.822993 0.586192 0.630711
O O12 0.263725 0.968329 0.109957
O O13 0.217004 0.895556 0.000000
O O14 0.803690 0.500000 0.750000
#
# Coordination Sequence:
#
# PCOD9572340 Si02
#       6
#    16  16  32  16  32  32
#     4  11  22  39  63  87 114 149 199 250 293 339
#     4   9  21  38  60  92 121 151 202 263 312 361
#     4   8  15  28  51  84 113 142 193 256 307 346
#     4  11  23  42  68  95 122 157 209 263 307 355
#     4  10  20  36  60  85 119 160 202 250 304 361
#     4  12  25  40  60  91 127 165 200 245 303 374
#
# _framework density 20.318511999999998
#
# number of rings (size 3 to 8) (size 9 to 14) (size 15 to 20)
#    0.000    1.889    1.111    4.000    3.111    0.889 
#    0.000    2.222    0.000    0.000    0.000    1.556 
#    0.000    0.000    0.000    0.000    0.000    0.000 
#
# Total GULP energy -401810.673633 kJ/mol
# GULP energy per Si atom -5580.703800 kJ/mol
# Density = 2.027227 g / cm^3
# Si number density = 20.318512 Si / 1000 Ang^3
#
#
#
# Elastic Constant Matrix: (Units=GPa)
#
#
# Indices 1 2 3 4 5 6 
#
# 1 117.7539 81.9258 8.2204 0.0000 0.0000 0.0000
# 2 81.9258 117.7539 8.2206 0.0000 0.0000 0.0000
# 3 8.2204 8.2206 12.5872 0.0000 0.0000 0.0000
# 4 0.0000 0.0000 0.0000 31.7819 0.0000 0.0000
# 5 0.0000 0.0000 0.0000 0.0000 31.7871 0.0000
# 6 0.0000 0.0000 0.0000 0.0000 0.0000 27.8020
#
#
#
# Elastic Compliance Matrix: (Units=1/GPa)
#
#
# Indices 1 2 3 4 5 6 
#
# 1 0.016602 -0.011309 -0.003456 0.000000 0.000000 0.000000
# 2 -0.011309 0.016602 -0.003457 0.000000 0.000000 0.000000
# 3 -0.003456 -0.003457 0.083961 0.000000 0.000000 0.000000
# 4 0.000000 0.000000 0.000000 0.031464 0.000000 0.000000
# 5 0.000000 0.000000 0.000000 0.000000 0.031459 0.000000
# 6 0.000000 0.000000 0.000000 0.000000 0.000000 0.035969
#
#
# Mechanical properties :
#
#
# Convention : Reuss Voigt Hill
#
# Bulk Modulus (GPa) = 12.38851 49.42539 30.90695
# Shear Modulus (GPa) = 17.89496 28.25607 23.07551
#
# Velocity S-wave (km/s) = 2.97092 3.73320 3.37365
# Velocity P-wave (km/s) = 4.22834 6.55442 5.51540
#
# Compressibility (1/GPa) = 0.08071997
#
# Stress axis : x y z
#
# Youngs Moduli (GPa) = 60.23434 60.23427 11.91031
#
# Poissons Ratio (x) = 0.68120 0.04117
# Poissons Ratio (y) = 0.68120 0.04117
# Poissons Ratio (z) = 0.20819 0.20821
#
# Static dielectric constant tensor:
#      x y z
#    x 1.435270 0.000000 0.000000 
#    y 0.000000 1.435280 0.000000 
#    z 0.000000 0.000000 1.799070 
# 
# From -- ./inp_files/6706.got.cif
#   From: 2010.05.17/outbox.cif.g08.bks.cpg/sg140_4_cif.got.tgz:6706.got - 2010.06.21 00:45:31.
