data_PCOD9572335
_publ_section_title
;
Structure prediction by ZEFSAII (Michael W. Deem and Ramdas Pophale) SiO2 
 PCOD9572335
Probable space group: I 4/M C M
;
_chemical_formula_sum "Si O2"
_cell_formula_units_Z 160
_cell_length_a 31.393419
_cell_length_b 31.393419
_cell_length_c 8.788090
_cell_angle_alpha 90.000000
_cell_angle_beta 90.000000
_cell_angle_gamma 90.000000
_cell_volume 8661.073595
_symmetry_space_group_name_H-M "I 4/M C M"
_symmetry_group_IT_number 140
_symmetry_cell_setting 'tetragonal'
loop_
_space_group_symop_operation_xyz
x,y,z
-y,x,z
-x,-y,z
y,-x,z
x,-y,1/2-z
-x,y,1/2-z
y,x,1/2-z
-y,-x,1/2-z
-x,-y,-z
y,-x,-z
x,y,-z
-y,x,-z
-x,y,1/2+z
x,-y,1/2+z
-y,-x,1/2+z
y,x,1/2+z
1/2+x,1/2+y,1/2+z
1/2-y,1/2+x,1/2+z
1/2-x,1/2-y,1/2+z
1/2+y,1/2-x,1/2+z
1/2+x,1/2-y,-z
1/2-x,1/2+y,-z
1/2+y,1/2+x,-z
1/2-y,1/2-x,-z
1/2-x,1/2-y,1/2-z
1/2+y,1/2-x,1/2-z
1/2+x,1/2+y,1/2-z
1/2-y,1/2+x,1/2-z
1/2-x,1/2+y,z
1/2+x,1/2-y,z
1/2-y,1/2-x,z
1/2+y,1/2+x,z
loop_
_atom_site_type_symbol
_atom_site_label
_atom_site_fract_x
_atom_site_fract_y
_atom_site_fract_z
Si Si1 0.548281 0.615882 0.683534
Si Si2 0.387093 0.887093 0.684806
Si Si3 0.256860 0.315185 0.330006
Si Si4 0.953600 0.453600 0.682321
Si Si5 0.288645 0.898198 0.684872
Si Si6 0.046996 0.212395 0.817745
O O1 0.500000 0.611124 0.750000
O O2 0.580534 0.580534 0.750000
O O3 0.546115 0.612039 0.500000
O O4 0.564079 0.664521 0.719258
O O5 0.389854 0.889854 0.500000
O O6 0.419480 0.919480 0.761704
O O7 0.338381 0.899057 0.728491
O O8 0.298788 0.298788 0.250000
O O9 0.268382 0.328110 0.500000
O O10 0.224016 0.275985 0.338370
O O11 0.230791 0.353428 0.258983
O O12 0.942559 0.500000 0.750000
O O13 0.955761 0.455761 0.500000
O O14 0.288691 0.899524 0.500000
O O15 0.254146 0.931076 0.747542
O O16 0.000000 0.211860 0.750000
O O17 0.046824 0.216255 0.000000
#
# Coordination Sequence:
#
# PCOD9572335 Si02
#       6
#    32  16  32  16  32  32
#     4  10  21  38  60  86 117 152 192 240 292 347
#     4  10  21  39  61  87 118 153 192 237 286 339
#     4   9  17  31  50  74 104 141 181 222 270 319
#     4  11  23  42  67  93 119 149 183 225 279 343
#     4  10  20  36  58  81 112 151 192 236 284 335
#     4  10  22  39  58  81 111 148 191 235 282 335
#
# _framework density 18.473459999999999
#
# number of rings (size 3 to 8) (size 9 to 14) (size 15 to 20)
#    0.000    2.100    1.000    2.400    0.000    5.800 
#    0.000    5.000    0.000    0.000    0.000    0.000 
#    0.000    0.000    0.000    0.000    0.000    0.000 
#
# Total GULP energy -445681.248621 kJ/mol
# GULP energy per Si atom -5571.015608 kJ/mol
# Density = 1.843141 g / cm^3
# Si number density = 18.473460 Si / 1000 Ang^3
#
#
#
# Elastic Constant Matrix: (Units=GPa)
#
#
# Indices 1 2 3 4 5 6 
#
# 1 101.5592 123.3039 50.9416 0.0000 0.0000 0.0000
# 2 123.3039 101.5592 50.9416 0.0000 0.0000 0.0000
# 3 50.9416 50.9416 54.5426 0.0000 0.0000 0.0000
# 4 0.0000 0.0000 0.0000 26.6112 0.0000 0.0000
# 5 0.0000 0.0000 0.0000 0.0000 26.6112 0.0000
# 6 0.0000 0.0000 0.0000 0.0000 0.0000 34.5130
#
#
#
# Elastic Compliance Matrix: (Units=1/GPa)
#
#
# Indices 1 2 3 4 5 6 
#
# 1 -0.019139 0.026849 -0.007201 0.000000 0.000000 0.000000
# 2 0.026849 -0.019139 -0.007201 0.000000 0.000000 0.000000
# 3 -0.007201 -0.007201 0.031785 0.000000 0.000000 0.000000
# 4 0.000000 0.000000 0.000000 0.037578 0.000000 0.000000
# 5 0.000000 0.000000 0.000000 0.000000 0.037578 0.000000
# 6 0.000000 0.000000 0.000000 0.000000 0.000000 0.028975
#
#
# Mechanical properties :
#
#
# Convention : Reuss Voigt Hill
#
# Bulk Modulus (GPa) = 54.34340 78.67055 66.50698
# Shear Modulus (GPa) = 63.39077 19.71201 41.55139
#
# Velocity S-wave (km/s) = 5.86421 3.27011 4.74777
# Velocity P-wave (km/s) = 8.67945 7.54562 8.13232
#
# Compressibility (1/GPa) = 0.01840150
#
# Stress axis : x y z
#
# Youngs Moduli (GPa) = -52.24856 -52.24856 31.46153
#
# Poissons Ratio (x) = 1.40282 0.22654
# Poissons Ratio (y) = 1.40282 0.22654
# Poissons Ratio (z) = -0.37623 -0.37623
#
# Static dielectric constant tensor:
#      x y z
#    x 1.656070 0.000000 0.000000 
#    y 0.000000 1.656070 0.000000 
#    z 0.000000 0.000000 1.634820 
# 
# From -- ./inp_files/1823.got.cif
#   From: 2010.05.17/outbox.cif.g08.bks.cpg/sg140_1_cif.got.tgz:1823.got - 2010.06.21 00:45:31.
