data_PCOD9572143
_publ_section_title
;
Structure prediction by ZEFSAII (Michael W. Deem and Ramdas Pophale) SiO2 
 PCOD9572143
Probable space group: I 4/M C M
;
_chemical_formula_sum "Si O2"
_cell_formula_units_Z 192
_cell_length_a 19.368199
_cell_length_b 19.368199
_cell_length_c 27.267081
_cell_angle_alpha 90.000000
_cell_angle_beta 90.000000
_cell_angle_gamma 90.000000
_cell_volume 10228.621907
_symmetry_space_group_name_H-M "I 4/M C M"
_symmetry_group_IT_number 140
_symmetry_cell_setting 'tetragonal'
loop_
_space_group_symop_operation_xyz
x,y,z
-y,x,z
-x,-y,z
y,-x,z
x,-y,1/2-z
-x,y,1/2-z
y,x,1/2-z
-y,-x,1/2-z
-x,-y,-z
y,-x,-z
x,y,-z
-y,x,-z
-x,y,1/2+z
x,-y,1/2+z
-y,-x,1/2+z
y,x,1/2+z
1/2+x,1/2+y,1/2+z
1/2-y,1/2+x,1/2+z
1/2-x,1/2-y,1/2+z
1/2+y,1/2-x,1/2+z
1/2+x,1/2-y,-z
1/2-x,1/2+y,-z
1/2+y,1/2+x,-z
1/2-y,1/2-x,-z
1/2-x,1/2-y,1/2-z
1/2+y,1/2-x,1/2-z
1/2+x,1/2+y,1/2-z
1/2-y,1/2+x,1/2-z
1/2-x,1/2+y,z
1/2+x,1/2-y,z
1/2-y,1/2-x,z
1/2+y,1/2+x,z
loop_
_atom_site_type_symbol
_atom_site_label
_atom_site_fract_x
_atom_site_fract_y
_atom_site_fract_z
Si Si1 0.240371 0.439358 0.400488
Si Si2 0.388579 0.479422 0.558871
Si Si3 0.204950 0.409487 0.000000
Si Si4 0.583695 0.306633 0.805246
Si Si5 0.408124 0.793562 0.106666
Si Si6 0.803090 0.081129 0.305039
Si Si7 0.177712 0.427283 0.500000
O O1 0.317152 0.465113 0.414930
O O2 0.195583 0.509006 0.391749
O O3 0.250881 0.400631 0.349158
O O4 0.212502 0.402660 0.449223
O O5 0.446593 0.422300 0.570829
O O6 0.377636 0.478016 0.500000
O O7 0.239530 0.394119 0.052469
O O8 0.187687 0.490444 0.000000
O O9 0.135417 0.364584 0.000000
O O10 0.607848 0.256243 0.848330
O O11 0.501172 0.315511 0.808635
O O12 0.625913 0.377186 0.810570
O O13 0.596647 0.278135 0.750235
O O14 0.362332 0.862332 0.109844
O O15 0.100041 0.399960 0.500000
#
# Coordination Sequence:
#
# PCOD9572143 Si02
#       7
#    32  32  16  32  32  32  16
#     4  10  19  33  52  75 104 138 169 220 256 308
#     4   9  18  31  49  75 103 136 178 215 256 309
#     4   8  16  33  57  82  99 119 165 217 258 311
#     4   9  18  35  51  72 101 133 171 216 265 308
#     4   9  18  33  53  74  98 132 170 207 253 306
#     4   9  19  32  51  73  99 133 175 218 260 309
#     4  10  20  35  51  73 107 141 167 203 267 311
#
# _framework density 18.770856999999999
#
# number of rings (size 3 to 8) (size 9 to 14) (size 15 to 20)
#    0.000    2.833    0.833    0.500    4.667    0.500 
#    0.000    5.833    0.000    1.000    0.000    0.000 
#    0.000    0.000    0.000    0.000    0.000    0.000 
#
# Total GULP energy -534650.276255 kJ/mol
# GULP energy per Si atom -5569.273711 kJ/mol
# Density = 1.872813 g / cm^3
# Si number density = 18.770857 Si / 1000 Ang^3
#
#
#
# Elastic Constant Matrix: (Units=GPa)
#
#
# Indices 1 2 3 4 5 6 
#
# 1 31.7171 29.7839 38.2067 0.0000 0.0000 0.0000
# 2 29.7839 31.7151 38.2041 0.0000 0.0000 0.0000
# 3 38.2067 38.2041 171.6625 0.0000 0.0000 0.0000
# 4 0.0000 0.0000 0.0000 13.6028 0.0000 0.0000
# 5 0.0000 0.0000 0.0000 0.0000 13.6035 0.0000
# 6 0.0000 0.0000 0.0000 0.0000 0.0000 21.1612
#
#
#
# Elastic Compliance Matrix: (Units=1/GPa)
#
#
# Indices 1 2 3 4 5 6 
#
# 1 0.270000 -0.247530 -0.005005 0.000000 0.000000 0.000000
# 2 -0.247530 0.270010 -0.004999 0.000000 0.000000 0.000000
# 3 -0.005005 -0.004999 0.008052 0.000000 0.000000 0.000000
# 4 0.000000 0.000000 0.000000 0.073515 0.000000 0.000000
# 5 0.000000 0.000000 0.000000 0.000000 0.073510 0.000000
# 6 0.000000 0.000000 0.000000 0.000000 0.000000 0.047256
#
#
# Mechanical properties :
#
#
# Convention : Reuss Voigt Hill
#
# Bulk Modulus (GPa) = 30.30885 49.72044 40.01465
# Shear Modulus (GPa) = 3.94195 18.26683 11.10439
#
# Velocity S-wave (km/s) = 1.45072 3.12292 2.43487
# Velocity P-wave (km/s) = 4.35752 6.28881 5.41004
#
# Compressibility (1/GPa) = 0.03299366
#
# Stress axis : x y z
#
# Youngs Moduli (GPa) = 3.70371 3.70357 124.19417
#
# Poissons Ratio (x) = 0.91674 0.62157
# Poissons Ratio (y) = 0.91678 0.62088
# Poissons Ratio (z) = 0.01854 0.01852
#
# Static dielectric constant tensor:
#      x y z
#    x 1.628020 0.000000 0.000000 
#    y 0.000000 1.628020 0.000000 
#    z 0.000000 0.000000 1.752130 
# 
# From -- ./inp_files/10900.got.cif
#   From: 2010.05.17/outbox.cif.g08.bks.cpg/sg140_6_cif.got.tgz:10900.got - 2010.06.21 00:45:31.
