data_PCOD9572469
_publ_section_title
;
Structure prediction by ZEFSAII (Michael W. Deem and Ramdas Pophale) SiO2 
 PCOD9572469
Probable space group: I 4/M C M
;
_chemical_formula_sum "Si O2"
_cell_formula_units_Z 160
_cell_length_a 22.942331
_cell_length_b 22.942331
_cell_length_c 15.793942
_cell_angle_alpha 90.000000
_cell_angle_beta 90.000000
_cell_angle_gamma 90.000000
_cell_volume 8313.150085
_symmetry_space_group_name_H-M "I 4/M C M"
_symmetry_group_IT_number 140
_symmetry_cell_setting 'tetragonal'
loop_
_space_group_symop_operation_xyz
x,y,z
-y,x,z
-x,-y,z
y,-x,z
x,-y,1/2-z
-x,y,1/2-z
y,x,1/2-z
-y,-x,1/2-z
-x,-y,-z
y,-x,-z
x,y,-z
-y,x,-z
-x,y,1/2+z
x,-y,1/2+z
-y,-x,1/2+z
y,x,1/2+z
1/2+x,1/2+y,1/2+z
1/2-y,1/2+x,1/2+z
1/2-x,1/2-y,1/2+z
1/2+y,1/2-x,1/2+z
1/2+x,1/2-y,-z
1/2-x,1/2+y,-z
1/2+y,1/2+x,-z
1/2-y,1/2-x,-z
1/2-x,1/2-y,1/2-z
1/2+y,1/2-x,1/2-z
1/2+x,1/2+y,1/2-z
1/2-y,1/2+x,1/2-z
1/2-x,1/2+y,z
1/2+x,1/2-y,z
1/2-y,1/2-x,z
1/2+y,1/2+x,z
loop_
_atom_site_type_symbol
_atom_site_label
_atom_site_fract_x
_atom_site_fract_y
_atom_site_fract_z
Si Si1 0.923951 0.255425 0.594805
Si Si2 0.448750 0.582486 0.903044
Si Si3 0.933203 0.336430 0.243333
Si Si4 0.740415 0.441534 0.902774
Si Si5 0.352976 0.653186 0.156642
O O1 0.923174 0.280309 0.500000
O O2 0.919823 0.301715 0.669982
O O3 0.870489 0.210447 0.604972
O O4 0.988968 0.225993 0.604660
O O5 0.423399 0.517498 0.894617
O O6 0.416278 0.622647 0.837323
O O7 0.436242 0.602464 0.000000
O O8 0.888260 0.388260 0.231112
O O9 0.930100 0.290569 0.165926
O O10 0.000000 0.357016 0.250000
O O11 0.688815 0.395484 0.884104
O O12 0.759180 0.432834 0.000000
O O13 0.331300 0.668701 0.250000
#
# Coordination Sequence:
#
# PCOD9572469 Si02
#       5
#    32  32  32  32  32
#     4  10  21  38  59  84 119 162 203 244 290 338
#     4   9  18  30  42  62  97 142 194 251 302 339
#     4  10  22  42  67  95 122 146 180 228 287 358
#     4  10  21  38  59  84 119 162 203 244 290 338
#     4  12  21  31  51  78 112 154 203 249 287 335
#
# _framework density 19.246614999999998
#
# number of rings (size 3 to 8) (size 9 to 14) (size 15 to 20)
#    0.000    1.800    2.000    3.600    0.000    6.600 
#    0.000    3.000    0.000    2.400    0.000    5.600 
#    0.000    0.000    0.000    0.000    0.000    0.000 
#
# Total GULP energy -446291.078952 kJ/mol
# GULP energy per Si atom -5578.638487 kJ/mol
# Density = 1.920281 g / cm^3
# Si number density = 19.246615 Si / 1000 Ang^3
#
#
#
# Elastic Constant Matrix: (Units=GPa)
#
#
# Indices 1 2 3 4 5 6 
#
# 1 66.5192 54.0146 38.4884 0.0000 0.0000 0.0000
# 2 54.0146 66.5190 38.4882 0.0000 0.0000 0.0000
# 3 38.4884 38.4882 130.4478 0.0000 0.0000 0.0000
# 4 0.0000 0.0000 0.0000 10.8281 0.0000 0.0000
# 5 0.0000 0.0000 0.0000 0.0000 10.8281 0.0000
# 6 0.0000 0.0000 0.0000 0.0000 0.0000 36.4381
#
#
#
# Elastic Compliance Matrix: (Units=1/GPa)
#
#
# Indices 1 2 3 4 5 6 
#
# 1 0.045097 -0.034874 -0.003016 0.000000 0.000000 0.000000
# 2 -0.034874 0.045097 -0.003016 0.000000 0.000000 0.000000
# 3 -0.003016 -0.003016 0.009446 0.000000 0.000000 0.000000
# 4 0.000000 0.000000 0.000000 0.092352 0.000000 0.000000
# 5 0.000000 0.000000 0.000000 0.000000 0.092352 0.000000
# 6 0.000000 0.000000 0.000000 0.000000 0.000000 0.027444
#
#
# Mechanical properties :
#
#
# Convention : Reuss Voigt Hill
#
# Bulk Modulus (GPa) = 56.09669 58.38536 57.24102
# Shear Modulus (GPa) = 12.51428 20.45185 16.48307
#
# Velocity S-wave (km/s) = 2.55268 3.26332 2.92963
# Velocity P-wave (km/s) = 6.15612 6.67834 6.42254
#
# Compressibility (1/GPa) = 0.01782637
#
# Stress axis : x y z
#
# Youngs Moduli (GPa) = 22.17445 22.17440 105.86797
#
# Poissons Ratio (x) = 0.77332 0.31932
# Poissons Ratio (y) = 0.77332 0.31931
# Poissons Ratio (z) = 0.06688 0.06688
#
# Static dielectric constant tensor:
#      x y z
#    x 1.672430 0.000000 0.000000 
#    y 0.000000 1.672430 0.000000 
#    z 0.000000 0.000000 1.713980 
# 
# From -- ./inp_files/4748.got.cif
#   From: 2010.05.17/outbox.cif.g08.bks.cpg/sg140_3_cif.got.tgz:4748.got - 2010.06.21 00:45:31.
