data_PCOD9572920
_publ_section_title
;
Structure prediction by ZEFSAII (Michael W. Deem and Ramdas Pophale) SiO2 
 PCOD9572920
Probable space group: I 41/A M D
;
_chemical_formula_sum "Si O2"
_cell_formula_units_Z 80
_cell_length_a 24.030527
_cell_length_b 24.030527
_cell_length_c 8.867756
_cell_angle_alpha 90.000000
_cell_angle_beta 90.000000
_cell_angle_gamma 90.000000
_cell_volume 5120.829607
_symmetry_space_group_name_H-M "I 41/A M D"
_symmetry_group_IT_number 141
_space_group.IT_coordinate_system_code '2'
_symmetry_cell_setting 'tetragonal'
loop_
_space_group_symop_operation_xyz
x,y,z
1/4-y,3/4+x,1/4+z
-x,1/2-y,z
1/4+y,1/4-x,3/4+z
x,-y,-z
-x,1/2+y,-z
1/4+y,3/4+x,1/4-z
1/4-y,1/4-x,3/4-z
-x,-y,-z
3/4+y,1/4-x,3/4-z
x,1/2+y,-z
3/4-y,3/4+x,1/4-z
-x,y,z
x,1/2-y,z
3/4-y,1/4-x,3/4+z
3/4+y,3/4+x,1/4+z
1/2+x,1/2+y,1/2+z
3/4-y,1/4+x,3/4+z
1/2-x,-y,1/2+z
3/4+y,3/4-x,1/4+z
1/2+x,1/2-y,1/2-z
1/2-x,y,1/2-z
3/4+y,1/4+x,3/4-z
3/4-y,3/4-x,1/4-z
1/2-x,1/2-y,1/2-z
1/4+y,3/4-x,1/4-z
1/2+x,y,1/2-z
1/4-y,1/4+x,3/4-z
1/2-x,1/2+y,1/2+z
1/2+x,-y,1/2+z
1/4-y,3/4-x,1/4+z
1/4+y,1/4+x,3/4+z
loop_
_atom_site_type_symbol
_atom_site_label
_atom_site_fract_x
_atom_site_fract_y
_atom_site_fract_z
Si Si1 0.142313 0.516154 0.163551
Si Si2 0.841869 0.908132 0.625000
Si Si3 0.309186 0.812804 0.663282
O O1 0.195538 0.554463 0.125000
O O2 0.158710 0.462679 0.266488
O O3 0.096106 0.548906 0.259024
O O4 0.119297 0.500000 0.000000
O O5 0.895911 0.906910 0.520143
O O6 0.330130 0.750000 0.643825
O O7 0.250000 0.809298 0.750000
#
# Coordination Sequence:
#
# PCOD9572920 Si02
#       3
#    32  16  32
#     4  11  21  29  49  76 106 134 167 202 254 308
#     4  10  20  32  50  73 102 134 168 206 246 303
#     4   9  19  34  49  70 101 133 165 204 246 298
#
# _framework density 15.622468
#
# number of rings (size 3 to 8) (size 9 to 14) (size 15 to 20)
#    0.000    2.000    4.000    0.000    2.800    0.800 
#    0.000    0.000    0.000    0.600    0.000    0.000 
#    0.000    0.000    0.000    0.000    0.000    0.000 
#
# Total GULP energy -222827.199037 kJ/mol
# GULP energy per Si atom -5570.679976 kJ/mol
# Density = 1.558691 g / cm^3
# Si number density = 15.622468 Si / 1000 Ang^3
#
#
#
# Elastic Constant Matrix: (Units=GPa)
#
#
# Indices 1 2 3 4 5 6 
#
# 1 97.6123 51.8472 57.4274 0.0000 0.0000 0.0000
# 2 51.8472 97.6152 57.4282 0.0000 0.0000 0.0000
# 3 57.4274 57.4282 152.5293 0.0000 0.0000 0.0000
# 4 0.0000 0.0000 0.0000 3.2433 0.0000 0.0000
# 5 0.0000 0.0000 0.0000 0.0000 3.2448 0.0000
# 6 0.0000 0.0000 0.0000 0.0000 0.0000 8.2656
#
#
#
# Elastic Compliance Matrix: (Units=1/GPa)
#
#
# Indices 1 2 3 4 5 6 
#
# 1 0.015633 -0.006218 -0.003545 0.000000 0.000000 0.000000
# 2 -0.006218 0.015632 -0.003545 0.000000 0.000000 0.000000
# 3 -0.003545 -0.003545 0.009225 0.000000 0.000000 0.000000
# 4 0.000000 0.000000 0.000000 0.308332 0.000000 0.000000
# 5 0.000000 0.000000 0.000000 0.000000 0.308182 0.000000
# 6 0.000000 0.000000 0.000000 0.000000 0.000000 0.120983
#
#
# Mechanical properties :
#
#
# Convention : Reuss Voigt Hill
#
# Bulk Modulus (GPa) = 72.06702 75.68469 73.87585
# Shear Modulus (GPa) = 6.17874 15.02101 10.59987
#
# Velocity S-wave (km/s) = 1.99088 3.10417 2.60763
# Velocity P-wave (km/s) = 7.17742 7.83576 7.51380
#
# Compressibility (1/GPa) = 0.01387597
#
# Stress axis : x y z
#
# Youngs Moduli (GPa) = 63.96906 63.97092 108.39799
#
# Poissons Ratio (x) = 0.39775 0.38424
# Poissons Ratio (y) = 0.39774 0.38423
# Poissons Ratio (z) = 0.22675 0.22675
#
# Static dielectric constant tensor:
#      x y z
#    x 1.531910 0.000000 0.000000 
#    y 0.000000 1.531910 0.000000 
#    z 0.000000 0.000000 1.540010 
# 
# From -- ./inp_files/2269.got.cif
#   From: 2010.05.17/outbox.cif.g08.bks.cpg/sg141_2_cif.got.tgz:2269.got - 2010.05.20 13:30:51.
