data_PCOD9572956
_publ_section_title
;
Structure prediction by ZEFSAII (Michael W. Deem and Ramdas Pophale) SiO2 
 PCOD9572956
Probable space group: I 41/A M D
;
_chemical_formula_sum "Si O2"
_cell_formula_units_Z 160
_cell_length_a 26.725407
_cell_length_b 26.725407
_cell_length_c 9.955147
_cell_angle_alpha 90.000000
_cell_angle_beta 90.000000
_cell_angle_gamma 90.000000
_cell_volume 7110.437655
_symmetry_space_group_name_H-M "I 41/A M D"
_symmetry_group_IT_number 141
_space_group.IT_coordinate_system_code '2'
_symmetry_cell_setting 'tetragonal'
loop_
_space_group_symop_operation_xyz
x,y,z
1/4-y,3/4+x,1/4+z
-x,1/2-y,z
1/4+y,1/4-x,3/4+z
x,-y,-z
-x,1/2+y,-z
1/4+y,3/4+x,1/4-z
1/4-y,1/4-x,3/4-z
-x,-y,-z
3/4+y,1/4-x,3/4-z
x,1/2+y,-z
3/4-y,3/4+x,1/4-z
-x,y,z
x,1/2-y,z
3/4-y,1/4-x,3/4+z
3/4+y,3/4+x,1/4+z
1/2+x,1/2+y,1/2+z
3/4-y,1/4+x,3/4+z
1/2-x,-y,1/2+z
3/4+y,3/4-x,1/4+z
1/2+x,1/2-y,1/2-z
1/2-x,y,1/2-z
3/4+y,1/4+x,3/4-z
3/4-y,3/4-x,1/4-z
1/2-x,1/2-y,1/2-z
1/4+y,3/4-x,1/4-z
1/2+x,y,1/2-z
1/4-y,1/4+x,3/4-z
1/2-x,1/2+y,1/2+z
1/2+x,-y,1/2+z
1/4-y,3/4-x,1/4+z
1/4+y,1/4+x,3/4+z
loop_
_atom_site_type_symbol
_atom_site_label
_atom_site_fract_x
_atom_site_fract_y
_atom_site_fract_z
Si Si1 0.221561 0.191775 0.952126
Si Si2 0.636786 0.056545 0.506622
Si Si3 0.560203 0.306019 0.770122
Si Si4 0.643860 0.346588 0.333799
Si Si5 0.289578 0.620721 0.872659
O O1 0.236698 0.250000 0.945220
O O2 0.178180 0.185154 0.063682
O O3 0.262490 0.150636 0.005932
O O4 0.200254 0.169967 0.811867
O O5 0.666692 0.083309 0.625000
O O6 0.643480 0.095335 0.384546
O O7 0.657163 0.000000 0.500000
O O8 0.577476 0.327476 0.625000
O O9 0.500000 0.305057 0.761746
O O10 0.579080 0.250000 0.781809
O O11 0.577190 0.338890 0.892908
O O12 0.666767 0.344086 0.187096
O O13 0.250000 0.618648 0.750000
O O14 0.315945 0.565945 0.875000
#
# Coordination Sequence:
#
# PCOD9572956 Si02
#       5
#    32  32  32  32  32
#     4  10  21  37  59  85 113 150 195 240 287 343
#     4  10  21  38  56  82 115 148 189 237 291 348
#     4   9  17  30  52  83 115 147 185 229 282 346
#     4  10  20  34  56  82 114 150 188 237 288 345
#     4  10  22  41  60  83 112 146 191 236 284 343
#
# _framework density 22.502130000000001
#
# number of rings (size 3 to 8) (size 9 to 14) (size 15 to 20)
#    0.000    2.200    0.000    4.200    0.000    7.200 
#    0.000   31.000    0.000    0.000    0.000    1.400 
#    0.000    0.000    0.000    0.000    0.000    0.000 
#
# Total GULP energy -446108.626129 kJ/mol
# GULP energy per Si atom -5576.357827 kJ/mol
# Density = 2.245091 g / cm^3
# Si number density = 22.502130 Si / 1000 Ang^3
#
#
#
# Elastic Constant Matrix: (Units=GPa)
#
#
# Indices 1 2 3 4 5 6 
#
# 1 93.9791 34.7530 11.9385 0.0000 0.0000 0.0000
# 2 34.7530 93.9787 11.9379 0.0000 0.0000 0.0000
# 3 11.9385 11.9379 40.7367 0.0000 0.0000 0.0000
# 4 0.0000 0.0000 0.0000 27.0846 0.0000 0.0000
# 5 0.0000 0.0000 0.0000 0.0000 27.0850 0.0000
# 6 0.0000 0.0000 0.0000 0.0000 0.0000 36.6826
#
#
#
# Elastic Compliance Matrix: (Units=1/GPa)
#
#
# Indices 1 2 3 4 5 6 
#
# 1 0.012550 -0.004335 -0.002407 0.000000 0.000000 0.000000
# 2 -0.004335 0.012550 -0.002407 0.000000 0.000000 0.000000
# 3 -0.002407 -0.002407 0.025959 0.000000 0.000000 0.000000
# 4 0.000000 0.000000 0.000000 0.036921 0.000000 0.000000
# 5 0.000000 0.000000 0.000000 0.000000 0.036921 0.000000
# 6 0.000000 0.000000 0.000000 0.000000 0.000000 0.027261
#
#
# Mechanical properties :
#
#
# Convention : Reuss Voigt Hill
#
# Bulk Modulus (GPa) = 30.52630 38.43927 34.48279
# Shear Modulus (GPa) = 27.56647 29.50812 28.53729
#
# Velocity S-wave (km/s) = 3.50388 3.62518 3.56505
# Velocity P-wave (km/s) = 5.47403 5.88576 5.68363
#
# Compressibility (1/GPa) = 0.03275864
#
# Stress axis : x y z
#
# Youngs Moduli (GPa) = 79.68424 79.68417 38.52250
#
# Poissons Ratio (x) = 0.34543 0.09274
# Poissons Ratio (y) = 0.34543 0.09273
# Poissons Ratio (z) = 0.19184 0.19182
#
# Static dielectric constant tensor:
#      x y z
#    x 1.866570 0.000000 0.000000 
#    y 0.000000 1.866570 0.000000 
#    z 0.000000 0.000000 1.914310 
# 
# From -- ./inp_files/4868.got.cif
#   From: 2010.05.17/outbox.cif.g08.bks.cpg/sg141_3_cif.got.tgz:4868.got - 2010.05.20 13:30:51.
