data_PCOD9572564
_publ_section_title
;
Structure prediction by ZEFSAII (Michael W. Deem and Ramdas Pophale) SiO2 
 PCOD9572564
Probable space group: I 4/M C M
;
_chemical_formula_sum "Si O2"
_cell_formula_units_Z 136
_cell_length_a 18.235171
_cell_length_b 18.235171
_cell_length_c 20.441175
_cell_angle_alpha 90.000000
_cell_angle_beta 90.000000
_cell_angle_gamma 90.000000
_cell_volume 6797.129384
_symmetry_space_group_name_H-M "I 4/M C M"
_symmetry_group_IT_number 140
_symmetry_cell_setting 'tetragonal'
loop_
_space_group_symop_operation_xyz
x,y,z
-y,x,z
-x,-y,z
y,-x,z
x,-y,1/2-z
-x,y,1/2-z
y,x,1/2-z
-y,-x,1/2-z
-x,-y,-z
y,-x,-z
x,y,-z
-y,x,-z
-x,y,1/2+z
x,-y,1/2+z
-y,-x,1/2+z
y,x,1/2+z
1/2+x,1/2+y,1/2+z
1/2-y,1/2+x,1/2+z
1/2-x,1/2-y,1/2+z
1/2+y,1/2-x,1/2+z
1/2+x,1/2-y,-z
1/2-x,1/2+y,-z
1/2+y,1/2+x,-z
1/2-y,1/2-x,-z
1/2-x,1/2-y,1/2-z
1/2+y,1/2-x,1/2-z
1/2+x,1/2+y,1/2-z
1/2-y,1/2+x,1/2-z
1/2-x,1/2+y,z
1/2+x,1/2-y,z
1/2-y,1/2-x,z
1/2+y,1/2+x,z
loop_
_atom_site_type_symbol
_atom_site_label
_atom_site_fract_x
_atom_site_fract_y
_atom_site_fract_z
Si Si1 0.983935 0.122358 0.000000
Si Si2 0.562127 0.937874 0.576417
Si Si3 0.660786 0.281553 0.819339
Si Si4 0.821879 0.321879 0.000000
Si Si5 0.781680 0.908525 0.102468
Si Si6 0.814781 0.515024 0.178794
O O1 0.969901 0.174136 0.937682
O O2 0.060386 0.079788 0.000000
O O3 0.580583 0.919418 0.500000
O O4 0.530824 0.870646 0.619363
O O5 0.500000 0.000000 0.573634
O O6 0.685281 0.314720 0.750000
O O7 0.723152 0.223152 0.839622
O O8 0.662354 0.348258 0.869913
O O9 0.585465 0.237673 0.815463
O O10 0.867040 0.275429 0.056113
O O11 0.735173 0.946253 0.159503
O O12 0.850234 0.500000 0.250000
#
# Coordination Sequence:
#
# PCOD9572564 Si02
#       6
#    16  16  32   8  32  32
#     4  10  22  42  66  92 130 180 225 276 347 424
#     4  11  30  48  68  99 144 183 230 288 344 411
#     4  11  22  42  65  98 134 173 227 287 336 399
#     4  10  24  38  64 101 122 180 215 274 336 406
#     4  11  23  41  68  98 135 173 226 284 339 413
#     4  12  26  44  71 101 135 184 229 284 348 413
#
# _framework density 20.008445999999999
#
# number of rings (size 3 to 8) (size 9 to 14) (size 15 to 20)
#    0.000    0.941    4.706    1.412    6.588    0.000 
#    6.353    0.000    0.000    0.000    0.000    0.000 
#    0.000    0.000    0.000    0.000    0.000    0.000 
#
# Total GULP energy -378866.509556 kJ/mol
# GULP energy per Si atom -5571.566317 kJ/mol
# Density = 1.996291 g / cm^3
# Si number density = 20.008446 Si / 1000 Ang^3
#
#
#
# Elastic Constant Matrix: (Units=GPa)
#
#
# Indices 1 2 3 4 5 6 
#
# 1 61.7708 22.8952 34.7192 0.0000 0.0000 0.0000
# 2 22.8952 61.7707 34.7203 0.0000 0.0000 0.0000
# 3 34.7192 34.7203 128.5801 0.0000 0.0000 0.0000
# 4 0.0000 0.0000 0.0000 8.0480 0.0000 0.0000
# 5 0.0000 0.0000 0.0000 0.0000 8.0495 0.0000
# 6 0.0000 0.0000 0.0000 0.0000 0.0000 35.8753
#
#
#
# Elastic Compliance Matrix: (Units=1/GPa)
#
#
# Indices 1 2 3 4 5 6 
#
# 1 0.020447 -0.005276 -0.004096 0.000000 0.000000 0.000000
# 2 -0.005276 0.020447 -0.004097 0.000000 0.000000 0.000000
# 3 -0.004096 -0.004097 0.009990 0.000000 0.000000 0.000000
# 4 0.000000 0.000000 0.000000 0.124255 0.000000 0.000000
# 5 0.000000 0.000000 0.000000 0.000000 0.124231 0.000000
# 6 0.000000 0.000000 0.000000 0.000000 0.000000 0.027874
#
#
# Mechanical properties :
#
#
# Convention : Reuss Voigt Hill
#
# Bulk Modulus (GPa) = 41.76181 48.53234 45.14707
# Shear Modulus (GPa) = 13.80591 21.04702 17.42647
#
# Velocity S-wave (km/s) = 2.62964 3.24683 2.95440
# Velocity P-wave (km/s) = 5.48976 6.19390 5.85243
#
# Compressibility (1/GPa) = 0.02394532
#
# Stress axis : x y z
#
# Youngs Moduli (GPa) = 48.90722 48.90660 100.10447
#
# Poissons Ratio (x) = 0.25804 0.41006
# Poissons Ratio (y) = 0.25804 0.41009
# Poissons Ratio (z) = 0.20034 0.20035
#
# Static dielectric constant tensor:
#      x y z
#    x 1.695760 0.000000 0.000000 
#    y 0.000000 1.695760 0.000000 
#    z 0.000000 0.000000 1.713990 
# 
# From -- ./inp_files/8129.got.cif
#   From: 2010.05.17/outbox.cif.g08.bks.cpg/sg140_5_cif.got.tgz:8129.got - 2010.06.21 00:45:31.
