data_PCOD9572885
_publ_section_title
;
Structure prediction by ZEFSAII (Michael W. Deem and Ramdas Pophale) SiO2 
 PCOD9572885
Probable space group: I 41/A M D
;
_chemical_formula_sum "Si O2"
_cell_formula_units_Z 112
_cell_length_a 15.685402
_cell_length_b 15.685402
_cell_length_c 27.594831
_cell_angle_alpha 90.000000
_cell_angle_beta 90.000000
_cell_angle_gamma 90.000000
_cell_volume 6789.206932
_symmetry_space_group_name_H-M "I 41/A M D"
_symmetry_group_IT_number 141
_space_group.IT_coordinate_system_code '2'
_symmetry_cell_setting 'tetragonal'
loop_
_space_group_symop_operation_xyz
x,y,z
1/4-y,3/4+x,1/4+z
-x,1/2-y,z
1/4+y,1/4-x,3/4+z
x,-y,-z
-x,1/2+y,-z
1/4+y,3/4+x,1/4-z
1/4-y,1/4-x,3/4-z
-x,-y,-z
3/4+y,1/4-x,3/4-z
x,1/2+y,-z
3/4-y,3/4+x,1/4-z
-x,y,z
x,1/2-y,z
3/4-y,1/4-x,3/4+z
3/4+y,3/4+x,1/4+z
1/2+x,1/2+y,1/2+z
3/4-y,1/4+x,3/4+z
1/2-x,-y,1/2+z
3/4+y,3/4-x,1/4+z
1/2+x,1/2-y,1/2-z
1/2-x,y,1/2-z
3/4+y,1/4+x,3/4-z
3/4-y,3/4-x,1/4-z
1/2-x,1/2-y,1/2-z
1/4+y,3/4-x,1/4-z
1/2+x,y,1/2-z
1/4-y,1/4+x,3/4-z
1/2-x,1/2+y,1/2+z
1/2+x,-y,1/2+z
1/4-y,3/4-x,1/4+z
1/4+y,1/4+x,3/4+z
loop_
_atom_site_type_symbol
_atom_site_label
_atom_site_fract_x
_atom_site_fract_y
_atom_site_fract_z
Si Si1 0.500000 0.849699 0.087748
Si Si2 0.500000 0.848455 0.203945
Si Si3 0.685035 0.647879 0.058689
Si Si4 0.834922 0.539914 0.277831
Si Si5 0.263115 0.013115 0.625000
O O1 0.500000 0.750000 0.073385
O O2 0.500000 0.853219 0.145646
O O3 0.410562 0.884803 0.069011
O O4 0.500000 0.750000 0.218733
O O5 0.413156 0.894350 0.220412
O O6 0.688738 0.750000 0.063567
O O7 0.747091 0.602339 0.097501
O O8 0.713409 0.618545 0.005649
O O9 0.750000 0.573579 0.250000
O O10 0.805721 0.510633 0.331354
#
# Coordination Sequence:
#
# PCOD9572885 Si02
#       5
#    16  16  32  32  16
#     4   9  18  32  56  82  99 137 189 226 263 329
#     4  11  20  36  59  84 112 152 192 233 278 335
#     4  10  19  35  57  78 109 144 181 228 276 330
#     4  10  21  36  55  84 115 146 183 235 285 334
#     4  10  20  34  54  81 111 142 184 224 286 320
#
# _framework density 16.496772
#
# number of rings (size 3 to 8) (size 9 to 14) (size 15 to 20)
#    0.000    2.000    4.286    0.000    0.000    0.571 
#    0.000   12.143    0.000    0.000    0.000    0.000 
#    0.000    0.000    0.000    0.000    0.000    0.000 
#
# Total GULP energy -311750.655234 kJ/mol
# GULP energy per Si atom -5566.975986 kJ/mol
# Density = 1.645922 g / cm^3
# Si number density = 16.496772 Si / 1000 Ang^3
#
#
#
# Elastic Constant Matrix: (Units=GPa)
#
#
# Indices 1 2 3 4 5 6 
#
# 1 102.5465 56.5798 39.1448 0.0000 0.0000 0.0000
# 2 56.5798 102.5465 39.1448 0.0000 0.0000 0.0000
# 3 39.1448 39.1448 98.0088 0.0000 0.0000 0.0000
# 4 0.0000 0.0000 0.0000 19.1152 0.0000 0.0000
# 5 0.0000 0.0000 0.0000 0.0000 19.1152 0.0000
# 6 0.0000 0.0000 0.0000 0.0000 0.0000 14.9748
#
#
#
# Elastic Compliance Matrix: (Units=1/GPa)
#
#
# Indices 1 2 3 4 5 6 
#
# 1 0.014788 -0.006967 -0.003124 0.000000 0.000000 0.000000
# 2 -0.006967 0.014788 -0.003124 0.000000 0.000000 0.000000
# 3 -0.003124 -0.003124 0.012698 0.000000 0.000000 0.000000
# 4 0.000000 0.000000 0.000000 0.052314 0.000000 0.000000
# 5 0.000000 0.000000 0.000000 0.000000 0.052314 0.000000
# 6 0.000000 0.000000 0.000000 0.000000 0.000000 0.066779
#
#
# Mechanical properties :
#
#
# Convention : Reuss Voigt Hill
#
# Bulk Modulus (GPa) = 63.10863 63.64894 63.37878
# Shear Modulus (GPa) = 20.37548 21.85653 21.11600
#
# Velocity S-wave (km/s) = 3.51824 3.64386 3.58160
# Velocity P-wave (km/s) = 7.40555 7.50800 7.45695
#
# Compressibility (1/GPa) = 0.01584569
#
# Stress axis : x y z
#
# Youngs Moduli (GPa) = 67.62219 67.62219 78.74974
#
# Poissons Ratio (x) = 0.47111 0.24600
# Poissons Ratio (y) = 0.47111 0.24600
# Poissons Ratio (z) = 0.21124 0.21124
#
# Static dielectric constant tensor:
#      x y z
#    x 1.565550 0.000000 0.000000 
#    y 0.000000 1.565550 0.000000 
#    z 0.000000 0.000000 1.554500 
# 
# From -- ./inp_files/11188.got.cif
#   From: 2010.05.17/outbox.cif.g08.bks.cpg/sg141_6_cif.got.tgz:11188.got - 2010.05.20 13:30:51.
