data_PCOD9572655
_publ_section_title
;
Structure prediction by ZEFSAII (Michael W. Deem and Ramdas Pophale) SiO2 
 PCOD9572655
Probable space group: I 4/M C M
;
_chemical_formula_sum "Si O2"
_cell_formula_units_Z 96
_cell_length_a 15.252849
_cell_length_b 15.252849
_cell_length_c 20.123530
_cell_angle_alpha 90.000000
_cell_angle_beta 90.000000
_cell_angle_gamma 90.000000
_cell_volume 4681.727233
_symmetry_space_group_name_H-M "I 4/M C M"
_symmetry_group_IT_number 140
_symmetry_cell_setting 'tetragonal'
loop_
_space_group_symop_operation_xyz
x,y,z
-y,x,z
-x,-y,z
y,-x,z
x,-y,1/2-z
-x,y,1/2-z
y,x,1/2-z
-y,-x,1/2-z
-x,-y,-z
y,-x,-z
x,y,-z
-y,x,-z
-x,y,1/2+z
x,-y,1/2+z
-y,-x,1/2+z
y,x,1/2+z
1/2+x,1/2+y,1/2+z
1/2-y,1/2+x,1/2+z
1/2-x,1/2-y,1/2+z
1/2+y,1/2-x,1/2+z
1/2+x,1/2-y,-z
1/2-x,1/2+y,-z
1/2+y,1/2+x,-z
1/2-y,1/2-x,-z
1/2-x,1/2-y,1/2-z
1/2+y,1/2-x,1/2-z
1/2+x,1/2+y,1/2-z
1/2-y,1/2+x,1/2-z
1/2-x,1/2+y,z
1/2+x,1/2-y,z
1/2-y,1/2-x,z
1/2+y,1/2+x,z
loop_
_atom_site_type_symbol
_atom_site_label
_atom_site_fract_x
_atom_site_fract_y
_atom_site_fract_z
Si Si1 0.857546 0.030214 0.500000
Si Si2 0.644753 0.144753 0.081967
Si Si3 0.500000 0.353632 0.250000
Si Si4 0.525371 0.241204 0.371534
Si Si5 0.772522 0.272522 0.827402
O O1 0.900322 0.934807 0.500000
O O2 0.799785 0.039157 0.564260
O O3 0.544820 0.167591 0.105074
O O4 0.712092 0.212092 0.121857
O O5 0.652875 0.152875 0.000000
O O6 0.582631 0.417370 0.250000
O O7 0.479935 0.294128 0.312968
O O8 0.623421 0.234203 0.342267
O O9 0.750000 0.250000 0.750000
#
# Coordination Sequence:
#
# PCOD9572655 Si02
#       5
#    16  16  16  32  16
#     4  11  22  38  64 101 140 186 244 315 386 433
#     4  12  26  45  71 109 152 198 250 309 376 448
#     4  11  22  40  68 101 138 182 242 319 386 441
#     4  12  25  43  69 102 145 194 250 306 365 457
#     4  12  28  49  77 105 143 202 250 311 384 444
#
# _framework density 20.505253
#
# number of rings (size 3 to 8) (size 9 to 14) (size 15 to 20)
#    0.000    0.333    1.667    9.000    2.333    3.333 
#    0.000    0.833    0.000    4.000    0.000    0.000 
#    0.000    0.000    0.000    0.000    0.000    0.000 
#
# Total GULP energy -267590.206027 kJ/mol
# GULP energy per Si atom -5574.795959 kJ/mol
# Density = 2.045858 g / cm^3
# Si number density = 20.505253 Si / 1000 Ang^3
#
#
#
# Elastic Constant Matrix: (Units=GPa)
#
#
# Indices 1 2 3 4 5 6 
#
# 1 102.1991 82.0106 65.7451 0.0000 0.0000 0.0000
# 2 82.0106 102.1966 65.7435 0.0000 0.0000 0.0000
# 3 65.7451 65.7435 197.9866 0.0000 0.0000 0.0000
# 4 0.0000 0.0000 0.0000 35.7850 0.0000 0.0000
# 5 0.0000 0.0000 0.0000 0.0000 35.7853 0.0000
# 6 0.0000 0.0000 0.0000 0.0000 0.0000 25.5626
#
#
#
# Elastic Compliance Matrix: (Units=1/GPa)
#
#
# Indices 1 2 3 4 5 6 
#
# 1 0.028325 -0.021211 -0.002363 0.000000 0.000000 0.000000
# 2 -0.021211 0.028326 -0.002363 0.000000 0.000000 0.000000
# 3 -0.002363 -0.002363 0.006620 0.000000 0.000000 0.000000
# 4 0.000000 0.000000 0.000000 0.027945 0.000000 0.000000
# 5 0.000000 0.000000 0.000000 0.000000 0.027944 0.000000
# 6 0.000000 0.000000 0.000000 0.000000 0.000000 0.039120
#
#
# Mechanical properties :
#
#
# Convention : Reuss Voigt Hill
#
# Bulk Modulus (GPa) = 87.72317 92.15341 89.93829
# Shear Modulus (GPa) = 23.36979 32.01881 27.69430
#
# Velocity S-wave (km/s) = 3.37960 3.95586 3.67903
# Velocity P-wave (km/s) = 7.62251 8.11813 7.87422
#
# Compressibility (1/GPa) = 0.01139950
#
# Stress axis : x y z
#
# Youngs Moduli (GPa) = 35.30405 35.30338 151.05808
#
# Poissons Ratio (x) = 0.74880 0.35692
# Poissons Ratio (y) = 0.74882 0.35689
# Poissons Ratio (z) = 0.08342 0.08341
#
# Static dielectric constant tensor:
#      x y z
#    x 1.816880 0.000000 0.000000 
#    y 0.000000 1.816880 0.000000 
#    z 0.000000 0.000000 1.655350 
# 
# From -- ./inp_files/7744.got.cif
#   From: 2010.05.17/outbox.cif.g08.bks.cpg/sg140_4_cif.got.tgz:7744.got - 2010.06.21 00:45:31.
