data_PCOD9572638
_publ_section_title
;
Structure prediction by ZEFSAII (Michael W. Deem and Ramdas Pophale) SiO2 
 PCOD9572638
Probable space group: I 4/M C M
;
_chemical_formula_sum "Si O2"
_cell_formula_units_Z 160
_cell_length_a 25.093036
_cell_length_b 25.093036
_cell_length_c 13.993556
_cell_angle_alpha 90.000000
_cell_angle_beta 90.000000
_cell_angle_gamma 90.000000
_cell_volume 8811.188848
_symmetry_space_group_name_H-M "I 4/M C M"
_symmetry_group_IT_number 140
_symmetry_cell_setting 'tetragonal'
loop_
_space_group_symop_operation_xyz
x,y,z
-y,x,z
-x,-y,z
y,-x,z
x,-y,1/2-z
-x,y,1/2-z
y,x,1/2-z
-y,-x,1/2-z
-x,-y,-z
y,-x,-z
x,y,-z
-y,x,-z
-x,y,1/2+z
x,-y,1/2+z
-y,-x,1/2+z
y,x,1/2+z
1/2+x,1/2+y,1/2+z
1/2-y,1/2+x,1/2+z
1/2-x,1/2-y,1/2+z
1/2+y,1/2-x,1/2+z
1/2+x,1/2-y,-z
1/2-x,1/2+y,-z
1/2+y,1/2+x,-z
1/2-y,1/2-x,-z
1/2-x,1/2-y,1/2-z
1/2+y,1/2-x,1/2-z
1/2+x,1/2+y,1/2-z
1/2-y,1/2+x,1/2-z
1/2-x,1/2+y,z
1/2+x,1/2-y,z
1/2-y,1/2-x,z
1/2+y,1/2+x,z
loop_
_atom_site_type_symbol
_atom_site_label
_atom_site_fract_x
_atom_site_fract_y
_atom_site_fract_z
Si Si1 0.648132 0.062216 0.271588
Si Si2 0.084376 0.973859 0.885424
Si Si3 0.911993 0.825756 0.776520
Si Si4 0.418960 0.772588 0.891758
Si Si5 0.454519 0.748874 0.391057
O O1 0.596300 0.096300 0.294885
O O2 0.677011 0.085199 0.177080
O O3 0.693804 0.065646 0.352802
O O4 0.636762 0.000000 0.250000
O O5 0.136263 0.954138 0.830878
O O6 0.033778 0.935465 0.863047
O O7 0.093032 0.971538 0.000000
O O8 0.863850 0.863850 0.750000
O O9 0.891739 0.778981 0.846324
O O10 0.936005 0.795760 0.684015
O O11 0.481559 0.755469 0.888491
O O12 0.403651 0.783307 0.000000
O O13 0.438512 0.737383 0.500000
#
# Coordination Sequence:
#
# PCOD9572638 Si02
#       5
#    32  32  32  32  32
#     4   9  18  34  59  91 122 148 174 205 252 318
#     4   9  20  35  48  68 102 143 182 225 290 362
#     4  11  22  31  52  76 101 134 188 244 291 329
#     4   9  19  36  54  75 106 144 187 227 270 325
#     4   9  20  37  54  74 106 148 192 231 269 322
#
# _framework density 18.158729999999998
#
# number of rings (size 3 to 8) (size 9 to 14) (size 15 to 20)
#    0.000    2.600    0.000    3.000    5.600    2.600 
#    0.000    1.000    0.000    9.600    0.000   18.200 
#    0.000    0.000    0.000    0.000    0.000    0.000 
#
# Total GULP energy -446722.264760 kJ/mol
# GULP energy per Si atom -5584.028309 kJ/mol
# Density = 1.811740 g / cm^3
# Si number density = 18.158730 Si / 1000 Ang^3
#
#
#
# Elastic Constant Matrix: (Units=GPa)
#
#
# Indices 1 2 3 4 5 6 
#
# 1 71.2256 48.5218 22.4969 0.0000 0.0000 0.0000
# 2 48.5218 71.2256 22.4969 0.0000 0.0000 0.0000
# 3 22.4969 22.4969 93.9429 0.0000 0.0000 0.0000
# 4 0.0000 0.0000 0.0000 9.0863 0.0000 0.0000
# 5 0.0000 0.0000 0.0000 0.0000 9.0863 0.0000
# 6 0.0000 0.0000 0.0000 0.0000 0.0000 24.8234
#
#
#
# Elastic Compliance Matrix: (Units=1/GPa)
#
#
# Indices 1 2 3 4 5 6 
#
# 1 0.026611 -0.017434 -0.002198 0.000000 0.000000 0.000000
# 2 -0.017434 0.026611 -0.002198 0.000000 0.000000 0.000000
# 3 -0.002198 -0.002198 0.011697 0.000000 0.000000 0.000000
# 4 0.000000 0.000000 0.000000 0.110056 0.000000 0.000000
# 5 0.000000 0.000000 0.000000 0.000000 0.110056 0.000000
# 6 0.000000 0.000000 0.000000 0.000000 0.000000 0.040285
#
#
# Mechanical properties :
#
#
# Convention : Reuss Voigt Hill
#
# Bulk Modulus (GPa) = 47.03606 47.04723 47.04165
# Shear Modulus (GPa) = 13.29567 18.12443 15.71005
#
# Velocity S-wave (km/s) = 2.70884 3.16272 2.94454
# Velocity P-wave (km/s) = 5.97852 6.26914 6.12556
#
# Compressibility (1/GPa) = 0.02126028
#
# Stress axis : x y z
#
# Youngs Moduli (GPa) = 37.57832 37.57832 85.48995
#
# Poissons Ratio (x) = 0.65516 0.18787
# Poissons Ratio (y) = 0.65516 0.18787
# Poissons Ratio (z) = 0.08258 0.08258
#
# Static dielectric constant tensor:
#      x y z
#    x 1.615600 0.000000 0.000000 
#    y 0.000000 1.615600 0.000000 
#    z 0.000000 0.000000 1.663360 
# 
# From -- ./inp_files/4692.got.cif
#   From: 2010.05.17/outbox.cif.g08.bks.cpg/sg140_3_cif.got.tgz:4692.got - 2010.06.21 00:45:31.
