data_PCOD9572079
_publ_section_title
;
Structure prediction by ZEFSAII (Michael W. Deem and Ramdas Pophale) SiO2 
 PCOD9572079
Probable space group: I 4/M C M
;
_chemical_formula_sum "Si O2"
_cell_formula_units_Z 176
_cell_length_a 17.574827
_cell_length_b 17.574827
_cell_length_c 31.268542
_cell_angle_alpha 90.000000
_cell_angle_beta 90.000000
_cell_angle_gamma 90.000000
_cell_volume 9658.056654
_symmetry_space_group_name_H-M "I 4/M C M"
_symmetry_group_IT_number 140
_symmetry_cell_setting 'tetragonal'
loop_
_space_group_symop_operation_xyz
x,y,z
-y,x,z
-x,-y,z
y,-x,z
x,-y,1/2-z
-x,y,1/2-z
y,x,1/2-z
-y,-x,1/2-z
-x,-y,-z
y,-x,-z
x,y,-z
-y,x,-z
-x,y,1/2+z
x,-y,1/2+z
-y,-x,1/2+z
y,x,1/2+z
1/2+x,1/2+y,1/2+z
1/2-y,1/2+x,1/2+z
1/2-x,1/2-y,1/2+z
1/2+y,1/2-x,1/2+z
1/2+x,1/2-y,-z
1/2-x,1/2+y,-z
1/2+y,1/2+x,-z
1/2-y,1/2-x,-z
1/2-x,1/2-y,1/2-z
1/2+y,1/2-x,1/2-z
1/2+x,1/2+y,1/2-z
1/2-y,1/2+x,1/2-z
1/2-x,1/2+y,z
1/2+x,1/2-y,z
1/2-y,1/2-x,z
1/2+y,1/2+x,z
loop_
_atom_site_type_symbol
_atom_site_label
_atom_site_fract_x
_atom_site_fract_y
_atom_site_fract_z
Si Si1 0.354502 0.724959 0.710806
Si Si2 0.702482 0.928228 0.589865
Si Si3 0.378996 0.998904 0.335222
Si Si4 0.500000 0.801727 0.750000
Si Si5 0.177173 0.192783 0.385059
Si Si6 0.209983 0.415834 0.548911
O O1 0.325999 0.674002 0.750000
O O2 0.296580 0.796580 0.708962
O O3 0.435978 0.753828 0.726138
O O4 0.352607 0.687031 0.663835
O O5 0.635826 0.864175 0.584504
O O6 0.780738 0.882489 0.597355
O O7 0.686489 0.980183 0.631888
O O8 0.701177 0.993476 0.554102
O O9 0.413452 0.913452 0.334831
O O10 0.354792 0.026186 0.288567
O O11 0.447047 0.052954 0.349575
O O12 0.244259 0.255742 0.383119
O O13 0.116015 0.227457 0.417898
O O14 0.231429 0.397789 0.500000
O O15 0.131286 0.368715 0.557748
#
# Coordination Sequence:
#
# PCOD9572079 Si02
#       6
#    32  32  32  16  32  32
#     4  10  20  33  50  75 106 139 180 226 266 310
#     4  10  20  35  56  79 105 142 185 227 278 339
#     4  10  19  29  44  72 108 140 172 212 260 317
#     4  12  20  29  48  71 102 144 182 212 256 316
#     4   9  19  36  55  76 108 150 192 232 275 330
#     4  10  21  36  55  82 114 143 174 222 285 348
#
# _framework density 18.223127999999999
#
# number of rings (size 3 to 8) (size 9 to 14) (size 15 to 20)
#    0.000    2.000    0.000    4.364    0.000    7.273 
#    0.000    2.727    0.000    0.818    0.000    3.818 
#    0.000    0.000    0.000    0.000    0.000    0.000 
#
# Total GULP energy -490117.250658 kJ/mol
# GULP energy per Si atom -5569.514212 kJ/mol
# Density = 1.818165 g / cm^3
# Si number density = 18.223128 Si / 1000 Ang^3
#
#
#
# Elastic Constant Matrix: (Units=GPa)
#
#
# Indices 1 2 3 4 5 6 
#
# 1 80.1999 49.2904 38.0894 0.0000 0.0000 0.0000
# 2 49.2904 80.2026 38.0893 0.0000 0.0000 0.0000
# 3 38.0894 38.0893 116.0038 0.0000 0.0000 0.0000
# 4 0.0000 0.0000 0.0000 23.2726 0.0000 0.0000
# 5 0.0000 0.0000 0.0000 0.0000 23.2739 0.0000
# 6 0.0000 0.0000 0.0000 0.0000 0.0000 17.5731
#
#
#
# Elastic Compliance Matrix: (Units=1/GPa)
#
#
# Indices 1 2 3 4 5 6 
#
# 1 0.020962 -0.011390 -0.003143 0.000000 0.000000 0.000000
# 2 -0.011390 0.020961 -0.003143 0.000000 0.000000 0.000000
# 3 -0.003143 -0.003143 0.010684 0.000000 0.000000 0.000000
# 4 0.000000 0.000000 0.000000 0.042969 0.000000 0.000000
# 5 0.000000 0.000000 0.000000 0.000000 0.042967 0.000000
# 6 0.000000 0.000000 0.000000 0.000000 0.000000 0.056905
#
#
# Mechanical properties :
#
#
# Convention : Reuss Voigt Hill
#
# Bulk Modulus (GPa) = 57.95073 58.59382 58.27227
# Shear Modulus (GPa) = 21.13717 22.88639 22.01178
#
# Velocity S-wave (km/s) = 3.40944 3.54771 3.47926
# Velocity P-wave (km/s) = 6.88249 7.00036 6.94168
#
# Compressibility (1/GPa) = 0.01725604
#
# Stress axis : x y z
#
# Youngs Moduli (GPa) = 47.70622 47.70816 93.59619
#
# Poissons Ratio (x) = 0.54339 0.29416
# Poissons Ratio (y) = 0.54337 0.29413
# Poissons Ratio (z) = 0.14993 0.14993
#
# Static dielectric constant tensor:
#      x y z
#    x 2.289670 0.000000 0.000000 
#    y 0.000000 2.291720 0.000000 
#    z 0.000000 0.000000 1.672650 
# 
# From -- ./inp_files/10681.got.cif
#   From: 2010.05.17/outbox.cif.g08.bks.cpg/sg140_6_cif.got.tgz:10681.got - 2010.06.21 00:45:31.
