data_PCOD9572497
_publ_section_title
;
Structure prediction by ZEFSAII (Michael W. Deem and Ramdas Pophale) SiO2 
 PCOD9572497
Probable space group: I 4/M C M
;
_chemical_formula_sum "Si O2"
_cell_formula_units_Z 160
_cell_length_a 20.165325
_cell_length_b 20.165325
_cell_length_c 19.346323
_cell_angle_alpha 90.000000
_cell_angle_beta 90.000000
_cell_angle_gamma 90.000000
_cell_volume 7866.995215
_symmetry_space_group_name_H-M "I 4/M C M"
_symmetry_group_IT_number 140
_symmetry_cell_setting 'tetragonal'
loop_
_space_group_symop_operation_xyz
x,y,z
-y,x,z
-x,-y,z
y,-x,z
x,-y,1/2-z
-x,y,1/2-z
y,x,1/2-z
-y,-x,1/2-z
-x,-y,-z
y,-x,-z
x,y,-z
-y,x,-z
-x,y,1/2+z
x,-y,1/2+z
-y,-x,1/2+z
y,x,1/2+z
1/2+x,1/2+y,1/2+z
1/2-y,1/2+x,1/2+z
1/2-x,1/2-y,1/2+z
1/2+y,1/2-x,1/2+z
1/2+x,1/2-y,-z
1/2-x,1/2+y,-z
1/2+y,1/2+x,-z
1/2-y,1/2-x,-z
1/2-x,1/2-y,1/2-z
1/2+y,1/2-x,1/2-z
1/2+x,1/2+y,1/2-z
1/2-y,1/2+x,1/2-z
1/2-x,1/2+y,z
1/2+x,1/2-y,z
1/2-y,1/2-x,z
1/2+y,1/2+x,z
loop_
_atom_site_type_symbol
_atom_site_label
_atom_site_fract_x
_atom_site_fract_y
_atom_site_fract_z
Si Si1 0.259887 0.351779 0.676169
Si Si2 0.106502 0.213858 0.171078
Si Si3 0.066297 0.322765 0.576202
Si Si4 0.350804 0.959368 0.819744
Si Si5 0.465488 0.606108 0.919057
O O1 0.197145 0.302856 0.693134
O O2 0.319456 0.306567 0.648306
O O3 0.285639 0.387801 0.745305
O O4 0.237715 0.406853 0.621834
O O5 0.084329 0.288389 0.156541
O O6 0.057176 0.162528 0.134237
O O7 0.044010 0.302835 0.500000
O O8 0.128880 0.371121 0.570330
O O9 0.011114 0.361283 0.619105
O O10 0.412932 0.912932 0.805354
O O11 0.334604 0.000000 0.750000
O O12 0.419173 0.540891 0.909015
O O13 0.458665 0.626563 0.000000
#
# Coordination Sequence:
#
# PCOD9572497 Si02
#       5
#    32  32  32  32  32
#     4  10  21  41  64  92 131 169 210 266 332 395
#     4  11  22  36  66  98 128 169 215 268 327 398
#     4  10  23  44  68  93 126 173 224 273 330 398
#     4  12  25  42  66  99 136 176 224 279 340 402
#     4   9  21  42  64  92 135 181 223 270 326 394
#
# _framework density 20.338134
#
# number of rings (size 3 to 8) (size 9 to 14) (size 15 to 20)
#    0.000    1.600    2.000    3.600    2.800    3.400 
#    0.000    1.000    0.000   11.400    0.000    0.000 
#    0.000    0.000    0.000    0.000    0.000    0.000 
#
# Total GULP energy -446713.990114 kJ/mol
# GULP energy per Si atom -5583.924876 kJ/mol
# Density = 2.029184 g / cm^3
# Si number density = 20.338134 Si / 1000 Ang^3
#
#
#
# Elastic Constant Matrix: (Units=GPa)
#
#
# Indices 1 2 3 4 5 6 
#
# 1 77.3103 20.6371 36.7077 0.0000 0.0000 0.0000
# 2 20.6371 77.3103 36.7077 0.0000 0.0000 0.0000
# 3 36.7077 36.7077 94.4142 0.0000 0.0000 0.0000
# 4 0.0000 0.0000 0.0000 22.4716 0.0000 0.0000
# 5 0.0000 0.0000 0.0000 0.0000 22.4716 0.0000
# 6 0.0000 0.0000 0.0000 0.0000 0.0000 25.7197
#
#
#
# Elastic Compliance Matrix: (Units=1/GPa)
#
#
# Indices 1 2 3 4 5 6 
#
# 1 0.016027 -0.001618 -0.005602 0.000000 0.000000 0.000000
# 2 -0.001618 0.016027 -0.005602 0.000000 0.000000 0.000000
# 3 -0.005602 -0.005602 0.014948 0.000000 0.000000 0.000000
# 4 0.000000 0.000000 0.000000 0.044501 0.000000 0.000000
# 5 0.000000 0.000000 0.000000 0.000000 0.044501 0.000000
# 6 0.000000 0.000000 0.000000 0.000000 0.000000 0.038881
#
#
# Mechanical properties :
#
#
# Convention : Reuss Voigt Hill
#
# Bulk Modulus (GPa) = 46.82349 48.57109 47.69729
# Shear Modulus (GPa) = 24.07940 24.46471 24.27205
#
# Velocity S-wave (km/s) = 3.44460 3.47205 3.45835
# Velocity P-wave (km/s) = 6.23641 6.32512 6.28092
#
# Compressibility (1/GPa) = 0.02135680
#
# Stress axis : x y z
#
# Youngs Moduli (GPa) = 62.39577 62.39577 66.90037
#
# Poissons Ratio (x) = 0.10098 0.37477
# Poissons Ratio (y) = 0.10098 0.37477
# Poissons Ratio (z) = 0.34954 0.34954
#
# Static dielectric constant tensor:
#      x y z
#    x 1.751730 0.000000 0.000000 
#    y 0.000000 1.751730 0.000000 
#    z 0.000000 0.000000 1.733000 
# 
# From -- ./inp_files/6849.got.cif
#   From: 2010.05.17/outbox.cif.g08.bks.cpg/sg140_4_cif.got.tgz:6849.got - 2010.06.21 00:45:31.
