data_PCOD9572915
_publ_section_title
;
Structure prediction by ZEFSAII (Michael W. Deem and Ramdas Pophale) SiO2 
 PCOD9572915
Probable space group: I 41/A M D
;
_chemical_formula_sum "Si O2"
_cell_formula_units_Z 144
_cell_length_a 27.711238
_cell_length_b 27.711238
_cell_length_c 10.720911
_cell_angle_alpha 90.000000
_cell_angle_beta 90.000000
_cell_angle_gamma 90.000000
_cell_volume 8232.723836
_symmetry_space_group_name_H-M "I 41/A M D"
_symmetry_group_IT_number 141
_space_group.IT_coordinate_system_code '2'
_symmetry_cell_setting 'tetragonal'
loop_
_space_group_symop_operation_xyz
x,y,z
1/4-y,3/4+x,1/4+z
-x,1/2-y,z
1/4+y,1/4-x,3/4+z
x,-y,-z
-x,1/2+y,-z
1/4+y,3/4+x,1/4-z
1/4-y,1/4-x,3/4-z
-x,-y,-z
3/4+y,1/4-x,3/4-z
x,1/2+y,-z
3/4-y,3/4+x,1/4-z
-x,y,z
x,1/2-y,z
3/4-y,1/4-x,3/4+z
3/4+y,3/4+x,1/4+z
1/2+x,1/2+y,1/2+z
3/4-y,1/4+x,3/4+z
1/2-x,-y,1/2+z
3/4+y,3/4-x,1/4+z
1/2+x,1/2-y,1/2-z
1/2-x,y,1/2-z
3/4+y,1/4+x,3/4-z
3/4-y,3/4-x,1/4-z
1/2-x,1/2-y,1/2-z
1/4+y,3/4-x,1/4-z
1/2+x,y,1/2-z
1/4-y,1/4+x,3/4-z
1/2-x,1/2+y,1/2+z
1/2+x,-y,1/2+z
1/4-y,3/4-x,1/4+z
1/4+y,1/4+x,3/4+z
loop_
_atom_site_type_symbol
_atom_site_label
_atom_site_fract_x
_atom_site_fract_y
_atom_site_fract_z
Si Si1 0.807274 0.692654 0.518736
Si Si2 0.404366 0.654366 0.875000
Si Si3 0.649176 0.306969 0.745639
Si Si4 0.557323 0.049704 0.753926
Si Si5 0.944886 0.849840 0.361728
O O1 0.811320 0.750000 0.549482
O O2 0.848978 0.664938 0.591676
O O3 0.819646 0.687435 0.371660
O O4 0.752971 0.674421 0.540428
O O5 0.417708 0.684413 0.751651
O O6 0.642275 0.250000 0.724730
O O7 0.677936 0.326586 0.625901
O O8 0.596563 0.328519 0.773578
O O9 0.500000 0.041626 0.733369
O O10 0.561736 0.092180 0.854383
O O11 0.000000 0.839242 0.324103
#
# Coordination Sequence:
#
# PCOD9572915 Si02
#       5
#    32  16  32  32  32
#     4   9  17  30  49  70  96 128 158 199 251 296
#     4  10  20  32  44  65  98 126 168 202 240 296
#     4   9  17  30  48  72 102 129 162 202 242 299
#     4   9  17  30  49  71  94 122 159 206 255 293
#     4  10  20  32  47  69 100 134 168 205 244 293
#
# _framework density 17.491174000000001
#
# number of rings (size 3 to 8) (size 9 to 14) (size 15 to 20)
#    0.000    2.667    0.000    2.000    0.000    4.889 
#    0.000    3.333    0.000    8.333    0.000    0.000 
#   86.667    0.000    0.000    0.000    0.000    0.000 
#
# Total GULP energy -401215.267199 kJ/mol
# GULP energy per Si atom -5572.434267 kJ/mol
# Density = 1.745136 g / cm^3
# Si number density = 17.491174 Si / 1000 Ang^3
#
#
#
# Elastic Constant Matrix: (Units=GPa)
#
#
# Indices 1 2 3 4 5 6 
#
# 1 59.2537 25.3480 2.9373 0.0000 0.0000 0.0000
# 2 25.3480 59.2537 2.9373 0.0000 0.0000 0.0000
# 3 2.9373 2.9373 46.4079 0.0000 0.0000 0.0000
# 4 0.0000 0.0000 0.0000 12.7811 0.0000 0.0000
# 5 0.0000 0.0000 0.0000 0.0000 12.7811 0.0000
# 6 0.0000 0.0000 0.0000 0.0000 0.0000 0.3264
#
#
#
# Elastic Compliance Matrix: (Units=1/GPa)
#
#
# Indices 1 2 3 4 5 6 
#
# 1 0.020683 -0.008811 -0.000751 0.000000 0.000000 0.000000
# 2 -0.008811 0.020683 -0.000751 0.000000 0.000000 0.000000
# 3 -0.000751 -0.000751 0.021643 0.000000 0.000000 0.000000
# 4 0.000000 0.000000 0.000000 0.078241 0.000000 0.000000
# 5 0.000000 0.000000 0.000000 0.000000 0.078241 0.000000
# 6 0.000000 0.000000 0.000000 0.000000 0.000000 3.063835
#
#
# Mechanical properties :
#
#
# Convention : Reuss Voigt Hill
#
# Bulk Modulus (GPa) = 23.59493 25.26228 24.42861
# Shear Modulus (GPa) = 1.50690 14.09057 7.79873
#
# Velocity S-wave (km/s) = 0.92919 2.84136 2.11385
# Velocity P-wave (km/s) = 3.83016 5.02381 4.46703
#
# Compressibility (1/GPa) = 0.04238199
#
# Stress axis : x y z
#
# Youngs Moduli (GPa) = 48.34914 48.34914 46.20392
#
# Poissons Ratio (x) = 0.42599 0.03472
# Poissons Ratio (y) = 0.42599 0.03472
# Poissons Ratio (z) = 0.03633 0.03633
#
# Static dielectric constant tensor:
#      x y z
#    x 1.596800 0.000000 0.000000 
#    y 0.000000 1.596800 0.000000 
#    z 0.000000 0.000000 1.641780 
# 
# From -- ./inp_files/4800.got.cif
#   From: 2010.05.17/outbox.cif.g08.bks.cpg/sg141_3_cif.got.tgz:4800.got - 2010.05.20 13:30:51.
