data_PCOD9572450
_publ_section_title
;
Structure prediction by ZEFSAII (Michael W. Deem and Ramdas Pophale) SiO2 
 PCOD9572450
Probable space group: I 4/M C M
;
_chemical_formula_sum "Si O2"
_cell_formula_units_Z 176
_cell_length_a 15.340117
_cell_length_b 15.340117
_cell_length_c 37.046793
_cell_angle_alpha 90.000000
_cell_angle_beta 90.000000
_cell_angle_gamma 90.000000
_cell_volume 8717.821305
_symmetry_space_group_name_H-M "I 4/M C M"
_symmetry_group_IT_number 140
_symmetry_cell_setting 'tetragonal'
loop_
_space_group_symop_operation_xyz
x,y,z
-y,x,z
-x,-y,z
y,-x,z
x,-y,1/2-z
-x,y,1/2-z
y,x,1/2-z
-y,-x,1/2-z
-x,-y,-z
y,-x,-z
x,y,-z
-y,x,-z
-x,y,1/2+z
x,-y,1/2+z
-y,-x,1/2+z
y,x,1/2+z
1/2+x,1/2+y,1/2+z
1/2-y,1/2+x,1/2+z
1/2-x,1/2-y,1/2+z
1/2+y,1/2-x,1/2+z
1/2+x,1/2-y,-z
1/2-x,1/2+y,-z
1/2+y,1/2+x,-z
1/2-y,1/2-x,-z
1/2-x,1/2-y,1/2-z
1/2+y,1/2-x,1/2-z
1/2+x,1/2+y,1/2-z
1/2-y,1/2+x,1/2-z
1/2-x,1/2+y,z
1/2+x,1/2-y,z
1/2-y,1/2-x,z
1/2+y,1/2+x,z
loop_
_atom_site_type_symbol
_atom_site_label
_atom_site_fract_x
_atom_site_fract_y
_atom_site_fract_z
Si Si1 0.184860 0.171133 0.063921
Si Si2 0.774201 0.125886 0.643200
Si Si3 0.357799 0.998029 0.118715
Si Si4 0.634116 0.441366 0.000000
Si Si5 0.540700 0.186465 0.959021
Si Si6 0.892882 0.100903 0.290094
O O1 0.273415 0.226586 0.059581
O O2 0.176832 0.141511 0.105194
O O3 0.180137 0.091096 0.036427
O O4 0.107977 0.237005 0.052135
O O5 0.698672 0.198672 0.644789
O O6 0.837374 0.136785 0.676929
O O7 0.725343 0.031542 0.641275
O O8 0.400937 0.900937 0.122413
O O9 0.331334 0.014649 0.076902
O O10 0.435161 0.064840 0.127520
O O11 0.608656 0.541345 0.000000
O O12 0.599620 0.099620 0.961351
O O13 0.506972 0.198664 0.000000
O O14 0.867145 0.132856 0.250000
O O15 0.996092 0.117774 0.292445
#
# Coordination Sequence:
#
# PCOD9572450 Si02
#       6
#    32  32  32  16  32  32
#     4  10  21  37  55  76 107 145 185 235 287 335
#     4  10  22  36  57  90 118 148 191 235 285 349
#     4   9  19  35  53  80 118 153 191 243 296 346
#     4  11  25  38  52  74 103 145 192 238 286 339
#     4   9  17  30  50  72 101 147 194 239 290 338
#     4   9  20  40  64  88 116 150 184 226 282 338
#
# _framework density 20.188528999999999
#
# number of rings (size 3 to 8) (size 9 to 14) (size 15 to 20)
#    0.000    2.455    0.909    0.818    5.091    0.727 
#    0.000    3.636    0.000    1.091    0.000    0.000 
#    0.000    0.000    0.000    0.000    0.000    0.000 
#
# Total GULP energy -490942.868321 kJ/mol
# GULP energy per Si atom -5578.896231 kJ/mol
# Density = 2.014258 g / cm^3
# Si number density = 20.188529 Si / 1000 Ang^3
#
#
#
# Elastic Constant Matrix: (Units=GPa)
#
#
# Indices 1 2 3 4 5 6 
#
# 1 40.4937 10.7785 40.9566 0.0000 0.0000 0.0000
# 2 10.7785 40.4935 40.9565 0.0000 0.0000 0.0000
# 3 40.9566 40.9565 158.9173 0.0000 0.0000 0.0000
# 4 0.0000 0.0000 0.0000 35.2390 0.0000 0.0000
# 5 0.0000 0.0000 0.0000 0.0000 35.2394 0.0000
# 6 0.0000 0.0000 0.0000 0.0000 0.0000 6.2863
#
#
#
# Elastic Compliance Matrix: (Units=1/GPa)
#
#
# Indices 1 2 3 4 5 6 
#
# 1 0.033404 -0.000249 -0.008545 0.000000 0.000000 0.000000
# 2 -0.000249 0.033404 -0.008545 0.000000 0.000000 0.000000
# 3 -0.008545 -0.008545 0.010697 0.000000 0.000000 0.000000
# 4 0.000000 0.000000 0.000000 0.028378 0.000000 0.000000
# 5 0.000000 0.000000 0.000000 0.000000 0.028377 0.000000
# 6 0.000000 0.000000 0.000000 0.000000 0.000000 0.159076
#
#
# Mechanical properties :
#
#
# Convention : Reuss Voigt Hill
#
# Bulk Modulus (GPa) = 23.34925 47.25419 35.30172
# Shear Modulus (GPa) = 14.60753 25.16713 19.88733
#
# Velocity S-wave (km/s) = 2.69282 3.53456 3.14200
# Velocity P-wave (km/s) = 4.61076 6.33362 5.53958
#
# Compressibility (1/GPa) = 0.04282792
#
# Stress axis : x y z
#
# Youngs Moduli (GPa) = 29.93660 29.93646 93.48450
#
# Poissons Ratio (x) = 0.00745 0.79881
# Poissons Ratio (y) = 0.00745 0.79881
# Poissons Ratio (z) = 0.25580 0.25580
#
# Static dielectric constant tensor:
#      x y z
#    x 1.778550 0.000000 0.000000 
#    y 0.000000 1.778550 0.000000 
#    z 0.000000 0.000000 1.701590 
# 
# From -- ./inp_files/11516.got.cif
#   From: 2010.05.17/outbox.cif.g08.bks.cpg/sg140_6_cif.got.tgz:11516.got - 2010.06.21 00:45:31.
