data_PCOD9572817
_publ_section_title
;
Structure prediction by ZEFSAII (Michael W. Deem and Ramdas Pophale) SiO2 
 PCOD9572817
Probable space group: I 41/A M D
;
_chemical_formula_sum "Si O2"
_cell_formula_units_Z 84
_cell_length_a 12.403303
_cell_length_b 12.403303
_cell_length_c 29.119031
_cell_angle_alpha 90.000000
_cell_angle_beta 90.000000
_cell_angle_gamma 90.000000
_cell_volume 4479.727792
_symmetry_space_group_name_H-M "I 41/A M D"
_symmetry_group_IT_number 141
_space_group.IT_coordinate_system_code '2'
_symmetry_cell_setting 'tetragonal'
loop_
_space_group_symop_operation_xyz
x,y,z
1/4-y,3/4+x,1/4+z
-x,1/2-y,z
1/4+y,1/4-x,3/4+z
x,-y,-z
-x,1/2+y,-z
1/4+y,3/4+x,1/4-z
1/4-y,1/4-x,3/4-z
-x,-y,-z
3/4+y,1/4-x,3/4-z
x,1/2+y,-z
3/4-y,3/4+x,1/4-z
-x,y,z
x,1/2-y,z
3/4-y,1/4-x,3/4+z
3/4+y,3/4+x,1/4+z
1/2+x,1/2+y,1/2+z
3/4-y,1/4+x,3/4+z
1/2-x,-y,1/2+z
3/4+y,3/4-x,1/4+z
1/2+x,1/2-y,1/2-z
1/2-x,y,1/2-z
3/4+y,1/4+x,3/4-z
3/4-y,3/4-x,1/4-z
1/2-x,1/2-y,1/2-z
1/4+y,3/4-x,1/4-z
1/2+x,y,1/2-z
1/4-y,1/4+x,3/4-z
1/2-x,1/2+y,1/2+z
1/2+x,-y,1/2+z
1/4-y,3/4-x,1/4+z
1/4+y,1/4+x,3/4+z
loop_
_atom_site_type_symbol
_atom_site_label
_atom_site_fract_x
_atom_site_fract_y
_atom_site_fract_z
Si Si1 0.500000 0.250000 0.625000
Si Si2 0.880593 0.250000 0.788462
Si Si3 0.374107 0.122973 0.872699
Si Si4 0.725522 0.479080 0.701825
O O1 0.500000 0.352406 0.593373
O O2 0.829900 0.366581 0.781891
O O3 0.000000 0.250000 0.767028
O O4 0.500000 0.097916 0.880672
O O5 0.365090 0.250000 0.862177
O O6 0.300953 0.095778 0.917228
O O7 0.326716 0.056844 0.829517
O O8 0.750000 0.537065 0.750000
#
# Coordination Sequence:
#
# PCOD9572817 Si02
#       4
#     4  16  32  32
#     4   8  16  28  48  76 120 152 168 200 296 392
#     4  10  19  29  55  89 120 150 177 238 309 376
#     4  10  22  39  58  82 119 156 194 241 298 359
#     4  11  22  37  58  87 118 153 201 244 301 357
#
# _framework density 18.751138000000001
#
# number of rings (size 3 to 8) (size 9 to 14) (size 15 to 20)
#    0.571    1.143    1.905    4.000    0.000    3.810 
#    0.000    0.000    0.000    9.143    0.000    0.000 
#    0.000    0.000    0.000    0.000    0.000    0.000 
#
# Total GULP energy -233890.615536 kJ/mol
# GULP energy per Si atom -5568.824179 kJ/mol
# Density = 1.870846 g / cm^3
# Si number density = 18.751138 Si / 1000 Ang^3
#
#
#
# Elastic Constant Matrix: (Units=GPa)
#
#
# Indices 1 2 3 4 5 6 
#
# 1 88.5801 25.3286 16.4820 0.0000 0.0000 0.0000
# 2 25.3286 88.5801 16.4820 0.0000 0.0000 0.0000
# 3 16.4820 16.4820 107.9895 0.0000 0.0000 0.0000
# 4 0.0000 0.0000 0.0000 11.2896 0.0000 0.0000
# 5 0.0000 0.0000 0.0000 0.0000 11.2896 0.0000
# 6 0.0000 0.0000 0.0000 0.0000 0.0000 17.8609
#
#
#
# Elastic Compliance Matrix: (Units=1/GPa)
#
#
# Indices 1 2 3 4 5 6 
#
# 1 0.012497 -0.003313 -0.001402 0.000000 0.000000 0.000000
# 2 -0.003313 0.012497 -0.001402 0.000000 0.000000 0.000000
# 3 -0.001402 -0.001402 0.009688 0.000000 0.000000 0.000000
# 4 0.000000 0.000000 0.000000 0.088577 0.000000 0.000000
# 5 0.000000 0.000000 0.000000 0.000000 0.088577 0.000000
# 6 0.000000 0.000000 0.000000 0.000000 0.000000 0.055988
#
#
# Mechanical properties :
#
#
# Convention : Reuss Voigt Hill
#
# Bulk Modulus (GPa) = 44.54331 44.63724 44.59028
# Shear Modulus (GPa) = 17.38882 23.21182 20.30032
#
# Velocity S-wave (km/s) = 3.04854 3.52218 3.29389
# Velocity P-wave (km/s) = 6.01648 6.35592 6.18853
#
# Compressibility (1/GPa) = 0.02245006
#
# Stress axis : x y z
#
# Youngs Moduli (GPa) = 80.01755 80.01755 103.21975
#
# Poissons Ratio (x) = 0.26507 0.14470
# Poissons Ratio (y) = 0.26507 0.14470
# Poissons Ratio (z) = 0.11217 0.11217
#
# Static dielectric constant tensor:
#      x y z
#    x 1.692130 0.000000 0.000000 
#    y 0.000000 1.692130 0.000000 
#    z 0.000000 0.000000 1.680100 
# 
# From -- ./inp_files/13719.got.cif
#   From: 2010.05.17/outbox.cif.g08.bks.cpg/sg141_7_cif.got.tgz:13719.got - 2010.05.20 13:30:51.
