data_PCOD9572104
_publ_section_title
;
Structure prediction by ZEFSAII (Michael W. Deem and Ramdas Pophale) SiO2 
 PCOD9572104
Probable space group: I 4/M C M
;
_chemical_formula_sum "Si O2"
_cell_formula_units_Z 176
_cell_length_a 17.562038
_cell_length_b 17.562038
_cell_length_c 28.741216
_cell_angle_alpha 90.000000
_cell_angle_beta 90.000000
_cell_angle_gamma 90.000000
_cell_volume 8864.514681
_symmetry_space_group_name_H-M "I 4/M C M"
_symmetry_group_IT_number 140
_symmetry_cell_setting 'tetragonal'
loop_
_space_group_symop_operation_xyz
x,y,z
-y,x,z
-x,-y,z
y,-x,z
x,-y,1/2-z
-x,y,1/2-z
y,x,1/2-z
-y,-x,1/2-z
-x,-y,-z
y,-x,-z
x,y,-z
-y,x,-z
-x,y,1/2+z
x,-y,1/2+z
-y,-x,1/2+z
y,x,1/2+z
1/2+x,1/2+y,1/2+z
1/2-y,1/2+x,1/2+z
1/2-x,1/2-y,1/2+z
1/2+y,1/2-x,1/2+z
1/2+x,1/2-y,-z
1/2-x,1/2+y,-z
1/2+y,1/2+x,-z
1/2-y,1/2-x,-z
1/2-x,1/2-y,1/2-z
1/2+y,1/2-x,1/2-z
1/2+x,1/2+y,1/2-z
1/2-y,1/2+x,1/2-z
1/2-x,1/2+y,z
1/2+x,1/2-y,z
1/2-y,1/2-x,z
1/2+y,1/2+x,z
loop_
_atom_site_type_symbol
_atom_site_label
_atom_site_fract_x
_atom_site_fract_y
_atom_site_fract_z
Si Si1 0.192629 0.810053 0.055569
Si Si2 0.109460 0.051651 0.056387
Si Si3 0.317128 0.686550 0.803215
Si Si4 0.877127 0.500000 0.250000
Si Si5 0.698900 0.072242 0.340557
Si Si6 0.782814 0.409069 0.626696
O O1 0.230072 0.730072 0.069004
O O2 0.104765 0.820254 0.068470
O O3 0.243097 0.873537 0.081101
O O4 0.198758 0.819318 0.000000
O O5 0.034169 0.097913 0.072370
O O6 0.108011 0.046924 0.000000
O O7 0.334654 0.665347 0.750000
O O8 0.252127 0.752127 0.801889
O O9 0.276918 0.617195 0.830015
O O10 0.385656 0.725192 0.831449
O O11 0.933050 0.566951 0.231930
O O12 0.828310 0.464065 0.208838
O O13 0.633605 0.133605 0.353682
O O14 0.704985 0.998911 0.373456
O O15 0.860788 0.360788 0.633270
#
# Coordination Sequence:
#
# PCOD9572104 Si02
#       6
#    32  32  32  16  32  32
#     4   9  18  32  49  69  96 132 170 207 252 308
#     4   8  14  26  46  71  95 118 150 200 258 305
#     4   9  18  32  49  71 101 134 164 197 244 302
#     4   9  16  26  44  72 100 123 156 204 246 275
#     4  10  19  31  50  74  99 129 166 205 245 294
#     4  10  20  33  50  73 101 131 166 210 255 297
#
# _framework density 19.854441999999999
#
# number of rings (size 3 to 8) (size 9 to 14) (size 15 to 20)
#    0.000    2.818    0.000    2.182    0.000    5.455 
#    0.000    0.000    0.000    1.091    0.000    3.818 
#    0.000    0.000    0.000    0.000    0.000    0.000 
#
# Total GULP energy -490823.869595 kJ/mol
# GULP energy per Si atom -5577.543973 kJ/mol
# Density = 1.980925 g / cm^3
# Si number density = 19.854442 Si / 1000 Ang^3
#
#
#
# Elastic Constant Matrix: (Units=GPa)
#
#
# Indices 1 2 3 4 5 6 
#
# 1 78.9040 47.5247 16.9877 0.0000 0.0000 0.0000
# 2 47.5247 78.9040 16.9878 0.0000 0.0000 0.0000
# 3 16.9877 16.9878 69.4083 0.0000 0.0000 0.0000
# 4 0.0000 0.0000 0.0000 18.6002 0.0000 0.0000
# 5 0.0000 0.0000 0.0000 0.0000 18.6002 0.0000
# 6 0.0000 0.0000 0.0000 0.0000 0.0000 26.2929
#
#
#
# Elastic Compliance Matrix: (Units=1/GPa)
#
#
# Indices 1 2 3 4 5 6 
#
# 1 0.020167 -0.011701 -0.002072 0.000000 0.000000 0.000000
# 2 -0.011701 0.020167 -0.002072 0.000000 0.000000 0.000000
# 3 -0.002072 -0.002072 0.015422 0.000000 0.000000 0.000000
# 4 0.000000 0.000000 0.000000 0.053763 0.000000 0.000000
# 5 0.000000 0.000000 0.000000 0.000000 0.053763 0.000000
# 6 0.000000 0.000000 0.000000 0.000000 0.000000 0.038033
#
#
# Mechanical properties :
#
#
# Convention : Reuss Voigt Hill
#
# Bulk Modulus (GPa) = 41.55232 43.35742 42.45487
# Shear Modulus (GPa) = 20.74453 22.41309 21.57881
#
# Velocity S-wave (km/s) = 3.23589 3.36351 3.30032
# Velocity P-wave (km/s) = 5.91060 6.08024 5.99602
#
# Compressibility (1/GPa) = 0.02406605
#
# Stress axis : x y z
#
# Youngs Moduli (GPa) = 49.58527 49.58526 64.84311
#
# Poissons Ratio (x) = 0.58019 0.13437
# Poissons Ratio (y) = 0.58019 0.13437
# Poissons Ratio (z) = 0.10275 0.10275
#
# Static dielectric constant tensor:
#      x y z
#    x 1.717710 0.000000 0.000000 
#    y 0.000000 1.717710 0.000000 
#    z 0.000000 0.000000 1.722370 
# 
# From -- ./inp_files/11531.got.cif
#   From: 2010.05.17/outbox.cif.g08.bks.cpg/sg140_6_cif.got.tgz:11531.got - 2010.06.21 00:45:31.
