data_PCOD9572417
_publ_section_title
;
Structure prediction by ZEFSAII (Michael W. Deem and Ramdas Pophale) SiO2 
 PCOD9572417
Probable space group: I 4/M C M
;
_chemical_formula_sum "Si O2"
_cell_formula_units_Z 192
_cell_length_a 21.581106
_cell_length_b 21.581106
_cell_length_c 25.849948
_cell_angle_alpha 90.000000
_cell_angle_beta 90.000000
_cell_angle_gamma 90.000000
_cell_volume 12039.461702
_symmetry_space_group_name_H-M "I 4/M C M"
_symmetry_group_IT_number 140
_symmetry_cell_setting 'tetragonal'
loop_
_space_group_symop_operation_xyz
x,y,z
-y,x,z
-x,-y,z
y,-x,z
x,-y,1/2-z
-x,y,1/2-z
y,x,1/2-z
-y,-x,1/2-z
-x,-y,-z
y,-x,-z
x,y,-z
-y,x,-z
-x,y,1/2+z
x,-y,1/2+z
-y,-x,1/2+z
y,x,1/2+z
1/2+x,1/2+y,1/2+z
1/2-y,1/2+x,1/2+z
1/2-x,1/2-y,1/2+z
1/2+y,1/2-x,1/2+z
1/2+x,1/2-y,-z
1/2-x,1/2+y,-z
1/2+y,1/2+x,-z
1/2-y,1/2-x,-z
1/2-x,1/2-y,1/2-z
1/2+y,1/2-x,1/2-z
1/2+x,1/2+y,1/2-z
1/2-y,1/2+x,1/2-z
1/2-x,1/2+y,z
1/2+x,1/2-y,z
1/2-y,1/2-x,z
1/2+y,1/2+x,z
loop_
_atom_site_type_symbol
_atom_site_label
_atom_site_fract_x
_atom_site_fract_y
_atom_site_fract_z
Si Si1 0.124157 0.526092 0.302667
Si Si2 0.916347 0.688702 0.941535
Si Si3 0.362687 0.756411 0.357826
Si Si4 0.340749 0.734264 0.137249
Si Si5 0.950866 0.349836 0.902957
Si Si6 0.116848 0.722981 0.741442
O O1 0.096542 0.500000 0.250000
O O2 0.079432 0.579432 0.324468
O O3 0.133234 0.473599 0.344868
O O4 0.187370 0.558468 0.283420
O O5 0.868726 0.631275 0.936059
O O6 0.894932 0.740114 0.899756
O O7 0.985655 0.663383 0.932798
O O8 0.909981 0.712685 0.000000
O O9 0.308257 0.808257 0.354463
O O10 0.329364 0.693872 0.376263
O O11 0.412036 0.786770 0.396272
O O12 0.389682 0.751440 0.299354
O O13 0.288409 0.788409 0.135016
O O14 0.361294 0.730232 0.197088
O O15 0.905135 0.405135 0.921305
O O16 0.169748 0.669748 0.744715
#
# Coordination Sequence:
#
# PCOD9572417 Si02
#       6
#    32  32  32  32  32  32
#     4  11  19  27  39  60  94 135 169 192 218 260
#     4  10  21  36  51  65  84 118 165 208 241 277
#     4   9  17  28  44  68  94 119 147 186 236 287
#     4   9  16  29  48  66  86 116 155 196 236 279
#     4  11  21  32  45  65  95 127 161 199 236 272
#     4   9  15  25  42  64  89 119 154 189 229 275
#
# _framework density 15.947556000000001
#
# number of rings (size 3 to 8) (size 9 to 14) (size 15 to 20)
#    0.000    2.167    3.333    1.500    0.000    4.500 
#    0.000    1.667    0.000    3.000    0.000    0.000 
#    0.000    0.667    0.000    1.500    5.667    0.167 
#
# Total GULP energy -534615.025201 kJ/mol
# GULP energy per Si atom -5568.906513 kJ/mol
# Density = 1.591126 g / cm^3
# Si number density = 15.947556 Si / 1000 Ang^3
#
#
#
# Elastic Constant Matrix: (Units=GPa)
#
#
# Indices 1 2 3 4 5 6 
#
# 1 39.0080 38.7112 7.8919 0.0000 0.0000 0.0000
# 2 38.7112 39.0080 7.8919 0.0000 0.0000 0.0000
# 3 7.8919 7.8919 46.4442 0.0000 0.0000 0.0000
# 4 0.0000 0.0000 0.0000 11.4395 0.0000 0.0000
# 5 0.0000 0.0000 0.0000 0.0000 11.4395 0.0000
# 6 0.0000 0.0000 0.0000 0.0000 0.0000 23.5737
#
#
#
# Elastic Compliance Matrix: (Units=1/GPa)
#
#
# Indices 1 2 3 4 5 6 
#
# 1 1.691454 -1.678127 -0.002264 0.000000 0.000000 0.000000
# 2 -1.678127 1.691454 -0.002265 0.000000 0.000000 0.000000
# 3 -0.002264 -0.002265 0.022301 0.000000 0.000000 0.000000
# 4 0.000000 0.000000 0.000000 0.087416 0.000000 0.000000
# 5 0.000000 0.000000 0.000000 0.000000 0.087417 0.000000
# 6 0.000000 0.000000 0.000000 0.000000 0.000000 0.042420
#
#
# Mechanical properties :
#
#
# Convention : Reuss Voigt Hill
#
# Bulk Modulus (GPa) = 25.06502 25.93890 25.50196
# Shear Modulus (GPa) = 0.71418 13.95487 7.33452
#
# Velocity S-wave (km/s) = 0.66993 2.96133 2.14689
# Velocity P-wave (km/s) = 4.04347 5.29085 4.70865
#
# Compressibility (1/GPa) = 0.03989623
#
# Stress axis : x y z
#
# Youngs Moduli (GPa) = 0.59121 0.59121 44.84141
#
# Poissons Ratio (x) = 0.99212 0.10154
# Poissons Ratio (y) = 0.99212 0.10155
# Poissons Ratio (z) = 0.00134 0.00134
#
# Static dielectric constant tensor:
#      x y z
#    x 1.554440 0.000000 0.000000 
#    y 0.000000 1.554440 0.000000 
#    z 0.000000 0.000000 1.560440 
# 
# From -- ./inp_files/10862.got.cif
#   From: 2010.05.17/outbox.cif.g08.bks.cpg/sg140_6_cif.got.tgz:10862.got - 2010.06.21 00:45:31.
