data_PCOD9572209
_publ_section_title
;
Structure prediction by ZEFSAII (Michael W. Deem and Ramdas Pophale) SiO2 
 PCOD9572209
Probable space group: I 4/M C M
;
_chemical_formula_sum "Si O2"
_cell_formula_units_Z 120
_cell_length_a 19.906896
_cell_length_b 19.906896
_cell_length_c 15.132987
_cell_angle_alpha 90.000000
_cell_angle_beta 90.000000
_cell_angle_gamma 90.000000
_cell_volume 5996.968313
_symmetry_space_group_name_H-M "I 4/M C M"
_symmetry_group_IT_number 140
_symmetry_cell_setting 'tetragonal'
loop_
_space_group_symop_operation_xyz
x,y,z
-y,x,z
-x,-y,z
y,-x,z
x,-y,1/2-z
-x,y,1/2-z
y,x,1/2-z
-y,-x,1/2-z
-x,-y,-z
y,-x,-z
x,y,-z
-y,x,-z
-x,y,1/2+z
x,-y,1/2+z
-y,-x,1/2+z
y,x,1/2+z
1/2+x,1/2+y,1/2+z
1/2-y,1/2+x,1/2+z
1/2-x,1/2-y,1/2+z
1/2+y,1/2-x,1/2+z
1/2+x,1/2-y,-z
1/2-x,1/2+y,-z
1/2+y,1/2+x,-z
1/2-y,1/2-x,-z
1/2-x,1/2-y,1/2-z
1/2+y,1/2-x,1/2-z
1/2+x,1/2+y,1/2-z
1/2-y,1/2+x,1/2-z
1/2-x,1/2+y,z
1/2+x,1/2-y,z
1/2-y,1/2-x,z
1/2+y,1/2+x,z
loop_
_atom_site_type_symbol
_atom_site_label
_atom_site_fract_x
_atom_site_fract_y
_atom_site_fract_z
Si Si1 0.192224 0.577193 0.398002
Si Si2 0.168595 0.814641 0.653345
Si Si3 0.233802 0.266199 0.500000
Si Si4 0.062384 0.910892 0.893303
Si Si5 0.112707 0.500000 0.750000
O O1 0.197289 0.553800 0.500000
O O2 0.141097 0.641097 0.398122
O O3 0.263243 0.607159 0.366693
O O4 0.159030 0.523300 0.331974
O O5 0.197198 0.802803 0.750000
O O6 0.221701 0.803179 0.576907
O O7 0.143964 0.891049 0.649669
O O8 0.984523 0.909949 0.869188
O O9 0.066696 0.905213 0.000000
O O10 0.062720 0.562720 0.771380
#
# Coordination Sequence:
#
# PCOD9572209 Si02
#       5
#    32  32   8  32  16
#     4  10  19  37  60  83 120 164 203 251 315 375
#     4  12  23  38  67  91 120 165 210 254 310 379
#     4  12  22  44  60  92 121 164 207 252 316 372
#     4   9  19  38  62  91 127 163 204 252 305 364
#     4   9  20  36  60  92 122 159 216 266 296 355
#
# _framework density 20.010110999999998
#
# number of rings (size 3 to 8) (size 9 to 14) (size 15 to 20)
#    0.000    1.733    4.000    1.200    0.000    3.733 
#    0.000    4.000    2.933    0.000    0.000    0.000 
#    0.000    0.000    0.000    0.000    0.000    0.000 
#
# Total GULP energy -334008.388653 kJ/mol
# GULP energy per Si atom -5566.806478 kJ/mol
# Density = 1.996457 g / cm^3
# Si number density = 20.010111 Si / 1000 Ang^3
#
#
#
# Elastic Constant Matrix: (Units=GPa)
#
#
# Indices 1 2 3 4 5 6 
#
# 1 40.5981 -13.5661 13.3233 0.0000 0.0000 0.0000
# 2 -13.5661 40.6026 13.3244 0.0000 0.0000 0.0000
# 3 13.3233 13.3244 145.5161 0.0000 0.0000 0.0000
# 4 0.0000 0.0000 0.0000 40.2792 0.0000 0.0000
# 5 0.0000 0.0000 0.0000 0.0000 40.2934 0.0000
# 6 0.0000 0.0000 0.0000 0.0000 0.0000 27.7944
#
#
#
# Elastic Compliance Matrix: (Units=1/GPa)
#
#
# Indices 1 2 3 4 5 6 
#
# 1 0.029562 0.011099 -0.003723 0.000000 0.000000 0.000000
# 2 0.011099 0.029559 -0.003723 0.000000 0.000000 0.000000
# 3 -0.003723 -0.003723 0.007554 0.000000 0.000000 0.000000
# 4 0.000000 0.000000 0.000000 0.024827 0.000000 0.000000
# 5 0.000000 0.000000 0.000000 0.000000 0.024818 0.000000
# 6 0.000000 0.000000 0.000000 0.000000 0.000000 0.035978
#
#
# Mechanical properties :
#
#
# Convention : Reuss Voigt Hill
#
# Bulk Modulus (GPa) = 13.51683 28.09775 20.80729
# Shear Modulus (GPa) = 29.47202 35.91576 32.69389
#
# Velocity S-wave (km/s) = 3.84194 4.24120 4.04650
# Velocity P-wave (km/s) = 5.14299 6.16895 5.67919
#
# Compressibility (1/GPa) = 0.07398182
#
# Stress axis : x y z
#
# Youngs Moduli (GPa) = 33.82687 33.83052 132.38280
#
# Poissons Ratio (x) = -0.37549 0.49286
# Poissons Ratio (y) = -0.37545 0.49284
# Poissons Ratio (z) = 0.12594 0.12595
#
# Static dielectric constant tensor:
#      x y z
#    x 1.701130 0.000000 0.000000 
#    y 0.000000 1.701130 0.000000 
#    z 0.000000 0.000000 1.621390 
# 
# From -- ./inp_files/4325.got.cif
#   From: 2010.05.17/outbox.cif.g08.bks.cpg/sg140_3_cif.got.tgz:4325.got - 2010.06.21 00:45:31.
