data_PCOD9572530
_publ_section_title
;
Structure prediction by ZEFSAII (Michael W. Deem and Ramdas Pophale) SiO2 
 PCOD9572530
Probable space group: I 4/M C M
;
_chemical_formula_sum "Si O2"
_cell_formula_units_Z 160
_cell_length_a 17.701644
_cell_length_b 17.701644
_cell_length_c 26.138206
_cell_angle_alpha 90.000000
_cell_angle_beta 90.000000
_cell_angle_gamma 90.000000
_cell_volume 8190.359809
_symmetry_space_group_name_H-M "I 4/M C M"
_symmetry_group_IT_number 140
_symmetry_cell_setting 'tetragonal'
loop_
_space_group_symop_operation_xyz
x,y,z
-y,x,z
-x,-y,z
y,-x,z
x,-y,1/2-z
-x,y,1/2-z
y,x,1/2-z
-y,-x,1/2-z
-x,-y,-z
y,-x,-z
x,y,-z
-y,x,-z
-x,y,1/2+z
x,-y,1/2+z
-y,-x,1/2+z
y,x,1/2+z
1/2+x,1/2+y,1/2+z
1/2-y,1/2+x,1/2+z
1/2-x,1/2-y,1/2+z
1/2+y,1/2-x,1/2+z
1/2+x,1/2-y,-z
1/2-x,1/2+y,-z
1/2+y,1/2+x,-z
1/2-y,1/2-x,-z
1/2-x,1/2-y,1/2-z
1/2+y,1/2-x,1/2-z
1/2+x,1/2+y,1/2-z
1/2-y,1/2+x,1/2-z
1/2-x,1/2+y,z
1/2+x,1/2-y,z
1/2-y,1/2-x,z
1/2+y,1/2+x,z
loop_
_atom_site_type_symbol
_atom_site_label
_atom_site_fract_x
_atom_site_fract_y
_atom_site_fract_z
Si Si1 0.443303 0.056698 0.614688
Si Si2 0.494944 0.627167 0.055971
Si Si3 0.211832 0.093001 0.367677
Si Si4 0.332093 0.167908 0.439590
Si Si5 0.343926 0.281352 0.196142
Si Si6 0.005429 0.321528 0.692567
O O1 0.394586 0.105415 0.575481
O O2 0.491971 0.113096 0.650980
O O3 0.500000 0.000000 0.587889
O O4 0.424463 0.568894 0.058009
O O5 0.480420 0.680968 0.103313
O O6 0.493659 0.665358 0.000000
O O7 0.257626 0.138932 0.410616
O O8 0.151678 0.149598 0.343468
O O9 0.265719 0.063856 0.322154
O O10 0.322954 0.177047 0.500000
O O11 0.320999 0.320999 0.250000
O O12 0.272696 0.227305 0.183261
O O13 0.417765 0.228180 0.193304
O O14 0.000000 0.352533 0.750000
#
# Coordination Sequence:
#
# PCOD9572530 Si02
#       6
#    16  32  32  16  32  32
#     4  10  24  39  59  89 116 158 204 250 308 358
#     4   9  18  33  55  80 106 142 190 244 296 347
#     4  11  20  37  56  85 114 154 197 239 297 362
#     4  10  22  39  60  86 115 150 202 252 296 358
#     4  11  22  36  57  82 120 159 196 244 295 357
#     4  11  23  36  57  87 121 157 203 244 301 357
#
# _framework density 19.535160999999999
#
# number of rings (size 3 to 8) (size 9 to 14) (size 15 to 20)
#    0.000    1.600    3.000    3.000    2.800    0.200 
#    0.000    0.000    0.000    1.200    0.000    0.000 
#    0.000    0.000    0.000    0.000    0.000    0.000 
#
# Total GULP energy -445981.296115 kJ/mol
# GULP energy per Si atom -5574.766201 kJ/mol
# Density = 1.949070 g / cm^3
# Si number density = 19.535161 Si / 1000 Ang^3
#
#
#
# Elastic Constant Matrix: (Units=GPa)
#
#
# Indices 1 2 3 4 5 6 
#
# 1 38.2595 14.4857 8.0596 0.0000 0.0000 0.0000
# 2 14.4857 38.2592 8.0590 0.0000 0.0000 0.0000
# 3 8.0596 8.0590 78.7220 0.0000 0.0000 0.0000
# 4 0.0000 0.0000 0.0000 17.6829 0.0000 0.0000
# 5 0.0000 0.0000 0.0000 0.0000 17.6831 0.0000
# 6 0.0000 0.0000 0.0000 0.0000 0.0000 41.8265
#
#
#
# Elastic Compliance Matrix: (Units=1/GPa)
#
#
# Indices 1 2 3 4 5 6 
#
# 1 0.030817 -0.011246 -0.002004 0.000000 0.000000 0.000000
# 2 -0.011246 0.030818 -0.002003 0.000000 0.000000 0.000000
# 3 -0.002004 -0.002003 0.013113 0.000000 0.000000 0.000000
# 4 0.000000 0.000000 0.000000 0.056552 0.000000 0.000000
# 5 0.000000 0.000000 0.000000 0.000000 0.056551 0.000000
# 6 0.000000 0.000000 0.000000 0.000000 0.000000 0.023908
#
#
# Mechanical properties :
#
#
# Convention : Reuss Voigt Hill
#
# Bulk Modulus (GPa) = 22.60324 24.04991 23.32657
# Shear Modulus (GPa) = 19.45427 23.74758 21.60092
#
# Velocity S-wave (km/s) = 3.15915 3.49038 3.32888
# Velocity P-wave (km/s) = 4.99025 5.34616 5.17127
#
# Compressibility (1/GPa) = 0.04424145
#
# Stress axis : x y z
#
# Youngs Moduli (GPa) = 32.44929 32.44910 76.25909
#
# Poissons Ratio (x) = 0.36492 0.15281
# Poissons Ratio (y) = 0.36492 0.15278
# Poissons Ratio (z) = 0.06502 0.06501
#
# Static dielectric constant tensor:
#      x y z
#    x 1.702060 0.000000 0.000000 
#    y 0.000000 1.702060 0.000000 
#    z 0.000000 0.000000 1.682050 
# 
# From -- ./inp_files/10598.got.cif
#   From: 2010.05.17/outbox.cif.g08.bks.cpg/sg140_6_cif.got.tgz:10598.got - 2010.06.21 00:45:31.
