data_PCOD9572292
_publ_section_title
;
Structure prediction by ZEFSAII (Michael W. Deem and Ramdas Pophale) SiO2 
 PCOD9572292
Probable space group: I 4/M C M
;
_chemical_formula_sum "Si O2"
_cell_formula_units_Z 160
_cell_length_a 21.568393
_cell_length_b 21.568393
_cell_length_c 15.184206
_cell_angle_alpha 90.000000
_cell_angle_beta 90.000000
_cell_angle_gamma 90.000000
_cell_volume 7063.625465
_symmetry_space_group_name_H-M "I 4/M C M"
_symmetry_group_IT_number 140
_symmetry_cell_setting 'tetragonal'
loop_
_space_group_symop_operation_xyz
x,y,z
-y,x,z
-x,-y,z
y,-x,z
x,-y,1/2-z
-x,y,1/2-z
y,x,1/2-z
-y,-x,1/2-z
-x,-y,-z
y,-x,-z
x,y,-z
-y,x,-z
-x,y,1/2+z
x,-y,1/2+z
-y,-x,1/2+z
y,x,1/2+z
1/2+x,1/2+y,1/2+z
1/2-y,1/2+x,1/2+z
1/2-x,1/2-y,1/2+z
1/2+y,1/2-x,1/2+z
1/2+x,1/2-y,-z
1/2-x,1/2+y,-z
1/2+y,1/2+x,-z
1/2-y,1/2-x,-z
1/2-x,1/2-y,1/2-z
1/2+y,1/2-x,1/2-z
1/2+x,1/2+y,1/2-z
1/2-y,1/2+x,1/2-z
1/2-x,1/2+y,z
1/2+x,1/2-y,z
1/2-y,1/2-x,z
1/2+y,1/2+x,z
loop_
_atom_site_type_symbol
_atom_site_label
_atom_site_fract_x
_atom_site_fract_y
_atom_site_fract_z
Si Si1 0.254611 0.969883 0.400857
Si Si2 0.773439 0.370743 0.243219
Si Si3 0.964512 0.371182 0.664434
Si Si4 0.699023 0.392964 0.402267
Si Si5 0.928005 0.070073 0.856195
O O1 0.242034 0.949724 0.500000
O O2 0.244123 0.915957 0.329900
O O3 0.327222 0.990264 0.391126
O O4 0.217529 0.034347 0.384627
O O5 0.812168 0.312168 0.208446
O O6 0.823180 0.414993 0.293498
O O7 0.726668 0.354257 0.321858
O O8 0.925597 0.425597 0.619152
O O9 0.000000 0.396366 0.750000
O O10 0.722853 0.377653 0.500000
O O11 0.625227 0.390005 0.399017
O O12 0.924355 0.075646 0.750000
O O13 0.998355 0.083728 0.880703
#
# Coordination Sequence:
#
# PCOD9572292 Si02
#       5
#    32  32  32  32  32
#     4   9  18  30  48  76 106 142 194 246 294 350
#     4   9  18  32  52  75 106 148 193 247 297 338
#     4   8  14  25  40  62  96 137 181 231 288 348
#     4  10  20  34  57  87 118 156 199 241 284 340
#     4   9  20  36  58  90 125 161 186 217 271 341
#
# _framework density 22.651257999999999
#
# number of rings (size 3 to 8) (size 9 to 14) (size 15 to 20)
#    0.000    3.000    0.000    2.400    5.600    2.200 
#    0.000    5.000    0.000    0.600    0.000    5.600 
#    0.000    0.000    0.000    0.000    0.000    0.000 
#
# Total GULP energy -446462.417676 kJ/mol
# GULP energy per Si atom -5580.780221 kJ/mol
# Density = 2.259970 g / cm^3
# Si number density = 22.651258 Si / 1000 Ang^3
#
#
#
# Elastic Constant Matrix: (Units=GPa)
#
#
# Indices 1 2 3 4 5 6 
#
# 1 39.0430 30.0872 24.3782 0.0000 0.0000 0.0000
# 2 30.0872 39.0426 24.3784 0.0000 0.0000 0.0000
# 3 24.3782 24.3784 88.2697 0.0000 0.0000 0.0000
# 4 0.0000 0.0000 0.0000 11.7055 0.0000 0.0000
# 5 0.0000 0.0000 0.0000 0.0000 11.7056 0.0000
# 6 0.0000 0.0000 0.0000 0.0000 0.0000 -4.7033
#
#
#
# Elastic Compliance Matrix: (Units=1/GPa)
#
#
# Indices 1 2 3 4 5 6 
#
# 1 0.064813 -0.046849 -0.004961 0.000000 0.000000 0.000000
# 2 -0.046849 0.064814 -0.004962 0.000000 0.000000 0.000000
# 3 -0.004961 -0.004962 0.014069 0.000000 0.000000 0.000000
# 4 0.000000 0.000000 0.000000 0.085430 0.000000 0.000000
# 5 0.000000 0.000000 0.000000 0.000000 0.085429 0.000000
# 6 0.000000 0.000000 0.000000 0.000000 0.000000 -0.212618
#
#
# Mechanical properties :
#
#
# Convention : Reuss Voigt Hill
#
# Bulk Modulus (GPa) = 33.16421 36.00479 34.58450
# Shear Modulus (GPa) = 22.16982 9.57566 15.87274
#
# Velocity S-wave (km/s) = 3.13189 2.05830 2.65003
# Velocity P-wave (km/s) = 5.26795 4.64528 4.96638
#
# Compressibility (1/GPa) = 0.03015299
#
# Stress axis : x y z
#
# Youngs Moduli (GPa) = 15.42900 15.42878 71.07596
#
# Poissons Ratio (x) = 0.72282 0.35263
# Poissons Ratio (y) = 0.72283 0.35266
# Poissons Ratio (z) = 0.07655 0.07655
#
# Static dielectric constant tensor:
#      x y z
#    x 1.875880 0.000000 0.000000 
#    y 0.000000 1.875880 0.000000 
#    z 0.000000 0.000000 1.846830 
# 
# From -- ./inp_files/4715.got.cif
#   From: 2010.05.17/outbox.cif.g08.bks.cpg/sg140_3_cif.got.tgz:4715.got - 2010.06.21 00:45:31.
