data_PCOD9572747
_publ_section_title
;
Structure prediction by ZEFSAII (Michael W. Deem and Ramdas Pophale) SiO2 
 PCOD9572747
Probable space group: I 41/A M D
;
_chemical_formula_sum "Si O2"
_cell_formula_units_Z 176
_cell_length_a 27.340775
_cell_length_b 27.340775
_cell_length_c 11.654342
_cell_angle_alpha 90.000000
_cell_angle_beta 90.000000
_cell_angle_gamma 90.000000
_cell_volume 8711.830162
_symmetry_space_group_name_H-M "I 41/A M D"
_symmetry_group_IT_number 141
_space_group.IT_coordinate_system_code '2'
_symmetry_cell_setting 'tetragonal'
loop_
_space_group_symop_operation_xyz
x,y,z
1/4-y,3/4+x,1/4+z
-x,1/2-y,z
1/4+y,1/4-x,3/4+z
x,-y,-z
-x,1/2+y,-z
1/4+y,3/4+x,1/4-z
1/4-y,1/4-x,3/4-z
-x,-y,-z
3/4+y,1/4-x,3/4-z
x,1/2+y,-z
3/4-y,3/4+x,1/4-z
-x,y,z
x,1/2-y,z
3/4-y,1/4-x,3/4+z
3/4+y,3/4+x,1/4+z
1/2+x,1/2+y,1/2+z
3/4-y,1/4+x,3/4+z
1/2-x,-y,1/2+z
3/4+y,3/4-x,1/4+z
1/2+x,1/2-y,1/2-z
1/2-x,y,1/2-z
3/4+y,1/4+x,3/4-z
3/4-y,3/4-x,1/4-z
1/2-x,1/2-y,1/2-z
1/4+y,3/4-x,1/4-z
1/2+x,y,1/2-z
1/4-y,1/4+x,3/4-z
1/2-x,1/2+y,1/2+z
1/2+x,-y,1/2+z
1/4-y,3/4-x,1/4+z
1/4+y,1/4+x,3/4+z
loop_
_atom_site_type_symbol
_atom_site_label
_atom_site_fract_x
_atom_site_fract_y
_atom_site_fract_z
Si Si1 0.946232 0.922196 0.094482
Si Si2 0.750000 0.874648 0.250000
Si Si3 0.627703 0.807091 0.580383
Si Si4 0.798834 0.104433 0.526408
Si Si5 0.377107 0.532336 0.091260
Si Si6 0.133337 0.694100 0.415717
O O1 0.937757 0.881219 0.191275
O O2 0.000000 0.943476 0.120534
O O3 0.946791 0.901470 0.966250
O O4 0.907858 0.965830 0.083158
O O5 0.782967 0.902697 0.340227
O O6 0.631337 0.750000 0.606723
O O7 0.674853 0.838672 0.613866
O O8 0.582384 0.831219 0.647555
O O9 0.752371 0.107869 0.443361
O O10 0.835307 0.058865 0.514070
O O11 0.830147 0.155402 0.522327
O O12 0.406212 0.500000 0.000000
O O13 0.132472 0.750000 0.460448
#
# Coordination Sequence:
#
# PCOD9572747 Si02
#       6
#    32  16  32  32  32  32
#     4   9  16  28  50  79 113 149 188 231 279 334
#     4  10  17  32  54  82 114 144 186 232 277 336
#     4  10  20  34  56  83 115 152 191 239 289 341
#     4  10  22  38  59  84 114 151 189 238 289 343
#     4  11  23  42  58  80 115 151 196 241 287 345
#     4   9  19  34  56  85 116 151 188 233 294 354
#
# _framework density 20.202413
#
# number of rings (size 3 to 8) (size 9 to 14) (size 15 to 20)
#    0.000    2.182    1.818    1.364    0.000    2.909 
#    4.909    0.000    0.000    3.273    0.000    0.000 
#    0.000    5.818    0.000    0.000    0.000    0.182 
#
# Total GULP energy -490037.599731 kJ/mol
# GULP energy per Si atom -5568.609088 kJ/mol
# Density = 2.015643 g / cm^3
# Si number density = 20.202413 Si / 1000 Ang^3
#
#
#
# Elastic Constant Matrix: (Units=GPa)
#
#
# Indices 1 2 3 4 5 6 
#
# 1 94.7321 43.6444 18.3343 0.0000 0.0000 0.0000
# 2 43.6444 94.7321 18.3343 0.0000 0.0000 0.0000
# 3 18.3343 18.3343 31.7912 0.0000 0.0000 0.0000
# 4 0.0000 0.0000 0.0000 -75.9948 0.0000 0.0000
# 5 0.0000 0.0000 0.0000 0.0000 -75.9948 0.0000
# 6 0.0000 0.0000 0.0000 0.0000 0.0000 0.2179
#
#
#
# Elastic Compliance Matrix: (Units=1/GPa)
#
#
# Indices 1 2 3 4 5 6 
#
# 1 0.014052 -0.005522 -0.004919 0.000000 0.000000 0.000000
# 2 -0.005522 0.014052 -0.004919 0.000000 0.000000 0.000000
# 3 -0.004919 -0.004919 0.037129 0.000000 0.000000 0.000000
# 4 0.000000 0.000000 0.000000 -0.013159 0.000000 0.000000
# 5 0.000000 0.000000 0.000000 0.000000 -0.013159 0.000000
# 6 0.000000 0.000000 0.000000 0.000000 0.000000 4.588263
#
#
# Mechanical properties :
#
#
# Convention : Reuss Voigt Hill
#
# Bulk Modulus (GPa) = 28.97541 42.43129 35.70335
# Shear Modulus (GPa) = 1.07080 -20.95815 -9.94368
#
# Velocity S-wave (km/s) = 0.72883 -3.22438 -2.22097
# Velocity P-wave (km/s) = 3.88355 2.68077 3.33680
#
# Compressibility (1/GPa) = 0.03451202
#
# Stress axis : x y z
#
# Youngs Moduli (GPa) = 71.16304 71.16304 26.93280
#
# Poissons Ratio (x) = 0.39296 0.13250
# Poissons Ratio (y) = 0.39296 0.13250
# Poissons Ratio (z) = 0.35009 0.35009
#
# Static dielectric constant tensor:
#      x y z
#    x 1.747500 0.000000 0.000000 
#    y 0.000000 1.747500 0.000000 
#    z 0.000000 0.000000 1.724440 
# 
# From -- ./inp_files/5017.got.cif
#   From: 2010.05.17/outbox.cif.g08.bks.cpg/sg141_3_cif.got.tgz:5017.got - 2010.05.20 13:30:51.
