data_PCOD9572240
_publ_section_title
;
Structure prediction by ZEFSAII (Michael W. Deem and Ramdas Pophale) SiO2 
 PCOD9572240
Probable space group: I 4/M C M
;
_chemical_formula_sum "Si O2"
_cell_formula_units_Z 160
_cell_length_a 22.572360
_cell_length_b 22.572360
_cell_length_c 17.302858
_cell_angle_alpha 90.000000
_cell_angle_beta 90.000000
_cell_angle_gamma 90.000000
_cell_volume 8816.004026
_symmetry_space_group_name_H-M "I 4/M C M"
_symmetry_group_IT_number 140
_symmetry_cell_setting 'tetragonal'
loop_
_space_group_symop_operation_xyz
x,y,z
-y,x,z
-x,-y,z
y,-x,z
x,-y,1/2-z
-x,y,1/2-z
y,x,1/2-z
-y,-x,1/2-z
-x,-y,-z
y,-x,-z
x,y,-z
-y,x,-z
-x,y,1/2+z
x,-y,1/2+z
-y,-x,1/2+z
y,x,1/2+z
1/2+x,1/2+y,1/2+z
1/2-y,1/2+x,1/2+z
1/2-x,1/2-y,1/2+z
1/2+y,1/2-x,1/2+z
1/2+x,1/2-y,-z
1/2-x,1/2+y,-z
1/2+y,1/2+x,-z
1/2-y,1/2-x,-z
1/2-x,1/2-y,1/2-z
1/2+y,1/2-x,1/2-z
1/2+x,1/2+y,1/2-z
1/2-y,1/2+x,1/2-z
1/2-x,1/2+y,z
1/2+x,1/2-y,z
1/2-y,1/2-x,z
1/2+y,1/2+x,z
loop_
_atom_site_type_symbol
_atom_site_label
_atom_site_fract_x
_atom_site_fract_y
_atom_site_fract_z
Si Si1 0.143059 0.221680 0.196597
Si Si2 0.858163 0.358163 0.092807
Si Si3 0.172317 0.945131 0.411723
Si Si4 0.256032 0.756032 0.591045
Si Si5 0.439640 0.786375 0.699161
Si Si6 0.654570 0.574645 0.913705
O O1 0.170556 0.170556 0.250000
O O2 0.194684 0.228784 0.133588
O O3 0.118622 0.275902 0.246648
O O4 0.085087 0.202331 0.151282
O O5 0.806596 0.306596 0.101253
O O6 0.834771 0.417251 0.136598
O O7 0.865973 0.365973 0.000000
O O8 0.196431 0.938451 0.500000
O O9 0.225056 0.945087 0.350076
O O10 0.124149 0.894453 0.400252
O O11 0.136657 0.006745 0.408951
O O12 0.248230 0.748230 0.500000
O O13 0.500000 0.797124 0.750000
O O14 0.678743 0.584097 0.000000
#
# Coordination Sequence:
#
# PCOD9572240 Si02
#       6
#    32  16  32  16  32  32
#     4  12  20  33  55  81 115 151 192 238 295 348
#     4  11  23  41  63  90 124 158 192 233 293 367
#     4  10  20  34  51  76 110 156 202 245 291 340
#     4  11  22  36  56  86 120 154 188 234 302 371
#     4  12  23  37  60  87 116 151 195 243 294 354
#     4  10  20  33  49  71 108 155 202 246 291 340
#
# _framework density 18.148812
#
# number of rings (size 3 to 8) (size 9 to 14) (size 15 to 20)
#    0.000    1.000    6.000    2.100    0.000    3.600 
#    0.000    2.000    0.000    0.300    0.000    0.700 
#    0.000    0.000    0.000    0.000    0.000    0.000 
#
# Total GULP energy -445564.512594 kJ/mol
# GULP energy per Si atom -5569.556407 kJ/mol
# Density = 1.810750 g / cm^3
# Si number density = 18.148812 Si / 1000 Ang^3
#
#
#
# Elastic Constant Matrix: (Units=GPa)
#
#
# Indices 1 2 3 4 5 6 
#
# 1 57.9719 21.6090 42.0220 0.0000 0.0000 0.0000
# 2 21.6090 57.9719 42.0220 0.0000 0.0000 0.0000
# 3 42.0220 42.0220 122.3329 0.0000 0.0000 0.0000
# 4 0.0000 0.0000 0.0000 50.3438 0.0000 0.0000
# 5 0.0000 0.0000 0.0000 0.0000 50.3438 0.0000
# 6 0.0000 0.0000 0.0000 0.0000 0.0000 11.9657
#
#
#
# Elastic Compliance Matrix: (Units=1/GPa)
#
#
# Indices 1 2 3 4 5 6 
#
# 1 0.023610 -0.003891 -0.006774 0.000000 0.000000 0.000000
# 2 -0.003891 0.023610 -0.006774 0.000000 0.000000 0.000000
# 3 -0.006774 -0.006774 0.012828 0.000000 0.000000 0.000000
# 4 0.000000 0.000000 0.000000 0.019863 0.000000 0.000000
# 5 0.000000 0.000000 0.000000 0.000000 0.019863 0.000000
# 6 0.000000 0.000000 0.000000 0.000000 0.000000 0.083572
#
#
# Mechanical properties :
#
#
# Convention : Reuss Voigt Hill
#
# Bulk Modulus (GPa) = 39.72668 49.95364 44.84016
# Shear Modulus (GPa) = 22.06397 31.37223 26.71810
#
# Velocity S-wave (km/s) = 3.49051 4.16217 3.84105
# Velocity P-wave (km/s) = 6.17914 7.11916 6.66574
#
# Compressibility (1/GPa) = 0.02517200
#
# Stress axis : x y z
#
# Youngs Moduli (GPa) = 42.35497 42.35497 77.95424
#
# Poissons Ratio (x) = 0.16478 0.52804
# Poissons Ratio (y) = 0.16478 0.52804
# Poissons Ratio (z) = 0.28690 0.28690
#
# Static dielectric constant tensor:
#      x y z
#    x 1.579550 0.000000 0.000000 
#    y 0.000000 1.579550 0.000000 
#    z 0.000000 0.000000 1.684940 
# 
# From -- ./inp_files/4841.got.cif
#   From: 2010.05.17/outbox.cif.g08.bks.cpg/sg140_3_cif.got.tgz:4841.got - 2010.06.21 00:45:31.
