data_PCOD9572302
_publ_section_title
;
Structure prediction by ZEFSAII (Michael W. Deem and Ramdas Pophale) SiO2 
 PCOD9572302
Probable space group: I 4/M C M
;
_chemical_formula_sum "Si O2"
_cell_formula_units_Z 192
_cell_length_a 26.612406
_cell_length_b 26.612406
_cell_length_c 14.946811
_cell_angle_alpha 90.000000
_cell_angle_beta 90.000000
_cell_angle_gamma 90.000000
_cell_volume 10585.632775
_symmetry_space_group_name_H-M "I 4/M C M"
_symmetry_group_IT_number 140
_symmetry_cell_setting 'tetragonal'
loop_
_space_group_symop_operation_xyz
x,y,z
-y,x,z
-x,-y,z
y,-x,z
x,-y,1/2-z
-x,y,1/2-z
y,x,1/2-z
-y,-x,1/2-z
-x,-y,-z
y,-x,-z
x,y,-z
-y,x,-z
-x,y,1/2+z
x,-y,1/2+z
-y,-x,1/2+z
y,x,1/2+z
1/2+x,1/2+y,1/2+z
1/2-y,1/2+x,1/2+z
1/2-x,1/2-y,1/2+z
1/2+y,1/2-x,1/2+z
1/2+x,1/2-y,-z
1/2-x,1/2+y,-z
1/2+y,1/2+x,-z
1/2-y,1/2-x,-z
1/2-x,1/2-y,1/2-z
1/2+y,1/2-x,1/2-z
1/2+x,1/2+y,1/2-z
1/2-y,1/2+x,1/2-z
1/2-x,1/2+y,z
1/2+x,1/2-y,z
1/2-y,1/2-x,z
1/2+y,1/2+x,z
loop_
_atom_site_type_symbol
_atom_site_label
_atom_site_fract_x
_atom_site_fract_y
_atom_site_fract_z
Si Si1 0.355457 0.144544 0.105152
Si Si2 0.193028 0.849019 0.663311
Si Si3 0.269149 0.230852 0.101115
Si Si4 0.650376 0.482990 0.346936
Si Si5 0.531394 0.238915 0.895584
Si Si6 0.426376 0.782303 0.296459
Si Si7 0.588824 0.605000 0.902899
O O1 0.312210 0.187791 0.102524
O O2 0.400755 0.168344 0.161601
O O3 0.366736 0.133265 0.000000
O O4 0.160545 0.839456 0.750000
O O5 0.220163 0.796302 0.640609
O O6 0.236517 0.888830 0.683089
O O7 0.153551 0.874866 0.597626
O O8 0.256600 0.243401 0.000000
O O9 0.669289 0.500000 0.250000
O O10 0.700380 0.464088 0.396259
O O11 0.610754 0.437927 0.338923
O O12 0.624675 0.532762 0.386137
O O13 0.564627 0.217857 0.811457
O O14 0.475961 0.227169 0.856188
O O15 0.538321 0.221886 0.000000
O O16 0.590990 0.580202 0.000000
#
# Coordination Sequence:
#
# PCOD9572302 Si02
#       7
#    16  32  16  32  32  32  32
#     4   9  18  33  56  84 112 146 185 232 283 336
#     4  11  20  34  54  75 105 140 176 230 292 346
#     4   9  19  33  51  76 103 133 178 225 279 345
#     4  12  23  40  55  77 104 141 186 240 300 356
#     4  11  20  35  57  81 111 149 190 234 286 344
#     4  10  20  35  55  82 113 145 190 235 281 342
#     4  12  24  37  56  77 101 136 185 239 294 357
#
# _framework density 18.137791
#
# number of rings (size 3 to 8) (size 9 to 14) (size 15 to 20)
#    0.000    1.167    3.333    5.250    0.000    1.667 
#    0.000    2.917    0.000    0.000    0.000    0.000 
#    0.000    5.333    0.000   19.333    0.000    0.333 
#
# Total GULP energy -534973.240117 kJ/mol
# GULP energy per Si atom -5572.637918 kJ/mol
# Density = 1.809651 g / cm^3
# Si number density = 18.137791 Si / 1000 Ang^3
#
#
#
# Elastic Constant Matrix: (Units=GPa)
#
#
# Indices 1 2 3 4 5 6 
#
# 1 68.9534 35.1141 25.6708 0.0000 0.0000 0.0000
# 2 35.1141 68.9513 25.6703 0.0000 0.0000 0.0000
# 3 25.6708 25.6703 134.7862 0.0000 0.0000 0.0000
# 4 0.0000 0.0000 0.0000 -91.1865 0.0000 0.0000
# 5 0.0000 0.0000 0.0000 0.0000 -90.8822 0.0000
# 6 0.0000 0.0000 0.0000 0.0000 0.0000 32.8921
#
#
#
# Elastic Compliance Matrix: (Units=1/GPa)
#
#
# Indices 1 2 3 4 5 6 
#
# 1 0.020079 -0.009473 -0.002020 0.000000 0.000000 0.000000
# 2 -0.009473 0.020079 -0.002020 0.000000 0.000000 0.000000
# 3 -0.002020 -0.002020 0.008189 0.000000 0.000000 0.000000
# 4 0.000000 0.000000 0.000000 -0.010967 0.000000 0.000000
# 5 0.000000 0.000000 0.000000 0.000000 -0.011003 0.000000
# 6 0.000000 0.000000 0.000000 0.000000 0.000000 0.030402
#
#
# Mechanical properties :
#
#
# Convention : Reuss Voigt Hill
#
# Bulk Modulus (GPa) = 46.90331 49.51125 48.20728
# Shear Modulus (GPa) = 54.99806 -17.41959 18.78924
#
# Velocity S-wave (km/s) = 5.51255 -3.10240 3.22206
# Velocity P-wave (km/s) = 8.15065 3.81095 6.36225
#
# Compressibility (1/GPa) = 0.02132046
#
# Stress axis : x y z
#
# Youngs Moduli (GPa) = 49.80392 49.80238 122.12162
#
# Poissons Ratio (x) = 0.47179 0.24667
# Poissons Ratio (y) = 0.47181 0.24668
# Poissons Ratio (z) = 0.10060 0.10060
#
# Static dielectric constant tensor:
#      x y z
#    x 1.788330 0.000000 0.000000 
#    y 0.000000 1.786090 0.000000 
#    z 0.000000 0.000000 1.588920 
# 
# From -- ./inp_files/5208.got.cif
#   From: 2010.05.17/outbox.cif.g08.bks.cpg/sg140_3_cif.got.tgz:5208.got - 2010.06.21 00:45:31.
