data_PCOD9572063
_publ_section_title
;
Structure prediction by ZEFSAII (Michael W. Deem and Ramdas Pophale) SiO2 
 PCOD9572063
Probable space group: I 4/M C M
;
_chemical_formula_sum "Si O2"
_cell_formula_units_Z 160
_cell_length_a 22.184217
_cell_length_b 22.184217
_cell_length_c 18.286465
_cell_angle_alpha 90.000000
_cell_angle_beta 90.000000
_cell_angle_gamma 90.000000
_cell_volume 8999.491448
_symmetry_space_group_name_H-M "I 4/M C M"
_symmetry_group_IT_number 140
_symmetry_cell_setting 'tetragonal'
loop_
_space_group_symop_operation_xyz
x,y,z
-y,x,z
-x,-y,z
y,-x,z
x,-y,1/2-z
-x,y,1/2-z
y,x,1/2-z
-y,-x,1/2-z
-x,-y,-z
y,-x,-z
x,y,-z
-y,x,-z
-x,y,1/2+z
x,-y,1/2+z
-y,-x,1/2+z
y,x,1/2+z
1/2+x,1/2+y,1/2+z
1/2-y,1/2+x,1/2+z
1/2-x,1/2-y,1/2+z
1/2+y,1/2-x,1/2+z
1/2+x,1/2-y,-z
1/2-x,1/2+y,-z
1/2+y,1/2+x,-z
1/2-y,1/2-x,-z
1/2-x,1/2-y,1/2-z
1/2+y,1/2-x,1/2-z
1/2+x,1/2+y,1/2-z
1/2-y,1/2+x,1/2-z
1/2-x,1/2+y,z
1/2+x,1/2-y,z
1/2-y,1/2-x,z
1/2+y,1/2+x,z
loop_
_atom_site_type_symbol
_atom_site_label
_atom_site_fract_x
_atom_site_fract_y
_atom_site_fract_z
Si Si1 0.750903 0.849763 0.586871
Si Si2 0.567189 0.833450 0.915011
Si Si3 0.038034 0.629507 0.313400
Si Si4 0.067873 0.755906 0.278341
Si Si5 0.243221 0.158758 0.840871
O O1 0.752413 0.862038 0.500000
O O2 0.688511 0.811490 0.601837
O O3 0.761485 0.908431 0.638193
O O4 0.804215 0.804259 0.611155
O O5 0.605618 0.894383 0.903389
O O6 0.506077 0.839315 0.870339
O O7 0.610403 0.779580 0.889420
O O8 0.554249 0.827031 0.000000
O O9 0.084348 0.584348 0.349142
O O10 0.070952 0.683202 0.269820
O O11 0.000000 0.597728 0.250000
O O12 0.119174 0.782483 0.225662
O O13 0.000000 0.772781 0.250000
O O14 0.291678 0.208323 0.812991
#
# Coordination Sequence:
#
# PCOD9572063 Si02
#       5
#    32  32  32  32  32
#     4  10  21  36  57  85 113 144 189 245 299 349
#     4  10  20  33  49  70  98 137 189 241 285 328
#     4  11  21  33  48  68 100 145 193 234 273 318
#     4  11  21  35  53  78 110 149 189 228 277 345
#     4  10  18  35  58  79 106 145 193 242 289 343
#
# _framework density 17.778782
#
# number of rings (size 3 to 8) (size 9 to 14) (size 15 to 20)
#    0.000    1.600    4.000    3.600    0.000    6.600 
#    0.000    1.000    0.000    0.000    0.000    0.000 
#    0.000    6.400    0.000    7.200    0.000    0.000 
#
# Total GULP energy -445760.255347 kJ/mol
# GULP energy per Si atom -5572.003192 kJ/mol
# Density = 1.773832 g / cm^3
# Si number density = 17.778782 Si / 1000 Ang^3
#
#
#
# Elastic Constant Matrix: (Units=GPa)
#
#
# Indices 1 2 3 4 5 6 
#
# 1 75.6097 32.2930 37.4644 0.0000 0.0000 0.0000
# 2 32.2930 75.6097 37.4644 0.0000 0.0000 0.0000
# 3 37.4644 37.4644 95.2295 0.0000 0.0000 0.0000
# 4 0.0000 0.0000 0.0000 23.8125 0.0000 0.0000
# 5 0.0000 0.0000 0.0000 0.0000 23.8125 0.0000
# 6 0.0000 0.0000 0.0000 0.0000 0.0000 13.9291
#
#
#
# Elastic Compliance Matrix: (Units=1/GPa)
#
#
# Indices 1 2 3 4 5 6 
#
# 1 0.017918 -0.005167 -0.005016 0.000000 0.000000 0.000000
# 2 -0.005167 0.017918 -0.005016 0.000000 0.000000 0.000000
# 3 -0.005016 -0.005016 0.014448 0.000000 0.000000 0.000000
# 4 0.000000 0.000000 0.000000 0.041995 0.000000 0.000000
# 5 0.000000 0.000000 0.000000 0.000000 0.041995 0.000000
# 6 0.000000 0.000000 0.000000 0.000000 0.000000 0.071792
#
#
# Mechanical properties :
#
#
# Convention : Reuss Voigt Hill
#
# Bulk Modulus (GPa) = 50.29061 51.21031 50.75046
# Shear Modulus (GPa) = 20.56807 21.59262 21.08035
#
# Velocity S-wave (km/s) = 3.40500 3.48877 3.44714
# Velocity P-wave (km/s) = 6.61868 6.71531 6.66717
#
# Compressibility (1/GPa) = 0.01988443
#
# Stress axis : x y z
#
# Youngs Moduli (GPa) = 55.80841 55.80841 69.21380
#
# Poissons Ratio (x) = 0.28838 0.34721
# Poissons Ratio (y) = 0.28838 0.34721
# Poissons Ratio (z) = 0.27996 0.27996
#
# Static dielectric constant tensor:
#      x y z
#    x 1.641530 0.000000 0.000000 
#    y 0.000000 1.641530 0.000000 
#    z 0.000000 0.000000 1.671580 
# 
# From -- ./inp_files/6880.got.cif
#   From: 2010.05.17/outbox.cif.g08.bks.cpg/sg140_4_cif.got.tgz:6880.got - 2010.06.21 00:45:31.
