data_PCOD9572419
_publ_section_title
;
Structure prediction by ZEFSAII (Michael W. Deem and Ramdas Pophale) SiO2 
 PCOD9572419
Probable space group: I 4/M C M
;
_chemical_formula_sum "Si O2"
_cell_formula_units_Z 192
_cell_length_a 20.806514
_cell_length_b 20.806514
_cell_length_c 23.504848
_cell_angle_alpha 90.000000
_cell_angle_beta 90.000000
_cell_angle_gamma 90.000000
_cell_volume 10175.507836
_symmetry_space_group_name_H-M "I 4/M C M"
_symmetry_group_IT_number 140
_symmetry_cell_setting 'tetragonal'
loop_
_space_group_symop_operation_xyz
x,y,z
-y,x,z
-x,-y,z
y,-x,z
x,-y,1/2-z
-x,y,1/2-z
y,x,1/2-z
-y,-x,1/2-z
-x,-y,-z
y,-x,-z
x,y,-z
-y,x,-z
-x,y,1/2+z
x,-y,1/2+z
-y,-x,1/2+z
y,x,1/2+z
1/2+x,1/2+y,1/2+z
1/2-y,1/2+x,1/2+z
1/2-x,1/2-y,1/2+z
1/2+y,1/2-x,1/2+z
1/2+x,1/2-y,-z
1/2-x,1/2+y,-z
1/2+y,1/2+x,-z
1/2-y,1/2-x,-z
1/2-x,1/2-y,1/2-z
1/2+y,1/2-x,1/2-z
1/2+x,1/2+y,1/2-z
1/2-y,1/2+x,1/2-z
1/2-x,1/2+y,z
1/2+x,1/2-y,z
1/2-y,1/2-x,z
1/2+y,1/2+x,z
loop_
_atom_site_type_symbol
_atom_site_label
_atom_site_fract_x
_atom_site_fract_y
_atom_site_fract_z
Si Si1 0.703191 0.590561 0.375345
Si Si2 0.080147 0.072129 0.187119
Si Si3 0.144712 0.538309 0.668238
Si Si4 0.320573 0.280962 0.568038
Si Si5 0.191011 0.410961 0.718486
Si Si6 0.964124 0.259635 0.432241
O O1 0.628502 0.595956 0.359750
O O2 0.715813 0.657373 0.406823
O O3 0.743710 0.585022 0.316933
O O4 0.720757 0.527284 0.411598
O O5 0.097217 0.097217 0.250000
O O6 0.005033 0.086637 0.182869
O O7 0.079086 0.579086 0.670496
O O8 0.144275 0.465277 0.690761
O O9 0.192578 0.571954 0.714651
O O10 0.176014 0.537901 0.606045
O O11 0.316223 0.285128 0.500000
O O12 0.283597 0.216404 0.586946
O O13 0.396464 0.275384 0.580695
O O14 0.157578 0.342423 0.711725
O O15 0.967344 0.271214 0.500000
#
# Coordination Sequence:
#
# PCOD9572419 Si02
#       6
#    32  32  32  32  32  32
#     4  11  20  33  55  78 104 136 173 215 262 312
#     4   9  19  34  51  74 104 136 169 204 248 306
#     4   9  18  33  53  75 101 135 174 215 262 317
#     4  10  21  36  53  74 102 137 176 216 260 312
#     4   9  19  33  50  77 107 133 166 211 263 318
#     4  10  21  36  54  77 105 139 180 223 264 308
#
# _framework density 18.868836999999999
#
# number of rings (size 3 to 8) (size 9 to 14) (size 15 to 20)
#    0.000    2.333    0.000    3.000    0.000    8.000 
#    0.000    1.667    0.000    8.500    0.000   11.667 
#    0.000    0.000    0.000    0.000    0.000    0.000 
#
# Total GULP energy -534783.890846 kJ/mol
# GULP energy per Si atom -5570.665530 kJ/mol
# Density = 1.882589 g / cm^3
# Si number density = 18.868837 Si / 1000 Ang^3
#
#
#
# Elastic Constant Matrix: (Units=GPa)
#
#
# Indices 1 2 3 4 5 6 
#
# 1 57.7804 10.8395 28.5683 0.0000 0.0000 0.0000
# 2 10.8395 57.7804 28.5683 0.0000 0.0000 0.0000
# 3 28.5683 28.5683 82.9203 0.0000 0.0000 0.0000
# 4 0.0000 0.0000 0.0000 19.7651 0.0000 0.0000
# 5 0.0000 0.0000 0.0000 0.0000 19.7651 0.0000
# 6 0.0000 0.0000 0.0000 0.0000 0.0000 -554.8768
#
#
#
# Elastic Compliance Matrix: (Units=1/GPa)
#
#
# Indices 1 2 3 4 5 6 
#
# 1 0.020869 -0.000434 -0.007041 0.000000 0.000000 0.000000
# 2 -0.000434 0.020869 -0.007041 0.000000 0.000000 0.000000
# 3 -0.007041 -0.007041 0.016911 0.000000 0.000000 0.000000
# 4 0.000000 0.000000 0.000000 0.050594 0.000000 0.000000
# 5 0.000000 0.000000 0.000000 0.000000 0.050594 0.000000
# 6 0.000000 0.000000 0.000000 0.000000 0.000000 -0.001802
#
#
# Mechanical properties :
#
#
# Convention : Reuss Voigt Hill
#
# Bulk Modulus (GPa) = 33.76140 37.15927 35.46033
# Shear Modulus (GPa) = 25.38853 -94.36897 -34.49022
#
# Velocity S-wave (km/s) = 3.67212 -7.07967 -4.28003
# Velocity P-wave (km/s) = 5.99256 6.86241 2.36452
#
# Compressibility (1/GPa) = 0.02961963
#
# Stress axis : x y z
#
# Youngs Moduli (GPa) = 47.91716 47.91716 59.13283
#
# Poissons Ratio (x) = 0.02080 0.41633
# Poissons Ratio (y) = 0.02080 0.41633
# Poissons Ratio (z) = 0.33736 0.33736
#
# Static dielectric constant tensor:
#      x y z
#    x 1.654970 0.000000 0.000000 
#    y 0.000000 1.654970 0.000000 
#    z 0.000000 0.000000 1.652080 
# 
# From -- ./inp_files/9770.got.cif
#   From: 2010.05.17/outbox.cif.g08.bks.cpg/sg140_5_cif.got.tgz:9770.got - 2010.06.21 00:45:31.
