data_PCOD9572299
_publ_section_title
;
Structure prediction by ZEFSAII (Michael W. Deem and Ramdas Pophale) SiO2 
 PCOD9572299
Probable space group: I 4/M C M
;
_chemical_formula_sum "Si O2"
_cell_formula_units_Z 144
_cell_length_a 28.650558
_cell_length_b 28.650558
_cell_length_c 9.335663
_cell_angle_alpha 90.000000
_cell_angle_beta 90.000000
_cell_angle_gamma 90.000000
_cell_volume 7663.220739
_symmetry_space_group_name_H-M "I 4/M C M"
_symmetry_group_IT_number 140
_symmetry_cell_setting 'tetragonal'
loop_
_space_group_symop_operation_xyz
x,y,z
-y,x,z
-x,-y,z
y,-x,z
x,-y,1/2-z
-x,y,1/2-z
y,x,1/2-z
-y,-x,1/2-z
-x,-y,-z
y,-x,-z
x,y,-z
-y,x,-z
-x,y,1/2+z
x,-y,1/2+z
-y,-x,1/2+z
y,x,1/2+z
1/2+x,1/2+y,1/2+z
1/2-y,1/2+x,1/2+z
1/2-x,1/2-y,1/2+z
1/2+y,1/2-x,1/2+z
1/2+x,1/2-y,-z
1/2-x,1/2+y,-z
1/2+y,1/2+x,-z
1/2-y,1/2-x,-z
1/2-x,1/2-y,1/2-z
1/2+y,1/2-x,1/2-z
1/2+x,1/2+y,1/2-z
1/2-y,1/2+x,1/2-z
1/2-x,1/2+y,z
1/2+x,1/2-y,z
1/2-y,1/2-x,z
1/2+y,1/2+x,z
loop_
_atom_site_type_symbol
_atom_site_label
_atom_site_fract_x
_atom_site_fract_y
_atom_site_fract_z
Si Si1 0.872253 0.550133 0.672531
Si Si2 0.457777 0.395148 0.161769
Si Si3 0.816957 0.878533 0.158598
Si Si4 0.283571 0.885305 0.670974
Si Si5 0.213906 0.286095 0.174063
O O1 0.873404 0.500000 0.750000
O O2 0.871184 0.543352 0.500000
O O3 0.917127 0.582874 0.705971
O O4 0.825956 0.580529 0.711614
O O5 0.500000 0.374058 0.250000
O O6 0.439298 0.439298 0.250000
O O7 0.416258 0.357903 0.157884
O O8 0.471001 0.406983 0.000000
O O9 0.835289 0.835289 0.250000
O O10 0.768697 0.904789 0.191726
O O11 0.810600 0.858970 0.000000
O O12 0.290832 0.874944 0.500000
O O13 0.279112 0.838553 0.764952
O O14 0.250000 0.250000 0.250000
O O15 0.216670 0.283331 0.000000
#
# Coordination Sequence:
#
# PCOD9572299 Si02
#       5
#    32  32  32  32  16
#     4  10  22  41  64  89 120 158 197 249 310 365
#     4  10  20  35  53  77 105 139 181 231 284 339
#     4   9  19  34  55  80 111 150 190 231 279 338
#     4  10  20  39  61  84 119 158 197 243 295 350
#     4  12  24  36  56  88 123 162 203 244 292 347
#
# _framework density 18.791053999999999
#
# number of rings (size 3 to 8) (size 9 to 14) (size 15 to 20)
#    0.000    2.000    1.111    2.333    0.000    6.222 
#    0.000    2.222    0.000    0.000    0.000    0.000 
#    0.000    0.000    0.000    0.000    0.000    0.000 
#
# Total GULP energy -400959.225699 kJ/mol
# GULP energy per Si atom -5568.878135 kJ/mol
# Density = 1.874828 g / cm^3
# Si number density = 18.791054 Si / 1000 Ang^3
#
#
#
# Elastic Constant Matrix: (Units=GPa)
#
#
# Indices 1 2 3 4 5 6 
#
# 1 114.8943 47.9325 57.8228 0.0000 0.0000 0.0000
# 2 47.9325 114.8945 57.8231 0.0000 0.0000 0.0000
# 3 57.8228 57.8231 100.6325 0.0000 0.0000 0.0000
# 4 0.0000 0.0000 0.0000 23.5454 0.0000 0.0000
# 5 0.0000 0.0000 0.0000 0.0000 23.5452 0.0000
# 6 0.0000 0.0000 0.0000 0.0000 0.0000 13.9669
#
#
#
# Elastic Compliance Matrix: (Units=1/GPa)
#
#
# Indices 1 2 3 4 5 6 
#
# 1 0.012655 -0.002279 -0.005962 0.000000 0.000000 0.000000
# 2 -0.002279 0.012655 -0.005962 0.000000 0.000000 0.000000
# 3 -0.005962 -0.005962 0.016789 0.000000 0.000000 0.000000
# 4 0.000000 0.000000 0.000000 0.042471 0.000000 0.000000
# 5 0.000000 0.000000 0.000000 0.000000 0.042472 0.000000
# 6 0.000000 0.000000 0.000000 0.000000 0.000000 0.071598
#
#
# Mechanical properties :
#
#
# Convention : Reuss Voigt Hill
#
# Bulk Modulus (GPa) = 73.03224 73.06422 73.04823
# Shear Modulus (GPa) = 21.58814 23.33435 22.46125
#
# Velocity S-wave (km/s) = 3.39315 3.52771 3.46109
# Velocity P-wave (km/s) = 7.36893 7.45385 7.41151
#
# Compressibility (1/GPa) = 0.01369258
#
# Stress axis : x y z
#
# Youngs Moduli (GPa) = 79.02099 79.02084 59.56450
#
# Poissons Ratio (x) = 0.18009 0.35512
# Poissons Ratio (y) = 0.18009 0.35512
# Poissons Ratio (z) = 0.47111 0.47112
#
# Static dielectric constant tensor:
#      x y z
#    x 1.692460 0.000000 0.000000 
#    y 0.000000 1.692460 0.000000 
#    z 0.000000 0.000000 1.653220 
# 
# From -- ./inp_files/1642.got.cif
#   From: 2010.05.17/outbox.cif.g08.bks.cpg/sg140_1_cif.got.tgz:1642.got - 2010.06.21 00:45:31.
