data_PCOD9572468
_publ_section_title
;
Structure prediction by ZEFSAII (Michael W. Deem and Ramdas Pophale) SiO2 
 PCOD9572468
Probable space group: I 4/M C M
;
_chemical_formula_sum "Si O2"
_cell_formula_units_Z 176
_cell_length_a 26.176675
_cell_length_b 26.176675
_cell_length_c 14.508474
_cell_angle_alpha 90.000000
_cell_angle_beta 90.000000
_cell_angle_gamma 90.000000
_cell_volume 9941.472094
_symmetry_space_group_name_H-M "I 4/M C M"
_symmetry_group_IT_number 140
_symmetry_cell_setting 'tetragonal'
loop_
_space_group_symop_operation_xyz
x,y,z
-y,x,z
-x,-y,z
y,-x,z
x,-y,1/2-z
-x,y,1/2-z
y,x,1/2-z
-y,-x,1/2-z
-x,-y,-z
y,-x,-z
x,y,-z
-y,x,-z
-x,y,1/2+z
x,-y,1/2+z
-y,-x,1/2+z
y,x,1/2+z
1/2+x,1/2+y,1/2+z
1/2-y,1/2+x,1/2+z
1/2-x,1/2-y,1/2+z
1/2+y,1/2-x,1/2+z
1/2+x,1/2-y,-z
1/2-x,1/2+y,-z
1/2+y,1/2+x,-z
1/2-y,1/2-x,-z
1/2-x,1/2-y,1/2-z
1/2+y,1/2-x,1/2-z
1/2+x,1/2+y,1/2-z
1/2-y,1/2+x,1/2-z
1/2-x,1/2+y,z
1/2+x,1/2-y,z
1/2-y,1/2-x,z
1/2+y,1/2+x,z
loop_
_atom_site_type_symbol
_atom_site_label
_atom_site_fract_x
_atom_site_fract_y
_atom_site_fract_z
Si Si1 0.787869 0.799161 0.500000
Si Si2 0.192797 0.607253 0.795948
Si Si3 0.221442 0.500000 0.750000
Si Si4 0.793566 0.137007 0.186723
Si Si5 0.002309 0.917541 0.138962
Si Si6 0.804753 0.973755 0.605919
Si Si7 0.783557 0.629631 0.500000
O O1 0.743698 0.756303 0.500000
O O2 0.784051 0.832006 0.407230
O O3 0.842895 0.771205 0.500000
O O4 0.144009 0.644009 0.786607
O O5 0.188575 0.551335 0.751788
O O6 0.241356 0.632768 0.745087
O O7 0.206279 0.601583 0.904171
O O8 0.260080 0.500928 0.836946
O O9 0.834836 0.165165 0.250000
O O10 0.811358 0.080579 0.157186
O O11 0.002211 0.859111 0.108421
O O12 0.050851 0.951666 0.109770
O O13 0.000000 0.917114 0.250000
O O14 0.789909 0.965764 0.500000
O O15 0.824034 0.675967 0.500000
#
# Coordination Sequence:
#
# PCOD9572468 Si02
#       7
#    16  32  16  32  32  32  16
#     4  11  20  34  53  80 116 153 192 231 272 327
#     4  10  21  38  59  84 114 150 186 227 278 332
#     4  10  24  40  60  82 114 146 176 226 274 344
#     4  11  22  35  54  82 119 154 190 230 279 333
#     4   9  19  36  55  73  99 140 191 242 283 318
#     4  11  23  38  55  81 113 146 186 233 287 340
#     4   9  18  32  55  86 113 143 187 226 268 324
#
# _framework density 17.703616
#
# number of rings (size 3 to 8) (size 9 to 14) (size 15 to 20)
#    0.000    1.818    3.636    1.091    3.818    1.455 
#    0.000    0.909    0.000    0.273    0.000    0.000 
#    0.000    2.182    0.000    0.000    0.000    0.000 
#
# Total GULP energy -491280.166943 kJ/mol
# GULP energy per Si atom -5582.729170 kJ/mol
# Density = 1.766332 g / cm^3
# Si number density = 17.703616 Si / 1000 Ang^3
#
#
#
# Elastic Constant Matrix: (Units=GPa)
#
#
# Indices 1 2 3 4 5 6 
#
# 1 68.5533 40.7584 22.1944 0.0000 0.0000 0.0000
# 2 40.7584 68.5552 22.1961 0.0000 0.0000 0.0000
# 3 22.1944 22.1961 107.6167 0.0000 0.0000 0.0000
# 4 0.0000 0.0000 0.0000 12.0213 0.0000 0.0000
# 5 0.0000 0.0000 0.0000 0.0000 12.0216 0.0000
# 6 0.0000 0.0000 0.0000 0.0000 0.0000 17.0135
#
#
#
# Elastic Compliance Matrix: (Units=1/GPa)
#
#
# Indices 1 2 3 4 5 6 
#
# 1 0.022981 -0.012996 -0.002059 0.000000 0.000000 0.000000
# 2 -0.012996 0.022980 -0.002059 0.000000 0.000000 0.000000
# 3 -0.002059 -0.002059 0.010142 0.000000 0.000000 0.000000
# 4 0.000000 0.000000 0.000000 0.083185 0.000000 0.000000
# 5 0.000000 0.000000 0.000000 0.000000 0.083183 0.000000
# 6 0.000000 0.000000 0.000000 0.000000 0.000000 0.058777
#
#
# Mechanical properties :
#
#
# Convention : Reuss Voigt Hill
#
# Bulk Modulus (GPa) = 45.71758 46.11366 45.91562
# Shear Modulus (GPa) = 15.49100 18.84973 17.17036
#
# Velocity S-wave (km/s) = 2.96128 3.26657 3.11767
# Velocity P-wave (km/s) = 6.12961 6.35071 6.24114
#
# Compressibility (1/GPa) = 0.02187342
#
# Stress axis : x y z
#
# Youngs Moduli (GPa) = 43.51483 43.51567 98.60350
#
# Poissons Ratio (x) = 0.56554 0.20302
# Poissons Ratio (y) = 0.56553 0.20307
# Poissons Ratio (z) = 0.08960 0.08962
#
# Static dielectric constant tensor:
#      x y z
#    x 1.596100 0.000000 0.000000 
#    y 0.000000 1.596100 0.000000 
#    z 0.000000 0.000000 1.626990 
# 
# From -- ./inp_files/5000.got.cif
#   From: 2010.05.17/outbox.cif.g08.bks.cpg/sg140_3_cif.got.tgz:5000.got - 2010.06.21 00:45:31.
