data_PCOD9572432
_publ_section_title
;
Structure prediction by ZEFSAII (Michael W. Deem and Ramdas Pophale) SiO2 
 PCOD9572432
Probable space group: I 4/M C M
;
_chemical_formula_sum "Si O2"
_cell_formula_units_Z 192
_cell_length_a 19.305908
_cell_length_b 19.305908
_cell_length_c 28.685486
_cell_angle_alpha 90.000000
_cell_angle_beta 90.000000
_cell_angle_gamma 90.000000
_cell_volume 10691.599372
_symmetry_space_group_name_H-M "I 4/M C M"
_symmetry_group_IT_number 140
_symmetry_cell_setting 'tetragonal'
loop_
_space_group_symop_operation_xyz
x,y,z
-y,x,z
-x,-y,z
y,-x,z
x,-y,1/2-z
-x,y,1/2-z
y,x,1/2-z
-y,-x,1/2-z
-x,-y,-z
y,-x,-z
x,y,-z
-y,x,-z
-x,y,1/2+z
x,-y,1/2+z
-y,-x,1/2+z
y,x,1/2+z
1/2+x,1/2+y,1/2+z
1/2-y,1/2+x,1/2+z
1/2-x,1/2-y,1/2+z
1/2+y,1/2-x,1/2+z
1/2+x,1/2-y,-z
1/2-x,1/2+y,-z
1/2+y,1/2+x,-z
1/2-y,1/2-x,-z
1/2-x,1/2-y,1/2-z
1/2+y,1/2-x,1/2-z
1/2+x,1/2+y,1/2-z
1/2-y,1/2+x,1/2-z
1/2-x,1/2+y,z
1/2+x,1/2-y,z
1/2-y,1/2-x,z
1/2+y,1/2+x,z
loop_
_atom_site_type_symbol
_atom_site_label
_atom_site_fract_x
_atom_site_fract_y
_atom_site_fract_z
Si Si1 0.445250 0.670819 0.847544
Si Si2 0.997252 0.616742 0.000000
Si Si3 0.659738 0.418457 0.901247
Si Si4 0.831798 0.445185 0.342239
Si Si5 0.321849 0.936241 0.588445
Si Si6 0.572047 0.591945 0.000000
Si Si7 0.609679 0.000000 0.250000
Si Si8 0.500000 0.617289 0.250000
O O1 0.502455 0.646792 0.885221
O O2 0.376991 0.627846 0.861417
O O3 0.428701 0.751910 0.851798
O O4 0.483044 0.659237 0.797379
O O5 0.013574 0.664369 0.955586
O O6 0.923921 0.576080 0.000000
O O7 0.055322 0.555322 0.000000
O O8 0.742738 0.413849 0.904406
O O9 0.628406 0.403881 0.952237
O O10 0.884710 0.384710 0.356457
O O11 0.846382 0.516665 0.368771
O O12 0.845032 0.461818 0.288296
O O13 0.369758 0.869758 0.582678
O O14 0.488254 0.593842 0.000000
O O15 0.557775 0.942226 0.228758
O O16 0.433859 0.566142 0.250000
#
# Coordination Sequence:
#
# PCOD9572432 Si02
#       8
#    32  16  32  32  32  16  16  16
#     4  11  22  37  56  82 118 150 189 239 290 345
#     4   9  17  32  56  82 109 142 186 240 286 331
#     4  11  22  37  56  83 116 149 192 238 287 348
#     4  10  21  36  57  83 114 152 192 237 289 346
#     4  10  21  36  57  84 115 152 193 239 289 344
#     4  11  21  34  59  84 107 144 186 233 286 340
#     4   9  17  32  56  82 109 143 190 246 291 337
#     4  11  21  34  60  86 109 147 188 238 288 340
#
# _framework density 17.958024000000002
#
# number of rings (size 3 to 8) (size 9 to 14) (size 15 to 20)
#    0.000    1.667    3.333    2.000    0.000    2.667 
#    0.000    0.000    0.000    0.500    0.000    0.000 
#    0.000    0.000    0.000    0.000    0.000    0.000 
#
# Total GULP energy -534858.653896 kJ/mol
# GULP energy per Si atom -5571.444311 kJ/mol
# Density = 1.791715 g / cm^3
# Si number density = 17.958024 Si / 1000 Ang^3
#
#
#
# Elastic Constant Matrix: (Units=GPa)
#
#
# Indices 1 2 3 4 5 6 
#
# 1 54.4813 36.8771 18.2908 0.0000 0.0000 0.0000
# 2 36.8771 54.4810 18.2911 0.0000 0.0000 0.0000
# 3 18.2908 18.2911 83.7473 0.0000 0.0000 0.0000
# 4 0.0000 0.0000 0.0000 21.6961 0.0000 0.0000
# 5 0.0000 0.0000 0.0000 0.0000 21.6962 0.0000
# 6 0.0000 0.0000 0.0000 0.0000 0.0000 19.8354
#
#
#
# Elastic Compliance Matrix: (Units=1/GPa)
#
#
# Indices 1 2 3 4 5 6 
#
# 1 0.034400 -0.022405 -0.002620 0.000000 0.000000 0.000000
# 2 -0.022405 0.034400 -0.002620 0.000000 0.000000 0.000000
# 3 -0.002620 -0.002620 0.013085 0.000000 0.000000 0.000000
# 4 0.000000 0.000000 0.000000 0.046091 0.000000 0.000000
# 5 0.000000 0.000000 0.000000 0.000000 0.046091 0.000000
# 6 0.000000 0.000000 0.000000 0.000000 0.000000 0.050415
#
#
# Mechanical properties :
#
#
# Convention : Reuss Voigt Hill
#
# Bulk Modulus (GPa) = 37.59990 37.73641 37.66815
# Shear Modulus (GPa) = 17.32281 20.59558 18.95919
#
# Velocity S-wave (km/s) = 3.10921 3.39023 3.25276
# Velocity P-wave (km/s) = 5.82003 6.03193 5.92692
#
# Compressibility (1/GPa) = 0.02659581
#
# Stress axis : x y z
#
# Youngs Moduli (GPa) = 29.06987 29.06960 76.42319
#
# Poissons Ratio (x) = 0.65131 0.20020
# Poissons Ratio (y) = 0.65131 0.20022
# Poissons Ratio (z) = 0.07615 0.07616
#
# Static dielectric constant tensor:
#      x y z
#    x 1.599800 0.000000 0.000000 
#    y 0.000000 1.599800 0.000000 
#    z 0.000000 0.000000 1.671570 
# 
# From -- ./inp_files/11666.got.cif
#   From: 2010.05.17/outbox.cif.g08.bks.cpg/sg140_6_cif.got.tgz:11666.got - 2010.06.21 00:45:31.
