data_PCOD9572162
_publ_section_title
;
Structure prediction by ZEFSAII (Michael W. Deem and Ramdas Pophale) SiO2 
 PCOD9572162
Probable space group: I 4/M C M
;
_chemical_formula_sum "Si O2"
_cell_formula_units_Z 176
_cell_length_a 19.945549
_cell_length_b 19.945549
_cell_length_c 26.025586
_cell_angle_alpha 90.000000
_cell_angle_beta 90.000000
_cell_angle_gamma 90.000000
_cell_volume 10353.626796
_symmetry_space_group_name_H-M "I 4/M C M"
_symmetry_group_IT_number 140
_symmetry_cell_setting 'tetragonal'
loop_
_space_group_symop_operation_xyz
x,y,z
-y,x,z
-x,-y,z
y,-x,z
x,-y,1/2-z
-x,y,1/2-z
y,x,1/2-z
-y,-x,1/2-z
-x,-y,-z
y,-x,-z
x,y,-z
-y,x,-z
-x,y,1/2+z
x,-y,1/2+z
-y,-x,1/2+z
y,x,1/2+z
1/2+x,1/2+y,1/2+z
1/2-y,1/2+x,1/2+z
1/2-x,1/2-y,1/2+z
1/2+y,1/2-x,1/2+z
1/2+x,1/2-y,-z
1/2-x,1/2+y,-z
1/2+y,1/2+x,-z
1/2-y,1/2-x,-z
1/2-x,1/2-y,1/2-z
1/2+y,1/2-x,1/2-z
1/2+x,1/2+y,1/2-z
1/2-y,1/2+x,1/2-z
1/2-x,1/2+y,z
1/2+x,1/2-y,z
1/2-y,1/2-x,z
1/2+y,1/2+x,z
loop_
_atom_site_type_symbol
_atom_site_label
_atom_site_fract_x
_atom_site_fract_y
_atom_site_fract_z
Si Si1 0.666947 0.946974 0.203855
Si Si2 0.662258 0.724071 0.393899
Si Si3 0.513564 0.708924 0.000000
Si Si4 0.553983 0.053983 0.939064
Si Si5 0.021689 0.297159 0.901688
Si Si6 0.162749 0.222779 0.702725
Si Si7 0.364368 0.653448 0.000000
O O1 0.602488 0.897513 0.200127
O O2 0.731985 0.901259 0.213669
O O3 0.657045 0.000000 0.250000
O O4 0.685149 0.980420 0.149385
O O5 0.715570 0.784431 0.392259
O O6 0.588851 0.756396 0.386441
O O7 0.683008 0.670289 0.350531
O O8 0.663226 0.689837 0.449347
O O9 0.512476 0.755079 0.051719
O O10 0.444306 0.666729 0.000000
O O11 0.577300 0.660440 0.000000
O O12 0.629888 0.039223 0.923628
O O13 0.500000 0.000000 0.917327
O O14 0.549747 0.049747 0.000000
O O15 0.173741 0.173741 0.750000
O O16 0.224230 0.275771 0.701667
#
# Coordination Sequence:
#
# PCOD9572162 Si02
#       7
#    32  32  16  16  32  32  16
#     4  11  24  38  53  78 112 150 188 229 276 335
#     4  10  19  33  57  82 105 141 184 235 282 322
#     4  10  22  38  59  85 110 145 182 236 292 343
#     4  11  22  36  54  80 113 162 200 225 267 336
#     4  11  21  37  58  80 115 147 191 233 272 332
#     4   9  18  34  54  75 100 133 181 233 281 324
#     4  10  21  35  55  82 113 140 181 228 285 348
#
# _framework density 16.998874000000001
#
# number of rings (size 3 to 8) (size 9 to 14) (size 15 to 20)
#    0.000    1.727    1.818    3.000    1.273    1.818 
#    0.000    2.727    0.000    0.000    0.000    0.000 
#    0.000   14.909    0.000    0.000    0.000    0.000 
#
# Total GULP energy -490637.557333 kJ/mol
# GULP energy per Si atom -5575.426788 kJ/mol
# Density = 1.696018 g / cm^3
# Si number density = 16.998874 Si / 1000 Ang^3
#
#
#
# Elastic Constant Matrix: (Units=GPa)
#
#
# Indices 1 2 3 4 5 6 
#
# 1 89.2875 52.4515 58.5472 0.0000 0.0000 0.0000
# 2 52.4515 89.2875 58.5472 0.0000 0.0000 0.0000
# 3 58.5472 58.5472 138.8866 0.0000 0.0000 0.0000
# 4 0.0000 0.0000 0.0000 179.4265 0.0000 0.0000
# 5 0.0000 0.0000 0.0000 0.0000 179.4265 0.0000
# 6 0.0000 0.0000 0.0000 0.0000 0.0000 27.9375
#
#
#
# Elastic Compliance Matrix: (Units=1/GPa)
#
#
# Indices 1 2 3 4 5 6 
#
# 1 0.018986 -0.008161 -0.004563 0.000000 0.000000 0.000000
# 2 -0.008161 0.018986 -0.004563 0.000000 0.000000 0.000000
# 3 -0.004563 -0.004563 0.011047 0.000000 0.000000 0.000000
# 4 0.000000 0.000000 0.000000 0.005573 0.000000 0.000000
# 5 0.000000 0.000000 0.000000 0.000000 0.005573 0.000000
# 6 0.000000 0.000000 0.000000 0.000000 0.000000 0.035794
#
#
# Mechanical properties :
#
#
# Convention : Reuss Voigt Hill
#
# Bulk Modulus (GPa) = 69.23087 72.95039 71.09063
# Shear Modulus (GPa) = 36.94104 87.21913 62.08009
#
# Velocity S-wave (km/s) = 4.66676 7.17079 6.04974
# Velocity P-wave (km/s) = 8.35783 10.56259 9.52422
#
# Compressibility (1/GPa) = 0.01444442
#
# Stress axis : x y z
#
# Youngs Moduli (GPa) = 52.66981 52.66981 90.51920
#
# Poissons Ratio (x) = 0.42985 0.41306
# Poissons Ratio (y) = 0.42985 0.41306
# Poissons Ratio (z) = 0.24035 0.24035
#
# Static dielectric constant tensor:
#      x y z
#    x 1.559550 0.000000 0.000000 
#    y 0.000000 1.559550 0.000000 
#    z 0.000000 0.000000 1.602280 
# 
# From -- ./inp_files/10762.got.cif
#   From: 2010.05.17/outbox.cif.g08.bks.cpg/sg140_6_cif.got.tgz:10762.got - 2010.06.21 00:45:31.
