data_PCOD9572875
_publ_section_title
;
Structure prediction by ZEFSAII (Michael W. Deem and Ramdas Pophale) SiO2 
 PCOD9572875
Probable space group: I 41/A M D
;
_chemical_formula_sum "Si O2"
_cell_formula_units_Z 192
_cell_length_a 19.057608
_cell_length_b 19.057608
_cell_length_c 24.088975
_cell_angle_alpha 90.000000
_cell_angle_beta 90.000000
_cell_angle_gamma 90.000000
_cell_volume 8748.933190
_symmetry_space_group_name_H-M "I 41/A M D"
_symmetry_group_IT_number 141
_space_group.IT_coordinate_system_code '2'
_symmetry_cell_setting 'tetragonal'
loop_
_space_group_symop_operation_xyz
x,y,z
1/4-y,3/4+x,1/4+z
-x,1/2-y,z
1/4+y,1/4-x,3/4+z
x,-y,-z
-x,1/2+y,-z
1/4+y,3/4+x,1/4-z
1/4-y,1/4-x,3/4-z
-x,-y,-z
3/4+y,1/4-x,3/4-z
x,1/2+y,-z
3/4-y,3/4+x,1/4-z
-x,y,z
x,1/2-y,z
3/4-y,1/4-x,3/4+z
3/4+y,3/4+x,1/4+z
1/2+x,1/2+y,1/2+z
3/4-y,1/4+x,3/4+z
1/2-x,-y,1/2+z
3/4+y,3/4-x,1/4+z
1/2+x,1/2-y,1/2-z
1/2-x,y,1/2-z
3/4+y,1/4+x,3/4-z
3/4-y,3/4-x,1/4-z
1/2-x,1/2-y,1/2-z
1/4+y,3/4-x,1/4-z
1/2+x,y,1/2-z
1/4-y,1/4+x,3/4-z
1/2-x,1/2+y,1/2+z
1/2+x,-y,1/2+z
1/4-y,3/4-x,1/4+z
1/4+y,1/4+x,3/4+z
loop_
_atom_site_type_symbol
_atom_site_label
_atom_site_fract_x
_atom_site_fract_y
_atom_site_fract_z
Si Si1 0.774522 0.166159 0.690538
Si Si2 0.583782 0.899332 0.212876
Si Si3 0.361880 0.330398 0.976440
Si Si4 0.190277 0.750000 0.666672
Si Si5 0.700909 0.623877 0.913563
Si Si6 0.289590 0.169693 0.581197
Si Si7 0.649253 0.750000 0.706751
O O1 0.765473 0.250000 0.689845
O O2 0.750000 0.138049 0.750000
O O3 0.857937 0.151980 0.687689
O O4 0.725227 0.136186 0.641375
O O5 0.500000 0.884033 0.206950
O O6 0.601171 0.972972 0.183001
O O7 0.600183 0.912416 0.278561
O O8 0.375932 0.250000 0.994266
O O9 0.344174 0.377481 0.030223
O O10 0.289924 0.329376 0.942477
O O11 0.428027 0.359813 0.943067
O O12 0.174558 0.816297 0.628353
O O13 0.273124 0.750000 0.681928
O O14 0.152645 0.750000 0.725891
O O15 0.695103 0.554898 0.875000
O O16 0.312514 0.250000 0.591959
#
# Coordination Sequence:
#
# PCOD9572875 Si02
#       7
#    32  32  32  16  32  32  16
#     4  10  22  42  66  93 123 156 199 257 320 385
#     4  10  21  39  64  91 122 167 209 252 316 377
#     4  10  19  34  55  80 112 152 196 238 294 355
#     4  11  22  36  50  76 114 158 203 252 296 336
#     4  11  20  37  57  78 117 165 211 250 289 347
#     4   8  18  37  57  82 120 155 187 238 303 368
#     4  11  23  32  50  82 115 149 194 256 308 325
#
# _framework density 21.945532
#
# number of rings (size 3 to 8) (size 9 to 14) (size 15 to 20)
#    0.000    2.000    3.333    1.250    2.333    1.000 
#    3.000    0.000    0.000    0.000    0.000    4.667 
#    0.000    0.000    0.000    0.000    0.000    0.000 
#
# Total GULP energy -535039.990127 kJ/mol
# GULP energy per Si atom -5573.333230 kJ/mol
# Density = 2.189558 g / cm^3
# Si number density = 21.945532 Si / 1000 Ang^3
#
#
#
# Elastic Constant Matrix: (Units=GPa)
#
#
# Indices 1 2 3 4 5 6 
#
# 1 10.9085 7.1517 -0.7565 0.0000 0.0000 0.0000
# 2 7.1517 10.9096 -0.7560 0.0000 0.0000 0.0000
# 3 -0.7565 -0.7560 108.0286 0.0000 0.0000 0.0000
# 4 0.0000 0.0000 0.0000 19.1242 0.0000 0.0000
# 5 0.0000 0.0000 0.0000 0.0000 19.1241 0.0000
# 6 0.0000 0.0000 0.0000 0.0000 0.0000 29.9999
#
#
#
# Elastic Compliance Matrix: (Units=1/GPa)
#
#
# Indices 1 2 3 4 5 6 
#
# 1 0.160781 -0.105372 0.000388 0.000000 0.000000 0.000000
# 2 -0.105372 0.160765 0.000387 0.000000 0.000000 0.000000
# 3 0.000388 0.000387 0.009262 0.000000 0.000000 0.000000
# 4 0.000000 0.000000 0.000000 0.052290 0.000000 0.000000
# 5 0.000000 0.000000 0.000000 0.000000 0.052290 0.000000
# 6 0.000000 0.000000 0.000000 0.000000 0.000000 0.033333
#
#
# Mechanical properties :
#
#
# Convention : Reuss Voigt Hill
#
# Bulk Modulus (GPa) = 8.22260 15.68057 11.95159
# Shear Modulus (GPa) = 6.95939 21.93013 14.44476
#
# Velocity S-wave (km/s) = 1.78272 3.16460 2.56834
# Velocity P-wave (km/s) = 2.82709 4.52920 3.77532
#
# Compressibility (1/GPa) = 0.12161600
#
# Stress axis : x y z
#
# Youngs Moduli (GPa) = 6.21962 6.22025 107.96526
#
# Poissons Ratio (x) = 0.65544 -0.04194
# Poissons Ratio (y) = 0.65537 -0.04180
# Poissons Ratio (z) = -0.00242 -0.00241
#
# Static dielectric constant tensor:
#      x y z
#    x 1.838880 0.000000 0.000000 
#    y 0.000000 1.838880 0.000000 
#    z 0.000000 0.000000 1.873420 
# 
# From -- ./inp_files/11768.got.cif
#   From: 2010.05.17/outbox.cif.g08.bks.cpg/sg141_6_cif.got.tgz:11768.got - 2010.05.20 13:30:51.
