data_PCOD9572855
_publ_section_title
;
Structure prediction by ZEFSAII (Michael W. Deem and Ramdas Pophale) SiO2 
 PCOD9572855
Probable space group: I 41/A M D
;
_chemical_formula_sum "Si O2"
_cell_formula_units_Z 160
_cell_length_a 20.929538
_cell_length_b 20.929538
_cell_length_c 17.304308
_cell_angle_alpha 90.000000
_cell_angle_beta 90.000000
_cell_angle_gamma 90.000000
_cell_volume 7580.075304
_symmetry_space_group_name_H-M "I 41/A M D"
_symmetry_group_IT_number 141
_space_group.IT_coordinate_system_code '2'
_symmetry_cell_setting 'tetragonal'
loop_
_space_group_symop_operation_xyz
x,y,z
1/4-y,3/4+x,1/4+z
-x,1/2-y,z
1/4+y,1/4-x,3/4+z
x,-y,-z
-x,1/2+y,-z
1/4+y,3/4+x,1/4-z
1/4-y,1/4-x,3/4-z
-x,-y,-z
3/4+y,1/4-x,3/4-z
x,1/2+y,-z
3/4-y,3/4+x,1/4-z
-x,y,z
x,1/2-y,z
3/4-y,1/4-x,3/4+z
3/4+y,3/4+x,1/4+z
1/2+x,1/2+y,1/2+z
3/4-y,1/4+x,3/4+z
1/2-x,-y,1/2+z
3/4+y,3/4-x,1/4+z
1/2+x,1/2-y,1/2-z
1/2-x,y,1/2-z
3/4+y,1/4+x,3/4-z
3/4-y,3/4-x,1/4-z
1/2-x,1/2-y,1/2-z
1/4+y,3/4-x,1/4-z
1/2+x,y,1/2-z
1/4-y,1/4+x,3/4-z
1/2-x,1/2+y,1/2+z
1/2+x,-y,1/2+z
1/4-y,3/4-x,1/4+z
1/4+y,1/4+x,3/4+z
loop_
_atom_site_type_symbol
_atom_site_label
_atom_site_fract_x
_atom_site_fract_y
_atom_site_fract_z
Si Si1 0.425680 0.573299 0.789517
Si Si2 0.181686 0.178964 0.026351
Si Si3 0.927099 0.073209 0.475756
Si Si4 0.660120 0.177180 0.812422
Si Si5 0.395593 0.951447 0.388093
O O1 0.500000 0.577537 0.761528
O O2 0.398371 0.501762 0.778868
O O3 0.378398 0.626023 0.753798
O O4 0.428782 0.578474 0.882482
O O5 0.188788 0.250000 0.056899
O O6 0.168531 0.180023 0.934382
O O7 0.126722 0.142878 0.071061
O O8 0.000000 0.084769 0.503484
O O9 0.909997 0.000000 0.500000
O O10 0.641372 0.250000 0.827822
O O11 0.723339 0.158780 0.859981
O O12 0.678852 0.170742 0.721333
O O13 0.322697 0.927304 0.375000
#
# Coordination Sequence:
#
# PCOD9572855 Si02
#       5
#    32  32  32  32  32
#     4   9  19  35  53  78 107 138 176 217 262 317
#     4  10  20  34  51  74 106 140 173 216 263 309
#     4   9  18  35  57  79 105 137 171 217 270 317
#     4  10  19  33  53  76 103 137 177 219 262 314
#     4   9  18  34  53  74 100 133 172 218 267 311
#
# _framework density 21.107969000000001
#
# number of rings (size 3 to 8) (size 9 to 14) (size 15 to 20)
#    0.000    2.600    0.000    2.400    0.000    2.400 
#   10.800    2.000    0.000    3.600    0.000    8.400 
#    0.000    0.000    0.000    0.000    0.000    0.000 
#
# Total GULP energy -445948.382502 kJ/mol
# GULP energy per Si atom -5574.354781 kJ/mol
# Density = 2.105993 g / cm^3
# Si number density = 21.107969 Si / 1000 Ang^3
#
#
#
# Elastic Constant Matrix: (Units=GPa)
#
#
# Indices 1 2 3 4 5 6 
#
# 1 130.4443 115.9251 6.8388 0.0000 0.0000 0.0000
# 2 115.9251 130.4410 6.8382 0.0000 0.0000 0.0000
# 3 6.8388 6.8382 79.7413 0.0000 0.0000 0.0000
# 4 0.0000 0.0000 0.0000 16.5702 0.0000 0.0000
# 5 0.0000 0.0000 0.0000 0.0000 16.5703 0.0000
# 6 0.0000 0.0000 0.0000 0.0000 0.0000 19.6200
#
#
#
# Elastic Compliance Matrix: (Units=1/GPa)
#
#
# Indices 1 2 3 4 5 6 
#
# 1 0.036480 -0.032402 -0.000350 0.000000 0.000000 0.000000
# 2 -0.032402 0.036481 -0.000350 0.000000 0.000000 0.000000
# 3 -0.000350 -0.000350 0.012601 0.000000 0.000000 0.000000
# 4 0.000000 0.000000 0.000000 0.060349 0.000000 0.000000
# 5 0.000000 0.000000 0.000000 0.000000 0.060349 0.000000
# 6 0.000000 0.000000 0.000000 0.000000 0.000000 0.050968
#
#
# Mechanical properties :
#
#
# Convention : Reuss Voigt Hill
#
# Bulk Modulus (GPa) = 51.65742 66.64785 59.15264
# Shear Modulus (GPa) = 15.15690 24.62041 19.88865
#
# Velocity S-wave (km/s) = 2.68258 3.41897 3.07291
# Velocity P-wave (km/s) = 5.84132 6.87234 6.37770
#
# Compressibility (1/GPa) = 0.01935830
#
# Stress axis : x y z
#
# Youngs Moduli (GPa) = 27.41248 27.41179 79.36162
#
# Poissons Ratio (x) = 0.88819 0.02778
# Poissons Ratio (y) = 0.88821 0.02774
# Poissons Ratio (z) = 0.00959 0.00958
#
# Static dielectric constant tensor:
#      x y z
#    x 1.773180 0.000000 0.000000 
#    y 0.000000 1.773190 0.000000 
#    z 0.000000 0.000000 1.848690 
# 
# From -- ./inp_files/8606.got.cif
#   From: 2010.05.17/outbox.cif.g08.bks.cpg/sg141_5_cif.got.tgz:8606.got - 2010.05.20 13:30:51.
