data_PCOD9572317
_publ_section_title
;
Structure prediction by ZEFSAII (Michael W. Deem and Ramdas Pophale) SiO2 
 PCOD9572317
Probable space group: I 4/M C M
;
_chemical_formula_sum "Si O2"
_cell_formula_units_Z 176
_cell_length_a 23.562714
_cell_length_b 23.562714
_cell_length_c 14.960045
_cell_angle_alpha 90.000000
_cell_angle_beta 90.000000
_cell_angle_gamma 90.000000
_cell_volume 8305.839290
_symmetry_space_group_name_H-M "I 4/M C M"
_symmetry_group_IT_number 140
_symmetry_cell_setting 'tetragonal'
loop_
_space_group_symop_operation_xyz
x,y,z
-y,x,z
-x,-y,z
y,-x,z
x,-y,1/2-z
-x,y,1/2-z
y,x,1/2-z
-y,-x,1/2-z
-x,-y,-z
y,-x,-z
x,y,-z
-y,x,-z
-x,y,1/2+z
x,-y,1/2+z
-y,-x,1/2+z
y,x,1/2+z
1/2+x,1/2+y,1/2+z
1/2-y,1/2+x,1/2+z
1/2-x,1/2-y,1/2+z
1/2+y,1/2-x,1/2+z
1/2+x,1/2-y,-z
1/2-x,1/2+y,-z
1/2+y,1/2+x,-z
1/2-y,1/2-x,-z
1/2-x,1/2-y,1/2-z
1/2+y,1/2-x,1/2-z
1/2+x,1/2+y,1/2-z
1/2-y,1/2+x,1/2-z
1/2-x,1/2+y,z
1/2+x,1/2-y,z
1/2-y,1/2-x,z
1/2+y,1/2+x,z
loop_
_atom_site_type_symbol
_atom_site_label
_atom_site_fract_x
_atom_site_fract_y
_atom_site_fract_z
Si Si1 0.208815 0.203641 0.894468
Si Si2 0.930228 0.934424 0.500000
Si Si3 0.783374 0.599547 0.898748
Si Si4 0.642407 0.596810 0.337477
Si Si5 0.437517 0.152977 0.222429
Si Si6 0.524155 0.739166 0.104251
O O1 0.265567 0.234434 0.860534
O O2 0.156896 0.247962 0.888216
O O3 0.188358 0.147328 0.846851
O O4 0.216485 0.191471 0.000000
O O5 0.902992 0.902630 0.583314
O O6 0.998075 0.922776 0.500000
O O7 0.823565 0.589871 0.814335
O O8 0.744300 0.543640 0.895420
O O9 0.808425 0.599689 0.000000
O O10 0.606753 0.606753 0.250000
O O11 0.681940 0.542220 0.346559
O O12 0.500000 0.130487 0.250000
O O13 0.395355 0.104646 0.185969
O O14 0.449797 0.205849 0.155282
O O15 0.542921 0.737263 0.000000
#
# Coordination Sequence:
#
# PCOD9572317 Si02
#       6
#    32  16  32  32  32  32
#     4  10  20  35  57  89 129 166 203 251 321 391
#     4  11  28  52  71  94 134 180 227 281 341 400
#     4   9  19  35  60  86 117 162 208 256 309 375
#     4  12  25  41  68 102 128 171 217 272 336 400
#     4  10  21  37  57  88 124 164 215 265 318 385
#     4  10  21  39  60  87 123 166 217 262 320 384
#
# _framework density 21.189912
#
# number of rings (size 3 to 8) (size 9 to 14) (size 15 to 20)
#    0.000    1.727    1.818    1.636    2.545    3.455 
#    0.000    0.909    0.000    0.000    0.000    5.091 
#    0.000    0.000    0.000    0.000    0.000    0.000 
#
# Total GULP energy -491904.596593 kJ/mol
# GULP energy per Si atom -5589.824961 kJ/mol
# Density = 2.114168 g / cm^3
# Si number density = 21.189912 Si / 1000 Ang^3
#
#
#
# Elastic Constant Matrix: (Units=GPa)
#
#
# Indices 1 2 3 4 5 6 
#
# 1 35.9067 39.3595 26.9708 0.0000 0.0000 0.0000
# 2 39.3595 35.9067 26.9708 0.0000 0.0000 0.0000
# 3 26.9708 26.9708 103.4914 0.0000 0.0000 0.0000
# 4 0.0000 0.0000 0.0000 -1.5298 0.0000 0.0000
# 5 0.0000 0.0000 0.0000 0.0000 -1.5298 0.0000
# 6 0.0000 0.0000 0.0000 0.0000 0.0000 34.5085
#
#
#
# Elastic Compliance Matrix: (Units=1/GPa)
#
#
# Indices 1 2 3 4 5 6 
#
# 1 -0.136639 0.152976 -0.004258 0.000000 0.000000 0.000000
# 2 0.152976 -0.136639 -0.004258 0.000000 0.000000 0.000000
# 3 -0.004258 -0.004258 0.011882 0.000000 0.000000 0.000000
# 4 0.000000 0.000000 0.000000 -0.653691 0.000000 0.000000
# 5 0.000000 0.000000 0.000000 0.000000 -0.653691 0.000000
# 6 0.000000 0.000000 0.000000 0.000000 0.000000 0.028978
#
#
# Mechanical properties :
#
#
# Convention : Reuss Voigt Hill
#
# Bulk Modulus (GPa) = 36.32912 40.21189 38.27051
# Shear Modulus (GPa) = -2.74794 11.75670 4.50438
#
# Velocity S-wave (km/s) = -1.14001 2.35803 1.45957
# Velocity P-wave (km/s) = 3.93051 5.14119 4.57607
#
# Compressibility (1/GPa) = 0.02752613
#
# Stress axis : x y z
#
# Youngs Moduli (GPa) = -7.31857 -7.31857 84.16206
#
# Poissons Ratio (x) = 1.11957 0.35834
# Poissons Ratio (y) = 1.11957 0.35834
# Poissons Ratio (z) = -0.03116 -0.03116
#
# Static dielectric constant tensor:
#      x y z
#    x 1.768850 0.000000 0.000000 
#    y 0.000000 1.768850 0.000000 
#    z 0.000000 0.000000 1.773400 
# 
# From -- ./inp_files/4966.got.cif
#   From: 2010.05.17/outbox.cif.g08.bks.cpg/sg140_3_cif.got.tgz:4966.got - 2010.06.21 00:45:31.
