data_PCOD9572780
_publ_section_title
;
Structure prediction by ZEFSAII (Michael W. Deem and Ramdas Pophale) SiO2 
 PCOD9572780
Probable space group: I 41/A M D
;
_chemical_formula_sum "Si O2"
_cell_formula_units_Z 192
_cell_length_a 21.410054
_cell_length_b 21.410054
_cell_length_c 26.126660
_cell_angle_alpha 90.000000
_cell_angle_beta 90.000000
_cell_angle_gamma 90.000000
_cell_volume 11976.210449
_symmetry_space_group_name_H-M "I 41/A M D"
_symmetry_group_IT_number 141
_space_group.IT_coordinate_system_code '2'
_symmetry_cell_setting 'tetragonal'
loop_
_space_group_symop_operation_xyz
x,y,z
1/4-y,3/4+x,1/4+z
-x,1/2-y,z
1/4+y,1/4-x,3/4+z
x,-y,-z
-x,1/2+y,-z
1/4+y,3/4+x,1/4-z
1/4-y,1/4-x,3/4-z
-x,-y,-z
3/4+y,1/4-x,3/4-z
x,1/2+y,-z
3/4-y,3/4+x,1/4-z
-x,y,z
x,1/2-y,z
3/4-y,1/4-x,3/4+z
3/4+y,3/4+x,1/4+z
1/2+x,1/2+y,1/2+z
3/4-y,1/4+x,3/4+z
1/2-x,-y,1/2+z
3/4+y,3/4-x,1/4+z
1/2+x,1/2-y,1/2-z
1/2-x,y,1/2-z
3/4+y,1/4+x,3/4-z
3/4-y,3/4-x,1/4-z
1/2-x,1/2-y,1/2-z
1/4+y,3/4-x,1/4-z
1/2+x,y,1/2-z
1/4-y,1/4+x,3/4-z
1/2-x,1/2+y,1/2+z
1/2+x,-y,1/2+z
1/4-y,3/4-x,1/4+z
1/4+y,1/4+x,3/4+z
loop_
_atom_site_type_symbol
_atom_site_label
_atom_site_fract_x
_atom_site_fract_y
_atom_site_fract_z
Si Si1 0.357165 0.046334 0.383193
Si Si2 0.703600 0.250000 0.901170
Si Si3 0.000000 0.682891 0.846460
Si Si4 0.933934 0.379552 0.658142
Si Si5 0.877722 0.144884 0.978662
Si Si6 0.186649 0.250000 0.784955
Si Si7 0.500000 0.086099 0.657992
Si Si8 0.721490 0.456603 0.543900
O O1 0.433181 0.043642 0.379215
O O2 0.339838 0.118206 0.393055
O O3 0.328999 0.999980 0.425870
O O4 0.324488 0.020823 0.332036
O O5 0.635981 0.250000 0.928925
O O6 0.767027 0.250000 0.933920
O O7 0.938526 0.683026 0.881704
O O8 0.000000 0.750000 0.817743
O O9 0.932614 0.371698 0.718978
O O10 0.000000 0.410074 0.643009
O O11 0.872108 0.189528 0.929096
O O12 0.818193 0.100023 0.978630
O O13 0.938381 0.101745 0.979095
O O14 0.250000 0.250000 0.750000
O O15 0.181527 0.250000 0.847811
O O16 0.749620 0.500000 0.500000
#
# Coordination Sequence:
#
# PCOD9572780 Si02
#       8
#    32  16  16  32  32  16  16  32
#     4  10  21  33  53  73 100 135 171 215 258 313
#     4  10  18  32  51  68  98 132 170 212 267 306
#     4   8  17  29  48  71  95 120 167 213 244 307
#     4  10  19  34  52  74  96 126 167 213 264 308
#     4  12  23  36  51  72 100 136 179 229 270 310
#     4  12  29  37  53  69  96 144 196 229 273 319
#     4  12  24  38  50  71 103 142 179 233 275 311
#     4  11  21  34  50  72 103 133 175 213 254 311
#
# _framework density 16.031783000000001
#
# number of rings (size 3 to 8) (size 9 to 14) (size 15 to 20)
#    0.000    1.333    4.167    2.500    7.000    0.333 
#    0.000    1.250    0.000    0.500    0.000    0.000 
#    0.000    0.000    0.000    0.000    0.000    0.667 
#
# Total GULP energy -534575.090322 kJ/mol
# GULP energy per Si atom -5568.490524 kJ/mol
# Density = 1.599529 g / cm^3
# Si number density = 16.031783 Si / 1000 Ang^3
#
#
#
# Elastic Constant Matrix: (Units=GPa)
#
#
# Indices 1 2 3 4 5 6 
#
# 1 97.9803 29.4355 23.2064 0.0000 0.0000 0.0000
# 2 29.4355 97.9803 23.2064 0.0000 0.0000 0.0000
# 3 23.2064 23.2064 51.7808 0.0000 0.0000 0.0000
# 4 0.0000 0.0000 0.0000 9.0327 0.0000 0.0000
# 5 0.0000 0.0000 0.0000 0.0000 9.0327 0.0000
# 6 0.0000 0.0000 0.0000 0.0000 0.0000 9.5960
#
#
#
# Elastic Compliance Matrix: (Units=1/GPa)
#
#
# Indices 1 2 3 4 5 6 
#
# 1 0.011984 -0.002605 -0.004204 0.000000 0.000000 0.000000
# 2 -0.002605 0.011984 -0.004204 0.000000 0.000000 0.000000
# 3 -0.004204 -0.004204 0.023080 0.000000 0.000000 0.000000
# 4 0.000000 0.000000 0.000000 0.110708 0.000000 0.000000
# 5 0.000000 0.000000 0.000000 0.000000 0.110708 0.000000
# 6 0.000000 0.000000 0.000000 0.000000 0.000000 0.104211
#
#
# Mechanical properties :
#
#
# Convention : Reuss Voigt Hill
#
# Bulk Modulus (GPa) = 39.96050 44.38199 42.17124
# Shear Modulus (GPa) = 12.40568 16.99183 14.69875
#
# Velocity S-wave (km/s) = 2.78478 3.25912 3.03124
# Velocity P-wave (km/s) = 5.94305 6.47351 6.21394
#
# Compressibility (1/GPa) = 0.02502471
#
# Stress axis : x y z
#
# Youngs Moduli (GPa) = 83.44278 83.44278 43.32758
#
# Poissons Ratio (x) = 0.21735 0.18213
# Poissons Ratio (y) = 0.21735 0.18213
# Poissons Ratio (z) = 0.35076 0.35076
#
# Static dielectric constant tensor:
#      x y z
#    x 1.572360 0.000000 0.000000 
#    y 0.000000 1.572360 0.000000 
#    z 0.000000 0.000000 1.558080 
# 
# From -- ./inp_files/13137.got.cif
#   From: 2010.05.17/outbox.cif.g08.bks.cpg/sg141_7_cif.got.tgz:13137.got - 2010.05.20 13:30:51.
