data_PCOD9572507
_publ_section_title
;
Structure prediction by ZEFSAII (Michael W. Deem and Ramdas Pophale) SiO2 
 PCOD9572507
Probable space group: I 4/M C M
;
_chemical_formula_sum "Si O2"
_cell_formula_units_Z 128
_cell_length_a 30.047286
_cell_length_b 30.047286
_cell_length_c 9.689395
_cell_angle_alpha 90.000000
_cell_angle_beta 90.000000
_cell_angle_gamma 90.000000
_cell_volume 8747.967529
_symmetry_space_group_name_H-M "I 4/M C M"
_symmetry_group_IT_number 140
_symmetry_cell_setting 'tetragonal'
loop_
_space_group_symop_operation_xyz
x,y,z
-y,x,z
-x,-y,z
y,-x,z
x,-y,1/2-z
-x,y,1/2-z
y,x,1/2-z
-y,-x,1/2-z
-x,-y,-z
y,-x,-z
x,y,-z
-y,x,-z
-x,y,1/2+z
x,-y,1/2+z
-y,-x,1/2+z
y,x,1/2+z
1/2+x,1/2+y,1/2+z
1/2-y,1/2+x,1/2+z
1/2-x,1/2-y,1/2+z
1/2+y,1/2-x,1/2+z
1/2+x,1/2-y,-z
1/2-x,1/2+y,-z
1/2+y,1/2+x,-z
1/2-y,1/2-x,-z
1/2-x,1/2-y,1/2-z
1/2+y,1/2-x,1/2-z
1/2+x,1/2+y,1/2-z
1/2-y,1/2+x,1/2-z
1/2-x,1/2+y,z
1/2+x,1/2-y,z
1/2-y,1/2-x,z
1/2+y,1/2+x,z
loop_
_atom_site_type_symbol
_atom_site_label
_atom_site_fract_x
_atom_site_fract_y
_atom_site_fract_z
Si Si1 0.132580 0.993951 0.500000
Si Si2 0.869620 0.130381 0.250000
Si Si3 0.080884 0.097304 0.000000
Si Si4 0.500000 0.700048 0.750000
Si Si5 0.773567 0.902609 0.163804
Si Si6 0.245471 0.180109 0.662738
O O1 0.092039 0.028466 0.500000
O O2 0.111006 0.945901 0.500000
O O3 0.165961 0.001584 0.375647
O O4 0.875083 0.093592 0.133857
O O5 0.881226 0.176901 0.178178
O O6 0.453155 0.726169 0.724601
O O7 0.747486 0.866919 0.259416
O O8 0.761982 0.903245 0.000000
O O9 0.208965 0.208965 0.750000
O O10 0.231970 0.174397 0.500000
O O11 0.289667 0.210334 0.664280
#
# Coordination Sequence:
#
# PCOD9572507 Si02
#       6
#    16  16  16  16  32  32
#     4  12  22  35  48  64  88 116 156 206 260 313
#     4  12  20  32  47  67  84 116 148 190 246 300
#     4  12  22  35  48  60  87 116 152 200 258 314
#     4  12  22  36  50  73  94 118 160 213 254 308
#     4  12  23  34  53  75  93 124 163 201 253 299
#     4  10  22  36  52  76 104 131 159 195 244 304
#
# _framework density 14.631970000000001
#
# number of rings (size 3 to 8) (size 9 to 14) (size 15 to 20)
#    0.000    0.500    8.750    0.750    3.500    1.750 
#    0.000    0.000    0.000    3.000    0.000    0.000 
#    0.000    0.000    0.000    0.000    0.000    0.625 
#
# Total GULP energy -356411.332685 kJ/mol
# GULP energy per Si atom -5568.927073 kJ/mol
# Density = 1.459867 g / cm^3
# Si number density = 14.631970 Si / 1000 Ang^3
#
#
#
# Elastic Constant Matrix: (Units=GPa)
#
#
# Indices 1 2 3 4 5 6 
#
# 1 67.3656 28.0622 32.7000 0.0000 0.0000 0.0000
# 2 28.0622 67.3654 32.7006 0.0000 0.0000 0.0000
# 3 32.7000 32.7006 133.6289 0.0000 0.0000 0.0000
# 4 0.0000 0.0000 0.0000 18.4418 0.0000 0.0000
# 5 0.0000 0.0000 0.0000 0.0000 18.4417 0.0000
# 6 0.0000 0.0000 0.0000 0.0000 0.0000 20.7396
#
#
#
# Elastic Compliance Matrix: (Units=1/GPa)
#
#
# Indices 1 2 3 4 5 6 
#
# 1 0.019017 -0.006426 -0.003081 0.000000 0.000000 0.000000
# 2 -0.006426 0.019017 -0.003081 0.000000 0.000000 0.000000
# 3 -0.003081 -0.003081 0.008991 0.000000 0.000000 0.000000
# 4 0.000000 0.000000 0.000000 0.054225 0.000000 0.000000
# 5 0.000000 0.000000 0.000000 0.000000 0.054225 0.000000
# 6 0.000000 0.000000 0.000000 0.000000 0.000000 0.048217
#
#
# Mechanical properties :
#
#
# Convention : Reuss Voigt Hill
#
# Bulk Modulus (GPa) = 45.76971 50.58726 48.17848
# Shear Modulus (GPa) = 21.17288 23.18444 22.17866
#
# Velocity S-wave (km/s) = 3.80811 3.98490 3.89751
# Velocity P-wave (km/s) = 7.11928 7.47133 7.29743
#
# Compressibility (1/GPa) = 0.02184851
#
# Stress axis : x y z
#
# Youngs Moduli (GPa) = 52.58488 52.58441 111.21802
#
# Poissons Ratio (x) = 0.33792 0.34266
# Poissons Ratio (y) = 0.33792 0.34268
# Poissons Ratio (z) = 0.16201 0.16202
#
# Static dielectric constant tensor:
#      x y z
#    x 1.508070 0.000000 0.000000 
#    y 0.000000 1.508070 0.000000 
#    z 0.000000 0.000000 1.509600 
# 
# From -- ./inp_files/1561.got.cif
#   From: 2010.05.17/outbox.cif.g08.bks.cpg/sg140_1_cif.got.tgz:1561.got - 2010.06.21 00:45:31.
