data_PCOD9572125
_publ_section_title
;
Structure prediction by ZEFSAII (Michael W. Deem and Ramdas Pophale) SiO2 
 PCOD9572125
Probable space group: I 4/M C M
;
_chemical_formula_sum "Si O2"
_cell_formula_units_Z 160
_cell_length_a 32.439139
_cell_length_b 32.439139
_cell_length_c 9.082667
_cell_angle_alpha 90.000000
_cell_angle_beta 90.000000
_cell_angle_gamma 90.000000
_cell_volume 9557.669949
_symmetry_space_group_name_H-M "I 4/M C M"
_symmetry_group_IT_number 140
_symmetry_cell_setting 'tetragonal'
loop_
_space_group_symop_operation_xyz
x,y,z
-y,x,z
-x,-y,z
y,-x,z
x,-y,1/2-z
-x,y,1/2-z
y,x,1/2-z
-y,-x,1/2-z
-x,-y,-z
y,-x,-z
x,y,-z
-y,x,-z
-x,y,1/2+z
x,-y,1/2+z
-y,-x,1/2+z
y,x,1/2+z
1/2+x,1/2+y,1/2+z
1/2-y,1/2+x,1/2+z
1/2-x,1/2-y,1/2+z
1/2+y,1/2-x,1/2+z
1/2+x,1/2-y,-z
1/2-x,1/2+y,-z
1/2+y,1/2+x,-z
1/2-y,1/2-x,-z
1/2-x,1/2-y,1/2-z
1/2+y,1/2-x,1/2-z
1/2+x,1/2+y,1/2-z
1/2-y,1/2+x,1/2-z
1/2-x,1/2+y,z
1/2+x,1/2-y,z
1/2-y,1/2-x,z
1/2+y,1/2+x,z
loop_
_atom_site_type_symbol
_atom_site_label
_atom_site_fract_x
_atom_site_fract_y
_atom_site_fract_z
Si Si1 0.729471 0.545032 0.822819
Si Si2 0.113030 0.386971 0.832314
Si Si3 0.107758 0.832142 0.170688
Si Si4 0.317675 0.817675 0.165201
Si Si5 0.263169 0.321305 0.667752
Si Si6 0.323618 0.954896 0.821205
O O1 0.727121 0.500000 0.750000
O O2 0.692081 0.571933 0.757282
O O3 0.776558 0.560480 0.788209
O O4 0.726155 0.543149 0.000000
O O5 0.147914 0.352087 0.840718
O O6 0.074290 0.361344 0.768377
O O7 0.101150 0.398851 0.000000
O O8 0.127885 0.872116 0.250000
O O9 0.143785 0.797843 0.169606
O O10 0.096766 0.840936 0.000000
O O11 0.334067 0.777776 0.248678
O O12 0.305852 0.805852 0.000000
O O13 0.282571 0.282571 0.750000
O O14 0.253873 0.311660 0.500000
O O15 0.327287 0.000000 0.750000
O O16 0.325839 0.957136 0.000000
#
# Coordination Sequence:
#
# PCOD9572125 Si02
#       6
#    32  16  32  16  32  32
#     4  10  19  32  51  74 101 132 167 206 249 297
#     4   9  18  32  50  70  92 120 151 188 239 296
#     4  10  20  33  49  69  95 128 165 204 246 291
#     4  11  20  30  45  63  85 115 154 194 233 280
#     4  10  20  32  44  60  86 121 159 197 236 278
#     4   9  18  33  52  73  97 125 158 197 243 295
#
# _framework density 16.740480999999999
#
# number of rings (size 3 to 8) (size 9 to 14) (size 15 to 20)
#    0.000    2.200    0.000    3.600    0.000    4.800 
#    0.000    2.500    0.000    0.300    0.000    2.100 
#    0.000    0.400    0.000    4.000    0.000    2.400 
#
# Total GULP energy -445681.478325 kJ/mol
# GULP energy per Si atom -5571.018479 kJ/mol
# Density = 1.670238 g / cm^3
# Si number density = 16.740481 Si / 1000 Ang^3
#
#
#
# Elastic Constant Matrix: (Units=GPa)
#
#
# Indices 1 2 3 4 5 6 
#
# 1 89.5722 33.0890 33.3568 0.0000 0.0000 0.0000
# 2 33.0890 89.5724 33.3567 0.0000 0.0000 0.0000
# 3 33.3568 33.3567 92.8057 0.0000 0.0000 0.0000
# 4 0.0000 0.0000 0.0000 25.7705 0.0000 0.0000
# 5 0.0000 0.0000 0.0000 0.0000 25.7705 0.0000
# 6 0.0000 0.0000 0.0000 0.0000 0.0000 34.0037
#
#
#
# Elastic Compliance Matrix: (Units=1/GPa)
#
#
# Indices 1 2 3 4 5 6 
#
# 1 0.013919 -0.003785 -0.003642 0.000000 0.000000 0.000000
# 2 -0.003785 0.013919 -0.003642 0.000000 0.000000 0.000000
# 3 -0.003642 -0.003642 0.013393 0.000000 0.000000 0.000000
# 4 0.000000 0.000000 0.000000 0.038804 0.000000 0.000000
# 5 0.000000 0.000000 0.000000 0.000000 0.038804 0.000000
# 6 0.000000 0.000000 0.000000 0.000000 0.000000 0.029409
#
#
# Mechanical properties :
#
#
# Convention : Reuss Voigt Hill
#
# Bulk Modulus (GPa) = 52.37946 52.39504 52.38725
# Shear Modulus (GPa) = 28.28830 28.58547 28.43688
#
# Velocity S-wave (km/s) = 4.11519 4.13675 4.12599
# Velocity P-wave (km/s) = 7.34417 7.36093 7.35255
#
# Compressibility (1/GPa) = 0.01909145
#
# Stress axis : x y z
#
# Youngs Moduli (GPa) = 71.84454 71.84476 74.66354
#
# Poissons Ratio (x) = 0.27196 0.27194
# Poissons Ratio (y) = 0.27196 0.27194
# Poissons Ratio (z) = 0.26168 0.26167
#
# Static dielectric constant tensor:
#      x y z
#    x 1.570780 0.000000 0.000000 
#    y 0.000000 1.570780 0.000000 
#    z 0.000000 0.000000 1.585320 
# 
# From -- ./inp_files/1793.got.cif
#   From: 2010.05.17/outbox.cif.g08.bks.cpg/sg140_1_cif.got.tgz:1793.got - 2010.06.21 00:45:31.
