data_PCOD9572250
_publ_section_title
;
Structure prediction by ZEFSAII (Michael W. Deem and Ramdas Pophale) SiO2 
 PCOD9572250
Probable space group: I 4/M C M
;
_chemical_formula_sum "Si O2"
_cell_formula_units_Z 160
_cell_length_a 19.323522
_cell_length_b 19.323522
_cell_length_c 25.884533
_cell_angle_alpha 90.000000
_cell_angle_beta 90.000000
_cell_angle_gamma 90.000000
_cell_volume 9665.245860
_symmetry_space_group_name_H-M "I 4/M C M"
_symmetry_group_IT_number 140
_symmetry_cell_setting 'tetragonal'
loop_
_space_group_symop_operation_xyz
x,y,z
-y,x,z
-x,-y,z
y,-x,z
x,-y,1/2-z
-x,y,1/2-z
y,x,1/2-z
-y,-x,1/2-z
-x,-y,-z
y,-x,-z
x,y,-z
-y,x,-z
-x,y,1/2+z
x,-y,1/2+z
-y,-x,1/2+z
y,x,1/2+z
1/2+x,1/2+y,1/2+z
1/2-y,1/2+x,1/2+z
1/2-x,1/2-y,1/2+z
1/2+y,1/2-x,1/2+z
1/2+x,1/2-y,-z
1/2-x,1/2+y,-z
1/2+y,1/2+x,-z
1/2-y,1/2-x,-z
1/2-x,1/2-y,1/2-z
1/2+y,1/2-x,1/2-z
1/2+x,1/2+y,1/2-z
1/2-y,1/2+x,1/2-z
1/2-x,1/2+y,z
1/2+x,1/2-y,z
1/2-y,1/2-x,z
1/2+y,1/2+x,z
loop_
_atom_site_type_symbol
_atom_site_label
_atom_site_fract_x
_atom_site_fract_y
_atom_site_fract_z
Si Si1 0.942260 0.557741 0.442463
Si Si2 0.328131 0.990816 0.362311
Si Si3 0.256253 0.243747 0.369718
Si Si4 0.843931 0.848843 0.941212
Si Si5 0.137889 0.637889 0.314209
Si Si6 0.495414 0.706772 0.059075
Si Si7 0.343785 0.843785 0.307331
O O1 0.919586 0.580415 0.500000
O O2 0.882383 0.525101 0.407931
O O3 0.000000 0.500000 0.448122
O O4 0.348134 0.057866 0.329116
O O5 0.259892 0.007846 0.394129
O O6 0.324793 0.920073 0.329520
O O7 0.200358 0.200468 0.403616
O O8 0.310890 0.189111 0.345793
O O9 0.211816 0.288184 0.328292
O O10 0.828826 0.930071 0.935301
O O11 0.926145 0.838151 0.936162
O O12 0.824553 0.829217 0.000000
O O13 0.151629 0.651629 0.254123
O O14 0.493812 0.736625 0.000000
#
# Coordination Sequence:
#
# PCOD9572250 Si02
#       7
#    16  32  16  32  16  32  16
#     4  10  20  33  51  80 113 148 182 216 272 343
#     4  11  21  39  56  80 117 148 188 236 283 338
#     4  12  21  39  59  84 119 141 191 244 286 341
#     4  10  21  36  58  88 117 150 186 229 286 347
#     4  12  24  39  59  84 109 151 198 247 281 331
#     4  10  20  36  58  85 115 150 186 226 284 346
#     4  11  25  39  60  81 110 152 199 239 291 329
#
# _framework density 16.554157
#
# number of rings (size 3 to 8) (size 9 to 14) (size 15 to 20)
#    0.000    1.300    5.000    1.800    0.000    0.400 
#    0.000    3.000    0.000    0.000    0.000    0.000 
#    0.000    3.200    0.000    0.000    0.000    0.000 
#
# Total GULP energy -446000.206343 kJ/mol
# GULP energy per Si atom -5575.002579 kJ/mol
# Density = 1.651648 g / cm^3
# Si number density = 16.554157 Si / 1000 Ang^3
#
#
#
# Elastic Constant Matrix: (Units=GPa)
#
#
# Indices 1 2 3 4 5 6 
#
# 1 61.4812 14.9355 25.9253 0.0000 0.0000 0.0000
# 2 14.9355 61.4809 25.9251 0.0000 0.0000 0.0000
# 3 25.9253 25.9251 95.1652 0.0000 0.0000 0.0000
# 4 0.0000 0.0000 0.0000 90.5549 0.0000 0.0000
# 5 0.0000 0.0000 0.0000 0.0000 90.5643 0.0000
# 6 0.0000 0.0000 0.0000 0.0000 0.0000 29.5977
#
#
#
# Elastic Compliance Matrix: (Units=1/GPa)
#
#
# Indices 1 2 3 4 5 6 
#
# 1 0.018769 -0.002715 -0.004373 0.000000 0.000000 0.000000
# 2 -0.002715 0.018769 -0.004373 0.000000 0.000000 0.000000
# 3 -0.004373 -0.004373 0.012891 0.000000 0.000000 0.000000
# 4 0.000000 0.000000 0.000000 0.011043 0.000000 0.000000
# 5 0.000000 0.000000 0.000000 0.000000 0.011042 0.000000
# 6 0.000000 0.000000 0.000000 0.000000 0.000000 0.033786
#
#
# Mechanical properties :
#
#
# Convention : Reuss Voigt Hill
#
# Bulk Modulus (GPa) = 36.35757 39.07766 37.71762
# Shear Modulus (GPa) = 36.12910 52.23279 44.18095
#
# Velocity S-wave (km/s) = 4.67677 5.62327 5.17172
# Velocity P-wave (km/s) = 7.15356 8.11288 7.64827
#
# Compressibility (1/GPa) = 0.02750459
#
# Stress axis : x y z
#
# Youngs Moduli (GPa) = 53.27950 53.27932 77.57436
#
# Poissons Ratio (x) = 0.14467 0.33926
# Poissons Ratio (y) = 0.14467 0.33926
# Poissons Ratio (z) = 0.23301 0.23301
#
# Static dielectric constant tensor:
#      x y z
#    x 1.550440 0.000000 0.000000 
#    y 0.000000 1.550440 0.000000 
#    z 0.000000 0.000000 1.557200 
# 
# From -- ./inp_files/10614.got.cif
#   From: 2010.05.17/outbox.cif.g08.bks.cpg/sg140_6_cif.got.tgz:10614.got - 2010.06.21 00:45:31.
