data_PCOD9572707
_publ_section_title
;
Structure prediction by ZEFSAII (Michael W. Deem and Ramdas Pophale) SiO2 
 PCOD9572707
Probable space group: I 4/M C M
;
_chemical_formula_sum "Si O2"
_cell_formula_units_Z 96
_cell_length_a 18.320149
_cell_length_b 18.320149
_cell_length_c 11.247697
_cell_angle_alpha 90.000000
_cell_angle_beta 90.000000
_cell_angle_gamma 90.000000
_cell_volume 3775.040467
_symmetry_space_group_name_H-M "I 4/M C M"
_symmetry_group_IT_number 140
_symmetry_cell_setting 'tetragonal'
loop_
_space_group_symop_operation_xyz
x,y,z
-y,x,z
-x,-y,z
y,-x,z
x,-y,1/2-z
-x,y,1/2-z
y,x,1/2-z
-y,-x,1/2-z
-x,-y,-z
y,-x,-z
x,y,-z
-y,x,-z
-x,y,1/2+z
x,-y,1/2+z
-y,-x,1/2+z
y,x,1/2+z
1/2+x,1/2+y,1/2+z
1/2-y,1/2+x,1/2+z
1/2-x,1/2-y,1/2+z
1/2+y,1/2-x,1/2+z
1/2+x,1/2-y,-z
1/2-x,1/2+y,-z
1/2+y,1/2+x,-z
1/2-y,1/2-x,-z
1/2-x,1/2-y,1/2-z
1/2+y,1/2-x,1/2-z
1/2+x,1/2+y,1/2-z
1/2-y,1/2+x,1/2-z
1/2-x,1/2+y,z
1/2+x,1/2-y,z
1/2-y,1/2-x,z
1/2+y,1/2+x,z
loop_
_atom_site_type_symbol
_atom_site_label
_atom_site_fract_x
_atom_site_fract_y
_atom_site_fract_z
Si Si1 0.502033 0.673746 0.374359
Si Si2 0.336992 0.275079 0.127960
Si Si3 0.166735 0.452395 0.866550
O O1 0.500000 0.631411 0.250000
O O2 0.517558 0.635767 0.500000
O O3 0.422284 0.710437 0.379620
O O4 0.553195 0.745261 0.364321
O O5 0.309343 0.309343 0.250000
O O6 0.308105 0.191896 0.131140
O O7 0.308099 0.304341 0.000000
O O8 0.146388 0.500000 0.750000
O O9 0.123394 0.376607 0.859674
O O10 0.149475 0.483221 0.000000
#
# Coordination Sequence:
#
# PCOD9572707 Si02
#       3
#    32  32  32
#     4   9  18  31  47  69  97 128 163 205 253 303
#     4   9  18  33  52  72  95 127 171 224 276 318
#     4   9  18  31  44  59  84 122 166 206 242 283
#
# _framework density 25.43019
#
# number of rings (size 3 to 8) (size 9 to 14) (size 15 to 20)
#    0.000    3.000    0.000    0.000    0.000    7.667 
#    0.000    8.333    0.000    4.000    0.000    0.000 
#    0.000    0.667    0.000    7.333    0.000    5.333 
#
# Total GULP energy -267543.758770 kJ/mol
# GULP energy per Si atom -5573.828308 kJ/mol
# Density = 2.537231 g / cm^3
# Si number density = 25.430190 Si / 1000 Ang^3
#
#
#
# Elastic Constant Matrix: (Units=GPa)
#
#
# Indices 1 2 3 4 5 6 
#
# 1 47.3545 15.0120 24.6633 0.0000 0.0000 0.0000
# 2 15.0120 47.3545 24.6633 0.0000 0.0000 0.0000
# 3 24.6633 24.6633 341.5293 0.0000 0.0000 0.0000
# 4 0.0000 0.0000 0.0000 21.1236 0.0000 0.0000
# 5 0.0000 0.0000 0.0000 0.0000 21.1236 0.0000
# 6 0.0000 0.0000 0.0000 0.0000 0.0000 17.8774
#
#
#
# Elastic Compliance Matrix: (Units=1/GPa)
#
#
# Indices 1 2 3 4 5 6 
#
# 1 0.023962 -0.006957 -0.001228 0.000000 0.000000 0.000000
# 2 -0.006957 0.023962 -0.001228 0.000000 0.000000 0.000000
# 3 -0.001228 -0.001228 0.003105 0.000000 0.000000 0.000000
# 4 0.000000 0.000000 0.000000 0.047340 0.000000 0.000000
# 5 0.000000 0.000000 0.000000 0.000000 0.047340 0.000000
# 6 0.000000 0.000000 0.000000 0.000000 0.000000 0.055936
#
#
# Mechanical properties :
#
#
# Convention : Reuss Voigt Hill
#
# Bulk Modulus (GPa) = 31.05179 62.76836 46.91008
# Shear Modulus (GPa) = 21.62557 36.81824 29.22190
#
# Velocity S-wave (km/s) = 2.91931 3.80915 3.39352
# Velocity P-wave (km/s) = 4.85801 6.63945 5.81733
#
# Compressibility (1/GPa) = 0.03220426
#
# Stress axis : x y z
#
# Youngs Moduli (GPa) = 41.73222 41.73222 322.02278
#
# Poissons Ratio (x) = 0.29032 0.39546
# Poissons Ratio (y) = 0.29032 0.39546
# Poissons Ratio (z) = 0.05125 0.05125
#
# Static dielectric constant tensor:
#      x y z
#    x 1.996570 0.000000 0.000000 
#    y 0.000000 1.996570 0.000000 
#    z 0.000000 0.000000 2.162620 
# 
# From -- ./inp_files/2564.got.cif
#   From: 2010.05.17/outbox.cif.g08.bks.cpg/sg140_2_cif.got.tgz:2564.got - 2010.06.21 00:45:31.
