data_PCOD9572144
_publ_section_title
;
Structure prediction by ZEFSAII (Michael W. Deem and Ramdas Pophale) SiO2 
 PCOD9572144
Probable space group: I 4/M C M
;
_chemical_formula_sum "Si O2"
_cell_formula_units_Z 160
_cell_length_a 23.670802
_cell_length_b 23.670802
_cell_length_c 13.856350
_cell_angle_alpha 90.000000
_cell_angle_beta 90.000000
_cell_angle_gamma 90.000000
_cell_volume 7763.808061
_symmetry_space_group_name_H-M "I 4/M C M"
_symmetry_group_IT_number 140
_symmetry_cell_setting 'tetragonal'
loop_
_space_group_symop_operation_xyz
x,y,z
-y,x,z
-x,-y,z
y,-x,z
x,-y,1/2-z
-x,y,1/2-z
y,x,1/2-z
-y,-x,1/2-z
-x,-y,-z
y,-x,-z
x,y,-z
-y,x,-z
-x,y,1/2+z
x,-y,1/2+z
-y,-x,1/2+z
y,x,1/2+z
1/2+x,1/2+y,1/2+z
1/2-y,1/2+x,1/2+z
1/2-x,1/2-y,1/2+z
1/2+y,1/2-x,1/2+z
1/2+x,1/2-y,-z
1/2-x,1/2+y,-z
1/2+y,1/2+x,-z
1/2-y,1/2-x,-z
1/2-x,1/2-y,1/2-z
1/2+y,1/2-x,1/2-z
1/2+x,1/2+y,1/2-z
1/2-y,1/2+x,1/2-z
1/2-x,1/2+y,z
1/2+x,1/2-y,z
1/2-y,1/2-x,z
1/2+y,1/2+x,z
loop_
_atom_site_type_symbol
_atom_site_label
_atom_site_fract_x
_atom_site_fract_y
_atom_site_fract_z
Si Si1 0.463937 0.201852 0.887493
Si Si2 0.527195 0.667561 0.117661
Si Si3 0.671943 0.915099 0.690992
Si Si4 0.678900 0.266961 0.845087
Si Si5 0.367720 0.403385 0.110807
O O1 0.457441 0.267867 0.859844
O O2 0.529492 0.186855 0.869684
O O3 0.430377 0.169014 0.804533
O O4 0.448612 0.193506 0.000000
O O5 0.575816 0.625016 0.152433
O O6 0.463596 0.653351 0.150813
O O7 0.527184 0.666356 0.000000
O O8 0.614158 0.885843 0.659095
O O9 0.721017 0.869090 0.677748
O O10 0.705965 0.294036 0.750000
O O11 0.730541 0.230541 0.891686
O O12 0.644136 0.318726 0.890696
O O13 0.382059 0.416419 0.000000
#
# Coordination Sequence:
#
# PCOD9572144 Si02
#       5
#    32  32  32  32  32
#     4  10  20  37  59  84 117 153 193 238 294 354
#     4   9  18  32  52  78 109 153 200 243 292 340
#     4  10  21  36  58  87 117 150 192 241 291 352
#     4  10  20  34  52  78 112 149 190 240 298 353
#     4  10  19  33  52  77 111 151 198 245 293 347
#
# _framework density 20.608443000000001
#
# number of rings (size 3 to 8) (size 9 to 14) (size 15 to 20)
#    0.000    2.200    2.000    1.200    0.000    1.600 
#    0.000    4.000    0.000   12.000    0.000    7.000 
#    0.000    0.000    0.000    0.000    0.000    0.000 
#
# Total GULP energy -446215.752675 kJ/mol
# GULP energy per Si atom -5577.696908 kJ/mol
# Density = 2.056154 g / cm^3
# Si number density = 20.608443 Si / 1000 Ang^3
#
#
#
# Elastic Constant Matrix: (Units=GPa)
#
#
# Indices 1 2 3 4 5 6 
#
# 1 67.4004 29.9171 -11.6592 0.0000 0.0000 0.0000
# 2 29.9171 67.3999 -11.6590 0.0000 0.0000 0.0000
# 3 -11.6592 -11.6590 53.5018 0.0000 0.0000 0.0000
# 4 0.0000 0.0000 0.0000 23.5793 0.0000 0.0000
# 5 0.0000 0.0000 0.0000 0.0000 23.5772 0.0000
# 6 0.0000 0.0000 0.0000 0.0000 0.0000 36.5742
#
#
#
# Elastic Compliance Matrix: (Units=1/GPa)
#
#
# Indices 1 2 3 4 5 6 
#
# 1 0.018760 -0.007918 0.002363 0.000000 0.000000 0.000000
# 2 -0.007918 0.018760 0.002363 0.000000 0.000000 0.000000
# 3 0.002363 0.002363 0.019721 0.000000 0.000000 0.000000
# 4 0.000000 0.000000 0.000000 0.042410 0.000000 0.000000
# 5 0.000000 0.000000 0.000000 0.000000 0.042414 0.000000
# 6 0.000000 0.000000 0.000000 0.000000 0.000000 0.027342
#
#
# Mechanical properties :
#
#
# Convention : Reuss Voigt Hill
#
# Bulk Modulus (GPa) = 19.66382 22.38888 21.02635
# Shear Modulus (GPa) = 25.94104 28.85969 27.40036
#
# Velocity S-wave (km/s) = 3.55175 3.74623 3.65028
# Velocity P-wave (km/s) = 5.13636 5.44057 5.29065
#
# Compressibility (1/GPa) = 0.05085483
#
# Stress axis : x y z
#
# Youngs Moduli (GPa) = 53.30433 53.30402 50.70812
#
# Poissons Ratio (x) = 0.42209 -0.11981
# Poissons Ratio (y) = 0.42209 -0.11980
# Poissons Ratio (z) = -0.12594 -0.12594
#
# Static dielectric constant tensor:
#      x y z
#    x 1.720900 0.000000 0.000000 
#    y 0.000000 1.720900 0.000000 
#    z 0.000000 0.000000 1.775190 
# 
# From -- ./inp_files/4690.got.cif
#   From: 2010.05.17/outbox.cif.g08.bks.cpg/sg140_3_cif.got.tgz:4690.got - 2010.06.21 00:45:31.
