data_PCOD9572481
_publ_section_title
;
Structure prediction by ZEFSAII (Michael W. Deem and Ramdas Pophale) SiO2 
 PCOD9572481
Probable space group: I 4/M C M
;
_chemical_formula_sum "Si O2"
_cell_formula_units_Z 176
_cell_length_a 18.228908
_cell_length_b 18.228908
_cell_length_c 26.886833
_cell_angle_alpha 90.000000
_cell_angle_beta 90.000000
_cell_angle_gamma 90.000000
_cell_volume 8934.308734
_symmetry_space_group_name_H-M "I 4/M C M"
_symmetry_group_IT_number 140
_symmetry_cell_setting 'tetragonal'
loop_
_space_group_symop_operation_xyz
x,y,z
-y,x,z
-x,-y,z
y,-x,z
x,-y,1/2-z
-x,y,1/2-z
y,x,1/2-z
-y,-x,1/2-z
-x,-y,-z
y,-x,-z
x,y,-z
-y,x,-z
-x,y,1/2+z
x,-y,1/2+z
-y,-x,1/2+z
y,x,1/2+z
1/2+x,1/2+y,1/2+z
1/2-y,1/2+x,1/2+z
1/2-x,1/2-y,1/2+z
1/2+y,1/2-x,1/2+z
1/2+x,1/2-y,-z
1/2-x,1/2+y,-z
1/2+y,1/2+x,-z
1/2-y,1/2-x,-z
1/2-x,1/2-y,1/2-z
1/2+y,1/2-x,1/2-z
1/2+x,1/2+y,1/2-z
1/2-y,1/2+x,1/2-z
1/2-x,1/2+y,z
1/2+x,1/2-y,z
1/2-y,1/2-x,z
1/2+y,1/2+x,z
loop_
_atom_site_type_symbol
_atom_site_label
_atom_site_fract_x
_atom_site_fract_y
_atom_site_fract_z
Si Si1 0.140715 0.077164 0.500000
Si Si2 0.126648 0.250381 0.742846
Si Si3 0.747143 0.126575 0.500000
Si Si4 0.385807 0.473690 0.890573
Si Si5 0.534860 0.155202 0.420909
Si Si6 0.257258 0.989952 0.829196
Si Si7 0.579641 0.813467 0.500000
O O1 0.125125 0.164781 0.500000
O O2 0.115752 0.036788 0.450009
O O3 0.227816 0.070889 0.500000
O O4 0.179020 0.179020 0.750000
O O5 0.182001 0.318000 0.731285
O O6 0.063774 0.237327 0.701490
O O7 0.077514 0.269357 0.791510
O O8 0.705550 0.205550 0.500000
O O9 0.715959 0.084130 0.548932
O O10 0.446806 0.415181 0.874735
O O11 0.307581 0.464308 0.865916
O O12 0.581392 0.081392 0.423541
O O13 0.514616 0.177393 0.365299
O O14 0.461536 0.153596 0.452763
O O15 0.663253 0.836748 0.500000
#
# Coordination Sequence:
#
# PCOD9572481 Si02
#       7
#    16  32  16  32  32  32  16
#     4  12  21  36  56  82 128 164 199 243 286 339
#     4  10  23  42  64  90 118 151 195 250 309 367
#     4   9  20  36  58  88 123 167 211 244 290 342
#     4  11  23  36  56  89 124 161 198 233 286 353
#     4  10  21  39  61  86 116 158 202 244 292 350
#     4  11  21  40  64  88 118 154 196 247 303 359
#     4  11  23  38  54  82 119 157 198 242 287 341
#
# _framework density 19.699342000000001
#
# number of rings (size 3 to 8) (size 9 to 14) (size 15 to 20)
#    0.000    1.455    1.818    4.364    2.545    2.182 
#    0.000    1.818    0.000   13.091    0.000    0.000 
#    0.000    0.000    0.000    0.000    0.000    0.000 
#
# Total GULP energy -491113.122378 kJ/mol
# GULP energy per Si atom -5580.830936 kJ/mol
# Density = 1.965451 g / cm^3
# Si number density = 19.699342 Si / 1000 Ang^3
#
#
#
# Elastic Constant Matrix: (Units=GPa)
#
#
# Indices 1 2 3 4 5 6 
#
# 1 66.7912 32.8086 4.8923 0.0000 0.0000 0.0000
# 2 32.8086 66.7958 4.8930 0.0000 0.0000 0.0000
# 3 4.8923 4.8930 77.0812 0.0000 0.0000 0.0000
# 4 0.0000 0.0000 0.0000 1.1446 0.0000 0.0000
# 5 0.0000 0.0000 0.0000 0.0000 1.1442 0.0000
# 6 0.0000 0.0000 0.0000 0.0000 0.0000 11.8772
#
#
#
# Elastic Compliance Matrix: (Units=1/GPa)
#
#
# Indices 1 2 3 4 5 6 
#
# 1 0.019765 -0.009661 -0.000641 0.000000 0.000000 0.000000
# 2 -0.009661 0.019763 -0.000641 0.000000 0.000000 0.000000
# 3 -0.000641 -0.000641 0.013055 0.000000 0.000000 0.000000
# 4 0.000000 0.000000 0.000000 0.873652 0.000000 0.000000
# 5 0.000000 0.000000 0.000000 0.000000 0.874009 0.000000
# 6 0.000000 0.000000 0.000000 0.000000 0.000000 0.084195
#
#
# Mechanical properties :
#
#
# Convention : Reuss Voigt Hill
#
# Bulk Modulus (GPa) = 32.57803 32.87290 32.72546
# Shear Modulus (GPa) = 2.60884 14.03815 8.32350
#
# Velocity S-wave (km/s) = 1.15204 2.67239 2.05778
# Velocity P-wave (km/s) = 4.28289 5.12306 4.72170
#
# Compressibility (1/GPa) = 0.03069553
#
# Stress axis : x y z
#
# Youngs Moduli (GPa) = 50.59553 50.59898 76.60056
#
# Poissons Ratio (x) = 0.48884 0.04911
# Poissons Ratio (y) = 0.48880 0.04913
# Poissons Ratio (z) = 0.03244 0.03245
#
# Static dielectric constant tensor:
#      x y z
#    x 1.687030 0.000000 0.000000 
#    y 0.000000 1.687030 0.000000 
#    z 0.000000 0.000000 1.840510 
# 
# From -- ./inp_files/10775.got.cif
#   From: 2010.05.17/outbox.cif.g08.bks.cpg/sg140_6_cif.got.tgz:10775.got - 2010.06.21 00:45:31.
