data_PCOD9572003
_publ_section_title
;
Structure prediction by ZEFSAII (Michael W. Deem and Ramdas Pophale) SiO2 
 PCOD9572003
Probable space group: I 4/M C M
;
_chemical_formula_sum "Si O2"
_cell_formula_units_Z 176
_cell_length_a 19.089004
_cell_length_b 19.089004
_cell_length_c 23.960487
_cell_angle_alpha 90.000000
_cell_angle_beta 90.000000
_cell_angle_gamma 90.000000
_cell_volume 8730.963624
_symmetry_space_group_name_H-M "I 4/M C M"
_symmetry_group_IT_number 140
_symmetry_cell_setting 'tetragonal'
loop_
_space_group_symop_operation_xyz
x,y,z
-y,x,z
-x,-y,z
y,-x,z
x,-y,1/2-z
-x,y,1/2-z
y,x,1/2-z
-y,-x,1/2-z
-x,-y,-z
y,-x,-z
x,y,-z
-y,x,-z
-x,y,1/2+z
x,-y,1/2+z
-y,-x,1/2+z
y,x,1/2+z
1/2+x,1/2+y,1/2+z
1/2-y,1/2+x,1/2+z
1/2-x,1/2-y,1/2+z
1/2+y,1/2-x,1/2+z
1/2+x,1/2-y,-z
1/2-x,1/2+y,-z
1/2+y,1/2+x,-z
1/2-y,1/2-x,-z
1/2-x,1/2-y,1/2-z
1/2+y,1/2-x,1/2-z
1/2+x,1/2+y,1/2-z
1/2-y,1/2+x,1/2-z
1/2-x,1/2+y,z
1/2+x,1/2-y,z
1/2-y,1/2-x,z
1/2+y,1/2+x,z
loop_
_atom_site_type_symbol
_atom_site_label
_atom_site_fract_x
_atom_site_fract_y
_atom_site_fract_z
Si Si1 0.332784 0.389017 0.103812
Si Si2 0.540180 0.683202 0.935900
Si Si3 0.205197 0.294804 0.901719
Si Si4 0.581155 0.303209 0.231427
Si Si5 0.951473 0.659990 0.431817
Si Si6 0.807044 0.307044 0.268610
Si Si7 0.093835 0.406166 0.064509
O O1 0.413853 0.367859 0.101635
O O2 0.324749 0.456957 0.065542
O O3 0.283652 0.322884 0.086432
O O4 0.307832 0.413941 0.164411
O O5 0.554790 0.760811 0.914027
O O6 0.564449 0.675368 0.000000
O O7 0.192817 0.307184 0.835847
O O8 0.152791 0.347210 0.932933
O O9 0.500000 0.307915 0.250000
O O10 0.631835 0.368166 0.250000
O O11 0.619581 0.229693 0.249452
O O12 0.955013 0.661771 0.500000
O O13 0.886148 0.613853 0.415163
O O14 0.022685 0.624280 0.410671
O O15 0.750000 0.250000 0.250000
O O16 0.077320 0.422681 0.000000
#
# Coordination Sequence:
#
# PCOD9572003 Si02
#       7
#    32  32  16  32  32  16  16
#     4  11  23  39  59  84 115 149 192 236 288 343
#     4  11  23  38  55  80 117 159 198 234 277 333
#     4  10  20  35  58  84 113 144 183 234 279 333
#     4  10  20  38  64  90 115 144 187 241 295 349
#     4   9  18  32  51  79 112 151 197 239 279 325
#     4   8  18  36  59  86 113 144 177 225 293 356
#     4  10  17  30  54  80 114 155 191 231 281 330
#
# _framework density 20.158142000000002
#
# number of rings (size 3 to 8) (size 9 to 14) (size 15 to 20)
#    0.000    2.000    1.818    1.909    1.273    2.364 
#    0.000    2.727    2.000    0.273    0.000    0.000 
#    0.000    0.000    0.000    0.000    0.000    0.000 
#
# Total GULP energy -490500.102528 kJ/mol
# GULP energy per Si atom -5573.864801 kJ/mol
# Density = 2.011226 g / cm^3
# Si number density = 20.158142 Si / 1000 Ang^3
#
#
#
# Elastic Constant Matrix: (Units=GPa)
#
#
# Indices 1 2 3 4 5 6 
#
# 1 70.8818 67.4887 18.9282 0.0000 0.0000 0.0000
# 2 67.4887 70.8805 18.9255 0.0000 0.0000 0.0000
# 3 18.9282 18.9255 27.5912 0.0000 0.0000 0.0000
# 4 0.0000 0.0000 0.0000 -66.0498 0.0000 0.0000
# 5 0.0000 0.0000 0.0000 0.0000 -66.0606 0.0000
# 6 0.0000 0.0000 0.0000 0.0000 0.0000 24.5081
#
#
#
# Elastic Compliance Matrix: (Units=1/GPa)
#
#
# Indices 1 2 3 4 5 6 
#
# 1 0.151839 -0.142939 -0.006119 0.000000 0.000000 0.000000
# 2 -0.142939 0.151833 -0.006087 0.000000 0.000000 0.000000
# 3 -0.006119 -0.006087 0.044616 0.000000 0.000000 0.000000
# 4 0.000000 0.000000 0.000000 -0.015140 0.000000 0.000000
# 5 0.000000 0.000000 0.000000 0.000000 -0.015138 0.000000
# 6 0.000000 0.000000 0.000000 0.000000 0.000000 0.040803
#
#
# Mechanical properties :
#
#
# Convention : Reuss Voigt Hill
#
# Bulk Modulus (GPa) = 26.31710 42.22649 34.27180
# Shear Modulus (GPa) = 7.33387 -17.25306 -4.95960
#
# Velocity S-wave (km/s) = 1.90947 -2.92873 -1.57025
# Velocity P-wave (km/s) = 4.23616 3.09136 3.70821
#
# Compressibility (1/GPa) = 0.03799810
#
# Stress axis : x y z
#
# Youngs Moduli (GPa) = 6.58594 6.58620 22.41336
#
# Poissons Ratio (x) = 0.94143 0.13715
# Poissons Ratio (y) = 0.94139 0.13642
# Poissons Ratio (z) = 0.04030 0.04009
#
# Static dielectric constant tensor:
#      x y z
#    x 1.742150 0.000000 0.000000 
#    y 0.000000 1.742150 0.000000 
#    z 0.000000 0.000000 1.749940 
# 
# From -- ./inp_files/10730.got.cif
#   From: 2010.05.17/outbox.cif.g08.bks.cpg/sg140_6_cif.got.tgz:10730.got - 2010.06.21 00:45:31.
