data_PCOD9572936
_publ_section_title
;
Structure prediction by ZEFSAII (Michael W. Deem and Ramdas Pophale) SiO2 
 PCOD9572936
Probable space group: I 41/A M D
;
_chemical_formula_sum "Si O2"
_cell_formula_units_Z 160
_cell_length_a 18.027703
_cell_length_b 18.027703
_cell_length_c 25.437378
_cell_angle_alpha 90.000000
_cell_angle_beta 90.000000
_cell_angle_gamma 90.000000
_cell_volume 8267.098895
_symmetry_space_group_name_H-M "I 41/A M D"
_symmetry_group_IT_number 141
_space_group.IT_coordinate_system_code '2'
_symmetry_cell_setting 'tetragonal'
loop_
_space_group_symop_operation_xyz
x,y,z
1/4-y,3/4+x,1/4+z
-x,1/2-y,z
1/4+y,1/4-x,3/4+z
x,-y,-z
-x,1/2+y,-z
1/4+y,3/4+x,1/4-z
1/4-y,1/4-x,3/4-z
-x,-y,-z
3/4+y,1/4-x,3/4-z
x,1/2+y,-z
3/4-y,3/4+x,1/4-z
-x,y,z
x,1/2-y,z
3/4-y,1/4-x,3/4+z
3/4+y,3/4+x,1/4+z
1/2+x,1/2+y,1/2+z
3/4-y,1/4+x,3/4+z
1/2-x,-y,1/2+z
3/4+y,3/4-x,1/4+z
1/2+x,1/2-y,1/2-z
1/2-x,y,1/2-z
3/4+y,1/4+x,3/4-z
3/4-y,3/4-x,1/4-z
1/2-x,1/2-y,1/2-z
1/4+y,3/4-x,1/4-z
1/2+x,y,1/2-z
1/4-y,1/4+x,3/4-z
1/2-x,1/2+y,1/2+z
1/2+x,-y,1/2+z
1/4-y,3/4-x,1/4+z
1/4+y,1/4+x,3/4+z
loop_
_atom_site_type_symbol
_atom_site_label
_atom_site_fract_x
_atom_site_fract_y
_atom_site_fract_z
Si Si1 0.913076 0.902846 0.457890
Si Si2 0.911053 0.422289 0.918116
Si Si3 0.582401 0.340549 0.766665
Si Si4 0.667875 0.338069 0.865895
Si Si5 0.587787 0.926241 0.920474
O O1 0.857721 0.853992 0.424197
O O2 0.898396 0.895963 0.520172
O O3 0.000000 0.883565 0.450114
O O4 0.903274 0.985619 0.432971
O O5 0.886858 0.363143 0.875000
O O6 0.881405 0.502147 0.900665
O O7 0.000000 0.426007 0.920433
O O8 0.884950 0.393328 0.974563
O O9 0.500000 0.366075 0.752580
O O10 0.581058 0.250000 0.765694
O O11 0.606434 0.365211 0.824438
O O12 0.672168 0.250000 0.858846
O O13 0.500000 0.913918 0.907763
O O14 0.639336 0.889336 0.875000
#
# Coordination Sequence:
#
# PCOD9572936 Si02
#       5
#    32  32  32  32  32
#     4   9  19  37  58  81 113 151 186 227 283 344
#     4  10  20  34  51  74 108 146 187 235 280 330
#     4   9  17  31  53  77 101 137 183 226 274 328
#     4  10  20  34  53  80 111 142 184 234 279 329
#     4   9  19  37  60  85 112 145 188 232 280 340
#
# _framework density 19.353826999999999
#
# number of rings (size 3 to 8) (size 9 to 14) (size 15 to 20)
#    0.000    2.600    0.000    3.000    0.000    6.400 
#    3.600    2.000    0.000    0.000    0.000    0.000 
#    0.000    0.000    0.000    0.000    0.000    0.000 
#
# Total GULP energy -445567.515911 kJ/mol
# GULP energy per Si atom -5569.593949 kJ/mol
# Density = 1.930978 g / cm^3
# Si number density = 19.353827 Si / 1000 Ang^3
#
#
#
# Elastic Constant Matrix: (Units=GPa)
#
#
# Indices 1 2 3 4 5 6 
#
# 1 49.3789 15.7621 31.5483 0.0000 0.0000 0.0000
# 2 15.7621 49.3774 31.5476 0.0000 0.0000 0.0000
# 3 31.5483 31.5476 99.4072 0.0000 0.0000 0.0000
# 4 0.0000 0.0000 0.0000 -13.2278 0.0000 0.0000
# 5 0.0000 0.0000 0.0000 0.0000 -13.1763 0.0000
# 6 0.0000 0.0000 0.0000 0.0000 0.0000 20.5185
#
#
#
# Elastic Compliance Matrix: (Units=1/GPa)
#
#
# Indices 1 2 3 4 5 6 
#
# 1 0.025956 -0.003791 -0.007034 0.000000 0.000000 0.000000
# 2 -0.003791 0.025957 -0.007034 0.000000 0.000000 0.000000
# 3 -0.007034 -0.007034 0.014524 0.000000 0.000000 0.000000
# 4 0.000000 0.000000 0.000000 -0.075599 0.000000 0.000000
# 5 0.000000 0.000000 0.000000 0.000000 -0.075894 0.000000
# 6 0.000000 0.000000 0.000000 0.000000 0.000000 0.048736
#
#
# Mechanical properties :
#
#
# Convention : Reuss Voigt Hill
#
# Bulk Modulus (GPa) = 32.55496 39.54217 36.04857
# Shear Modulus (GPa) = 518.67029 6.77660 262.72344
#
# Velocity S-wave (km/s) = 16.38827 1.87324 11.66371
# Velocity P-wave (km/s) = 19.36383 5.01540 14.14412
#
# Compressibility (1/GPa) = 0.03071729
#
# Stress axis : x y z
#
# Youngs Moduli (GPa) = 38.52677 38.52564 68.84935
#
# Poissons Ratio (x) = 0.14606 0.48431
# Poissons Ratio (y) = 0.14607 0.48431
# Poissons Ratio (z) = 0.27101 0.27100
#
# Static dielectric constant tensor:
#      x y z
#    x 1.699860 0.000000 0.000000 
#    y 0.000000 1.699850 0.000000 
#    z 0.000000 0.000000 1.684140 
# 
# From -- ./inp_files/12665.got.cif
#   From: 2010.05.17/outbox.cif.g08.bks.cpg/sg141_7_cif.got.tgz:12665.got - 2010.05.20 13:30:51.
