data_PCOD9572588
_publ_section_title
;
Structure prediction by ZEFSAII (Michael W. Deem and Ramdas Pophale) SiO2 
 PCOD9572588
Probable space group: I 4/M C M
;
_chemical_formula_sum "Si O2"
_cell_formula_units_Z 92
_cell_length_a 14.889603
_cell_length_b 14.889603
_cell_length_c 20.060609
_cell_angle_alpha 90.000000
_cell_angle_beta 90.000000
_cell_angle_gamma 90.000000
_cell_volume 4447.442582
_symmetry_space_group_name_H-M "I 4/M C M"
_symmetry_group_IT_number 140
_symmetry_cell_setting 'tetragonal'
loop_
_space_group_symop_operation_xyz
x,y,z
-y,x,z
-x,-y,z
y,-x,z
x,-y,1/2-z
-x,y,1/2-z
y,x,1/2-z
-y,-x,1/2-z
-x,-y,-z
y,-x,-z
x,y,-z
-y,x,-z
-x,y,1/2+z
x,-y,1/2+z
-y,-x,1/2+z
y,x,1/2+z
1/2+x,1/2+y,1/2+z
1/2-y,1/2+x,1/2+z
1/2-x,1/2-y,1/2+z
1/2+y,1/2-x,1/2+z
1/2+x,1/2-y,-z
1/2-x,1/2+y,-z
1/2+y,1/2+x,-z
1/2-y,1/2-x,-z
1/2-x,1/2-y,1/2-z
1/2+y,1/2-x,1/2-z
1/2+x,1/2+y,1/2-z
1/2-y,1/2+x,1/2-z
1/2-x,1/2+y,z
1/2+x,1/2-y,z
1/2-y,1/2-x,z
1/2+y,1/2+x,z
loop_
_atom_site_type_symbol
_atom_site_label
_atom_site_fract_x
_atom_site_fract_y
_atom_site_fract_z
Si Si1 0.316725 0.183276 0.500000
Si Si2 0.307515 0.396895 0.500000
Si Si3 0.930447 0.569554 0.896642
Si Si4 0.000000 0.000000 0.000000
Si Si5 0.711839 0.930675 0.858341
Si Si6 0.349383 0.500000 0.750000
O O1 0.330259 0.290501 0.500000
O O2 0.366260 0.133740 0.560630
O O3 0.398412 0.454145 0.500000
O O4 0.249742 0.418199 0.433492
O O5 0.865607 0.504803 0.856715
O O6 0.000000 0.500000 0.931557
O O7 0.664126 0.835875 0.838400
O O8 0.787623 0.974153 0.812418
O O9 0.414985 0.414985 0.750000
#
# Coordination Sequence:
#
# PCOD9572588 Si02
#       6
#     8  16  16   4  32  16
#     4  12  23  42  70 105 144 182 230 294 354 431
#     4  12  26  43  69 110 144 184 241 295 360 441
#     4  10  23  42  70 101 136 184 229 293 358 416
#     4  12  28  36  72 106 152 196 232 290 388 424
#     4  11  25  48  73 106 143 185 244 298 360 436
#     4  11  30  48  69 100 148 194 241 300 366 429
#
# _framework density 20.686046000000001
#
# number of rings (size 3 to 8) (size 9 to 14) (size 15 to 20)
#    0.000    0.870    1.739    3.391   12.174    3.478 
#    0.000    0.000    0.000    0.000    0.000    0.000 
#    0.000    0.000    0.000    0.000    0.000    0.000 
#
# Total GULP energy -256078.406104 kJ/mol
# GULP energy per Si atom -5566.921872 kJ/mol
# Density = 2.063896 g / cm^3
# Si number density = 20.686046 Si / 1000 Ang^3
#
#
#
# Elastic Constant Matrix: (Units=GPa)
#
#
# Indices 1 2 3 4 5 6 
#
# 1 223.2296 9.6027 53.3806 0.0000 0.0000 0.0000
# 2 9.6027 223.2304 53.3803 0.0000 0.0000 0.0000
# 3 53.3806 53.3803 103.0801 0.0000 0.0000 0.0000
# 4 0.0000 0.0000 0.0000 71.1725 0.0000 0.0000
# 5 0.0000 0.0000 0.0000 0.0000 71.1792 0.0000
# 6 0.0000 0.0000 0.0000 0.0000 0.0000 245.0437
#
#
#
# Elastic Compliance Matrix: (Units=1/GPa)
#
#
# Indices 1 2 3 4 5 6 
#
# 1 0.005157 0.000476 -0.002917 0.000000 0.000000 0.000000
# 2 0.000476 0.005157 -0.002917 0.000000 0.000000 0.000000
# 3 -0.002917 -0.002917 0.012722 0.000000 0.000000 0.000000
# 4 0.000000 0.000000 0.000000 0.014050 0.000000 0.000000
# 5 0.000000 0.000000 0.000000 0.000000 0.014049 0.000000
# 6 0.000000 0.000000 0.000000 0.000000 0.000000 0.004081
#
#
# Mechanical properties :
#
#
# Convention : Reuss Voigt Hill
#
# Bulk Modulus (GPa) = 81.16992 86.91860 84.04426
# Shear Modulus (GPa) = 71.38979 106.35752 88.87365
#
# Velocity S-wave (km/s) = 5.88099 7.17821 6.56173
# Velocity P-wave (km/s) = 9.24331 10.52670 9.90581
#
# Compressibility (1/GPa) = 0.01231983
#
# Stress axis : x y z
#
# Youngs Moduli (GPa) = 193.92214 193.92326 78.60350
#
# Poissons Ratio (x) = -0.09224 0.22927
# Poissons Ratio (y) = -0.09224 0.22926
# Poissons Ratio (z) = 0.56562 0.56562
#
# Static dielectric constant tensor:
#      x y z
#    x 1.462400 0.000000 0.000000 
#    y 0.000000 1.462410 0.000000 
#    z 0.000000 0.000000 1.720990 
# 
# From -- ./inp_files/7764.got.cif
#   From: 2010.05.17/outbox.cif.g08.bks.cpg/sg140_4_cif.got.tgz:7764.got - 2010.06.21 00:45:31.
