data_PCOD9572857
_publ_section_title
;
Structure prediction by ZEFSAII (Michael W. Deem and Ramdas Pophale) SiO2 
 PCOD9572857
Probable space group: I 41/A M D
;
_chemical_formula_sum "Si O2"
_cell_formula_units_Z 128
_cell_length_a 21.592695
_cell_length_b 21.592695
_cell_length_c 16.690071
_cell_angle_alpha 90.000000
_cell_angle_beta 90.000000
_cell_angle_gamma 90.000000
_cell_volume 7781.653431
_symmetry_space_group_name_H-M "I 41/A M D"
_symmetry_group_IT_number 141
_space_group.IT_coordinate_system_code '2'
_symmetry_cell_setting 'tetragonal'
loop_
_space_group_symop_operation_xyz
x,y,z
1/4-y,3/4+x,1/4+z
-x,1/2-y,z
1/4+y,1/4-x,3/4+z
x,-y,-z
-x,1/2+y,-z
1/4+y,3/4+x,1/4-z
1/4-y,1/4-x,3/4-z
-x,-y,-z
3/4+y,1/4-x,3/4-z
x,1/2+y,-z
3/4-y,3/4+x,1/4-z
-x,y,z
x,1/2-y,z
3/4-y,1/4-x,3/4+z
3/4+y,3/4+x,1/4+z
1/2+x,1/2+y,1/2+z
3/4-y,1/4+x,3/4+z
1/2-x,-y,1/2+z
3/4+y,3/4-x,1/4+z
1/2+x,1/2-y,1/2-z
1/2-x,y,1/2-z
3/4+y,1/4+x,3/4-z
3/4-y,3/4-x,1/4-z
1/2-x,1/2-y,1/2-z
1/4+y,3/4-x,1/4-z
1/2+x,y,1/2-z
1/4-y,1/4+x,3/4-z
1/2-x,1/2+y,1/2+z
1/2+x,-y,1/2+z
1/4-y,3/4-x,1/4+z
1/4+y,1/4+x,3/4+z
loop_
_atom_site_type_symbol
_atom_site_label
_atom_site_fract_x
_atom_site_fract_y
_atom_site_fract_z
Si Si1 0.825482 0.481664 0.589847
Si Si2 0.892068 0.500684 0.130985
Si Si3 0.571810 0.597130 0.502332
Si Si4 0.816718 0.179897 0.040737
O O1 0.842889 0.500000 0.500000
O O2 0.791260 0.541260 0.625000
O O3 0.775706 0.425323 0.595402
O O4 0.882840 0.460265 0.643657
O O5 0.925258 0.445356 0.082259
O O6 0.923957 0.524900 0.211095
O O7 0.894350 0.556761 0.066834
O O8 0.500000 0.608020 0.481217
O O9 0.614438 0.656370 0.517676
O O10 0.817566 0.250000 0.069187
#
# Coordination Sequence:
#
# PCOD9572857 Si02
#       4
#    32  32  32  32
#     4  11  21  35  56  81 105 133 172 223 279 322
#     4  10  19  33  53  80 106 136 174 217 264 314
#     4  10  20  33  52  76 110 145 175 211 255 311
#     4  11  22  34  52  76 106 141 179 215 256 314
#
# _framework density 16.448947
#
# number of rings (size 3 to 8) (size 9 to 14) (size 15 to 20)
#    0.000    1.500    2.500    5.250    3.500    1.000 
#    0.000    0.000    0.000    3.000    0.000    0.000 
#    0.000    0.500    0.000    0.000    0.000    0.000 
#
# Total GULP energy -357140.298483 kJ/mol
# GULP energy per Si atom -5580.317164 kJ/mol
# Density = 1.641151 g / cm^3
# Si number density = 16.448947 Si / 1000 Ang^3
#
#
#
# Elastic Constant Matrix: (Units=GPa)
#
#
# Indices 1 2 3 4 5 6 
#
# 1 101.2203 47.8783 33.5829 0.0000 0.0000 0.0000
# 2 47.8783 101.2203 33.5829 0.0000 0.0000 0.0000
# 3 33.5829 33.5829 92.3258 0.0000 0.0000 0.0000
# 4 0.0000 0.0000 0.0000 10.2540 0.0000 0.0000
# 5 0.0000 0.0000 0.0000 0.0000 10.2540 0.0000
# 6 0.0000 0.0000 0.0000 0.0000 0.0000 2.5210
#
#
#
# Elastic Compliance Matrix: (Units=1/GPa)
#
#
# Indices 1 2 3 4 5 6 
#
# 1 0.013384 -0.005363 -0.002918 0.000000 0.000000 0.000000
# 2 -0.005363 0.013384 -0.002918 0.000000 0.000000 0.000000
# 3 -0.002918 -0.002918 0.012954 0.000000 0.000000 0.000000
# 4 0.000000 0.000000 0.000000 0.097522 0.000000 0.000000
# 5 0.000000 0.000000 0.000000 0.000000 0.097522 0.000000
# 6 0.000000 0.000000 0.000000 0.000000 0.000000 0.396669
#
#
# Mechanical properties :
#
#
# Convention : Reuss Voigt Hill
#
# Bulk Modulus (GPa) = 57.71790 58.31717 58.01754
# Shear Modulus (GPa) = 7.58026 16.58731 12.08378
#
# Velocity S-wave (km/s) = 2.14904 3.17899 2.71333
# Velocity P-wave (km/s) = 6.42831 7.00036 6.72042
#
# Compressibility (1/GPa) = 0.01732565
#
# Stress axis : x y z
#
# Youngs Moduli (GPa) = 74.71527 74.71527 77.19747
#
# Poissons Ratio (x) = 0.40068 0.22524
# Poissons Ratio (y) = 0.40068 0.22524
# Poissons Ratio (z) = 0.21800 0.21800
#
# Static dielectric constant tensor:
#      x y z
#    x 1.551590 0.000000 0.000000 
#    y 0.000000 1.551590 0.000000 
#    z 0.000000 0.000000 1.556910 
# 
# From -- ./inp_files/8265.got.cif
#   From: 2010.05.17/outbox.cif.g08.bks.cpg/sg141_5_cif.got.tgz:8265.got - 2010.05.20 13:30:51.
