data_PCOD9572938
_publ_section_title
;
Structure prediction by ZEFSAII (Michael W. Deem and Ramdas Pophale) SiO2 
 PCOD9572938
Probable space group: I 41/A M D
;
_chemical_formula_sum "Si O2"
_cell_formula_units_Z 160
_cell_length_a 16.451708
_cell_length_b 16.451708
_cell_length_c 33.421711
_cell_angle_alpha 90.000000
_cell_angle_beta 90.000000
_cell_angle_gamma 90.000000
_cell_volume 9045.876721
_symmetry_space_group_name_H-M "I 41/A M D"
_symmetry_group_IT_number 141
_space_group.IT_coordinate_system_code '2'
_symmetry_cell_setting 'tetragonal'
loop_
_space_group_symop_operation_xyz
x,y,z
1/4-y,3/4+x,1/4+z
-x,1/2-y,z
1/4+y,1/4-x,3/4+z
x,-y,-z
-x,1/2+y,-z
1/4+y,3/4+x,1/4-z
1/4-y,1/4-x,3/4-z
-x,-y,-z
3/4+y,1/4-x,3/4-z
x,1/2+y,-z
3/4-y,3/4+x,1/4-z
-x,y,z
x,1/2-y,z
3/4-y,1/4-x,3/4+z
3/4+y,3/4+x,1/4+z
1/2+x,1/2+y,1/2+z
3/4-y,1/4+x,3/4+z
1/2-x,-y,1/2+z
3/4+y,3/4-x,1/4+z
1/2+x,1/2-y,1/2-z
1/2-x,y,1/2-z
3/4+y,1/4+x,3/4-z
3/4-y,3/4-x,1/4-z
1/2-x,1/2-y,1/2-z
1/4+y,3/4-x,1/4-z
1/2+x,y,1/2-z
1/4-y,1/4+x,3/4-z
1/2-x,1/2+y,1/2+z
1/2+x,-y,1/2+z
1/4-y,3/4-x,1/4+z
1/4+y,1/4+x,3/4+z
loop_
_atom_site_type_symbol
_atom_site_label
_atom_site_fract_x
_atom_site_fract_y
_atom_site_fract_z
Si Si1 0.156691 0.572201 0.432292
Si Si2 0.088693 0.095495 0.412873
Si Si3 0.805287 0.965114 0.958299
Si Si4 0.409221 0.917450 0.763501
Si Si5 0.403204 0.347554 0.850688
O O1 0.099893 0.493252 0.431048
O O2 0.249549 0.535214 0.436382
O O3 0.137380 0.624007 0.471628
O O4 0.133492 0.622304 0.392973
O O5 0.148041 0.101960 0.375000
O O6 0.105754 0.155062 0.449489
O O7 0.000000 0.108811 0.395693
O O8 0.738149 0.900647 0.972626
O O9 0.864822 0.910856 0.931236
O O10 0.841529 0.000000 0.000000
O O11 0.500000 0.947339 0.757786
O O12 0.500000 0.373237 0.846455
O O13 0.402576 0.250000 0.848379
#
# Coordination Sequence:
#
# PCOD9572938 Si02
#       5
#    32  32  32  32  32
#     4  10  20  35  54  74  99 135 174 209 250 305
#     4  11  22  34  49  69  96 133 175 214 250 294
#     4   9  19  36  57  76  98 134 177 213 245 296
#     4  10  20  34  52  74 101 131 166 210 256 302
#     4  11  22  34  52  80 111 137 164 208 266 316
#
# _framework density 17.687616999999999
#
# number of rings (size 3 to 8) (size 9 to 14) (size 15 to 20)
#    0.000    1.800    0.000    7.200    0.000    4.200 
#    0.000    0.000    0.000    0.000    0.000    0.000 
#    0.000    8.000    0.000    0.000    0.000    0.000 
#
# Total GULP energy -445569.488593 kJ/mol
# GULP energy per Si atom -5569.618607 kJ/mol
# Density = 1.764736 g / cm^3
# Si number density = 17.687617 Si / 1000 Ang^3
#
#
#
# Elastic Constant Matrix: (Units=GPa)
#
#
# Indices 1 2 3 4 5 6 
#
# 1 48.1498 8.6704 34.7919 0.0000 0.0000 0.0000
# 2 8.6704 48.1482 34.7900 0.0000 0.0000 0.0000
# 3 34.7919 34.7900 118.8497 0.0000 0.0000 0.0000
# 4 0.0000 0.0000 0.0000 -55.4532 0.0000 0.0000
# 5 0.0000 0.0000 0.0000 0.0000 -55.4302 0.0000
# 6 0.0000 0.0000 0.0000 0.0000 0.0000 13.3787
#
#
#
# Elastic Compliance Matrix: (Units=1/GPa)
#
#
# Indices 1 2 3 4 5 6 
#
# 1 0.026382 0.001052 -0.008031 0.000000 0.000000 0.000000
# 2 0.001052 0.026382 -0.008031 0.000000 0.000000 0.000000
# 3 -0.008031 -0.008031 0.013116 0.000000 0.000000 0.000000
# 4 0.000000 0.000000 0.000000 -0.018033 0.000000 0.000000
# 5 0.000000 0.000000 0.000000 0.000000 -0.018041 0.000000
# 6 0.000000 0.000000 0.000000 0.000000 0.000000 0.074746
#
#
# Mechanical properties :
#
#
# Convention : Reuss Voigt Hill
#
# Bulk Modulus (GPa) = 27.88550 41.29469 34.59010
# Shear Modulus (GPa) = 34.12387 -10.37457 11.87465
#
# Velocity S-wave (km/s) = 4.39709 -2.42450 2.59386
# Velocity P-wave (km/s) = 6.44818 3.94459 5.34503
#
# Compressibility (1/GPa) = 0.03586093
#
# Stress axis : x y z
#
# Youngs Moduli (GPa) = 37.90454 37.90406 76.24429
#
# Poissons Ratio (x) = -0.03988 0.61232
# Poissons Ratio (y) = -0.03988 0.61229
# Poissons Ratio (z) = 0.30441 0.30440
#
# Static dielectric constant tensor:
#      x y z
#    x 1.625070 0.000000 0.000000 
#    y 0.000000 1.625070 0.000000 
#    z 0.000000 0.000000 1.642070 
# 
# From -- ./inp_files/14271.got.cif
#   From: 2010.05.17/outbox.cif.g08.bks.cpg/sg141_8_cif.got.tgz:14271.got - 2010.05.20 13:30:51.
