data_PCOD9572819
_publ_section_title
;
Structure prediction by ZEFSAII (Michael W. Deem and Ramdas Pophale) SiO2 
 PCOD9572819
Probable space group: I 41/A M D
;
_chemical_formula_sum "Si O2"
_cell_formula_units_Z 96
_cell_length_a 25.212143
_cell_length_b 25.212143
_cell_length_c 9.252284
_cell_angle_alpha 90.000000
_cell_angle_beta 90.000000
_cell_angle_gamma 90.000000
_cell_volume 5881.234260
_symmetry_space_group_name_H-M "I 41/A M D"
_symmetry_group_IT_number 141
_space_group.IT_coordinate_system_code '2'
_symmetry_cell_setting 'tetragonal'
loop_
_space_group_symop_operation_xyz
x,y,z
1/4-y,3/4+x,1/4+z
-x,1/2-y,z
1/4+y,1/4-x,3/4+z
x,-y,-z
-x,1/2+y,-z
1/4+y,3/4+x,1/4-z
1/4-y,1/4-x,3/4-z
-x,-y,-z
3/4+y,1/4-x,3/4-z
x,1/2+y,-z
3/4-y,3/4+x,1/4-z
-x,y,z
x,1/2-y,z
3/4-y,1/4-x,3/4+z
3/4+y,3/4+x,1/4+z
1/2+x,1/2+y,1/2+z
3/4-y,1/4+x,3/4+z
1/2-x,-y,1/2+z
3/4+y,3/4-x,1/4+z
1/2+x,1/2-y,1/2-z
1/2-x,y,1/2-z
3/4+y,1/4+x,3/4-z
3/4-y,3/4-x,1/4-z
1/2-x,1/2-y,1/2-z
1/4+y,3/4-x,1/4-z
1/2+x,y,1/2-z
1/4-y,1/4+x,3/4-z
1/2-x,1/2+y,1/2+z
1/2+x,-y,1/2+z
1/4-y,3/4-x,1/4+z
1/4+y,1/4+x,3/4+z
loop_
_atom_site_type_symbol
_atom_site_label
_atom_site_fract_x
_atom_site_fract_y
_atom_site_fract_z
Si Si1 0.062767 0.889889 0.544278
Si Si2 0.139345 0.964224 0.712873
Si Si3 0.636359 0.409336 0.786086
O O1 0.089794 0.839794 0.625000
O O2 0.089094 0.940400 0.626158
O O3 0.085989 0.892410 0.382295
O O4 0.000000 0.889656 0.550537
O O5 0.189673 0.939673 0.625000
O O6 0.140656 0.937004 0.869709
O O7 0.139223 0.026884 0.719212
O O8 0.637306 0.387306 0.625000
#
# Coordination Sequence:
#
# PCOD9572819 Si02
#       3
#    32  32  32
#     4   9  19  36  55  72  91 121 166 210 245 289
#     4   9  18  30  47  72 101 136 171 195 224 276
#     4  10  19  30  46  74 107 133 160 195 236 283
#
# _framework density 16.323104000000001
#
# number of rings (size 3 to 8) (size 9 to 14) (size 15 to 20)
#    0.000    3.333    0.000    5.000    0.000    7.000 
#    0.000    6.667    0.000   10.000    0.000    0.000 
#    0.000    0.000    0.000    0.000    0.000    0.000 
#
# Total GULP energy -267536.618410 kJ/mol
# GULP energy per Si atom -5573.679550 kJ/mol
# Density = 1.628595 g / cm^3
# Si number density = 16.323104 Si / 1000 Ang^3
#
#
#
# Elastic Constant Matrix: (Units=GPa)
#
#
# Indices 1 2 3 4 5 6 
#
# 1 115.5484 25.3864 45.0835 0.0000 0.0000 0.0000
# 2 25.3864 115.5484 45.0835 0.0000 0.0000 0.0000
# 3 45.0835 45.0835 155.3865 0.0000 0.0000 0.0000
# 4 0.0000 0.0000 0.0000 4.3800 0.0000 0.0000
# 5 0.0000 0.0000 0.0000 0.0000 4.3800 0.0000
# 6 0.0000 0.0000 0.0000 0.0000 0.0000 -1.1272
#
#
#
# Elastic Compliance Matrix: (Units=1/GPa)
#
#
# Indices 1 2 3 4 5 6 
#
# 1 0.009902 -0.001189 -0.002528 0.000000 0.000000 0.000000
# 2 -0.001189 0.009902 -0.002528 0.000000 0.000000 0.000000
# 3 -0.002528 -0.002528 0.007902 0.000000 0.000000 0.000000
# 4 0.000000 0.000000 0.000000 0.228309 0.000000 0.000000
# 5 0.000000 0.000000 0.000000 0.000000 0.228309 0.000000
# 6 0.000000 0.000000 0.000000 0.000000 0.000000 -0.887155
#
#
# Mechanical properties :
#
#
# Convention : Reuss Voigt Hill
#
# Bulk Modulus (GPa) = 65.71867 68.62115 67.16991
# Shear Modulus (GPa) = -12.97795 19.58857 3.30531
#
# Velocity S-wave (km/s) = -2.82275 3.46793 1.42454
# Velocity P-wave (km/s) = 5.45203 7.62666 6.62913
#
# Compressibility (1/GPa) = 0.01521638
#
# Stress axis : x y z
#
# Youngs Moduli (GPa) = 100.99008 100.99008 126.54304
#
# Poissons Ratio (x) = 0.12010 0.31989
# Poissons Ratio (y) = 0.12010 0.31989
# Poissons Ratio (z) = 0.25529 0.25529
#
# Static dielectric constant tensor:
#      x y z
#    x 1.531820 0.000000 0.000000 
#    y 0.000000 1.531820 0.000000 
#    z 0.000000 0.000000 1.573770 
# 
# From -- ./inp_files/2460.got.cif
#   From: 2010.05.17/outbox.cif.g08.bks.cpg/sg141_2_cif.got.tgz:2460.got - 2010.05.20 13:30:51.
