data_PCOD9572809
_publ_section_title
;
Structure prediction by ZEFSAII (Michael W. Deem and Ramdas Pophale) SiO2 
 PCOD9572809
Probable space group: I 41/A M D
;
_chemical_formula_sum "Si O2"
_cell_formula_units_Z 128
_cell_length_a 19.682207
_cell_length_b 19.682207
_cell_length_c 15.110808
_cell_angle_alpha 90.000000
_cell_angle_beta 90.000000
_cell_angle_gamma 90.000000
_cell_volume 5853.764916
_symmetry_space_group_name_H-M "I 41/A M D"
_symmetry_group_IT_number 141
_space_group.IT_coordinate_system_code '2'
_symmetry_cell_setting 'tetragonal'
loop_
_space_group_symop_operation_xyz
x,y,z
1/4-y,3/4+x,1/4+z
-x,1/2-y,z
1/4+y,1/4-x,3/4+z
x,-y,-z
-x,1/2+y,-z
1/4+y,3/4+x,1/4-z
1/4-y,1/4-x,3/4-z
-x,-y,-z
3/4+y,1/4-x,3/4-z
x,1/2+y,-z
3/4-y,3/4+x,1/4-z
-x,y,z
x,1/2-y,z
3/4-y,1/4-x,3/4+z
3/4+y,3/4+x,1/4+z
1/2+x,1/2+y,1/2+z
3/4-y,1/4+x,3/4+z
1/2-x,-y,1/2+z
3/4+y,3/4-x,1/4+z
1/2+x,1/2-y,1/2-z
1/2-x,y,1/2-z
3/4+y,1/4+x,3/4-z
3/4-y,3/4-x,1/4-z
1/2-x,1/2-y,1/2-z
1/4+y,3/4-x,1/4-z
1/2+x,y,1/2-z
1/4-y,1/4+x,3/4-z
1/2-x,1/2+y,1/2+z
1/2+x,-y,1/2+z
1/4-y,3/4-x,1/4+z
1/4+y,1/4+x,3/4+z
loop_
_atom_site_type_symbol
_atom_site_label
_atom_site_fract_x
_atom_site_fract_y
_atom_site_fract_z
Si Si1 0.354390 0.895610 0.875000
Si Si2 0.710203 0.750000 0.843743
Si Si3 0.854447 0.455036 0.192744
Si Si4 0.742971 0.250000 0.964676
Si Si5 0.325410 0.750000 0.295530
Si Si6 0.668867 0.101887 0.755397
O O1 0.335879 0.817063 0.857602
O O2 0.327082 0.931384 0.786599
O O3 0.750000 0.750000 0.750000
O O4 0.759263 0.750000 0.930930
O O5 0.830346 0.412217 0.108754
O O6 0.849766 0.537114 0.196269
O O7 0.935381 0.447023 0.193119
O O8 0.807669 0.250000 0.899973
O O9 0.250000 0.750000 0.250000
O O10 0.358252 0.677203 0.268645
O O11 0.750000 0.108846 0.750000
#
# Coordination Sequence:
#
# PCOD9572809 Si02
#       6
#    16  16  32  16  16  32
#     4  10  26  41  66  92 132 170 224 270 335 394
#     4  10  24  45  67  93 129 178 218 276 333 396
#     4  11  23  37  57  90 121 161 198 271 310 391
#     4  10  20  40  59  80 122 160 206 243 323 381
#     4  10  18  38  56  81 115 167 199 243 305 401
#     4  11  22  34  57  85 124 155 206 250 327 381
#
# _framework density 21.86627
#
# number of rings (size 3 to 8) (size 9 to 14) (size 15 to 20)
#    0.000    1.500    5.000    0.750   10.500    0.250 
#    0.000    0.000    0.000    0.750    0.000    1.750 
#    0.000    0.000    0.000    0.000    0.000    0.000 
#
# Total GULP energy -356701.800613 kJ/mol
# GULP energy per Si atom -5573.465635 kJ/mol
# Density = 2.181650 g / cm^3
# Si number density = 21.866270 Si / 1000 Ang^3
#
#
#
# Elastic Constant Matrix: (Units=GPa)
#
#
# Indices 1 2 3 4 5 6 
#
# 1 89.7231 19.5223 30.6151 0.0000 0.0000 0.0000
# 2 19.5223 89.7206 30.6145 0.0000 0.0000 0.0000
# 3 30.6151 30.6145 186.7144 0.0000 0.0000 0.0000
# 4 0.0000 0.0000 0.0000 20.6439 0.0000 0.0000
# 5 0.0000 0.0000 0.0000 0.0000 20.6434 0.0000
# 6 0.0000 0.0000 0.0000 0.0000 0.0000 -8.5801
#
#
#
# Elastic Compliance Matrix: (Units=1/GPa)
#
#
# Indices 1 2 3 4 5 6 
#
# 1 0.012162 -0.002082 -0.001653 0.000000 0.000000 0.000000
# 2 -0.002082 0.012163 -0.001653 0.000000 0.000000 0.000000
# 3 -0.001653 -0.001653 0.005898 0.000000 0.000000 0.000000
# 4 0.000000 0.000000 0.000000 0.048440 0.000000 0.000000
# 5 0.000000 0.000000 0.000000 0.000000 0.048442 0.000000
# 6 0.000000 0.000000 0.000000 0.000000 0.000000 -0.116548
#
#
# Mechanical properties :
#
#
# Convention : Reuss Voigt Hill
#
# Bulk Modulus (GPa) = 51.42206 58.62912 55.02559
# Shear Modulus (GPa) = 179.75691 25.56852 102.66271
#
# Velocity S-wave (km/s) = 9.07667 3.42323 6.85946
# Velocity P-wave (km/s) = 11.55056 6.51886 9.37846
#
# Compressibility (1/GPa) = 0.01944691
#
# Stress axis : x y z
#
# Youngs Moduli (GPa) = 82.22010 82.21788 169.55524
#
# Poissons Ratio (x) = 0.17122 0.28024
# Poissons Ratio (y) = 0.17122 0.28024
# Poissons Ratio (z) = 0.13589 0.13589
#
# Static dielectric constant tensor:
#      x y z
#    x 1.838150 0.000000 0.000000 
#    y 0.000000 1.838160 0.000000 
#    z 0.000000 0.000000 2.003020 
# 
# From -- ./inp_files/6270.got.cif
#   From: 2010.05.17/outbox.cif.g08.bks.cpg/sg141_4_cif.got.tgz:6270.got - 2010.05.20 13:30:51.
