data_PCOD9572998
_publ_section_title
;
Structure prediction by ZEFSAII (Michael W. Deem and Ramdas Pophale) SiO2 
 PCOD9572998
Probable space group: I 41/A M D
;
_chemical_formula_sum "Si O2"
_cell_formula_units_Z 144
_cell_length_a 28.653606
_cell_length_b 28.653606
_cell_length_c 9.108164
_cell_angle_alpha 90.000000
_cell_angle_beta 90.000000
_cell_angle_gamma 90.000000
_cell_volume 7478.068027
_symmetry_space_group_name_H-M "I 41/A M D"
_symmetry_group_IT_number 141
_space_group.IT_coordinate_system_code '2'
_symmetry_cell_setting 'tetragonal'
loop_
_space_group_symop_operation_xyz
x,y,z
1/4-y,3/4+x,1/4+z
-x,1/2-y,z
1/4+y,1/4-x,3/4+z
x,-y,-z
-x,1/2+y,-z
1/4+y,3/4+x,1/4-z
1/4-y,1/4-x,3/4-z
-x,-y,-z
3/4+y,1/4-x,3/4-z
x,1/2+y,-z
3/4-y,3/4+x,1/4-z
-x,y,z
x,1/2-y,z
3/4-y,1/4-x,3/4+z
3/4+y,3/4+x,1/4+z
1/2+x,1/2+y,1/2+z
3/4-y,1/4+x,3/4+z
1/2-x,-y,1/2+z
3/4+y,3/4-x,1/4+z
1/2+x,1/2-y,1/2-z
1/2-x,y,1/2-z
3/4+y,1/4+x,3/4-z
3/4-y,3/4-x,1/4-z
1/2-x,1/2-y,1/2-z
1/4+y,3/4-x,1/4-z
1/2+x,y,1/2-z
1/4-y,1/4+x,3/4-z
1/2-x,1/2+y,1/2+z
1/2+x,-y,1/2+z
1/4-y,3/4-x,1/4+z
1/4+y,1/4+x,3/4+z
loop_
_atom_site_type_symbol
_atom_site_label
_atom_site_fract_x
_atom_site_fract_y
_atom_site_fract_z
Si Si1 0.750000 0.052560 0.250000
Si Si2 0.947840 0.924424 0.732332
Si Si3 0.677161 0.634441 0.702882
Si Si4 0.944809 0.531608 0.206415
Si Si5 0.910539 0.113555 0.998082
O O1 0.768902 0.018902 0.375000
O O2 0.708371 0.088535 0.282827
O O3 0.908806 0.915351 0.608450
O O4 0.947247 0.888665 0.869182
O O5 0.000000 0.925415 0.667324
O O6 0.938486 0.975879 0.801814
O O7 0.704941 0.674512 0.614795
O O8 0.635633 0.618515 0.596641
O O9 0.000000 0.541229 0.191341
O O10 0.917952 0.565593 0.093243
O O11 0.904111 0.154111 0.875000
#
# Coordination Sequence:
#
# PCOD9572998 Si02
#       5
#    16  32  32  32  32
#     4  12  26  42  55  76 112 168 225 250 272 324
#     4  11  20  36  62  88 114 147 196 250 308 359
#     4  11  22  40  59  82 117 158 203 252 294 335
#     4  10  20  36  59  87 115 146 190 247 314 366
#     4  10  22  35  53  80 119 156 186 233 294 351
#
# _framework density 19.256309999999999
#
# number of rings (size 3 to 8) (size 9 to 14) (size 15 to 20)
#    0.000    1.333    2.222    4.000    0.000    6.222 
#    0.000    0.000    0.000    0.000    0.000    0.000 
#    0.000  282.667    0.000    0.000    0.000    0.000 
#
# Total GULP energy -400916.140710 kJ/mol
# GULP energy per Si atom -5568.279732 kJ/mol
# Density = 1.921248 g / cm^3
# Si number density = 19.256310 Si / 1000 Ang^3
#
#
#
# Elastic Constant Matrix: (Units=GPa)
#
#
# Indices 1 2 3 4 5 6 
#
# 1 67.1412 69.0344 50.0352 0.0000 0.0000 0.0000
# 2 69.0344 67.1412 50.0352 0.0000 0.0000 0.0000
# 3 50.0352 50.0352 130.6210 0.0000 0.0000 0.0000
# 4 0.0000 0.0000 0.0000 17.8902 0.0000 0.0000
# 5 0.0000 0.0000 0.0000 0.0000 17.8902 0.0000
# 6 0.0000 0.0000 0.0000 0.0000 0.0000 18.6180
#
#
#
# Elastic Compliance Matrix: (Units=1/GPa)
#
#
# Indices 1 2 3 4 5 6 
#
# 1 -0.258980 0.269200 -0.003915 0.000000 0.000000 0.000000
# 2 0.269200 -0.258980 -0.003915 0.000000 0.000000 0.000000
# 3 -0.003915 -0.003915 0.010655 0.000000 0.000000 0.000000
# 4 0.000000 0.000000 0.000000 0.055896 0.000000 0.000000
# 5 0.000000 0.000000 0.000000 0.000000 0.055896 0.000000
# 6 0.000000 0.000000 0.000000 0.000000 0.000000 0.053711
#
#
# Mechanical properties :
#
#
# Convention : Reuss Voigt Hill
#
# Bulk Modulus (GPa) = 64.78386 67.01257 65.89821
# Shear Modulus (GPa) = -5.81804 17.26626 5.72411
#
# Velocity S-wave (km/s) = -1.74009 2.99767 1.72599
# Velocity P-wave (km/s) = 5.44782 6.84523 6.18611
#
# Compressibility (1/GPa) = 0.01543594
#
# Stress axis : x y z
#
# Youngs Moduli (GPa) = -3.86131 -3.86131 93.85198
#
# Poissons Ratio (x) = 1.03946 0.36743
# Poissons Ratio (y) = 1.03946 0.36743
# Poissons Ratio (z) = -0.01512 -0.01512
#
# Static dielectric constant tensor:
#      x y z
#    x 1.694560 0.000000 0.000000 
#    y 0.000000 1.694560 0.000000 
#    z 0.000000 0.000000 1.745240 
# 
# From -- ./inp_files/3136.got.cif
#   From: 2010.05.17/outbox.cif.g08.bks.cpg/sg141_2_cif.got.tgz:3136.got - 2010.05.20 13:30:51.
