data_PCOD9572831
_publ_section_title
;
Structure prediction by ZEFSAII (Michael W. Deem and Ramdas Pophale) SiO2 
 PCOD9572831
Probable space group: I 41/A M D
;
_chemical_formula_sum "Si O2"
_cell_formula_units_Z 128
_cell_length_a 27.065773
_cell_length_b 27.065773
_cell_length_c 10.868129
_cell_angle_alpha 90.000000
_cell_angle_beta 90.000000
_cell_angle_gamma 90.000000
_cell_volume 7961.513848
_symmetry_space_group_name_H-M "I 41/A M D"
_symmetry_group_IT_number 141
_space_group.IT_coordinate_system_code '2'
_symmetry_cell_setting 'tetragonal'
loop_
_space_group_symop_operation_xyz
x,y,z
1/4-y,3/4+x,1/4+z
-x,1/2-y,z
1/4+y,1/4-x,3/4+z
x,-y,-z
-x,1/2+y,-z
1/4+y,3/4+x,1/4-z
1/4-y,1/4-x,3/4-z
-x,-y,-z
3/4+y,1/4-x,3/4-z
x,1/2+y,-z
3/4-y,3/4+x,1/4-z
-x,y,z
x,1/2-y,z
3/4-y,1/4-x,3/4+z
3/4+y,3/4+x,1/4+z
1/2+x,1/2+y,1/2+z
3/4-y,1/4+x,3/4+z
1/2-x,-y,1/2+z
3/4+y,3/4-x,1/4+z
1/2+x,1/2-y,1/2-z
1/2-x,y,1/2-z
3/4+y,1/4+x,3/4-z
3/4-y,3/4-x,1/4-z
1/2-x,1/2-y,1/2-z
1/4+y,3/4-x,1/4-z
1/2+x,y,1/2-z
1/4-y,1/4+x,3/4-z
1/2-x,1/2+y,1/2+z
1/2+x,-y,1/2+z
1/4-y,3/4-x,1/4+z
1/4+y,1/4+x,3/4+z
loop_
_atom_site_type_symbol
_atom_site_label
_atom_site_fract_x
_atom_site_fract_y
_atom_site_fract_z
Si Si1 0.650010 0.900010 0.875000
Si Si2 0.750000 0.129117 0.250000
Si Si3 0.665217 0.307330 0.946855
Si Si4 0.277443 0.307116 0.486540
Si Si5 0.558727 0.885141 0.417392
O O1 0.701543 0.899043 0.799704
O O2 0.600561 0.899296 0.790568
O O3 0.729690 0.162200 0.362477
O O4 0.651423 0.250000 0.980451
O O5 0.646050 0.318405 0.810442
O O6 0.724754 0.308377 0.945382
O O7 0.287860 0.250000 0.454164
O O8 0.319983 0.325043 0.578420
O O9 0.500000 0.880645 0.404274
O O10 0.586687 0.836687 0.375000
#
# Coordination Sequence:
#
# PCOD9572831 Si02
#       5
#    16  16  32  32  32
#     4  10  20  34  54  73 102 134 164 208 250 304
#     4  10  19  32  52  72 102 132 163 200 248 304
#     4   9  18  33  53  76  99 126 164 212 257 293
#     4   9  17  30  51  76  96 121 161 211 254 288
#     4  10  19  31  48  70 100 131 164 202 245 299
#
# _framework density 16.077345000000001
#
# number of rings (size 3 to 8) (size 9 to 14) (size 15 to 20)
#    0.000    2.500    0.000    2.625    0.000    4.250 
#    0.000    1.250   22.000    1.875    0.000    0.000 
#    0.000    0.000    0.000    0.000    0.000    0.000 
#
# Total GULP energy -356456.164935 kJ/mol
# GULP energy per Si atom -5569.627577 kJ/mol
# Density = 1.604075 g / cm^3
# Si number density = 16.077345 Si / 1000 Ang^3
#
#
#
# Elastic Constant Matrix: (Units=GPa)
#
#
# Indices 1 2 3 4 5 6 
#
# 1 52.1720 47.5814 52.6402 0.0000 0.0000 0.0000
# 2 47.5814 52.1720 52.6402 0.0000 0.0000 0.0000
# 3 52.6402 52.6402 97.4152 0.0000 0.0000 0.0000
# 4 0.0000 0.0000 0.0000 19.6766 0.0000 0.0000
# 5 0.0000 0.0000 0.0000 0.0000 19.6766 0.0000
# 6 0.0000 0.0000 0.0000 0.0000 0.0000 29.0306
#
#
#
# Elastic Compliance Matrix: (Units=1/GPa)
#
#
# Indices 1 2 3 4 5 6 
#
# 1 0.120583 -0.097253 -0.012607 0.000000 0.000000 0.000000
# 2 -0.097253 0.120583 -0.012607 0.000000 0.000000 0.000000
# 3 -0.012607 -0.012607 0.023890 0.000000 0.000000 0.000000
# 4 0.000000 0.000000 0.000000 0.050822 0.000000 0.000000
# 5 0.000000 0.000000 0.000000 0.000000 0.050822 0.000000
# 6 0.000000 0.000000 0.000000 0.000000 0.000000 0.034446
#
#
# Mechanical properties :
#
#
# Convention : Reuss Voigt Hill
#
# Bulk Modulus (GPa) = 49.69488 56.38697 53.04092
# Shear Modulus (GPa) = 7.65946 16.93657 12.29801
#
# Velocity S-wave (km/s) = 2.18506 3.24920 2.76873
# Velocity P-wave (km/s) = 6.11089 7.01604 6.57905
#
# Compressibility (1/GPa) = 0.02012280
#
# Stress axis : x y z
#
# Youngs Moduli (GPa) = 8.29304 8.29304 41.85826
#
# Poissons Ratio (x) = 0.80652 0.52770
# Poissons Ratio (y) = 0.80652 0.52770
# Poissons Ratio (z) = 0.10455 0.10455
#
# Static dielectric constant tensor:
#      x y z
#    x 1.527340 0.000000 0.000000 
#    y 0.000000 1.527340 0.000000 
#    z 0.000000 0.000000 1.539620 
# 
# From -- ./inp_files/4630.got.cif
#   From: 2010.05.17/outbox.cif.g08.bks.cpg/sg141_3_cif.got.tgz:4630.got - 2010.05.20 13:30:51.
