data_PCOD9572147
_publ_section_title
;
Structure prediction by ZEFSAII (Michael W. Deem and Ramdas Pophale) SiO2 
 PCOD9572147
Probable space group: I 4/M C M
;
_chemical_formula_sum "Si O2"
_cell_formula_units_Z 128
_cell_length_a 21.875845
_cell_length_b 21.875845
_cell_length_c 15.023528
_cell_angle_alpha 90.000000
_cell_angle_beta 90.000000
_cell_angle_gamma 90.000000
_cell_volume 7189.548302
_symmetry_space_group_name_H-M "I 4/M C M"
_symmetry_group_IT_number 140
_symmetry_cell_setting 'tetragonal'
loop_
_space_group_symop_operation_xyz
x,y,z
-y,x,z
-x,-y,z
y,-x,z
x,-y,1/2-z
-x,y,1/2-z
y,x,1/2-z
-y,-x,1/2-z
-x,-y,-z
y,-x,-z
x,y,-z
-y,x,-z
-x,y,1/2+z
x,-y,1/2+z
-y,-x,1/2+z
y,x,1/2+z
1/2+x,1/2+y,1/2+z
1/2-y,1/2+x,1/2+z
1/2-x,1/2-y,1/2+z
1/2+y,1/2-x,1/2+z
1/2+x,1/2-y,-z
1/2-x,1/2+y,-z
1/2+y,1/2+x,-z
1/2-y,1/2-x,-z
1/2-x,1/2-y,1/2-z
1/2+y,1/2-x,1/2-z
1/2+x,1/2+y,1/2-z
1/2-y,1/2+x,1/2-z
1/2-x,1/2+y,z
1/2+x,1/2-y,z
1/2-y,1/2-x,z
1/2+y,1/2+x,z
loop_
_atom_site_type_symbol
_atom_site_label
_atom_site_fract_x
_atom_site_fract_y
_atom_site_fract_z
Si Si1 0.672041 0.726392 0.841224
Si Si2 0.596531 0.997736 0.358284
Si Si3 0.636020 0.634476 0.500000
Si Si4 0.769906 0.465463 0.156491
Si Si5 0.998052 0.179310 0.000000
O O1 0.694380 0.694380 0.750000
O O2 0.724690 0.775311 0.867124
O O3 0.659142 0.674758 0.915423
O O4 0.607426 0.762060 0.830150
O O5 0.549126 0.049126 0.389195
O O6 0.664486 0.015519 0.383404
O O7 0.596049 0.000000 0.250000
O O8 0.567663 0.932338 0.384140
O O9 0.566349 0.655023 0.500000
O O10 0.635121 0.560638 0.500000
O O11 0.763024 0.500000 0.250000
O O12 0.719798 0.487918 0.087522
#
# Coordination Sequence:
#
# PCOD9572147 Si02
#       5
#    32  32  16  32  16
#     4  10  20  34  55  81 109 143 178 214 262 314
#     4   8  14  26  45  69  99 136 174 209 246 291
#     4  10  21  39  56  78 106 132 172 219 265 318
#     4  10  19  33  53  76 105 138 174 215 256 305
#     4  10  22  37  56  77 100 130 166 214 270 322
#
# _framework density 17.803623000000002
#
# number of rings (size 3 to 8) (size 9 to 14) (size 15 to 20)
#    0.000    2.500    0.000    3.375    0.000    1.250 
#    0.000    5.000    0.000    1.500    0.000    3.500 
#    0.000    0.000    0.000    0.000    0.000    0.000 
#
# Total GULP energy -356801.242901 kJ/mol
# GULP energy per Si atom -5575.019420 kJ/mol
# Density = 1.776310 g / cm^3
# Si number density = 17.803623 Si / 1000 Ang^3
#
#
#
# Elastic Constant Matrix: (Units=GPa)
#
#
# Indices 1 2 3 4 5 6 
#
# 1 142.3232 81.9318 34.8746 0.0000 0.0000 0.0000
# 2 81.9318 142.3232 34.8746 0.0000 0.0000 0.0000
# 3 34.8746 34.8746 68.2414 0.0000 0.0000 0.0000
# 4 0.0000 0.0000 0.0000 29.7382 0.0000 0.0000
# 5 0.0000 0.0000 0.0000 0.0000 29.7382 0.0000
# 6 0.0000 0.0000 0.0000 0.0000 0.0000 24.7899
#
#
#
# Elastic Compliance Matrix: (Units=1/GPa)
#
#
# Indices 1 2 3 4 5 6 
#
# 1 0.010930 -0.005628 -0.002710 0.000000 0.000000 0.000000
# 2 -0.005628 0.010930 -0.002710 0.000000 0.000000 0.000000
# 3 -0.002710 -0.002710 0.017423 0.000000 0.000000 0.000000
# 4 0.000000 0.000000 0.000000 0.033627 0.000000 0.000000
# 5 0.000000 0.000000 0.000000 0.000000 0.033627 0.000000
# 6 0.000000 0.000000 0.000000 0.000000 0.000000 0.040339
#
#
# Mechanical properties :
#
#
# Convention : Reuss Voigt Hill
#
# Bulk Modulus (GPa) = 58.17679 72.91664 65.54672
# Shear Modulus (GPa) = 28.62033 30.26704 29.44369
#
# Velocity S-wave (km/s) = 4.01378 4.12764 4.07111
# Velocity P-wave (km/s) = 7.36400 7.98508 7.68082
#
# Compressibility (1/GPa) = 0.01718898
#
# Stress axis : x y z
#
# Youngs Moduli (GPa) = 91.48877 91.48877 57.39452
#
# Poissons Ratio (x) = 0.51493 0.15551
# Poissons Ratio (y) = 0.51493 0.15551
# Poissons Ratio (z) = 0.24789 0.24789
#
# Static dielectric constant tensor:
#      x y z
#    x 1.602100 0.000000 0.000000 
#    y 0.000000 1.602100 0.000000 
#    z 0.000000 0.000000 1.634510 
# 
# From -- ./inp_files/6564.got.cif
#   From: 2010.05.17/outbox.cif.g08.bks.cpg/sg140_4_cif.got.tgz:6564.got - 2010.06.21 00:45:31.
