data_PCOD9572868
_publ_section_title
;
Structure prediction by ZEFSAII (Michael W. Deem and Ramdas Pophale) SiO2 
 PCOD9572868
Probable space group: I 41/A M D
;
_chemical_formula_sum "Si O2"
_cell_formula_units_Z 160
_cell_length_a 21.238107
_cell_length_b 21.238107
_cell_length_c 16.779160
_cell_angle_alpha 90.000000
_cell_angle_beta 90.000000
_cell_angle_gamma 90.000000
_cell_volume 7568.360742
_symmetry_space_group_name_H-M "I 41/A M D"
_symmetry_group_IT_number 141
_space_group.IT_coordinate_system_code '2'
_symmetry_cell_setting 'tetragonal'
loop_
_space_group_symop_operation_xyz
x,y,z
1/4-y,3/4+x,1/4+z
-x,1/2-y,z
1/4+y,1/4-x,3/4+z
x,-y,-z
-x,1/2+y,-z
1/4+y,3/4+x,1/4-z
1/4-y,1/4-x,3/4-z
-x,-y,-z
3/4+y,1/4-x,3/4-z
x,1/2+y,-z
3/4-y,3/4+x,1/4-z
-x,y,z
x,1/2-y,z
3/4-y,1/4-x,3/4+z
3/4+y,3/4+x,1/4+z
1/2+x,1/2+y,1/2+z
3/4-y,1/4+x,3/4+z
1/2-x,-y,1/2+z
3/4+y,3/4-x,1/4+z
1/2+x,1/2-y,1/2-z
1/2-x,y,1/2-z
3/4+y,1/4+x,3/4-z
3/4-y,3/4-x,1/4-z
1/2-x,1/2-y,1/2-z
1/4+y,3/4-x,1/4-z
1/2+x,y,1/2-z
1/4-y,1/4+x,3/4-z
1/2-x,1/2+y,1/2+z
1/2+x,-y,1/2+z
1/4-y,3/4-x,1/4+z
1/4+y,1/4+x,3/4+z
loop_
_atom_site_type_symbol
_atom_site_label
_atom_site_fract_x
_atom_site_fract_y
_atom_site_fract_z
Si Si1 0.426751 0.605121 0.644081
Si Si2 0.344822 0.872965 0.502609
Si Si3 0.148827 0.821516 0.739359
Si Si4 0.072114 0.500555 0.364729
Si Si5 0.709868 0.678444 0.350497
O O1 0.500000 0.615226 0.641395
O O2 0.394164 0.643309 0.571886
O O3 0.400337 0.628184 0.728276
O O4 0.414727 0.531303 0.627016
O O5 0.278811 0.871326 0.551233
O O6 0.332928 0.826417 0.429435
O O7 0.375654 0.933785 0.459902
O O8 0.123413 0.750000 0.734782
O O9 0.201065 0.821215 0.810364
O O10 0.184615 0.835548 0.657305
O O11 0.000000 0.499727 0.331551
O O12 0.705589 0.750000 0.318487
#
# Coordination Sequence:
#
# PCOD9572868 Si02
#       5
#    32  32  32  32  32
#     4  10  20  35  58  83 116 158 202 246 303 369
#     4  10  19  33  58  78 109 151 212 245 287 351
#     4   8  15  29  52  82 115 144 191 249 298 357
#     4   8  14  28  52  79 107 147 192 240 296 355
#     4  10  21  36  55  80 114 159 204 246 294 359
#
# _framework density 21.140642
#
# number of rings (size 3 to 8) (size 9 to 14) (size 15 to 20)
#    0.000    2.800    0.000    3.000    0.000    2.800 
#    0.000    1.000   39.600   24.600    0.000    0.000 
#    0.000    6.400    0.000    0.000    0.000    0.000 
#
# Total GULP energy -445679.780194 kJ/mol
# GULP energy per Si atom -5570.997252 kJ/mol
# Density = 2.109253 g / cm^3
# Si number density = 21.140642 Si / 1000 Ang^3
#
#
#
# Elastic Constant Matrix: (Units=GPa)
#
#
# Indices 1 2 3 4 5 6 
#
# 1 77.6718 68.0743 59.3580 0.0000 0.0000 0.0000
# 2 68.0743 77.6718 59.3580 0.0000 0.0000 0.0000
# 3 59.3580 59.3580 121.2574 0.0000 0.0000 0.0000
# 4 0.0000 0.0000 0.0000 20.9006 0.0000 0.0000
# 5 0.0000 0.0000 0.0000 0.0000 20.9006 0.0000
# 6 0.0000 0.0000 0.0000 0.0000 0.0000 29.2823
#
#
#
# Elastic Compliance Matrix: (Units=1/GPa)
#
#
# Indices 1 2 3 4 5 6 
#
# 1 0.057802 -0.046391 -0.005586 0.000000 0.000000 0.000000
# 2 -0.046391 0.057802 -0.005586 0.000000 0.000000 0.000000
# 3 -0.005586 -0.005586 0.013716 0.000000 0.000000 0.000000
# 4 0.000000 0.000000 0.000000 0.047845 0.000000 0.000000
# 5 0.000000 0.000000 0.000000 0.000000 0.047845 0.000000
# 6 0.000000 0.000000 0.000000 0.000000 0.000000 0.034150
#
#
# Mechanical properties :
#
#
# Convention : Reuss Voigt Hill
#
# Bulk Modulus (GPa) = 70.45102 72.24240 71.34671
# Shear Modulus (GPa) = 13.19191 20.20411 16.69801
#
# Velocity S-wave (km/s) = 2.50072 3.09479 2.81348
# Velocity P-wave (km/s) = 6.46030 6.85688 6.66154
#
# Compressibility (1/GPa) = 0.01419426
#
# Stress axis : x y z
#
# Youngs Moduli (GPa) = 17.30029 17.30029 72.90801
#
# Poissons Ratio (x) = 0.80258 0.40727
# Poissons Ratio (y) = 0.80258 0.40727
# Poissons Ratio (z) = 0.09664 0.09664
#
# Static dielectric constant tensor:
#      x y z
#    x 1.770140 0.000000 0.000000 
#    y 0.000000 1.770140 0.000000 
#    z 0.000000 0.000000 1.828560 
# 
# From -- ./inp_files/8592.got.cif
#   From: 2010.05.17/outbox.cif.g08.bks.cpg/sg141_5_cif.got.tgz:8592.got - 2010.05.20 13:30:51.
