data_PCOD9572142
_publ_section_title
;
Structure prediction by ZEFSAII (Michael W. Deem and Ramdas Pophale) SiO2 
 PCOD9572142
Probable space group: I 4/M C M
;
_chemical_formula_sum "Si O2"
_cell_formula_units_Z 176
_cell_length_a 17.474821
_cell_length_b 17.474821
_cell_length_c 28.582210
_cell_angle_alpha 90.000000
_cell_angle_beta 90.000000
_cell_angle_gamma 90.000000
_cell_volume 8728.131432
_symmetry_space_group_name_H-M "I 4/M C M"
_symmetry_group_IT_number 140
_symmetry_cell_setting 'tetragonal'
loop_
_space_group_symop_operation_xyz
x,y,z
-y,x,z
-x,-y,z
y,-x,z
x,-y,1/2-z
-x,y,1/2-z
y,x,1/2-z
-y,-x,1/2-z
-x,-y,-z
y,-x,-z
x,y,-z
-y,x,-z
-x,y,1/2+z
x,-y,1/2+z
-y,-x,1/2+z
y,x,1/2+z
1/2+x,1/2+y,1/2+z
1/2-y,1/2+x,1/2+z
1/2-x,1/2-y,1/2+z
1/2+y,1/2-x,1/2+z
1/2+x,1/2-y,-z
1/2-x,1/2+y,-z
1/2+y,1/2+x,-z
1/2-y,1/2-x,-z
1/2-x,1/2-y,1/2-z
1/2+y,1/2-x,1/2-z
1/2+x,1/2+y,1/2-z
1/2-y,1/2+x,1/2-z
1/2-x,1/2+y,z
1/2+x,1/2-y,z
1/2-y,1/2-x,z
1/2+y,1/2+x,z
loop_
_atom_site_type_symbol
_atom_site_label
_atom_site_fract_x
_atom_site_fract_y
_atom_site_fract_z
Si Si1 0.111763 0.946979 0.155264
Si Si2 0.309930 0.930653 0.071164
Si Si3 0.394861 0.361491 0.446524
Si Si4 0.876463 0.500000 0.750000
Si Si5 0.104366 0.723246 0.055344
Si Si6 0.600958 0.778761 0.320856
O O1 0.118414 0.947085 0.098051
O O2 0.187479 0.910126 0.177792
O O3 0.035289 0.901064 0.168689
O O4 0.382445 0.882445 0.054475
O O5 0.230709 0.897005 0.051183
O O6 0.303197 0.920259 0.126601
O O7 0.310790 0.020431 0.061471
O O8 0.411933 0.389315 0.500000
O O9 0.311093 0.388974 0.430196
O O10 0.933976 0.433976 0.769359
O O11 0.822378 0.458072 0.712819
O O12 0.168996 0.668996 0.076938
O O13 0.118026 0.727754 0.000000
O O14 0.685075 0.814926 0.311129
#
# Coordination Sequence:
#
# PCOD9572142 Si02
#       6
#    32  32  32  16  32  32
#     4  10  21  37  56  80 113 151 188 227 276 331
#     4  10  20  33  51  75 104 140 178 217 268 329
#     4  10  19  33  52  74 103 141 190 239 275 311
#     4   9  18  36  64  93 118 144 178 227 280 324
#     4  10  21  34  48  71 104 141 182 228 274 319
#     4   9  19  37  59  84 113 142 178 226 278 332
#
# _framework density 20.164684000000001
#
# number of rings (size 3 to 8) (size 9 to 14) (size 15 to 20)
#    0.000    2.273    0.000    3.273    0.000    6.182 
#    0.000    5.455    0.000    3.273    0.000    0.000 
#    0.000    0.000    0.000    0.000    0.000    0.000 
#
# Total GULP energy -490624.098726 kJ/mol
# GULP energy per Si atom -5575.273849 kJ/mol
# Density = 2.011879 g / cm^3
# Si number density = 20.164684 Si / 1000 Ang^3
#
#
#
# Elastic Constant Matrix: (Units=GPa)
#
#
# Indices 1 2 3 4 5 6 
#
# 1 77.6846 127.5554 23.2300 0.0000 0.0000 0.0000
# 2 127.5554 77.6846 23.2300 0.0000 0.0000 0.0000
# 3 23.2300 23.2300 25.6161 0.0000 0.0000 0.0000
# 4 0.0000 0.0000 0.0000 19.7728 0.0000 0.0000
# 5 0.0000 0.0000 0.0000 0.0000 19.7728 0.0000
# 6 0.0000 0.0000 0.0000 0.0000 0.0000 24.7127
#
#
#
# Elastic Compliance Matrix: (Units=1/GPa)
#
#
# Indices 1 2 3 4 5 6 
#
# 1 -0.006960 0.013091 -0.005560 0.000000 0.000000 0.000000
# 2 0.013091 -0.006960 -0.005560 0.000000 0.000000 0.000000
# 3 -0.005560 -0.005560 0.049122 0.000000 0.000000 0.000000
# 4 0.000000 0.000000 0.000000 0.050575 0.000000 0.000000
# 5 0.000000 0.000000 0.000000 0.000000 0.050575 0.000000
# 6 0.000000 0.000000 0.000000 0.000000 0.000000 0.040465
#
#
# Mechanical properties :
#
#
# Convention : Reuss Voigt Hill
#
# Bulk Modulus (GPa) = 25.54647 58.77955 42.16301
# Shear Modulus (GPa) = 26.89332 13.31631 20.10482
#
# Velocity S-wave (km/s) = 3.65593 2.57257 3.16101
# Velocity P-wave (km/s) = 5.52426 6.16743 5.85468
#
# Compressibility (1/GPa) = 0.03914434
#
# Stress axis : x y z
#
# Youngs Moduli (GPa) = -143.66902 -143.66902 20.35757
#
# Poissons Ratio (x) = 1.88082 0.11318
# Poissons Ratio (y) = 1.88082 0.11318
# Poissons Ratio (z) = -0.79877 -0.79877
#
# Static dielectric constant tensor:
#      x y z
#    x 1.781280 0.000000 0.000000 
#    y 0.000000 1.781280 0.000000 
#    z 0.000000 0.000000 1.716270 
# 
# From -- ./inp_files/10721.got.cif
#   From: 2010.05.17/outbox.cif.g08.bks.cpg/sg140_6_cif.got.tgz:10721.got - 2010.06.21 00:45:31.
