data_PCOD9572614
_publ_section_title
;
Structure prediction by ZEFSAII (Michael W. Deem and Ramdas Pophale) SiO2 
 PCOD9572614
Probable space group: I 4/M C M
;
_chemical_formula_sum "Si O2"
_cell_formula_units_Z 192
_cell_length_a 19.716925
_cell_length_b 19.716925
_cell_length_c 27.545053
_cell_angle_alpha 90.000000
_cell_angle_beta 90.000000
_cell_angle_gamma 90.000000
_cell_volume 10708.335790
_symmetry_space_group_name_H-M "I 4/M C M"
_symmetry_group_IT_number 140
_symmetry_cell_setting 'tetragonal'
loop_
_space_group_symop_operation_xyz
x,y,z
-y,x,z
-x,-y,z
y,-x,z
x,-y,1/2-z
-x,y,1/2-z
y,x,1/2-z
-y,-x,1/2-z
-x,-y,-z
y,-x,-z
x,y,-z
-y,x,-z
-x,y,1/2+z
x,-y,1/2+z
-y,-x,1/2+z
y,x,1/2+z
1/2+x,1/2+y,1/2+z
1/2-y,1/2+x,1/2+z
1/2-x,1/2-y,1/2+z
1/2+y,1/2-x,1/2+z
1/2+x,1/2-y,-z
1/2-x,1/2+y,-z
1/2+y,1/2+x,-z
1/2-y,1/2-x,-z
1/2-x,1/2-y,1/2-z
1/2+y,1/2-x,1/2-z
1/2+x,1/2+y,1/2-z
1/2-y,1/2+x,1/2-z
1/2-x,1/2+y,z
1/2+x,1/2-y,z
1/2-y,1/2-x,z
1/2+y,1/2+x,z
loop_
_atom_site_type_symbol
_atom_site_label
_atom_site_fract_x
_atom_site_fract_y
_atom_site_fract_z
Si Si1 0.000015 0.386759 0.855409
Si Si2 0.935739 0.321046 0.944635
Si Si3 0.784232 0.174201 0.803718
Si Si4 0.582765 0.421516 0.945856
Si Si5 0.742634 0.483392 0.306437
Si Si6 0.400439 0.697000 0.375300
O O1 0.934242 0.434242 0.845209
O O2 0.990656 0.357992 0.910144
O O3 0.065171 0.434830 0.851019
O O4 0.003867 0.321214 0.821201
O O5 0.872089 0.372089 0.946248
O O6 0.913394 0.253805 0.916100
O O7 0.957832 0.307951 0.000000
O O8 0.814630 0.185371 0.750000
O O9 0.712648 0.212648 0.805227
O O10 0.775543 0.094974 0.814440
O O11 0.835420 0.208667 0.841729
O O12 0.592086 0.502858 0.942356
O O13 0.626673 0.390571 0.903326
O O14 0.605030 0.400205 0.000000
O O15 0.732634 0.500000 0.250000
O O16 0.699324 0.534212 0.340073
#
# Coordination Sequence:
#
# PCOD9572614 Si02
#       6
#    32  32  32  32  32  32
#     4   9  19  34  53  79 109 142 182 230 287 347
#     4   9  18  32  52  79 108 139 178 223 270 327
#     4  11  23  38  56  79 108 148 190 232 285 339
#     4   9  18  33  54  80 106 134 172 219 273 330
#     4  11  22  37  54  79 108 147 189 239 284 341
#     4  11  20  35  56  78 108 142 185 226 275 332
#
# _framework density 17.929956000000001
#
# number of rings (size 3 to 8) (size 9 to 14) (size 15 to 20)
#    0.000    2.000    1.667    3.000    0.000    2.333 
#    0.000    2.500    0.000    1.000    0.000    0.000 
#    0.000    0.000    0.000    0.000    0.000    0.000 
#
# Total GULP energy -535575.069954 kJ/mol
# GULP energy per Si atom -5578.906979 kJ/mol
# Density = 1.788915 g / cm^3
# Si number density = 17.929956 Si / 1000 Ang^3
#
#
#
# Elastic Constant Matrix: (Units=GPa)
#
#
# Indices 1 2 3 4 5 6 
#
# 1 43.0034 -6.4064 8.5973 0.0000 0.0000 0.0000
# 2 -6.4064 43.0038 8.5974 0.0000 0.0000 0.0000
# 3 8.5973 8.5974 88.1899 0.0000 0.0000 0.0000
# 4 0.0000 0.0000 0.0000 21.3930 0.0000 0.0000
# 5 0.0000 0.0000 0.0000 0.0000 21.3931 0.0000
# 6 0.0000 0.0000 0.0000 0.0000 0.0000 13.5950
#
#
#
# Elastic Compliance Matrix: (Units=1/GPa)
#
#
# Indices 1 2 3 4 5 6 
#
# 1 0.024438 0.004199 -0.002792 0.000000 0.000000 0.000000
# 2 0.004199 0.024437 -0.002792 0.000000 0.000000 0.000000
# 3 -0.002792 -0.002792 0.011883 0.000000 0.000000 0.000000
# 4 0.000000 0.000000 0.000000 0.046744 0.000000 0.000000
# 5 0.000000 0.000000 0.000000 0.000000 0.046744 0.000000
# 6 0.000000 0.000000 0.000000 0.000000 0.000000 0.073556
#
#
# Mechanical properties :
#
#
# Convention : Reuss Voigt Hill
#
# Bulk Modulus (GPa) = 17.24463 21.75263 19.49863
# Shear Modulus (GPa) = 20.00784 22.17014 21.08899
#
# Velocity S-wave (km/s) = 3.34412 3.52019 3.43328
# Velocity P-wave (km/s) = 4.95474 5.35543 5.15898
#
# Compressibility (1/GPa) = 0.05798908
#
# Stress axis : x y z
#
# Youngs Moduli (GPa) = 40.92061 40.92101 84.15061
#
# Poissons Ratio (x) = -0.17181 0.23492
# Poissons Ratio (y) = -0.17181 0.23492
# Poissons Ratio (z) = 0.11424 0.11424
#
# Static dielectric constant tensor:
#      x y z
#    x 1.598420 0.000000 0.000000 
#    y 0.000000 1.598420 0.000000 
#    z 0.000000 0.000000 1.610420 
# 
# From -- ./inp_files/9789.got.cif
#   From: 2010.05.17/outbox.cif.g08.bks.cpg/sg140_5_cif.got.tgz:9789.got - 2010.06.21 00:45:31.
