data_PCOD9572158
_publ_section_title
;
Structure prediction by ZEFSAII (Michael W. Deem and Ramdas Pophale) SiO2 
 PCOD9572158
Probable space group: I 4/M C M
;
_chemical_formula_sum "Si O2"
_cell_formula_units_Z 160
_cell_length_a 32.207120
_cell_length_b 32.207120
_cell_length_c 9.150823
_cell_angle_alpha 90.000000
_cell_angle_beta 90.000000
_cell_angle_gamma 90.000000
_cell_volume 9492.135692
_symmetry_space_group_name_H-M "I 4/M C M"
_symmetry_group_IT_number 140
_symmetry_cell_setting 'tetragonal'
loop_
_space_group_symop_operation_xyz
x,y,z
-y,x,z
-x,-y,z
y,-x,z
x,-y,1/2-z
-x,y,1/2-z
y,x,1/2-z
-y,-x,1/2-z
-x,-y,-z
y,-x,-z
x,y,-z
-y,x,-z
-x,y,1/2+z
x,-y,1/2+z
-y,-x,1/2+z
y,x,1/2+z
1/2+x,1/2+y,1/2+z
1/2-y,1/2+x,1/2+z
1/2-x,1/2-y,1/2+z
1/2+y,1/2-x,1/2+z
1/2+x,1/2-y,-z
1/2-x,1/2+y,-z
1/2+y,1/2+x,-z
1/2-y,1/2-x,-z
1/2-x,1/2-y,1/2-z
1/2+y,1/2-x,1/2-z
1/2+x,1/2+y,1/2-z
1/2-y,1/2+x,1/2-z
1/2-x,1/2+y,z
1/2+x,1/2-y,z
1/2-y,1/2-x,z
1/2+y,1/2+x,z
loop_
_atom_site_type_symbol
_atom_site_label
_atom_site_fract_x
_atom_site_fract_y
_atom_site_fract_z
Si Si1 0.290234 0.042880 0.826761
Si Si2 0.000000 0.868777 0.750000
Si Si3 0.064085 0.806912 0.828387
Si Si4 0.931729 0.985900 0.000000
Si Si5 0.697122 0.127806 0.172693
Si Si6 0.656850 0.281139 0.325570
O O1 0.240344 0.048728 0.809188
O O2 0.309142 0.083295 0.748836
O O3 0.302506 0.000000 0.750000
O O4 0.298877 0.042569 0.000000
O O5 0.038344 0.837410 0.723906
O O6 0.982830 0.900798 0.633253
O O7 0.113403 0.805986 0.804315
O O8 0.056134 0.817692 0.000000
O O9 0.968834 0.953216 0.000000
O O10 0.657598 0.157598 0.187923
O O11 0.736540 0.149271 0.251404
O O12 0.706119 0.122395 0.000000
O O13 0.693895 0.306106 0.250000
O O14 0.663072 0.276595 0.500000
#
# Coordination Sequence:
#
# PCOD9572158 Si02
#       6
#    32  16  32  16  32  32
#     4  10  19  33  56  81 114 146 177 222 273 321
#     4  12  20  39  60  74  94 124 164 212 269 334
#     4   9  19  35  52  79 103 126 163 209 265 329
#     4  11  26  42  54  68  90 122 162 210 268 330
#     4  10  21  37  56  80 110 149 193 230 272 326
#     4  10  21  37  54  77 109 140 179 227 275 331
#
# _framework density 16.856058999999998
#
# number of rings (size 3 to 8) (size 9 to 14) (size 15 to 20)
#    0.000    1.900    2.000    3.600    0.000    4.400 
#    9.000    0.000    0.000    0.000    0.000    0.000 
#    0.000    0.400    0.000    4.200    0.000    1.800 
#
# Total GULP energy -446101.028764 kJ/mol
# GULP energy per Si atom -5576.262860 kJ/mol
# Density = 1.681769 g / cm^3
# Si number density = 16.856059 Si / 1000 Ang^3
#
#
#
# Elastic Constant Matrix: (Units=GPa)
#
#
# Indices 1 2 3 4 5 6 
#
# 1 80.3834 49.0761 48.0446 0.0000 0.0000 0.0000
# 2 49.0761 80.3864 48.0458 0.0000 0.0000 0.0000
# 3 48.0446 48.0458 86.0955 0.0000 0.0000 0.0000
# 4 0.0000 0.0000 0.0000 11.2986 0.0000 0.0000
# 5 0.0000 0.0000 0.0000 0.0000 11.2988 0.0000
# 6 0.0000 0.0000 0.0000 0.0000 0.0000 12.8746
#
#
#
# Elastic Compliance Matrix: (Units=1/GPa)
#
#
# Indices 1 2 3 4 5 6 
#
# 1 0.022563 -0.009377 -0.007358 0.000000 0.000000 0.000000
# 2 -0.009377 0.022563 -0.007358 0.000000 0.000000 0.000000
# 3 -0.007358 -0.007358 0.019828 0.000000 0.000000 0.000000
# 4 0.000000 0.000000 0.000000 0.088507 0.000000 0.000000
# 5 0.000000 0.000000 0.000000 0.000000 0.088505 0.000000
# 6 0.000000 0.000000 0.000000 0.000000 0.000000 0.077673
#
#
# Mechanical properties :
#
#
# Convention : Reuss Voigt Hill
#
# Bulk Modulus (GPa) = 59.64424 59.68870 59.66647
# Shear Modulus (GPa) = 13.38998 13.87431 13.63214
#
# Velocity S-wave (km/s) = 2.82152 2.87209 2.84692
# Velocity P-wave (km/s) = 6.78792 6.81808 6.80302
#
# Compressibility (1/GPa) = 0.01676608
#
# Stress axis : x y z
#
# Youngs Moduli (GPa) = 44.31973 44.32115 50.43471
#
# Poissons Ratio (x) = 0.41560 0.37112
# Poissons Ratio (y) = 0.41559 0.37112
# Poissons Ratio (z) = 0.32612 0.32613
#
# Static dielectric constant tensor:
#      x y z
#    x 1.548890 0.000000 0.000000 
#    y 0.000000 1.548890 0.000000 
#    z 0.000000 0.000000 1.562410 
# 
# From -- ./inp_files/1834.got.cif
#   From: 2010.05.17/outbox.cif.g08.bks.cpg/sg140_1_cif.got.tgz:1834.got - 2010.06.21 00:45:31.
