data_PCOD9572177
_publ_section_title
;
Structure prediction by ZEFSAII (Michael W. Deem and Ramdas Pophale) SiO2 
 PCOD9572177
Probable space group: I 4/M C M
;
_chemical_formula_sum "Si O2"
_cell_formula_units_Z 192
_cell_length_a 19.824307
_cell_length_b 19.824307
_cell_length_c 24.180245
_cell_angle_alpha 90.000000
_cell_angle_beta 90.000000
_cell_angle_gamma 90.000000
_cell_volume 9502.912405
_symmetry_space_group_name_H-M "I 4/M C M"
_symmetry_group_IT_number 140
_symmetry_cell_setting 'tetragonal'
loop_
_space_group_symop_operation_xyz
x,y,z
-y,x,z
-x,-y,z
y,-x,z
x,-y,1/2-z
-x,y,1/2-z
y,x,1/2-z
-y,-x,1/2-z
-x,-y,-z
y,-x,-z
x,y,-z
-y,x,-z
-x,y,1/2+z
x,-y,1/2+z
-y,-x,1/2+z
y,x,1/2+z
1/2+x,1/2+y,1/2+z
1/2-y,1/2+x,1/2+z
1/2-x,1/2-y,1/2+z
1/2+y,1/2-x,1/2+z
1/2+x,1/2-y,-z
1/2-x,1/2+y,-z
1/2+y,1/2+x,-z
1/2-y,1/2-x,-z
1/2-x,1/2-y,1/2-z
1/2+y,1/2-x,1/2-z
1/2+x,1/2+y,1/2-z
1/2-y,1/2+x,1/2-z
1/2-x,1/2+y,z
1/2+x,1/2-y,z
1/2-y,1/2-x,z
1/2+y,1/2+x,z
loop_
_atom_site_type_symbol
_atom_site_label
_atom_site_fract_x
_atom_site_fract_y
_atom_site_fract_z
Si Si1 0.763052 0.148073 0.562750
Si Si2 0.684510 0.579994 0.760187
Si Si3 0.595939 0.211008 0.670305
Si Si4 0.996802 0.606250 0.170959
Si Si5 0.746922 0.362396 0.373296
Si Si6 0.456501 0.843111 0.939433
O O1 0.777569 0.125648 0.500000
O O2 0.700779 0.200779 0.559722
O O3 0.741135 0.092985 0.608367
O O4 0.823657 0.191032 0.590103
O O5 0.684361 0.500000 0.750000
O O6 0.610960 0.610960 0.750000
O O7 0.731245 0.613484 0.712978
O O8 0.715151 0.604813 0.818524
O O9 0.653282 0.153282 0.670492
O O10 0.526946 0.175976 0.691134
O O11 0.922173 0.577827 0.183397
O O12 0.001756 0.617266 0.104864
O O13 0.048596 0.548596 0.188603
O O14 0.806265 0.306265 0.361208
O O15 0.779716 0.422591 0.409260
O O16 0.393487 0.893487 0.946297
O O17 0.486094 0.830214 0.000000
#
# Coordination Sequence:
#
# PCOD9572177 Si02
#       6
#    32  32  32  32  32  32
#     4   9  17  30  53  87 122 152 184 232 297 358
#     4  12  25  41  61  85 112 147 195 245 302 363
#     4  10  20  36  59  88 121 155 196 246 297 352
#     4   9  18  32  50  76 116 165 209 242 278 338
#     4  10  19  34  58  86 117 147 184 240 303 358
#     4   9  17  29  47  74 109 151 197 238 279 333
#
# _framework density 20.204332000000001
#
# number of rings (size 3 to 8) (size 9 to 14) (size 15 to 20)
#    0.000    2.167    1.667    2.000    0.000    3.833 
#    0.000    4.167    0.000    1.000    0.000    4.667 
#    0.000    1.333    0.000    0.000    0.000    0.000 
#
# Total GULP energy -535243.187024 kJ/mol
# GULP energy per Si atom -5575.449865 kJ/mol
# Density = 2.015835 g / cm^3
# Si number density = 20.204332 Si / 1000 Ang^3
#
#
#
# Elastic Constant Matrix: (Units=GPa)
#
#
# Indices 1 2 3 4 5 6 
#
# 1 64.8770 28.6559 25.6982 0.0000 0.0000 0.0000
# 2 28.6559 64.8770 25.6982 0.0001 0.0000 0.0000
# 3 25.6982 25.6982 152.5164 0.0000 0.0000 0.0000
# 4 0.0000 0.0001 0.0000 -570.7861 0.0003 0.0000
# 5 0.0000 0.0000 0.0000 0.0003 -570.7877 0.0000
# 6 0.0000 0.0000 0.0000 0.0000 0.0000 33.7221
#
#
#
# Elastic Compliance Matrix: (Units=1/GPa)
#
#
# Indices 1 2 3 4 5 6 
#
# 1 0.019695 -0.007913 -0.001985 0.000000 0.000000 0.000000
# 2 -0.007913 0.019695 -0.001985 0.000000 0.000000 0.000000
# 3 -0.001985 -0.001985 0.007226 0.000000 0.000000 0.000000
# 4 0.000000 0.000000 0.000000 -0.001752 0.000000 0.000000
# 5 0.000000 0.000000 0.000000 0.000000 -0.001752 0.000000
# 6 0.000000 0.000000 0.000000 0.000000 0.000000 0.029654
#
#
# Mechanical properties :
#
#
# Convention : Reuss Voigt Hill
#
# Bulk Modulus (GPa) = 43.76502 49.15278 46.45890
# Shear Modulus (GPa) = 48.00783 -208.08914 -80.04066
#
# Velocity S-wave (km/s) = 4.87983 -10.15952 -6.30092
# Velocity P-wave (km/s) = 7.31154 10.64146 5.46727
#
# Compressibility (1/GPa) = 0.02284930
#
# Stress axis : x y z
#
# Youngs Moduli (GPa) = 50.77368 50.77369 138.39516
#
# Poissons Ratio (x) = 0.40177 0.27475
# Poissons Ratio (y) = 0.40177 0.27475
# Poissons Ratio (z) = 0.10080 0.10080
#
# Static dielectric constant tensor:
#      x y z
#    x 1.736880 0.000000 0.000000 
#    y 0.000000 1.736880 0.000000 
#    z 0.000000 0.000000 1.768980 
# 
# From -- ./inp_files/9794.got.cif
#   From: 2010.05.17/outbox.cif.g08.bks.cpg/sg140_5_cif.got.tgz:9794.got - 2010.06.21 00:45:31.
