data_PCOD9572377
_publ_section_title
;
Structure prediction by ZEFSAII (Michael W. Deem and Ramdas Pophale) SiO2 
 PCOD9572377
Probable space group: I 4/M C M
;
_chemical_formula_sum "Si O2"
_cell_formula_units_Z 80
_cell_length_a 16.205764
_cell_length_b 16.205764
_cell_length_c 12.788188
_cell_angle_alpha 90.000000
_cell_angle_beta 90.000000
_cell_angle_gamma 90.000000
_cell_volume 3358.520724
_symmetry_space_group_name_H-M "I 4/M C M"
_symmetry_group_IT_number 140
_symmetry_cell_setting 'tetragonal'
loop_
_space_group_symop_operation_xyz
x,y,z
-y,x,z
-x,-y,z
y,-x,z
x,-y,1/2-z
-x,y,1/2-z
y,x,1/2-z
-y,-x,1/2-z
-x,-y,-z
y,-x,-z
x,y,-z
-y,x,-z
-x,y,1/2+z
x,-y,1/2+z
-y,-x,1/2+z
y,x,1/2+z
1/2+x,1/2+y,1/2+z
1/2-y,1/2+x,1/2+z
1/2-x,1/2-y,1/2+z
1/2+y,1/2-x,1/2+z
1/2+x,1/2-y,-z
1/2-x,1/2+y,-z
1/2+y,1/2+x,-z
1/2-y,1/2-x,-z
1/2-x,1/2-y,1/2-z
1/2+y,1/2-x,1/2-z
1/2+x,1/2+y,1/2-z
1/2-y,1/2+x,1/2-z
1/2-x,1/2+y,z
1/2+x,1/2-y,z
1/2-y,1/2-x,z
1/2+y,1/2+x,z
loop_
_atom_site_type_symbol
_atom_site_label
_atom_site_fract_x
_atom_site_fract_y
_atom_site_fract_z
Si Si1 0.385769 0.248145 0.836828
Si Si2 0.578366 0.385533 0.500000
Si Si3 0.197394 0.566001 0.617508
O O1 0.303572 0.196429 0.860779
O O2 0.396889 0.252010 0.711585
O O3 0.467660 0.197180 0.871339
O O4 0.394948 0.332170 0.899931
O O5 0.609121 0.478855 0.500000
O O6 0.224686 0.587841 0.500000
O O7 0.108537 0.608537 0.632104
#
# Coordination Sequence:
#
# PCOD9572377 Si02
#       3
#    32  16  32
#     4  10  20  39  70 102 135 176 228 289 346 411
#     4  11  25  46  70  95 133 189 242 289 350 415
#     4   9  18  34  63 104 145 180 215 270 351 431
#
# _framework density 23.820011999999998
#
# number of rings (size 3 to 8) (size 9 to 14) (size 15 to 20)
#    0.000    2.200    2.000    0.600    0.000    0.800 
#    0.000   18.000    0.000   21.600    0.000    0.000 
#    0.000    0.000    0.000    0.000    0.000    0.000 
#
# Total GULP energy -223847.441256 kJ/mol
# GULP energy per Si atom -5596.186031 kJ/mol
# Density = 2.376580 g / cm^3
# Si number density = 23.820012 Si / 1000 Ang^3
#
#
#
# Elastic Constant Matrix: (Units=GPa)
#
#
# Indices 1 2 3 4 5 6 
#
# 1 151.0538 96.0079 67.1582 0.0000 0.0000 0.0000
# 2 96.0079 151.0538 67.1582 0.0000 0.0000 0.0000
# 3 67.1582 67.1582 212.5822 0.0000 0.0000 0.0000
# 4 0.0000 0.0000 0.0000 29.8710 0.0000 0.0000
# 5 0.0000 0.0000 0.0000 0.0000 29.8710 0.0000
# 6 0.0000 0.0000 0.0000 0.0000 0.0000 14.5043
#
#
#
# Elastic Compliance Matrix: (Units=1/GPa)
#
#
# Indices 1 2 3 4 5 6 
#
# 1 0.011527 -0.006640 -0.001544 0.000000 0.000000 0.000000
# 2 -0.006640 0.011527 -0.001544 0.000000 0.000000 0.000000
# 3 -0.001544 -0.001544 0.005680 0.000000 0.000000 0.000000
# 4 0.000000 0.000000 0.000000 0.033477 0.000000 0.000000
# 5 0.000000 0.000000 0.000000 0.000000 0.033477 0.000000
# 6 0.000000 0.000000 0.000000 0.000000 0.000000 0.068945
#
#
# Mechanical properties :
#
#
# Convention : Reuss Voigt Hill
#
# Bulk Modulus (GPa) = 107.78295 108.37094 108.07694
# Shear Modulus (GPa) = 26.71215 33.80695 30.25955
#
# Velocity S-wave (km/s) = 3.35239 3.77140 3.56805
# Velocity P-wave (km/s) = 7.76736 8.03487 7.90225
#
# Compressibility (1/GPa) = 0.00927791
#
# Stress axis : x y z
#
# Youngs Moduli (GPa) = 86.75455 86.75455 176.07140
#
# Poissons Ratio (x) = 0.57604 0.27183
# Poissons Ratio (y) = 0.57604 0.27183
# Poissons Ratio (z) = 0.13394 0.13394
#
# Static dielectric constant tensor:
#      x y z
#    x 1.906070 0.000000 0.000000 
#    y 0.000000 1.906070 0.000000 
#    z 0.000000 0.000000 1.933570 
# 
# From -- ./inp_files/3891.got.cif
#   From: 2010.05.17/outbox.cif.g08.bks.cpg/sg140_2_cif.got.tgz:3891.got - 2010.06.21 00:45:31.
