data_PCOD9572069
_publ_section_title
;
Structure prediction by ZEFSAII (Michael W. Deem and Ramdas Pophale) SiO2 
 PCOD9572069
Probable space group: I 4/M C M
;
_chemical_formula_sum "Si O2"
_cell_formula_units_Z 192
_cell_length_a 18.976189
_cell_length_b 18.976189
_cell_length_c 27.036641
_cell_angle_alpha 90.000000
_cell_angle_beta 90.000000
_cell_angle_gamma 90.000000
_cell_volume 9735.779490
_symmetry_space_group_name_H-M "I 4/M C M"
_symmetry_group_IT_number 140
_symmetry_cell_setting 'tetragonal'
loop_
_space_group_symop_operation_xyz
x,y,z
-y,x,z
-x,-y,z
y,-x,z
x,-y,1/2-z
-x,y,1/2-z
y,x,1/2-z
-y,-x,1/2-z
-x,-y,-z
y,-x,-z
x,y,-z
-y,x,-z
-x,y,1/2+z
x,-y,1/2+z
-y,-x,1/2+z
y,x,1/2+z
1/2+x,1/2+y,1/2+z
1/2-y,1/2+x,1/2+z
1/2-x,1/2-y,1/2+z
1/2+y,1/2-x,1/2+z
1/2+x,1/2-y,-z
1/2-x,1/2+y,-z
1/2+y,1/2+x,-z
1/2-y,1/2-x,-z
1/2-x,1/2-y,1/2-z
1/2+y,1/2-x,1/2-z
1/2+x,1/2+y,1/2-z
1/2-y,1/2+x,1/2-z
1/2-x,1/2+y,z
1/2+x,1/2-y,z
1/2-y,1/2-x,z
1/2+y,1/2+x,z
loop_
_atom_site_type_symbol
_atom_site_label
_atom_site_fract_x
_atom_site_fract_y
_atom_site_fract_z
Si Si1 0.842183 0.539511 0.698821
Si Si2 0.218129 0.281872 0.197639
Si Si3 0.348599 0.375995 0.808045
Si Si4 0.976507 0.197919 0.849489
Si Si5 0.571517 0.291367 0.056100
Si Si6 0.896196 0.396196 0.657306
Si Si7 0.157111 0.342890 0.942247
Si Si8 0.414025 0.579508 0.500000
O O1 0.824864 0.500000 0.750000
O O2 0.894636 0.605365 0.705564
O O3 0.770037 0.557318 0.671149
O O4 0.879651 0.476645 0.669353
O O5 0.250000 0.250000 0.250000
O O6 0.287118 0.321005 0.177048
O O7 0.156866 0.343135 0.188643
O O8 0.365332 0.365332 0.750000
O O9 0.418181 0.361186 0.840046
O O10 0.320107 0.454168 0.817338
O O11 0.009965 0.208440 0.903836
O O12 0.633627 0.237054 0.067478
O O13 0.602734 0.369592 0.047585
O O14 0.546887 0.271783 0.000000
O O15 0.884749 0.384749 0.599294
O O16 0.142055 0.357945 0.000000
O O17 0.405912 0.494937 0.500000
#
# Coordination Sequence:
#
# PCOD9572069 Si02
#       8
#    32  16  32  32  32  16  16  16
#     4  12  25  39  62  95 129 164 215 277 327 386
#     4  10  22  39  63  90 126 168 201 257 324 385
#     4  11  24  41  61  90 126 168 209 253 315 386
#     4  12  25  41  65  91 128 170 210 262 320 390
#     4   9  21  37  64  91 120 160 212 263 316 379
#     4  12  21  42  62  91 134 164 214 269 323 389
#     4  10  18  39  65  93 121 167 215 265 318 377
#     4   9  20  37  62  92 128 154 208 277 328 373
#
# _framework density 19.721070000000001
#
# number of rings (size 3 to 8) (size 9 to 14) (size 15 to 20)
#    0.500    0.750    4.167    1.750    5.833    0.333 
#    0.000    0.833    0.000    2.500    2.167    0.000 
#    0.000    0.000    0.000    0.000    0.000    0.000 
#
# Total GULP energy -534917.003996 kJ/mol
# GULP energy per Si atom -5572.052125 kJ/mol
# Density = 1.967618 g / cm^3
# Si number density = 19.721070 Si / 1000 Ang^3
#
#
#
# Elastic Constant Matrix: (Units=GPa)
#
#
# Indices 1 2 3 4 5 6 
#
# 1 91.1001 22.7632 19.1127 0.0000 0.0000 0.0000
# 2 22.7632 91.0999 19.1127 0.0000 0.0000 0.0000
# 3 19.1127 19.1127 115.4633 0.0000 0.0000 0.0000
# 4 0.0000 0.0000 0.0000 -5.2939 0.0000 0.0000
# 5 0.0000 0.0000 0.0000 0.0000 -5.2949 0.0000
# 6 0.0000 0.0000 0.0000 0.0000 0.0000 28.8546
#
#
#
# Elastic Compliance Matrix: (Units=1/GPa)
#
#
# Indices 1 2 3 4 5 6 
#
# 1 0.011966 -0.002667 -0.001539 0.000000 0.000000 0.000000
# 2 -0.002667 0.011966 -0.001539 0.000000 0.000000 0.000000
# 3 -0.001539 -0.001539 0.009170 0.000000 0.000000 0.000000
# 4 0.000000 0.000000 0.000000 -0.188895 0.000000 0.000000
# 5 0.000000 0.000000 0.000000 0.000000 -0.188862 0.000000
# 6 0.000000 0.000000 0.000000 0.000000 0.000000 0.034657
#
#
# Mechanical properties :
#
#
# Convention : Reuss Voigt Hill
#
# Bulk Modulus (GPa) = 46.27142 46.62671 46.44907
# Shear Modulus (GPa) = -17.16425 19.43148 1.13361
#
# Velocity S-wave (km/s) = -2.95337 3.14238 0.75899
# Velocity P-wave (km/s) = 3.44732 6.07128 4.93682
#
# Compressibility (1/GPa) = 0.02161161
#
# Stress axis : x y z
#
# Youngs Moduli (GPa) = 83.56797 83.56782 109.04692
#
# Poissons Ratio (x) = 0.22288 0.16786
# Poissons Ratio (y) = 0.22288 0.16786
# Poissons Ratio (z) = 0.12864 0.12864
#
# Static dielectric constant tensor:
#      x y z
#    x 1.707610 0.000000 0.000000 
#    y 0.000000 1.707610 0.000000 
#    z 0.000000 0.000000 1.799720 
# 
# From -- ./inp_files/11675.got.cif
#   From: 2010.05.17/outbox.cif.g08.bks.cpg/sg140_6_cif.got.tgz:11675.got - 2010.06.21 00:45:31.
