data_PCOD9572795
_publ_section_title
;
Structure prediction by ZEFSAII (Michael W. Deem and Ramdas Pophale) SiO2 
 PCOD9572795
Probable space group: I 41/A M D
;
_chemical_formula_sum "Si O2"
_cell_formula_units_Z 176
_cell_length_a 19.122776
_cell_length_b 19.122776
_cell_length_c 27.692835
_cell_angle_alpha 90.000000
_cell_angle_beta 90.000000
_cell_angle_gamma 90.000000
_cell_volume 10126.731465
_symmetry_space_group_name_H-M "I 41/A M D"
_symmetry_group_IT_number 141
_space_group.IT_coordinate_system_code '2'
_symmetry_cell_setting 'tetragonal'
loop_
_space_group_symop_operation_xyz
x,y,z
1/4-y,3/4+x,1/4+z
-x,1/2-y,z
1/4+y,1/4-x,3/4+z
x,-y,-z
-x,1/2+y,-z
1/4+y,3/4+x,1/4-z
1/4-y,1/4-x,3/4-z
-x,-y,-z
3/4+y,1/4-x,3/4-z
x,1/2+y,-z
3/4-y,3/4+x,1/4-z
-x,y,z
x,1/2-y,z
3/4-y,1/4-x,3/4+z
3/4+y,3/4+x,1/4+z
1/2+x,1/2+y,1/2+z
3/4-y,1/4+x,3/4+z
1/2-x,-y,1/2+z
3/4+y,3/4-x,1/4+z
1/2+x,1/2-y,1/2-z
1/2-x,y,1/2-z
3/4+y,1/4+x,3/4-z
3/4-y,3/4-x,1/4-z
1/2-x,1/2-y,1/2-z
1/4+y,3/4-x,1/4-z
1/2+x,y,1/2-z
1/4-y,1/4+x,3/4-z
1/2-x,1/2+y,1/2+z
1/2+x,-y,1/2+z
1/4-y,3/4-x,1/4+z
1/4+y,1/4+x,3/4+z
loop_
_atom_site_type_symbol
_atom_site_label
_atom_site_fract_x
_atom_site_fract_y
_atom_site_fract_z
Si Si1 0.083103 0.079245 0.841653
Si Si2 0.323439 0.583582 0.507397
Si Si3 0.160868 0.421330 0.479194
Si Si4 0.639398 0.932820 0.612465
Si Si5 0.806454 0.056454 0.375000
Si Si6 0.419117 0.832888 0.056192
O O1 0.106387 0.143614 0.875000
O O2 0.123467 0.090929 0.790792
O O3 0.000000 0.073603 0.834737
O O4 0.110422 0.008565 0.869538
O O5 0.325315 0.500000 0.500000
O O6 0.241619 0.601526 0.514701
O O7 0.368641 0.590680 0.556476
O O8 0.155061 0.500000 0.500000
O O9 0.150665 0.422281 0.422060
O O10 0.111276 0.372057 0.509672
O O11 0.723191 0.934947 0.618701
O O12 0.606835 0.876738 0.648418
O O13 0.500000 0.850921 0.063428
O O14 0.412598 0.750000 0.050158
#
# Coordination Sequence:
#
# PCOD9572795 Si02
#       6
#    32  32  32  32  16  32
#     4  12  23  39  63  92 126 165 204 253 316 377
#     4  10  19  35  64  94 118 148 202 260 300 348
#     4  10  18  34  59  87 116 149 192 249 298 349
#     4  11  19  38  63  90 121 155 205 254 304 363
#     4  10  18  34  62  93 117 140 196 266 304 336
#     4  11  24  40  57  83 124 166 200 243 305 371
#
# _framework density 17.379743999999999
#
# number of rings (size 3 to 8) (size 9 to 14) (size 15 to 20)
#    0.000    1.273    6.364    1.636    0.000    1.273 
#    0.000    6.364    0.000    1.091    0.000    0.000 
#    0.000    0.000    0.000    0.000    0.000    0.000 
#
# Total GULP energy -490619.567839 kJ/mol
# GULP energy per Si atom -5575.222362 kJ/mol
# Density = 1.734019 g / cm^3
# Si number density = 17.379744 Si / 1000 Ang^3
#
#
#
# Elastic Constant Matrix: (Units=GPa)
#
#
# Indices 1 2 3 4 5 6 
#
# 1 66.8744 31.1900 41.3174 0.0000 0.0000 0.0000
# 2 31.1900 66.8706 41.3160 0.0000 0.0000 0.0000
# 3 41.3174 41.3160 142.3273 0.0000 0.0000 0.0000
# 4 0.0000 0.0000 0.0000 23.3821 0.0000 0.0000
# 5 0.0000 0.0000 0.0000 0.0000 23.3822 0.0000
# 6 0.0000 0.0000 0.0000 0.0000 0.0000 23.7875
#
#
#
# Elastic Compliance Matrix: (Units=1/GPa)
#
#
# Indices 1 2 3 4 5 6 
#
# 1 0.020762 -0.007263 -0.003919 0.000000 0.000000 0.000000
# 2 -0.007263 0.020763 -0.003919 0.000000 0.000000 0.000000
# 3 -0.003919 -0.003919 0.009301 0.000000 0.000000 0.000000
# 4 0.000000 0.000000 0.000000 0.042768 0.000000 0.000000
# 5 0.000000 0.000000 0.000000 0.000000 0.042768 0.000000
# 6 0.000000 0.000000 0.000000 0.000000 0.000000 0.042039
#
#
# Mechanical properties :
#
#
# Convention : Reuss Voigt Hill
#
# Bulk Modulus (GPa) = 48.48387 55.96879 52.22633
# Shear Modulus (GPa) = 23.20440 24.92695 24.06568
#
# Velocity S-wave (km/s) = 3.65792 3.79126 3.72519
# Velocity P-wave (km/s) = 6.76741 7.17205 6.97267
#
# Compressibility (1/GPa) = 0.02062542
#
# Stress axis : x y z
#
# Youngs Moduli (GPa) = 48.16527 48.16258 107.51138
#
# Poissons Ratio (x) = 0.34978 0.42133
# Poissons Ratio (y) = 0.34980 0.42133
# Poissons Ratio (z) = 0.18876 0.18875
#
# Static dielectric constant tensor:
#      x y z
#    x 1.582410 0.000000 0.000000 
#    y 0.000000 1.582410 0.000000 
#    z 0.000000 0.000000 1.647670 
# 
# From -- ./inp_files/14393.got.cif
#   From: 2010.05.17/outbox.cif.g08.bks.cpg/sg141_8_cif.got.tgz:14393.got - 2010.05.20 13:30:51.
