data_PCOD9572753
_publ_section_title
;
Structure prediction by ZEFSAII (Michael W. Deem and Ramdas Pophale) SiO2 
 PCOD9572753
Probable space group: I 41/A M D
;
_chemical_formula_sum "Si O2"
_cell_formula_units_Z 128
_cell_length_a 22.875265
_cell_length_b 22.875265
_cell_length_c 15.348974
_cell_angle_alpha 90.000000
_cell_angle_beta 90.000000
_cell_angle_gamma 90.000000
_cell_volume 8031.776561
_symmetry_space_group_name_H-M "I 41/A M D"
_symmetry_group_IT_number 141
_space_group.IT_coordinate_system_code '2'
_symmetry_cell_setting 'tetragonal'
loop_
_space_group_symop_operation_xyz
x,y,z
1/4-y,3/4+x,1/4+z
-x,1/2-y,z
1/4+y,1/4-x,3/4+z
x,-y,-z
-x,1/2+y,-z
1/4+y,3/4+x,1/4-z
1/4-y,1/4-x,3/4-z
-x,-y,-z
3/4+y,1/4-x,3/4-z
x,1/2+y,-z
3/4-y,3/4+x,1/4-z
-x,y,z
x,1/2-y,z
3/4-y,1/4-x,3/4+z
3/4+y,3/4+x,1/4+z
1/2+x,1/2+y,1/2+z
3/4-y,1/4+x,3/4+z
1/2-x,-y,1/2+z
3/4+y,3/4-x,1/4+z
1/2+x,1/2-y,1/2-z
1/2-x,y,1/2-z
3/4+y,1/4+x,3/4-z
3/4-y,3/4-x,1/4-z
1/2-x,1/2-y,1/2-z
1/4+y,3/4-x,1/4-z
1/2+x,y,1/2-z
1/4-y,1/4+x,3/4-z
1/2-x,1/2+y,1/2+z
1/2+x,-y,1/2+z
1/4-y,3/4-x,1/4+z
1/4+y,1/4+x,3/4+z
loop_
_atom_site_type_symbol
_atom_site_label
_atom_site_fract_x
_atom_site_fract_y
_atom_site_fract_z
Si Si1 0.929744 0.679744 0.625000
Si Si2 0.929636 0.375594 0.193603
Si Si3 0.434715 0.679701 0.228114
Si Si4 0.865792 0.615792 0.125000
Si Si5 0.568871 0.999284 0.394392
O O1 0.921686 0.750000 0.639171
O O2 0.893643 0.660262 0.539576
O O3 0.911269 0.328919 0.120386
O O4 0.916829 0.439237 0.152693
O O5 0.000000 0.372667 0.197784
O O6 0.500000 0.662987 0.255135
O O7 0.430185 0.750000 0.232750
O O8 0.388520 0.651980 0.292342
O O9 0.799374 0.635527 0.112491
O O10 0.500000 0.985480 0.374946
O O11 0.572960 0.000000 0.500000
#
# Coordination Sequence:
#
# PCOD9572753 Si02
#       5
#    16  32  32  16  32
#     4   9  16  28  50  79 106 135 171 208 251 300
#     4   9  17  30  48  71 102 136 169 205 246 302
#     4  10  18  27  43  73 107 129 150 196 258 308
#     4  12  20  29  48  71 100 129 171 204 243 302
#     4  10  19  33  50  71 101 136 171 205 247 303
#
# _framework density 15.936698
#
# number of rings (size 3 to 8) (size 9 to 14) (size 15 to 20)
#    0.000    2.125    2.500    3.000    0.000    4.000 
#    0.000    0.000    0.000    3.000    0.000    7.000 
#    0.000    0.000    0.000    0.000    0.000    0.000 
#
# Total GULP energy -356393.996711 kJ/mol
# GULP energy per Si atom -5568.656199 kJ/mol
# Density = 1.590043 g / cm^3
# Si number density = 15.936698 Si / 1000 Ang^3
#
#
#
# Elastic Constant Matrix: (Units=GPa)
#
#
# Indices 1 2 3 4 5 6 
#
# 1 38.8329 23.0755 14.8574 0.0000 0.0000 0.0000
# 2 23.0755 38.8329 14.8574 0.0000 0.0000 0.0000
# 3 14.8574 14.8574 103.1613 0.0000 0.0000 0.0000
# 4 0.0000 0.0000 0.0000 2.3504 0.0000 0.0000
# 5 0.0000 0.0000 0.0000 0.0000 2.3504 0.0000
# 6 0.0000 0.0000 0.0000 0.0000 0.0000 18.6451
#
#
#
# Elastic Compliance Matrix: (Units=1/GPa)
#
#
# Indices 1 2 3 4 5 6 
#
# 1 0.040407 -0.023055 -0.002499 0.000000 0.000000 0.000000
# 2 -0.023055 0.040407 -0.002499 0.000000 0.000000 0.000000
# 3 -0.002499 -0.002499 0.010413 0.000000 0.000000 0.000000
# 4 0.000000 0.000000 0.000000 0.425453 0.000000 0.000000
# 5 0.000000 0.000000 0.000000 0.000000 0.425453 0.000000
# 6 0.000000 0.000000 0.000000 0.000000 0.000000 0.053633
#
#
# Mechanical properties :
#
#
# Convention : Reuss Voigt Hill
#
# Bulk Modulus (GPa) = 28.47234 31.82307 30.14770
# Shear Modulus (GPa) = 4.70110 13.20498 8.95304
#
# Velocity S-wave (km/s) = 1.71938 2.88165 2.37278
# Velocity P-wave (km/s) = 4.67401 5.57527 5.14441
#
# Compressibility (1/GPa) = 0.03512181
#
# Stress axis : x y z
#
# Youngs Moduli (GPa) = 24.74793 24.74793 96.03007
#
# Poissons Ratio (x) = 0.57056 0.23999
# Poissons Ratio (y) = 0.57056 0.23999
# Poissons Ratio (z) = 0.06185 0.06185
#
# Static dielectric constant tensor:
#      x y z
#    x 1.537840 0.000000 0.000000 
#    y 0.000000 1.537840 0.000000 
#    z 0.000000 0.000000 1.558000 
# 
# From -- ./inp_files/6240.got.cif
#   From: 2010.05.17/outbox.cif.g08.bks.cpg/sg141_4_cif.got.tgz:6240.got - 2010.05.20 13:30:51.
