data_PCOD9572228
_publ_section_title
;
Structure prediction by ZEFSAII (Michael W. Deem and Ramdas Pophale) SiO2 
 PCOD9572228
Probable space group: I 4/M C M
;
_chemical_formula_sum "Si O2"
_cell_formula_units_Z 96
_cell_length_a 25.912738
_cell_length_b 25.912738
_cell_length_c 8.676095
_cell_angle_alpha 90.000000
_cell_angle_beta 90.000000
_cell_angle_gamma 90.000000
_cell_volume 5825.737429
_symmetry_space_group_name_H-M "I 4/M C M"
_symmetry_group_IT_number 140
_symmetry_cell_setting 'tetragonal'
loop_
_space_group_symop_operation_xyz
x,y,z
-y,x,z
-x,-y,z
y,-x,z
x,-y,1/2-z
-x,y,1/2-z
y,x,1/2-z
-y,-x,1/2-z
-x,-y,-z
y,-x,-z
x,y,-z
-y,x,-z
-x,y,1/2+z
x,-y,1/2+z
-y,-x,1/2+z
y,x,1/2+z
1/2+x,1/2+y,1/2+z
1/2-y,1/2+x,1/2+z
1/2-x,1/2-y,1/2+z
1/2+y,1/2-x,1/2+z
1/2+x,1/2-y,-z
1/2-x,1/2+y,-z
1/2+y,1/2+x,-z
1/2-y,1/2-x,-z
1/2-x,1/2-y,1/2-z
1/2+y,1/2-x,1/2-z
1/2+x,1/2+y,1/2-z
1/2-y,1/2+x,1/2-z
1/2-x,1/2+y,z
1/2+x,1/2-y,z
1/2-y,1/2-x,z
1/2+y,1/2+x,z
loop_
_atom_site_type_symbol
_atom_site_label
_atom_site_fract_x
_atom_site_fract_y
_atom_site_fract_z
Si Si1 0.749566 0.667669 0.314809
Si Si2 0.054839 0.253850 0.181308
Si Si3 0.049355 0.634025 0.179845
O O1 0.706223 0.706223 0.250000
O O2 0.748319 0.666396 0.500000
O O3 0.804698 0.695303 0.271373
O O4 0.738655 0.610052 0.253767
O O5 0.054214 0.314765 0.219713
O O6 0.000000 0.233657 0.250000
O O7 0.055314 0.244204 0.000000
O O8 0.099444 0.599444 0.190046
O O9 0.000000 0.605170 0.250000
O O10 0.041571 0.647836 0.000000
#
# Coordination Sequence:
#
# PCOD9572228 Si02
#       3
#    32  32  32
#     4  10  20  34  52  75 103 133 166 204 247 296
#     4  11  21  33  50  70  94 125 160 198 241 289
#     4  10  20  32  45  61  82 111 149 193 239 285
#
# _framework density 16.478601000000001
#
# number of rings (size 3 to 8) (size 9 to 14) (size 15 to 20)
#    0.000    1.667    0.000    8.000    0.000    9.000 
#    0.000    1.667    0.000    0.000    0.000    0.000 
#    0.000    0.667    0.000    6.667    0.000    4.000 
#
# Total GULP energy -267502.747201 kJ/mol
# GULP energy per Si atom -5572.973900 kJ/mol
# Density = 1.644109 g / cm^3
# Si number density = 16.478601 Si / 1000 Ang^3
#
#
#
# Elastic Constant Matrix: (Units=GPa)
#
#
# Indices 1 2 3 4 5 6 
#
# 1 82.8730 30.5065 33.1758 0.0000 0.0000 0.0000
# 2 30.5065 82.8730 33.1758 0.0000 0.0000 0.0000
# 3 33.1758 33.1758 95.7427 0.0000 0.0000 0.0000
# 4 0.0000 0.0000 0.0000 24.1218 0.0000 0.0000
# 5 0.0000 0.0000 0.0000 0.0000 24.1218 0.0000
# 6 0.0000 0.0000 0.0000 0.0000 0.0000 9.0711
#
#
#
# Elastic Compliance Matrix: (Units=1/GPa)
#
#
# Indices 1 2 3 4 5 6 
#
# 1 0.015080 -0.004016 -0.003834 0.000000 0.000000 0.000000
# 2 -0.004016 0.015080 -0.003834 0.000000 0.000000 0.000000
# 3 -0.003834 -0.003834 0.013101 0.000000 0.000000 0.000000
# 4 0.000000 0.000000 0.000000 0.041456 0.000000 0.000000
# 5 0.000000 0.000000 0.000000 0.000000 0.041456 0.000000
# 6 0.000000 0.000000 0.000000 0.000000 0.000000 0.110240
#
#
# Mechanical properties :
#
#
# Convention : Reuss Voigt Hill
#
# Bulk Modulus (GPa) = 50.26666 50.57833 50.42250
# Shear Modulus (GPa) = 18.76793 22.43833 20.60313
#
# Velocity S-wave (km/s) = 3.37846 3.69408 3.53979
# Velocity P-wave (km/s) = 6.76676 6.99678 6.88273
#
# Compressibility (1/GPa) = 0.01989390
#
# Stress axis : x y z
#
# Youngs Moduli (GPa) = 66.31387 66.31387 76.32761
#
# Poissons Ratio (x) = 0.26634 0.29261
# Poissons Ratio (y) = 0.26634 0.29261
# Poissons Ratio (z) = 0.25422 0.25422
#
# Static dielectric constant tensor:
#      x y z
#    x 1.598960 0.000000 0.000000 
#    y 0.000000 1.598960 0.000000 
#    z 0.000000 0.000000 1.582450 
# 
# From -- ./inp_files/924.got.cif
#   From: 2010.05.17/outbox.cif.g08.bks.cpg/sg140_1_cif.got.tgz:924.got - 2010.06.21 00:45:31.
