data_PCOD9572722
_publ_section_title
;
Structure prediction by ZEFSAII (Michael W. Deem and Ramdas Pophale) SiO2 
 PCOD9572722
Probable space group: I 4/M C M
;
_chemical_formula_sum "Si O2"
_cell_formula_units_Z 80
_cell_length_a 21.000000
_cell_length_b 21.000000
_cell_length_c 18.000000
_cell_angle_alpha 90.000000
_cell_angle_beta 90.000000
_cell_angle_gamma 90.000000
_cell_volume 7938.000000
_symmetry_space_group_name_H-M "I 4/M C M"
_symmetry_group_IT_number 140
_symmetry_cell_setting 'tetragonal'
loop_
_space_group_symop_operation_xyz
x,y,z
-y,x,z
-x,-y,z
y,-x,z
x,-y,1/2-z
-x,y,1/2-z
y,x,1/2-z
-y,-x,1/2-z
-x,-y,-z
y,-x,-z
x,y,-z
-y,x,-z
-x,y,1/2+z
x,-y,1/2+z
-y,-x,1/2+z
y,x,1/2+z
1/2+x,1/2+y,1/2+z
1/2-y,1/2+x,1/2+z
1/2-x,1/2-y,1/2+z
1/2+y,1/2-x,1/2+z
1/2+x,1/2-y,-z
1/2-x,1/2+y,-z
1/2+y,1/2+x,-z
1/2-y,1/2-x,-z
1/2-x,1/2-y,1/2-z
1/2+y,1/2-x,1/2-z
1/2+x,1/2+y,1/2-z
1/2-y,1/2+x,1/2-z
1/2-x,1/2+y,z
1/2+x,1/2-y,z
1/2-y,1/2-x,z
1/2+y,1/2+x,z
loop_
_atom_site_type_symbol
_atom_site_label
_atom_site_fract_x
_atom_site_fract_y
_atom_site_fract_z
Si Si1 0.087045 0.133095 0.172007
Si Si2 0.692860 0.908847 0.142527
Si Si3 0.140679 0.462910 0.911313
Si Si4 0.672038 0.539822 0.413318
Si Si5 0.273275 0.874942 0.189497
O O1 0.094079 0.094079 0.250000
O O2 0.118261 0.091051 0.107569
O O3 0.126358 0.197970 0.183190
O O4 0.018392 0.157383 0.143362
O O5 0.656211 0.843790 0.120094
O O6 0.759482 0.927733 0.103730
O O7 0.707489 0.903413 0.230254
O O8 0.646376 0.967702 0.124174
O O9 0.074921 0.425080 0.897544
O O10 0.195498 0.419872 0.873332
O O11 0.150091 0.467083 0.000000
O O12 0.669856 0.520794 0.500000
O O13 0.306585 0.806585 0.183117
#
# Coordination Sequence:
#
# PCOD9572722 Si02
#       5
#    32  32  32  32  32
#     4  12  25  45  74 100 134 179 232 279 345 411
#     4  11  23  41  68 100 139 182 227 281 337 408
#     4  10  21  37  62  97 137 182 228 276 336 404
#     4  12  27  46  70 102 139 176 224 286 350 410
#     4  10  22  41  68  99 135 177 228 281 336 404
#
# _framework density 10.078105000000001
#
# number of rings (size 3 to 8) (size 9 to 14) (size 15 to 20)
#    0.000    1.000    4.000    2.400    0.000    4.400 
#    0.000    3.000    0.000    3.600    0.000    0.000 
#    0.000    0.000    0.000    0.000    0.000    0.000 
#
# Total GULP energy -447082.282400 kJ/mol
# GULP energy per Si atom -5588.528530 kJ/mol
# Density = 1.005517 g / cm^3
# Si number density = 10.078105 Si / 1000 Ang^3
#
#
#
# Elastic Constant Matrix: (Units=GPa)
#
#
# Indices 1 2 3 4 5 6 
#
# 1 82.7058 47.1232 20.7541 0.0000 0.0000 0.0000
# 2 47.1232 82.7058 20.7541 0.0000 0.0000 0.0000
# 3 20.7541 20.7541 79.7704 0.0000 0.0000 0.0000
# 4 0.0000 0.0000 0.0000 30.7467 0.0000 0.0000
# 5 0.0000 0.0000 0.0000 0.0000 30.7467 0.0000
# 6 0.0000 0.0000 0.0000 0.0000 0.0000 27.1554
#
#
#
# Elastic Compliance Matrix: (Units=1/GPa)
#
#
# Indices 1 2 3 4 5 6 
#
# 1 0.018252 -0.009851 -0.002186 0.000000 0.000000 0.000000
# 2 -0.009851 0.018252 -0.002186 0.000000 0.000000 0.000000
# 3 -0.002186 -0.002186 0.013673 0.000000 0.000000 0.000000
# 4 0.000000 0.000000 0.000000 0.032524 0.000000 0.000000
# 5 0.000000 0.000000 0.000000 0.000000 0.032524 0.000000
# 6 0.000000 0.000000 0.000000 0.000000 0.000000 0.036825
#
#
# Mechanical properties :
#
#
# Convention : Reuss Voigt Hill
#
# Bulk Modulus (GPa) = 46.01354 46.93833 46.47594
# Shear Modulus (GPa) = 26.63249 28.16646 27.39947
#
# Velocity S-wave (km/s) = 3.63892 3.74225 3.69094
# Velocity P-wave (km/s) = 6.36661 6.48154 6.42433
#
# Compressibility (1/GPa) = 0.02173273
#
# Stress axis : x y z
#
# Youngs Moduli (GPa) = 54.78725 54.78725 73.13504
#
# Poissons Ratio (x) = 0.53972 0.15986
# Poissons Ratio (y) = 0.53972 0.15986
# Poissons Ratio (z) = 0.11975 0.11975
#
# Static dielectric constant tensor:
#      x y z
#    x 1.722870 0.000000 0.000000 
#    y 0.000000 1.722870 0.000000 
#    z 0.000000 0.000000 1.686470 
# 
# From -- ./inp_files/6789.got.cif
#   From: 2010.05.17/outbox.ucp.g08.bks.cvg/sg140_4_cif.got.tgz:6789.got - 2010.06.11 11:42:50.
