data_PCOD9572223
_publ_section_title
;
Structure prediction by ZEFSAII (Michael W. Deem and Ramdas Pophale) SiO2 
 PCOD9572223
Probable space group: I 4/M C M
;
_chemical_formula_sum "Si O2"
_cell_formula_units_Z 192
_cell_length_a 20.587279
_cell_length_b 20.587279
_cell_length_c 25.635276
_cell_angle_alpha 90.000000
_cell_angle_beta 90.000000
_cell_angle_gamma 90.000000
_cell_volume 10865.154290
_symmetry_space_group_name_H-M "I 4/M C M"
_symmetry_group_IT_number 140
_symmetry_cell_setting 'tetragonal'
loop_
_space_group_symop_operation_xyz
x,y,z
-y,x,z
-x,-y,z
y,-x,z
x,-y,1/2-z
-x,y,1/2-z
y,x,1/2-z
-y,-x,1/2-z
-x,-y,-z
y,-x,-z
x,y,-z
-y,x,-z
-x,y,1/2+z
x,-y,1/2+z
-y,-x,1/2+z
y,x,1/2+z
1/2+x,1/2+y,1/2+z
1/2-y,1/2+x,1/2+z
1/2-x,1/2-y,1/2+z
1/2+y,1/2-x,1/2+z
1/2+x,1/2-y,-z
1/2-x,1/2+y,-z
1/2+y,1/2+x,-z
1/2-y,1/2-x,-z
1/2-x,1/2-y,1/2-z
1/2+y,1/2-x,1/2-z
1/2+x,1/2+y,1/2-z
1/2-y,1/2+x,1/2-z
1/2-x,1/2+y,z
1/2+x,1/2-y,z
1/2-y,1/2-x,z
1/2+y,1/2+x,z
loop_
_atom_site_type_symbol
_atom_site_label
_atom_site_fract_x
_atom_site_fract_y
_atom_site_fract_z
Si Si1 0.687142 0.916072 0.941069
Si Si2 0.895973 0.011491 0.936758
Si Si3 0.640238 0.243763 0.157084
Si Si4 0.749920 0.146827 0.341990
Si Si5 0.815199 0.925368 0.249651
Si Si6 0.250738 0.050421 0.438944
O O1 0.615627 0.884374 0.936124
O O2 0.730628 0.882223 0.897484
O O3 0.696940 0.992602 0.934762
O O4 0.710168 0.900839 0.000000
O O5 0.821018 0.022740 0.923371
O O6 0.944008 0.070084 0.919307
O O7 0.898057 0.010345 0.000000
O O8 0.680060 0.180060 0.173845
O O9 0.692953 0.301105 0.151575
O O10 0.590996 0.269927 0.200686
O O11 0.606192 0.233342 0.101767
O O12 0.687789 0.187789 0.321683
O O13 0.773817 0.093282 0.301503
O O14 0.876608 0.876608 0.250000
O O15 0.834936 0.000000 0.250000
O O16 0.247128 0.070341 0.500000
#
# Coordination Sequence:
#
# PCOD9572223 Si02
#       6
#    32  32  32  32  32  32
#     4   9  18  32  50  75 105 135 172 215 260 313
#     4   8  15  28  44  64  95 137 180 215 247 293
#     4  10  21  35  52  76 103 132 174 223 265 306
#     4   9  18  33  54  76 101 136 174 214 262 308
#     4  10  20  36  57  78 105 138 174 212 254 309
#     4  10  20  31  49  74 104 142 178 218 262 309
#
# _framework density 17.671171000000001
#
# number of rings (size 3 to 8) (size 9 to 14) (size 15 to 20)
#    0.000    2.667    0.000    2.000    2.333    3.167 
#    0.000    1.667    0.000    0.500    0.000    2.333 
#    0.000    4.333    0.000    0.000    0.000    0.000 
#
# Total GULP energy -535078.706036 kJ/mol
# GULP energy per Si atom -5573.736521 kJ/mol
# Density = 1.763095 g / cm^3
# Si number density = 17.671171 Si / 1000 Ang^3
#
#
#
# Elastic Constant Matrix: (Units=GPa)
#
#
# Indices 1 2 3 4 5 6 
#
# 1 57.0881 27.8760 30.1067 0.0000 0.0000 0.0000
# 2 27.8760 57.0881 30.1067 0.0000 0.0000 0.0000
# 3 30.1067 30.1067 72.9104 0.0000 0.0000 0.0000
# 4 0.0000 0.0000 0.0000 23.1722 0.0000 0.0000
# 5 0.0000 0.0000 0.0000 0.0000 23.1722 0.0000
# 6 0.0000 0.0000 0.0000 0.0000 0.0000 7.5756
#
#
#
# Elastic Compliance Matrix: (Units=1/GPa)
#
#
# Indices 1 2 3 4 5 6 
#
# 1 0.025436 -0.008797 -0.006871 0.000000 0.000000 0.000000
# 2 -0.008797 0.025436 -0.006871 0.000000 0.000000 0.000000
# 3 -0.006871 -0.006871 0.019390 0.000000 0.000000 0.000000
# 4 0.000000 0.000000 0.000000 0.043155 0.000000 0.000000
# 5 0.000000 0.000000 0.000000 0.000000 0.043155 0.000000
# 6 0.000000 0.000000 0.000000 0.000000 0.000000 0.132002
#
#
# Mechanical properties :
#
#
# Convention : Reuss Voigt Hill
#
# Bulk Modulus (GPa) = 39.70657 40.36284 40.03471
# Shear Modulus (GPa) = 14.61799 17.38381 16.00090
#
# Velocity S-wave (km/s) = 2.87927 3.13986 3.01238
# Velocity P-wave (km/s) = 5.79414 6.00297 5.89948
#
# Compressibility (1/GPa) = 0.02518475
#
# Stress axis : x y z
#
# Youngs Moduli (GPa) = 39.31495 39.31496 51.57401
#
# Poissons Ratio (x) = 0.34584 0.35435
# Poissons Ratio (y) = 0.34584 0.35435
# Poissons Ratio (z) = 0.27012 0.27012
#
# Static dielectric constant tensor:
#      x y z
#    x 1.602690 0.000000 0.000000 
#    y 0.000000 1.602690 0.000000 
#    z 0.000000 0.000000 1.606980 
# 
# From -- ./inp_files/9738.got.cif
#   From: 2010.05.17/outbox.cif.g08.bks.cpg/sg140_5_cif.got.tgz:9738.got - 2010.06.21 00:45:31.
