data_PCOD9572993
_publ_section_title
;
Structure prediction by ZEFSAII (Michael W. Deem and Ramdas Pophale) SiO2 
 PCOD9572993
Probable space group: I 41/A M D
;
_chemical_formula_sum "Si O2"
_cell_formula_units_Z 176
_cell_length_a 18.979256
_cell_length_b 18.979256
_cell_length_c 27.117852
_cell_angle_alpha 90.000000
_cell_angle_beta 90.000000
_cell_angle_gamma 90.000000
_cell_volume 9768.179998
_symmetry_space_group_name_H-M "I 41/A M D"
_symmetry_group_IT_number 141
_space_group.IT_coordinate_system_code '2'
_symmetry_cell_setting 'tetragonal'
loop_
_space_group_symop_operation_xyz
x,y,z
1/4-y,3/4+x,1/4+z
-x,1/2-y,z
1/4+y,1/4-x,3/4+z
x,-y,-z
-x,1/2+y,-z
1/4+y,3/4+x,1/4-z
1/4-y,1/4-x,3/4-z
-x,-y,-z
3/4+y,1/4-x,3/4-z
x,1/2+y,-z
3/4-y,3/4+x,1/4-z
-x,y,z
x,1/2-y,z
3/4-y,1/4-x,3/4+z
3/4+y,3/4+x,1/4+z
1/2+x,1/2+y,1/2+z
3/4-y,1/4+x,3/4+z
1/2-x,-y,1/2+z
3/4+y,3/4-x,1/4+z
1/2+x,1/2-y,1/2-z
1/2-x,y,1/2-z
3/4+y,1/4+x,3/4-z
3/4-y,3/4-x,1/4-z
1/2-x,1/2-y,1/2-z
1/4+y,3/4-x,1/4-z
1/2+x,y,1/2-z
1/4-y,1/4+x,3/4-z
1/2-x,1/2+y,1/2+z
1/2+x,-y,1/2+z
1/4-y,3/4-x,1/4+z
1/4+y,1/4+x,3/4+z
loop_
_atom_site_type_symbol
_atom_site_label
_atom_site_fract_x
_atom_site_fract_y
_atom_site_fract_z
Si Si1 0.415809 0.433937 0.896203
Si Si2 0.170286 0.935460 0.761784
Si Si3 0.330428 0.833641 0.911832
Si Si4 0.678375 0.833046 0.468762
Si Si5 0.419840 0.830161 0.375000
Si Si6 0.580269 0.164354 0.440098
O O1 0.500000 0.432105 0.903818
O O2 0.375838 0.427124 0.947690
O O3 0.400481 0.506491 0.866505
O O4 0.395039 0.369654 0.860283
O O5 0.250000 0.957535 0.750000
O O6 0.128855 0.914701 0.711869
O O7 0.127143 0.000888 0.783226
O O8 0.391787 0.858214 0.875000
O O9 0.332000 0.750000 0.922007
O O10 0.694428 0.750000 0.476696
O O11 0.633974 0.839924 0.419105
O O12 0.629349 0.857138 0.514263
O O13 0.500000 0.836968 0.394216
O O14 0.500000 0.138817 0.443254
O O15 0.578042 0.250000 0.441712
#
# Coordination Sequence:
#
# PCOD9572993 Si02
#       6
#    32  32  32  32  16  32
#     4  10  22  40  62  88 122 159 204 255 308 365
#     4  12  24  38  64  91 118 161 206 246 302 366
#     4  11  23  43  66  92 124 162 205 254 314 372
#     4  10  20  36  58  86 120 157 198 251 302 357
#     4   9  18  34  58  86 116 154 200 246 295 354
#     4   9  17  33  59  86 114 154 199 242 298 366
#
# _framework density 18.017686000000001
#
# number of rings (size 3 to 8) (size 9 to 14) (size 15 to 20)
#    0.000    1.727    3.636    1.091    0.000    6.364 
#    0.000    0.000    0.000    1.091    0.000    0.000 
#    0.000    0.000    0.000    0.000    0.000    0.000 
#
# Total GULP energy -491219.310969 kJ/mol
# GULP energy per Si atom -5582.037625 kJ/mol
# Density = 1.797668 g / cm^3
# Si number density = 18.017686 Si / 1000 Ang^3
#
#
#
# Elastic Constant Matrix: (Units=GPa)
#
#
# Indices 1 2 3 4 5 6 
#
# 1 74.5298 30.8629 48.2654 0.0000 0.0000 0.0000
# 2 30.8629 74.5347 48.2642 0.0000 0.0000 0.0000
# 3 48.2654 48.2642 97.7646 0.0000 0.0000 0.0000
# 4 0.0000 0.0000 0.0000 25.4111 0.0000 0.0000
# 5 0.0000 0.0000 0.0000 0.0000 25.4121 0.0000
# 6 0.0000 0.0000 0.0000 0.0000 0.0000 28.1552
#
#
#
# Elastic Compliance Matrix: (Units=1/GPa)
#
#
# Indices 1 2 3 4 5 6 
#
# 1 0.020110 -0.002790 -0.008551 0.000000 0.000000 0.000000
# 2 -0.002790 0.020108 -0.008549 0.000000 0.000000 0.000000
# 3 -0.008551 -0.008549 0.018671 0.000000 0.000000 0.000000
# 4 0.000000 0.000000 0.000000 0.039353 0.000000 0.000000
# 5 0.000000 0.000000 0.000000 0.000000 0.039351 0.000000
# 6 0.000000 0.000000 0.000000 0.000000 0.000000 0.035517
#
#
# Mechanical properties :
#
#
# Convention : Reuss Voigt Hill
#
# Bulk Modulus (GPa) = 52.33325 55.73491 54.03408
# Shear Modulus (GPa) = 22.80386 23.75810 23.28098
#
# Velocity S-wave (km/s) = 3.56144 3.63519 3.59850
# Velocity P-wave (km/s) = 6.78383 6.97281 6.87897
#
# Compressibility (1/GPa) = 0.01910831
#
# Stress axis : x y z
#
# Youngs Moduli (GPa) = 49.72551 49.73149 53.55964
#
# Poissons Ratio (x) = 0.13876 0.45798
# Poissons Ratio (y) = 0.13874 0.45790
# Poissons Ratio (z) = 0.42520 0.42517
#
# Static dielectric constant tensor:
#      x y z
#    x 1.606150 0.000000 0.000000 
#    y 0.000000 1.606150 0.000000 
#    z 0.000000 0.000000 1.608720 
# 
# From -- ./inp_files/12892.got.cif
#   From: 2010.05.17/outbox.cif.g08.bks.cpg/sg141_7_cif.got.tgz:12892.got - 2010.05.20 13:30:51.
