data_PCOD9572646
_publ_section_title
;
Structure prediction by ZEFSAII (Michael W. Deem and Ramdas Pophale) SiO2 
 PCOD9572646
Probable space group: I 4/M C M
;
_chemical_formula_sum "Si O2"
_cell_formula_units_Z 112
_cell_length_a 14.943392
_cell_length_b 14.943392
_cell_length_c 24.164004
_cell_angle_alpha 90.000000
_cell_angle_beta 90.000000
_cell_angle_gamma 90.000000
_cell_volume 5395.942055
_symmetry_space_group_name_H-M "I 4/M C M"
_symmetry_group_IT_number 140
_symmetry_cell_setting 'tetragonal'
loop_
_space_group_symop_operation_xyz
x,y,z
-y,x,z
-x,-y,z
y,-x,z
x,-y,1/2-z
-x,y,1/2-z
y,x,1/2-z
-y,-x,1/2-z
-x,-y,-z
y,-x,-z
x,y,-z
-y,x,-z
-x,y,1/2+z
x,-y,1/2+z
-y,-x,1/2+z
y,x,1/2+z
1/2+x,1/2+y,1/2+z
1/2-y,1/2+x,1/2+z
1/2-x,1/2-y,1/2+z
1/2+y,1/2-x,1/2+z
1/2+x,1/2-y,-z
1/2-x,1/2+y,-z
1/2+y,1/2+x,-z
1/2-y,1/2-x,-z
1/2-x,1/2-y,1/2-z
1/2+y,1/2-x,1/2-z
1/2+x,1/2+y,1/2-z
1/2-y,1/2+x,1/2-z
1/2-x,1/2+y,z
1/2+x,1/2-y,z
1/2-y,1/2-x,z
1/2+y,1/2+x,z
loop_
_atom_site_type_symbol
_atom_site_label
_atom_site_fract_x
_atom_site_fract_y
_atom_site_fract_z
Si Si1 0.500000 0.652482 0.250000
Si Si2 0.993980 0.354274 0.439382
Si Si3 0.100507 0.249855 0.348083
Si Si4 0.399202 0.387119 0.937751
O O1 0.415899 0.584102 0.250000
O O2 0.536026 0.715424 0.200604
O O3 0.991384 0.310181 0.500000
O O4 0.064634 0.435367 0.443849
O O5 0.034100 0.297451 0.390940
O O6 0.898111 0.398111 0.428275
O O7 0.179881 0.320120 0.332300
O O8 0.139223 0.168476 0.386081
O O9 0.507314 0.380315 0.933594
O O10 0.372191 0.356910 0.000000
#
# Coordination Sequence:
#
# PCOD9572646 Si02
#       4
#    16  32  32  32
#     4  11  26  48  68  81 108 162 210 241 294 374
#     4   8  15  30  53  83 122 165 199 227 278 359
#     4  11  22  36  60  91 118 146 193 260 313 346
#     4   9  18  35  60  88 121 164 206 236 276 352
#
# _framework density 20.756338
#
# number of rings (size 3 to 8) (size 9 to 14) (size 15 to 20)
#    0.000    2.429    0.000    4.286    0.000    5.714 
#    0.000    4.286    0.000    1.714    0.000    0.000 
#    0.000    0.000    0.000    0.000    0.000    0.000 
#
# Total GULP energy -311809.237975 kJ/mol
# GULP energy per Si atom -5568.022107 kJ/mol
# Density = 2.070910 g / cm^3
# Si number density = 20.756338 Si / 1000 Ang^3
#
#
#
# Elastic Constant Matrix: (Units=GPa)
#
#
# Indices 1 2 3 4 5 6 
#
# 1 80.4643 38.8376 53.1882 0.0000 0.0000 0.0000
# 2 38.8376 80.4643 53.1884 0.0000 0.0000 0.0000
# 3 53.1882 53.1884 121.2691 0.0000 0.0000 0.0000
# 4 0.0000 0.0000 0.0000 16.1891 0.0000 0.0000
# 5 0.0000 0.0000 0.0000 0.0000 16.1851 0.0000
# 6 0.0000 0.0000 0.0000 0.0000 0.0000 21.1551
#
#
#
# Elastic Compliance Matrix: (Units=1/GPa)
#
#
# Indices 1 2 3 4 5 6 
#
# 1 0.018894 -0.005129 -0.006037 0.000000 0.000000 0.000000
# 2 -0.005129 0.018894 -0.006038 0.000000 0.000000 0.000000
# 3 -0.006037 -0.006038 0.013542 0.000000 0.000000 0.000000
# 4 0.000000 0.000000 0.000000 0.061770 0.000000 0.000000
# 5 0.000000 0.000000 0.000000 0.000000 0.061785 0.000000
# 6 0.000000 0.000000 0.000000 0.000000 0.000000 0.047270
#
#
# Mechanical properties :
#
#
# Convention : Reuss Voigt Hill
#
# Bulk Modulus (GPa) = 59.09067 63.62513 61.35790
# Shear Modulus (GPa) = 19.06910 19.83809 19.45360
#
# Velocity S-wave (km/s) = 3.03431 3.09489 3.06475
# Velocity P-wave (km/s) = 6.38801 6.59477 6.49221
#
# Compressibility (1/GPa) = 0.01692314
#
# Stress axis : x y z
#
# Youngs Moduli (GPa) = 52.92612 52.92600 73.84322
#
# Poissons Ratio (x) = 0.27145 0.44583
# Poissons Ratio (y) = 0.27145 0.44583
# Poissons Ratio (z) = 0.31954 0.31954
#
# Static dielectric constant tensor:
#      x y z
#    x 1.806950 0.000000 0.000000 
#    y 0.000000 1.806950 0.000000 
#    z 0.000000 0.000000 1.725930 
# 
# From -- ./inp_files/9060.got.cif
#   From: 2010.05.17/outbox.cif.g08.bks.cpg/sg140_5_cif.got.tgz:9060.got - 2010.06.21 00:45:31.
