data_PCOD9572331
_publ_section_title
;
Structure prediction by ZEFSAII (Michael W. Deem and Ramdas Pophale) SiO2 
 PCOD9572331
Probable space group: I 4/M C M
;
_chemical_formula_sum "Si O2"
_cell_formula_units_Z 128
_cell_length_a 21.674947
_cell_length_b 21.674947
_cell_length_c 14.632329
_cell_angle_alpha 90.000000
_cell_angle_beta 90.000000
_cell_angle_gamma 90.000000
_cell_volume 6874.316853
_symmetry_space_group_name_H-M "I 4/M C M"
_symmetry_group_IT_number 140
_symmetry_cell_setting 'tetragonal'
loop_
_space_group_symop_operation_xyz
x,y,z
-y,x,z
-x,-y,z
y,-x,z
x,-y,1/2-z
-x,y,1/2-z
y,x,1/2-z
-y,-x,1/2-z
-x,-y,-z
y,-x,-z
x,y,-z
-y,x,-z
-x,y,1/2+z
x,-y,1/2+z
-y,-x,1/2+z
y,x,1/2+z
1/2+x,1/2+y,1/2+z
1/2-y,1/2+x,1/2+z
1/2-x,1/2-y,1/2+z
1/2+y,1/2-x,1/2+z
1/2+x,1/2-y,-z
1/2-x,1/2+y,-z
1/2+y,1/2+x,-z
1/2-y,1/2-x,-z
1/2-x,1/2-y,1/2-z
1/2+y,1/2-x,1/2-z
1/2+x,1/2+y,1/2-z
1/2-y,1/2+x,1/2-z
1/2-x,1/2+y,z
1/2+x,1/2-y,z
1/2-y,1/2-x,z
1/2+y,1/2+x,z
loop_
_atom_site_type_symbol
_atom_site_label
_atom_site_fract_x
_atom_site_fract_y
_atom_site_fract_z
Si Si1 0.754361 0.158151 0.805803
Si Si2 0.101142 0.012116 0.110515
Si Si3 0.791313 0.814198 0.500000
Si Si4 0.739908 0.544003 0.324460
Si Si5 0.604692 0.210914 0.500000
O O1 0.790779 0.209222 0.750000
O O2 0.684864 0.184864 0.815878
O O3 0.764992 0.103173 0.738339
O O4 0.783087 0.148842 0.906341
O O5 0.170794 0.021342 0.147153
O O6 0.052553 0.067007 0.136563
O O7 0.104740 0.012863 0.000000
O O8 0.736502 0.763499 0.500000
O O9 0.852746 0.773056 0.500000
O O10 0.770722 0.500000 0.250000
O O11 0.781170 0.561982 0.411257
O O12 0.652436 0.152436 0.500000
#
# Coordination Sequence:
#
# PCOD9572331 Si02
#       5
#    32  32  16  32  16
#     4  10  20  36  57  82 110 151 200 250 310 366
#     4   9  20  38  54  72 111 166 218 259 296 333
#     4   9  18  33  58  80 103 145 195 240 292 360
#     4  12  25  35  56  88 118 153 210 257 305 356
#     4  11  22  41  60  81 116 158 193 241 317 381
#
# _framework density 18.620032999999999
#
# number of rings (size 3 to 8) (size 9 to 14) (size 15 to 20)
#    0.000    1.750    3.750    1.500    3.500    1.000 
#    0.000    1.250    0.000    0.000    0.000    0.000 
#    0.000   12.000    0.000    0.000    0.000    0.000 
#
# Total GULP energy -356519.017698 kJ/mol
# GULP energy per Si atom -5570.609652 kJ/mol
# Density = 1.857765 g / cm^3
# Si number density = 18.620033 Si / 1000 Ang^3
#
#
#
# Elastic Constant Matrix: (Units=GPa)
#
#
# Indices 1 2 3 4 5 6 
#
# 1 44.9380 4.0748 32.9566 0.0000 0.0000 0.0000
# 2 4.0748 44.9426 32.9577 0.0000 0.0000 0.0000
# 3 32.9566 32.9577 168.7000 0.0000 0.0000 0.0000
# 4 0.0000 0.0000 0.0000 31.1655 0.0000 0.0000
# 5 0.0000 0.0000 0.0000 0.0000 31.1675 0.0000
# 6 0.0000 0.0000 0.0000 0.0000 0.0000 16.0186
#
#
#
# Elastic Compliance Matrix: (Units=1/GPa)
#
#
# Indices 1 2 3 4 5 6 
#
# 1 0.026072 0.001601 -0.005406 0.000000 0.000000 0.000000
# 2 0.001601 0.026070 -0.005406 0.000000 0.000000 0.000000
# 3 -0.005406 -0.005406 0.008040 0.000000 0.000000 0.000000
# 4 0.000000 0.000000 0.000000 0.032087 0.000000 0.000000
# 5 0.000000 0.000000 0.000000 0.000000 0.032085 0.000000
# 6 0.000000 0.000000 0.000000 0.000000 0.000000 0.062428
#
#
# Mechanical properties :
#
#
# Convention : Reuss Voigt Hill
#
# Bulk Modulus (GPa) = 23.94667 44.28431 34.11549
# Shear Modulus (GPa) = 22.81818 28.24307 25.53063
#
# Velocity S-wave (km/s) = 3.50446 3.89885 3.70690
# Velocity P-wave (km/s) = 5.40959 6.64100 6.05667
#
# Compressibility (1/GPa) = 0.04175946
#
# Stress axis : x y z
#
# Youngs Moduli (GPa) = 38.35461 38.35874 124.38000
#
# Poissons Ratio (x) = -0.06139 0.67241
# Poissons Ratio (y) = -0.06139 0.67236
# Poissons Ratio (z) = 0.20735 0.20736
#
# Static dielectric constant tensor:
#      x y z
#    x -0.092140 0.000000 0.000000 
#    y 0.000000 -0.094010 0.000000 
#    z 0.000000 0.000000 1.676100 
# 
# From -- ./inp_files/4375.got.cif
#   From: 2010.05.17/outbox.cif.g08.bks.cpg/sg140_3_cif.got.tgz:4375.got - 2010.06.21 00:45:31.
