data_PCOD9572204
_publ_section_title
;
Structure prediction by ZEFSAII (Michael W. Deem and Ramdas Pophale) SiO2 
 PCOD9572204
Probable space group: I 4/M C M
;
_chemical_formula_sum "Si O2"
_cell_formula_units_Z 168
_cell_length_a 24.601129
_cell_length_b 24.601129
_cell_length_c 14.815334
_cell_angle_alpha 90.000000
_cell_angle_beta 90.000000
_cell_angle_gamma 90.000000
_cell_volume 8966.470487
_symmetry_space_group_name_H-M "I 4/M C M"
_symmetry_group_IT_number 140
_symmetry_cell_setting 'tetragonal'
loop_
_space_group_symop_operation_xyz
x,y,z
-y,x,z
-x,-y,z
y,-x,z
x,-y,1/2-z
-x,y,1/2-z
y,x,1/2-z
-y,-x,1/2-z
-x,-y,-z
y,-x,-z
x,y,-z
-y,x,-z
-x,y,1/2+z
x,-y,1/2+z
-y,-x,1/2+z
y,x,1/2+z
1/2+x,1/2+y,1/2+z
1/2-y,1/2+x,1/2+z
1/2-x,1/2-y,1/2+z
1/2+y,1/2-x,1/2+z
1/2+x,1/2-y,-z
1/2-x,1/2+y,-z
1/2+y,1/2+x,-z
1/2-y,1/2-x,-z
1/2-x,1/2-y,1/2-z
1/2+y,1/2-x,1/2-z
1/2+x,1/2+y,1/2-z
1/2-y,1/2+x,1/2-z
1/2-x,1/2+y,z
1/2+x,1/2-y,z
1/2-y,1/2-x,z
1/2+y,1/2+x,z
loop_
_atom_site_type_symbol
_atom_site_label
_atom_site_fract_x
_atom_site_fract_y
_atom_site_fract_z
Si Si1 0.963057 0.915700 0.500000
Si Si2 0.809492 0.430942 0.000000
Si Si3 0.762270 0.583504 0.307928
Si Si4 0.135774 0.056336 0.803568
Si Si5 0.947610 0.639787 0.196764
Si Si6 0.787629 0.712372 0.309882
Si Si7 0.980307 0.606091 0.000000
Si Si8 0.301447 0.801447 0.500000
O O1 0.949362 0.883931 0.592526
O O2 0.027044 0.930816 0.500000
O O3 0.783441 0.443728 0.902074
O O4 0.798380 0.366470 0.000000
O O5 0.869991 0.457715 0.000000
O O6 0.698894 0.572294 0.300729
O O7 0.798582 0.559582 0.227578
O O8 0.774902 0.648182 0.302045
O O9 0.100776 0.100776 0.750000
O O10 0.127652 0.000000 0.750000
O O11 0.895296 0.604705 0.225696
O O12 0.000000 0.617364 0.250000
O O13 0.956131 0.631612 0.091042
O O14 0.750000 0.750000 0.250000
O O15 0.775204 0.724797 0.413668
O O16 0.956219 0.543782 0.000000
#
# Coordination Sequence:
#
# PCOD9572204 Si02
#       8
#    16  16  32  32  32  16  16   8
#     4  11  23  44  69  91 130 173 208 263 333 399
#     4  10  19  36  63  88 123 164 211 273 321 368
#     4  11  22  40  64  96 128 170 220 266 322 392
#     4  12  25  42  65  98 131 168 215 269 324 390
#     4  11  22  40  62  90 128 170 219 269 331 388
#     4  10  20  40  64  89 125 170 213 264 324 384
#     4  10  22  37  57  88 127 164 208 271 317 386
#     4   8  20  34  61  92 116 158 218 264 317 388
#
# _framework density 18.736469
#
# number of rings (size 3 to 8) (size 9 to 14) (size 15 to 20)
#    0.000    1.238    4.762    1.714    0.000    0.381 
#    0.000    2.143    0.000    0.000    0.000    0.000 
#    0.000    0.000    0.000    0.000    0.000    0.000 
#
# Total GULP energy -468053.926942 kJ/mol
# GULP energy per Si atom -5572.070559 kJ/mol
# Density = 1.869382 g / cm^3
# Si number density = 18.736469 Si / 1000 Ang^3
#
#
#
# Elastic Constant Matrix: (Units=GPa)
#
#
# Indices 1 2 3 4 5 6 
#
# 1 138.0463 45.0172 61.5707 0.0000 0.0000 0.0000
# 2 45.0172 138.0467 61.5710 0.0000 0.0000 0.0000
# 3 61.5707 61.5710 165.6424 0.0000 0.0000 0.0000
# 4 0.0000 0.0000 0.0000 23.3132 0.0000 0.0000
# 5 0.0000 0.0000 0.0000 0.0000 23.3204 0.0000
# 6 0.0000 0.0000 0.0000 0.0000 0.0000 36.5429
#
#
#
# Elastic Compliance Matrix: (Units=1/GPa)
#
#
# Indices 1 2 3 4 5 6 
#
# 1 0.009017 -0.001733 -0.002707 0.000000 0.000000 0.000000
# 2 -0.001733 0.009017 -0.002707 0.000000 0.000000 0.000000
# 3 -0.002707 -0.002707 0.008050 0.000000 0.000000 0.000000
# 4 0.000000 0.000000 0.000000 0.042894 0.000000 0.000000
# 5 0.000000 0.000000 0.000000 0.000000 0.042881 0.000000
# 6 0.000000 0.000000 0.000000 0.000000 0.000000 0.027365
#
#
# Mechanical properties :
#
#
# Convention : Reuss Voigt Hill
#
# Bulk Modulus (GPa) = 84.83453 86.45037 85.64245
# Shear Modulus (GPa) = 31.75658 34.87373 33.31516
#
# Velocity S-wave (km/s) = 4.12139 4.31893 4.22132
# Velocity P-wave (km/s) = 8.24766 8.43275 8.34072
#
# Compressibility (1/GPa) = 0.01178765
#
# Stress axis : x y z
#
# Youngs Moduli (GPa) = 110.90701 110.90712 124.22538
#
# Poissons Ratio (x) = 0.19217 0.33633
# Poissons Ratio (y) = 0.19217 0.33634
# Poissons Ratio (z) = 0.30028 0.30028
#
# Static dielectric constant tensor:
#      x y z
#    x 1.630790 0.000000 0.000000 
#    y 0.000000 1.630790 0.000000 
#    z 0.000000 0.000000 1.653430 
# 
# From -- ./inp_files/5020.got.cif
#   From: 2010.05.17/outbox.cif.g08.bks.cpg/sg140_3_cif.got.tgz:5020.got - 2010.06.21 00:45:31.
