data_PCOD9572193
_publ_section_title
;
Structure prediction by ZEFSAII (Michael W. Deem and Ramdas Pophale) SiO2 
 PCOD9572193
Probable space group: I 4/M C M
;
_chemical_formula_sum "Si O2"
_cell_formula_units_Z 160
_cell_length_a 20.410326
_cell_length_b 20.410326
_cell_length_c 20.832702
_cell_angle_alpha 90.000000
_cell_angle_beta 90.000000
_cell_angle_gamma 90.000000
_cell_volume 8678.516320
_symmetry_space_group_name_H-M "I 4/M C M"
_symmetry_group_IT_number 140
_symmetry_cell_setting 'tetragonal'
loop_
_space_group_symop_operation_xyz
x,y,z
-y,x,z
-x,-y,z
y,-x,z
x,-y,1/2-z
-x,y,1/2-z
y,x,1/2-z
-y,-x,1/2-z
-x,-y,-z
y,-x,-z
x,y,-z
-y,x,-z
-x,y,1/2+z
x,-y,1/2+z
-y,-x,1/2+z
y,x,1/2+z
1/2+x,1/2+y,1/2+z
1/2-y,1/2+x,1/2+z
1/2-x,1/2-y,1/2+z
1/2+y,1/2-x,1/2+z
1/2+x,1/2-y,-z
1/2-x,1/2+y,-z
1/2+y,1/2+x,-z
1/2-y,1/2-x,-z
1/2-x,1/2-y,1/2-z
1/2+y,1/2-x,1/2-z
1/2+x,1/2+y,1/2-z
1/2-y,1/2+x,1/2-z
1/2-x,1/2+y,z
1/2+x,1/2-y,z
1/2-y,1/2-x,z
1/2+y,1/2+x,z
loop_
_atom_site_type_symbol
_atom_site_label
_atom_site_fract_x
_atom_site_fract_y
_atom_site_fract_z
Si Si1 0.709456 0.102976 0.637852
Si Si2 0.749359 0.137105 0.500000
Si Si3 0.378612 0.773483 0.859530
Si Si4 0.244200 0.143689 0.500000
Si Si5 0.682490 0.578372 0.251709
Si Si6 0.382459 0.984452 0.825070
O O1 0.672599 0.172599 0.646670
O O2 0.738813 0.099059 0.566303
O O3 0.767155 0.094809 0.689896
O O4 0.652285 0.048327 0.645579
O O5 0.692720 0.192720 0.500000
O O6 0.817762 0.175783 0.500000
O O7 0.306666 0.806666 0.856745
O O8 0.393171 0.754063 0.932960
O O9 0.389344 0.714783 0.811369
O O10 0.429006 0.827998 0.835043
O O11 0.301517 0.198484 0.500000
O O12 0.680042 0.500000 0.250000
O O13 0.611358 0.611358 0.250000
O O14 0.449518 0.949518 0.849092
O O15 0.391437 0.000000 0.750000
#
# Coordination Sequence:
#
# PCOD9572193 Si02
#       6
#    32  16  32  16  32  32
#     4  11  21  38  61  87 119 155 198 242 293 355
#     4   9  20  35  53  82 118 153 186 238 304 347
#     4  10  19  35  59  87 115 146 188 237 293 351
#     4   9  18  33  54  85 118 147 187 241 300 353
#     4  12  24  40  60  85 115 149 194 244 297 355
#     4  11  21  35  56  86 123 160 198 241 293 350
#
# _framework density 18.436330999999999
#
# number of rings (size 3 to 8) (size 9 to 14) (size 15 to 20)
#    0.000    1.400    4.000    2.400    0.000    5.600 
#    0.000    1.500    0.000    1.800    0.000    0.000 
#    0.000    4.800    0.000    0.000    0.000    0.000 
#
# Total GULP energy -445998.119744 kJ/mol
# GULP energy per Si atom -5574.976497 kJ/mol
# Density = 1.839437 g / cm^3
# Si number density = 18.436331 Si / 1000 Ang^3
#
#
#
# Elastic Constant Matrix: (Units=GPa)
#
#
# Indices 1 2 3 4 5 6 
#
# 1 58.1470 41.4809 34.1642 0.0000 0.0000 0.0000
# 2 41.4809 58.1467 34.1644 0.0000 0.0000 0.0000
# 3 34.1642 34.1644 117.6923 0.0000 0.0000 0.0000
# 4 0.0000 0.0000 0.0000 9.5150 0.0000 0.0000
# 5 0.0000 0.0000 0.0000 0.0000 9.5160 0.0000
# 6 0.0000 0.0000 0.0000 0.0000 0.0000 29.4137
#
#
#
# Elastic Compliance Matrix: (Units=1/GPa)
#
#
# Indices 1 2 3 4 5 6 
#
# 1 0.036267 -0.023735 -0.003638 0.000000 0.000000 0.000000
# 2 -0.023735 0.036268 -0.003638 0.000000 0.000000 0.000000
# 3 -0.003638 -0.003638 0.010609 0.000000 0.000000 0.000000
# 4 0.000000 0.000000 0.000000 0.105097 0.000000 0.000000
# 5 0.000000 0.000000 0.000000 0.000000 0.105086 0.000000
# 6 0.000000 0.000000 0.000000 0.000000 0.000000 0.033998
#
#
# Mechanical properties :
#
#
# Convention : Reuss Voigt Hill
#
# Bulk Modulus (GPa) = 47.34445 50.40054 48.87250
# Shear Modulus (GPa) = 12.61393 17.96738 15.29066
#
# Velocity S-wave (km/s) = 2.61854 3.12519 2.88301
# Velocity P-wave (km/s) = 5.90576 6.35762 6.13585
#
# Compressibility (1/GPa) = 0.02112180
#
# Stress axis : x y z
#
# Youngs Moduli (GPa) = 27.57300 27.57282 94.26109
#
# Poissons Ratio (x) = 0.65444 0.34291
# Poissons Ratio (y) = 0.65445 0.34293
# Poissons Ratio (z) = 0.10031 0.10031
#
# Static dielectric constant tensor:
#      x y z
#    x 1.654280 0.000000 0.000000 
#    y 0.000000 1.654280 0.000000 
#    z 0.000000 0.000000 1.633760 
# 
# From -- ./inp_files/6941.got.cif
#   From: 2010.05.17/outbox.cif.g08.bks.cpg/sg140_4_cif.got.tgz:6941.got - 2010.06.21 00:45:31.
