data_PCOD9572071
_publ_section_title
;
Structure prediction by ZEFSAII (Michael W. Deem and Ramdas Pophale) SiO2 
 PCOD9572071
Probable space group: I 4/M C M
;
_chemical_formula_sum "Si O2"
_cell_formula_units_Z 144
_cell_length_a 20.117611
_cell_length_b 20.117611
_cell_length_c 13.902024
_cell_angle_alpha 90.000000
_cell_angle_beta 90.000000
_cell_angle_gamma 90.000000
_cell_volume 5626.403135
_symmetry_space_group_name_H-M "I 4/M C M"
_symmetry_group_IT_number 140
_symmetry_cell_setting 'tetragonal'
loop_
_space_group_symop_operation_xyz
x,y,z
-y,x,z
-x,-y,z
y,-x,z
x,-y,1/2-z
-x,y,1/2-z
y,x,1/2-z
-y,-x,1/2-z
-x,-y,-z
y,-x,-z
x,y,-z
-y,x,-z
-x,y,1/2+z
x,-y,1/2+z
-y,-x,1/2+z
y,x,1/2+z
1/2+x,1/2+y,1/2+z
1/2-y,1/2+x,1/2+z
1/2-x,1/2-y,1/2+z
1/2+y,1/2-x,1/2+z
1/2+x,1/2-y,-z
1/2-x,1/2+y,-z
1/2+y,1/2+x,-z
1/2-y,1/2-x,-z
1/2-x,1/2-y,1/2-z
1/2+y,1/2-x,1/2-z
1/2+x,1/2+y,1/2-z
1/2-y,1/2+x,1/2-z
1/2-x,1/2+y,z
1/2+x,1/2-y,z
1/2-y,1/2-x,z
1/2+y,1/2+x,z
loop_
_atom_site_type_symbol
_atom_site_label
_atom_site_fract_x
_atom_site_fract_y
_atom_site_fract_z
Si Si1 0.111509 0.229988 0.106814
Si Si2 0.063174 0.084880 0.864173
Si Si3 0.055616 0.555616 0.116760
Si Si4 0.338066 0.264021 0.116825
Si Si5 0.525311 0.791769 0.117743
O O1 0.093107 0.152281 0.100372
O O2 0.182524 0.216096 0.153997
O O3 0.047841 0.267460 0.149475
O O4 0.121163 0.259280 0.000000
O O5 0.077362 0.077362 0.750000
O O6 0.986620 0.088549 0.894703
O O7 0.131496 0.537990 0.145916
O O8 0.000000 0.500000 0.144040
O O9 0.056006 0.556006 0.000000
O O10 0.308529 0.191472 0.135422
O O11 0.415125 0.259039 0.147115
O O12 0.338056 0.272623 0.000000
O O13 0.525262 0.789665 0.000000
#
# Coordination Sequence:
#
# PCOD9572071 Si02
#       5
#    32  32  16  32  32
#     4  10  19  28  45  73  97 123 168 219 254 293
#     4   9  18  32  47  64  93 133 167 198 245 309
#     4   9  16  26  42  62  90 134 175 209 254 318
#     4   9  16  27  42  60  90 128 157 191 251 308
#     4   9  16  27  41  61  93 129 165 205 256 306
#
# _framework density 25.593616999999998
#
# number of rings (size 3 to 8) (size 9 to 14) (size 15 to 20)
#    0.000    2.778    1.111    2.000    0.000    3.556 
#    0.000    5.556    0.000    0.667    0.000    0.000 
#    0.000    0.000    0.000    4.889    0.000    0.000 
#
# Total GULP energy -401688.446992 kJ/mol
# GULP energy per Si atom -5579.006208 kJ/mol
# Density = 2.553536 g / cm^3
# Si number density = 25.593617 Si / 1000 Ang^3
#
#
#
# Elastic Constant Matrix: (Units=GPa)
#
#
# Indices 1 2 3 4 5 6 
#
# 1 196.9029 46.1613 22.1276 0.0000 0.0000 0.0000
# 2 46.1613 196.9029 22.1276 0.0000 0.0000 0.0000
# 3 22.1276 22.1276 82.1066 0.0000 0.0000 0.0000
# 4 0.0000 0.0000 0.0000 13.3924 0.0000 0.0000
# 5 0.0000 0.0000 0.0000 0.0000 13.3924 0.0000
# 6 0.0000 0.0000 0.0000 0.0000 0.0000 -69.6624
#
#
#
# Elastic Compliance Matrix: (Units=1/GPa)
#
#
# Indices 1 2 3 4 5 6 
#
# 1 0.005480 -0.001154 -0.001166 0.000000 0.000000 0.000000
# 2 -0.001154 0.005480 -0.001166 0.000000 0.000000 0.000000
# 3 -0.001166 -0.001166 0.012808 0.000000 0.000000 0.000000
# 4 0.000000 0.000000 0.000000 0.074669 0.000000 0.000000
# 5 0.000000 0.000000 0.000000 0.000000 0.074669 0.000000
# 6 0.000000 0.000000 0.000000 0.000000 0.000000 -0.014355
#
#
# Mechanical properties :
#
#
# Convention : Reuss Voigt Hill
#
# Bulk Modulus (GPa) = 59.53537 72.97173 66.25355
# Shear Modulus (GPa) = 29.18484 17.12420 23.15452
#
# Velocity S-wave (km/s) = 3.38052 2.58947 3.01108
# Velocity P-wave (km/s) = 6.20883 6.12487 6.16699
#
# Compressibility (1/GPa) = 0.01679674
#
# Stress axis : x y z
#
# Youngs Moduli (GPa) = 182.47682 182.47682 78.07774
#
# Poissons Ratio (x) = 0.21053 0.09104
# Poissons Ratio (y) = 0.21053 0.09104
# Poissons Ratio (z) = 0.21276 0.21276
#
# Static dielectric constant tensor:
#      x y z
#    x 1.996120 0.000000 0.000000 
#    y 0.000000 1.996120 0.000000 
#    z 0.000000 0.000000 2.043620 
# 
# From -- ./inp_files/8317.got.cif
#   From: 2010.05.17/outbox.cif.g08.bks.cpg/sg140_5_cif.got.tgz:8317.got - 2010.06.21 00:45:31.
