data_PCOD9572342
_publ_section_title
;
Structure prediction by ZEFSAII (Michael W. Deem and Ramdas Pophale) SiO2 
 PCOD9572342
Probable space group: I 4/M C M
;
_chemical_formula_sum "Si O2"
_cell_formula_units_Z 160
_cell_length_a 19.978221
_cell_length_b 19.978221
_cell_length_c 18.378997
_cell_angle_alpha 90.000000
_cell_angle_beta 90.000000
_cell_angle_gamma 90.000000
_cell_volume 7335.596471
_symmetry_space_group_name_H-M "I 4/M C M"
_symmetry_group_IT_number 140
_symmetry_cell_setting 'tetragonal'
loop_
_space_group_symop_operation_xyz
x,y,z
-y,x,z
-x,-y,z
y,-x,z
x,-y,1/2-z
-x,y,1/2-z
y,x,1/2-z
-y,-x,1/2-z
-x,-y,-z
y,-x,-z
x,y,-z
-y,x,-z
-x,y,1/2+z
x,-y,1/2+z
-y,-x,1/2+z
y,x,1/2+z
1/2+x,1/2+y,1/2+z
1/2-y,1/2+x,1/2+z
1/2-x,1/2-y,1/2+z
1/2+y,1/2-x,1/2+z
1/2+x,1/2-y,-z
1/2-x,1/2+y,-z
1/2+y,1/2+x,-z
1/2-y,1/2-x,-z
1/2-x,1/2-y,1/2-z
1/2+y,1/2-x,1/2-z
1/2+x,1/2+y,1/2-z
1/2-y,1/2+x,1/2-z
1/2-x,1/2+y,z
1/2+x,1/2-y,z
1/2-y,1/2-x,z
1/2+y,1/2+x,z
loop_
_atom_site_type_symbol
_atom_site_label
_atom_site_fract_x
_atom_site_fract_y
_atom_site_fract_z
Si Si1 0.061228 0.148946 0.418028
Si Si2 0.234154 0.632881 0.286398
Si Si3 0.370066 0.023938 0.334350
Si Si4 0.550933 0.359499 0.180248
Si Si5 0.791965 0.603943 0.616681
O O1 0.057281 0.123562 0.500000
O O2 0.081468 0.089250 0.362565
O O3 0.102295 0.217846 0.416422
O O4 0.992029 0.173629 0.383421
O O5 0.207036 0.707036 0.303858
O O6 0.186830 0.580901 0.328946
O O7 0.309202 0.610263 0.299580
O O8 0.220729 0.618259 0.201981
O O9 0.438211 0.061790 0.358237
O O10 0.380342 0.000000 0.250000
O O11 0.338338 0.963240 0.380775
O O12 0.500000 0.369224 0.250000
O O13 0.836996 0.663005 0.586043
#
# Coordination Sequence:
#
# PCOD9572342 Si02
#       5
#    32  32  32  32  32
#     4  12  27  45  67  96 135 176 222 280 347 417
#     4   9  17  33  64 101 131 165 219 281 328 387
#     4   9  15  27  52  92 135 174 221 280 339 389
#     4  12  23  45  73  99 127 170 226 284 345 402
#     4  10  20  36  60  95 140 182 223 275 338 407
#
# _framework density 21.811451999999999
#
# number of rings (size 3 to 8) (size 9 to 14) (size 15 to 20)
#    0.000    1.600    4.000    3.600    0.000    3.000 
#    0.000    4.000    0.000    3.600    0.000    1.400 
#    0.000    0.000    0.000    0.000    0.000    0.000 
#
# Total GULP energy -445626.186656 kJ/mol
# GULP energy per Si atom -5570.327333 kJ/mol
# Density = 2.176181 g / cm^3
# Si number density = 21.811452 Si / 1000 Ang^3
#
#
#
# Elastic Constant Matrix: (Units=GPa)
#
#
# Indices 1 2 3 4 5 6 
#
# 1 29.5989 71.5231 38.2960 0.0000 0.0000 0.0000
# 2 71.5231 29.5989 38.2960 0.0000 0.0000 0.0000
# 3 38.2960 38.2960 77.6057 0.0000 0.0000 0.0000
# 4 0.0000 0.0000 0.0000 -81.8965 0.0000 0.0000
# 5 0.0000 0.0000 0.0000 0.0000 -81.8965 0.0000
# 6 0.0000 0.0000 0.0000 0.0000 0.0000 38.9498
#
#
#
# Elastic Compliance Matrix: (Units=1/GPa)
#
#
# Indices 1 2 3 4 5 6 
#
# 1 -0.004031 0.019822 -0.007792 0.000000 0.000000 0.000000
# 2 0.019822 -0.004031 -0.007792 0.000000 0.000000 0.000000
# 3 -0.007792 -0.007792 0.020576 0.000000 0.000000 0.000000
# 4 0.000000 0.000000 0.000000 -0.012211 0.000000 0.000000
# 5 0.000000 0.000000 0.000000 0.000000 -0.012211 0.000000
# 6 0.000000 0.000000 0.000000 0.000000 0.000000 0.025674
#
#
# Mechanical properties :
#
#
# Convention : Reuss Voigt Hill
#
# Bulk Modulus (GPa) = 47.64427 48.11487 47.87957
# Shear Modulus (GPa) = 406.81496 -25.72278 190.54609
#
# Velocity S-wave (km/s) = 13.67184 -3.43785 9.35683
# Velocity P-wave (km/s) = 16.46563 2.51970 11.77849
#
# Compressibility (1/GPa) = 0.02098888
#
# Stress axis : x y z
#
# Youngs Moduli (GPa) = -248.09913 -248.09912 48.59945
#
# Poissons Ratio (x) = 4.91779 0.37871
# Poissons Ratio (y) = 4.91779 0.37871
# Poissons Ratio (z) = -1.93331 -1.93331
#
# Static dielectric constant tensor:
#      x y z
#    x 1.873890 0.000000 0.000000 
#    y 0.000000 1.873890 0.000000 
#    z 0.000000 0.000000 1.775220 
# 
# From -- ./inp_files/6819.got.cif
#   From: 2010.05.17/outbox.cif.g08.bks.cpg/sg140_4_cif.got.tgz:6819.got - 2010.06.21 00:45:31.
