data_PCOD9572803
_publ_section_title
;
Structure prediction by ZEFSAII (Michael W. Deem and Ramdas Pophale) SiO2 
 PCOD9572803
Probable space group: I 41/A M D
;
_chemical_formula_sum "Si O2"
_cell_formula_units_Z 176
_cell_length_a 18.659445
_cell_length_b 18.659445
_cell_length_c 25.799685
_cell_angle_alpha 90.000000
_cell_angle_beta 90.000000
_cell_angle_gamma 90.000000
_cell_volume 8982.802428
_symmetry_space_group_name_H-M "I 41/A M D"
_symmetry_group_IT_number 141
_space_group.IT_coordinate_system_code '2'
_symmetry_cell_setting 'tetragonal'
loop_
_space_group_symop_operation_xyz
x,y,z
1/4-y,3/4+x,1/4+z
-x,1/2-y,z
1/4+y,1/4-x,3/4+z
x,-y,-z
-x,1/2+y,-z
1/4+y,3/4+x,1/4-z
1/4-y,1/4-x,3/4-z
-x,-y,-z
3/4+y,1/4-x,3/4-z
x,1/2+y,-z
3/4-y,3/4+x,1/4-z
-x,y,z
x,1/2-y,z
3/4-y,1/4-x,3/4+z
3/4+y,3/4+x,1/4+z
1/2+x,1/2+y,1/2+z
3/4-y,1/4+x,3/4+z
1/2-x,-y,1/2+z
3/4+y,3/4-x,1/4+z
1/2+x,1/2-y,1/2-z
1/2-x,y,1/2-z
3/4+y,1/4+x,3/4-z
3/4-y,3/4-x,1/4-z
1/2-x,1/2-y,1/2-z
1/4+y,3/4-x,1/4-z
1/2+x,y,1/2-z
1/4-y,1/4+x,3/4-z
1/2-x,1/2+y,1/2+z
1/2+x,-y,1/2+z
1/4-y,3/4-x,1/4+z
1/4+y,1/4+x,3/4+z
loop_
_atom_site_type_symbol
_atom_site_label
_atom_site_fract_x
_atom_site_fract_y
_atom_site_fract_z
Si Si1 0.827527 0.066916 0.037872
Si Si2 0.836985 0.437654 0.432012
Si Si3 0.915459 0.329914 0.107739
Si Si4 0.637979 0.098186 0.952998
Si Si5 0.079063 0.329063 0.875000
Si Si6 0.418741 0.535685 0.300252
O O1 0.749019 0.049801 0.061138
O O2 0.880669 0.100162 0.080239
O O3 0.815338 0.135801 0.002076
O O4 0.848970 0.000000 0.000000
O O5 0.846228 0.403773 0.375000
O O6 0.862165 0.396453 0.484261
O O7 0.873069 0.515606 0.436811
O O8 0.890703 0.250000 0.089973
O O9 0.896560 0.336776 0.168563
O O10 0.000000 0.333367 0.099470
O O11 0.718411 0.119945 0.936165
O O12 0.081871 0.250000 0.848716
O O13 0.083000 0.397710 0.838862
O O14 0.500000 0.510266 0.295191
#
# Coordination Sequence:
#
# PCOD9572803 Si02
#       6
#    32  32  32  32  16  32
#     4  11  21  36  59  86 119 155 197 253 301 350
#     4  10  18  35  63  92 120 144 185 251 320 364
#     4  11  25  42  59  82 121 169 210 250 303 369
#     4  10  20  35  60  88 113 157 197 247 303 374
#     4   9  20  34  48  72 110 154 196 246 296 335
#     4  10  20  33  53  81 113 153 199 246 293 351
#
# _framework density 19.592994000000001
#
# number of rings (size 3 to 8) (size 9 to 14) (size 15 to 20)
#    0.000    1.727    5.455    1.091    3.818    1.091 
#    0.000    3.636    0.000    0.000    0.000    1.273 
#    0.000    0.000    0.000    0.000    0.000    0.000 
#
# Total GULP energy -490040.345572 kJ/mol
# GULP energy per Si atom -5568.640291 kJ/mol
# Density = 1.954840 g / cm^3
# Si number density = 19.592994 Si / 1000 Ang^3
#
#
#
# Elastic Constant Matrix: (Units=GPa)
#
#
# Indices 1 2 3 4 5 6 
#
# 1 29.6271 -1.9365 13.5746 0.0000 0.0000 0.0000
# 2 -1.9365 29.6274 13.5749 0.0000 0.0000 0.0000
# 3 13.5746 13.5749 86.3905 0.0000 0.0000 0.0000
# 4 0.0000 0.0000 0.0000 7.5223 0.0000 0.0000
# 5 0.0000 0.0000 0.0000 0.0000 7.5224 0.0000
# 6 0.0000 0.0000 0.0000 0.0000 0.0000 21.8905
#
#
#
# Elastic Compliance Matrix: (Units=1/GPa)
#
#
# Indices 1 2 3 4 5 6 
#
# 1 0.037186 0.005504 -0.006708 0.000000 0.000000 0.000000
# 2 0.005504 0.037186 -0.006708 0.000000 0.000000 0.000000
# 3 -0.006708 -0.006708 0.013683 0.000000 0.000000 0.000000
# 4 0.000000 0.000000 0.000000 0.132937 0.000000 0.000000
# 5 0.000000 0.000000 0.000000 0.000000 0.132936 0.000000
# 6 0.000000 0.000000 0.000000 0.000000 0.000000 0.045682
#
#
# Mechanical properties :
#
#
# Convention : Reuss Voigt Hill
#
# Bulk Modulus (GPa) = 13.84438 21.78567 17.81502
# Shear Modulus (GPa) = 11.37627 15.41586 13.39606
#
# Velocity S-wave (km/s) = 2.41224 2.80805 2.61763
# Velocity P-wave (km/s) = 3.85225 4.65368 4.27180
#
# Compressibility (1/GPa) = 0.07223148
#
# Stress axis : x y z
#
# Youngs Moduli (GPa) = 26.89179 26.89199 73.08112
#
# Poissons Ratio (x) = -0.14801 0.49022
# Poissons Ratio (y) = -0.14801 0.49023
# Poissons Ratio (z) = 0.18039 0.18039
#
# Static dielectric constant tensor:
#      x y z
#    x 1.728180 0.000000 0.000000 
#    y 0.000000 1.728180 0.000000 
#    z 0.000000 0.000000 1.742710 
# 
# From -- ./inp_files/12889.got.cif
#   From: 2010.05.17/outbox.cif.g08.bks.cpg/sg141_7_cif.got.tgz:12889.got - 2010.05.20 13:30:51.
