data_PCOD9572171
_publ_section_title
;
Structure prediction by ZEFSAII (Michael W. Deem and Ramdas Pophale) SiO2 
 PCOD9572171
Probable space group: I 4/M C M
;
_chemical_formula_sum "Si O2"
_cell_formula_units_Z 192
_cell_length_a 17.780621
_cell_length_b 17.780621
_cell_length_c 32.503472
_cell_angle_alpha 90.000000
_cell_angle_beta 90.000000
_cell_angle_gamma 90.000000
_cell_volume 10275.988377
_symmetry_space_group_name_H-M "I 4/M C M"
_symmetry_group_IT_number 140
_symmetry_cell_setting 'tetragonal'
loop_
_space_group_symop_operation_xyz
x,y,z
-y,x,z
-x,-y,z
y,-x,z
x,-y,1/2-z
-x,y,1/2-z
y,x,1/2-z
-y,-x,1/2-z
-x,-y,-z
y,-x,-z
x,y,-z
-y,x,-z
-x,y,1/2+z
x,-y,1/2+z
-y,-x,1/2+z
y,x,1/2+z
1/2+x,1/2+y,1/2+z
1/2-y,1/2+x,1/2+z
1/2-x,1/2-y,1/2+z
1/2+y,1/2-x,1/2+z
1/2+x,1/2-y,-z
1/2-x,1/2+y,-z
1/2+y,1/2+x,-z
1/2-y,1/2-x,-z
1/2-x,1/2-y,1/2-z
1/2+y,1/2-x,1/2-z
1/2+x,1/2+y,1/2-z
1/2-y,1/2+x,1/2-z
1/2-x,1/2+y,z
1/2+x,1/2-y,z
1/2-y,1/2-x,z
1/2+y,1/2+x,z
loop_
_atom_site_type_symbol
_atom_site_label
_atom_site_fract_x
_atom_site_fract_y
_atom_site_fract_z
Si Si1 0.328376 0.046002 0.292063
Si Si2 0.274342 0.105187 0.830471
Si Si3 0.284410 0.578201 0.000000
Si Si4 0.074120 0.308820 0.580295
Si Si5 0.716236 0.656574 0.171876
Si Si6 0.398635 0.775264 0.088022
Si Si7 0.296627 0.600482 0.500000
O O1 0.402053 0.097948 0.301034
O O2 0.304000 0.021544 0.177878
O O3 0.257508 0.103014 0.295056
O O4 0.338965 0.000000 0.250000
O O5 0.339438 0.160563 0.813789
O O6 0.271517 0.111127 0.879735
O O7 0.193459 0.136381 0.816076
O O8 0.235723 0.597783 0.039879
O O9 0.298782 0.489434 0.000000
O O10 0.361374 0.622774 0.000000
O O11 0.106841 0.393160 0.578471
O O12 0.984871 0.301023 0.584517
O O13 0.771356 0.728645 0.167642
O O14 0.720262 0.615383 0.127207
O O15 0.347167 0.847167 0.096665
O O16 0.377224 0.742671 0.043141
#
# Coordination Sequence:
#
# PCOD9572171 Si02
#       7
#    32  32  16  32  32  32  16
#     4  11  23  39  59  86 118 149 183 235 296 352
#     4  10  20  35  58  85 113 151 191 230 284 341
#     4  10  21  36  52  78 110 144 189 242 290 342
#     4  10  20  33  53  82 114 148 186 230 282 335
#     4   9  19  36  57  81 113 150 191 233 274 335
#     4  10  19  34  54  81 114 151 190 228 278 337
#     4  10  21  34  54  78 108 146 189 240 290 342
#
# _framework density 18.684334
#
# number of rings (size 3 to 8) (size 9 to 14) (size 15 to 20)
#    0.000    2.000    1.667    2.000    0.000    5.000 
#    0.000    4.167    0.000    3.500    0.000    1.167 
#    0.000    0.000    0.000    0.000    0.000    0.000 
#
# Total GULP energy -534546.056933 kJ/mol
# GULP energy per Si atom -5568.188093 kJ/mol
# Density = 1.864181 g / cm^3
# Si number density = 18.684334 Si / 1000 Ang^3
#
#
#
# Elastic Constant Matrix: (Units=GPa)
#
#
# Indices 1 2 3 4 5 6 
#
# 1 70.1733 60.9750 25.4485 0.0000 0.0000 0.0000
# 2 60.9750 70.1733 25.4485 0.0000 0.0000 0.0000
# 3 25.4485 25.4485 49.2097 0.0000 0.0000 0.0000
# 4 0.0000 0.0000 0.0000 16.7839 0.0000 0.0000
# 5 0.0000 0.0000 0.0000 0.0000 16.7839 0.0000
# 6 0.0000 0.0000 0.0000 0.0000 0.0000 30.2184
#
#
#
# Elastic Compliance Matrix: (Units=1/GPa)
#
#
# Indices 1 2 3 4 5 6 
#
# 1 0.059128 -0.049588 -0.004933 0.000000 0.000000 0.000000
# 2 -0.049588 0.059128 -0.004933 0.000000 0.000000 0.000000
# 3 -0.004933 -0.004933 0.025424 0.000000 0.000000 0.000000
# 4 0.000000 0.000000 0.000000 0.059581 0.000000 0.000000
# 5 0.000000 0.000000 0.000000 0.000000 0.059581 0.000000
# 6 0.000000 0.000000 0.000000 0.000000 0.000000 0.033092
#
#
# Mechanical properties :
#
#
# Convention : Reuss Voigt Hill
#
# Bulk Modulus (GPa) = 40.37228 45.92227 43.14728
# Shear Modulus (GPa) = 11.81757 17.93619 14.87688
#
# Velocity S-wave (km/s) = 2.51765 3.10168 2.82480
# Velocity P-wave (km/s) = 5.48689 6.12034 5.81225
#
# Compressibility (1/GPa) = 0.02476947
#
# Stress axis : x y z
#
# Youngs Moduli (GPa) = 16.91257 16.91257 39.33340
#
# Poissons Ratio (x) = 0.83866 0.19404
# Poissons Ratio (y) = 0.83866 0.19404
# Poissons Ratio (z) = 0.08343 0.08343
#
# Static dielectric constant tensor:
#      x y z
#    x 1.652630 0.000000 0.000000 
#    y 0.000000 1.652630 0.000000 
#    z 0.000000 0.000000 1.716530 
# 
# From -- ./inp_files/11640.got.cif
#   From: 2010.05.17/outbox.cif.g08.bks.cpg/sg140_6_cif.got.tgz:11640.got - 2010.06.21 00:45:31.
