data_PCOD9572688
_publ_section_title
;
Structure prediction by ZEFSAII (Michael W. Deem and Ramdas Pophale) SiO2 
 PCOD9572688
Probable space group: I 4/M C M
;
_chemical_formula_sum "Si O2"
_cell_formula_units_Z 160
_cell_length_a 20.376330
_cell_length_b 20.376330
_cell_length_c 18.217509
_cell_angle_alpha 90.000000
_cell_angle_beta 90.000000
_cell_angle_gamma 90.000000
_cell_volume 7563.815448
_symmetry_space_group_name_H-M "I 4/M C M"
_symmetry_group_IT_number 140
_symmetry_cell_setting 'tetragonal'
loop_
_space_group_symop_operation_xyz
x,y,z
-y,x,z
-x,-y,z
y,-x,z
x,-y,1/2-z
-x,y,1/2-z
y,x,1/2-z
-y,-x,1/2-z
-x,-y,-z
y,-x,-z
x,y,-z
-y,x,-z
-x,y,1/2+z
x,-y,1/2+z
-y,-x,1/2+z
y,x,1/2+z
1/2+x,1/2+y,1/2+z
1/2-y,1/2+x,1/2+z
1/2-x,1/2-y,1/2+z
1/2+y,1/2-x,1/2+z
1/2+x,1/2-y,-z
1/2-x,1/2+y,-z
1/2+y,1/2+x,-z
1/2-y,1/2-x,-z
1/2-x,1/2-y,1/2-z
1/2+y,1/2-x,1/2-z
1/2+x,1/2+y,1/2-z
1/2-y,1/2+x,1/2-z
1/2-x,1/2+y,z
1/2+x,1/2-y,z
1/2-y,1/2-x,z
1/2+y,1/2+x,z
loop_
_atom_site_type_symbol
_atom_site_label
_atom_site_fract_x
_atom_site_fract_y
_atom_site_fract_z
Si Si1 0.175523 0.858328 0.831430
Si Si2 0.416832 0.428918 0.420218
Si Si3 0.238188 0.633078 0.087420
Si Si4 0.238151 0.489567 0.836434
Si Si5 0.607687 0.997358 0.083511
O O1 0.172107 0.827894 0.750000
O O2 0.103387 0.885852 0.849920
O O3 0.180360 0.797363 0.886720
O O4 0.221799 0.921221 0.848971
O O5 0.493376 0.411453 0.419210
O O6 0.390411 0.405845 0.500000
O O7 0.171017 0.671017 0.110302
O O8 0.250901 0.560285 0.122527
O O9 0.236829 0.626602 0.000000
O O10 0.245136 0.500000 0.750000
O O11 0.163489 0.480132 0.861658
O O12 0.552863 0.052863 0.080458
O O13 0.569049 0.930952 0.103971
O O14 0.633782 0.988877 0.000000
#
# Coordination Sequence:
#
# PCOD9572688 Si02
#       5
#    32  32  32  32  32
#     4  12  25  42  62  92 135 178 229 286 348 411
#     4   9  19  35  58  88 120 160 216 281 342 401
#     4  11  26  48  72 100 139 189 241 296 365 439
#     4  12  25  43  66 100 137 185 235 287 351 424
#     4   9  20  41  69 101 134 168 217 286 355 420
#
# _framework density 21.153345999999999
#
# number of rings (size 3 to 8) (size 9 to 14) (size 15 to 20)
#    0.000    1.400    2.000    4.200    0.000    9.200 
#    0.000    4.000    0.000    0.000    0.000    0.000 
#    0.000    0.000    0.000    0.000    0.000    0.000 
#
# Total GULP energy -445824.219925 kJ/mol
# GULP energy per Si atom -5572.802749 kJ/mol
# Density = 2.110520 g / cm^3
# Si number density = 21.153346 Si / 1000 Ang^3
#
#
#
# Elastic Constant Matrix: (Units=GPa)
#
#
# Indices 1 2 3 4 5 6 
#
# 1 174.1292 -1.0885 31.3525 0.0000 0.0000 0.0000
# 2 -1.0885 174.1307 31.3533 0.0000 0.0000 0.0000
# 3 31.3525 31.3533 77.8689 0.0000 0.0000 0.0000
# 4 0.0000 0.0000 0.0000 31.1429 0.0000 0.0000
# 5 0.0000 0.0000 0.0000 0.0000 31.1427 0.0000
# 6 0.0000 0.0000 0.0000 0.0000 0.0000 39.2977
#
#
#
# Elastic Compliance Matrix: (Units=1/GPa)
#
#
# Indices 1 2 3 4 5 6 
#
# 1 0.006237 0.000530 -0.002724 0.000000 0.000000 0.000000
# 2 0.000530 0.006237 -0.002724 0.000000 0.000000 0.000000
# 3 -0.002724 -0.002724 0.015036 0.000000 0.000000 0.000000
# 4 0.000000 0.000000 0.000000 0.032110 0.000000 0.000000
# 5 0.000000 0.000000 0.000000 0.000000 0.032110 0.000000
# 6 0.000000 0.000000 0.000000 0.000000 0.000000 0.025447
#
#
# Mechanical properties :
#
#
# Convention : Reuss Voigt Hill
#
# Bulk Modulus (GPa) = 56.58980 61.04036 58.81508
# Shear Modulus (GPa) = 37.62089 44.61744 41.11917
#
# Velocity S-wave (km/s) = 4.22178 4.59763 4.41371
# Velocity P-wave (km/s) = 7.11160 7.55665 7.33750
#
# Compressibility (1/GPa) = 0.01767103
#
# Stress axis : x y z
#
# Youngs Moduli (GPa) = 160.34146 160.34233 66.50740
#
# Poissons Ratio (x) = -0.08490 0.18119
# Poissons Ratio (y) = -0.08490 0.18119
# Poissons Ratio (z) = 0.43682 0.43683
#
# Static dielectric constant tensor:
#      x y z
#    x 1.821030 0.000000 0.000000 
#    y 0.000000 1.821020 0.000000 
#    z 0.000000 0.000000 1.778550 
# 
# From -- ./inp_files/6816.got.cif
#   From: 2010.05.17/outbox.cif.g08.bks.cpg/sg140_4_cif.got.tgz:6816.got - 2010.06.21 00:45:31.
