data_PCOD9572231
_publ_section_title
;
Structure prediction by ZEFSAII (Michael W. Deem and Ramdas Pophale) SiO2 
 PCOD9572231
Probable space group: I 4/M C M
;
_chemical_formula_sum "Si O2"
_cell_formula_units_Z 96
_cell_length_a 21.580799
_cell_length_b 21.580799
_cell_length_c 9.697438
_cell_angle_alpha 90.000000
_cell_angle_beta 90.000000
_cell_angle_gamma 90.000000
_cell_volume 4516.396387
_symmetry_space_group_name_H-M "I 4/M C M"
_symmetry_group_IT_number 140
_symmetry_cell_setting 'tetragonal'
loop_
_space_group_symop_operation_xyz
x,y,z
-y,x,z
-x,-y,z
y,-x,z
x,-y,1/2-z
-x,y,1/2-z
y,x,1/2-z
-y,-x,1/2-z
-x,-y,-z
y,-x,-z
x,y,-z
-y,x,-z
-x,y,1/2+z
x,-y,1/2+z
-y,-x,1/2+z
y,x,1/2+z
1/2+x,1/2+y,1/2+z
1/2-y,1/2+x,1/2+z
1/2-x,1/2-y,1/2+z
1/2+y,1/2-x,1/2+z
1/2+x,1/2-y,-z
1/2-x,1/2+y,-z
1/2+y,1/2+x,-z
1/2-y,1/2-x,-z
1/2-x,1/2-y,1/2-z
1/2+y,1/2-x,1/2-z
1/2+x,1/2+y,1/2-z
1/2-y,1/2+x,1/2-z
1/2-x,1/2+y,z
1/2+x,1/2-y,z
1/2-y,1/2-x,z
1/2+y,1/2+x,z
loop_
_atom_site_type_symbol
_atom_site_label
_atom_site_fract_x
_atom_site_fract_y
_atom_site_fract_z
Si Si1 0.238338 0.641682 0.151915
Si Si2 0.142619 0.940627 0.337917
Si Si3 0.058838 0.341181 0.845418
O O1 0.212700 0.712700 0.155770
O O2 0.308167 0.616502 0.158357
O O3 0.205129 0.607331 0.276308
O O4 0.216324 0.619007 0.000000
O O5 0.084228 0.915773 0.250000
O O6 0.130341 0.956094 0.500000
O O7 0.167126 0.000000 0.250000
O O8 0.092698 0.407303 0.848473
O O9 0.000000 0.342933 0.750000
O O10 0.043531 0.321734 0.000000
#
# Coordination Sequence:
#
# PCOD9572231 Si02
#       3
#    32  32  32
#     4   9  19  37  61  89 121 156 194 240 296 358
#     4  11  24  42  65  93 126 164 208 256 308 366
#     4  10  20  32  48  72 103 143 191 242 296 354
#
# _framework density 21.255883000000001
#
# number of rings (size 3 to 8) (size 9 to 14) (size 15 to 20)
#    0.000    2.000    0.000    3.000    0.000    8.667 
#    0.000    3.333    0.000    0.000    0.000    0.000 
#    0.000    0.000    0.000    0.000    0.000    0.000 
#
# Total GULP energy -267236.764782 kJ/mol
# GULP energy per Si atom -5567.432600 kJ/mol
# Density = 2.120750 g / cm^3
# Si number density = 21.255883 Si / 1000 Ang^3
#
#
#
# Elastic Constant Matrix: (Units=GPa)
#
#
# Indices 1 2 3 4 5 6 
#
# 1 -3.2434 55.9207 46.4175 0.0000 0.0000 0.0000
# 2 55.9207 -3.2603 46.4126 0.0000 0.0000 0.0000
# 3 46.4175 46.4126 228.5240 0.0000 0.0000 0.0000
# 4 0.0000 0.0000 0.0000 22.9333 0.0000 0.0000
# 5 0.0000 0.0000 0.0000 0.0000 22.9351 0.0000
# 6 0.0000 0.0000 0.0000 0.0000 0.0000 19.2978
#
#
#
# Elastic Compliance Matrix: (Units=1/GPa)
#
#
# Indices 1 2 3 4 5 6 
#
# 1 0.006341 0.023237 -0.006007 0.000000 0.000000 0.000000
# 2 0.023237 0.006333 -0.006006 0.000000 0.000000 0.000000
# 3 -0.006007 -0.006006 0.006816 0.000000 0.000000 0.000000
# 4 0.000000 0.000000 0.000000 0.043605 0.000000 0.000000
# 5 0.000000 0.000000 0.000000 0.000000 0.043601 0.000000
# 6 0.000000 0.000000 0.000000 0.000000 0.000000 0.051819
#
#
# Mechanical properties :
#
#
# Convention : Reuss Voigt Hill
#
# Bulk Modulus (GPa) = 23.84575 57.72464 40.78520
# Shear Modulus (GPa) = 33.32297 17.91789 25.62043
#
# Velocity S-wave (km/s) = 3.96372 2.90653 3.47556
# Velocity P-wave (km/s) = 5.67370 6.20321 5.94436
#
# Compressibility (1/GPa) = 0.04193619
#
# Stress axis : x y z
#
# Youngs Moduli (GPa) = 157.71578 157.90142 146.71630
#
# Poissons Ratio (x) = -3.66908 0.88135
# Poissons Ratio (y) = -3.66477 0.88118
# Poissons Ratio (z) = 0.94742 0.94836
#
# Static dielectric constant tensor:
#      x y z
#    x 1.791020 0.000000 0.000000 
#    y 0.000000 1.791030 0.000000 
#    z 0.000000 0.000000 1.771580 
# 
# From -- ./inp_files/906.got.cif
#   From: 2010.05.17/outbox.cif.g08.bks.cpg/sg140_1_cif.got.tgz:906.got - 2010.06.21 00:45:31.
