data_PCOD9572219
_publ_section_title
;
Structure prediction by ZEFSAII (Michael W. Deem and Ramdas Pophale) SiO2 
 PCOD9572219
Probable space group: I 4/M C M
;
_chemical_formula_sum "Si O2"
_cell_formula_units_Z 144
_cell_length_a 24.369736
_cell_length_b 24.369736
_cell_length_c 16.891718
_cell_angle_alpha 90.000000
_cell_angle_beta 90.000000
_cell_angle_gamma 90.000000
_cell_volume 10031.721605
_symmetry_space_group_name_H-M "I 4/M C M"
_symmetry_group_IT_number 140
_symmetry_cell_setting 'tetragonal'
loop_
_space_group_symop_operation_xyz
x,y,z
-y,x,z
-x,-y,z
y,-x,z
x,-y,1/2-z
-x,y,1/2-z
y,x,1/2-z
-y,-x,1/2-z
-x,-y,-z
y,-x,-z
x,y,-z
-y,x,-z
-x,y,1/2+z
x,-y,1/2+z
-y,-x,1/2+z
y,x,1/2+z
1/2+x,1/2+y,1/2+z
1/2-y,1/2+x,1/2+z
1/2-x,1/2-y,1/2+z
1/2+y,1/2-x,1/2+z
1/2+x,1/2-y,-z
1/2-x,1/2+y,-z
1/2+y,1/2+x,-z
1/2-y,1/2-x,-z
1/2-x,1/2-y,1/2-z
1/2+y,1/2-x,1/2-z
1/2+x,1/2+y,1/2-z
1/2-y,1/2+x,1/2-z
1/2-x,1/2+y,z
1/2+x,1/2-y,z
1/2-y,1/2-x,z
1/2+y,1/2+x,z
loop_
_atom_site_type_symbol
_atom_site_label
_atom_site_fract_x
_atom_site_fract_y
_atom_site_fract_z
Si Si1 0.820239 0.772860 0.672464
Si Si2 0.708120 0.300952 0.500000
Si Si3 0.970480 0.668852 0.860348
Si Si4 0.956191 0.543810 0.904828
Si Si5 0.199755 0.393198 0.000000
Si Si6 0.819524 0.588269 0.690940
O O1 0.811242 0.811242 0.750000
O O2 0.766308 0.733693 0.670412
O O3 0.822923 0.799924 0.584825
O O4 0.871551 0.732348 0.684557
O O5 0.746233 0.246233 0.500000
O O6 0.749241 0.352355 0.500000
O O7 0.970786 0.604113 0.876421
O O8 0.939482 0.677005 0.777289
O O9 0.034182 0.686014 0.863058
O O10 0.932468 0.697589 0.924760
O O11 0.000000 0.500000 0.875185
O O12 0.956419 0.543582 0.000000
O O13 0.145317 0.354684 0.000000
O O14 0.873520 0.626481 0.676744
#
# Coordination Sequence:
#
# PCOD9572219 Si02
#       6
#    32  16  32  16  16  32
#     4   9  17  31  47  66  85 110 144 195 239 282
#     4   9  18  29  48  68  82 106 147 189 237 279
#     4  11  19  31  44  63  84 121 154 192 235 267
#     4  11  20  32  44  58  83 118 170 210 234 260
#     4  11  18  31  48  62  82 113 154 194 220 277
#     4  10  20  31  44  62  89 115 153 192 237 277
#
# _framework density 14.354466
#
# number of rings (size 3 to 8) (size 9 to 14) (size 15 to 20)
#    0.000    1.889    3.333    2.000    0.000    4.444 
#    0.000    1.111    0.000    0.000    0.000    0.000 
#    0.000    0.000    0.000    0.000    0.000  177.778 
#
# Total GULP energy -401063.380967 kJ/mol
# GULP energy per Si atom -5570.324736 kJ/mol
# Density = 1.432179 g / cm^3
# Si number density = 14.354466 Si / 1000 Ang^3
#
#
#
# Elastic Constant Matrix: (Units=GPa)
#
#
# Indices 1 2 3 4 5 6 
#
# 1 50.8819 28.4027 37.1595 0.0000 0.0000 0.0000
# 2 28.4027 50.8826 37.1598 0.0000 0.0000 0.0000
# 3 37.1595 37.1598 89.0152 0.0000 0.0000 0.0000
# 4 0.0000 0.0000 0.0000 30.0288 0.0000 0.0000
# 5 0.0000 0.0000 0.0000 0.0000 30.0291 0.0000
# 6 0.0000 0.0000 0.0000 0.0000 0.0000 17.0548
#
#
#
# Elastic Compliance Matrix: (Units=1/GPa)
#
#
# Indices 1 2 3 4 5 6 
#
# 1 0.032603 -0.011882 -0.008650 0.000000 0.000000 0.000000
# 2 -0.011882 0.032603 -0.008650 0.000000 0.000000 0.000000
# 3 -0.008650 -0.008650 0.018456 0.000000 0.000000 0.000000
# 4 0.000000 0.000000 0.000000 0.033301 0.000000 0.000000
# 5 0.000000 0.000000 0.000000 0.000000 0.033301 0.000000
# 6 0.000000 0.000000 0.000000 0.000000 0.000000 0.058635
#
#
# Mechanical properties :
#
#
# Convention : Reuss Voigt Hill
#
# Bulk Modulus (GPa) = 39.52906 44.02487 41.77696
# Shear Modulus (GPa) = 18.13594 21.29305 19.71450
#
# Velocity S-wave (km/s) = 3.55834 3.85564 3.70997
# Velocity P-wave (km/s) = 6.66933 7.11039 6.89339
#
# Compressibility (1/GPa) = 0.02529785
#
# Stress axis : x y z
#
# Youngs Moduli (GPa) = 30.67183 30.67227 54.18296
#
# Poissons Ratio (x) = 0.36445 0.46869
# Poissons Ratio (y) = 0.36444 0.46868
# Poissons Ratio (z) = 0.26531 0.26531
#
# Static dielectric constant tensor:
#      x y z
#    x 1.452160 0.000000 0.000000 
#    y 0.000000 1.452170 0.000000 
#    z 0.000000 0.000000 1.527040 
# 
# From -- ./inp_files/7070.got.cif
#   From: 2010.05.17/outbox.cif.g08.bks.cpg/sg140_4_cif.got.tgz:7070.got - 2010.06.21 00:45:31.
