data_PCOD9572379
_publ_section_title
;
Structure prediction by ZEFSAII (Michael W. Deem and Ramdas Pophale) SiO2 
 PCOD9572379
Probable space group: I 4/M C M
;
_chemical_formula_sum "Si O2"
_cell_formula_units_Z 96
_cell_length_a 23.213610
_cell_length_b 23.213610
_cell_length_c 9.758785
_cell_angle_alpha 90.000000
_cell_angle_beta 90.000000
_cell_angle_gamma 90.000000
_cell_volume 5258.732958
_symmetry_space_group_name_H-M "I 4/M C M"
_symmetry_group_IT_number 140
_symmetry_cell_setting 'tetragonal'
loop_
_space_group_symop_operation_xyz
x,y,z
-y,x,z
-x,-y,z
y,-x,z
x,-y,1/2-z
-x,y,1/2-z
y,x,1/2-z
-y,-x,1/2-z
-x,-y,-z
y,-x,-z
x,y,-z
-y,x,-z
-x,y,1/2+z
x,-y,1/2+z
-y,-x,1/2+z
y,x,1/2+z
1/2+x,1/2+y,1/2+z
1/2-y,1/2+x,1/2+z
1/2-x,1/2-y,1/2+z
1/2+y,1/2-x,1/2+z
1/2+x,1/2-y,-z
1/2-x,1/2+y,-z
1/2+y,1/2+x,-z
1/2-y,1/2-x,-z
1/2-x,1/2-y,1/2-z
1/2+y,1/2-x,1/2-z
1/2+x,1/2+y,1/2-z
1/2-y,1/2+x,1/2-z
1/2-x,1/2+y,z
1/2+x,1/2-y,z
1/2-y,1/2-x,z
1/2+y,1/2+x,z
loop_
_atom_site_type_symbol
_atom_site_label
_atom_site_fract_x
_atom_site_fract_y
_atom_site_fract_z
Si Si1 0.567899 0.332657 0.500000
Si Si2 0.939349 0.439349 0.827080
Si Si3 0.568431 0.655054 0.500000
Si Si4 0.221979 0.871107 0.242050
Si Si5 0.354856 0.145145 0.334281
O O1 0.499918 0.342061 0.500000
O O2 0.594970 0.397030 0.500000
O O3 0.593172 0.295519 0.624617
O O4 0.924346 0.500000 0.750000
O O5 0.893798 0.393798 0.766846
O O6 0.942257 0.442257 0.000000
O O7 0.593433 0.689108 0.627333
O O8 0.191720 0.808281 0.250000
O O9 0.288475 0.866946 0.203933
O O10 0.364155 0.135846 0.500000
#
# Coordination Sequence:
#
# PCOD9572379 Si02
#       5
#    16  16  16  32  16
#     4  10  22  36  63  87 128 164 214 260 317 378
#     4  11  25  47  70  95 129 167 207 257 316 371
#     4  10  20  40  57  91 122 172 208 262 317 370
#     4  10  22  40  61  88 127 164 205 262 321 375
#     4  12  24  42  65  95 125 167 214 258 317 386
#
# _framework density 18.255348000000001
#
# number of rings (size 3 to 8) (size 9 to 14) (size 15 to 20)
#    0.000    1.500    1.667    3.500    2.333    3.000 
#    0.000    0.000    0.000    6.000    0.000    0.000 
#    0.000    0.000    0.000    0.000    0.000    0.000 
#
# Total GULP energy -267338.983424 kJ/mol
# GULP energy per Si atom -5569.562155 kJ/mol
# Density = 1.821380 g / cm^3
# Si number density = 18.255348 Si / 1000 Ang^3
#
#
#
# Elastic Constant Matrix: (Units=GPa)
#
#
# Indices 1 2 3 4 5 6 
#
# 1 102.5657 87.0762 45.5786 0.0000 0.0000 0.0000
# 2 87.0762 102.5824 45.5849 0.0000 0.0000 0.0000
# 3 45.5786 45.5849 185.7115 0.0000 0.0000 0.0000
# 4 0.0000 0.0000 0.0000 -145.5216 0.0000 0.0000
# 5 0.0000 0.0000 0.0000 0.0000 -147.3736 0.0000
# 6 0.0000 0.0000 0.0000 0.0000 0.0000 15.9018
#
#
#
# Elastic Compliance Matrix: (Units=1/GPa)
#
#
# Indices 1 2 3 4 5 6 
#
# 1 0.035254 -0.029273 -0.001467 0.000000 0.000000 0.000000
# 2 -0.029273 0.035249 -0.001468 0.000000 0.000000 0.000000
# 3 -0.001467 -0.001468 0.006105 0.000000 0.000000 0.000000
# 4 0.000000 0.000000 0.000000 -0.006872 0.000000 0.000000
# 5 0.000000 0.000000 0.000000 0.000000 -0.006785 0.000000
# 6 0.000000 0.000000 0.000000 0.000000 0.000000 0.062886
#
#
# Mechanical properties :
#
#
# Convention : Reuss Voigt Hill
#
# Bulk Modulus (GPa) = 82.02018 83.03765 82.52891
# Shear Modulus (GPa) = 25.73112 -41.22402 -7.74645
#
# Velocity S-wave (km/s) = 3.75842 -4.75720 -2.06218
# Velocity P-wave (km/s) = 7.99132 3.92568 6.29572
#
# Compressibility (1/GPa) = 0.01219212
#
# Stress axis : x y z
#
# Youngs Moduli (GPa) = 28.36534 28.36958 163.80077
#
# Poissons Ratio (x) = 0.83048 0.24027
# Poissons Ratio (y) = 0.83035 0.24042
# Poissons Ratio (z) = 0.04161 0.04164
#
# Static dielectric constant tensor:
#      x y z
#    x 1.528220 0.000000 0.000000 
#    y 0.000000 1.528100 0.000000 
#    z 0.000000 0.000000 1.588970 
# 
# From -- ./inp_files/1022.got.cif
#   From: 2010.05.17/outbox.cif.g08.bks.cpg/sg140_1_cif.got.tgz:1022.got - 2010.06.21 00:45:31.
