data_PCOD9572603
_publ_section_title
;
Structure prediction by ZEFSAII (Michael W. Deem and Ramdas Pophale) SiO2 
 PCOD9572603
Probable space group: I 4/M C M
;
_chemical_formula_sum "Si O2"
_cell_formula_units_Z 192
_cell_length_a 25.343204
_cell_length_b 25.343204
_cell_length_c 14.715349
_cell_angle_alpha 90.000000
_cell_angle_beta 90.000000
_cell_angle_gamma 90.000000
_cell_volume 9451.344763
_symmetry_space_group_name_H-M "I 4/M C M"
_symmetry_group_IT_number 140
_symmetry_cell_setting 'tetragonal'
loop_
_space_group_symop_operation_xyz
x,y,z
-y,x,z
-x,-y,z
y,-x,z
x,-y,1/2-z
-x,y,1/2-z
y,x,1/2-z
-y,-x,1/2-z
-x,-y,-z
y,-x,-z
x,y,-z
-y,x,-z
-x,y,1/2+z
x,-y,1/2+z
-y,-x,1/2+z
y,x,1/2+z
1/2+x,1/2+y,1/2+z
1/2-y,1/2+x,1/2+z
1/2-x,1/2-y,1/2+z
1/2+y,1/2-x,1/2+z
1/2+x,1/2-y,-z
1/2-x,1/2+y,-z
1/2+y,1/2+x,-z
1/2-y,1/2-x,-z
1/2-x,1/2-y,1/2-z
1/2+y,1/2-x,1/2-z
1/2+x,1/2+y,1/2-z
1/2-y,1/2+x,1/2-z
1/2-x,1/2+y,z
1/2+x,1/2-y,z
1/2-y,1/2-x,z
1/2+y,1/2+x,z
loop_
_atom_site_type_symbol
_atom_site_label
_atom_site_fract_x
_atom_site_fract_y
_atom_site_fract_z
Si Si1 0.946206 0.194113 0.397160
Si Si2 0.558603 0.200126 0.222943
Si Si3 0.216689 0.283312 0.103634
Si Si4 0.168965 0.826721 0.648155
Si Si5 0.631221 0.780680 0.102027
Si Si6 0.084846 0.990784 0.889363
Si Si7 0.627353 0.127353 0.102360
O O1 0.962937 0.209180 0.500000
O O2 0.943804 0.244322 0.331478
O O3 0.886119 0.172958 0.403006
O O4 0.981351 0.145222 0.362303
O O5 0.500000 0.186388 0.250000
O O6 0.594230 0.205127 0.313352
O O7 0.581517 0.155409 0.157701
O O8 0.190906 0.233256 0.151121
O O9 0.172408 0.327593 0.097824
O O10 0.231921 0.268080 0.000000
O O11 0.156491 0.843510 0.750000
O O12 0.218057 0.858406 0.608126
O O13 0.685648 0.814353 0.112785
O O14 0.611049 0.792820 0.000000
O O15 0.045236 0.943403 0.861277
O O16 0.085396 0.990257 0.000000
O O17 0.612683 0.112683 0.000000
#
# Coordination Sequence:
#
# PCOD9572603 Si02
#       7
#    32  32  16  32  32  32  16
#     4  11  22  37  59  92 130 169 217 275 336 392
#     4  12  26  43  65  99 132 168 208 263 321 391
#     4  11  19  31  57  90 122 161 212 251 291 381
#     4  12  21  33  56  89 126 169 213 264 316 385
#     4  11  23  40  62  90 127 169 210 257 320 385
#     4   8  16  34  59  83 114 168 234 289 331 373
#     4  11  22  43  72  99 133 176 215 253 317 394
#
# _framework density 20.31457
#
# number of rings (size 3 to 8) (size 9 to 14) (size 15 to 20)
#    0.000    1.167    5.000    2.750    0.000    2.667 
#    0.000    1.667    0.000    0.250    0.000    0.583 
#    0.000    0.000    0.000    1.833    0.000    0.167 
#
# Total GULP energy -536624.411350 kJ/mol
# GULP energy per Si atom -5589.837618 kJ/mol
# Density = 2.026833 g / cm^3
# Si number density = 20.314570 Si / 1000 Ang^3
#
#
#
# Elastic Constant Matrix: (Units=GPa)
#
#
# Indices 1 2 3 4 5 6 
#
# 1 7.8913 93.5372 45.7154 0.0000 0.0000 0.0000
# 2 93.5372 7.8893 45.7151 0.0000 0.0000 0.0000
# 3 45.7154 45.7151 141.0686 0.0000 0.0000 0.0000
# 4 0.0000 0.0000 0.0000 19.6558 0.0000 0.0000
# 5 0.0000 0.0000 0.0000 0.0000 19.6589 0.0000
# 6 0.0000 0.0000 0.0000 0.0000 0.0000 21.1763
#
#
#
# Elastic Compliance Matrix: (Units=1/GPa)
#
#
# Indices 1 2 3 4 5 6 
#
# 1 0.001126 0.012802 -0.004514 0.000000 0.000000 0.000000
# 2 0.012802 0.001126 -0.004513 0.000000 0.000000 0.000000
# 3 -0.004514 -0.004513 0.010014 0.000000 0.000000 0.000000
# 4 0.000000 0.000000 0.000000 0.050876 0.000000 0.000000
# 5 0.000000 0.000000 0.000000 0.000000 0.050868 0.000000
# 6 0.000000 0.000000 0.000000 0.000000 0.000000 0.047223
#
#
# Mechanical properties :
#
#
# Convention : Reuss Voigt Hill
#
# Bulk Modulus (GPa) = 50.46477 58.53161 54.49819
# Shear Modulus (GPa) = 31.19395 10.22364 20.70879
#
# Velocity S-wave (km/s) = 3.92285 2.24579 3.19628
# Velocity P-wave (km/s) = 6.73899 5.96657 6.36451
#
# Compressibility (1/GPa) = 0.01981580
#
# Stress axis : x y z
#
# Youngs Moduli (GPa) = 887.95266 888.18344 99.85926
#
# Poissons Ratio (x) = -11.37042 0.45072
# Poissons Ratio (y) = -11.36747 0.45071
# Poissons Ratio (z) = 4.00783 4.00882
#
# Static dielectric constant tensor:
#      x y z
#    x 1.750500 0.000000 0.000000 
#    y 0.000000 1.750500 0.000000 
#    z 0.000000 0.000000 1.825260 
# 
# From -- ./inp_files/5202.got.cif
#   From: 2010.05.17/outbox.cif.g08.bks.cpg/sg140_3_cif.got.tgz:5202.got - 2010.06.21 00:45:31.
