data_PCOD9572889
_publ_section_title
;
Structure prediction by ZEFSAII (Michael W. Deem and Ramdas Pophale) SiO2 
 PCOD9572889
Probable space group: I 41/A M D
;
_chemical_formula_sum "Si O2"
_cell_formula_units_Z 120
_cell_length_a 14.395217
_cell_length_b 14.395217
_cell_length_c 27.899522
_cell_angle_alpha 90.000000
_cell_angle_beta 90.000000
_cell_angle_gamma 90.000000
_cell_volume 5781.402350
_symmetry_space_group_name_H-M "I 41/A M D"
_symmetry_group_IT_number 141
_space_group.IT_coordinate_system_code '2'
_symmetry_cell_setting 'tetragonal'
loop_
_space_group_symop_operation_xyz
x,y,z
1/4-y,3/4+x,1/4+z
-x,1/2-y,z
1/4+y,1/4-x,3/4+z
x,-y,-z
-x,1/2+y,-z
1/4+y,3/4+x,1/4-z
1/4-y,1/4-x,3/4-z
-x,-y,-z
3/4+y,1/4-x,3/4-z
x,1/2+y,-z
3/4-y,3/4+x,1/4-z
-x,y,z
x,1/2-y,z
3/4-y,1/4-x,3/4+z
3/4+y,3/4+x,1/4+z
1/2+x,1/2+y,1/2+z
3/4-y,1/4+x,3/4+z
1/2-x,-y,1/2+z
3/4+y,3/4-x,1/4+z
1/2+x,1/2-y,1/2-z
1/2-x,y,1/2-z
3/4+y,1/4+x,3/4-z
3/4-y,3/4-x,1/4-z
1/2-x,1/2-y,1/2-z
1/4+y,3/4-x,1/4-z
1/2+x,y,1/2-z
1/4-y,1/4+x,3/4-z
1/2-x,1/2+y,1/2+z
1/2+x,-y,1/2+z
1/4-y,3/4-x,1/4+z
1/4+y,1/4+x,3/4+z
loop_
_atom_site_type_symbol
_atom_site_label
_atom_site_fract_x
_atom_site_fract_y
_atom_site_fract_z
Si Si1 0.652167 0.750000 0.863173
Si Si2 0.858991 0.250000 0.103654
Si Si3 0.000000 0.750000 0.271039
Si Si4 0.324737 0.574737 0.375000
Si Si5 0.656622 0.855069 0.071220
Si Si6 0.888375 0.750000 0.182722
Si Si7 0.500000 0.137856 0.005946
O O1 0.589678 0.660323 0.875000
O O2 0.747604 0.750000 0.892364
O O3 0.666344 0.750000 0.805801
O O4 0.894858 0.337443 0.133765
O O5 0.907291 0.250000 0.052671
O O6 0.094808 0.750000 0.239563
O O7 0.328904 0.488060 0.339184
O O8 0.412901 0.586246 0.410046
O O9 0.693312 0.750000 0.063341
O O10 0.591725 0.880327 0.026049
O O11 0.000000 0.750000 0.170613
O O12 0.500000 0.250000 0.016174
#
# Coordination Sequence:
#
# PCOD9572889 Si02
#       7
#    16  16   8  16  32  16  16
#     4  11  24  42  67  96 129 165 214 283 334 384
#     4  11  23  44  63  88 128 174 222 266 331 381
#     4  10  22  41  64  92 130 184 211 258 318 380
#     4  12  19  38  62 104 125 172 216 264 324 372
#     4  10  21  37  69  88 127 173 213 267 318 399
#     4  10  19  35  61  87 136 166 206 257 305 384
#     4   9  19  42  65  95 122 172 218 264 336 392
#
# _framework density 20.756211
#
# number of rings (size 3 to 8) (size 9 to 14) (size 15 to 20)
#    0.400    1.200    5.333    0.800    1.867    4.267 
#    0.000    2.667    5.867    0.000    0.000    0.000 
#    0.000    0.000    0.000    0.000    0.000    0.000 
#
# Total GULP energy -334674.425214 kJ/mol
# GULP energy per Si atom -5577.907087 kJ/mol
# Density = 2.070897 g / cm^3
# Si number density = 20.756211 Si / 1000 Ang^3
#
#
#
# Elastic Constant Matrix: (Units=GPa)
#
#
# Indices 1 2 3 4 5 6 
#
# 1 103.7639 13.0389 29.4702 0.0000 0.0000 0.0000
# 2 13.0389 103.7648 29.4708 0.0000 0.0000 0.0000
# 3 29.4702 29.4708 124.0335 0.0000 0.0000 0.0000
# 4 0.0000 0.0000 0.0000 -13.4554 0.0000 0.0000
# 5 0.0000 0.0000 0.0000 0.0000 -13.4535 0.0000
# 6 0.0000 0.0000 0.0000 0.0000 0.0000 23.4891
#
#
#
# Elastic Compliance Matrix: (Units=1/GPa)
#
#
# Indices 1 2 3 4 5 6 
#
# 1 0.010375 -0.000647 -0.002311 0.000000 0.000000 0.000000
# 2 -0.000647 0.010375 -0.002311 0.000000 0.000000 0.000000
# 3 -0.002311 -0.002311 0.009161 0.000000 0.000000 0.000000
# 4 0.000000 0.000000 0.000000 -0.074320 0.000000 0.000000
# 5 0.000000 0.000000 0.000000 0.000000 -0.074330 0.000000
# 6 0.000000 0.000000 0.000000 0.000000 0.000000 0.042573
#
#
# Mechanical properties :
#
#
# Convention : Reuss Voigt Hill
#
# Bulk Modulus (GPa) = 51.62390 52.83578 52.22984
# Shear Modulus (GPa) = -84.50313 16.62152 -33.94081
#
# Velocity S-wave (km/s) = -6.38753 2.83291 -4.04816
# Velocity P-wave (km/s) = 5.42911 6.01757 1.83520
#
# Compressibility (1/GPa) = 0.01937087
#
# Stress axis : x y z
#
# Youngs Moduli (GPa) = 96.38524 96.38579 109.16208
#
# Poissons Ratio (x) = 0.06239 0.25231
# Poissons Ratio (y) = 0.06239 0.25231
# Poissons Ratio (z) = 0.22278 0.22278
#
# Static dielectric constant tensor:
#      x y z
#    x 1.824150 0.000000 0.000000 
#    y 0.000000 1.824150 0.000000 
#    z 0.000000 0.000000 1.783060 
# 
# From -- ./inp_files/14177.got.cif
#   From: 2010.05.17/outbox.cif.g08.bks.cpg/sg141_8_cif.got.tgz:14177.got - 2010.05.20 13:30:51.
