data_PCOD9572398
_publ_section_title
;
Structure prediction by ZEFSAII (Michael W. Deem and Ramdas Pophale) SiO2 
 PCOD9572398
Probable space group: I 4/M C M
;
_chemical_formula_sum "Si O2"
_cell_formula_units_Z 176
_cell_length_a 18.020366
_cell_length_b 18.020366
_cell_length_c 27.484651
_cell_angle_alpha 90.000000
_cell_angle_beta 90.000000
_cell_angle_gamma 90.000000
_cell_volume 8925.189410
_symmetry_space_group_name_H-M "I 4/M C M"
_symmetry_group_IT_number 140
_symmetry_cell_setting 'tetragonal'
loop_
_space_group_symop_operation_xyz
x,y,z
-y,x,z
-x,-y,z
y,-x,z
x,-y,1/2-z
-x,y,1/2-z
y,x,1/2-z
-y,-x,1/2-z
-x,-y,-z
y,-x,-z
x,y,-z
-y,x,-z
-x,y,1/2+z
x,-y,1/2+z
-y,-x,1/2+z
y,x,1/2+z
1/2+x,1/2+y,1/2+z
1/2-y,1/2+x,1/2+z
1/2-x,1/2-y,1/2+z
1/2+y,1/2-x,1/2+z
1/2+x,1/2-y,-z
1/2-x,1/2+y,-z
1/2+y,1/2+x,-z
1/2-y,1/2-x,-z
1/2-x,1/2-y,1/2-z
1/2+y,1/2-x,1/2-z
1/2+x,1/2+y,1/2-z
1/2-y,1/2+x,1/2-z
1/2-x,1/2+y,z
1/2+x,1/2-y,z
1/2-y,1/2-x,z
1/2+y,1/2+x,z
loop_
_atom_site_type_symbol
_atom_site_label
_atom_site_fract_x
_atom_site_fract_y
_atom_site_fract_z
Si Si1 0.604108 0.895893 0.940958
Si Si2 0.194659 0.920158 0.274500
Si Si3 0.780031 0.719970 0.396901
Si Si4 0.875856 0.173360 0.441979
Si Si5 0.446231 0.825297 0.059017
Si Si6 0.557435 0.392405 0.367363
Si Si7 0.197698 0.302303 0.717558
O O1 0.662279 0.837722 0.919976
O O2 0.521939 0.867249 0.925817
O O3 0.605115 0.894886 0.000000
O O4 0.134252 0.865749 0.250000
O O5 0.172249 0.919578 0.331166
O O6 0.275868 0.884668 0.270177
O O7 0.189428 0.000000 0.250000
O O8 0.799058 0.800578 0.417449
O O9 0.785288 0.714713 0.338806
O O10 0.871292 0.172768 0.500000
O O11 0.935631 0.238113 0.427320
O O12 0.883165 0.089509 0.421608
O O13 0.375368 0.875368 0.074397
O O14 0.446432 0.825682 0.000000
O O15 0.595626 0.471347 0.356475
O O16 0.250000 0.250000 0.750000
#
# Coordination Sequence:
#
# PCOD9572398 Si02
#       7
#    16  32  16  32  32  32  16
#     4  10  21  34  56  86 117 158 212 263 308 368
#     4  11  21  39  69  97 129 159 208 274 334 389
#     4  12  22  39  62  87 124 161 212 259 310 387
#     4  11  23  38  58  87 129 176 213 253 313 387
#     4   9  18  35  57  84 119 164 211 259 309 359
#     4  11  24  39  60  92 124 167 215 265 327 386
#     4  10  24  42  63  98 124 158 210 272 334 385
#
# _framework density 19.719469
#
# number of rings (size 3 to 8) (size 9 to 14) (size 15 to 20)
#    0.000    1.455    4.545    1.091    2.545    2.000 
#    0.000    0.909    0.000    0.273    2.364    0.000 
#    0.000    0.000    0.182    0.000    0.000    0.000 
#
# Total GULP energy -490395.815603 kJ/mol
# GULP energy per Si atom -5572.679723 kJ/mol
# Density = 1.967459 g / cm^3
# Si number density = 19.719469 Si / 1000 Ang^3
#
#
#
# Elastic Constant Matrix: (Units=GPa)
#
#
# Indices 1 2 3 4 5 6 
#
# 1 80.7468 47.8351 17.6391 0.0000 0.0000 0.0000
# 2 47.8351 80.7463 17.6374 0.0000 0.0000 0.0000
# 3 17.6391 17.6374 62.3567 0.0000 0.0000 0.0000
# 4 0.0000 0.0000 0.0000 19.0871 0.0000 0.0000
# 5 0.0000 0.0000 0.0000 0.0000 19.0874 0.0000
# 6 0.0000 0.0000 0.0000 0.0000 0.0000 26.5148
#
#
#
# Elastic Compliance Matrix: (Units=1/GPa)
#
#
# Indices 1 2 3 4 5 6 
#
# 1 0.019408 -0.010977 -0.002385 0.000000 0.000000 0.000000
# 2 -0.010977 0.019408 -0.002385 0.000000 0.000000 0.000000
# 3 -0.002385 -0.002385 0.017386 0.000000 0.000000 0.000000
# 4 0.000000 0.000000 0.000000 0.052391 0.000000 0.000000
# 5 0.000000 0.000000 0.000000 0.000000 0.052391 0.000000
# 6 0.000000 0.000000 0.000000 0.000000 0.000000 0.037715
#
#
# Mechanical properties :
#
#
# Convention : Reuss Voigt Hill
#
# Bulk Modulus (GPa) = 40.47077 43.34145 41.90611
# Shear Modulus (GPa) = 20.97068 22.32040 21.64554
#
# Velocity S-wave (km/s) = 3.26460 3.36802 3.31671
# Velocity P-wave (km/s) = 5.89728 6.09520 5.99706
#
# Compressibility (1/GPa) = 0.02470919
#
# Stress axis : x y z
#
# Youngs Moduli (GPa) = 51.52498 51.52524 57.51766
#
# Poissons Ratio (x) = 0.56557 0.13720
# Poissons Ratio (y) = 0.56557 0.13715
# Poissons Ratio (z) = 0.12290 0.12286
#
# Static dielectric constant tensor:
#      x y z
#    x 1.731890 0.000000 0.000000 
#    y 0.000000 1.731890 0.000000 
#    z 0.000000 0.000000 1.634980 
# 
# From -- ./inp_files/10739.got.cif
#   From: 2010.05.17/outbox.cif.g08.bks.cpg/sg140_6_cif.got.tgz:10739.got - 2010.06.21 00:45:31.
