data_PCOD9572540
_publ_section_title
;
Structure prediction by ZEFSAII (Michael W. Deem and Ramdas Pophale) SiO2 
 PCOD9572540
Probable space group: I 4/M C M
;
_chemical_formula_sum "Si O2"
_cell_formula_units_Z 144
_cell_length_a 18.478911
_cell_length_b 18.478911
_cell_length_c 21.941226
_cell_angle_alpha 90.000000
_cell_angle_beta 90.000000
_cell_angle_gamma 90.000000
_cell_volume 7492.273772
_symmetry_space_group_name_H-M "I 4/M C M"
_symmetry_group_IT_number 140
_symmetry_cell_setting 'tetragonal'
loop_
_space_group_symop_operation_xyz
x,y,z
-y,x,z
-x,-y,z
y,-x,z
x,-y,1/2-z
-x,y,1/2-z
y,x,1/2-z
-y,-x,1/2-z
-x,-y,-z
y,-x,-z
x,y,-z
-y,x,-z
-x,y,1/2+z
x,-y,1/2+z
-y,-x,1/2+z
y,x,1/2+z
1/2+x,1/2+y,1/2+z
1/2-y,1/2+x,1/2+z
1/2-x,1/2-y,1/2+z
1/2+y,1/2-x,1/2+z
1/2+x,1/2-y,-z
1/2-x,1/2+y,-z
1/2+y,1/2+x,-z
1/2-y,1/2-x,-z
1/2-x,1/2-y,1/2-z
1/2+y,1/2-x,1/2-z
1/2+x,1/2+y,1/2-z
1/2-y,1/2+x,1/2-z
1/2-x,1/2+y,z
1/2+x,1/2-y,z
1/2-y,1/2-x,z
1/2+y,1/2+x,z
loop_
_atom_site_type_symbol
_atom_site_label
_atom_site_fract_x
_atom_site_fract_y
_atom_site_fract_z
Si Si1 0.678940 0.653122 0.500000
Si Si2 0.649007 0.491290 0.500000
Si Si3 0.141917 0.641917 0.665568
Si Si4 0.281220 0.995070 0.677007
Si Si5 0.838845 0.338845 0.189040
Si Si6 0.002286 0.114721 0.862045
Si Si7 0.751004 0.251004 0.601718
O O1 0.693845 0.566858 0.500000
O O2 0.593023 0.672330 0.500000
O O3 0.712847 0.689506 0.559806
O O4 0.609885 0.498011 0.435302
O O5 0.166012 0.559264 0.655487
O O6 0.158127 0.658127 0.737376
O O7 0.190539 0.690539 0.621775
O O8 0.314848 0.916912 0.664087
O O9 0.276555 0.000000 0.750000
O O10 0.199248 0.003656 0.653367
O O11 0.782039 0.282039 0.162863
O O12 0.930740 0.072060 0.839668
#
# Coordination Sequence:
#
# PCOD9572540 Si02
#       7
#    16  16  16  32  16  32  16
#     4  11  24  35  60  82 126 151 206 241 280 360
#     4  12  20  37  54  86 110 161 188 236 284 339
#     4  10  22  40  62  86 117 153 200 247 299 358
#     4  10  23  40  61  88 115 157 199 247 303 352
#     4  10  22  40  62  86 117 153 200 247 299 358
#     4  11  22  36  57  86 124 161 194 243 292 364
#     4  11  23  40  54  92 117 159 196 244 302 339
#
# _framework density 19.219799999999999
#
# number of rings (size 3 to 8) (size 9 to 14) (size 15 to 20)
#    0.000    1.333    2.222    3.000    3.111    2.444 
#    0.000    3.333    0.000    0.000    0.000    0.000 
#    0.000   12.444    0.000    0.000    0.000    0.000 
#
# Total GULP energy -401549.823569 kJ/mol
# GULP energy per Si atom -5577.080883 kJ/mol
# Density = 1.917605 g / cm^3
# Si number density = 19.219800 Si / 1000 Ang^3
#
#
#
# Elastic Constant Matrix: (Units=GPa)
#
#
# Indices 1 2 3 4 5 6 
#
# 1 107.9795 51.2952 5.2881 0.0002 -0.0001 0.0000
# 2 51.2952 107.9794 5.2881 0.0003 0.0000 0.0000
# 3 5.2881 5.2881 13.7907 0.0004 0.0000 0.0000
# 4 0.0002 0.0003 0.0004 2712.8174 -0.0058 0.0002
# 5 -0.0001 0.0000 0.0000 -0.0058 2712.7842 0.0000
# 6 0.0000 0.0000 0.0000 0.0002 0.0000 32.5083
#
#
#
# Elastic Compliance Matrix: (Units=1/GPa)
#
#
# Indices 1 2 3 4 5 6 
#
# 1 0.012042 -0.005600 -0.002470 0.000000 0.000000 0.000000
# 2 -0.005600 0.012042 -0.002470 0.000000 0.000000 0.000000
# 3 -0.002470 -0.002470 0.074407 0.000000 0.000000 0.000000
# 4 0.000000 0.000000 0.000000 0.000369 0.000000 0.000000
# 5 0.000000 0.000000 0.000000 0.000000 0.000369 0.000000
# 6 0.000000 0.000000 0.000000 0.000000 0.000000 0.030761
#
#
# Mechanical properties :
#
#
# Convention : Reuss Voigt Hill
#
# Bulk Modulus (GPa) = 12.91810 39.27694 26.09752
# Shear Modulus (GPa) = 28.26863 1102.81386 565.54124
#
# Velocity S-wave (km/s) = 3.83927 23.97991 17.17231
# Velocity P-wave (km/s) = 5.13704 28.05699 20.16909
#
# Compressibility (1/GPa) = 0.07741075
#
# Stress axis : x y z
#
# Youngs Moduli (GPa) = 83.04235 83.04235 13.43952
#
# Poissons Ratio (x) = 0.46500 0.03320
# Poissons Ratio (y) = 0.46500 0.03320
# Poissons Ratio (z) = 0.20515 0.20515
#
# Static dielectric constant tensor:
#      x y z
#    x 1.685860 0.000000 0.000000 
#    y 0.000000 1.685860 0.000000 
#    z 0.000000 0.000000 1.662540 
# 
# From -- ./inp_files/9519.got.cif
#   From: 2010.05.17/outbox.cif.g08.bks.cpg/sg140_5_cif.got.tgz:9519.got - 2010.06.21 00:45:31.
