data_PCOD9572590
_publ_section_title
;
Structure prediction by ZEFSAII (Michael W. Deem and Ramdas Pophale) SiO2 
 PCOD9572590
Probable space group: I 4/M C M
;
_chemical_formula_sum "Si O2"
_cell_formula_units_Z 192
_cell_length_a 17.075818
_cell_length_b 17.075818
_cell_length_c 30.428405
_cell_angle_alpha 90.000000
_cell_angle_beta 90.000000
_cell_angle_gamma 90.000000
_cell_volume 8872.422666
_symmetry_space_group_name_H-M "I 4/M C M"
_symmetry_group_IT_number 140
_symmetry_cell_setting 'tetragonal'
loop_
_space_group_symop_operation_xyz
x,y,z
-y,x,z
-x,-y,z
y,-x,z
x,-y,1/2-z
-x,y,1/2-z
y,x,1/2-z
-y,-x,1/2-z
-x,-y,-z
y,-x,-z
x,y,-z
-y,x,-z
-x,y,1/2+z
x,-y,1/2+z
-y,-x,1/2+z
y,x,1/2+z
1/2+x,1/2+y,1/2+z
1/2-y,1/2+x,1/2+z
1/2-x,1/2-y,1/2+z
1/2+y,1/2-x,1/2+z
1/2+x,1/2-y,-z
1/2-x,1/2+y,-z
1/2+y,1/2+x,-z
1/2-y,1/2-x,-z
1/2-x,1/2-y,1/2-z
1/2+y,1/2-x,1/2-z
1/2+x,1/2+y,1/2-z
1/2-y,1/2+x,1/2-z
1/2-x,1/2+y,z
1/2+x,1/2-y,z
1/2-y,1/2-x,z
1/2+y,1/2+x,z
loop_
_atom_site_type_symbol
_atom_site_label
_atom_site_fract_x
_atom_site_fract_y
_atom_site_fract_z
Si Si1 0.112166 0.942212 0.371896
Si Si2 0.676182 0.950821 0.596255
Si Si3 0.090508 0.590508 0.947705
Si Si4 0.623922 0.750791 0.736791
Si Si5 0.257571 0.027293 0.820253
Si Si6 0.166850 0.891497 0.947657
Si Si7 0.785171 0.285171 0.052552
O O1 0.109298 0.917611 0.423404
O O2 0.032351 0.899720 0.359153
O O3 0.191299 0.923552 0.346680
O O4 0.632651 0.867350 0.599835
O O5 0.684520 0.994299 0.642836
O O6 0.763416 0.942757 0.574725
O O7 0.621228 0.006720 0.567485
O O8 0.153291 0.653291 0.928882
O O9 0.091209 0.591209 0.000000
O O10 0.675303 0.675303 0.750000
O O11 0.684231 0.815770 0.718630
O O12 0.552862 0.730655 0.704304
O O13 0.583108 0.784331 0.780927
O O14 0.194954 0.803552 0.937663
O O15 0.162691 0.905404 0.000000
O O16 0.791820 0.291820 0.000000
#
# Coordination Sequence:
#
# PCOD9572590 Si02
#       7
#    32  32  16  32  32  32  16
#     4  11  23  40  62  95 136 179 227 277 338 410
#     4  12  25  43  68 100 137 181 233 289 344 412
#     4  11  25  44  67  96 135 183 235 287 339 406
#     4  10  23  44  73 103 132 170 221 280 344 425
#     4  11  23  44  68 100 139 173 219 279 351 413
#     4  11  23  41  64  94 136 185 238 293 340 394
#     4   9  20  39  62  88 121 171 230 280 339 386
#
# _framework density 21.640087000000001
#
# number of rings (size 3 to 8) (size 9 to 14) (size 15 to 20)
#    0.000    1.167    2.500    3.250    1.167    2.000 
#    1.500    0.833    0.000    5.000    0.000    0.000 
#    0.000    0.000    0.000    0.000    0.000    0.000 
#
# Total GULP energy -535214.438185 kJ/mol
# GULP energy per Si atom -5575.150398 kJ/mol
# Density = 2.159083 g / cm^3
# Si number density = 21.640087 Si / 1000 Ang^3
#
#
#
# Elastic Constant Matrix: (Units=GPa)
#
#
# Indices 1 2 3 4 5 6 
#
# 1 9.6750 94.7889 30.1048 0.0000 0.0000 0.0000
# 2 94.7889 9.6750 30.1048 0.0000 0.0000 0.0000
# 3 30.1048 30.1048 105.5608 0.0000 0.0000 0.0000
# 4 0.0000 0.0000 0.0000 23.9263 0.0000 0.0000
# 5 0.0000 0.0000 0.0000 0.0000 23.9263 0.0000
# 6 0.0000 0.0000 0.0000 0.0000 0.0000 13.6194
#
#
#
# Elastic Compliance Matrix: (Units=1/GPa)
#
#
# Indices 1 2 3 4 5 6 
#
# 1 -0.000147 0.011602 -0.003267 0.000000 0.000000 0.000000
# 2 0.011602 -0.000147 -0.003267 0.000000 0.000000 0.000000
# 3 -0.003267 -0.003267 0.011337 0.000000 0.000000 0.000000
# 4 0.000000 0.000000 0.000000 0.041795 0.000000 0.000000
# 5 0.000000 0.000000 0.000000 0.000000 0.041795 0.000000
# 6 0.000000 0.000000 0.000000 0.000000 0.000000 0.073424
#
#
# Mechanical properties :
#
#
# Convention : Reuss Voigt Hill
#
# Bulk Modulus (GPa) = 47.21460 48.32311 47.76885
# Shear Modulus (GPa) = 30.30646 10.28856 20.29751
#
# Velocity S-wave (km/s) = 3.74636 2.18282 3.06593
# Velocity P-wave (km/s) = 6.37017 5.36021 5.88689
#
# Compressibility (1/GPa) = 0.02117989
#
# Stress axis : x y z
#
# Youngs Moduli (GPa) = -6819.73642 -6819.73649 88.20932
#
# Poissons Ratio (x) = 79.12486 0.28818
# Poissons Ratio (y) = 79.12486 0.28818
# Poissons Ratio (z) = -22.28039 -22.28039
#
# Static dielectric constant tensor:
#      x y z
#    x 1.777510 0.000000 0.000000 
#    y 0.000000 1.777510 0.000000 
#    z 0.000000 0.000000 1.805790 
# 
# From -- ./inp_files/11648.got.cif
#   From: 2010.05.17/outbox.cif.g08.bks.cpg/sg140_6_cif.got.tgz:11648.got - 2010.06.21 00:45:31.
