data_PCOD9572930
_publ_section_title
;
Structure prediction by ZEFSAII (Michael W. Deem and Ramdas Pophale) SiO2 
 PCOD9572930
Probable space group: I 41/A M D
;
_chemical_formula_sum "Si O2"
_cell_formula_units_Z 104
_cell_length_a 19.191889
_cell_length_b 19.191889
_cell_length_c 16.693070
_cell_angle_alpha 90.000000
_cell_angle_beta 90.000000
_cell_angle_gamma 90.000000
_cell_volume 6148.535159
_symmetry_space_group_name_H-M "I 41/A M D"
_symmetry_group_IT_number 141
_space_group.IT_coordinate_system_code '2'
_symmetry_cell_setting 'tetragonal'
loop_
_space_group_symop_operation_xyz
x,y,z
1/4-y,3/4+x,1/4+z
-x,1/2-y,z
1/4+y,1/4-x,3/4+z
x,-y,-z
-x,1/2+y,-z
1/4+y,3/4+x,1/4-z
1/4-y,1/4-x,3/4-z
-x,-y,-z
3/4+y,1/4-x,3/4-z
x,1/2+y,-z
3/4-y,3/4+x,1/4-z
-x,y,z
x,1/2-y,z
3/4-y,1/4-x,3/4+z
3/4+y,3/4+x,1/4+z
1/2+x,1/2+y,1/2+z
3/4-y,1/4+x,3/4+z
1/2-x,-y,1/2+z
3/4+y,3/4-x,1/4+z
1/2+x,1/2-y,1/2-z
1/2-x,y,1/2-z
3/4+y,1/4+x,3/4-z
3/4-y,3/4-x,1/4-z
1/2-x,1/2-y,1/2-z
1/4+y,3/4-x,1/4-z
1/2+x,y,1/2-z
1/4-y,1/4+x,3/4-z
1/2-x,1/2+y,1/2+z
1/2+x,-y,1/2+z
1/4-y,3/4-x,1/4+z
1/4+y,1/4+x,3/4+z
loop_
_atom_site_type_symbol
_atom_site_label
_atom_site_fract_x
_atom_site_fract_y
_atom_site_fract_z
Si Si1 0.750000 0.573499 0.250000
Si Si2 0.250000 0.139554 0.250000
Si Si3 0.000000 0.598196 0.769034
Si Si4 0.000000 0.250000 0.239146
Si Si5 0.648154 0.750000 0.828661
Si Si6 0.645118 0.034795 0.323815
O O1 0.766705 0.612185 0.332615
O O2 0.682345 0.526955 0.273743
O O3 0.306075 0.184942 0.201538
O O4 0.296311 0.094428 0.310995
O O5 0.000000 0.676114 0.806519
O O6 0.000000 0.608745 0.673487
O O7 0.070635 0.558455 0.791395
O O8 0.072050 0.250000 0.289151
#
# Coordination Sequence:
#
# PCOD9572930 Si02
#       6
#    16  16  16   8  16  32
#     4   9  20  38  56  76 100 137 186 238 270 328
#     4  10  20  33  52  77 106 142 176 222 270 334
#     4  12  22  33  51  78 110 147 177 220 274 332
#     4  12  23  34  50  80 118 147 178 213 266 346
#     4  11  21  33  50  75 111 147 179 210 267 339
#     4  10  20  35  55  77 104 137 183 228 280 322
#
# _framework density 16.914597000000001
#
# number of rings (size 3 to 8) (size 9 to 14) (size 15 to 20)
#    0.000    1.538    3.077    3.231    0.000    3.077 
#    0.000    0.000    0.000    0.000    0.000    0.000 
#    0.000    2.462    0.000    0.000    0.000    0.000 
#
# Total GULP energy -289962.015438 kJ/mol
# GULP energy per Si atom -5576.192605 kJ/mol
# Density = 1.687610 g / cm^3
# Si number density = 16.914597 Si / 1000 Ang^3
#
#
#
# Elastic Constant Matrix: (Units=GPa)
#
#
# Indices 1 2 3 4 5 6 
#
# 1 88.7956 26.5884 12.0128 0.0000 0.0000 0.0000
# 2 26.5884 88.7956 12.0128 0.0000 0.0000 0.0000
# 3 12.0128 12.0128 60.4127 0.0000 0.0000 0.0000
# 4 0.0000 0.0000 0.0000 7.3798 0.0000 0.0000
# 5 0.0000 0.0000 0.0000 0.0000 7.3798 0.0000
# 6 0.0000 0.0000 0.0000 0.0000 0.0000 -56.4958
#
#
#
# Elastic Compliance Matrix: (Units=1/GPa)
#
#
# Indices 1 2 3 4 5 6 
#
# 1 0.012558 -0.003517 -0.001798 0.000000 0.000000 0.000000
# 2 -0.003517 0.012558 -0.001798 0.000000 0.000000 0.000000
# 3 -0.001798 -0.001798 0.017268 0.000000 0.000000 0.000000
# 4 0.000000 0.000000 0.000000 0.135504 0.000000 0.000000
# 5 0.000000 0.000000 0.000000 0.000000 0.135504 0.000000
# 6 0.000000 0.000000 0.000000 0.000000 0.000000 -0.017700
#
#
# Mechanical properties :
#
#
# Convention : Reuss Voigt Hill
#
# Bulk Modulus (GPa) = 35.51289 37.69243 36.60266
# Shear Modulus (GPa) = 15.65907 4.14544 9.90226
#
# Velocity S-wave (km/s) = 3.04595 1.56720 2.42218
# Velocity P-wave (km/s) = 5.78026 5.06035 5.43225
#
# Compressibility (1/GPa) = 0.02815879
#
# Stress axis : x y z
#
# Youngs Moduli (GPa) = 79.62937 79.62937 57.91140
#
# Poissons Ratio (x) = 0.28007 0.10411
# Poissons Ratio (y) = 0.28007 0.10411
# Poissons Ratio (z) = 0.14315 0.14315
#
# Static dielectric constant tensor:
#      x y z
#    x 1.580030 0.000000 0.000000 
#    y 0.000000 1.580030 0.000000 
#    z 0.000000 0.000000 1.551010 
# 
# From -- ./inp_files/6121.got.cif
#   From: 2010.05.17/outbox.cif.g08.bks.cpg/sg141_4_cif.got.tgz:6121.got - 2010.05.20 13:30:51.
