data_PCOD9572363
_publ_section_title
;
Structure prediction by ZEFSAII (Michael W. Deem and Ramdas Pophale) SiO2 
 PCOD9572363
Probable space group: I 4/M C M
;
_chemical_formula_sum "Si O2"
_cell_formula_units_Z 112
_cell_length_a 18.908465
_cell_length_b 18.908465
_cell_length_c 18.542566
_cell_angle_alpha 90.000000
_cell_angle_beta 90.000000
_cell_angle_gamma 90.000000
_cell_volume 6629.524524
_symmetry_space_group_name_H-M "I 4/M C M"
_symmetry_group_IT_number 140
_symmetry_cell_setting 'tetragonal'
loop_
_space_group_symop_operation_xyz
x,y,z
-y,x,z
-x,-y,z
y,-x,z
x,-y,1/2-z
-x,y,1/2-z
y,x,1/2-z
-y,-x,1/2-z
-x,-y,-z
y,-x,-z
x,y,-z
-y,x,-z
-x,y,1/2+z
x,-y,1/2+z
-y,-x,1/2+z
y,x,1/2+z
1/2+x,1/2+y,1/2+z
1/2-y,1/2+x,1/2+z
1/2-x,1/2-y,1/2+z
1/2+y,1/2-x,1/2+z
1/2+x,1/2-y,-z
1/2-x,1/2+y,-z
1/2+y,1/2+x,-z
1/2-y,1/2-x,-z
1/2-x,1/2-y,1/2-z
1/2+y,1/2-x,1/2-z
1/2+x,1/2+y,1/2-z
1/2-y,1/2+x,1/2-z
1/2-x,1/2+y,z
1/2+x,1/2-y,z
1/2-y,1/2-x,z
1/2+y,1/2+x,z
loop_
_atom_site_type_symbol
_atom_site_label
_atom_site_fract_x
_atom_site_fract_y
_atom_site_fract_z
Si Si1 0.440250 0.059751 0.914117
Si Si2 0.797633 0.515446 0.332940
Si Si3 0.757165 0.375482 0.584721
Si Si4 0.338701 0.280380 0.823791
O O1 0.464379 0.132736 0.877874
O O2 0.500000 0.000000 0.902712
O O3 0.431138 0.068863 0.000000
O O4 0.816972 0.500000 0.250000
O O5 0.764465 0.445939 0.368803
O O6 0.743722 0.581197 0.332865
O O7 0.752848 0.390916 0.500000
O O8 0.826632 0.326632 0.597317
O O9 0.691834 0.328273 0.611997
O O10 0.322490 0.322490 0.750000
O O11 0.290403 0.209598 0.820253
#
# Coordination Sequence:
#
# PCOD9572363 Si02
#       4
#    16  32  32  32
#     4  11  26  40  53  84 130 164 195 239 292 360
#     4  12  23  36  62  89 117 157 202 245 295 353
#     4  10  22  39  60  86 122 157 190 241 304 356
#     4  10  20  38  59  85 116 151 202 250 289 344
#
# _framework density 16.894124000000001
#
# number of rings (size 3 to 8) (size 9 to 14) (size 15 to 20)
#    0.000    1.286    4.286    1.714    4.000    4.571 
#    0.000    0.000    0.000    0.857    0.000    2.000 
#    0.000    0.000    0.000    0.000    0.000    0.000 
#
# Total GULP energy -312877.798822 kJ/mol
# GULP energy per Si atom -5587.103550 kJ/mol
# Density = 1.685567 g / cm^3
# Si number density = 16.894124 Si / 1000 Ang^3
#
#
#
# Elastic Constant Matrix: (Units=GPa)
#
#
# Indices 1 2 3 4 5 6 
#
# 1 71.4195 81.3245 63.0785 0.0000 0.0000 0.0000
# 2 81.3245 71.4190 63.0790 0.0000 0.0000 0.0000
# 3 63.0785 63.0790 123.2960 0.0000 0.0000 0.0000
# 4 0.0000 0.0000 0.0000 24.9668 0.0000 0.0000
# 5 0.0000 0.0000 0.0000 0.0000 24.9667 0.0000
# 6 0.0000 0.0000 0.0000 0.0000 0.0000 19.6658
#
#
#
# Elastic Compliance Matrix: (Units=1/GPa)
#
#
# Indices 1 2 3 4 5 6 
#
# 1 -0.044809 0.056148 -0.005801 0.000000 0.000000 0.000000
# 2 0.056148 -0.044810 -0.005800 0.000000 0.000000 0.000000
# 3 -0.005801 -0.005800 0.014046 0.000000 0.000000 0.000000
# 4 0.000000 0.000000 0.000000 0.040053 0.000000 0.000000
# 5 0.000000 0.000000 0.000000 0.000000 0.040053 0.000000
# 6 0.000000 0.000000 0.000000 0.000000 0.000000 0.050850
#
#
# Mechanical properties :
#
#
# Convention : Reuss Voigt Hill
#
# Bulk Modulus (GPa) = 73.96803 75.67761 74.82282
# Shear Modulus (GPa) = -171.20653 17.83003 -76.68825
#
# Velocity S-wave (km/s) = -10.07774 3.25221 -6.74478
# Velocity P-wave (km/s) = 9.56745 7.68082 4.03368
#
# Compressibility (1/GPa) = 0.01351935
#
# Stress axis : x y z
#
# Youngs Moduli (GPa) = -22.31686 -22.31627 71.19661
#
# Poissons Ratio (x) = 1.25300 0.41301
# Poissons Ratio (y) = 1.25304 0.41293
# Poissons Ratio (z) = -0.12946 -0.12943
#
# Static dielectric constant tensor:
#      x y z
#    x 1.548700 0.000000 0.000000 
#    y 0.000000 1.548700 0.000000 
#    z 0.000000 0.000000 1.573360 
# 
# From -- ./inp_files/6069.got.cif
#   From: 2010.05.17/outbox.cif.g08.bks.cpg/sg140_4_cif.got.tgz:6069.got - 2010.06.21 00:45:31.
