data_PCOD9572065
_publ_section_title
;
Structure prediction by ZEFSAII (Michael W. Deem and Ramdas Pophale) SiO2 
 PCOD9572065
Probable space group: I 4/M C M
;
_chemical_formula_sum "Si O2"
_cell_formula_units_Z 112
_cell_length_a 13.269473
_cell_length_b 13.269473
_cell_length_c 32.239882
_cell_angle_alpha 90.000000
_cell_angle_beta 90.000000
_cell_angle_gamma 90.000000
_cell_volume 5676.763400
_symmetry_space_group_name_H-M "I 4/M C M"
_symmetry_group_IT_number 140
_symmetry_cell_setting 'tetragonal'
loop_
_space_group_symop_operation_xyz
x,y,z
-y,x,z
-x,-y,z
y,-x,z
x,-y,1/2-z
-x,y,1/2-z
y,x,1/2-z
-y,-x,1/2-z
-x,-y,-z
y,-x,-z
x,y,-z
-y,x,-z
-x,y,1/2+z
x,-y,1/2+z
-y,-x,1/2+z
y,x,1/2+z
1/2+x,1/2+y,1/2+z
1/2-y,1/2+x,1/2+z
1/2-x,1/2-y,1/2+z
1/2+y,1/2-x,1/2+z
1/2+x,1/2-y,-z
1/2-x,1/2+y,-z
1/2+y,1/2+x,-z
1/2-y,1/2-x,-z
1/2-x,1/2-y,1/2-z
1/2+y,1/2-x,1/2-z
1/2+x,1/2+y,1/2-z
1/2-y,1/2+x,1/2-z
1/2-x,1/2+y,z
1/2+x,1/2-y,z
1/2-y,1/2-x,z
1/2+y,1/2+x,z
loop_
_atom_site_type_symbol
_atom_site_label
_atom_site_fract_x
_atom_site_fract_y
_atom_site_fract_z
Si Si1 0.004462 0.669865 0.000000
Si Si2 0.589848 0.636337 0.343910
Si Si3 0.914029 0.585972 0.649335
Si Si4 0.052461 0.722161 0.411411
Si Si5 0.734619 0.765382 0.798633
O O1 0.992614 0.729754 0.042738
O O2 0.108396 0.608396 0.000000
O O3 0.916415 0.583586 0.000000
O O4 0.472862 0.632526 0.334325
O O5 0.590749 0.674348 0.391228
O O6 0.656988 0.709296 0.317432
O O7 0.834070 0.526224 0.619873
O O8 0.848465 0.651536 0.683487
O O9 0.000000 0.500000 0.662309
O O10 0.146974 0.646974 0.413652
O O11 0.750000 0.750000 0.750000
#
# Coordination Sequence:
#
# PCOD9572065 Si02
#       5
#    16  32  16  32  16
#     4   9  16  28  56 103 138 169 227 293 337 398
#     4  11  24  43  67  93 131 181 219 269 344 423
#     4  10  20  39  70  98 131 172 224 287 350 401
#     4  10  18  35  65  96 135 178 223 280 346 402
#     4  12  26  46  73  99 131 173 233 290 352 425
#
# _framework density 19.729552000000002
#
# number of rings (size 3 to 8) (size 9 to 14) (size 15 to 20)
#    0.000    1.571    5.714    0.000    0.000    1.143 
#    0.000    2.857    3.143    3.429    0.000    0.000 
#    0.000    0.000    0.000    0.000    0.000    0.000 
#
# Total GULP energy -312001.682746 kJ/mol
# GULP energy per Si atom -5571.458620 kJ/mol
# Density = 1.968465 g / cm^3
# Si number density = 19.729552 Si / 1000 Ang^3
#
#
#
# Elastic Constant Matrix: (Units=GPa)
#
#
# Indices 1 2 3 4 5 6 
#
# 1 101.3940 31.9101 53.9412 0.0000 0.0000 0.0000
# 2 31.9101 101.3940 53.9415 0.0000 0.0000 0.0000
# 3 53.9412 53.9415 147.1877 0.0000 0.0000 0.0000
# 4 0.0000 0.0000 0.0000 -43.9024 0.0000 0.0000
# 5 0.0000 0.0000 0.0000 0.0000 -43.9029 0.0000
# 6 0.0000 0.0000 0.0000 0.0000 0.0000 4.7358
#
#
#
# Elastic Compliance Matrix: (Units=1/GPa)
#
#
# Indices 1 2 3 4 5 6 
#
# 1 0.012528 -0.001864 -0.003908 0.000000 0.000000 0.000000
# 2 -0.001864 0.012528 -0.003908 0.000000 0.000000 0.000000
# 3 -0.003908 -0.003908 0.009659 0.000000 0.000000 0.000000
# 4 0.000000 0.000000 0.000000 -0.022778 0.000000 0.000000
# 5 0.000000 0.000000 0.000000 0.000000 -0.022778 0.000000
# 6 0.000000 0.000000 0.000000 0.000000 0.000000 0.211156
#
#
# Mechanical properties :
#
#
# Convention : Reuss Voigt Hill
#
# Bulk Modulus (GPa) = 65.12727 69.95125 67.53926
# Shear Modulus (GPa) = 22.24251 -2.60169 9.82041
#
# Velocity S-wave (km/s) = 3.36128 -1.14958 2.23345
# Velocity P-wave (km/s) = 6.93873 5.81119 6.39984
#
# Compressibility (1/GPa) = 0.01535455
#
# Stress axis : x y z
#
# Youngs Moduli (GPa) = 79.81965 79.81942 103.53308
#
# Poissons Ratio (x) = 0.14875 0.40465
# Poissons Ratio (y) = 0.14875 0.40465
# Poissons Ratio (z) = 0.31197 0.31197
#
# Static dielectric constant tensor:
#      x y z
#    x 1.722730 0.000000 0.000000 
#    y 0.000000 1.722730 0.000000 
#    z 0.000000 0.000000 1.705330 
# 
# From -- ./inp_files/10297.got.cif
#   From: 2010.05.17/outbox.cif.g08.bks.cpg/sg140_6_cif.got.tgz:10297.got - 2010.06.21 00:45:31.
