data_PCOD9572151
_publ_section_title
;
Structure prediction by ZEFSAII (Michael W. Deem and Ramdas Pophale) SiO2 
 PCOD9572151
Probable space group: I 4/M C M
;
_chemical_formula_sum "Si O2"
_cell_formula_units_Z 176
_cell_length_a 24.429537
_cell_length_b 24.429537
_cell_length_c 15.790867
_cell_angle_alpha 90.000000
_cell_angle_beta 90.000000
_cell_angle_gamma 90.000000
_cell_volume 9424.025398
_symmetry_space_group_name_H-M "I 4/M C M"
_symmetry_group_IT_number 140
_symmetry_cell_setting 'tetragonal'
loop_
_space_group_symop_operation_xyz
x,y,z
-y,x,z
-x,-y,z
y,-x,z
x,-y,1/2-z
-x,y,1/2-z
y,x,1/2-z
-y,-x,1/2-z
-x,-y,-z
y,-x,-z
x,y,-z
-y,x,-z
-x,y,1/2+z
x,-y,1/2+z
-y,-x,1/2+z
y,x,1/2+z
1/2+x,1/2+y,1/2+z
1/2-y,1/2+x,1/2+z
1/2-x,1/2-y,1/2+z
1/2+y,1/2-x,1/2+z
1/2+x,1/2-y,-z
1/2-x,1/2+y,-z
1/2+y,1/2+x,-z
1/2-y,1/2-x,-z
1/2-x,1/2-y,1/2-z
1/2+y,1/2-x,1/2-z
1/2+x,1/2+y,1/2-z
1/2-y,1/2+x,1/2-z
1/2-x,1/2+y,z
1/2+x,1/2-y,z
1/2-y,1/2-x,z
1/2+y,1/2+x,z
loop_
_atom_site_type_symbol
_atom_site_label
_atom_site_fract_x
_atom_site_fract_y
_atom_site_fract_z
Si Si1 0.128457 0.716112 0.716133
Si Si2 0.847492 0.743479 0.405545
Si Si3 0.073789 0.047770 0.601843
Si Si4 0.091907 0.502602 0.000000
Si Si5 0.664106 0.365845 0.345582
Si Si6 0.371925 0.960947 0.828402
O O1 0.188241 0.688241 0.705447
O O2 0.122165 0.724925 0.818356
O O3 0.122173 0.771884 0.664754
O O4 0.084844 0.674127 0.679196
O O5 0.870864 0.731062 0.500000
O O6 0.789703 0.710298 0.402336
O O7 0.842118 0.809043 0.396788
O O8 0.071440 0.045866 0.500000
O O9 0.125645 0.084918 0.624062
O O10 0.015690 0.073882 0.631625
O O11 0.126905 0.493395 0.916042
O O12 0.045338 0.454663 0.000000
O O13 0.059556 0.559556 0.000000
O O14 0.646191 0.353810 0.250000
O O15 0.429739 0.929739 0.820536
O O16 0.364918 0.000000 0.750000
#
# Coordination Sequence:
#
# PCOD9572151 Si02
#       6
#    32  32  32  16  32  32
#     4   9  19  36  54  78 119 155 183 234 294 344
#     4   9  17  32  55  82 109 144 193 235 276 342
#     4   9  19  37  57  77 105 139 179 232 286 333
#     4   9  18  34  58  86 112 144 198 251 284 338
#     4  10  19  33  54  81 108 146 186 228 281 345
#     4  10  20  37  58  83 116 154 195 240 294 347
#
# _framework density 18.675671999999999
#
# number of rings (size 3 to 8) (size 9 to 14) (size 15 to 20)
#    0.000    2.636    0.000    2.182    0.000    3.818 
#   11.455    0.909    0.000    0.000    0.000    0.000 
#    0.000    0.000    0.000    0.000    0.000    0.000 
#
# Total GULP energy -490175.677279 kJ/mol
# GULP energy per Si atom -5570.178151 kJ/mol
# Density = 1.863317 g / cm^3
# Si number density = 18.675672 Si / 1000 Ang^3
#
#
#
# Elastic Constant Matrix: (Units=GPa)
#
#
# Indices 1 2 3 4 5 6 
#
# 1 77.2557 54.3770 36.1686 0.0000 0.0000 0.0000
# 2 54.3770 77.2552 36.1688 0.0000 0.0000 0.0000
# 3 36.1686 36.1688 85.4471 0.0000 0.0000 0.0000
# 4 0.0000 0.0000 0.0000 27.8459 0.0000 0.0000
# 5 0.0000 0.0000 0.0000 0.0000 27.8452 0.0000
# 6 0.0000 0.0000 0.0000 0.0000 0.0000 20.3816
#
#
#
# Elastic Compliance Matrix: (Units=1/GPa)
#
#
# Indices 1 2 3 4 5 6 
#
# 1 0.026804 -0.016905 -0.004190 0.000000 0.000000 0.000000
# 2 -0.016905 0.026805 -0.004191 0.000000 0.000000 0.000000
# 3 -0.004190 -0.004191 0.015251 0.000000 0.000000 0.000000
# 4 0.000000 0.000000 0.000000 0.035912 0.000000 0.000000
# 5 0.000000 0.000000 0.000000 0.000000 0.035913 0.000000
# 6 0.000000 0.000000 0.000000 0.000000 0.000000 0.049064
#
#
# Mechanical properties :
#
#
# Convention : Reuss Voigt Hill
#
# Bulk Modulus (GPa) = 54.67951 54.82076 54.75013
# Shear Modulus (GPa) = 20.29090 22.76410 21.52750
#
# Velocity S-wave (km/s) = 3.29977 3.49509 3.39883
# Velocity P-wave (km/s) = 6.62269 6.76057 6.69199
#
# Compressibility (1/GPa) = 0.01828839
#
# Stress axis : x y z
#
# Youngs Moduli (GPa) = 37.30730 37.30693 65.57089
#
# Poissons Ratio (x) = 0.63067 0.27476
# Poissons Ratio (y) = 0.63067 0.27478
# Poissons Ratio (z) = 0.15633 0.15634
#
# Static dielectric constant tensor:
#      x y z
#    x 1.665650 0.000000 0.000000 
#    y 0.000000 1.665650 0.000000 
#    z 0.000000 0.000000 1.658450 
# 
# From -- ./inp_files/4927.got.cif
#   From: 2010.05.17/outbox.cif.g08.bks.cpg/sg140_3_cif.got.tgz:4927.got - 2010.06.21 00:45:31.
