data_PCOD9572267
_publ_section_title
;
Structure prediction by ZEFSAII (Michael W. Deem and Ramdas Pophale) SiO2 
 PCOD9572267
Probable space group: I 4/M C M
;
_chemical_formula_sum "Si O2"
_cell_formula_units_Z 160
_cell_length_a 20.727673
_cell_length_b 20.727673
_cell_length_c 20.790361
_cell_angle_alpha 90.000000
_cell_angle_beta 90.000000
_cell_angle_gamma 90.000000
_cell_volume 8932.296437
_symmetry_space_group_name_H-M "I 4/M C M"
_symmetry_group_IT_number 140
_symmetry_cell_setting 'tetragonal'
loop_
_space_group_symop_operation_xyz
x,y,z
-y,x,z
-x,-y,z
y,-x,z
x,-y,1/2-z
-x,y,1/2-z
y,x,1/2-z
-y,-x,1/2-z
-x,-y,-z
y,-x,-z
x,y,-z
-y,x,-z
-x,y,1/2+z
x,-y,1/2+z
-y,-x,1/2+z
y,x,1/2+z
1/2+x,1/2+y,1/2+z
1/2-y,1/2+x,1/2+z
1/2-x,1/2-y,1/2+z
1/2+y,1/2-x,1/2+z
1/2+x,1/2-y,-z
1/2-x,1/2+y,-z
1/2+y,1/2+x,-z
1/2-y,1/2-x,-z
1/2-x,1/2-y,1/2-z
1/2+y,1/2-x,1/2-z
1/2+x,1/2+y,1/2-z
1/2-y,1/2+x,1/2-z
1/2-x,1/2+y,z
1/2+x,1/2-y,z
1/2-y,1/2-x,z
1/2+y,1/2+x,z
loop_
_atom_site_type_symbol
_atom_site_label
_atom_site_fract_x
_atom_site_fract_y
_atom_site_fract_z
Si Si1 0.257834 0.648097 0.185020
Si Si2 0.601808 0.485605 0.326870
Si Si3 0.184338 0.422422 0.573803
Si Si4 0.426124 0.177381 0.573889
Si Si5 0.104609 0.216900 0.175688
O O1 0.207975 0.707975 0.193944
O O2 0.233524 0.606886 0.125025
O O3 0.259376 0.606040 0.250304
O O4 0.329289 0.675648 0.172612
O O5 0.570545 0.552456 0.350256
O O6 0.599592 0.500000 0.250000
O O7 0.672165 0.457376 0.339164
O O8 0.206937 0.413977 0.500000
O O9 0.118670 0.381331 0.580398
O O10 0.173240 0.497717 0.585160
O O11 0.416050 0.199854 0.500000
O O12 0.391082 0.108919 0.579888
O O13 0.395165 0.225844 0.624917
#
# Coordination Sequence:
#
# PCOD9572267 Si02
#       5
#    32  32  32  32  32
#     4  10  20  34  52  82 112 141 179 217 267 324
#     4   9  18  31  48  76 109 140 178 217 255 312
#     4   9  20  38  58  80 108 143 182 224 269 324
#     4  10  22  38  56  80 108 141 182 227 277 327
#     4  11  21  32  57  80 113 143 177 224 270 316
#
# _framework density 17.912526
#
# number of rings (size 3 to 8) (size 9 to 14) (size 15 to 20)
#    0.000    2.200    0.000    5.400    5.600    1.200 
#    0.000    4.000    0.000    0.000    0.000    4.200 
#    0.000    0.000    0.000    0.000    0.000    0.000 
#
# Total GULP energy -445908.429185 kJ/mol
# GULP energy per Si atom -5573.855365 kJ/mol
# Density = 1.787176 g / cm^3
# Si number density = 17.912526 Si / 1000 Ang^3
#
#
#
# Elastic Constant Matrix: (Units=GPa)
#
#
# Indices 1 2 3 4 5 6 
#
# 1 71.1723 22.8687 50.2137 0.0000 0.0000 0.0000
# 2 22.8687 71.1723 50.2137 0.0000 0.0000 0.0000
# 3 50.2137 50.2137 101.0525 0.0000 0.0000 0.0000
# 4 0.0000 0.0000 0.0000 25.3059 0.0000 0.0000
# 5 0.0000 0.0000 0.0000 0.0000 25.3059 0.0000
# 6 0.0000 0.0000 0.0000 0.0000 0.0000 24.8687
#
#
#
# Elastic Compliance Matrix: (Units=1/GPa)
#
#
# Indices 1 2 3 4 5 6 
#
# 1 0.021679 0.000977 -0.011258 0.000000 0.000000 0.000000
# 2 0.000977 0.021679 -0.011258 0.000000 0.000000 0.000000
# 3 -0.011258 -0.011258 0.021084 0.000000 0.000000 0.000000
# 4 0.000000 0.000000 0.000000 0.039516 0.000000 0.000000
# 5 0.000000 0.000000 0.000000 0.000000 0.039516 0.000000
# 6 0.000000 0.000000 0.000000 0.000000 0.000000 0.040211
#
#
# Mechanical properties :
#
#
# Convention : Reuss Voigt Hill
#
# Bulk Modulus (GPa) = 46.80649 54.44328 50.62488
# Shear Modulus (GPa) = 21.37784 23.10283 22.24034
#
# Velocity S-wave (km/s) = 3.45839 3.59522 3.52747
# Velocity P-wave (km/s) = 6.49112 6.90609 6.70182
#
# Compressibility (1/GPa) = 0.02136456
#
# Stress axis : x y z
#
# Youngs Moduli (GPa) = 46.12690 46.12690 47.42868
#
# Poissons Ratio (x) = -0.04506 0.53396
# Poissons Ratio (y) = -0.04506 0.53396
# Poissons Ratio (z) = 0.51930 0.51930
#
# Static dielectric constant tensor:
#      x y z
#    x 1.621030 0.000000 0.000000 
#    y 0.000000 1.621030 0.000000 
#    z 0.000000 0.000000 1.599660 
# 
# From -- ./inp_files/6800.got.cif
#   From: 2010.05.17/outbox.cif.g08.bks.cpg/sg140_4_cif.got.tgz:6800.got - 2010.06.21 00:45:31.
