data_PCOD9572880
_publ_section_title
;
Structure prediction by ZEFSAII (Michael W. Deem and Ramdas Pophale) SiO2 
 PCOD9572880
Probable space group: I 41/A M D
;
_chemical_formula_sum "Si O2"
_cell_formula_units_Z 128
_cell_length_a 19.656049
_cell_length_b 19.656049
_cell_length_c 14.546368
_cell_angle_alpha 90.000000
_cell_angle_beta 90.000000
_cell_angle_gamma 90.000000
_cell_volume 5620.138556
_symmetry_space_group_name_H-M "I 41/A M D"
_symmetry_group_IT_number 141
_space_group.IT_coordinate_system_code '2'
_symmetry_cell_setting 'tetragonal'
loop_
_space_group_symop_operation_xyz
x,y,z
1/4-y,3/4+x,1/4+z
-x,1/2-y,z
1/4+y,1/4-x,3/4+z
x,-y,-z
-x,1/2+y,-z
1/4+y,3/4+x,1/4-z
1/4-y,1/4-x,3/4-z
-x,-y,-z
3/4+y,1/4-x,3/4-z
x,1/2+y,-z
3/4-y,3/4+x,1/4-z
-x,y,z
x,1/2-y,z
3/4-y,1/4-x,3/4+z
3/4+y,3/4+x,1/4+z
1/2+x,1/2+y,1/2+z
3/4-y,1/4+x,3/4+z
1/2-x,-y,1/2+z
3/4+y,3/4-x,1/4+z
1/2+x,1/2-y,1/2-z
1/2-x,y,1/2-z
3/4+y,1/4+x,3/4-z
3/4-y,3/4-x,1/4-z
1/2-x,1/2-y,1/2-z
1/4+y,3/4-x,1/4-z
1/2+x,y,1/2-z
1/4-y,1/4+x,3/4-z
1/2-x,1/2+y,1/2+z
1/2+x,-y,1/2+z
1/4-y,3/4-x,1/4+z
1/4+y,1/4+x,3/4+z
loop_
_atom_site_type_symbol
_atom_site_label
_atom_site_fract_x
_atom_site_fract_y
_atom_site_fract_z
Si Si1 0.724222 0.250000 0.596105
Si Si2 0.500000 0.985582 0.121318
Si Si3 0.625630 0.600707 0.125921
Si Si4 0.609130 0.250000 0.096878
Si Si5 0.500000 0.371441 0.372979
Si Si6 0.773479 0.893978 0.063373
O O1 0.728110 0.250000 0.483822
O O2 0.798020 0.250000 0.643612
O O3 0.697191 0.174434 0.613765
O O4 0.433785 0.946109 0.086207
O O5 0.500000 0.933885 0.889641
O O6 0.596532 0.675470 0.153182
O O7 0.691556 0.612202 0.061332
O O8 0.649419 0.559942 0.216114
O O9 0.565792 0.315792 0.125000
O O10 0.613116 0.250000 0.986834
O O11 0.792654 0.957347 0.125000
#
# Coordination Sequence:
#
# PCOD9572880 Si02
#       6
#    16  16  32  16  16  32
#     4   7  16  34  53  76 114 153 194 244 303 381
#     4   9  19  37  59  85 120 163 204 255 322 381
#     4  10  21  38  62  91 125 167 212 264 328 398
#     4  10  22  41  63  90 126 170 217 263 314 390
#     4   9  19  39  61  84 119 161 203 255 311 377
#     4  10  19  34  58  90 123 162 211 268 326 386
#
# _framework density 22.775238000000002
#
# number of rings (size 3 to 8) (size 9 to 14) (size 15 to 20)
#    0.000    2.625    0.000    2.250    0.000    4.500 
#    0.000   11.250    0.000    1.875    0.000    0.000 
#    0.000    0.000    0.000    0.000    0.000    0.000 
#
# Total GULP energy -356947.015458 kJ/mol
# GULP energy per Si atom -5577.297117 kJ/mol
# Density = 2.272340 g / cm^3
# Si number density = 22.775238 Si / 1000 Ang^3
#
#
#
# Elastic Constant Matrix: (Units=GPa)
#
#
# Indices 1 2 3 4 5 6 
#
# 1 155.2100 57.9178 22.4175 0.0000 0.0000 0.0000
# 2 57.9178 155.2076 22.4158 0.0000 0.0000 0.0000
# 3 22.4175 22.4158 46.6406 0.0000 0.0000 0.0000
# 4 0.0000 0.0000 0.0000 20.9819 0.0000 0.0000
# 5 0.0000 0.0000 0.0000 0.0000 20.9825 0.0000
# 6 0.0000 0.0000 0.0000 0.0000 0.0000 28.0406
#
#
#
# Elastic Compliance Matrix: (Units=1/GPa)
#
#
# Indices 1 2 3 4 5 6 
#
# 1 0.007749 -0.002529 -0.002509 0.000000 0.000000 0.000000
# 2 -0.002529 0.007749 -0.002509 0.000000 0.000000 0.000000
# 3 -0.002509 -0.002509 0.023852 0.000000 0.000000 0.000000
# 4 0.000000 0.000000 0.000000 0.047660 0.000000 0.000000
# 5 0.000000 0.000000 0.000000 0.000000 0.047659 0.000000
# 6 0.000000 0.000000 0.000000 0.000000 0.000000 0.035663
#
#
# Mechanical properties :
#
#
# Convention : Reuss Voigt Hill
#
# Bulk Modulus (GPa) = 41.22583 62.50671 51.86627
# Shear Modulus (GPa) = 25.83831 30.95480 28.39655
#
# Velocity S-wave (km/s) = 3.37188 3.69065 3.53486
# Velocity P-wave (km/s) = 5.77060 6.75765 6.28354
#
# Compressibility (1/GPa) = 0.02425664
#
# Stress axis : x y z
#
# Youngs Moduli (GPa) = 129.04733 129.04664 41.92498
#
# Poissons Ratio (x) = 0.32640 0.10519
# Poissons Ratio (y) = 0.32640 0.10517
# Poissons Ratio (z) = 0.32377 0.32373
#
# Static dielectric constant tensor:
#      x y z
#    x 1.891290 0.000000 0.000000 
#    y 0.000000 1.891300 0.000000 
#    z 0.000000 0.000000 1.865190 
# 
# From -- ./inp_files/6289.got.cif
#   From: 2010.05.17/outbox.cif.g08.bks.cpg/sg141_4_cif.got.tgz:6289.got - 2010.05.20 13:30:51.
