data_PCOD9572410
_publ_section_title
;
Structure prediction by ZEFSAII (Michael W. Deem and Ramdas Pophale) SiO2 
 PCOD9572410
Probable space group: I 4/M C M
;
_chemical_formula_sum "Si O2"
_cell_formula_units_Z 160
_cell_length_a 28.929435
_cell_length_b 28.929435
_cell_length_c 9.896494
_cell_angle_alpha 90.000000
_cell_angle_beta 90.000000
_cell_angle_gamma 90.000000
_cell_volume 8282.496659
_symmetry_space_group_name_H-M "I 4/M C M"
_symmetry_group_IT_number 140
_symmetry_cell_setting 'tetragonal'
loop_
_space_group_symop_operation_xyz
x,y,z
-y,x,z
-x,-y,z
y,-x,z
x,-y,1/2-z
-x,y,1/2-z
y,x,1/2-z
-y,-x,1/2-z
-x,-y,-z
y,-x,-z
x,y,-z
-y,x,-z
-x,y,1/2+z
x,-y,1/2+z
-y,-x,1/2+z
y,x,1/2+z
1/2+x,1/2+y,1/2+z
1/2-y,1/2+x,1/2+z
1/2-x,1/2-y,1/2+z
1/2+y,1/2-x,1/2+z
1/2+x,1/2-y,-z
1/2-x,1/2+y,-z
1/2+y,1/2+x,-z
1/2-y,1/2-x,-z
1/2-x,1/2-y,1/2-z
1/2+y,1/2-x,1/2-z
1/2+x,1/2+y,1/2-z
1/2-y,1/2+x,1/2-z
1/2-x,1/2+y,z
1/2+x,1/2-y,z
1/2-y,1/2-x,z
1/2+y,1/2+x,z
loop_
_atom_site_type_symbol
_atom_site_label
_atom_site_fract_x
_atom_site_fract_y
_atom_site_fract_z
Si Si1 0.606817 0.893184 0.845144
Si Si2 0.538990 0.183085 0.649817
Si Si3 0.645937 0.500000 0.750000
Si Si4 0.253680 0.680230 0.837398
Si Si5 0.953705 0.453705 0.665646
Si Si6 0.424062 0.284079 0.842364
Si Si7 0.922210 0.995819 0.500000
O O1 0.588971 0.841106 0.837521
O O2 0.583134 0.916867 0.716248
O O3 0.591548 0.908453 0.000000
O O4 0.500000 0.165993 0.750000
O O5 0.521869 0.172415 0.500000
O O6 0.546342 0.237215 0.664118
O O7 0.677562 0.453940 0.764980
O O8 0.611857 0.494854 0.625416
O O9 0.287172 0.712829 0.750000
O O10 0.201942 0.701942 0.814235
O O11 0.268046 0.627611 0.800338
O O12 0.261155 0.684270 0.000000
O O13 0.940603 0.500000 0.750000
O O14 0.958279 0.458279 0.500000
O O15 0.421217 0.298539 0.000000
O O16 0.958013 0.953366 0.500000
#
# Coordination Sequence:
#
# PCOD9572410 Si02
#       7
#    16  32  16  32  16  32  16
#     4  10  21  35  54  82 106 147 197 243 308 371
#     4  10  21  37  58  81 114 152 198 251 303 362
#     4  12  22  43  68  96 132 174 215 266 314 382
#     4   9  19  37  61  89 124 163 206 257 309 365
#     4  11  21  34  53  74 106 141 183 243 305 375
#     4  10  21  39  61  90 123 163 213 255 308 369
#     4  11  26  46  70 100 134 170 210 258 319 382
#
# _framework density 19.317847
#
# number of rings (size 3 to 8) (size 9 to 14) (size 15 to 20)
#    0.000    1.800    2.000    2.400    1.400    4.800 
#    1.800    0.000    0.000    0.000    0.000    0.000 
#    0.000    0.000    0.000    0.000    0.000    0.000 
#
# Total GULP energy -445365.016096 kJ/mol
# GULP energy per Si atom -5567.062701 kJ/mol
# Density = 1.927388 g / cm^3
# Si number density = 19.317847 Si / 1000 Ang^3
#
#
#
# Elastic Constant Matrix: (Units=GPa)
#
#
# Indices 1 2 3 4 5 6 
#
# 1 120.7413 53.7142 58.7377 0.0000 0.0000 0.0000
# 2 53.7142 120.7408 58.7374 0.0000 0.0000 0.0000
# 3 58.7377 58.7374 115.3508 0.0000 0.0000 0.0000
# 4 0.0000 0.0000 0.0000 13.8813 0.0000 0.0000
# 5 0.0000 0.0000 0.0000 0.0000 13.8823 0.0000
# 6 0.0000 0.0000 0.0000 0.0000 0.0000 19.9776
#
#
#
# Elastic Compliance Matrix: (Units=1/GPa)
#
#
# Indices 1 2 3 4 5 6 
#
# 1 0.011821 -0.003098 -0.004442 0.000000 0.000000 0.000000
# 2 -0.003098 0.011821 -0.004442 0.000000 0.000000 0.000000
# 3 -0.004442 -0.004442 0.013193 0.000000 0.000000 0.000000
# 4 0.000000 0.000000 0.000000 0.072039 0.000000 0.000000
# 5 0.000000 0.000000 0.000000 0.000000 0.072034 0.000000
# 6 0.000000 0.000000 0.000000 0.000000 0.000000 0.050056
#
#
# Mechanical properties :
#
#
# Convention : Reuss Voigt Hill
#
# Bulk Modulus (GPa) = 77.68999 77.69017 77.69008
# Shear Modulus (GPa) = 19.28864 21.92447 20.60655
#
# Velocity S-wave (km/s) = 3.16331 3.37253 3.26960
# Velocity P-wave (km/s) = 7.32435 7.44778 7.38632
#
# Compressibility (1/GPa) = 0.01287167
#
# Stress axis : x y z
#
# Youngs Moduli (GPa) = 84.59290 84.59276 75.79794
#
# Poissons Ratio (x) = 0.26207 0.33669
# Poissons Ratio (y) = 0.26207 0.33669
# Poissons Ratio (z) = 0.37576 0.37576
#
# Static dielectric constant tensor:
#      x y z
#    x 1.701940 0.000000 0.000000 
#    y 0.000000 1.701940 0.000000 
#    z 0.000000 0.000000 1.657150 
# 
# From -- ./inp_files/1901.got.cif
#   From: 2010.05.17/outbox.cif.g08.bks.cpg/sg140_1_cif.got.tgz:1901.got - 2010.06.21 00:45:31.
