data_PCOD9572351
_publ_section_title
;
Structure prediction by ZEFSAII (Michael W. Deem and Ramdas Pophale) SiO2 
 PCOD9572351
Probable space group: I 4/M C M
;
_chemical_formula_sum "Si O2"
_cell_formula_units_Z 144
_cell_length_a 20.490535
_cell_length_b 20.490535
_cell_length_c 18.678707
_cell_angle_alpha 90.000000
_cell_angle_beta 90.000000
_cell_angle_gamma 90.000000
_cell_volume 7842.479738
_symmetry_space_group_name_H-M "I 4/M C M"
_symmetry_group_IT_number 140
_symmetry_cell_setting 'tetragonal'
loop_
_space_group_symop_operation_xyz
x,y,z
-y,x,z
-x,-y,z
y,-x,z
x,-y,1/2-z
-x,y,1/2-z
y,x,1/2-z
-y,-x,1/2-z
-x,-y,-z
y,-x,-z
x,y,-z
-y,x,-z
-x,y,1/2+z
x,-y,1/2+z
-y,-x,1/2+z
y,x,1/2+z
1/2+x,1/2+y,1/2+z
1/2-y,1/2+x,1/2+z
1/2-x,1/2-y,1/2+z
1/2+y,1/2-x,1/2+z
1/2+x,1/2-y,-z
1/2-x,1/2+y,-z
1/2+y,1/2+x,-z
1/2-y,1/2-x,-z
1/2-x,1/2-y,1/2-z
1/2+y,1/2-x,1/2-z
1/2+x,1/2+y,1/2-z
1/2-y,1/2+x,1/2-z
1/2-x,1/2+y,z
1/2+x,1/2-y,z
1/2-y,1/2-x,z
1/2+y,1/2+x,z
loop_
_atom_site_type_symbol
_atom_site_label
_atom_site_fract_x
_atom_site_fract_y
_atom_site_fract_z
Si Si1 0.468911 0.665746 0.418123
Si Si2 0.803958 0.522960 0.361506
Si Si3 0.052309 0.552309 0.085030
Si Si4 0.608692 0.781902 0.279234
Si Si5 0.404086 0.634626 0.825050
O O1 0.475942 0.642519 0.500000
O O2 0.472295 0.744069 0.415928
O O3 0.526600 0.641832 0.365026
O O4 0.402340 0.641675 0.381444
O O5 0.874705 0.537229 0.391072
O O6 0.805796 0.449682 0.330580
O O7 0.786292 0.574397 0.298502
O O8 0.000000 0.500000 0.114941
O O9 0.049039 0.549039 0.000000
O O10 0.671657 0.828344 0.282605
O O11 0.619915 0.706997 0.302325
O O12 0.404610 0.595391 0.750000
#
# Coordination Sequence:
#
# PCOD9572351 Si02
#       5
#    32  32  16  32  32
#     4  11  23  41  63  88 123 161 202 250 312 374
#     4  10  20  37  59  87 123 162 204 252 307 357
#     4  11  22  36  56  87 126 168 210 251 300 359
#     4  10  20  37  61  89 122 159 203 253 304 359
#     4  11  22  40  64  91 121 156 203 253 309 368
#
# _framework density 18.361539
#
# number of rings (size 3 to 8) (size 9 to 14) (size 15 to 20)
#    0.000    1.444    3.333    2.667    0.000    0.889 
#    2.000    2.222    0.000   12.667    0.000    0.000 
#    0.000    0.000    0.000    0.000    0.000    0.000 
#
# Total GULP energy -401752.763612 kJ/mol
# GULP energy per Si atom -5579.899495 kJ/mol
# Density = 1.831975 g / cm^3
# Si number density = 18.361539 Si / 1000 Ang^3
#
#
#
# Elastic Constant Matrix: (Units=GPa)
#
#
# Indices 1 2 3 4 5 6 
#
# 1 100.6965 66.7010 52.9645 0.0000 0.0000 0.0000
# 2 66.7010 100.6974 52.9648 0.0000 0.0000 0.0000
# 3 52.9645 52.9648 121.7323 0.0000 0.0000 0.0000
# 4 0.0000 0.0000 0.0000 15.1791 0.0000 0.0000
# 5 0.0000 0.0000 0.0000 0.0000 15.1792 0.0000
# 6 0.0000 0.0000 0.0000 0.0000 0.0000 35.0521
#
#
#
# Elastic Compliance Matrix: (Units=1/GPa)
#
#
# Indices 1 2 3 4 5 6 
#
# 1 0.018829 -0.010586 -0.003587 0.000000 0.000000 0.000000
# 2 -0.010586 0.018829 -0.003587 0.000000 0.000000 0.000000
# 3 -0.003587 -0.003587 0.011336 0.000000 0.000000 0.000000
# 4 0.000000 0.000000 0.000000 0.065880 0.000000 0.000000
# 5 0.000000 0.000000 0.000000 0.000000 0.065880 0.000000
# 6 0.000000 0.000000 0.000000 0.000000 0.000000 0.028529
#
#
# Mechanical properties :
#
#
# Convention : Reuss Voigt Hill
#
# Bulk Modulus (GPa) = 74.20571 74.26520 74.23545
# Shear Modulus (GPa) = 20.05666 23.11513 21.58589
#
# Velocity S-wave (km/s) = 3.30861 3.55193 3.43243
# Velocity P-wave (km/s) = 7.42275 7.57334 7.49843
#
# Compressibility (1/GPa) = 0.01347605
#
# Stress axis : x y z
#
# Youngs Moduli (GPa) = 53.10840 53.10878 88.21632
#
# Poissons Ratio (x) = 0.56221 0.31640
# Poissons Ratio (y) = 0.56220 0.31640
# Poissons Ratio (z) = 0.19048 0.19048
#
# Static dielectric constant tensor:
#      x y z
#    x 1.629540 0.000000 0.000000 
#    y 0.000000 1.629540 0.000000 
#    z 0.000000 0.000000 1.633310 
# 
# From -- ./inp_files/6680.got.cif
#   From: 2010.05.17/outbox.cif.g08.bks.cpg/sg140_4_cif.got.tgz:6680.got - 2010.06.21 00:45:31.
