data_PCOD9572659
_publ_section_title
;
Structure prediction by ZEFSAII (Michael W. Deem and Ramdas Pophale) SiO2 
 PCOD9572659
Probable space group: I 4/M C M
;
_chemical_formula_sum "Si O2"
_cell_formula_units_Z 128
_cell_length_a 20.717311
_cell_length_b 20.717311
_cell_length_c 14.326159
_cell_angle_alpha 90.000000
_cell_angle_beta 90.000000
_cell_angle_gamma 90.000000
_cell_volume 6148.887369
_symmetry_space_group_name_H-M "I 4/M C M"
_symmetry_group_IT_number 140
_symmetry_cell_setting 'tetragonal'
loop_
_space_group_symop_operation_xyz
x,y,z
-y,x,z
-x,-y,z
y,-x,z
x,-y,1/2-z
-x,y,1/2-z
y,x,1/2-z
-y,-x,1/2-z
-x,-y,-z
y,-x,-z
x,y,-z
-y,x,-z
-x,y,1/2+z
x,-y,1/2+z
-y,-x,1/2+z
y,x,1/2+z
1/2+x,1/2+y,1/2+z
1/2-y,1/2+x,1/2+z
1/2-x,1/2-y,1/2+z
1/2+y,1/2-x,1/2+z
1/2+x,1/2-y,-z
1/2-x,1/2+y,-z
1/2+y,1/2+x,-z
1/2-y,1/2-x,-z
1/2-x,1/2-y,1/2-z
1/2+y,1/2-x,1/2-z
1/2+x,1/2+y,1/2-z
1/2-y,1/2+x,1/2-z
1/2-x,1/2+y,z
1/2+x,1/2-y,z
1/2-y,1/2-x,z
1/2+y,1/2+x,z
loop_
_atom_site_type_symbol
_atom_site_label
_atom_site_fract_x
_atom_site_fract_y
_atom_site_fract_z
Si Si1 0.899554 0.969442 0.386064
Si Si2 0.016829 0.623860 0.643944
Si Si3 0.198770 0.698770 0.278499
Si Si4 0.916313 0.759993 0.111678
Si Si5 0.369963 0.869963 0.599226
O O1 0.899095 0.969581 0.500000
O O2 0.828121 0.947231 0.356315
O O3 0.958140 0.921406 0.357687
O O4 0.069005 0.569005 0.611079
O O5 0.044917 0.695288 0.636192
O O6 0.000000 0.606481 0.750000
O O7 0.947232 0.634355 0.599340
O O8 0.250000 0.750000 0.250000
O O9 0.149571 0.740921 0.339202
O O10 0.162219 0.662219 0.191593
O O11 0.909382 0.763776 0.000000
O O12 0.343812 0.843812 0.500000
#
# Coordination Sequence:
#
# PCOD9572659 Si02
#       5
#    32  32  16  32  16
#     4   8  16  34  62  98 134 168 216 275 329 390
#     4  12  22  41  69  99 136 179 221 279 344 405
#     4  12  27  46  65  94 134 181 222 278 339 406
#     4  11  22  40  68  97 131 176 221 266 335 413
#     4  12  27  45  68  99 132 174 231 286 339 407
#
# _framework density 20.816775
#
# number of rings (size 3 to 8) (size 9 to 14) (size 15 to 20)
#    0.000    1.250    5.000    2.250    0.000    5.000 
#    0.000    2.500    0.000    0.000    0.000    0.000 
#    0.000    0.000    0.000    2.750    0.000    0.250 
#
# Total GULP energy -356714.239411 kJ/mol
# GULP energy per Si atom -5573.659991 kJ/mol
# Density = 2.076939 g / cm^3
# Si number density = 20.816775 Si / 1000 Ang^3
#
#
#
# Elastic Constant Matrix: (Units=GPa)
#
#
# Indices 1 2 3 4 5 6 
#
# 1 165.7256 76.6545 13.6307 0.0000 0.0000 0.0000
# 2 76.6545 165.7256 13.6307 0.0000 0.0000 0.0000
# 3 13.6307 13.6307 64.1470 0.0000 0.0000 0.0000
# 4 0.0000 0.0000 0.0000 45.5053 0.0000 0.0000
# 5 0.0000 0.0000 0.0000 0.0000 45.5053 0.0000
# 6 0.0000 0.0000 0.0000 0.0000 0.0000 43.2635
#
#
#
# Elastic Compliance Matrix: (Units=1/GPa)
#
#
# Indices 1 2 3 4 5 6 
#
# 1 0.007727 -0.003500 -0.000898 0.000000 0.000000 0.000000
# 2 -0.003500 0.007727 -0.000898 0.000000 0.000000 0.000000
# 3 -0.000898 -0.000898 0.015971 0.000000 0.000000 0.000000
# 4 0.000000 0.000000 0.000000 0.021975 0.000000 0.000000
# 5 0.000000 0.000000 0.000000 0.000000 0.021975 0.000000
# 6 0.000000 0.000000 0.000000 0.000000 0.000000 0.023114
#
#
# Mechanical properties :
#
#
# Convention : Reuss Voigt Hill
#
# Bulk Modulus (GPa) = 48.00348 67.04777 57.52563
# Shear Modulus (GPa) = 43.09358 46.30029 44.69694
#
# Velocity S-wave (km/s) = 4.55481 4.72124 4.63877
# Velocity P-wave (km/s) = 7.12543 7.87392 7.50901
#
# Compressibility (1/GPa) = 0.02083182
#
# Stress axis : x y z
#
# Youngs Moduli (GPa) = 129.41834 129.41834 62.61391
#
# Poissons Ratio (x) = 0.45298 0.05624
# Poissons Ratio (y) = 0.45298 0.05624
# Poissons Ratio (z) = 0.11624 0.11624
#
# Static dielectric constant tensor:
#      x y z
#    x 1.392690 0.000000 0.000000 
#    y 0.000000 1.392690 0.000000 
#    z 0.000000 0.000000 1.722920 
# 
# From -- ./inp_files/4396.got.cif
#   From: 2010.05.17/outbox.cif.g08.bks.cpg/sg140_3_cif.got.tgz:4396.got - 2010.06.21 00:45:31.
