data_PCOD9572452
_publ_section_title
;
Structure prediction by ZEFSAII (Michael W. Deem and Ramdas Pophale) SiO2 
 PCOD9572452
Probable space group: I 4/M C M
;
_chemical_formula_sum "Si O2"
_cell_formula_units_Z 192
_cell_length_a 20.952298
_cell_length_b 20.952298
_cell_length_c 22.222212
_cell_angle_alpha 90.000000
_cell_angle_beta 90.000000
_cell_angle_gamma 90.000000
_cell_volume 9755.524212
_symmetry_space_group_name_H-M "I 4/M C M"
_symmetry_group_IT_number 140
_symmetry_cell_setting 'tetragonal'
loop_
_space_group_symop_operation_xyz
x,y,z
-y,x,z
-x,-y,z
y,-x,z
x,-y,1/2-z
-x,y,1/2-z
y,x,1/2-z
-y,-x,1/2-z
-x,-y,-z
y,-x,-z
x,y,-z
-y,x,-z
-x,y,1/2+z
x,-y,1/2+z
-y,-x,1/2+z
y,x,1/2+z
1/2+x,1/2+y,1/2+z
1/2-y,1/2+x,1/2+z
1/2-x,1/2-y,1/2+z
1/2+y,1/2-x,1/2+z
1/2+x,1/2-y,-z
1/2-x,1/2+y,-z
1/2+y,1/2+x,-z
1/2-y,1/2-x,-z
1/2-x,1/2-y,1/2-z
1/2+y,1/2-x,1/2-z
1/2+x,1/2+y,1/2-z
1/2-y,1/2+x,1/2-z
1/2-x,1/2+y,z
1/2+x,1/2-y,z
1/2-y,1/2-x,z
1/2+y,1/2+x,z
loop_
_atom_site_type_symbol
_atom_site_label
_atom_site_fract_x
_atom_site_fract_y
_atom_site_fract_z
Si Si1 0.000000 0.274820 0.250000
Si Si2 0.016583 0.615188 0.571131
Si Si3 0.201906 0.398376 0.572139
Si Si4 0.561697 0.314960 0.659167
Si Si5 0.417399 0.345018 0.373440
Si Si6 0.097241 0.300704 0.148855
Si Si7 0.061428 0.089685 0.000000
O O1 0.050826 0.229548 0.283381
O O2 0.041843 0.310221 0.199488
O O3 0.009651 0.606068 0.500000
O O4 0.049984 0.549984 0.595265
O O5 0.067800 0.668986 0.588424
O O6 0.950460 0.647741 0.590829
O O7 0.211187 0.404522 0.500000
O O8 0.170588 0.329413 0.584418
O O9 0.266738 0.413699 0.607129
O O10 0.491798 0.341765 0.643378
O O11 0.608879 0.373687 0.666070
O O12 0.392774 0.273352 0.363905
O O13 0.415162 0.373247 0.440841
O O14 0.159827 0.340173 0.165687
O O15 0.983778 0.085683 0.000000
#
# Coordination Sequence:
#
# PCOD9572452 Si02
#       7
#    16  32  32  32  32  32  16
#     4  10  22  44  62  88 122 168 210 266 308 366
#     4   9  17  33  59  89 119 152 195 248 308 371
#     4  10  21  37  57  86 123 158 197 249 315 383
#     4  11  24  40  62  90 121 163 209 257 316 369
#     4  11  23  39  62  93 128 163 206 259 319 381
#     4  10  22  40  64  94 124 163 212 260 314 374
#     4  11  22  36  63 100 132 164 210 263 329 392
#
# _framework density 19.681156000000001
#
# number of rings (size 3 to 8) (size 9 to 14) (size 15 to 20)
#    0.000    1.750    5.000    0.000    3.500    4.667 
#    0.000    2.500    0.000    4.250    0.000    0.000 
#    0.000    0.000    0.000    0.000    0.000    0.000 
#
# Total GULP energy -535141.217713 kJ/mol
# GULP energy per Si atom -5574.387685 kJ/mol
# Density = 1.963636 g / cm^3
# Si number density = 19.681156 Si / 1000 Ang^3
#
#
#
# Elastic Constant Matrix: (Units=GPa)
#
#
# Indices 1 2 3 4 5 6 
#
# 1 81.8567 83.7803 11.7751 0.0000 0.0000 0.0000
# 2 83.7803 81.8567 11.7751 0.0000 0.0000 0.0000
# 3 11.7751 11.7751 37.6820 0.0000 0.0000 0.0000
# 4 0.0000 0.0000 0.0000 6.8250 0.0000 0.0000
# 5 0.0000 0.0000 0.0000 0.0000 6.8250 0.0000
# 6 0.0000 0.0000 0.0000 0.0000 0.0000 50.1916
#
#
#
# Elastic Compliance Matrix: (Units=1/GPa)
#
#
# Indices 1 2 3 4 5 6 
#
# 1 -0.256775 0.263093 -0.001974 0.000000 0.000000 0.000000
# 2 0.263093 -0.256775 -0.001974 0.000000 0.000000 0.000000
# 3 -0.001974 -0.001974 0.027772 0.000000 0.000000 0.000000
# 4 0.000000 0.000000 0.000000 0.146519 0.000000 0.000000
# 5 0.000000 0.000000 0.000000 0.000000 0.146519 0.000000
# 6 0.000000 0.000000 0.000000 0.000000 0.000000 0.019924
#
#
# Mechanical properties :
#
#
# Convention : Reuss Voigt Hill
#
# Bulk Modulus (GPa) = 30.75921 46.22851 38.49386
# Shear Modulus (GPa) = -7.35004 19.03934 5.84465
#
# Velocity S-wave (km/s) = -1.93460 3.11366 1.72514
# Velocity P-wave (km/s) = 3.26687 6.03873 4.85483
#
# Compressibility (1/GPa) = 0.03251059
#
# Stress axis : x y z
#
# Youngs Moduli (GPa) = -3.89446 -3.89446 36.00782
#
# Poissons Ratio (x) = 1.02461 0.07109
# Poissons Ratio (y) = 1.02461 0.07109
# Poissons Ratio (z) = -0.00769 -0.00769
#
# Static dielectric constant tensor:
#      x y z
#    x 1.710530 0.000000 0.000000 
#    y 0.000000 1.710530 0.000000 
#    z 0.000000 0.000000 1.711820 
# 
# From -- ./inp_files/9866.got.cif
#   From: 2010.05.17/outbox.cif.g08.bks.cpg/sg140_5_cif.got.tgz:9866.got - 2010.06.21 00:45:31.
