data_PCOD9572486
_publ_section_title
;
Structure prediction by ZEFSAII (Michael W. Deem and Ramdas Pophale) SiO2 
 PCOD9572486
Probable space group: I 4/M C M
;
_chemical_formula_sum "Si O2"
_cell_formula_units_Z 176
_cell_length_a 24.091233
_cell_length_b 24.091233
_cell_length_c 14.177267
_cell_angle_alpha 90.000000
_cell_angle_beta 90.000000
_cell_angle_gamma 90.000000
_cell_volume 8228.308657
_symmetry_space_group_name_H-M "I 4/M C M"
_symmetry_group_IT_number 140
_symmetry_cell_setting 'tetragonal'
loop_
_space_group_symop_operation_xyz
x,y,z
-y,x,z
-x,-y,z
y,-x,z
x,-y,1/2-z
-x,y,1/2-z
y,x,1/2-z
-y,-x,1/2-z
-x,-y,-z
y,-x,-z
x,y,-z
-y,x,-z
-x,y,1/2+z
x,-y,1/2+z
-y,-x,1/2+z
y,x,1/2+z
1/2+x,1/2+y,1/2+z
1/2-y,1/2+x,1/2+z
1/2-x,1/2-y,1/2+z
1/2+y,1/2-x,1/2+z
1/2+x,1/2-y,-z
1/2-x,1/2+y,-z
1/2+y,1/2+x,-z
1/2-y,1/2-x,-z
1/2-x,1/2-y,1/2-z
1/2+y,1/2-x,1/2-z
1/2+x,1/2+y,1/2-z
1/2-y,1/2+x,1/2-z
1/2-x,1/2+y,z
1/2+x,1/2-y,z
1/2-y,1/2-x,z
1/2+y,1/2+x,z
loop_
_atom_site_type_symbol
_atom_site_label
_atom_site_fract_x
_atom_site_fract_y
_atom_site_fract_z
Si Si1 0.840668 0.429387 0.389626
Si Si2 0.088289 0.500000 0.750000
Si Si3 0.264809 0.142338 0.109564
Si Si4 0.232213 0.063221 0.273479
Si Si5 0.577655 0.457122 0.886155
Si Si6 0.149676 0.137737 0.389762
O O1 0.845107 0.438816 0.500000
O O2 0.869877 0.369877 0.368905
O O3 0.875190 0.474558 0.332044
O O4 0.778552 0.434454 0.354676
O O5 0.048556 0.548556 0.787218
O O6 0.311856 0.188145 0.131119
O O7 0.261895 0.092013 0.183246
O O8 0.202071 0.166408 0.116446
O O9 0.272144 0.124783 0.000000
O O10 0.183597 0.100464 0.317571
O O11 0.216686 0.000000 0.250000
O O12 0.573564 0.520808 0.853522
O O13 0.628531 0.415988 0.867942
O O14 0.575762 0.461698 0.000000
O O15 0.157457 0.120301 0.500000
#
# Coordination Sequence:
#
# PCOD9572486 Si02
#       6
#    32  16  32  32  32  32
#     4  10  21  39  62  90 125 165 211 261 318 382
#     4   9  18  36  60  88 124 164 210 257 306 376
#     4  10  24  47  71  93 121 168 228 280 331 394
#     4  12  25  40  61  94 134 169 208 266 333 396
#     4   8  15  30  55  87 123 165 209 255 313 379
#     4  10  22  39  64  95 127 167 215 268 325 391
#
# _framework density 21.389571
#
# number of rings (size 3 to 8) (size 9 to 14) (size 15 to 20)
#    0.000    2.091    0.909    2.182    2.545    4.000 
#    0.000    3.636    0.000    0.000    0.000    0.000 
#    0.000    0.000    0.000    0.000    0.000    0.000 
#
# Total GULP energy -491538.221800 kJ/mol
# GULP energy per Si atom -5585.661611 kJ/mol
# Density = 2.134089 g / cm^3
# Si number density = 21.389571 Si / 1000 Ang^3
#
#
#
# Elastic Constant Matrix: (Units=GPa)
#
#
# Indices 1 2 3 4 5 6 
#
# 1 66.1520 3.2458 18.9361 0.0000 0.0000 0.0000
# 2 3.2458 66.1520 18.9361 0.0000 0.0000 0.0000
# 3 18.9361 18.9361 92.4282 0.0000 0.0000 0.0000
# 4 0.0000 0.0000 0.0000 27.4446 0.0000 0.0000
# 5 0.0000 0.0000 0.0000 0.0000 27.4446 0.0000
# 6 0.0000 0.0000 0.0000 0.0000 0.0000 23.4281
#
#
#
# Elastic Compliance Matrix: (Units=1/GPa)
#
#
# Indices 1 2 3 4 5 6 
#
# 1 0.016060 0.000163 -0.003324 0.000000 0.000000 0.000000
# 2 0.000163 0.016060 -0.003324 0.000000 0.000000 0.000000
# 3 -0.003324 -0.003324 0.012181 0.000000 0.000000 0.000000
# 4 0.000000 0.000000 0.000000 0.036437 0.000000 0.000000
# 5 0.000000 0.000000 0.000000 0.000000 0.036437 0.000000
# 6 0.000000 0.000000 0.000000 0.000000 0.000000 0.042684
#
#
# Mechanical properties :
#
#
# Convention : Reuss Voigt Hill
#
# Bulk Modulus (GPa) = 31.91511 34.10757 33.01134
# Shear Modulus (GPa) = 27.28189 27.90442 27.59316
#
# Velocity S-wave (km/s) = 3.57526 3.61582 3.59559
# Velocity P-wave (km/s) = 5.65655 5.78037 5.71879
#
# Compressibility (1/GPa) = 0.03133312
#
# Stress axis : x y z
#
# Youngs Moduli (GPa) = 62.26601 62.26601 82.09425
#
# Poissons Ratio (x) = -0.01018 0.27286
# Poissons Ratio (y) = -0.01018 0.27286
# Poissons Ratio (z) = 0.20696 0.20696
#
# Static dielectric constant tensor:
#      x y z
#    x 1.789100 0.000000 0.000000 
#    y 0.000000 1.789100 0.000000 
#    z 0.000000 0.000000 1.785560 
# 
# From -- ./inp_files/4951.got.cif
#   From: 2010.05.17/outbox.cif.g08.bks.cpg/sg140_3_cif.got.tgz:4951.got - 2010.06.21 00:45:31.
