data_PCOD9572301
_publ_section_title
;
Structure prediction by ZEFSAII (Michael W. Deem and Ramdas Pophale) SiO2 
 PCOD9572301
Probable space group: I 4/M C M
;
_chemical_formula_sum "Si O2"
_cell_formula_units_Z 176
_cell_length_a 17.197038
_cell_length_b 17.197038
_cell_length_c 30.229224
_cell_angle_alpha 90.000000
_cell_angle_beta 90.000000
_cell_angle_gamma 90.000000
_cell_volume 8939.933753
_symmetry_space_group_name_H-M "I 4/M C M"
_symmetry_group_IT_number 140
_symmetry_cell_setting 'tetragonal'
loop_
_space_group_symop_operation_xyz
x,y,z
-y,x,z
-x,-y,z
y,-x,z
x,-y,1/2-z
-x,y,1/2-z
y,x,1/2-z
-y,-x,1/2-z
-x,-y,-z
y,-x,-z
x,y,-z
-y,x,-z
-x,y,1/2+z
x,-y,1/2+z
-y,-x,1/2+z
y,x,1/2+z
1/2+x,1/2+y,1/2+z
1/2-y,1/2+x,1/2+z
1/2-x,1/2-y,1/2+z
1/2+y,1/2-x,1/2+z
1/2+x,1/2-y,-z
1/2-x,1/2+y,-z
1/2+y,1/2+x,-z
1/2-y,1/2-x,-z
1/2-x,1/2-y,1/2-z
1/2+y,1/2-x,1/2-z
1/2+x,1/2+y,1/2-z
1/2-y,1/2+x,1/2-z
1/2-x,1/2+y,z
1/2+x,1/2-y,z
1/2-y,1/2-x,z
1/2+y,1/2+x,z
loop_
_atom_site_type_symbol
_atom_site_label
_atom_site_fract_x
_atom_site_fract_y
_atom_site_fract_z
Si Si1 0.396863 0.579376 0.379085
Si Si2 0.750497 0.624506 0.734199
Si Si3 0.046615 0.325578 0.094349
Si Si4 0.067387 0.567387 0.050233
Si Si5 0.712774 0.660293 0.949246
Si Si6 0.469392 0.726406 0.817735
O O1 0.396212 0.485930 0.386216
O O2 0.349457 0.634313 0.412657
O O3 0.353735 0.575581 0.331077
O O4 0.684438 0.684438 0.750000
O O5 0.823602 0.676399 0.718236
O O6 0.769520 0.578096 0.779335
O O7 0.721602 0.557690 0.700337
O O8 0.103538 0.396463 0.106848
O O9 0.092423 0.277124 0.057090
O O10 0.032635 0.273826 0.137006
O O11 0.968278 0.359848 0.075030
O O12 0.000000 0.500000 0.049684
O O13 0.086193 0.586193 0.000000
O O14 0.759457 0.740544 0.939876
O O15 0.684724 0.661914 0.000000
#
# Coordination Sequence:
#
# PCOD9572301 Si02
#       6
#    32  32  32  16  32  32
#     4  10  21  37  58  86 116 149 191 240 291 346
#     4  10  21  36  55  78 106 144 188 236 287 351
#     4   9  17  29  49  75 105 142 181 227 274 335
#     4   9  16  26  44  72 103 138 180 222 265 322
#     4   9  18  34  56  81 112 151 192 235 288 346
#     4  10  20  35  55  77 109 142 186 232 290 341
#
# _framework density 19.686945999999999
#
# number of rings (size 3 to 8) (size 9 to 14) (size 15 to 20)
#    0.000    2.455    0.000    2.182    1.273    3.636 
#    0.000    1.818    2.000    5.455    0.000    0.000 
#    0.000    0.000    0.000    0.000    0.000    0.000 
#
# Total GULP energy -489949.065409 kJ/mol
# GULP energy per Si atom -5567.603016 kJ/mol
# Density = 1.964214 g / cm^3
# Si number density = 19.686946 Si / 1000 Ang^3
#
#
#
# Elastic Constant Matrix: (Units=GPa)
#
#
# Indices 1 2 3 4 5 6 
#
# 1 58.5784 22.7737 24.4462 0.0000 0.0000 0.0000
# 2 22.7737 58.5784 24.4462 0.0000 0.0000 0.0000
# 3 24.4462 24.4462 85.0334 0.0000 0.0000 0.0000
# 4 0.0000 0.0000 0.0000 18.2545 0.0000 0.0000
# 5 0.0000 0.0000 0.0000 0.0000 18.2545 0.0000
# 6 0.0000 0.0000 0.0000 0.0000 0.0000 25.3696
#
#
#
# Elastic Compliance Matrix: (Units=1/GPa)
#
#
# Indices 1 2 3 4 5 6 
#
# 1 0.021394 -0.006535 -0.004272 0.000000 0.000000 0.000000
# 2 -0.006535 0.021394 -0.004272 0.000000 0.000000 0.000000
# 3 -0.004272 -0.004272 0.014216 0.000000 0.000000 0.000000
# 4 0.000000 0.000000 0.000000 0.054781 0.000000 0.000000
# 5 0.000000 0.000000 0.000000 0.000000 0.054781 0.000000
# 6 0.000000 0.000000 0.000000 0.000000 0.000000 0.039417
#
#
# Mechanical properties :
#
#
# Convention : Reuss Voigt Hill
#
# Bulk Modulus (GPa) = 37.24703 38.39138 37.81921
# Shear Modulus (GPa) = 20.40053 21.07732 20.73892
#
# Velocity S-wave (km/s) = 3.22257 3.27559 3.24919
# Velocity P-wave (km/s) = 5.72777 5.81801 5.77307
#
# Compressibility (1/GPa) = 0.02684778
#
# Stress axis : x y z
#
# Youngs Moduli (GPa) = 46.74100 46.74100 70.34134
#
# Poissons Ratio (x) = 0.30544 0.30050
# Poissons Ratio (y) = 0.30544 0.30050
# Poissons Ratio (z) = 0.19968 0.19968
#
# Static dielectric constant tensor:
#      x y z
#    x 1.735530 0.000000 0.000000 
#    y 0.000000 1.735530 0.000000 
#    z 0.000000 0.000000 1.670740 
# 
# From -- ./inp_files/10680.got.cif
#   From: 2010.05.17/outbox.cif.g08.bks.cpg/sg140_6_cif.got.tgz:10680.got - 2010.06.21 00:45:31.
