data_PCOD9572581
_publ_section_title
;
Structure prediction by ZEFSAII (Michael W. Deem and Ramdas Pophale) SiO2 
 PCOD9572581
Probable space group: I 4/M C M
;
_chemical_formula_sum "Si O2"
_cell_formula_units_Z 160
_cell_length_a 22.172978
_cell_length_b 22.172978
_cell_length_c 15.412169
_cell_angle_alpha 90.000000
_cell_angle_beta 90.000000
_cell_angle_gamma 90.000000
_cell_volume 7577.253461
_symmetry_space_group_name_H-M "I 4/M C M"
_symmetry_group_IT_number 140
_symmetry_cell_setting 'tetragonal'
loop_
_space_group_symop_operation_xyz
x,y,z
-y,x,z
-x,-y,z
y,-x,z
x,-y,1/2-z
-x,y,1/2-z
y,x,1/2-z
-y,-x,1/2-z
-x,-y,-z
y,-x,-z
x,y,-z
-y,x,-z
-x,y,1/2+z
x,-y,1/2+z
-y,-x,1/2+z
y,x,1/2+z
1/2+x,1/2+y,1/2+z
1/2-y,1/2+x,1/2+z
1/2-x,1/2-y,1/2+z
1/2+y,1/2-x,1/2+z
1/2+x,1/2-y,-z
1/2-x,1/2+y,-z
1/2+y,1/2+x,-z
1/2-y,1/2-x,-z
1/2-x,1/2-y,1/2-z
1/2+y,1/2-x,1/2-z
1/2+x,1/2+y,1/2-z
1/2-y,1/2+x,1/2-z
1/2-x,1/2+y,z
1/2+x,1/2-y,z
1/2-y,1/2-x,z
1/2+y,1/2+x,z
loop_
_atom_site_type_symbol
_atom_site_label
_atom_site_fract_x
_atom_site_fract_y
_atom_site_fract_z
Si Si1 0.146362 0.251953 0.665322
Si Si2 0.513001 0.889343 0.500000
Si Si3 0.148822 0.449187 0.676002
Si Si4 0.114446 0.712282 0.500000
Si Si5 0.412188 0.453652 0.895450
Si Si6 0.193860 0.871733 0.147155
O O1 0.201961 0.298040 0.655164
O O2 0.085743 0.289883 0.649126
O O3 0.140788 0.228325 0.763662
O O4 0.161629 0.190220 0.615424
O O5 0.547436 0.952565 0.500000
O O6 0.476492 0.879231 0.588438
O O7 0.564054 0.838204 0.500000
O O8 0.157511 0.500000 0.750000
O O9 0.102320 0.397681 0.709978
O O10 0.178737 0.678737 0.500000
O O11 0.108198 0.755082 0.418266
O O12 0.475836 0.421367 0.875733
O O13 0.357594 0.421967 0.846724
O O14 0.402296 0.448405 0.000000
#
# Coordination Sequence:
#
# PCOD9572581 Si02
#       6
#    32  16  32  16  32  32
#     4  10  23  41  59  84 125 163 200 256 313 369
#     4  11  25  43  65  96 129 163 213 272 318 379
#     4  11  24  43  66  94 129 170 211 263 327 381
#     4  11  22  36  58  88 119 149 196 258 311 361
#     4   9  19  37  57  83 121 156 193 250 310 363
#     4  11  20  37  63  88 113 162 208 242 304 384
#
# _framework density 21.115831
#
# number of rings (size 3 to 8) (size 9 to 14) (size 15 to 20)
#    0.000    1.600    1.000    5.100    0.000    9.000 
#    0.000    4.000    0.000    4.800    0.000    0.000 
#    0.000    0.000    0.000    0.000    0.000    0.000 
#
# Total GULP energy -447125.077820 kJ/mol
# GULP energy per Si atom -5589.063473 kJ/mol
# Density = 2.106777 g / cm^3
# Si number density = 21.115831 Si / 1000 Ang^3
#
#
#
# Elastic Constant Matrix: (Units=GPa)
#
#
# Indices 1 2 3 4 5 6 
#
# 1 101.4960 17.6135 3.2955 0.0000 0.0000 0.0000
# 2 17.6135 101.4911 3.2952 0.0000 0.0000 0.0000
# 3 3.2955 3.2952 36.4689 0.0000 0.0000 0.0000
# 4 0.0000 0.0000 0.0000 46.6026 0.0000 0.0000
# 5 0.0000 0.0000 0.0000 0.0000 46.5586 0.0000
# 6 0.0000 0.0000 0.0000 0.0000 0.0000 45.9305
#
#
#
# Elastic Compliance Matrix: (Units=1/GPa)
#
#
# Indices 1 2 3 4 5 6 
#
# 1 0.010180 -0.001742 -0.000763 0.000000 0.000000 0.000000
# 2 -0.001742 0.010180 -0.000762 0.000000 0.000000 0.000000
# 3 -0.000763 -0.000762 0.027558 0.000000 0.000000 0.000000
# 4 0.000000 0.000000 0.000000 0.021458 0.000000 0.000000
# 5 0.000000 0.000000 0.000000 0.000000 0.021478 0.000000
# 6 0.000000 0.000000 0.000000 0.000000 0.000000 0.021772
#
#
# Mechanical properties :
#
#
# Convention : Reuss Voigt Hill
#
# Bulk Modulus (GPa) = 24.16359 31.98493 28.07426
# Shear Modulus (GPa) = 37.60666 42.16844 39.88755
#
# Velocity S-wave (km/s) = 4.22473 4.47364 4.35096
# Velocity P-wave (km/s) = 5.93852 6.47030 6.21011
#
# Compressibility (1/GPa) = 0.04138458
#
# Stress axis : x y z
#
# Youngs Moduli (GPa) = 98.23524 98.23051 36.28651
#
# Poissons Ratio (x) = 0.17111 0.02767
# Poissons Ratio (y) = 0.17111 0.02767
# Poissons Ratio (z) = 0.07490 0.07489
#
# Static dielectric constant tensor:
#      x y z
#    x 1.742610 0.000000 0.000000 
#    y 0.000000 1.742610 0.000000 
#    z 0.000000 0.000000 1.792980 
# 
# From -- ./inp_files/6896.got.cif
#   From: 2010.05.17/outbox.cif.g08.bks.cpg/sg140_4_cif.got.tgz:6896.got - 2010.06.21 00:45:31.
