data_PCOD9572464
_publ_section_title
;
Structure prediction by ZEFSAII (Michael W. Deem and Ramdas Pophale) SiO2 
 PCOD9572464
Probable space group: I 4/M C M
;
_chemical_formula_sum "Si O2"
_cell_formula_units_Z 128
_cell_length_a 19.527909
_cell_length_b 19.527909
_cell_length_c 15.742332
_cell_angle_alpha 90.000000
_cell_angle_beta 90.000000
_cell_angle_gamma 90.000000
_cell_volume 6003.168762
_symmetry_space_group_name_H-M "I 4/M C M"
_symmetry_group_IT_number 140
_symmetry_cell_setting 'tetragonal'
loop_
_space_group_symop_operation_xyz
x,y,z
-y,x,z
-x,-y,z
y,-x,z
x,-y,1/2-z
-x,y,1/2-z
y,x,1/2-z
-y,-x,1/2-z
-x,-y,-z
y,-x,-z
x,y,-z
-y,x,-z
-x,y,1/2+z
x,-y,1/2+z
-y,-x,1/2+z
y,x,1/2+z
1/2+x,1/2+y,1/2+z
1/2-y,1/2+x,1/2+z
1/2-x,1/2-y,1/2+z
1/2+y,1/2-x,1/2+z
1/2+x,1/2-y,-z
1/2-x,1/2+y,-z
1/2+y,1/2+x,-z
1/2-y,1/2-x,-z
1/2-x,1/2-y,1/2-z
1/2+y,1/2-x,1/2-z
1/2+x,1/2+y,1/2-z
1/2-y,1/2+x,1/2-z
1/2-x,1/2+y,z
1/2+x,1/2-y,z
1/2-y,1/2-x,z
1/2+y,1/2+x,z
loop_
_atom_site_type_symbol
_atom_site_label
_atom_site_fract_x
_atom_site_fract_y
_atom_site_fract_z
Si Si1 0.045785 0.658548 0.000000
Si Si2 0.266599 0.978374 0.848132
Si Si3 0.161212 0.774384 0.000000
Si Si4 0.713765 0.329225 0.663278
Si Si5 0.610791 0.495574 0.853118
O O1 0.104125 0.716958 0.000000
O O2 0.003407 0.676167 0.085448
O O3 0.086022 0.586022 0.000000
O O4 0.257768 0.896939 0.847471
O O5 0.190676 0.004318 0.877381
O O6 0.279000 0.000000 0.750000
O O7 0.164017 0.818016 0.084670
O O8 0.232687 0.732687 0.000000
O O9 0.670759 0.329242 0.750000
O O10 0.765290 0.265290 0.667584
O O11 0.568284 0.563433 0.879935
O O12 0.611589 0.500000 0.750000
#
# Coordination Sequence:
#
# PCOD9572464 Si02
#       5
#    16  32  16  32  32
#     4  11  25  44  61  94 136 172 220 278 340 402
#     4  11  23  36  63  92 122 177 225 272 342 416
#     4   9  19  36  58  80 117 161 198 263 339 388
#     4  10  21  37  61  93 125 160 213 279 333 396
#     4   8  16  30  49  79 123 169 214 266 323 401
#
# _framework density 21.322071999999999
#
# number of rings (size 3 to 8) (size 9 to 14) (size 15 to 20)
#    0.000    2.250    0.000    3.000   10.500    3.000 
#    0.000    0.000    0.000    3.000    0.000    1.750 
#    0.000    0.000    0.000    0.000    0.000    0.000 
#
# Total GULP energy -357450.235746 kJ/mol
# GULP energy per Si atom -5585.159934 kJ/mol
# Density = 2.127354 g / cm^3
# Si number density = 21.322072 Si / 1000 Ang^3
#
#
#
# Elastic Constant Matrix: (Units=GPa)
#
#
# Indices 1 2 3 4 5 6 
#
# 1 69.7066 0.0691 35.9947 0.0000 0.0000 0.0000
# 2 0.0691 69.7073 35.9946 0.0000 0.0000 0.0000
# 3 35.9947 35.9946 125.2912 0.0000 0.0000 0.0000
# 4 0.0000 0.0000 0.0000 -67.9323 0.0000 0.0000
# 5 0.0000 0.0000 0.0000 0.0000 -67.9637 0.0000
# 6 0.0000 0.0000 0.0000 0.0000 0.0000 41.1514
#
#
#
# Elastic Compliance Matrix: (Units=1/GPa)
#
#
# Indices 1 2 3 4 5 6 
#
# 1 0.017365 0.003004 -0.005852 0.000000 0.000000 0.000000
# 2 0.003004 0.017364 -0.005852 0.000000 0.000000 0.000000
# 3 -0.005852 -0.005852 0.011344 0.000000 0.000000 0.000000
# 4 0.000000 0.000000 0.000000 -0.014721 0.000000 0.000000
# 5 0.000000 0.000000 0.000000 0.000000 -0.014714 0.000000
# 6 0.000000 0.000000 0.000000 0.000000 0.000000 0.024300
#
#
# Mechanical properties :
#
#
# Convention : Reuss Voigt Hill
#
# Bulk Modulus (GPa) = 34.87412 45.42465 40.14938
# Shear Modulus (GPa) = 73.64299 -6.10580 33.76859
#
# Velocity S-wave (km/s) = 5.88331 -1.69406 3.98394
# Velocity P-wave (km/s) = 7.90838 4.18615 6.32718
#
# Compressibility (1/GPa) = 0.02867456
#
# Stress axis : x y z
#
# Youngs Moduli (GPa) = 57.58845 57.58921 88.15477
#
# Poissons Ratio (x) = -0.17302 0.51586
# Poissons Ratio (y) = -0.17302 0.51586
# Poissons Ratio (z) = 0.33700 0.33700
#
# Static dielectric constant tensor:
#      x y z
#    x 1.772680 0.000000 0.000000 
#    y 0.000000 1.772680 0.000000 
#    z 0.000000 0.000000 1.795070 
# 
# From -- ./inp_files/4425.got.cif
#   From: 2010.05.17/outbox.cif.g08.bks.cpg/sg140_3_cif.got.tgz:4425.got - 2010.06.21 00:45:31.
