data_PCOD9572343
_publ_section_title
;
Structure prediction by ZEFSAII (Michael W. Deem and Ramdas Pophale) SiO2 
 PCOD9572343
Probable space group: I 4/M C M
;
_chemical_formula_sum "Si O2"
_cell_formula_units_Z 160
_cell_length_a 23.645107
_cell_length_b 23.645107
_cell_length_c 14.568955
_cell_angle_alpha 90.000000
_cell_angle_beta 90.000000
_cell_angle_gamma 90.000000
_cell_volume 8145.372859
_symmetry_space_group_name_H-M "I 4/M C M"
_symmetry_group_IT_number 140
_symmetry_cell_setting 'tetragonal'
loop_
_space_group_symop_operation_xyz
x,y,z
-y,x,z
-x,-y,z
y,-x,z
x,-y,1/2-z
-x,y,1/2-z
y,x,1/2-z
-y,-x,1/2-z
-x,-y,-z
y,-x,-z
x,y,-z
-y,x,-z
-x,y,1/2+z
x,-y,1/2+z
-y,-x,1/2+z
y,x,1/2+z
1/2+x,1/2+y,1/2+z
1/2-y,1/2+x,1/2+z
1/2-x,1/2-y,1/2+z
1/2+y,1/2-x,1/2+z
1/2+x,1/2-y,-z
1/2-x,1/2+y,-z
1/2+y,1/2+x,-z
1/2-y,1/2-x,-z
1/2-x,1/2-y,1/2-z
1/2+y,1/2-x,1/2-z
1/2+x,1/2+y,1/2-z
1/2-y,1/2+x,1/2-z
1/2-x,1/2+y,z
1/2+x,1/2-y,z
1/2-y,1/2-x,z
1/2+y,1/2+x,z
loop_
_atom_site_type_symbol
_atom_site_label
_atom_site_fract_x
_atom_site_fract_y
_atom_site_fract_z
Si Si1 0.413596 0.824257 0.794651
Si Si2 0.129909 0.108721 0.354399
Si Si3 0.793671 0.469210 0.889421
Si Si4 0.835441 0.984872 0.895774
Si Si5 0.819342 0.768445 0.843868
O O1 0.382928 0.882928 0.816536
O O2 0.468559 0.813569 0.857187
O O3 0.428489 0.822338 0.685945
O O4 0.369229 0.774692 0.816806
O O5 0.126599 0.126599 0.250000
O O6 0.068200 0.122621 0.393495
O O7 0.179569 0.148875 0.394122
O O8 0.143582 0.042309 0.350322
O O9 0.726712 0.465539 0.865359
O O10 0.801378 0.459903 0.000000
O O11 0.827467 0.003612 0.000000
O O12 0.792190 0.792190 0.750000
O O13 0.769436 0.730565 0.889152
#
# Coordination Sequence:
#
# PCOD9572343 Si02
#       5
#    32  32  32  32  32
#     4  10  20  36  61  88 119 155 197 245 298 360
#     4  11  21  35  59  82 111 153 205 250 295 359
#     4  10  21  37  59  86 121 157 197 243 298 360
#     4  11  23  38  55  80 117 158 198 249 305 350
#     4   9  17  31  55  86 115 148 193 248 303 359
#
# _framework density 19.643052999999998
#
# number of rings (size 3 to 8) (size 9 to 14) (size 15 to 20)
#    0.000    1.800    2.000    3.600    2.800    1.200 
#    0.000    2.000    0.000    8.400    0.000   11.200 
#    0.000    0.000    0.000    0.000    0.000    0.000 
#
# Total GULP energy -445739.463118 kJ/mol
# GULP energy per Si atom -5571.743289 kJ/mol
# Density = 1.959834 g / cm^3
# Si number density = 19.643053 Si / 1000 Ang^3
#
#
#
# Elastic Constant Matrix: (Units=GPa)
#
#
# Indices 1 2 3 4 5 6 
#
# 1 75.7495 33.4044 0.7493 0.0000 0.0000 0.0000
# 2 33.4044 75.7495 0.7493 0.0000 0.0000 0.0000
# 3 0.7493 0.7493 58.9452 0.0000 0.0000 0.0000
# 4 0.0000 0.0000 0.0000 14.7725 0.0000 0.0000
# 5 0.0000 0.0000 0.0000 0.0000 14.7725 0.0000
# 6 0.0000 0.0000 0.0000 0.0000 0.0000 25.6954
#
#
#
# Elastic Compliance Matrix: (Units=1/GPa)
#
#
# Indices 1 2 3 4 5 6 
#
# 1 0.016389 -0.007226 -0.000116 0.000000 0.000000 0.000000
# 2 -0.007226 0.016389 -0.000116 0.000000 0.000000 0.000000
# 3 -0.000116 -0.000116 0.016968 0.000000 0.000000 0.000000
# 4 0.000000 0.000000 0.000000 0.067693 0.000000 0.000000
# 5 0.000000 0.000000 0.000000 0.000000 0.067693 0.000000
# 6 0.000000 0.000000 0.000000 0.000000 0.000000 0.038917
#
#
# Mechanical properties :
#
#
# Convention : Reuss Voigt Hill
#
# Bulk Modulus (GPa) = 28.71258 31.13888 29.92573
# Shear Modulus (GPa) = 19.95386 22.75084 21.35235
#
# Velocity S-wave (km/s) = 3.19066 3.40694 3.30057
# Velocity P-wave (km/s) = 5.31250 5.60028 5.45829
#
# Compressibility (1/GPa) = 0.03482794
#
# Stress axis : x y z
#
# Youngs Moduli (GPa) = 61.01565 61.01565 58.93494
#
# Poissons Ratio (x) = 0.44091 0.00686
# Poissons Ratio (y) = 0.44091 0.00686
# Poissons Ratio (z) = 0.00711 0.00711
#
# Static dielectric constant tensor:
#      x y z
#    x 1.911730 0.000000 0.000000 
#    y 0.000000 1.911730 0.000000 
#    z 0.000000 0.000000 1.753190 
# 
# From -- ./inp_files/4688.got.cif
#   From: 2010.05.17/outbox.cif.g08.bks.cpg/sg140_3_cif.got.tgz:4688.got - 2010.06.21 00:45:31.
