data_PCOD9572441
_publ_section_title
;
Structure prediction by ZEFSAII (Michael W. Deem and Ramdas Pophale) SiO2 
 PCOD9572441
Probable space group: I 4/M C M
;
_chemical_formula_sum "Si O2"
_cell_formula_units_Z 192
_cell_length_a 17.762626
_cell_length_b 17.762626
_cell_length_c 29.284918
_cell_angle_alpha 90.000000
_cell_angle_beta 90.000000
_cell_angle_gamma 90.000000
_cell_volume 9239.710320
_symmetry_space_group_name_H-M "I 4/M C M"
_symmetry_group_IT_number 140
_symmetry_cell_setting 'tetragonal'
loop_
_space_group_symop_operation_xyz
x,y,z
-y,x,z
-x,-y,z
y,-x,z
x,-y,1/2-z
-x,y,1/2-z
y,x,1/2-z
-y,-x,1/2-z
-x,-y,-z
y,-x,-z
x,y,-z
-y,x,-z
-x,y,1/2+z
x,-y,1/2+z
-y,-x,1/2+z
y,x,1/2+z
1/2+x,1/2+y,1/2+z
1/2-y,1/2+x,1/2+z
1/2-x,1/2-y,1/2+z
1/2+y,1/2-x,1/2+z
1/2+x,1/2-y,-z
1/2-x,1/2+y,-z
1/2+y,1/2+x,-z
1/2-y,1/2-x,-z
1/2-x,1/2-y,1/2-z
1/2+y,1/2-x,1/2-z
1/2+x,1/2+y,1/2-z
1/2-y,1/2+x,1/2-z
1/2-x,1/2+y,z
1/2+x,1/2-y,z
1/2-y,1/2-x,z
1/2+y,1/2+x,z
loop_
_atom_site_type_symbol
_atom_site_label
_atom_site_fract_x
_atom_site_fract_y
_atom_site_fract_z
Si Si1 0.227227 0.393220 0.592293
Si Si2 0.047151 0.673909 0.000000
Si Si3 0.226865 0.602657 0.807170
Si Si4 0.855009 0.769395 0.096832
Si Si5 0.887053 0.948974 0.345654
Si Si6 0.605030 0.776981 0.500000
Si Si7 0.382426 0.000000 0.250000
Si Si8 0.119704 0.119704 0.250000
O O1 0.145301 0.354700 0.596388
O O2 0.222587 0.437226 0.545314
O O3 0.241862 0.427359 0.641907
O O4 0.288221 0.328031 0.588004
O O5 0.958984 0.659532 0.000000
O O6 0.102510 0.602510 0.000000
O O7 0.182861 0.682861 0.810390
O O8 0.170441 0.544252 0.784266
O O9 0.301224 0.613361 0.777184
O O10 0.810418 0.689583 0.108400
O O11 0.908336 0.812968 0.133266
O O12 0.898628 0.763076 0.048812
O O13 0.882634 0.941657 0.290486
O O14 0.964301 0.904030 0.358703
O O15 0.687583 0.812418 0.500000
O O16 0.437737 0.062264 0.271971
#
# Coordination Sequence:
#
# PCOD9572441 Si02
#       8
#    32  16  32  32  32  16  16  16
#     4   9  18  36  61  89 119 155 206 263 315 374
#     4  10  21  38  65  92 120 165 210 256 327 392
#     4  10  21  36  59  94 128 163 218 269 315 381
#     4  10  21  41  67  93 124 163 210 266 319 373
#     4  11  26  44  63  91 130 173 214 261 324 392
#     4  10  23  40  61  93 129 164 207 261 318 381
#     4   9  20  40  62  88 131 176 210 262 333 392
#     4  12  23  37  66  84 126 170 213 263 322 376
#
# _framework density 20.779872000000001
#
# number of rings (size 3 to 8) (size 9 to 14) (size 15 to 20)
#    0.000    1.917    1.667    1.250    4.667    3.500 
#    0.000    0.833    0.000    4.000    0.000    0.000 
#    0.000    0.000    0.000    0.000    0.000    0.000 
#
# Total GULP energy -534937.011693 kJ/mol
# GULP energy per Si atom -5572.260538 kJ/mol
# Density = 2.073258 g / cm^3
# Si number density = 20.779872 Si / 1000 Ang^3
#
#
#
# Elastic Constant Matrix: (Units=GPa)
#
#
# Indices 1 2 3 4 5 6 
#
# 1 85.8829 34.0853 44.3005 0.0000 0.0000 0.0000
# 2 34.0853 85.8833 44.3005 0.0000 0.0000 0.0000
# 3 44.3005 44.3005 134.0532 0.0000 0.0000 0.0000
# 4 0.0000 0.0000 0.0000 -9.0021 0.0000 0.0000
# 5 0.0000 0.0000 0.0000 0.0000 -9.0014 0.0000
# 6 0.0000 0.0000 0.0000 0.0000 0.0000 21.2891
#
#
#
# Elastic Compliance Matrix: (Units=1/GPa)
#
#
# Indices 1 2 3 4 5 6 
#
# 1 0.015166 -0.004140 -0.003644 0.000000 0.000000 0.000000
# 2 -0.004140 0.015166 -0.003644 0.000000 0.000000 0.000000
# 3 -0.003644 -0.003644 0.009868 0.000000 0.000000 0.000000
# 4 0.000000 0.000000 0.000000 -0.111085 0.000000 0.000000
# 5 0.000000 0.000000 0.000000 0.000000 -0.111094 0.000000
# 6 0.000000 0.000000 0.000000 0.000000 0.000000 0.046972
#
#
# Mechanical properties :
#
#
# Convention : Reuss Voigt Hill
#
# Bulk Modulus (GPa) = 57.65124 61.24355 59.44740
# Shear Modulus (GPa) = -47.00640 12.86599 -17.07020
#
# Velocity S-wave (km/s) = -4.76133 2.49099 -2.86925
# Velocity P-wave (km/s) = 1.55658 6.14897 4.20636
#
# Compressibility (1/GPa) = 0.01734568
#
# Stress axis : x y z
#
# Youngs Moduli (GPa) = 65.93552 65.93588 101.33568
#
# Poissons Ratio (x) = 0.27294 0.36927
# Poissons Ratio (y) = 0.27294 0.36927
# Poissons Ratio (z) = 0.24027 0.24027
#
# Static dielectric constant tensor:
#      x y z
#    x 1.778560 0.000000 0.000000 
#    y 0.000000 1.778560 0.000000 
#    z 0.000000 0.000000 1.757810 
# 
# From -- ./inp_files/11694.got.cif
#   From: 2010.05.17/outbox.cif.g08.bks.cpg/sg140_6_cif.got.tgz:11694.got - 2010.06.21 00:45:31.
