data_PCOD9572376
_publ_section_title
;
Structure prediction by ZEFSAII (Michael W. Deem and Ramdas Pophale) SiO2 
 PCOD9572376
Probable space group: I 4/M C M
;
_chemical_formula_sum "Si O2"
_cell_formula_units_Z 128
_cell_length_a 20.453807
_cell_length_b 20.453807
_cell_length_c 15.047100
_cell_angle_alpha 90.000000
_cell_angle_beta 90.000000
_cell_angle_gamma 90.000000
_cell_volume 6295.077984
_symmetry_space_group_name_H-M "I 4/M C M"
_symmetry_group_IT_number 140
_symmetry_cell_setting 'tetragonal'
loop_
_space_group_symop_operation_xyz
x,y,z
-y,x,z
-x,-y,z
y,-x,z
x,-y,1/2-z
-x,y,1/2-z
y,x,1/2-z
-y,-x,1/2-z
-x,-y,-z
y,-x,-z
x,y,-z
-y,x,-z
-x,y,1/2+z
x,-y,1/2+z
-y,-x,1/2+z
y,x,1/2+z
1/2+x,1/2+y,1/2+z
1/2-y,1/2+x,1/2+z
1/2-x,1/2-y,1/2+z
1/2+y,1/2-x,1/2+z
1/2+x,1/2-y,-z
1/2-x,1/2+y,-z
1/2+y,1/2+x,-z
1/2-y,1/2-x,-z
1/2-x,1/2-y,1/2-z
1/2+y,1/2-x,1/2-z
1/2+x,1/2+y,1/2-z
1/2-y,1/2+x,1/2-z
1/2-x,1/2+y,z
1/2+x,1/2-y,z
1/2-y,1/2-x,z
1/2+y,1/2+x,z
loop_
_atom_site_type_symbol
_atom_site_label
_atom_site_fract_x
_atom_site_fract_y
_atom_site_fract_z
Si Si1 0.282321 0.604757 0.643759
Si Si2 0.603580 0.486802 0.643179
Si Si3 0.424391 0.177809 0.500000
Si Si4 0.648354 0.741010 0.841593
Si Si5 0.686778 0.921496 0.000000
O O1 0.325744 0.541013 0.621165
O O2 0.218038 0.601272 0.585177
O O3 0.268972 0.610423 0.749027
O O4 0.322863 0.671475 0.626671
O O5 0.570620 0.553917 0.612437
O O6 0.602910 0.500000 0.750000
O O7 0.393065 0.106936 0.500000
O O8 0.501962 0.176317 0.500000
O O9 0.709392 0.790608 0.827333
O O10 0.602194 0.772671 0.914597
O O11 0.619579 0.880422 0.000000
#
# Coordination Sequence:
#
# PCOD9572376 Si02
#       5
#    32  32  16  32  16
#     4  11  22  36  65  92 126 160 205 244 303 357
#     4   9  18  32  52  84 126 166 197 232 283 346
#     4  12  27  42  61  91 123 156 207 264 308 365
#     4  10  20  39  64  91 123 157 195 250 315 364
#     4  10  25  44  65  90 120 157 206 259 309 374
#
# _framework density 20.333345999999999
#
# number of rings (size 3 to 8) (size 9 to 14) (size 15 to 20)
#    0.000    1.750    0.000    7.500    7.000    1.250 
#    0.000    0.000    0.000    1.500    0.000    3.500 
#    0.000    0.000    0.000    0.000    0.000    0.000 
#
# Total GULP energy -357628.978763 kJ/mol
# GULP energy per Si atom -5587.952793 kJ/mol
# Density = 2.028707 g / cm^3
# Si number density = 20.333346 Si / 1000 Ang^3
#
#
#
# Elastic Constant Matrix: (Units=GPa)
#
#
# Indices 1 2 3 4 5 6 
#
# 1 117.8739 46.4804 45.8704 0.0000 0.0000 0.0000
# 2 46.4804 117.8736 45.8703 0.0000 0.0000 0.0000
# 3 45.8704 45.8703 66.6574 0.0000 0.0000 0.0000
# 4 0.0000 0.0000 0.0000 33.5643 0.0000 0.0000
# 5 0.0000 0.0000 0.0000 0.0000 33.5549 0.0000
# 6 0.0000 0.0000 0.0000 0.0000 0.0000 35.2174
#
#
#
# Elastic Compliance Matrix: (Units=1/GPa)
#
#
# Indices 1 2 3 4 5 6 
#
# 1 0.011943 -0.002064 -0.006798 0.000000 0.000000 0.000000
# 2 -0.002064 0.011943 -0.006798 0.000000 0.000000 0.000000
# 3 -0.006798 -0.006798 0.024359 0.000000 0.000000 0.000000
# 4 0.000000 0.000000 0.000000 0.029794 0.000000 0.000000
# 5 0.000000 0.000000 0.000000 0.000000 0.029802 0.000000
# 6 0.000000 0.000000 0.000000 0.000000 0.000000 0.028395
#
#
# Mechanical properties :
#
#
# Convention : Reuss Voigt Hill
#
# Bulk Modulus (GPa) = 59.08912 64.31634 61.70273
# Shear Modulus (GPa) = 28.86874 31.41291 30.14082
#
# Velocity S-wave (km/s) = 3.77208 3.93478 3.85429
# Velocity P-wave (km/s) = 6.93503 7.23484 7.08652
#
# Compressibility (1/GPa) = 0.01692359
#
# Stress axis : x y z
#
# Youngs Moduli (GPa) = 83.73079 83.73065 41.05309
#
# Poissons Ratio (x) = 0.17281 0.27909
# Poissons Ratio (y) = 0.17281 0.27909
# Poissons Ratio (z) = 0.56923 0.56923
#
# Static dielectric constant tensor:
#      x y z
#    x 1.714260 0.000000 0.000000 
#    y 0.000000 1.714260 0.000000 
#    z 0.000000 0.000000 1.729960 
# 
# From -- ./inp_files/4390.got.cif
#   From: 2010.05.17/outbox.cif.g08.bks.cpg/sg140_3_cif.got.tgz:4390.got - 2010.06.21 00:45:31.
