data_PCOD9572017
_publ_section_title
;
Structure prediction by ZEFSAII (Michael W. Deem and Ramdas Pophale) SiO2 
 PCOD9572017
Probable space group: I 4/M C M
;
_chemical_formula_sum "Si O2"
_cell_formula_units_Z 80
_cell_length_a 24.230672
_cell_length_b 24.230672
_cell_length_c 5.627183
_cell_angle_alpha 90.000000
_cell_angle_beta 90.000000
_cell_angle_gamma 90.000000
_cell_volume 3303.862439
_symmetry_space_group_name_H-M "I 4/M C M"
_symmetry_group_IT_number 140
_symmetry_cell_setting 'tetragonal'
loop_
_space_group_symop_operation_xyz
x,y,z
-y,x,z
-x,-y,z
y,-x,z
x,-y,1/2-z
-x,y,1/2-z
y,x,1/2-z
-y,-x,1/2-z
-x,-y,-z
y,-x,-z
x,y,-z
-y,x,-z
-x,y,1/2+z
x,-y,1/2+z
-y,-x,1/2+z
y,x,1/2+z
1/2+x,1/2+y,1/2+z
1/2-y,1/2+x,1/2+z
1/2-x,1/2-y,1/2+z
1/2+y,1/2-x,1/2+z
1/2+x,1/2-y,-z
1/2-x,1/2+y,-z
1/2+y,1/2+x,-z
1/2-y,1/2-x,-z
1/2-x,1/2-y,1/2-z
1/2+y,1/2-x,1/2-z
1/2+x,1/2+y,1/2-z
1/2-y,1/2+x,1/2-z
1/2-x,1/2+y,z
1/2+x,1/2-y,z
1/2-y,1/2-x,z
1/2+y,1/2+x,z
loop_
_atom_site_type_symbol
_atom_site_label
_atom_site_fract_x
_atom_site_fract_y
_atom_site_fract_z
Si Si1 0.712380 0.469647 0.500000
Si Si2 0.572604 0.410291 0.000000
Si Si3 0.810677 0.148862 0.500000
Si Si4 0.599187 0.188749 0.500000
Si Si5 0.813201 0.597601 0.000000
O O1 0.725491 0.500000 0.250000
O O2 0.648002 0.458018 0.500000
O O3 0.747444 0.412872 0.500000
O O4 0.561593 0.438408 0.250000
O O5 0.638528 0.395063 0.000000
O O6 0.817868 0.182133 0.750000
O O7 0.753019 0.116028 0.500000
O O8 0.657352 0.157352 0.500000
O O9 0.571798 0.170854 0.253041
O O10 0.841705 0.658296 0.000000
#
# Coordination Sequence:
#
# PCOD9572017 Si02
#       5
#    16  16  16  16  16
#     4  12  24  38  58  86 119 151 193 242 287 335
#     4  10  19  34  54  76 109 150 185 227 277 332
#     4  10  18  27  42  63  93 133 177 216 257 293
#     4  10  19  31  49  74 104 142 188 225 255 303
#     4  10  20  36  55  75 107 150 190 227 271 329
#
# _framework density 24.214082999999999
#
# number of rings (size 3 to 8) (size 9 to 14) (size 15 to 20)
#    0.000    1.600    0.000    8.400    0.000    0.800 
#    0.000    1.000    0.000    1.200    0.000    0.000 
#    0.000   30.400    0.000    0.000    0.000    0.000 
#
# Total GULP energy -223052.457770 kJ/mol
# GULP energy per Si atom -5576.311444 kJ/mol
# Density = 2.415897 g / cm^3
# Si number density = 24.214083 Si / 1000 Ang^3
#
#
#
# Elastic Constant Matrix: (Units=GPa)
#
#
# Indices 1 2 3 4 5 6 
#
# 1 80.4728 56.3585 26.9949 0.0000 0.0000 0.0000
# 2 56.3585 80.4702 26.9935 0.0000 0.0000 0.0000
# 3 26.9949 26.9935 346.1562 0.0000 0.0000 0.0000
# 4 0.0000 0.0000 0.0000 13.1500 0.0000 0.0000
# 5 0.0000 0.0000 0.0000 0.0000 13.1518 0.0000
# 6 0.0000 0.0000 0.0000 0.0000 0.0000 21.7812
#
#
#
# Elastic Compliance Matrix: (Units=1/GPa)
#
#
# Indices 1 2 3 4 5 6 
#
# 1 0.024505 -0.016965 -0.000588 0.000000 0.000000 0.000000
# 2 -0.016965 0.024506 -0.000588 0.000000 0.000000 0.000000
# 3 -0.000588 -0.000588 0.002981 0.000000 0.000000 0.000000
# 4 0.000000 0.000000 0.000000 0.076046 0.000000 0.000000
# 5 0.000000 0.000000 0.000000 0.000000 0.076035 0.000000
# 6 0.000000 0.000000 0.000000 0.000000 0.000000 0.045911
#
#
# Mechanical properties :
#
#
# Convention : Reuss Voigt Hill
#
# Bulk Modulus (GPa) = 63.65692 80.86591 72.26141
# Shear Modulus (GPa) = 17.15244 36.06675 26.60960
#
# Velocity S-wave (km/s) = 2.66440 3.86358 3.31861
# Velocity P-wave (km/s) = 5.98429 7.30560 6.67770
#
# Compressibility (1/GPa) = 0.01570921
#
# Stress axis : x y z
#
# Youngs Moduli (GPa) = 40.80724 40.80597 335.50522
#
# Poissons Ratio (x) = 0.69229 0.19730
# Poissons Ratio (y) = 0.69231 0.19727
# Poissons Ratio (z) = 0.02400 0.02399
#
# Static dielectric constant tensor:
#      x y z
#    x 1.919880 0.000000 0.000000 
#    y 0.000000 1.919890 0.000000 
#    z 0.000000 0.000000 2.099900 
# 
# From -- ./inp_files/164.got.cif
#   From: 2010.05.17/outbox.cif.g08.bks.cpg/sg140_1_cif.got.tgz:164.got - 2010.06.21 00:45:31.
