data_PCOD9572737
_publ_section_title
;
Structure prediction by ZEFSAII (Michael W. Deem and Ramdas Pophale) SiO2 
 PCOD9572737
Probable space group: I 41/A M D
;
_chemical_formula_sum "Si O2"
_cell_formula_units_Z 108
_cell_length_a 14.404938
_cell_length_b 14.404938
_cell_length_c 26.886139
_cell_angle_alpha 90.000000
_cell_angle_beta 90.000000
_cell_angle_gamma 90.000000
_cell_volume 5578.934035
_symmetry_space_group_name_H-M "I 41/A M D"
_symmetry_group_IT_number 141
_space_group.IT_coordinate_system_code '2'
_symmetry_cell_setting 'tetragonal'
loop_
_space_group_symop_operation_xyz
x,y,z
1/4-y,3/4+x,1/4+z
-x,1/2-y,z
1/4+y,1/4-x,3/4+z
x,-y,-z
-x,1/2+y,-z
1/4+y,3/4+x,1/4-z
1/4-y,1/4-x,3/4-z
-x,-y,-z
3/4+y,1/4-x,3/4-z
x,1/2+y,-z
3/4-y,3/4+x,1/4-z
-x,y,z
x,1/2-y,z
3/4-y,1/4-x,3/4+z
3/4+y,3/4+x,1/4+z
1/2+x,1/2+y,1/2+z
3/4-y,1/4+x,3/4+z
1/2-x,-y,1/2+z
3/4+y,3/4-x,1/4+z
1/2+x,1/2-y,1/2-z
1/2-x,y,1/2-z
3/4+y,1/4+x,3/4-z
3/4-y,3/4-x,1/4-z
1/2-x,1/2-y,1/2-z
1/4+y,3/4-x,1/4-z
1/2+x,y,1/2-z
1/4-y,1/4+x,3/4-z
1/2-x,1/2+y,1/2+z
1/2+x,-y,1/2+z
1/4-y,3/4-x,1/4+z
1/4+y,1/4+x,3/4+z
loop_
_atom_site_type_symbol
_atom_site_label
_atom_site_fract_x
_atom_site_fract_y
_atom_site_fract_z
Si Si1 0.705925 0.059720 0.184451
Si Si2 0.347198 0.500000 0.500000
Si Si3 0.000000 0.750000 0.625000
Si Si4 0.192725 0.750000 0.566913
Si Si5 0.000000 0.250000 0.616850
Si Si6 0.000000 0.144933 0.033616
Si Si7 0.298650 0.750000 0.669926
O O1 0.695373 0.054628 0.125000
O O2 0.601696 0.051247 0.207489
O O3 0.754215 0.158157 0.193393
O O4 0.764686 0.973852 0.204559
O O5 0.412157 0.585823 0.515375
O O6 0.908439 0.750000 0.592179
O O7 0.267983 0.750000 0.611433
O O8 0.086399 0.250000 0.656470
O O9 0.000000 0.159100 0.582951
O O10 0.000000 0.250000 0.013142
#
# Coordination Sequence:
#
# PCOD9572737 Si02
#       7
#    32  16   4  16   8  16  16
#     4  10  20  34  58  89 122 153 194 237 295 358
#     4  11  22  37  62  88 112 155 206 253 288 348
#     4  12  12  28  56  86 108 156 200 220 258 344
#     4  10  16  30  56  83 117 148 190 230 274 353
#     4  10  20  38  62  79 113 168 199 240 293 364
#     4   9  21  40  63  77 107 152 220 246 281 356
#     4  10  18  33  51  87 121 149 182 229 291 360
#
# _framework density 19.358536000000001
#
# number of rings (size 3 to 8) (size 9 to 14) (size 15 to 20)
#    0.444    1.481    4.444    3.556    2.074    0.593 
#    2.667    0.000    0.000    0.000    0.000    0.000 
#    0.000    0.000    0.000    0.000    0.000    0.000 
#
# Total GULP energy -300924.797037 kJ/mol
# GULP energy per Si atom -5572.681427 kJ/mol
# Density = 1.931447 g / cm^3
# Si number density = 19.358536 Si / 1000 Ang^3
#
#
#
# Elastic Constant Matrix: (Units=GPa)
#
#
# Indices 1 2 3 4 5 6 
#
# 1 149.7200 46.4501 31.0902 0.0000 0.0000 0.0000
# 2 46.4501 149.7206 31.0900 0.0000 0.0000 0.0000
# 3 31.0902 31.0900 44.3588 0.0000 0.0000 0.0000
# 4 0.0000 0.0000 0.0000 7.2932 0.0000 0.0000
# 5 0.0000 0.0000 0.0000 0.0000 7.2933 0.0000
# 6 0.0000 0.0000 0.0000 0.0000 0.0000 22.6550
#
#
#
# Elastic Compliance Matrix: (Units=1/GPa)
#
#
# Indices 1 2 3 4 5 6 
#
# 1 0.008118 -0.001565 -0.004593 0.000000 0.000000 0.000000
# 2 -0.001565 0.008118 -0.004593 0.000000 0.000000 0.000000
# 3 -0.004593 -0.004593 0.028982 0.000000 0.000000 0.000000
# 4 0.000000 0.000000 0.000000 0.137114 0.000000 0.000000
# 5 0.000000 0.000000 0.000000 0.000000 0.137112 0.000000
# 6 0.000000 0.000000 0.000000 0.000000 0.000000 0.044140
#
#
# Mechanical properties :
#
#
# Convention : Reuss Voigt Hill
#
# Bulk Modulus (GPa) = 42.16530 62.33998 52.25264
# Shear Modulus (GPa) = 12.72288 23.12626 17.92457
#
# Velocity S-wave (km/s) = 2.56642 3.46009 3.04620
# Velocity P-wave (km/s) = 5.53268 6.94519 6.27878
#
# Compressibility (1/GPa) = 0.02371618
#
# Stress axis : x y z
#
# Youngs Moduli (GPa) = 123.17610 123.17699 34.50417
#
# Poissons Ratio (x) = 0.19276 0.15849
# Poissons Ratio (y) = 0.19276 0.15848
# Poissons Ratio (z) = 0.56578 0.56577
#
# Static dielectric constant tensor:
#      x y z
#    x 1.713440 0.000000 0.000000 
#    y 0.000000 1.713440 0.000000 
#    z 0.000000 0.000000 1.704550 
# 
# From -- ./inp_files/14087.got.cif
#   From: 2010.05.17/outbox.cif.g08.bks.cpg/sg141_8_cif.got.tgz:14087.got - 2010.05.20 13:30:51.
