data_PCOD9572475
_publ_section_title
;
Structure prediction by ZEFSAII (Michael W. Deem and Ramdas Pophale) SiO2 
 PCOD9572475
Probable space group: I 4/M C M
;
_chemical_formula_sum "Si O2"
_cell_formula_units_Z 136
_cell_length_a 17.888608
_cell_length_b 17.888608
_cell_length_c 22.601191
_cell_angle_alpha 90.000000
_cell_angle_beta 90.000000
_cell_angle_gamma 90.000000
_cell_volume 7232.433016
_symmetry_space_group_name_H-M "I 4/M C M"
_symmetry_group_IT_number 140
_symmetry_cell_setting 'tetragonal'
loop_
_space_group_symop_operation_xyz
x,y,z
-y,x,z
-x,-y,z
y,-x,z
x,-y,1/2-z
-x,y,1/2-z
y,x,1/2-z
-y,-x,1/2-z
-x,-y,-z
y,-x,-z
x,y,-z
-y,x,-z
-x,y,1/2+z
x,-y,1/2+z
-y,-x,1/2+z
y,x,1/2+z
1/2+x,1/2+y,1/2+z
1/2-y,1/2+x,1/2+z
1/2-x,1/2-y,1/2+z
1/2+y,1/2-x,1/2+z
1/2+x,1/2-y,-z
1/2-x,1/2+y,-z
1/2+y,1/2+x,-z
1/2-y,1/2-x,-z
1/2-x,1/2-y,1/2-z
1/2+y,1/2-x,1/2-z
1/2+x,1/2+y,1/2-z
1/2-y,1/2+x,1/2-z
1/2-x,1/2+y,z
1/2+x,1/2-y,z
1/2-y,1/2-x,z
1/2+y,1/2+x,z
loop_
_atom_site_type_symbol
_atom_site_label
_atom_site_fract_x
_atom_site_fract_y
_atom_site_fract_z
Si Si1 0.500000 0.500000 0.924359
Si Si2 0.665034 0.036987 0.500000
Si Si3 0.374687 0.618832 0.609967
Si Si4 0.160530 0.213777 0.500000
Si Si5 0.497298 0.124285 0.371088
Si Si6 0.785461 0.994632 0.180622
O O1 0.434268 0.436128 0.920935
O O2 0.601395 0.101395 0.500000
O O3 0.744104 0.079848 0.500000
O O4 0.652187 0.992981 0.560687
O O5 0.334317 0.664908 0.558878
O O6 0.320087 0.567037 0.648223
O O7 0.422713 0.673921 0.651904
O O8 0.222817 0.277184 0.500000
O O9 0.568066 0.068066 0.366741
O O10 0.508159 0.197271 0.331703
O O11 0.424620 0.075381 0.356144
O O12 0.801815 0.000000 0.250000
#
# Coordination Sequence:
#
# PCOD9572475 Si02
#       6
#     8  16  32  16  32  32
#     4   8  20  37  61  88 110 152 197 245 300 342
#     4   9  17  35  61  86 116 153 195 243 306 369
#     4  10  22  40  63  90 123 156 206 261 308 376
#     4  11  22  37  62  93 127 163 197 249 322 378
#     4  10  21  38  62  90 118 156 210 263 309 365
#     4  11  23  40  62  88 121 166 209 254 309 370
#
# _framework density 18.804182999999998
#
# number of rings (size 3 to 8) (size 9 to 14) (size 15 to 20)
#    0.000    1.882    2.353    1.059    0.000    8.471 
#    0.000    4.706    0.000    4.235    0.000    0.000 
#    0.000    0.000    0.000    0.000    0.000    0.000 
#
# Total GULP energy -378680.387596 kJ/mol
# GULP energy per Si atom -5568.829229 kJ/mol
# Density = 1.876138 g / cm^3
# Si number density = 18.804183 Si / 1000 Ang^3
#
#
#
# Elastic Constant Matrix: (Units=GPa)
#
#
# Indices 1 2 3 4 5 6 
#
# 1 100.1011 33.1263 35.6186 0.0000 0.0000 0.0000
# 2 33.1263 100.0998 35.6178 0.0000 0.0000 0.0000
# 3 35.6186 35.6178 108.5752 0.0000 0.0000 0.0000
# 4 0.0000 0.0000 0.0000 16.7766 0.0000 0.0000
# 5 0.0000 0.0000 0.0000 0.0000 16.7777 0.0000
# 6 0.0000 0.0000 0.0000 0.0000 0.0000 30.2175
#
#
#
# Elastic Compliance Matrix: (Units=1/GPa)
#
#
# Indices 1 2 3 4 5 6 
#
# 1 0.012017 -0.002914 -0.002986 0.000000 0.000000 0.000000
# 2 -0.002914 0.012017 -0.002986 0.000000 0.000000 0.000000
# 3 -0.002986 -0.002986 0.011169 0.000000 0.000000 0.000000
# 4 0.000000 0.000000 0.000000 0.059607 0.000000 0.000000
# 5 0.000000 0.000000 0.000000 0.000000 0.059603 0.000000
# 6 0.000000 0.000000 0.000000 0.000000 0.000000 0.033093
#
#
# Mechanical properties :
#
#
# Convention : Reuss Voigt Hill
#
# Bulk Modulus (GPa) = 57.37163 57.50018 57.43590
# Shear Modulus (GPa) = 23.68663 26.38192 25.03427
#
# Velocity S-wave (km/s) = 3.55300 3.74970 3.65268
# Velocity P-wave (km/s) = 6.88535 7.02793 6.95700
#
# Compressibility (1/GPa) = 0.01743022
#
# Stress axis : x y z
#
# Youngs Moduli (GPa) = 83.21640 83.21564 89.53018
#
# Poissons Ratio (x) = 0.24251 0.26735
# Poissons Ratio (y) = 0.24251 0.26735
# Poissons Ratio (z) = 0.24850 0.24849
#
# Static dielectric constant tensor:
#      x y z
#    x 1.632660 0.000000 0.000000 
#    y 0.000000 1.632660 0.000000 
#    z 0.000000 0.000000 1.652450 
# 
# From -- ./inp_files/8124.got.cif
#   From: 2010.05.17/outbox.cif.g08.bks.cpg/sg140_5_cif.got.tgz:8124.got - 2010.06.21 00:45:31.
