data_PCOD9572109
_publ_section_title
;
Structure prediction by ZEFSAII (Michael W. Deem and Ramdas Pophale) SiO2 
 PCOD9572109
Probable space group: I 4/M C M
;
_chemical_formula_sum "Si O2"
_cell_formula_units_Z 112
_cell_length_a 17.497839
_cell_length_b 17.497839
_cell_length_c 20.240535
_cell_angle_alpha 90.000000
_cell_angle_beta 90.000000
_cell_angle_gamma 90.000000
_cell_volume 6197.133045
_symmetry_space_group_name_H-M "I 4/M C M"
_symmetry_group_IT_number 140
_symmetry_cell_setting 'tetragonal'
loop_
_space_group_symop_operation_xyz
x,y,z
-y,x,z
-x,-y,z
y,-x,z
x,-y,1/2-z
-x,y,1/2-z
y,x,1/2-z
-y,-x,1/2-z
-x,-y,-z
y,-x,-z
x,y,-z
-y,x,-z
-x,y,1/2+z
x,-y,1/2+z
-y,-x,1/2+z
y,x,1/2+z
1/2+x,1/2+y,1/2+z
1/2-y,1/2+x,1/2+z
1/2-x,1/2-y,1/2+z
1/2+y,1/2-x,1/2+z
1/2+x,1/2-y,-z
1/2-x,1/2+y,-z
1/2+y,1/2+x,-z
1/2-y,1/2-x,-z
1/2-x,1/2-y,1/2-z
1/2+y,1/2-x,1/2-z
1/2+x,1/2+y,1/2-z
1/2-y,1/2+x,1/2-z
1/2-x,1/2+y,z
1/2+x,1/2-y,z
1/2-y,1/2-x,z
1/2+y,1/2+x,z
loop_
_atom_site_type_symbol
_atom_site_label
_atom_site_fract_x
_atom_site_fract_y
_atom_site_fract_z
Si Si1 0.572063 0.802638 0.377137
Si Si2 0.685030 0.683713 0.673905
Si Si3 0.592038 0.780153 0.926564
Si Si4 0.500000 0.879075 0.250000
O O1 0.633957 0.866044 0.399266
O O2 0.615370 0.723216 0.364698
O O3 0.497359 0.797459 0.421466
O O4 0.540440 0.830234 0.305859
O O5 0.665310 0.665310 0.750000
O O6 0.750355 0.749646 0.676468
O O7 0.722179 0.616159 0.631399
O O8 0.643705 0.856295 0.917988
O O9 0.610527 0.749906 0.000000
O O10 0.435265 0.935265 0.279720
#
# Coordination Sequence:
#
# PCOD9572109 Si02
#       4
#    32  32  32  16
#     4  10  19  31  51  76 101 134 174 211 251 307
#     4   9  18  33  53  76 102 135 176 218 258 304
#     4  10  21  35  50  73 108 142 170 210 263 310
#     4   9  16  26  44  74 108 133 158 202 256 303
#
# _framework density 18.072873000000001
#
# number of rings (size 3 to 8) (size 9 to 14) (size 15 to 20)
#    0.000    2.429    0.000    2.571    0.000    8.000 
#    0.000    4.286    0.000    0.857    0.000    4.000 
#    0.000    0.000    0.000    0.000    0.000    0.000 
#
# Total GULP energy -312244.289722 kJ/mol
# GULP energy per Si atom -5575.790888 kJ/mol
# Density = 1.803174 g / cm^3
# Si number density = 18.072873 Si / 1000 Ang^3
#
#
#
# Elastic Constant Matrix: (Units=GPa)
#
#
# Indices 1 2 3 4 5 6 
#
# 1 58.0621 45.7415 30.7785 0.0000 0.0000 0.0000
# 2 45.7415 58.0621 30.7785 0.0000 0.0000 0.0000
# 3 30.7785 30.7785 90.7543 0.0000 0.0000 0.0000
# 4 0.0000 0.0000 0.0000 20.9097 0.0000 0.0000
# 5 0.0000 0.0000 0.0000 0.0000 20.9097 0.0000
# 6 0.0000 0.0000 0.0000 0.0000 0.0000 22.1787
#
#
#
# Elastic Compliance Matrix: (Units=1/GPa)
#
#
# Indices 1 2 3 4 5 6 
#
# 1 0.046612 -0.034553 -0.004090 0.000000 0.000000 0.000000
# 2 -0.034553 0.046612 -0.004090 0.000000 0.000000 0.000000
# 3 -0.004090 -0.004090 0.013793 0.000000 0.000000 0.000000
# 4 0.000000 0.000000 0.000000 0.047825 0.000000 0.000000
# 5 0.000000 0.000000 0.000000 0.000000 0.047825 0.000000
# 6 0.000000 0.000000 0.000000 0.000000 0.000000 0.045088
#
#
# Mechanical properties :
#
#
# Convention : Reuss Voigt Hill
#
# Bulk Modulus (GPa) = 46.39997 46.83061 46.61529
# Shear Modulus (GPa) = 14.68851 19.43828 17.06340
#
# Velocity S-wave (km/s) = 2.85395 3.28312 3.07603
# Velocity P-wave (km/s) = 6.04893 6.35139 6.20201
#
# Compressibility (1/GPa) = 0.02155174
#
# Stress axis : x y z
#
# Youngs Moduli (GPa) = 21.45386 21.45386 72.50230
#
# Poissons Ratio (x) = 0.74129 0.29651
# Poissons Ratio (y) = 0.74129 0.29651
# Poissons Ratio (z) = 0.08774 0.08774
#
# Static dielectric constant tensor:
#      x y z
#    x 1.620940 0.000000 0.000000 
#    y 0.000000 1.620940 0.000000 
#    z 0.000000 0.000000 1.635710 
# 
# From -- ./inp_files/6098.got.cif
#   From: 2010.05.17/outbox.cif.g08.bks.cpg/sg140_4_cif.got.tgz:6098.got - 2010.06.21 00:45:31.
