data_PCOD9572583
_publ_section_title
;
Structure prediction by ZEFSAII (Michael W. Deem and Ramdas Pophale) SiO2 
 PCOD9572583
Probable space group: I 4/M C M
;
_chemical_formula_sum "Si O2"
_cell_formula_units_Z 68
_cell_length_a 11.678826
_cell_length_b 11.678826
_cell_length_c 27.241978
_cell_angle_alpha 90.000000
_cell_angle_beta 90.000000
_cell_angle_gamma 90.000000
_cell_volume 3715.668956
_symmetry_space_group_name_H-M "I 4/M C M"
_symmetry_group_IT_number 140
_symmetry_cell_setting 'tetragonal'
loop_
_space_group_symop_operation_xyz
x,y,z
-y,x,z
-x,-y,z
y,-x,z
x,-y,1/2-z
-x,y,1/2-z
y,x,1/2-z
-y,-x,1/2-z
-x,-y,-z
y,-x,-z
x,y,-z
-y,x,-z
-x,y,1/2+z
x,-y,1/2+z
-y,-x,1/2+z
y,x,1/2+z
1/2+x,1/2+y,1/2+z
1/2-y,1/2+x,1/2+z
1/2-x,1/2-y,1/2+z
1/2+y,1/2-x,1/2+z
1/2+x,1/2-y,-z
1/2-x,1/2+y,-z
1/2+y,1/2+x,-z
1/2-y,1/2-x,-z
1/2-x,1/2-y,1/2-z
1/2+y,1/2-x,1/2-z
1/2+x,1/2+y,1/2-z
1/2-y,1/2+x,1/2-z
1/2-x,1/2+y,z
1/2+x,1/2-y,z
1/2-y,1/2-x,z
1/2+y,1/2+x,z
loop_
_atom_site_type_symbol
_atom_site_label
_atom_site_fract_x
_atom_site_fract_y
_atom_site_fract_z
Si Si1 0.679723 0.179723 0.207711
Si Si2 0.404293 0.904293 0.941295
Si Si3 0.818205 0.940237 0.622318
Si Si4 0.500000 0.000000 0.750000
O O1 0.750000 0.250000 0.250000
O O2 0.764212 0.105296 0.173238
O O3 0.587210 0.087210 0.224596
O O4 0.280525 0.930541 0.918322
O O5 0.500000 0.000000 0.926573
O O6 0.401266 0.901266 0.000000
O O7 0.930137 0.861486 0.618154
#
# Coordination Sequence:
#
# PCOD9572583 Si02
#       4
#    16  16  32   4
#     4  11  23  39  63  93 129 169 216 262 321 384
#     4  10  24  41  65  93 125 164 215 269 327 397
#     4  10  23  41  64  92 128 168 212 265 322 383
#     4  12  24  36  60  88 122 168 208 260 320 380
#
# _framework density 18.300877
#
# number of rings (size 3 to 8) (size 9 to 14) (size 15 to 20)
#    0.000    1.647    0.000    2.824   13.176    1.882 
#    0.000    4.706    0.000    0.000    0.000    0.000 
#    0.000    0.000    0.000    0.000    0.000    0.000 
#
# Total GULP energy -189399.230645 kJ/mol
# GULP energy per Si atom -5570.565607 kJ/mol
# Density = 1.825922 g / cm^3
# Si number density = 18.300877 Si / 1000 Ang^3
#
#
#
# Elastic Constant Matrix: (Units=GPa)
#
#
# Indices 1 2 3 4 5 6 
#
# 1 200.8592 96.1211 83.2140 0.0000 0.0000 0.0000
# 2 96.1211 200.8592 83.2140 0.0000 0.0000 0.0000
# 3 83.2140 83.2140 115.1595 0.0000 0.0000 0.0000
# 4 0.0000 0.0000 0.0000 3.8696 0.0000 0.0000
# 5 0.0000 0.0000 0.0000 0.0000 3.8696 0.0000
# 6 0.0000 0.0000 0.0000 0.0000 0.0000 -11.5368
#
#
#
# Elastic Compliance Matrix: (Units=1/GPa)
#
#
# Indices 1 2 3 4 5 6 
#
# 1 0.007603 -0.001944 -0.004089 0.000000 0.000000 0.000000
# 2 -0.001944 0.007603 -0.004089 0.000000 0.000000 0.000000
# 3 -0.004089 -0.004089 0.014593 0.000000 0.000000 0.000000
# 4 0.000000 0.000000 0.000000 0.258422 0.000000 0.000000
# 5 0.000000 0.000000 0.000000 0.000000 0.258422 0.000000
# 6 0.000000 0.000000 0.000000 0.000000 0.000000 -0.086679
#
#
# Mechanical properties :
#
#
# Convention : Reuss Voigt Hill
#
# Bulk Modulus (GPa) = 104.66268 115.77509 110.21888
# Shear Modulus (GPa) = 10.34355 16.19574 13.26965
#
# Velocity S-wave (km/s) = 2.37996 2.97807 2.69566
# Velocity P-wave (km/s) = 8.05397 8.67321 8.36932
#
# Compressibility (1/GPa) = 0.00955450
#
# Stress axis : x y z
#
# Youngs Moduli (GPa) = 131.52444 131.52444 68.52631
#
# Poissons Ratio (x) = 0.25575 0.28020
# Poissons Ratio (y) = 0.25575 0.28020
# Poissons Ratio (z) = 0.53780 0.53780
#
# Static dielectric constant tensor:
#      x y z
#    x 1.441940 0.000000 0.000000 
#    y 0.000000 1.441940 0.000000 
#    z 0.000000 0.000000 1.635000 
# 
# From -- ./inp_files/10138.got.cif
#   From: 2010.05.17/outbox.cif.g08.bks.cpg/sg140_6_cif.got.tgz:10138.got - 2010.06.21 00:45:31.
