data_PCOD9572360
_publ_section_title
;
Structure prediction by ZEFSAII (Michael W. Deem and Ramdas Pophale) SiO2 
 PCOD9572360
Probable space group: I 4/M C M
;
_chemical_formula_sum "Si O2"
_cell_formula_units_Z 176
_cell_length_a 17.878078
_cell_length_b 17.878078
_cell_length_c 25.963536
_cell_angle_alpha 90.000000
_cell_angle_beta 90.000000
_cell_angle_gamma 90.000000
_cell_volume 8298.612667
_symmetry_space_group_name_H-M "I 4/M C M"
_symmetry_group_IT_number 140
_symmetry_cell_setting 'tetragonal'
loop_
_space_group_symop_operation_xyz
x,y,z
-y,x,z
-x,-y,z
y,-x,z
x,-y,1/2-z
-x,y,1/2-z
y,x,1/2-z
-y,-x,1/2-z
-x,-y,-z
y,-x,-z
x,y,-z
-y,x,-z
-x,y,1/2+z
x,-y,1/2+z
-y,-x,1/2+z
y,x,1/2+z
1/2+x,1/2+y,1/2+z
1/2-y,1/2+x,1/2+z
1/2-x,1/2-y,1/2+z
1/2+y,1/2-x,1/2+z
1/2+x,1/2-y,-z
1/2-x,1/2+y,-z
1/2+y,1/2+x,-z
1/2-y,1/2-x,-z
1/2-x,1/2-y,1/2-z
1/2+y,1/2-x,1/2-z
1/2+x,1/2+y,1/2-z
1/2-y,1/2+x,1/2-z
1/2-x,1/2+y,z
1/2+x,1/2-y,z
1/2-y,1/2-x,z
1/2+y,1/2+x,z
loop_
_atom_site_type_symbol
_atom_site_label
_atom_site_fract_x
_atom_site_fract_y
_atom_site_fract_z
Si Si1 0.397542 0.443238 0.670611
Si Si2 0.257818 0.359613 0.285886
Si Si3 0.500353 0.742769 0.557496
Si Si4 0.671352 0.000000 0.750000
Si Si5 0.120809 0.499885 0.866402
Si Si6 0.109677 0.897284 0.557677
O O1 0.471696 0.400644 0.690980
O O2 0.319927 0.401636 0.680252
O O3 0.409763 0.441019 0.609353
O O4 0.305601 0.305601 0.250000
O O5 0.192131 0.307870 0.310429
O O6 0.219049 0.424218 0.252610
O O7 0.509230 0.776227 0.500000
O O8 0.500992 0.801365 0.603598
O O9 0.569925 0.683702 0.563934
O O10 0.421393 0.697339 0.556696
O O11 0.629203 0.999720 0.695568
O O12 0.072363 0.427638 0.880980
O O13 0.072575 0.572575 0.880673
O O14 0.084819 0.920259 0.500000
#
# Coordination Sequence:
#
# PCOD9572360 Si02
#       6
#    32  32  32  16  32  32
#     4  11  22  37  63  97 131 170 215 268 327 397
#     4  11  25  42  63  92 128 173 217 271 339 404
#     4  10  22  40  66 102 137 175 221 273 340 404
#     4  12  24  45  68  97 134 172 230 286 336 407
#     4  11  25  46  72  98 128 174 231 288 339 397
#     4  10  20  37  64  95 131 171 212 263 322 395
#
# _framework density 21.208364
#
# number of rings (size 3 to 8) (size 9 to 14) (size 15 to 20)
#    0.000    1.273    1.818    3.818    2.545    1.818 
#    0.000    5.455    0.000    6.000    0.000    0.000 
#    0.000    0.000    0.000    0.000    0.000    0.000 
#
# Total GULP energy -490167.323567 kJ/mol
# GULP energy per Si atom -5570.083222 kJ/mol
# Density = 2.116009 g / cm^3
# Si number density = 21.208364 Si / 1000 Ang^3
#
#
#
# Elastic Constant Matrix: (Units=GPa)
#
#
# Indices 1 2 3 4 5 6 
#
# 1 122.3032 74.4146 38.7668 0.0000 0.0000 0.0000
# 2 74.4146 122.3032 38.7668 0.0000 0.0000 0.0000
# 3 38.7668 38.7668 82.2800 0.0000 0.0000 0.0000
# 4 0.0000 0.0000 0.0000 42.1951 0.0000 0.0000
# 5 0.0000 0.0000 0.0000 0.0000 42.1951 0.0000
# 6 0.0000 0.0000 0.0000 0.0000 0.0000 35.3609
#
#
#
# Elastic Compliance Matrix: (Units=1/GPa)
#
#
# Indices 1 2 3 4 5 6 
#
# 1 0.013562 -0.007320 -0.002941 0.000000 0.000000 0.000000
# 2 -0.007320 0.013562 -0.002941 0.000000 0.000000 0.000000
# 3 -0.002941 -0.002941 0.014925 0.000000 0.000000 0.000000
# 4 0.000000 0.000000 0.000000 0.023699 0.000000 0.000000
# 5 0.000000 0.000000 0.000000 0.000000 0.023699 0.000000
# 6 0.000000 0.000000 0.000000 0.000000 0.000000 0.028280
#
#
# Mechanical properties :
#
#
# Convention : Reuss Voigt Hill
#
# Bulk Modulus (GPa) = 63.91630 70.08700 67.00165
# Shear Modulus (GPa) = 33.47889 35.61275 34.54582
#
# Velocity S-wave (km/s) = 3.97743 4.10223 4.04031
# Velocity P-wave (km/s) = 7.16212 7.45361 7.30932
#
# Compressibility (1/GPa) = 0.01564546
#
# Stress axis : x y z
#
# Youngs Moduli (GPa) = 73.73420 73.73420 67.00060
#
# Poissons Ratio (x) = 0.53970 0.19707
# Poissons Ratio (y) = 0.53970 0.19707
# Poissons Ratio (z) = 0.21687 0.21687
#
# Static dielectric constant tensor:
#      x y z
#    x 1.798630 0.000000 0.000000 
#    y 0.000000 1.798630 0.000000 
#    z 0.000000 0.000000 1.784360 
# 
# From -- ./inp_files/10666.got.cif
#   From: 2010.05.17/outbox.cif.g08.bks.cpg/sg140_6_cif.got.tgz:10666.got - 2010.06.21 00:45:31.
