data_PCOD9572561
_publ_section_title
;
Structure prediction by ZEFSAII (Michael W. Deem and Ramdas Pophale) SiO2 
 PCOD9572561
Probable space group: I 4/M C M
;
_chemical_formula_sum "Si O2"
_cell_formula_units_Z 108
_cell_length_a 15.554391
_cell_length_b 15.554391
_cell_length_c 23.681140
_cell_angle_alpha 90.000000
_cell_angle_beta 90.000000
_cell_angle_gamma 90.000000
_cell_volume 5729.393210
_symmetry_space_group_name_H-M "I 4/M C M"
_symmetry_group_IT_number 140
_symmetry_cell_setting 'tetragonal'
loop_
_space_group_symop_operation_xyz
x,y,z
-y,x,z
-x,-y,z
y,-x,z
x,-y,1/2-z
-x,y,1/2-z
y,x,1/2-z
-y,-x,1/2-z
-x,-y,-z
y,-x,-z
x,y,-z
-y,x,-z
-x,y,1/2+z
x,-y,1/2+z
-y,-x,1/2+z
y,x,1/2+z
1/2+x,1/2+y,1/2+z
1/2-y,1/2+x,1/2+z
1/2-x,1/2-y,1/2+z
1/2+y,1/2-x,1/2+z
1/2+x,1/2-y,-z
1/2-x,1/2+y,-z
1/2+y,1/2+x,-z
1/2-y,1/2-x,-z
1/2-x,1/2-y,1/2-z
1/2+y,1/2-x,1/2-z
1/2+x,1/2+y,1/2-z
1/2-y,1/2+x,1/2-z
1/2-x,1/2+y,z
1/2+x,1/2-y,z
1/2-y,1/2-x,z
1/2+y,1/2+x,z
loop_
_atom_site_type_symbol
_atom_site_label
_atom_site_fract_x
_atom_site_fract_y
_atom_site_fract_z
Si Si1 0.860977 0.989623 0.317772
Si Si2 0.000000 0.000000 0.000000
Si Si3 0.700996 0.938096 0.388667
Si Si4 0.412421 0.087580 0.934704
Si Si5 0.296325 0.796325 0.500000
Si Si6 0.593933 0.686654 0.500000
O O1 0.911014 0.076306 0.336489
O O2 0.859054 0.000000 0.250000
O O3 0.767229 0.971220 0.341613
O O4 0.094859 0.951296 0.000000
O O5 0.651177 0.848824 0.376403
O O6 0.757956 0.930280 0.445121
O O7 0.629311 0.008921 0.402362
O O8 0.435099 0.064902 0.000000
O O9 0.339992 0.160009 0.945514
O O10 0.318664 0.696820 0.500000
#
# Coordination Sequence:
#
# PCOD9572561 Si02
#       6
#    32   4  32  16   8  16
#     4   9  22  45  68  91 121 162 210 263 324 373
#     4  12  28  36  56  96 138 172 208 256 316 386
#     4  12  24  40  64  91 127 168 209 256 313 380
#     4  10  23  40  60  86 125 176 203 241 315 383
#     4  10  22  42  57  89 134 160 214 260 300 372
#     4  12  24  38  57  96 133 163 206 262 313 375
#
# _framework density 18.850162999999998
#
# number of rings (size 3 to 8) (size 9 to 14) (size 15 to 20)
#    0.444    0.889    2.963    3.111    8.296    0.593 
#    2.667    1.481    0.000    0.000    0.000    0.000 
#    0.000    0.000    0.000    0.000    0.000    0.000 
#
# Total GULP energy -300934.045728 kJ/mol
# GULP energy per Si atom -5572.852699 kJ/mol
# Density = 1.880726 g / cm^3
# Si number density = 18.850163 Si / 1000 Ang^3
#
#
#
# Elastic Constant Matrix: (Units=GPa)
#
#
# Indices 1 2 3 4 5 6 
#
# 1 290.3684 -54.0718 35.7189 0.0000 0.0000 0.0000
# 2 -54.0718 290.3631 35.7190 0.0000 0.0000 0.0000
# 3 35.7189 35.7190 45.6279 0.0000 0.0000 0.0000
# 4 0.0000 0.0000 0.0000 -27.0595 0.0000 0.0000
# 5 0.0000 0.0000 0.0000 0.0000 -27.0593 0.0000
# 6 0.0000 0.0000 0.0000 0.0000 0.0000 42.6714
#
#
#
# Elastic Compliance Matrix: (Units=1/GPa)
#
#
# Indices 1 2 3 4 5 6 
#
# 1 0.004224 0.001320 -0.004340 0.000000 0.000000 0.000000
# 2 0.001320 0.004224 -0.004340 0.000000 0.000000 0.000000
# 3 -0.004340 -0.004340 0.028712 0.000000 0.000000 0.000000
# 4 0.000000 0.000000 0.000000 -0.036956 0.000000 0.000000
# 5 0.000000 0.000000 0.000000 0.000000 -0.036956 0.000000
# 6 0.000000 0.000000 0.000000 0.000000 0.000000 0.023435
#
#
# Mechanical properties :
#
#
# Convention : Reuss Voigt Hill
#
# Bulk Modulus (GPa) = 44.56451 73.45462 59.00956
# Shear Modulus (GPa) = 562.93088 38.31006 300.62047
#
# Velocity S-wave (km/s) = 17.29979 4.51305 12.64220
# Velocity P-wave (km/s) = 20.56056 8.13689 15.63562
#
# Compressibility (1/GPa) = 0.02243938
#
# Stress axis : x y z
#
# Youngs Moduli (GPa) = 236.76051 236.75563 34.82907
#
# Poissons Ratio (x) = -0.31262 0.15116
# Poissons Ratio (y) = -0.31263 0.15116
# Poissons Ratio (z) = 1.02757 1.02756
#
# Static dielectric constant tensor:
#      x y z
#    x 1.656740 0.000000 0.000000 
#    y 0.000000 1.656740 0.000000 
#    z 0.000000 0.000000 1.610370 
# 
# From -- ./inp_files/9147.got.cif
#   From: 2010.05.17/outbox.cif.g08.bks.cpg/sg140_5_cif.got.tgz:9147.got - 2010.06.21 00:45:31.
