data_PCOD9572252
_publ_section_title
;
Structure prediction by ZEFSAII (Michael W. Deem and Ramdas Pophale) SiO2 
 PCOD9572252
Probable space group: I 4/M C M
;
_chemical_formula_sum "Si O2"
_cell_formula_units_Z 160
_cell_length_a 30.820368
_cell_length_b 30.820368
_cell_length_c 9.769279
_cell_angle_alpha 90.000000
_cell_angle_beta 90.000000
_cell_angle_gamma 90.000000
_cell_volume 9279.790093
_symmetry_space_group_name_H-M "I 4/M C M"
_symmetry_group_IT_number 140
_symmetry_cell_setting 'tetragonal'
loop_
_space_group_symop_operation_xyz
x,y,z
-y,x,z
-x,-y,z
y,-x,z
x,-y,1/2-z
-x,y,1/2-z
y,x,1/2-z
-y,-x,1/2-z
-x,-y,-z
y,-x,-z
x,y,-z
-y,x,-z
-x,y,1/2+z
x,-y,1/2+z
-y,-x,1/2+z
y,x,1/2+z
1/2+x,1/2+y,1/2+z
1/2-y,1/2+x,1/2+z
1/2-x,1/2-y,1/2+z
1/2+y,1/2-x,1/2+z
1/2+x,1/2-y,-z
1/2-x,1/2+y,-z
1/2+y,1/2+x,-z
1/2-y,1/2-x,-z
1/2-x,1/2-y,1/2-z
1/2+y,1/2-x,1/2-z
1/2+x,1/2+y,1/2-z
1/2-y,1/2+x,1/2-z
1/2-x,1/2+y,z
1/2+x,1/2-y,z
1/2-y,1/2-x,z
1/2+y,1/2+x,z
loop_
_atom_site_type_symbol
_atom_site_label
_atom_site_fract_x
_atom_site_fract_y
_atom_site_fract_z
Si Si1 0.880278 0.051127 0.500000
Si Si2 0.051349 0.875169 0.500000
Si Si3 0.176559 0.676559 0.341553
Si Si4 0.662825 0.957583 0.837142
Si Si5 0.382238 0.764537 0.660750
Si Si6 0.832183 0.096617 0.254307
Si Si7 0.897924 0.397924 0.660856
O O1 0.925125 0.077922 0.500000
O O2 0.853041 0.068649 0.373938
O O3 0.882924 0.999693 0.500000
O O4 0.069185 0.846787 0.375519
O O5 0.187112 0.687112 0.500000
O O6 0.215580 0.655644 0.254912
O O7 0.139280 0.639280 0.345268
O O8 0.701598 0.922321 0.833718
O O9 0.623010 0.936444 0.751275
O O10 0.675435 0.000000 0.750000
O O11 0.653523 0.965756 0.000000
O O12 0.369773 0.760617 0.500000
O O13 0.396371 0.718261 0.719767
O O14 0.857357 0.142644 0.250000
O O15 0.908336 0.408336 0.500000
#
# Coordination Sequence:
#
# PCOD9572252 Si02
#       7
#    16  16  16  32  32  32  16
#     4  10  20  39  56  83 111 145 191 231 290 346
#     4  10  22  35  60  81 111 147 187 239 284 348
#     4   9  19  33  56  84 110 140 188 227 272 327
#     4  10  20  33  52  80 110 142 181 224 272 326
#     4  10  20  37  56  79 112 150 184 229 278 330
#     4  10  21  38  57  80 111 150 187 227 283 342
#     4   9  17  33  53  73 107 147 179 223 272 321
#
# _framework density 17.241769999999999
#
# number of rings (size 3 to 8) (size 9 to 14) (size 15 to 20)
#    0.000    2.200    1.000    1.800    1.400    5.000 
#    0.000    0.500    0.000    3.900    0.000    2.100 
#    0.000    0.000    0.000    0.000    0.000    0.000 
#
# Total GULP energy -445727.040730 kJ/mol
# GULP energy per Si atom -5571.588009 kJ/mol
# Density = 1.720253 g / cm^3
# Si number density = 17.241770 Si / 1000 Ang^3
#
#
#
# Elastic Constant Matrix: (Units=GPa)
#
#
# Indices 1 2 3 4 5 6 
#
# 1 52.6353 98.7678 65.2443 0.0000 0.0000 0.0000
# 2 98.7678 52.6133 65.2310 0.0000 0.0000 0.0000
# 3 65.2443 65.2310 188.7233 0.0000 0.0000 0.0000
# 4 0.0000 0.0000 0.0000 32.1825 0.0000 0.0000
# 5 0.0000 0.0000 0.0000 0.0000 32.1796 0.0000
# 6 0.0000 0.0000 0.0000 0.0000 0.0000 6.1376
#
#
#
# Elastic Compliance Matrix: (Units=1/GPa)
#
#
# Indices 1 2 3 4 5 6 
#
# 1 -0.006130 0.015540 -0.003252 0.000000 0.000000 0.000000
# 2 0.015540 -0.006133 -0.003253 0.000000 0.000000 0.000000
# 3 -0.003252 -0.003253 0.007547 0.000000 0.000000 0.000000
# 4 0.000000 0.000000 0.000000 0.031073 0.000000 0.000000
# 5 0.000000 0.000000 0.000000 0.000000 0.031076 0.000000
# 6 0.000000 0.000000 0.000000 0.000000 0.000000 0.162931
#
#
# Mechanical properties :
#
#
# Convention : Reuss Voigt Hill
#
# Bulk Modulus (GPa) = 74.87944 83.60645 79.24294
# Shear Modulus (GPa) = 24.18445 18.41519 21.29982
#
# Velocity S-wave (km/s) = 3.74928 3.27166 3.51858
# Velocity P-wave (km/s) = 7.89089 7.92891 7.90992
#
# Compressibility (1/GPa) = 0.01335480
#
# Stress axis : x y z
#
# Youngs Moduli (GPa) = -163.12322 -163.05390 132.49914
#
# Poissons Ratio (x) = 2.53384 0.43088
# Poissons Ratio (y) = 2.53492 0.43096
# Poissons Ratio (z) = -0.53046 -0.53034
#
# Static dielectric constant tensor:
#      x y z
#    x 1.563290 0.000000 0.000000 
#    y 0.000000 1.563300 0.000000 
#    z 0.000000 0.000000 1.574450 
# 
# From -- ./inp_files/1898.got.cif
#   From: 2010.05.17/outbox.cif.g08.bks.cpg/sg140_1_cif.got.tgz:1898.got - 2010.06.21 00:45:31.
