data_PCOD9572557
_publ_section_title
;
Structure prediction by ZEFSAII (Michael W. Deem and Ramdas Pophale) SiO2 
 PCOD9572557
Probable space group: I 4/M C M
;
_chemical_formula_sum "Si O2"
_cell_formula_units_Z 176
_cell_length_a 23.687982
_cell_length_b 23.687982
_cell_length_c 14.564290
_cell_angle_alpha 90.000000
_cell_angle_beta 90.000000
_cell_angle_gamma 90.000000
_cell_volume 8172.321559
_symmetry_space_group_name_H-M "I 4/M C M"
_symmetry_group_IT_number 140
_symmetry_cell_setting 'tetragonal'
loop_
_space_group_symop_operation_xyz
x,y,z
-y,x,z
-x,-y,z
y,-x,z
x,-y,1/2-z
-x,y,1/2-z
y,x,1/2-z
-y,-x,1/2-z
-x,-y,-z
y,-x,-z
x,y,-z
-y,x,-z
-x,y,1/2+z
x,-y,1/2+z
-y,-x,1/2+z
y,x,1/2+z
1/2+x,1/2+y,1/2+z
1/2-y,1/2+x,1/2+z
1/2-x,1/2-y,1/2+z
1/2+y,1/2-x,1/2+z
1/2+x,1/2-y,-z
1/2-x,1/2+y,-z
1/2+y,1/2+x,-z
1/2-y,1/2-x,-z
1/2-x,1/2-y,1/2-z
1/2+y,1/2-x,1/2-z
1/2+x,1/2+y,1/2-z
1/2-y,1/2+x,1/2-z
1/2-x,1/2+y,z
1/2+x,1/2-y,z
1/2-y,1/2-x,z
1/2+y,1/2+x,z
loop_
_atom_site_type_symbol
_atom_site_label
_atom_site_fract_x
_atom_site_fract_y
_atom_site_fract_z
Si Si1 0.082730 0.032824 0.890560
Si Si2 0.153889 0.131727 0.854749
Si Si3 0.754660 0.897378 0.399584
Si Si4 0.500000 0.905820 0.750000
Si Si5 0.189733 0.511434 0.892638
Si Si6 0.630224 0.222794 0.694170
O O1 0.139817 0.067214 0.877441
O O2 0.030332 0.071577 0.855089
O O3 0.077447 0.028184 0.000000
O O4 0.137574 0.137574 0.750000
O O5 0.115783 0.178667 0.903277
O O6 0.219764 0.146031 0.859086
O O7 0.731026 0.879324 0.500000
O O8 0.733593 0.869111 0.304571
O O9 0.737205 0.962750 0.388965
O O10 0.446080 0.946080 0.735307
O O11 0.490506 0.865625 0.837935
O O12 0.207960 0.567514 0.839037
O O13 0.178491 0.523236 0.000000
O O14 0.672757 0.172757 0.672437
#
# Coordination Sequence:
#
# PCOD9572557 Si02
#       6
#    32  32  32  16  32  32
#     4   9  19  36  58  85 120 162 209 263 319 377
#     4  10  23  38  60  94 131 170 213 269 330 391
#     4  10  22  41  66  96 128 170 223 277 335 396
#     4  11  24  44  70 100 136 172 213 278 346 404
#     4  11  24  43  70 100 133 179 229 276 334 405
#     4  11  24  44  66  94 136 180 225 279 333 395
#
# _framework density 21.536107000000001
#
# number of rings (size 3 to 8) (size 9 to 14) (size 15 to 20)
#    0.000    1.727    1.818    1.636    2.545    7.636 
#    0.000    3.636    0.000    0.000    0.000    0.000 
#    0.000    0.000    0.000    0.000    0.000    0.000 
#
# Total GULP energy -491012.231790 kJ/mol
# GULP energy per Si atom -5579.684452 kJ/mol
# Density = 2.148709 g / cm^3
# Si number density = 21.536107 Si / 1000 Ang^3
#
#
#
# Elastic Constant Matrix: (Units=GPa)
#
#
# Indices 1 2 3 4 5 6 
#
# 1 81.9157 54.2501 24.5722 0.0000 0.0000 0.0000
# 2 54.2501 81.9157 24.5722 0.0000 0.0000 0.0000
# 3 24.5722 24.5722 93.0300 0.0000 0.0000 0.0000
# 4 0.0000 0.0000 0.0000 0.2377 0.0000 0.0000
# 5 0.0000 0.0000 0.0000 0.0000 0.2377 0.0000
# 6 0.0000 0.0000 0.0000 0.0000 0.0000 35.2070
#
#
#
# Elastic Compliance Matrix: (Units=1/GPa)
#
#
# Indices 1 2 3 4 5 6 
#
# 1 0.022132 -0.014014 -0.002144 0.000000 0.000000 0.000000
# 2 -0.014014 0.022132 -0.002144 0.000000 0.000000 0.000000
# 3 -0.002144 -0.002144 0.011882 0.000000 0.000000 0.000000
# 4 0.000000 0.000000 0.000000 4.206828 0.000000 0.000000
# 5 0.000000 0.000000 0.000000 0.000000 4.206828 0.000000
# 6 0.000000 0.000000 0.000000 0.000000 0.000000 0.028403
#
#
# Mechanical properties :
#
#
# Convention : Reuss Voigt Hill
#
# Bulk Modulus (GPa) = 51.17473 51.51670 51.34572
# Shear Modulus (GPa) = 0.58539 17.36762 8.97650
#
# Velocity S-wave (km/s) = 0.52193 2.84287 2.04381
# Velocity P-wave (km/s) = 4.91702 5.89482 5.42798
#
# Compressibility (1/GPa) = 0.01954089
#
# Stress axis : x y z
#
# Youngs Moduli (GPa) = 45.18365 45.18365 84.16149
#
# Poissons Ratio (x) = 0.63321 0.18046
# Poissons Ratio (y) = 0.63321 0.18046
# Poissons Ratio (z) = 0.09688 0.09688
#
# Static dielectric constant tensor:
#      x y z
#    x 1.796130 0.000000 0.000000 
#    y 0.000000 1.796130 0.000000 
#    z 0.000000 0.000000 1.933930 
# 
# From -- ./inp_files/4920.got.cif
#   From: 2010.05.17/outbox.cif.g08.bks.cpg/sg140_3_cif.got.tgz:4920.got - 2010.06.21 00:45:31.
