data_PCOD9572097
_publ_section_title
;
Structure prediction by ZEFSAII (Michael W. Deem and Ramdas Pophale) SiO2 
 PCOD9572097
Probable space group: I 4/M C M
;
_chemical_formula_sum "Si O2"
_cell_formula_units_Z 176
_cell_length_a 18.653485
_cell_length_b 18.653485
_cell_length_c 30.595285
_cell_angle_alpha 90.000000
_cell_angle_beta 90.000000
_cell_angle_gamma 90.000000
_cell_volume 10645.705985
_symmetry_space_group_name_H-M "I 4/M C M"
_symmetry_group_IT_number 140
_symmetry_cell_setting 'tetragonal'
loop_
_space_group_symop_operation_xyz
x,y,z
-y,x,z
-x,-y,z
y,-x,z
x,-y,1/2-z
-x,y,1/2-z
y,x,1/2-z
-y,-x,1/2-z
-x,-y,-z
y,-x,-z
x,y,-z
-y,x,-z
-x,y,1/2+z
x,-y,1/2+z
-y,-x,1/2+z
y,x,1/2+z
1/2+x,1/2+y,1/2+z
1/2-y,1/2+x,1/2+z
1/2-x,1/2-y,1/2+z
1/2+y,1/2-x,1/2+z
1/2+x,1/2-y,-z
1/2-x,1/2+y,-z
1/2+y,1/2+x,-z
1/2-y,1/2-x,-z
1/2-x,1/2-y,1/2-z
1/2+y,1/2-x,1/2-z
1/2+x,1/2+y,1/2-z
1/2-y,1/2+x,1/2-z
1/2-x,1/2+y,z
1/2+x,1/2-y,z
1/2-y,1/2-x,z
1/2+y,1/2+x,z
loop_
_atom_site_type_symbol
_atom_site_label
_atom_site_fract_x
_atom_site_fract_y
_atom_site_fract_z
Si Si1 0.306462 0.589945 0.630839
Si Si2 0.664473 0.835528 0.809913
Si Si3 0.227334 0.727334 0.358859
Si Si4 0.882705 0.029087 0.048961
Si Si5 0.997623 0.284764 0.200411
Si Si6 0.584885 0.414062 0.202319
Si Si7 0.861710 0.361710 0.712405
O O1 0.267053 0.662763 0.616590
O O2 0.331531 0.546414 0.588914
O O3 0.262523 0.537786 0.663666
O O4 0.372384 0.616184 0.661542
O O5 0.716962 0.783039 0.836755
O O6 0.580499 0.811536 0.815388
O O7 0.669168 0.830833 0.757556
O O8 0.183196 0.683196 0.322387
O O9 0.950118 0.083246 0.052561
O O10 0.851980 0.036566 0.000000
O O11 0.054212 0.348472 0.207888
O O12 0.000000 0.250307 0.250000
O O13 0.595866 0.499002 0.200011
O O14 0.611163 0.388838 0.250000
#
# Coordination Sequence:
#
# PCOD9572097 Si02
#       7
#    32  16  16  32  32  32  16
#     4  11  21  33  52  70 104 141 166 206 257 316
#     4  10  19  31  48  72  98 132 180 224 251 297
#     4  10  23  32  43  72 108 135 167 203 263 319
#     4   9  19  36  58  81  99 124 169 214 253 305
#     4   9  20  32  49  71  98 138 184 218 256 296
#     4   9  19  30  43  68  97 127 166 207 246 293
#     4   8  17  37  46  62  98 143 180 216 253 295
#
# _framework density 16.532485999999999
#
# number of rings (size 3 to 8) (size 9 to 14) (size 15 to 20)
#    0.000    2.545    0.000    2.455    7.636    4.727 
#    0.000    2.273    0.000    0.000    0.000    0.636 
#    0.000    0.000    0.000    6.545    0.000    0.182 
#
# Total GULP energy -489997.308324 kJ/mol
# GULP energy per Si atom -5568.151231 kJ/mol
# Density = 1.649486 g / cm^3
# Si number density = 16.532486 Si / 1000 Ang^3
#
#
#
# Elastic Constant Matrix: (Units=GPa)
#
#
# Indices 1 2 3 4 5 6 
#
# 1 63.0443 29.6324 24.9422 0.0000 0.0000 0.0000
# 2 29.6324 63.0443 24.9422 0.0000 0.0000 0.0000
# 3 24.9422 24.9422 88.7507 0.0000 0.0000 0.0000
# 4 0.0000 0.0000 0.0000 18.1726 0.0000 0.0000
# 5 0.0000 0.0000 0.0000 0.0000 18.1725 0.0000
# 6 0.0000 0.0000 0.0000 0.0000 0.0000 9.2897
#
#
#
# Elastic Compliance Matrix: (Units=1/GPa)
#
#
# Indices 1 2 3 4 5 6 
#
# 1 0.021321 -0.008608 -0.003573 0.000000 0.000000 0.000000
# 2 -0.008608 0.021321 -0.003573 0.000000 0.000000 0.000000
# 3 -0.003573 -0.003573 0.013276 0.000000 0.000000 0.000000
# 4 0.000000 0.000000 0.000000 0.055028 0.000000 0.000000
# 5 0.000000 0.000000 0.000000 0.000000 0.055028 0.000000
# 6 0.000000 0.000000 0.000000 0.000000 0.000000 0.107646
#
#
# Mechanical properties :
#
#
# Convention : Reuss Voigt Hill
#
# Bulk Modulus (GPa) = 40.96543 41.54141 41.25342
# Shear Modulus (GPa) = 15.96089 18.14845 17.05467
#
# Velocity S-wave (km/s) = 3.11050 3.31682 3.21531
# Velocity P-wave (km/s) = 6.14271 6.31269 6.22828
#
# Compressibility (1/GPa) = 0.02441082
#
# Stress axis : x y z
#
# Youngs Moduli (GPa) = 46.90121 46.90122 75.32522
#
# Poissons Ratio (x) = 0.40373 0.26913
# Poissons Ratio (y) = 0.40373 0.26913
# Poissons Ratio (z) = 0.16757 0.16757
#
# Static dielectric constant tensor:
#      x y z
#    x 1.604130 0.000000 0.000000 
#    y 0.000000 1.604130 0.000000 
#    z 0.000000 0.000000 1.548460 
# 
# From -- ./inp_files/11572.got.cif
#   From: 2010.05.17/outbox.cif.g08.bks.cpg/sg140_6_cif.got.tgz:11572.got - 2010.06.21 00:45:31.
