data_PCOD9572782
_publ_section_title
;
Structure prediction by ZEFSAII (Michael W. Deem and Ramdas Pophale) SiO2 
 PCOD9572782
Probable space group: I 41/A M D
;
_chemical_formula_sum "Si O2"
_cell_formula_units_Z 128
_cell_length_a 19.911835
_cell_length_b 19.911835
_cell_length_c 19.514717
_cell_angle_alpha 90.000000
_cell_angle_beta 90.000000
_cell_angle_gamma 90.000000
_cell_volume 7737.217888
_symmetry_space_group_name_H-M "I 41/A M D"
_symmetry_group_IT_number 141
_space_group.IT_coordinate_system_code '2'
_symmetry_cell_setting 'tetragonal'
loop_
_space_group_symop_operation_xyz
x,y,z
1/4-y,3/4+x,1/4+z
-x,1/2-y,z
1/4+y,1/4-x,3/4+z
x,-y,-z
-x,1/2+y,-z
1/4+y,3/4+x,1/4-z
1/4-y,1/4-x,3/4-z
-x,-y,-z
3/4+y,1/4-x,3/4-z
x,1/2+y,-z
3/4-y,3/4+x,1/4-z
-x,y,z
x,1/2-y,z
3/4-y,1/4-x,3/4+z
3/4+y,3/4+x,1/4+z
1/2+x,1/2+y,1/2+z
3/4-y,1/4+x,3/4+z
1/2-x,-y,1/2+z
3/4+y,3/4-x,1/4+z
1/2+x,1/2-y,1/2-z
1/2-x,y,1/2-z
3/4+y,1/4+x,3/4-z
3/4-y,3/4-x,1/4-z
1/2-x,1/2-y,1/2-z
1/4+y,3/4-x,1/4-z
1/2+x,y,1/2-z
1/4-y,1/4+x,3/4-z
1/2-x,1/2+y,1/2+z
1/2+x,-y,1/2+z
1/4-y,3/4-x,1/4+z
1/4+y,1/4+x,3/4+z
loop_
_atom_site_type_symbol
_atom_site_label
_atom_site_fract_x
_atom_site_fract_y
_atom_site_fract_z
Si Si1 0.075400 0.971382 0.209053
Si Si2 0.194194 0.985500 0.696169
Si Si3 0.106249 0.040631 0.068240
Si Si4 0.078991 0.676197 0.246128
O O1 0.125739 0.006916 0.261610
O O2 0.092345 0.891760 0.203423
O O3 0.000000 0.975700 0.235820
O O4 0.079429 0.005830 0.135703
O O5 0.250000 0.960302 0.750000
O O6 0.212448 0.062787 0.677424
O O7 0.195375 0.945375 0.625000
O O8 0.081929 0.117082 0.057228
O O9 0.086066 0.000000 0.000000
O O10 0.090199 0.750000 0.213277
O O11 0.000000 0.674568 0.265814
#
# Coordination Sequence:
#
# PCOD9572782 Si02
#       4
#    32  32  32  32
#     4  10  20  33  51  75 102 133 171 213 254 300
#     4  10  18  32  53  75  99 132 170 207 253 303
#     4  10  20  32  51  74 101 133 172 211 252 301
#     4   9  19  34  49  68 101 139 171 205 248 300
#
# _framework density 16.543413999999999
#
# number of rings (size 3 to 8) (size 9 to 14) (size 15 to 20)
#    0.000    2.250    2.500    0.750    0.000    2.000 
#    0.000    3.750    0.000    8.250    0.000    0.000 
#    0.000    0.000    0.000    0.000    0.000    0.000 
#
# Total GULP energy -356753.798386 kJ/mol
# GULP energy per Si atom -5574.278100 kJ/mol
# Density = 1.650576 g / cm^3
# Si number density = 16.543414 Si / 1000 Ang^3
#
#
#
# Elastic Constant Matrix: (Units=GPa)
#
#
# Indices 1 2 3 4 5 6 
#
# 1 69.9623 32.9646 45.2966 0.0000 0.0000 0.0000
# 2 32.9646 69.9623 45.2966 0.0000 0.0000 0.0000
# 3 45.2966 45.2966 97.8552 0.0000 0.0000 0.0000
# 4 0.0000 0.0000 0.0000 12.2816 0.0000 0.0000
# 5 0.0000 0.0000 0.0000 0.0000 12.2816 0.0000
# 6 0.0000 0.0000 0.0000 0.0000 0.0000 14.1816
#
#
#
# Elastic Compliance Matrix: (Units=1/GPa)
#
#
# Indices 1 2 3 4 5 6 
#
# 1 0.021712 -0.005317 -0.007589 0.000000 0.000000 0.000000
# 2 -0.005317 0.021712 -0.007589 0.000000 0.000000 0.000000
# 3 -0.007589 -0.007589 0.017245 0.000000 0.000000 0.000000
# 4 0.000000 0.000000 0.000000 0.081423 0.000000 0.000000
# 5 0.000000 0.000000 0.000000 0.000000 0.081423 0.000000
# 6 0.000000 0.000000 0.000000 0.000000 0.000000 0.070514
#
#
# Mechanical properties :
#
#
# Convention : Reuss Voigt Hill
#
# Bulk Modulus (GPa) = 50.81590 53.87731 52.34660
# Shear Modulus (GPa) = 14.63787 15.36374 15.00081
#
# Velocity S-wave (km/s) = 2.97781 3.05075 3.01450
# Velocity P-wave (km/s) = 6.52737 6.71173 6.62019
#
# Compressibility (1/GPa) = 0.01967888
#
# Stress axis : x y z
#
# Youngs Moduli (GPa) = 46.05712 46.05712 57.98646
#
# Poissons Ratio (x) = 0.24486 0.44009
# Poissons Ratio (y) = 0.24486 0.44009
# Poissons Ratio (z) = 0.34955 0.34955
#
# Static dielectric constant tensor:
#      x y z
#    x 1.589890 0.000000 0.000000 
#    y 0.000000 1.589890 0.000000 
#    z 0.000000 0.000000 1.533530 
# 
# From -- ./inp_files/8241.got.cif
#   From: 2010.05.17/outbox.cif.g08.bks.cpg/sg141_5_cif.got.tgz:8241.got - 2010.05.20 13:30:51.
