data_PCOD9572416
_publ_section_title
;
Structure prediction by ZEFSAII (Michael W. Deem and Ramdas Pophale) SiO2 
 PCOD9572416
Probable space group: I 4/M C M
;
_chemical_formula_sum "Si O2"
_cell_formula_units_Z 112
_cell_length_a 17.778141
_cell_length_b 17.778141
_cell_length_c 16.581564
_cell_angle_alpha 90.000000
_cell_angle_beta 90.000000
_cell_angle_gamma 90.000000
_cell_volume 5240.807213
_symmetry_space_group_name_H-M "I 4/M C M"
_symmetry_group_IT_number 140
_symmetry_cell_setting 'tetragonal'
loop_
_space_group_symop_operation_xyz
x,y,z
-y,x,z
-x,-y,z
y,-x,z
x,-y,1/2-z
-x,y,1/2-z
y,x,1/2-z
-y,-x,1/2-z
-x,-y,-z
y,-x,-z
x,y,-z
-y,x,-z
-x,y,1/2+z
x,-y,1/2+z
-y,-x,1/2+z
y,x,1/2+z
1/2+x,1/2+y,1/2+z
1/2-y,1/2+x,1/2+z
1/2-x,1/2-y,1/2+z
1/2+y,1/2-x,1/2+z
1/2+x,1/2-y,-z
1/2-x,1/2+y,-z
1/2+y,1/2+x,-z
1/2-y,1/2-x,-z
1/2-x,1/2-y,1/2-z
1/2+y,1/2-x,1/2-z
1/2+x,1/2+y,1/2-z
1/2-y,1/2+x,1/2-z
1/2-x,1/2+y,z
1/2+x,1/2-y,z
1/2-y,1/2-x,z
1/2+y,1/2+x,z
loop_
_atom_site_type_symbol
_atom_site_label
_atom_site_fract_x
_atom_site_fract_y
_atom_site_fract_z
Si Si1 0.416069 0.916069 0.776438
Si Si2 0.833502 0.900704 0.835132
Si Si3 0.653613 0.153613 0.094979
Si Si4 0.300468 0.557523 0.592786
Si Si5 0.801490 0.301490 0.192685
O O1 0.500000 0.897922 0.750000
O O2 0.406254 0.906254 0.871743
O O3 0.357304 0.857304 0.739512
O O4 0.871378 0.871378 0.750000
O O5 0.895700 0.877196 0.899982
O O6 0.758251 0.853001 0.852352
O O7 0.809274 0.986729 0.847704
O O8 0.616277 0.234181 0.119112
O O9 0.658784 0.158784 0.000000
O O10 0.285950 0.534573 0.500000
O O11 0.750000 0.250000 0.250000
#
# Coordination Sequence:
#
# PCOD9572416 Si02
#       5
#    16  32  16  32  16
#     4  11  22  38  61  90 122 160 202 255 316 376
#     4  11  22  39  63  92 125 164 213 265 317 380
#     4  10  21  39  63  89 125 167 210 260 321 386
#     4  11  23  40  62  91 127 168 209 261 325 389
#     4  10  21  35  61  92 119 155 207 263 310 367
#
# _framework density 21.370753000000001
#
# number of rings (size 3 to 8) (size 9 to 14) (size 15 to 20)
#    0.000    1.286    0.000    7.714    0.000    0.571 
#    0.000    6.429    0.000   10.286    0.000    0.000 
#    0.000    0.000    0.000    0.000    0.000    0.000 
#
# Total GULP energy -312164.288240 kJ/mol
# GULP energy per Si atom -5574.362290 kJ/mol
# Density = 2.132211 g / cm^3
# Si number density = 21.370753 Si / 1000 Ang^3
#
#
#
# Elastic Constant Matrix: (Units=GPa)
#
#
# Indices 1 2 3 4 5 6 
#
# 1 121.1731 88.9947 30.9983 0.0000 0.0000 0.0000
# 2 88.9947 121.1731 30.9983 0.0000 0.0000 0.0000
# 3 30.9983 30.9983 57.6473 0.0000 0.0000 0.0000
# 4 0.0000 0.0000 0.0000 26.0258 0.0000 0.0000
# 5 0.0000 0.0000 0.0000 0.0000 26.0258 0.0000
# 6 0.0000 0.0000 0.0000 0.0000 0.0000 40.3612
#
#
#
# Elastic Compliance Matrix: (Units=1/GPa)
#
#
# Indices 1 2 3 4 5 6 
#
# 1 0.018366 -0.012711 -0.003041 0.000000 0.000000 0.000000
# 2 -0.012711 0.018366 -0.003041 0.000000 0.000000 0.000000
# 3 -0.003041 -0.003041 0.020617 0.000000 0.000000 0.000000
# 4 0.000000 0.000000 0.000000 0.038423 0.000000 0.000000
# 5 0.000000 0.000000 0.000000 0.000000 0.038423 0.000000
# 6 0.000000 0.000000 0.000000 0.000000 0.000000 0.024776
#
#
# Mechanical properties :
#
#
# Convention : Reuss Voigt Hill
#
# Bulk Modulus (GPa) = 50.59739 66.88622 58.74181
# Shear Modulus (GPa) = 24.61293 28.41605 26.51449
#
# Velocity S-wave (km/s) = 3.39737 3.65042 3.52617
# Velocity P-wave (km/s) = 6.25435 7.00952 6.64268
#
# Compressibility (1/GPa) = 0.01976386
#
# Stress axis : x y z
#
# Youngs Moduli (GPa) = 54.44865 54.44865 48.50326
#
# Poissons Ratio (x) = 0.69209 0.14749
# Poissons Ratio (y) = 0.69209 0.14749
# Poissons Ratio (z) = 0.16557 0.16557
#
# Static dielectric constant tensor:
#      x y z
#    x 1.781310 0.000000 0.000000 
#    y 0.000000 1.781310 0.000000 
#    z 0.000000 0.000000 1.913270 
# 
# From -- ./inp_files/6151.got.cif
#   From: 2010.05.17/outbox.cif.g08.bks.cpg/sg140_4_cif.got.tgz:6151.got - 2010.06.21 00:45:31.
