data_PCOD9572084
_publ_section_title
;
Structure prediction by ZEFSAII (Michael W. Deem and Ramdas Pophale) SiO2 
 PCOD9572084
Probable space group: I 4/M C M
;
_chemical_formula_sum "Si O2"
_cell_formula_units_Z 192
_cell_length_a 20.293083
_cell_length_b 20.293083
_cell_length_c 26.965414
_cell_angle_alpha 90.000000
_cell_angle_beta 90.000000
_cell_angle_gamma 90.000000
_cell_volume 11104.606043
_symmetry_space_group_name_H-M "I 4/M C M"
_symmetry_group_IT_number 140
_symmetry_cell_setting 'tetragonal'
loop_
_space_group_symop_operation_xyz
x,y,z
-y,x,z
-x,-y,z
y,-x,z
x,-y,1/2-z
-x,y,1/2-z
y,x,1/2-z
-y,-x,1/2-z
-x,-y,-z
y,-x,-z
x,y,-z
-y,x,-z
-x,y,1/2+z
x,-y,1/2+z
-y,-x,1/2+z
y,x,1/2+z
1/2+x,1/2+y,1/2+z
1/2-y,1/2+x,1/2+z
1/2-x,1/2-y,1/2+z
1/2+y,1/2-x,1/2+z
1/2+x,1/2-y,-z
1/2-x,1/2+y,-z
1/2+y,1/2+x,-z
1/2-y,1/2-x,-z
1/2-x,1/2-y,1/2-z
1/2+y,1/2-x,1/2-z
1/2+x,1/2+y,1/2-z
1/2-y,1/2+x,1/2-z
1/2-x,1/2+y,z
1/2+x,1/2-y,z
1/2-y,1/2-x,z
1/2+y,1/2+x,z
loop_
_atom_site_type_symbol
_atom_site_label
_atom_site_fract_x
_atom_site_fract_y
_atom_site_fract_z
Si Si1 0.859791 0.749020 0.152621
Si Si2 0.581156 0.808869 0.554500
Si Si3 0.445877 0.836348 0.596626
Si Si4 0.109462 0.503262 0.302945
Si Si5 0.250810 0.858704 0.343730
Si Si6 0.923054 0.811212 0.751498
O O1 0.815031 0.684970 0.164805
O O2 0.897929 0.734767 0.101646
O O3 0.807984 0.808418 0.145035
O O4 0.904470 0.769964 0.199072
O O5 0.595978 0.780093 0.500000
O O6 0.624411 0.875590 0.558589
O O7 0.504139 0.824948 0.558616
O O8 0.397766 0.897766 0.585146
O O9 0.482526 0.851450 0.648876
O O10 0.401120 0.773354 0.609143
O O11 0.145515 0.500000 0.250000
O O12 0.072941 0.572941 0.310370
O O13 0.051245 0.448756 0.297831
O O14 0.314527 0.814527 0.329696
O O15 0.229962 0.902333 0.297089
O O16 0.875851 0.875851 0.750000
O O17 0.000000 0.827290 0.750000
#
# Coordination Sequence:
#
# PCOD9572084 Si02
#       6
#    32  32  32  32  32  32
#     4   9  18  34  53  70  93 127 165 204 241 276
#     4  10  21  35  50  68  91 124 166 204 238 283
#     4  10  19  30  46  69  97 125 153 191 239 287
#     4   8  14  24  37  57  89 126 158 183 211 259
#     4   9  18  32  50  74 100 125 158 197 237 285
#     4  10  19  31  50  75 103 132 158 189 235 291
#
# _framework density 17.290123000000001
#
# number of rings (size 3 to 8) (size 9 to 14) (size 15 to 20)
#    0.000    2.667    0.000    2.500    0.000    5.500 
#    0.000    5.000    0.000    3.000    0.000    0.000 
#    0.000    1.333    0.000   14.333    0.000    0.333 
#
# Total GULP energy -535584.084309 kJ/mol
# GULP energy per Si atom -5579.000878 kJ/mol
# Density = 1.725077 g / cm^3
# Si number density = 17.290123 Si / 1000 Ang^3
#
#
#
# Elastic Constant Matrix: (Units=GPa)
#
#
# Indices 1 2 3 4 5 6 
#
# 1 75.9507 26.6746 40.4033 0.0000 0.0000 0.0000
# 2 26.6746 75.9507 40.4033 0.0000 0.0000 0.0000
# 3 40.4033 40.4033 89.9243 0.0000 0.0000 0.0000
# 4 0.0000 0.0000 0.0000 19.2010 0.0000 0.0000
# 5 0.0000 0.0000 0.0000 0.0000 19.2010 0.0000
# 6 0.0000 0.0000 0.0000 0.0000 0.0000 14.6595
#
#
#
# Elastic Compliance Matrix: (Units=1/GPa)
#
#
# Indices 1 2 3 4 5 6 
#
# 1 0.017686 -0.002608 -0.006775 0.000000 0.000000 0.000000
# 2 -0.002608 0.017686 -0.006775 0.000000 0.000000 0.000000
# 3 -0.006775 -0.006775 0.017208 0.000000 0.000000 0.000000
# 4 0.000000 0.000000 0.000000 0.052081 0.000000 0.000000
# 5 0.000000 0.000000 0.000000 0.000000 0.052081 0.000000
# 6 0.000000 0.000000 0.000000 0.000000 0.000000 0.068215
#
#
# Mechanical properties :
#
#
# Convention : Reuss Voigt Hill
#
# Bulk Modulus (GPa) = 49.34324 50.75427 50.04876
# Shear Modulus (GPa) = 18.93741 19.56860 19.25300
#
# Velocity S-wave (km/s) = 3.31308 3.36784 3.34057
# Velocity P-wave (km/s) = 6.57539 6.67393 6.62484
#
# Compressibility (1/GPa) = 0.02026620
#
# Stress axis : x y z
#
# Youngs Moduli (GPa) = 56.54104 56.54104 58.11093
#
# Poissons Ratio (x) = 0.14743 0.39370
# Poissons Ratio (y) = 0.14743 0.39370
# Poissons Ratio (z) = 0.38306 0.38306
#
# Static dielectric constant tensor:
#      x y z
#    x 1.603720 0.000000 0.000000 
#    y 0.000000 1.603720 0.000000 
#    z 0.000000 0.000000 1.584150 
# 
# From -- ./inp_files/9760.got.cif
#   From: 2010.05.17/outbox.cif.g08.bks.cpg/sg140_5_cif.got.tgz:9760.got - 2010.06.21 00:45:31.
