data_PCOD9572372
_publ_section_title
;
Structure prediction by ZEFSAII (Michael W. Deem and Ramdas Pophale) SiO2 
 PCOD9572372
Probable space group: I 4/M C M
;
_chemical_formula_sum "Si O2"
_cell_formula_units_Z 96
_cell_length_a 22.786465
_cell_length_b 22.786465
_cell_length_c 9.496694
_cell_angle_alpha 90.000000
_cell_angle_beta 90.000000
_cell_angle_gamma 90.000000
_cell_volume 4930.901827
_symmetry_space_group_name_H-M "I 4/M C M"
_symmetry_group_IT_number 140
_symmetry_cell_setting 'tetragonal'
loop_
_space_group_symop_operation_xyz
x,y,z
-y,x,z
-x,-y,z
y,-x,z
x,-y,1/2-z
-x,y,1/2-z
y,x,1/2-z
-y,-x,1/2-z
-x,-y,-z
y,-x,-z
x,y,-z
-y,x,-z
-x,y,1/2+z
x,-y,1/2+z
-y,-x,1/2+z
y,x,1/2+z
1/2+x,1/2+y,1/2+z
1/2-y,1/2+x,1/2+z
1/2-x,1/2-y,1/2+z
1/2+y,1/2-x,1/2+z
1/2+x,1/2-y,-z
1/2-x,1/2+y,-z
1/2+y,1/2+x,-z
1/2-y,1/2-x,-z
1/2-x,1/2-y,1/2-z
1/2+y,1/2-x,1/2-z
1/2+x,1/2+y,1/2-z
1/2-y,1/2+x,1/2-z
1/2-x,1/2+y,z
1/2+x,1/2-y,z
1/2-y,1/2-x,z
1/2+y,1/2+x,z
loop_
_atom_site_type_symbol
_atom_site_label
_atom_site_fract_x
_atom_site_fract_y
_atom_site_fract_z
Si Si1 0.405573 0.525791 0.500000
Si Si2 0.000000 0.825271 0.750000
Si Si3 0.340316 0.159685 0.829651
Si Si4 0.124972 0.789707 0.834466
Si Si5 0.561729 0.938272 0.173442
O O1 0.431008 0.459961 0.500000
O O2 0.366444 0.531154 0.363830
O O3 0.945658 0.791898 0.681359
O O4 0.274676 0.144118 0.782779
O O5 0.389153 0.110848 0.794541
O O6 0.339159 0.160842 0.000000
O O7 0.160446 0.839555 0.750000
O O8 0.138711 0.796640 0.000000
O O9 0.500000 0.922067 0.250000
O O10 0.556009 0.943992 0.000000
#
# Coordination Sequence:
#
# PCOD9572372 Si02
#       5
#    16  16  16  32  16
#     4  11  22  38  58  86 122 164 205 258 310 362
#     4  12  24  37  62  88 123 162 214 258 308 368
#     4   9  22  43  66  94 127 162 203 256 319 375
#     4  11  24  43  66  91 125 166 210 260 315 371
#     4  10  20  38  65  92 129 164 200 253 312 378
#
# _framework density 19.469055999999998
#
# number of rings (size 3 to 8) (size 9 to 14) (size 15 to 20)
#    0.000    1.333    1.667    4.500    4.667    1.333 
#    0.000    3.333    0.000    0.000    0.000    0.000 
#    0.000    0.000    0.000    0.000    0.000    0.000 
#
# Total GULP energy -267954.853926 kJ/mol
# GULP energy per Si atom -5582.392790 kJ/mol
# Density = 1.942474 g / cm^3
# Si number density = 19.469056 Si / 1000 Ang^3
#
#
#
# Elastic Constant Matrix: (Units=GPa)
#
#
# Indices 1 2 3 4 5 6 
#
# 1 110.4750 67.0300 22.8697 0.0000 0.0000 0.0000
# 2 67.0300 110.4740 22.8684 0.0000 0.0000 0.0000
# 3 22.8697 22.8684 86.7480 0.0000 0.0000 0.0000
# 4 0.0000 0.0000 0.0000 30.3682 0.0000 0.0000
# 5 0.0000 0.0000 0.0000 0.0000 30.3681 0.0000
# 6 0.0000 0.0000 0.0000 0.0000 0.0000 -95.7188
#
#
#
# Elastic Compliance Matrix: (Units=1/GPa)
#
#
# Indices 1 2 3 4 5 6 
#
# 1 0.014531 -0.008487 -0.001594 0.000000 0.000000 0.000000
# 2 -0.008487 0.014531 -0.001593 0.000000 0.000000 0.000000
# 3 -0.001594 -0.001593 0.012368 0.000000 0.000000 0.000000
# 4 0.000000 0.000000 0.000000 0.032929 0.000000 0.000000
# 5 0.000000 0.000000 0.000000 0.000000 0.032929 0.000000
# 6 0.000000 0.000000 0.000000 0.000000 0.000000 -0.010447
#
#
# Mechanical properties :
#
#
# Convention : Reuss Voigt Hill
#
# Bulk Modulus (GPa) = 55.30186 59.24816 57.27501
# Shear Modulus (GPa) = 39.61463 5.99875 22.80669
#
# Velocity S-wave (km/s) = 4.51571 1.75723 3.42633
# Velocity P-wave (km/s) = 7.46026 5.88347 6.71829
#
# Compressibility (1/GPa) = 0.01808257
#
# Stress axis : x y z
#
# Youngs Moduli (GPa) = 68.81816 68.81801 80.85520
#
# Poissons Ratio (x) = 0.58405 0.12885
# Poissons Ratio (y) = 0.58405 0.12882
# Poissons Ratio (z) = 0.10967 0.10964
#
# Static dielectric constant tensor:
#      x y z
#    x 1.678330 0.000000 0.000000 
#    y 0.000000 1.678330 0.000000 
#    z 0.000000 0.000000 1.674570 
# 
# From -- ./inp_files/1032.got.cif
#   From: 2010.05.17/outbox.cif.g08.bks.cpg/sg140_1_cif.got.tgz:1032.got - 2010.06.21 00:45:31.
