data_PCOD9572537
_publ_section_title
;
Structure prediction by ZEFSAII (Michael W. Deem and Ramdas Pophale) SiO2 
 PCOD9572537
Probable space group: I 4/M C M
;
_chemical_formula_sum "Si O2"
_cell_formula_units_Z 176
_cell_length_a 23.112275
_cell_length_b 23.112275
_cell_length_c 16.551954
_cell_angle_alpha 90.000000
_cell_angle_beta 90.000000
_cell_angle_gamma 90.000000
_cell_volume 8841.677364
_symmetry_space_group_name_H-M "I 4/M C M"
_symmetry_group_IT_number 140
_symmetry_cell_setting 'tetragonal'
loop_
_space_group_symop_operation_xyz
x,y,z
-y,x,z
-x,-y,z
y,-x,z
x,-y,1/2-z
-x,y,1/2-z
y,x,1/2-z
-y,-x,1/2-z
-x,-y,-z
y,-x,-z
x,y,-z
-y,x,-z
-x,y,1/2+z
x,-y,1/2+z
-y,-x,1/2+z
y,x,1/2+z
1/2+x,1/2+y,1/2+z
1/2-y,1/2+x,1/2+z
1/2-x,1/2-y,1/2+z
1/2+y,1/2-x,1/2+z
1/2+x,1/2-y,-z
1/2-x,1/2+y,-z
1/2+y,1/2+x,-z
1/2-y,1/2-x,-z
1/2-x,1/2-y,1/2-z
1/2+y,1/2-x,1/2-z
1/2+x,1/2+y,1/2-z
1/2-y,1/2+x,1/2-z
1/2-x,1/2+y,z
1/2+x,1/2-y,z
1/2-y,1/2-x,z
1/2+y,1/2+x,z
loop_
_atom_site_type_symbol
_atom_site_label
_atom_site_fract_x
_atom_site_fract_y
_atom_site_fract_z
Si Si1 0.906672 0.017887 0.402557
Si Si2 0.000000 0.404691 0.250000
Si Si3 0.037091 0.220122 0.332353
Si Si4 0.497559 0.166392 0.410724
Si Si5 0.654006 0.751224 0.245764
Si Si6 0.377306 0.216902 0.585283
O O1 0.900315 0.019150 0.500000
O O2 0.845380 0.029104 0.361427
O O3 0.955460 0.065635 0.380939
O O4 0.053934 0.446067 0.230080
O O5 0.015206 0.367895 0.330038
O O6 0.015257 0.266990 0.397084
O O7 0.104127 0.236089 0.316870
O O8 0.000000 0.228832 0.250000
O O9 0.516695 0.145618 0.500000
O O10 0.427995 0.169789 0.410748
O O11 0.703660 0.703660 0.250000
O O12 0.686875 0.813126 0.233898
O O13 0.622528 0.748757 0.332555
O O14 0.384078 0.249098 0.500000
O O15 0.316540 0.183461 0.584368
#
# Coordination Sequence:
#
# PCOD9572537 Si02
#       6
#    32  16  32  32  32  32
#     4   9  21  42  64  90 130 175 218 272 333 392
#     4  11  24  42  64  92 126 163 208 270 340 405
#     4  12  23  36  61  96 124 165 214 271 321 388
#     4  11  22  39  61  90 123 162 208 255 316 387
#     4  10  22  40  59  83 121 164 205 255 315 377
#     4   9  17  33  58  83 108 145 198 253 302 362
#
# _framework density 19.905726000000001
#
# number of rings (size 3 to 8) (size 9 to 14) (size 15 to 20)
#    0.000    1.727    2.727    1.636    2.545    3.636 
#    0.000    3.636    0.000    3.818    0.000    0.000 
#    0.000    0.000    0.000    0.000    0.000    0.000 
#
# Total GULP energy -490730.690897 kJ/mol
# GULP energy per Si atom -5576.485124 kJ/mol
# Density = 1.986042 g / cm^3
# Si number density = 19.905726 Si / 1000 Ang^3
#
#
#
# Elastic Constant Matrix: (Units=GPa)
#
#
# Indices 1 2 3 4 5 6 
#
# 1 84.6091 35.2134 32.9413 0.0000 0.0000 0.0000
# 2 35.2134 84.6091 32.9413 0.0000 0.0000 0.0000
# 3 32.9413 32.9413 87.5126 0.0000 0.0000 0.0000
# 4 0.0000 0.0000 0.0000 2.7147 0.0000 0.0000
# 5 0.0000 0.0000 0.0000 0.0000 2.7147 0.0000
# 6 0.0000 0.0000 0.0000 0.0000 0.0000 17.3500
#
#
#
# Elastic Compliance Matrix: (Units=1/GPa)
#
#
# Indices 1 2 3 4 5 6 
#
# 1 0.015384 -0.004860 -0.003961 0.000000 0.000000 0.000000
# 2 -0.004860 0.015384 -0.003961 0.000000 0.000000 0.000000
# 3 -0.003961 -0.003961 0.014409 0.000000 0.000000 0.000000
# 4 0.000000 0.000000 0.000000 0.368361 0.000000 0.000000
# 5 0.000000 0.000000 0.000000 0.000000 0.368361 0.000000
# 6 0.000000 0.000000 0.000000 0.000000 0.000000 0.057637
#
#
# Mechanical properties :
#
#
# Convention : Reuss Voigt Hill
#
# Bulk Modulus (GPa) = 50.99089 50.99144 50.99117
# Shear Modulus (GPa) = 5.73632 14.93154 10.33393
#
# Velocity S-wave (km/s) = 1.69941 2.74179 2.28094
# Velocity P-wave (km/s) = 5.43346 5.97455 5.71042
#
# Compressibility (1/GPa) = 0.01961134
#
# Stress axis : x y z
#
# Youngs Moduli (GPa) = 65.00172 65.00172 69.40025
#
# Poissons Ratio (x) = 0.31594 0.27492
# Poissons Ratio (y) = 0.31594 0.27492
# Poissons Ratio (z) = 0.25749 0.25749
#
# Static dielectric constant tensor:
#      x y z
#    x 1.706760 0.000000 0.000000 
#    y 0.000000 1.706760 0.000000 
#    z 0.000000 0.000000 1.756950 
# 
# From -- ./inp_files/4902.got.cif
#   From: 2010.05.17/outbox.cif.g08.bks.cpg/sg140_3_cif.got.tgz:4902.got - 2010.06.21 00:45:31.
