data_PCOD9572206
_publ_section_title
;
Structure prediction by ZEFSAII (Michael W. Deem and Ramdas Pophale) SiO2 
 PCOD9572206
Probable space group: I 4/M C M
;
_chemical_formula_sum "Si O2"
_cell_formula_units_Z 176
_cell_length_a 17.070232
_cell_length_b 17.070232
_cell_length_c 29.365758
_cell_angle_alpha 90.000000
_cell_angle_beta 90.000000
_cell_angle_gamma 90.000000
_cell_volume 8556.971051
_symmetry_space_group_name_H-M "I 4/M C M"
_symmetry_group_IT_number 140
_symmetry_cell_setting 'tetragonal'
loop_
_space_group_symop_operation_xyz
x,y,z
-y,x,z
-x,-y,z
y,-x,z
x,-y,1/2-z
-x,y,1/2-z
y,x,1/2-z
-y,-x,1/2-z
-x,-y,-z
y,-x,-z
x,y,-z
-y,x,-z
-x,y,1/2+z
x,-y,1/2+z
-y,-x,1/2+z
y,x,1/2+z
1/2+x,1/2+y,1/2+z
1/2-y,1/2+x,1/2+z
1/2-x,1/2-y,1/2+z
1/2+y,1/2-x,1/2+z
1/2+x,1/2-y,-z
1/2-x,1/2+y,-z
1/2+y,1/2+x,-z
1/2-y,1/2-x,-z
1/2-x,1/2-y,1/2-z
1/2+y,1/2-x,1/2-z
1/2+x,1/2+y,1/2-z
1/2-y,1/2+x,1/2-z
1/2-x,1/2+y,z
1/2+x,1/2-y,z
1/2-y,1/2-x,z
1/2+y,1/2+x,z
loop_
_atom_site_type_symbol
_atom_site_label
_atom_site_fract_x
_atom_site_fract_y
_atom_site_fract_z
Si Si1 0.977389 0.238183 0.822878
Si Si2 0.746701 0.876122 0.739180
Si Si3 0.688953 0.312860 0.554084
Si Si4 0.370013 0.004765 0.000000
Si Si5 0.060172 0.688970 0.408109
Si Si6 0.441113 0.616943 0.608311
O O1 0.918821 0.275725 0.786467
O O2 0.937116 0.160059 0.843045
O O3 0.057419 0.223801 0.795092
O O4 0.005003 0.288019 0.866305
O O5 0.814520 0.814520 0.750000
O O6 0.672894 0.827107 0.720564
O O7 0.693553 0.327762 0.500000
O O8 0.728119 0.228119 0.562565
O O9 0.744436 0.375118 0.580442
O O10 0.602115 0.326844 0.572599
O O11 0.322869 0.988835 0.045825
O O12 0.411783 0.088218 0.000000
O O13 0.438198 0.938198 0.000000
O O14 0.110067 0.610067 0.398875
O O15 0.399670 0.533120 0.602921
#
# Coordination Sequence:
#
# PCOD9572206 Si02
#       6
#    32  32  32  16  32  32
#     4  11  22  40  64  92 127 163 211 262 328 388
#     4  10  23  42  66  94 123 160 211 269 330 396
#     4  10  21  40  65  90 124 174 227 273 320 378
#     4   9  18  34  58  90 125 164 212 264 321 380
#     4  10  19  36  64  92 125 171 217 264 317 383
#     4  11  23  39  61  93 133 173 214 262 324 390
#
# _framework density 20.568024999999999
#
# number of rings (size 3 to 8) (size 9 to 14) (size 15 to 20)
#    0.000    1.727    2.727    1.636    0.000    2.182 
#    1.636    0.909    0.000   13.091    0.000    0.000 
#    0.000    0.000    0.000    0.000    0.000    0.000 
#
# Total GULP energy -491209.225925 kJ/mol
# GULP energy per Si atom -5581.923022 kJ/mol
# Density = 2.052121 g / cm^3
# Si number density = 20.568025 Si / 1000 Ang^3
#
#
#
# Elastic Constant Matrix: (Units=GPa)
#
#
# Indices 1 2 3 4 5 6 
#
# 1 51.5957 47.4348 30.0592 0.0000 0.0000 0.0000
# 2 47.4348 51.5956 30.0588 0.0000 0.0000 0.0000
# 3 30.0592 30.0588 109.0184 0.0000 0.0000 0.0000
# 4 0.0000 0.0000 0.0000 35.4899 0.0000 0.0000
# 5 0.0000 0.0000 0.0000 0.0000 35.4904 0.0000
# 6 0.0000 0.0000 0.0000 0.0000 0.0000 31.5128
#
#
#
# Elastic Compliance Matrix: (Units=1/GPa)
#
#
# Indices 1 2 3 4 5 6 
#
# 1 0.126234 -0.114106 -0.003344 0.000000 0.000000 0.000000
# 2 -0.114106 0.126234 -0.003343 0.000000 0.000000 0.000000
# 3 -0.003344 -0.003343 0.011017 0.000000 0.000000 0.000000
# 4 0.000000 0.000000 0.000000 0.028177 0.000000 0.000000
# 5 0.000000 0.000000 0.000000 0.000000 0.028177 0.000000
# 6 0.000000 0.000000 0.000000 0.000000 0.000000 0.031733
#
#
# Mechanical properties :
#
#
# Convention : Reuss Voigt Hill
#
# Bulk Modulus (GPa) = 45.66883 47.47947 46.57415
# Shear Modulus (GPa) = 8.32697 27.47574 17.90135
#
# Velocity S-wave (km/s) = 2.01427 3.65889 2.95337
# Velocity P-wave (km/s) = 5.25944 6.40189 5.85858
#
# Compressibility (1/GPa) = 0.02189677
#
# Stress axis : x y z
#
# Youngs Moduli (GPa) = 7.92178 7.92180 90.77067
#
# Poissons Ratio (x) = 0.90393 0.30358
# Poissons Ratio (y) = 0.90392 0.30349
# Poissons Ratio (z) = 0.02649 0.02649
#
# Static dielectric constant tensor:
#      x y z
#    x 1.755210 0.000000 0.000000 
#    y 0.000000 1.755210 0.000000 
#    z 0.000000 0.000000 1.714910 
# 
# From -- ./inp_files/10717.got.cif
#   From: 2010.05.17/outbox.cif.g08.bks.cpg/sg140_6_cif.got.tgz:10717.got - 2010.06.21 00:45:31.
