data_PCOD9572919
_publ_section_title
;
Structure prediction by ZEFSAII (Michael W. Deem and Ramdas Pophale) SiO2 
 PCOD9572919
Probable space group: I 41/A M D
;
_chemical_formula_sum "Si O2"
_cell_formula_units_Z 144
_cell_length_a 17.728778
_cell_length_b 17.728778
_cell_length_c 24.293408
_cell_angle_alpha 90.000000
_cell_angle_beta 90.000000
_cell_angle_gamma 90.000000
_cell_volume 7635.650607
_symmetry_space_group_name_H-M "I 41/A M D"
_symmetry_group_IT_number 141
_space_group.IT_coordinate_system_code '2'
_symmetry_cell_setting 'tetragonal'
loop_
_space_group_symop_operation_xyz
x,y,z
1/4-y,3/4+x,1/4+z
-x,1/2-y,z
1/4+y,1/4-x,3/4+z
x,-y,-z
-x,1/2+y,-z
1/4+y,3/4+x,1/4-z
1/4-y,1/4-x,3/4-z
-x,-y,-z
3/4+y,1/4-x,3/4-z
x,1/2+y,-z
3/4-y,3/4+x,1/4-z
-x,y,z
x,1/2-y,z
3/4-y,1/4-x,3/4+z
3/4+y,3/4+x,1/4+z
1/2+x,1/2+y,1/2+z
3/4-y,1/4+x,3/4+z
1/2-x,-y,1/2+z
3/4+y,3/4-x,1/4+z
1/2+x,1/2-y,1/2-z
1/2-x,y,1/2-z
3/4+y,1/4+x,3/4-z
3/4-y,3/4-x,1/4-z
1/2-x,1/2-y,1/2-z
1/4+y,3/4-x,1/4-z
1/2+x,y,1/2-z
1/4-y,1/4+x,3/4-z
1/2-x,1/2+y,1/2+z
1/2+x,-y,1/2+z
1/4-y,3/4-x,1/4+z
1/4+y,1/4+x,3/4+z
loop_
_atom_site_type_symbol
_atom_site_label
_atom_site_fract_x
_atom_site_fract_y
_atom_site_fract_z
Si Si1 0.208750 0.041251 0.375000
Si Si2 0.678224 0.928217 0.220956
Si Si3 0.414500 0.434282 0.045736
Si Si4 0.087040 0.840839 0.368156
Si Si5 0.690327 0.339194 0.973857
O O1 0.266263 0.035254 0.424964
O O2 0.215106 0.124737 0.349968
O O3 0.750000 0.889657 0.250000
O O4 0.620705 0.875803 0.187611
O O5 0.633595 0.982548 0.263365
O O6 0.500000 0.412636 0.054790
O O7 0.410788 0.500000 0.000000
O O8 0.365785 0.365310 0.022424
O O9 0.085592 0.750000 0.364468
O O10 0.145228 0.859231 0.417824
O O11 0.000000 0.865783 0.379141
O O12 0.703328 0.250000 0.974297
#
# Coordination Sequence:
#
# PCOD9572919 Si02
#       5
#    16  32  32  32  32
#     4  10  20  32  48  75 102 135 176 220 266 304
#     4  11  21  35  55  78 107 140 180 225 269 321
#     4  10  20  33  49  70 101 140 176 212 260 317
#     4  10  21  37  57  81 109 140 175 220 273 323
#     4  10  20  34  54  79 106 141 183 224 268 320
#
# _framework density 18.858903999999999
#
# number of rings (size 3 to 8) (size 9 to 14) (size 15 to 20)
#    0.000    1.778    0.000    6.667    0.000    8.000 
#    0.000    0.000    0.000    0.000    0.000    0.000 
#    0.000   14.222    0.000    0.000    0.000    0.000 
#
# Total GULP energy -401919.539084 kJ/mol
# GULP energy per Si atom -5582.215821 kJ/mol
# Density = 1.881598 g / cm^3
# Si number density = 18.858904 Si / 1000 Ang^3
#
#
#
# Elastic Constant Matrix: (Units=GPa)
#
#
# Indices 1 2 3 4 5 6 
#
# 1 61.7233 17.8899 30.1239 0.0000 0.0000 0.0000
# 2 17.8899 61.7238 30.1239 0.0000 0.0000 0.0000
# 3 30.1239 30.1239 78.7209 0.0000 0.0000 0.0000
# 4 0.0000 0.0000 0.0000 30.3360 0.0000 0.0000
# 5 0.0000 0.0000 0.0000 0.0000 30.3357 0.0000
# 6 0.0000 0.0000 0.0000 0.0000 0.0000 21.3192
#
#
#
# Elastic Compliance Matrix: (Units=1/GPa)
#
#
# Indices 1 2 3 4 5 6 
#
# 1 0.020247 -0.002566 -0.006766 0.000000 0.000000 0.000000
# 2 -0.002566 0.020247 -0.006766 0.000000 0.000000 0.000000
# 3 -0.006766 -0.006766 0.017881 0.000000 0.000000 0.000000
# 4 0.000000 0.000000 0.000000 0.032964 0.000000 0.000000
# 5 0.000000 0.000000 0.000000 0.000000 0.032964 0.000000
# 6 0.000000 0.000000 0.000000 0.000000 0.000000 0.046906
#
#
# Mechanical properties :
#
#
# Convention : Reuss Voigt Hill
#
# Bulk Modulus (GPa) = 38.19798 39.82705 39.01252
# Shear Modulus (GPa) = 23.57012 24.66685 24.11849
#
# Velocity S-wave (km/s) = 3.53911 3.62051 3.58004
# Velocity P-wave (km/s) = 6.08268 6.21625 6.14982
#
# Compressibility (1/GPa) = 0.02617939
#
# Stress axis : x y z
#
# Youngs Moduli (GPa) = 49.38939 49.38990 55.92453
#
# Poissons Ratio (x) = 0.12675 0.37838
# Poissons Ratio (y) = 0.12675 0.37837
# Poissons Ratio (z) = 0.33416 0.33416
#
# Static dielectric constant tensor:
#      x y z
#    x 1.664730 0.000000 0.000000 
#    y 0.000000 1.664730 0.000000 
#    z 0.000000 0.000000 1.673260 
# 
# From -- ./inp_files/11418.got.cif
#   From: 2010.05.17/outbox.cif.g08.bks.cpg/sg141_6_cif.got.tgz:11418.got - 2010.05.20 13:30:51.
