data_PCOD9572136
_publ_section_title
;
Structure prediction by ZEFSAII (Michael W. Deem and Ramdas Pophale) SiO2 
 PCOD9572136
Probable space group: I 4/M C M
;
_chemical_formula_sum "Si O2"
_cell_formula_units_Z 160
_cell_length_a 22.030947
_cell_length_b 22.030947
_cell_length_c 15.477728
_cell_angle_alpha 90.000000
_cell_angle_beta 90.000000
_cell_angle_gamma 90.000000
_cell_volume 7512.310702
_symmetry_space_group_name_H-M "I 4/M C M"
_symmetry_group_IT_number 140
_symmetry_cell_setting 'tetragonal'
loop_
_space_group_symop_operation_xyz
x,y,z
-y,x,z
-x,-y,z
y,-x,z
x,-y,1/2-z
-x,y,1/2-z
y,x,1/2-z
-y,-x,1/2-z
-x,-y,-z
y,-x,-z
x,y,-z
-y,x,-z
-x,y,1/2+z
x,-y,1/2+z
-y,-x,1/2+z
y,x,1/2+z
1/2+x,1/2+y,1/2+z
1/2-y,1/2+x,1/2+z
1/2-x,1/2-y,1/2+z
1/2+y,1/2-x,1/2+z
1/2+x,1/2-y,-z
1/2-x,1/2+y,-z
1/2+y,1/2+x,-z
1/2-y,1/2-x,-z
1/2-x,1/2-y,1/2-z
1/2+y,1/2-x,1/2-z
1/2+x,1/2+y,1/2-z
1/2-y,1/2+x,1/2-z
1/2-x,1/2+y,z
1/2+x,1/2-y,z
1/2-y,1/2-x,z
1/2+y,1/2+x,z
loop_
_atom_site_type_symbol
_atom_site_label
_atom_site_fract_x
_atom_site_fract_y
_atom_site_fract_z
Si Si1 0.886004 0.517151 0.394675
Si Si2 0.719856 0.780145 0.661331
Si Si3 0.614841 0.789265 0.896705
Si Si4 0.877169 0.377169 0.393871
Si Si5 0.553396 0.420313 0.896784
Si Si6 0.335849 0.342425 0.648075
O O1 0.888856 0.516906 0.500000
O O2 0.948603 0.551398 0.367029
O O3 0.831468 0.560541 0.365342
O O4 0.870176 0.448487 0.371229
O O5 0.750000 0.750000 0.750000
O O6 0.667593 0.832408 0.658808
O O7 0.687427 0.722961 0.615500
O O8 0.677081 0.822920 0.868565
O O9 0.612494 0.719258 0.873311
O O10 0.613706 0.792423 0.000000
O O11 0.869307 0.369307 0.500000
O O12 0.581966 0.484131 0.863925
O O13 0.599084 0.365708 0.880689
O O14 0.548872 0.424594 0.000000
O O15 0.339041 0.339041 0.750000
#
# Coordination Sequence:
#
# PCOD9572136 Si02
#       6
#    32  16  32  16  32  32
#     4   8  15  29  52  87 124 150 178 223 284 347
#     4  10  24  41  51  72 114 157 194 232 290 329
#     4   9  17  31  54  84 116 152 192 230 275 341
#     4  10  19  32  56  87 117 148 187 238 286 339
#     4   9  20  40  63  86 113 143 179 233 297 352
#     4  11  22  37  57  80 111 150 195 237 284 336
#
# _framework density 21.298373000000002
#
# number of rings (size 3 to 8) (size 9 to 14) (size 15 to 20)
#    0.000    2.600    1.000    2.700    0.000    5.200 
#    0.000    7.000    0.000    0.000    0.000    0.000 
#   12.000    0.000    0.000    0.000    0.000    0.800 
#
# Total GULP energy -445647.559229 kJ/mol
# GULP energy per Si atom -5570.594490 kJ/mol
# Density = 2.124990 g / cm^3
# Si number density = 21.298373 Si / 1000 Ang^3
#
#
#
# Elastic Constant Matrix: (Units=GPa)
#
#
# Indices 1 2 3 4 5 6 
#
# 1 95.0269 60.1522 9.0932 0.0000 0.0000 0.0000
# 2 60.1522 95.0269 9.0932 0.0000 0.0000 0.0000
# 3 9.0932 9.0932 35.1785 0.0000 0.0000 0.0000
# 4 0.0000 0.0000 0.0000 3.1111 0.0000 0.0000
# 5 0.0000 0.0000 0.0000 0.0000 3.1111 0.0000
# 6 0.0000 0.0000 0.0000 0.0000 0.0000 40.6611
#
#
#
# Elastic Compliance Matrix: (Units=1/GPa)
#
#
# Indices 1 2 3 4 5 6 
#
# 1 0.017660 -0.011014 -0.001718 0.000000 0.000000 0.000000
# 2 -0.011014 0.017660 -0.001718 0.000000 0.000000 0.000000
# 3 -0.001718 -0.001718 0.029315 0.000000 0.000000 0.000000
# 4 0.000000 0.000000 0.000000 0.321428 0.000000 0.000000
# 5 0.000000 0.000000 0.000000 0.000000 0.321428 0.000000
# 6 0.000000 0.000000 0.000000 0.000000 0.000000 0.024594
#
#
# Mechanical properties :
#
#
# Convention : Reuss Voigt Hill
#
# Bulk Modulus (GPa) = 27.98426 42.43441 35.20933
# Shear Modulus (GPa) = 6.46919 19.16957 12.81938
#
# Velocity S-wave (km/s) = 1.74471 3.00334 2.45602
# Velocity P-wave (km/s) = 4.15046 5.65630 4.96085
#
# Compressibility (1/GPa) = 0.03573437
#
# Stress axis : x y z
#
# Youngs Moduli (GPa) = 56.62577 56.62577 34.11278
#
# Poissons Ratio (x) = 0.62369 0.05860
# Poissons Ratio (y) = 0.62369 0.05860
# Poissons Ratio (z) = 0.09727 0.09727
#
# Static dielectric constant tensor:
#      x y z
#    x 1.568900 0.000000 0.000000 
#    y 0.000000 1.568900 0.000000 
#    z 0.000000 0.000000 1.796930 
# 
# From -- ./inp_files/6890.got.cif
#   From: 2010.05.17/outbox.cif.g08.bks.cpg/sg140_4_cif.got.tgz:6890.got - 2010.06.21 00:45:31.
