data_PCOD9572645
_publ_section_title
;
Structure prediction by ZEFSAII (Michael W. Deem and Ramdas Pophale) SiO2 
 PCOD9572645
Probable space group: I 4/M C M
;
_chemical_formula_sum "Si O2"
_cell_formula_units_Z 64
_cell_length_a 17.616293
_cell_length_b 17.616293
_cell_length_c 10.057099
_cell_angle_alpha 90.000000
_cell_angle_beta 90.000000
_cell_angle_gamma 90.000000
_cell_volume 3121.057539
_symmetry_space_group_name_H-M "I 4/M C M"
_symmetry_group_IT_number 140
_symmetry_cell_setting 'tetragonal'
loop_
_space_group_symop_operation_xyz
x,y,z
-y,x,z
-x,-y,z
y,-x,z
x,-y,1/2-z
-x,y,1/2-z
y,x,1/2-z
-y,-x,1/2-z
-x,-y,-z
y,-x,-z
x,y,-z
-y,x,-z
-x,y,1/2+z
x,-y,1/2+z
-y,-x,1/2+z
y,x,1/2+z
1/2+x,1/2+y,1/2+z
1/2-y,1/2+x,1/2+z
1/2-x,1/2-y,1/2+z
1/2+y,1/2-x,1/2+z
1/2+x,1/2-y,-z
1/2-x,1/2+y,-z
1/2+y,1/2+x,-z
1/2-y,1/2-x,-z
1/2-x,1/2-y,1/2-z
1/2+y,1/2-x,1/2-z
1/2+x,1/2+y,1/2-z
1/2-y,1/2+x,1/2-z
1/2-x,1/2+y,z
1/2+x,1/2-y,z
1/2-y,1/2-x,z
1/2+y,1/2+x,z
loop_
_atom_site_type_symbol
_atom_site_label
_atom_site_fract_x
_atom_site_fract_y
_atom_site_fract_z
Si Si1 0.426781 0.196212 0.655571
Si Si2 0.157669 0.842332 0.750000
Si Si3 0.607485 0.432746 0.000000
O O1 0.500000 0.202847 0.750000
O O2 0.448003 0.204677 0.500000
O O3 0.383962 0.116039 0.673610
O O4 0.364437 0.261035 0.689964
O O5 0.146091 0.902558 0.632217
O O6 0.600739 0.522627 0.000000
#
# Coordination Sequence:
#
# PCOD9572645 Si02
#       3
#    32  16  16
#     4  11  26  47  71 101 136 178 228 280 339 404
#     4  12  23  41  66  96 134 177 224 276 335 400
#     4  11  22  36  59  92 134 180 227 271 328 398
#
# _framework density 20.505870999999999
#
# number of rings (size 3 to 8) (size 9 to 14) (size 15 to 20)
#    0.000    0.750    2.500    5.250    3.500    3.500 
#    0.000    2.500    0.000    0.000    0.000    0.000 
#    0.000    0.000    0.000    0.000    0.000    0.000 
#
# Total GULP energy -178971.918978 kJ/mol
# GULP energy per Si atom -5592.872468 kJ/mol
# Density = 2.045920 g / cm^3
# Si number density = 20.505871 Si / 1000 Ang^3
#
#
#
# Elastic Constant Matrix: (Units=GPa)
#
#
# Indices 1 2 3 4 5 6 
#
# 1 62.5218 71.8550 51.9523 0.0000 0.0000 0.0000
# 2 71.8550 62.5229 51.9509 0.0000 0.0000 0.0000
# 3 51.9523 51.9509 160.8658 0.0000 0.0000 0.0000
# 4 0.0000 0.0000 0.0000 21.5986 0.0000 0.0000
# 5 0.0000 0.0000 0.0000 0.0000 21.5990 0.0000
# 6 0.0000 0.0000 0.0000 0.0000 0.0000 32.6778
#
#
#
# Elastic Compliance Matrix: (Units=1/GPa)
#
#
# Indices 1 2 3 4 5 6 
#
# 1 -0.048617 0.058535 -0.003202 0.000000 0.000000 0.000000
# 2 0.058535 -0.048615 -0.003204 0.000000 0.000000 0.000000
# 3 -0.003202 -0.003204 0.008285 0.000000 0.000000 0.000000
# 4 0.000000 0.000000 0.000000 0.046299 0.000000 0.000000
# 5 0.000000 0.000000 0.000000 0.000000 0.046298 0.000000
# 6 0.000000 0.000000 0.000000 0.000000 0.000000 0.030602
#
#
# Mechanical properties :
#
#
# Convention : Reuss Voigt Hill
#
# Bulk Modulus (GPa) = 65.31861 70.82521 68.07191
# Shear Modulus (GPa) = -77.04073 22.51858 -27.26108
#
# Velocity S-wave (km/s) = -6.13609 3.31743 -3.65009
# Velocity P-wave (km/s) = 4.27545 7.02053 3.93754
#
# Compressibility (1/GPa) = 0.01530957
#
# Stress axis : x y z
#
# Youngs Moduli (GPa) = -20.56887 -20.56977 120.69580
#
# Poissons Ratio (x) = 1.20404 0.38651
# Poissons Ratio (y) = 1.20399 0.38671
# Poissons Ratio (z) = -0.06587 -0.06590
#
# Static dielectric constant tensor:
#      x y z
#    x 1.727660 0.000000 0.000000 
#    y 0.000000 1.727660 0.000000 
#    z 0.000000 0.000000 1.683770 
# 
# From -- ./inp_files/593.got.cif
#   From: 2010.05.17/outbox.cif.g08.bks.cpg/sg140_1_cif.got.tgz:593.got - 2010.06.21 00:45:31.
