data_PCOD9572288
_publ_section_title
;
Structure prediction by ZEFSAII (Michael W. Deem and Ramdas Pophale) SiO2 
 PCOD9572288
Probable space group: I 4/M C M
;
_chemical_formula_sum "Si O2"
_cell_formula_units_Z 160
_cell_length_a 20.525883
_cell_length_b 20.525883
_cell_length_c 20.263399
_cell_angle_alpha 90.000000
_cell_angle_beta 90.000000
_cell_angle_gamma 90.000000
_cell_volume 8537.210585
_symmetry_space_group_name_H-M "I 4/M C M"
_symmetry_group_IT_number 140
_symmetry_cell_setting 'tetragonal'
loop_
_space_group_symop_operation_xyz
x,y,z
-y,x,z
-x,-y,z
y,-x,z
x,-y,1/2-z
-x,y,1/2-z
y,x,1/2-z
-y,-x,1/2-z
-x,-y,-z
y,-x,-z
x,y,-z
-y,x,-z
-x,y,1/2+z
x,-y,1/2+z
-y,-x,1/2+z
y,x,1/2+z
1/2+x,1/2+y,1/2+z
1/2-y,1/2+x,1/2+z
1/2-x,1/2-y,1/2+z
1/2+y,1/2-x,1/2+z
1/2+x,1/2-y,-z
1/2-x,1/2+y,-z
1/2+y,1/2+x,-z
1/2-y,1/2-x,-z
1/2-x,1/2-y,1/2-z
1/2+y,1/2-x,1/2-z
1/2+x,1/2+y,1/2-z
1/2-y,1/2+x,1/2-z
1/2-x,1/2+y,z
1/2+x,1/2-y,z
1/2-y,1/2-x,z
1/2+y,1/2+x,z
loop_
_atom_site_type_symbol
_atom_site_label
_atom_site_fract_x
_atom_site_fract_y
_atom_site_fract_z
Si Si1 0.936622 0.326751 0.210273
Si Si2 0.103764 0.981184 0.580019
Si Si3 0.736092 0.347905 0.709807
Si Si4 0.243882 0.525825 0.076558
Si Si5 0.735898 0.127255 0.929371
O O1 0.883355 0.383355 0.208181
O O2 0.909887 0.268893 0.257097
O O3 0.945520 0.298980 0.136182
O O4 0.000000 0.350527 0.250000
O O5 0.102665 0.981983 0.500000
O O6 0.073801 0.051363 0.601264
O O7 0.179517 0.970813 0.596440
O O8 0.674519 0.325482 0.750000
O O9 0.791219 0.291219 0.714311
O O10 0.721353 0.355213 0.633152
O O11 0.224495 0.449467 0.073352
O O12 0.236490 0.550725 0.000000
O O13 0.669440 0.169440 0.924582
O O14 0.766874 0.143047 0.000000
#
# Coordination Sequence:
#
# PCOD9572288 Si02
#       5
#    32  32  32  32  32
#     4  11  23  40  59  81 113 151 194 242 295 359
#     4   8  15  30  53  82 117 155 193 233 282 348
#     4   9  18  34  55  78 106 143 183 226 281 343
#     4  10  20  34  56  86 116 150 191 241 297 350
#     4   9  17  31  53  79 109 147 192 239 284 337
#
# _framework density 18.741485999999998
#
# number of rings (size 3 to 8) (size 9 to 14) (size 15 to 20)
#    0.000    2.600    2.000    0.600    0.000    2.200 
#    0.000    3.000    0.000    3.600    0.000    5.600 
#    0.000    0.000    0.000    0.000    0.000    0.000 
#
# Total GULP energy -445434.115758 kJ/mol
# GULP energy per Si atom -5567.926447 kJ/mol
# Density = 1.869883 g / cm^3
# Si number density = 18.741486 Si / 1000 Ang^3
#
#
#
# Elastic Constant Matrix: (Units=GPa)
#
#
# Indices 1 2 3 4 5 6 
#
# 1 67.9083 29.1020 45.7065 0.0000 0.0000 0.0000
# 2 29.1020 67.9082 45.7056 0.0000 0.0000 0.0000
# 3 45.7065 45.7056 144.3143 0.0000 0.0000 0.0000
# 4 0.0000 0.0000 0.0000 19.9483 0.0000 0.0000
# 5 0.0000 0.0000 0.0000 0.0000 19.9506 0.0000
# 6 0.0000 0.0000 0.0000 0.0000 0.0000 19.3113
#
#
#
# Elastic Compliance Matrix: (Units=1/GPa)
#
#
# Indices 1 2 3 4 5 6 
#
# 1 0.020231 -0.005538 -0.004654 0.000000 0.000000 0.000000
# 2 -0.005538 0.020231 -0.004653 0.000000 0.000000 0.000000
# 3 -0.004654 -0.004653 0.009877 0.000000 0.000000 0.000000
# 4 0.000000 0.000000 0.000000 0.050129 0.000000 0.000000
# 5 0.000000 0.000000 0.000000 0.000000 0.050124 0.000000
# 6 0.000000 0.000000 0.000000 0.000000 0.000000 0.051783
#
#
# Mechanical properties :
#
#
# Convention : Reuss Voigt Hill
#
# Bulk Modulus (GPa) = 48.42787 57.90657 53.16722
# Shear Modulus (GPa) = 20.92501 22.48317 21.70409
#
# Velocity S-wave (km/s) = 3.34504 3.46735 3.40675
# Velocity P-wave (km/s) = 6.38867 6.85526 6.62608
#
# Compressibility (1/GPa) = 0.02064927
#
# Stress axis : x y z
#
# Youngs Moduli (GPa) = 49.42859 49.42905 101.24580
#
# Poissons Ratio (x) = 0.27374 0.47116
# Poissons Ratio (y) = 0.27373 0.47114
# Poissons Ratio (z) = 0.23002 0.23001
#
# Static dielectric constant tensor:
#      x y z
#    x 1.687020 0.000000 0.000000 
#    y 0.000000 1.687050 0.000000 
#    z 0.000000 0.000000 1.684190 
# 
# From -- ./inp_files/6802.got.cif
#   From: 2010.05.17/outbox.cif.g08.bks.cpg/sg140_4_cif.got.tgz:6802.got - 2010.06.21 00:45:31.
