data_PCOD9572666
_publ_section_title
;
Structure prediction by ZEFSAII (Michael W. Deem and Ramdas Pophale) SiO2 
 PCOD9572666
Probable space group: I 4/M C M
;
_chemical_formula_sum "Si O2"
_cell_formula_units_Z 136
_cell_length_a 17.917694
_cell_length_b 17.917694
_cell_length_c 23.230398
_cell_angle_alpha 90.000000
_cell_angle_beta 90.000000
_cell_angle_gamma 90.000000
_cell_volume 7457.974280
_symmetry_space_group_name_H-M "I 4/M C M"
_symmetry_group_IT_number 140
_symmetry_cell_setting 'tetragonal'
loop_
_space_group_symop_operation_xyz
x,y,z
-y,x,z
-x,-y,z
y,-x,z
x,-y,1/2-z
-x,y,1/2-z
y,x,1/2-z
-y,-x,1/2-z
-x,-y,-z
y,-x,-z
x,y,-z
-y,x,-z
-x,y,1/2+z
x,-y,1/2+z
-y,-x,1/2+z
y,x,1/2+z
1/2+x,1/2+y,1/2+z
1/2-y,1/2+x,1/2+z
1/2-x,1/2-y,1/2+z
1/2+y,1/2-x,1/2+z
1/2+x,1/2-y,-z
1/2-x,1/2+y,-z
1/2+y,1/2+x,-z
1/2-y,1/2-x,-z
1/2-x,1/2-y,1/2-z
1/2+y,1/2-x,1/2-z
1/2+x,1/2+y,1/2-z
1/2-y,1/2+x,1/2-z
1/2-x,1/2+y,z
1/2+x,1/2-y,z
1/2-y,1/2-x,z
1/2+y,1/2+x,z
loop_
_atom_site_type_symbol
_atom_site_label
_atom_site_fract_x
_atom_site_fract_y
_atom_site_fract_z
Si Si1 0.000000 0.500000 0.097134
Si Si2 0.032950 0.120632 0.437143
Si Si3 0.235658 0.264343 0.181087
Si Si4 0.119948 0.619948 0.066824
Si Si5 0.904368 0.237413 0.147152
Si Si6 0.609158 0.890843 0.328084
Si Si7 0.704696 0.000000 0.750000
O O1 0.056537 0.556537 0.066096
O O2 0.057952 0.442049 0.129412
O O3 0.043204 0.157331 0.500000
O O4 0.050921 0.174222 0.385606
O O5 0.950135 0.087735 0.434647
O O6 0.250000 0.250000 0.250000
O O7 0.216521 0.182275 0.156274
O O8 0.173826 0.326174 0.161861
O O9 0.092686 0.690368 0.105196
O O10 0.138771 0.638771 0.000000
O O11 0.943323 0.251778 0.208425
O O12 0.653416 0.950709 0.290775
#
# Coordination Sequence:
#
# PCOD9572666 Si02
#       7
#     8  32  16  16  32  16  16
#     4  12  23  39  66  90 122 159 217 266 320 368
#     4   9  20  39  62  86 113 151 203 259 310 366
#     4  11  23  40  55  84 131 162 202 248 311 371
#     4  11  23  41  60  89 124 161 207 262 318 372
#     4  11  23  38  60  91 119 169 204 248 313 390
#     4  12  23  41  61  90 125 169 202 267 302 383
#     4  12  22  37  62  87 126 162 208 250 318 367
#
# _framework density 18.235514999999999
#
# number of rings (size 3 to 8) (size 9 to 14) (size 15 to 20)
#    0.000    1.176    4.706    3.000    3.294    0.000 
#    0.000    0.000    0.000    8.471    0.000    0.000 
#    0.000    0.000    0.000    0.000    0.000    0.000 
#
# Total GULP energy -378866.020717 kJ/mol
# GULP energy per Si atom -5571.559128 kJ/mol
# Density = 1.819401 g / cm^3
# Si number density = 18.235515 Si / 1000 Ang^3
#
#
#
# Elastic Constant Matrix: (Units=GPa)
#
#
# Indices 1 2 3 4 5 6 
#
# 1 30.5147 63.7692 19.0304 0.0000 0.0000 0.0000
# 2 63.7692 30.5147 19.0304 0.0000 0.0000 0.0000
# 3 19.0304 19.0304 79.1498 0.0000 0.0000 0.0000
# 4 0.0000 0.0000 0.0000 18.6916 0.0000 0.0000
# 5 0.0000 0.0000 0.0000 0.0000 18.6916 0.0000
# 6 0.0000 0.0000 0.0000 0.0000 0.0000 0.6054
#
#
#
# Elastic Compliance Matrix: (Units=1/GPa)
#
#
# Indices 1 2 3 4 5 6 
#
# 1 -0.009162 0.020909 -0.002824 0.000000 0.000000 0.000000
# 2 0.020909 -0.009162 -0.002824 0.000000 0.000000 0.000000
# 3 -0.002824 -0.002824 0.013992 0.000000 0.000000 0.000000
# 4 0.000000 0.000000 0.000000 0.053500 0.000000 0.000000
# 5 0.000000 0.000000 0.000000 0.000000 0.053500 0.000000
# 6 0.000000 0.000000 0.000000 0.000000 0.000000 1.651756
#
#
# Mechanical properties :
#
#
# Convention : Reuss Voigt Hill
#
# Bulk Modulus (GPa) = 38.18524 38.20436 38.19480
# Shear Modulus (GPa) = 2.88578 10.15433 6.52006
#
# Velocity S-wave (km/s) = 1.25934 2.36231 1.89294
# Velocity P-wave (km/s) = 4.80626 5.33261 5.07626
#
# Compressibility (1/GPa) = 0.02618813
#
# Stress axis : x y z
#
# Youngs Moduli (GPa) = -109.14207 -109.14208 71.46757
#
# Poissons Ratio (x) = 2.28202 0.20184
# Poissons Ratio (y) = 2.28202 0.20184
# Poissons Ratio (z) = -0.30824 -0.30824
#
# Static dielectric constant tensor:
#      x y z
#    x 1.632130 0.000000 0.000000 
#    y 0.000000 1.632130 0.000000 
#    z 0.000000 0.000000 1.637320 
# 
# From -- ./inp_files/8164.got.cif
#   From: 2010.05.17/outbox.cif.g08.bks.cpg/sg140_5_cif.got.tgz:8164.got - 2010.06.21 00:45:31.
