data_PCOD9572454
_publ_section_title
;
Structure prediction by ZEFSAII (Michael W. Deem and Ramdas Pophale) SiO2 
 PCOD9572454
Probable space group: I 4/M C M
;
_chemical_formula_sum "Si O2"
_cell_formula_units_Z 112
_cell_length_a 19.515897
_cell_length_b 19.515897
_cell_length_c 16.209111
_cell_angle_alpha 90.000000
_cell_angle_beta 90.000000
_cell_angle_gamma 90.000000
_cell_volume 6173.567927
_symmetry_space_group_name_H-M "I 4/M C M"
_symmetry_group_IT_number 140
_symmetry_cell_setting 'tetragonal'
loop_
_space_group_symop_operation_xyz
x,y,z
-y,x,z
-x,-y,z
y,-x,z
x,-y,1/2-z
-x,y,1/2-z
y,x,1/2-z
-y,-x,1/2-z
-x,-y,-z
y,-x,-z
x,y,-z
-y,x,-z
-x,y,1/2+z
x,-y,1/2+z
-y,-x,1/2+z
y,x,1/2+z
1/2+x,1/2+y,1/2+z
1/2-y,1/2+x,1/2+z
1/2-x,1/2-y,1/2+z
1/2+y,1/2-x,1/2+z
1/2+x,1/2-y,-z
1/2-x,1/2+y,-z
1/2+y,1/2+x,-z
1/2-y,1/2-x,-z
1/2-x,1/2-y,1/2-z
1/2+y,1/2-x,1/2-z
1/2+x,1/2+y,1/2-z
1/2-y,1/2+x,1/2-z
1/2-x,1/2+y,z
1/2+x,1/2-y,z
1/2-y,1/2-x,z
1/2+y,1/2+x,z
loop_
_atom_site_type_symbol
_atom_site_label
_atom_site_fract_x
_atom_site_fract_y
_atom_site_fract_z
Si Si1 0.386151 0.491972 0.000000
Si Si2 0.285532 0.674947 0.156409
Si Si3 0.706260 0.486673 0.841544
Si Si4 0.392137 0.780895 0.904102
O O1 0.438550 0.429674 0.000000
O O2 0.342245 0.491600 0.916825
O O3 0.308243 0.691758 0.250000
O O4 0.214721 0.714721 0.140034
O O5 0.279790 0.593788 0.146992
O O6 0.343937 0.713339 0.103567
O O7 0.676737 0.500000 0.750000
O O8 0.769489 0.539471 0.851436
O O9 0.343513 0.843513 0.876129
O O10 0.409550 0.791044 0.000000
#
# Coordination Sequence:
#
# PCOD9572454 Si02
#       4
#    16  32  32  32
#     4  11  26  40  52  80 122 159 200 244 288 355
#     4  10  21  37  58  86 116 149 199 254 294 341
#     4  12  23  36  61  86 115 158 198 244 303 358
#     4  10  21  38  58  84 116 154 197 245 294 348
#
# _framework density 18.141859
#
# number of rings (size 3 to 8) (size 9 to 14) (size 15 to 20)
#    0.000    1.286    4.286    1.714    2.000    0.000 
#    0.000    1.429    0.000    0.857    0.000    4.000 
#    0.000    0.000    0.000    0.000    0.000    0.000 
#
# Total GULP energy -312566.012632 kJ/mol
# GULP energy per Si atom -5581.535940 kJ/mol
# Density = 1.810057 g / cm^3
# Si number density = 18.141859 Si / 1000 Ang^3
#
#
#
# Elastic Constant Matrix: (Units=GPa)
#
#
# Indices 1 2 3 4 5 6 
#
# 1 98.8844 44.1570 13.1065 0.0000 0.0000 0.0000
# 2 44.1570 98.8858 13.1069 0.0000 0.0000 0.0000
# 3 13.1065 13.1069 94.3376 0.0000 0.0000 0.0000
# 4 0.0000 0.0000 0.0000 13.2893 0.0000 0.0000
# 5 0.0000 0.0000 0.0000 0.0000 13.2889 0.0000
# 6 0.0000 0.0000 0.0000 0.0000 0.0000 -11.1259
#
#
#
# Elastic Compliance Matrix: (Units=1/GPa)
#
#
# Indices 1 2 3 4 5 6 
#
# 1 0.012723 -0.005549 -0.000997 0.000000 0.000000 0.000000
# 2 -0.005549 0.012723 -0.000997 0.000000 0.000000 0.000000
# 3 -0.000997 -0.000997 0.010877 0.000000 0.000000 0.000000
# 4 0.000000 0.000000 0.000000 0.075248 0.000000 0.000000
# 5 0.000000 0.000000 0.000000 0.000000 0.075251 0.000000
# 6 0.000000 0.000000 0.000000 0.000000 0.000000 -0.089880
#
#
# Mechanical properties :
#
#
# Convention : Reuss Voigt Hill
#
# Bulk Modulus (GPa) = 47.08601 48.09429 47.59015
# Shear Modulus (GPa) = 41.97925 17.87295 29.92610
#
# Velocity S-wave (km/s) = 4.81557 3.14216 4.06588
# Velocity P-wave (km/s) = 7.54521 6.30332 6.95206
#
# Compressibility (1/GPa) = 0.02123773
#
# Stress axis : x y z
#
# Youngs Moduli (GPa) = 78.59807 78.59911 91.93572
#
# Poissons Ratio (x) = 0.43617 0.09163
# Poissons Ratio (y) = 0.43616 0.09163
# Poissons Ratio (z) = 0.07833 0.07834
#
# Static dielectric constant tensor:
#      x y z
#    x 1.632560 0.000000 0.000000 
#    y 0.000000 1.632560 0.000000 
#    z 0.000000 0.000000 1.707430 
# 
# From -- ./inp_files/6091.got.cif
#   From: 2010.05.17/outbox.cif.g08.bks.cpg/sg140_4_cif.got.tgz:6091.got - 2010.06.21 00:45:31.
