data_PCOD9572552
_publ_section_title
;
Structure prediction by ZEFSAII (Michael W. Deem and Ramdas Pophale) SiO2 
 PCOD9572552
Probable space group: I 4/M C M
;
_chemical_formula_sum "Si O2"
_cell_formula_units_Z 96
_cell_length_a 17.782111
_cell_length_b 17.782111
_cell_length_c 13.815877
_cell_angle_alpha 90.000000
_cell_angle_beta 90.000000
_cell_angle_gamma 90.000000
_cell_volume 4368.628271
_symmetry_space_group_name_H-M "I 4/M C M"
_symmetry_group_IT_number 140
_symmetry_cell_setting 'tetragonal'
loop_
_space_group_symop_operation_xyz
x,y,z
-y,x,z
-x,-y,z
y,-x,z
x,-y,1/2-z
-x,y,1/2-z
y,x,1/2-z
-y,-x,1/2-z
-x,-y,-z
y,-x,-z
x,y,-z
-y,x,-z
-x,y,1/2+z
x,-y,1/2+z
-y,-x,1/2+z
y,x,1/2+z
1/2+x,1/2+y,1/2+z
1/2-y,1/2+x,1/2+z
1/2-x,1/2-y,1/2+z
1/2+y,1/2-x,1/2+z
1/2+x,1/2-y,-z
1/2-x,1/2+y,-z
1/2+y,1/2+x,-z
1/2-y,1/2-x,-z
1/2-x,1/2-y,1/2-z
1/2+y,1/2-x,1/2-z
1/2+x,1/2+y,1/2-z
1/2-y,1/2+x,1/2-z
1/2-x,1/2+y,z
1/2+x,1/2-y,z
1/2-y,1/2-x,z
1/2+y,1/2+x,z
loop_
_atom_site_type_symbol
_atom_site_label
_atom_site_fract_x
_atom_site_fract_y
_atom_site_fract_z
Si Si1 0.269875 0.570178 0.209206
Si Si2 0.290757 0.332318 0.107444
Si Si3 0.004687 0.376776 0.112461
O O1 0.316909 0.500000 0.250000
O O2 0.255733 0.380283 0.194580
O O3 0.312847 0.623983 0.135626
O O4 0.195830 0.533147 0.161660
O O5 0.245953 0.254048 0.106617
O O6 0.284347 0.365808 0.000000
O O7 0.940984 0.440984 0.115328
O O8 0.080334 0.419667 0.150806
O O9 0.019574 0.358829 0.000000
#
# Coordination Sequence:
#
# PCOD9572552 Si02
#       3
#    32  32  32
#     4  11  22  36  59  90 122 158 208 270 333 389
#     4  10  22  41  64  89 122 172 231 281 325 385
#     4   9  18  32  51  80 122 170 212 250 304 379
#
# _framework density 21.97486
#
# number of rings (size 3 to 8) (size 9 to 14) (size 15 to 20)
#    0.000    2.000    0.000    6.000    0.000    9.333 
#    0.000    5.000    0.000    9.000    0.000   14.000 
#    0.000    0.000    0.000    0.000    0.000    0.000 
#
# Total GULP energy -267906.451575 kJ/mol
# GULP energy per Si atom -5581.384408 kJ/mol
# Density = 2.192484 g / cm^3
# Si number density = 21.974860 Si / 1000 Ang^3
#
#
#
# Elastic Constant Matrix: (Units=GPa)
#
#
# Indices 1 2 3 4 5 6 
#
# 1 105.3669 36.0473 28.5001 0.0000 0.0000 0.0000
# 2 36.0473 105.3669 28.5001 0.0000 0.0000 0.0000
# 3 28.5001 28.5001 140.7913 0.0000 0.0000 0.0000
# 4 0.0000 0.0000 0.0000 6.1356 0.0000 0.0000
# 5 0.0000 0.0000 0.0000 0.0000 6.1356 0.0000
# 6 0.0000 0.0000 0.0000 0.0000 0.0000 45.3917
#
#
#
# Elastic Compliance Matrix: (Units=1/GPa)
#
#
# Indices 1 2 3 4 5 6 
#
# 1 0.011063 -0.003363 -0.001559 0.000000 0.000000 0.000000
# 2 -0.003363 0.011063 -0.001559 0.000000 0.000000 0.000000
# 3 -0.001559 -0.001559 0.007734 0.000000 0.000000 0.000000
# 4 0.000000 0.000000 0.000000 0.162983 0.000000 0.000000
# 5 0.000000 0.000000 0.000000 0.000000 0.162983 0.000000
# 6 0.000000 0.000000 0.000000 0.000000 0.000000 0.022030
#
#
# Mechanical properties :
#
#
# Convention : Reuss Voigt Hill
#
# Bulk Modulus (GPa) = 59.17668 59.73558 59.45613
# Shear Modulus (GPa) = 12.61192 28.76441 20.68816
#
# Velocity S-wave (km/s) = 2.39827 3.62189 3.07163
# Velocity P-wave (km/s) = 5.88699 6.68830 6.30040
#
# Compressibility (1/GPa) = 0.01689855
#
# Stress axis : x y z
#
# Youngs Moduli (GPa) = 90.39303 90.39303 129.30365
#
# Poissons Ratio (x) = 0.30400 0.20154
# Poissons Ratio (y) = 0.30400 0.20154
# Poissons Ratio (z) = 0.14089 0.14089
#
# Static dielectric constant tensor:
#      x y z
#    x 1.829290 0.000000 0.000000 
#    y 0.000000 1.829290 0.000000 
#    z 0.000000 0.000000 1.894600 
# 
# From -- ./inp_files/5837.got.cif
#   From: 2010.05.17/outbox.cif.g08.bks.cpg/sg140_3_cif.got.tgz:5837.got - 2010.06.21 00:45:31.
