data_PCOD9572628
_publ_section_title
;
Structure prediction by ZEFSAII (Michael W. Deem and Ramdas Pophale) SiO2 
 PCOD9572628
Probable space group: I 4/M C M
;
_chemical_formula_sum "Si O2"
_cell_formula_units_Z 80
_cell_length_a 14.888116
_cell_length_b 14.888116
_cell_length_c 19.144356
_cell_angle_alpha 90.000000
_cell_angle_beta 90.000000
_cell_angle_gamma 90.000000
_cell_volume 4243.461336
_symmetry_space_group_name_H-M "I 4/M C M"
_symmetry_group_IT_number 140
_symmetry_cell_setting 'tetragonal'
loop_
_space_group_symop_operation_xyz
x,y,z
-y,x,z
-x,-y,z
y,-x,z
x,-y,1/2-z
-x,y,1/2-z
y,x,1/2-z
-y,-x,1/2-z
-x,-y,-z
y,-x,-z
x,y,-z
-y,x,-z
-x,y,1/2+z
x,-y,1/2+z
-y,-x,1/2+z
y,x,1/2+z
1/2+x,1/2+y,1/2+z
1/2-y,1/2+x,1/2+z
1/2-x,1/2-y,1/2+z
1/2+y,1/2-x,1/2+z
1/2+x,1/2-y,-z
1/2-x,1/2+y,-z
1/2+y,1/2+x,-z
1/2-y,1/2-x,-z
1/2-x,1/2-y,1/2-z
1/2+y,1/2-x,1/2-z
1/2+x,1/2+y,1/2-z
1/2-y,1/2+x,1/2-z
1/2-x,1/2+y,z
1/2+x,1/2-y,z
1/2-y,1/2-x,z
1/2+y,1/2+x,z
loop_
_atom_site_type_symbol
_atom_site_label
_atom_site_fract_x
_atom_site_fract_y
_atom_site_fract_z
Si Si1 0.146551 0.039478 0.000000
Si Si2 0.893163 0.893163 0.750000
Si Si3 0.890808 0.757337 0.363871
Si Si4 0.500000 0.144926 0.750000
O O1 0.204725 0.059705 0.068565
O O2 0.060557 0.106099 0.000000
O O3 0.856890 0.841859 0.682274
O O4 0.000000 0.880082 0.750000
O O5 0.809355 0.690646 0.381863
O O6 0.957572 0.703083 0.312235
O O7 0.420228 0.079773 0.723944
#
# Coordination Sequence:
#
# PCOD9572628 Si02
#       4
#    16  16  32  16
#     4  11  25  44  60  85 127 169 202 249 314 375
#     4  11  21  36  58  88 123 163 202 242 302 367
#     4  11  22  40  64  92 121 158 212 260 304 364
#     4   9  20  40  65  92 124 160 205 260 312 363
#
# _framework density 18.852535
#
# number of rings (size 3 to 8) (size 9 to 14) (size 15 to 20)
#    0.000    1.400    2.000    3.600    0.000    3.200 
#    0.000    3.000    0.000    4.800    0.000    0.000 
#    0.000    0.000    0.000    0.000    0.000    0.000 
#
# Total GULP energy -223406.059550 kJ/mol
# GULP energy per Si atom -5585.151489 kJ/mol
# Density = 1.880963 g / cm^3
# Si number density = 18.852535 Si / 1000 Ang^3
#
#
#
# Elastic Constant Matrix: (Units=GPa)
#
#
# Indices 1 2 3 4 5 6 
#
# 1 113.4972 50.7396 42.5367 0.0000 0.0000 0.0000
# 2 50.7396 113.4972 42.5367 0.0000 0.0000 0.0000
# 3 42.5367 42.5367 108.5807 0.0000 0.0000 0.0000
# 4 0.0000 0.0000 0.0000 45.5410 0.0000 0.0000
# 5 0.0000 0.0000 0.0000 0.0000 45.5410 0.0000
# 6 0.0000 0.0000 0.0000 0.0000 0.0000 20.4716
#
#
#
# Elastic Compliance Matrix: (Units=1/GPa)
#
#
# Indices 1 2 3 4 5 6 
#
# 1 0.011787 -0.004148 -0.002993 0.000000 0.000000 0.000000
# 2 -0.004148 0.011787 -0.002993 0.000000 0.000000 0.000000
# 3 -0.002993 -0.002993 0.011554 0.000000 0.000000 0.000000
# 4 0.000000 0.000000 0.000000 0.021958 0.000000 0.000000
# 5 0.000000 0.000000 0.000000 0.000000 0.021958 0.000000
# 6 0.000000 0.000000 0.000000 0.000000 0.000000 0.048848
#
#
# Mechanical properties :
#
#
# Convention : Reuss Voigt Hill
#
# Bulk Modulus (GPa) = 67.28573 67.46679 67.37626
# Shear Modulus (GPa) = 32.65586 35.62820 34.14203
#
# Velocity S-wave (km/s) = 4.16645 4.35194 4.26021
# Velocity P-wave (km/s) = 7.67553 7.81772 7.74695
#
# Compressibility (1/GPa) = 0.01486199
#
# Stress axis : x y z
#
# Youngs Moduli (GPa) = 84.84209 84.84209 86.54703
#
# Poissons Ratio (x) = 0.35190 0.25900
# Poissons Ratio (y) = 0.35190 0.25900
# Poissons Ratio (z) = 0.25389 0.25389
#
# Static dielectric constant tensor:
#      x y z
#    x 1.672180 0.000000 0.000000 
#    y 0.000000 1.672180 0.000000 
#    z 0.000000 0.000000 1.625470 
# 
# From -- ./inp_files/7538.got.cif
#   From: 2010.05.17/outbox.cif.g08.bks.cpg/sg140_4_cif.got.tgz:7538.got - 2010.06.21 00:45:31.
