data_PCOD9572986
_publ_section_title
;
Structure prediction by ZEFSAII (Michael W. Deem and Ramdas Pophale) SiO2 
 PCOD9572986
Probable space group: I 41/A M D
;
_chemical_formula_sum "Si O2"
_cell_formula_units_Z 160
_cell_length_a 18.298510
_cell_length_b 18.298510
_cell_length_c 22.115662
_cell_angle_alpha 90.000000
_cell_angle_beta 90.000000
_cell_angle_gamma 90.000000
_cell_volume 7405.108041
_symmetry_space_group_name_H-M "I 41/A M D"
_symmetry_group_IT_number 141
_space_group.IT_coordinate_system_code '2'
_symmetry_cell_setting 'tetragonal'
loop_
_space_group_symop_operation_xyz
x,y,z
1/4-y,3/4+x,1/4+z
-x,1/2-y,z
1/4+y,1/4-x,3/4+z
x,-y,-z
-x,1/2+y,-z
1/4+y,3/4+x,1/4-z
1/4-y,1/4-x,3/4-z
-x,-y,-z
3/4+y,1/4-x,3/4-z
x,1/2+y,-z
3/4-y,3/4+x,1/4-z
-x,y,z
x,1/2-y,z
3/4-y,1/4-x,3/4+z
3/4+y,3/4+x,1/4+z
1/2+x,1/2+y,1/2+z
3/4-y,1/4+x,3/4+z
1/2-x,-y,1/2+z
3/4+y,3/4-x,1/4+z
1/2+x,1/2-y,1/2-z
1/2-x,y,1/2-z
3/4+y,1/4+x,3/4-z
3/4-y,3/4-x,1/4-z
1/2-x,1/2-y,1/2-z
1/4+y,3/4-x,1/4-z
1/2+x,y,1/2-z
1/4-y,1/4+x,3/4-z
1/2-x,1/2+y,1/2+z
1/2+x,-y,1/2+z
1/4-y,3/4-x,1/4+z
1/4+y,1/4+x,3/4+z
loop_
_atom_site_type_symbol
_atom_site_label
_atom_site_fract_x
_atom_site_fract_y
_atom_site_fract_z
Si Si1 0.686220 0.833858 0.701773
Si Si2 0.334414 0.024731 0.838405
Si Si3 0.217351 0.334495 0.528251
Si Si4 0.582014 0.329425 0.552378
Si Si5 0.585072 0.488897 0.586443
O O1 0.666251 0.750000 0.711027
O O2 0.750000 0.852651 0.750000
O O3 0.717229 0.849005 0.635165
O O4 0.618067 0.888146 0.707142
O O5 0.365031 0.995113 0.775818
O O6 0.297948 0.102764 0.825619
O O7 0.275485 0.974516 0.875000
O O8 0.212183 0.250000 0.510895
O O9 0.266242 0.338622 0.589556
O O10 0.500000 0.329386 0.525641
O O11 0.615026 0.250000 0.531844
O O12 0.604153 0.414888 0.550397
O O13 0.573891 0.323891 0.625000
O O14 0.500000 0.507502 0.573828
#
# Coordination Sequence:
#
# PCOD9572986 Si02
#       5
#    32  32  32  32  32
#     4  10  20  36  58  83 111 144 185 234 290 352
#     4  11  20  34  56  81 109 151 191 239 292 353
#     4  10  21  37  56  81 112 148 192 237 289 352
#     4   8  13  24  44  70  99 133 175 222 271 319
#     4   9  19  33  51  78 113 150 192 239 287 347
#
# _framework density 21.606708000000001
#
# number of rings (size 3 to 8) (size 9 to 14) (size 15 to 20)
#    0.000    2.400    2.000    1.800    0.000    0.400 
#    0.000    1.000    0.000    3.000    0.000    8.400 
#    0.000    0.000    0.000    0.000    0.000    0.000 
#
# Total GULP energy -446087.999421 kJ/mol
# GULP energy per Si atom -5576.099993 kJ/mol
# Density = 2.155753 g / cm^3
# Si number density = 21.606708 Si / 1000 Ang^3
#
#
#
# Elastic Constant Matrix: (Units=GPa)
#
#
# Indices 1 2 3 4 5 6 
#
# 1 108.9088 64.8195 41.0975 0.0000 0.0000 0.0000
# 2 64.8195 108.9086 41.0974 0.0000 0.0000 0.0000
# 3 41.0975 41.0974 109.6170 0.0000 0.0000 0.0000
# 4 0.0000 0.0000 0.0000 8.1062 0.0000 0.0000
# 5 0.0000 0.0000 0.0000 0.0000 8.1061 0.0000
# 6 0.0000 0.0000 0.0000 0.0000 0.0000 26.0520
#
#
#
# Elastic Compliance Matrix: (Units=1/GPa)
#
#
# Indices 1 2 3 4 5 6 
#
# 1 0.014839 -0.007842 -0.002623 0.000000 0.000000 0.000000
# 2 -0.007842 0.014839 -0.002623 0.000000 0.000000 0.000000
# 3 -0.002623 -0.002623 0.011090 0.000000 0.000000 0.000000
# 4 0.000000 0.000000 0.000000 0.123362 0.000000 0.000000
# 5 0.000000 0.000000 0.000000 0.000000 0.123365 0.000000
# 6 0.000000 0.000000 0.000000 0.000000 0.000000 0.038385
#
#
# Mechanical properties :
#
#
# Convention : Reuss Voigt Hill
#
# Bulk Modulus (GPa) = 68.53657 69.05148 68.79403
# Shear Modulus (GPa) = 14.00869 20.48085 17.24477
#
# Velocity S-wave (km/s) = 2.54903 3.08213 2.82817
# Velocity P-wave (km/s) = 6.36021 6.68534 6.52480
#
# Compressibility (1/GPa) = 0.01459075
#
# Stress axis : x y z
#
# Youngs Moduli (GPa) = 67.38860 67.38847 90.17283
#
# Poissons Ratio (x) = 0.52846 0.23656
# Poissons Ratio (y) = 0.52846 0.23656
# Poissons Ratio (z) = 0.17679 0.17679
#
# Static dielectric constant tensor:
#      x y z
#    x 1.862710 0.000000 0.000000 
#    y 0.000000 1.862710 0.000000 
#    z 0.000000 0.000000 1.811520 
# 
# From -- ./inp_files/12758.got.cif
#   From: 2010.05.17/outbox.cif.g08.bks.cpg/sg141_7_cif.got.tgz:12758.got - 2010.05.20 13:30:51.
