data_PCOD9572918
_publ_section_title
;
Structure prediction by ZEFSAII (Michael W. Deem and Ramdas Pophale) SiO2 
 PCOD9572918
Probable space group: I 41/A M D
;
_chemical_formula_sum "Si O2"
_cell_formula_units_Z 224
_cell_length_a 23.992757
_cell_length_b 23.992757
_cell_length_c 22.810387
_cell_angle_alpha 90.000000
_cell_angle_beta 90.000000
_cell_angle_gamma 90.000000
_cell_volume 13130.853758
_symmetry_space_group_name_H-M "I 41/A M D"
_symmetry_group_IT_number 141
_space_group.IT_coordinate_system_code '2'
_symmetry_cell_setting 'tetragonal'
loop_
_space_group_symop_operation_xyz
x,y,z
1/4-y,3/4+x,1/4+z
-x,1/2-y,z
1/4+y,1/4-x,3/4+z
x,-y,-z
-x,1/2+y,-z
1/4+y,3/4+x,1/4-z
1/4-y,1/4-x,3/4-z
-x,-y,-z
3/4+y,1/4-x,3/4-z
x,1/2+y,-z
3/4-y,3/4+x,1/4-z
-x,y,z
x,1/2-y,z
3/4-y,1/4-x,3/4+z
3/4+y,3/4+x,1/4+z
1/2+x,1/2+y,1/2+z
3/4-y,1/4+x,3/4+z
1/2-x,-y,1/2+z
3/4+y,3/4-x,1/4+z
1/2+x,1/2-y,1/2-z
1/2-x,y,1/2-z
3/4+y,1/4+x,3/4-z
3/4-y,3/4-x,1/4-z
1/2-x,1/2-y,1/2-z
1/4+y,3/4-x,1/4-z
1/2+x,y,1/2-z
1/4-y,1/4+x,3/4-z
1/2-x,1/2+y,1/2+z
1/2+x,-y,1/2+z
1/4-y,3/4-x,1/4+z
1/4+y,1/4+x,3/4+z
loop_
_atom_site_type_symbol
_atom_site_label
_atom_site_fract_x
_atom_site_fract_y
_atom_site_fract_z
Si Si1 0.438349 0.949614 0.454722
Si Si2 0.375905 0.503532 0.656215
Si Si3 0.817373 0.425893 0.756035
Si Si4 0.271100 0.573784 0.614747
Si Si5 0.935664 0.576389 0.744498
Si Si6 0.226229 0.811689 0.636026
Si Si7 0.395229 0.687175 0.811703
O O1 0.500000 0.924323 0.445631
O O2 0.413777 0.976581 0.394824
O O3 0.388637 0.914864 0.486081
O O4 0.445117 0.000000 0.500000
O O5 0.340695 0.455103 0.686783
O O6 0.328177 0.544339 0.632734
O O7 0.409471 0.538628 0.704748
O O8 0.750000 0.426540 0.750000
O O9 0.836771 0.465163 0.703024
O O10 0.218742 0.531259 0.625000
O O11 0.260711 0.632282 0.647027
O O12 0.933535 0.545377 0.681310
O O13 0.909186 0.637085 0.732285
O O14 0.000000 0.585425 0.758871
O O15 0.252300 0.750000 0.643377
O O16 0.170614 0.813657 0.675012
O O17 0.411062 0.750000 0.793395
O O18 0.423937 0.673937 0.875000
#
# Coordination Sequence:
#
# PCOD9572918 Si02
#       7
#    32  32  32  32  32  32  32
#     4  10  20  35  53  75 110 140 163 210 270 327
#     4  12  21  33  52  78 111 138 172 214 265 335
#     4  11  20  34  51  83 110 137 174 216 259 325
#     4  12  20  32  54  77 108 142 176 216 269 323
#     4  10  20  32  48  74 103 134 175 221 269 317
#     4   9  19  34  50  71 103 141 182 222 262 311
#     4   9  17  31  51  73  99 136 186 235 269 300
#
# _framework density 17.059056999999999
#
# number of rings (size 3 to 8) (size 9 to 14) (size 15 to 20)
#    0.000    1.571    5.714    3.429    0.000    1.000 
#    0.000    0.714    0.000    1.714    0.000    0.000 
#    0.000   17.143    0.000    0.000    0.000    0.000 
#
# Total GULP energy -623509.265440 kJ/mol
# GULP energy per Si atom -5567.047013 kJ/mol
# Density = 1.702023 g / cm^3
# Si number density = 17.059057 Si / 1000 Ang^3
#
#
#
# Elastic Constant Matrix: (Units=GPa)
#
#
# Indices 1 2 3 4 5 6 
#
# 1 66.2959 32.2260 18.5293 0.0000 0.0000 0.0000
# 2 32.2260 66.3000 18.5273 0.0000 0.0000 0.0000
# 3 18.5293 18.5273 57.3603 0.0000 0.0000 0.0000
# 4 0.0000 0.0000 0.0000 -28.9680 0.0000 0.0000
# 5 0.0000 0.0000 0.0000 0.0000 -28.9641 0.0000
# 6 0.0000 0.0000 0.0000 0.0000 0.0000 19.8359
#
#
#
# Elastic Compliance Matrix: (Units=1/GPa)
#
#
# Indices 1 2 3 4 5 6 
#
# 1 0.020452 -0.008898 -0.003733 0.000000 0.000000 0.000000
# 2 -0.008898 0.020451 -0.003731 0.000000 0.000000 0.000000
# 3 -0.003733 -0.003731 0.019845 0.000000 0.000000 0.000000
# 4 0.000000 0.000000 0.000000 -0.034521 0.000000 0.000000
# 5 0.000000 0.000000 0.000000 0.000000 -0.034526 0.000000
# 6 0.000000 0.000000 0.000000 0.000000 0.000000 0.050414
#
#
# Mechanical properties :
#
#
# Convention : Reuss Voigt Hill
#
# Bulk Modulus (GPa) = 35.68400 36.50235 36.09317
# Shear Modulus (GPa) = 59.39643 0.42568 29.91105
#
# Velocity S-wave (km/s) = 5.90709 0.50007 4.19188
# Velocity P-wave (km/s) = 8.21512 4.66664 6.68079
#
# Compressibility (1/GPa) = 0.02802377
#
# Stress axis : x y z
#
# Youngs Moduli (GPa) = 48.89389 48.89820 50.39147
#
# Poissons Ratio (x) = 0.43510 0.18810
# Poissons Ratio (y) = 0.43506 0.18802
# Poissons Ratio (z) = 0.18251 0.18245
#
# Static dielectric constant tensor:
#      x y z
#    x 1.609660 0.000000 0.000000 
#    y 0.000000 1.609660 0.000000 
#    z 0.000000 0.000000 1.689390 
# 
# From -- ./inp_files/11892.got.cif
#   From: 2010.05.17/outbox.cif.g08.bks.cpg/sg141_6_cif.got.tgz:11892.got - 2010.05.20 13:30:51.
