data_PCOD9572877
_publ_section_title
;
Structure prediction by ZEFSAII (Michael W. Deem and Ramdas Pophale) SiO2 
 PCOD9572877
Probable space group: I 41/A M D
;
_chemical_formula_sum "Si O2"
_cell_formula_units_Z 96
_cell_length_a 16.982269
_cell_length_b 16.982269
_cell_length_c 15.059375
_cell_angle_alpha 90.000000
_cell_angle_beta 90.000000
_cell_angle_gamma 90.000000
_cell_volume 4343.085505
_symmetry_space_group_name_H-M "I 41/A M D"
_symmetry_group_IT_number 141
_space_group.IT_coordinate_system_code '2'
_symmetry_cell_setting 'tetragonal'
loop_
_space_group_symop_operation_xyz
x,y,z
1/4-y,3/4+x,1/4+z
-x,1/2-y,z
1/4+y,1/4-x,3/4+z
x,-y,-z
-x,1/2+y,-z
1/4+y,3/4+x,1/4-z
1/4-y,1/4-x,3/4-z
-x,-y,-z
3/4+y,1/4-x,3/4-z
x,1/2+y,-z
3/4-y,3/4+x,1/4-z
-x,y,z
x,1/2-y,z
3/4-y,1/4-x,3/4+z
3/4+y,3/4+x,1/4+z
1/2+x,1/2+y,1/2+z
3/4-y,1/4+x,3/4+z
1/2-x,-y,1/2+z
3/4+y,3/4-x,1/4+z
1/2+x,1/2-y,1/2-z
1/2-x,y,1/2-z
3/4+y,1/4+x,3/4-z
3/4-y,3/4-x,1/4-z
1/2-x,1/2-y,1/2-z
1/4+y,3/4-x,1/4-z
1/2+x,y,1/2-z
1/4-y,1/4+x,3/4-z
1/2-x,1/2+y,1/2+z
1/2+x,-y,1/2+z
1/4-y,3/4-x,1/4+z
1/4+y,1/4+x,3/4+z
loop_
_atom_site_type_symbol
_atom_site_label
_atom_site_fract_x
_atom_site_fract_y
_atom_site_fract_z
Si Si1 0.000000 0.657020 0.492001
Si Si2 0.406216 0.250000 0.466202
Si Si3 0.843144 0.587139 0.751220
Si Si4 0.663287 0.912323 0.204767
O O1 0.918603 0.628024 0.532121
O O2 0.000000 0.750000 0.492794
O O3 0.000000 0.630707 0.388113
O O4 0.500000 0.250000 0.471896
O O5 0.376737 0.335860 0.499565
O O6 0.750000 0.596555 0.750000
O O7 0.641727 0.505143 0.797580
O O8 0.868814 0.577051 0.854349
O O9 0.750000 0.904781 0.250000
#
# Coordination Sequence:
#
# PCOD9572877 Si02
#       4
#    16  16  32  32
#     4   9  19  33  53  81 106 145 178 224 270 323
#     4   9  20  37  55  82 109 140 185 226 274 326
#     4  10  19  34  57  79 110 142 185 222 271 324
#     4  10  20  35  60  81 108 147 183 223 274 329
#
# _framework density 22.104101
#
# number of rings (size 3 to 8) (size 9 to 14) (size 15 to 20)
#    0.000    2.333    0.000    4.500    2.333    0.667 
#    0.000    0.000   14.667    0.000    0.000    0.000 
#    0.000    0.000    0.000    0.000    0.000    0.000 
#
# Total GULP energy -267697.028299 kJ/mol
# GULP energy per Si atom -5577.021423 kJ/mol
# Density = 2.205379 g / cm^3
# Si number density = 22.104101 Si / 1000 Ang^3
#
#
#
# Elastic Constant Matrix: (Units=GPa)
#
#
# Indices 1 2 3 4 5 6 
#
# 1 108.4011 72.2746 13.3403 0.0000 0.0000 0.0000
# 2 72.2746 108.4011 13.3403 0.0000 0.0000 0.0000
# 3 13.3403 13.3403 54.9988 0.0000 0.0000 0.0000
# 4 0.0000 0.0000 0.0000 18.5505 0.0000 0.0000
# 5 0.0000 0.0000 0.0000 0.0000 18.5505 0.0000
# 6 0.0000 0.0000 0.0000 0.0000 0.0000 46.1440
#
#
#
# Elastic Compliance Matrix: (Units=1/GPa)
#
#
# Indices 1 2 3 4 5 6 
#
# 1 0.016710 -0.010970 -0.001392 0.000000 0.000000 0.000000
# 2 -0.010970 0.016710 -0.001392 0.000000 0.000000 0.000000
# 3 -0.001392 -0.001392 0.018858 0.000000 0.000000 0.000000
# 4 0.000000 0.000000 0.000000 0.053907 0.000000 0.000000
# 5 0.000000 0.000000 0.000000 0.000000 0.053907 0.000000
# 6 0.000000 0.000000 0.000000 0.000000 0.000000 0.021671
#
#
# Mechanical properties :
#
#
# Convention : Reuss Voigt Hill
#
# Bulk Modulus (GPa) = 40.37307 52.19017 46.28162
# Shear Modulus (GPa) = 22.98535 28.17204 25.57869
#
# Velocity S-wave (km/s) = 3.22820 3.57391 3.40544
# Velocity P-wave (km/s) = 5.67447 6.37909 6.03707
#
# Compressibility (1/GPa) = 0.02476899
#
# Stress axis : x y z
#
# Youngs Moduli (GPa) = 59.84274 59.84274 53.02877
#
# Poissons Ratio (x) = 0.65648 0.07384
# Poissons Ratio (y) = 0.65648 0.07384
# Poissons Ratio (z) = 0.08332 0.08332
#
# Static dielectric constant tensor:
#      x y z
#    x -1.471550 0.000000 0.000000 
#    y 0.000000 -1.471550 0.000000 
#    z 0.000000 0.000000 1.935880 
# 
# From -- ./inp_files/11059.got.cif
#   From: 2010.05.17/outbox.cif.g08.bks.cpg/sg141_6_cif.got.tgz:11059.got - 2010.05.20 13:30:51.
