data_PCOD9572234
_publ_section_title
;
Structure prediction by ZEFSAII (Michael W. Deem and Ramdas Pophale) SiO2 
 PCOD9572234
Probable space group: I 4/M C M
;
_chemical_formula_sum "Si O2"
_cell_formula_units_Z 192
_cell_length_a 27.773172
_cell_length_b 27.773172
_cell_length_c 16.236041
_cell_angle_alpha 90.000000
_cell_angle_beta 90.000000
_cell_angle_gamma 90.000000
_cell_volume 12523.655336
_symmetry_space_group_name_H-M "I 4/M C M"
_symmetry_group_IT_number 140
_symmetry_cell_setting 'tetragonal'
loop_
_space_group_symop_operation_xyz
x,y,z
-y,x,z
-x,-y,z
y,-x,z
x,-y,1/2-z
-x,y,1/2-z
y,x,1/2-z
-y,-x,1/2-z
-x,-y,-z
y,-x,-z
x,y,-z
-y,x,-z
-x,y,1/2+z
x,-y,1/2+z
-y,-x,1/2+z
y,x,1/2+z
1/2+x,1/2+y,1/2+z
1/2-y,1/2+x,1/2+z
1/2-x,1/2-y,1/2+z
1/2+y,1/2-x,1/2+z
1/2+x,1/2-y,-z
1/2-x,1/2+y,-z
1/2+y,1/2+x,-z
1/2-y,1/2-x,-z
1/2-x,1/2-y,1/2-z
1/2+y,1/2-x,1/2-z
1/2+x,1/2+y,1/2-z
1/2-y,1/2+x,1/2-z
1/2-x,1/2+y,z
1/2+x,1/2-y,z
1/2-y,1/2-x,z
1/2+y,1/2+x,z
loop_
_atom_site_type_symbol
_atom_site_label
_atom_site_fract_x
_atom_site_fract_y
_atom_site_fract_z
Si Si1 0.784759 0.204094 0.092711
Si Si2 0.124912 0.705209 0.401068
Si Si3 0.971155 0.854283 0.100506
Si Si4 0.756165 0.048299 0.800211
Si Si5 0.690674 0.626860 0.692076
Si Si6 0.575104 0.386096 0.596889
O O1 0.746437 0.246437 0.090401
O O2 0.753657 0.156728 0.115026
O O3 0.826391 0.216367 0.155913
O O4 0.803607 0.196493 0.000000
O O5 0.117349 0.703113 0.500000
O O6 0.159266 0.659266 0.379448
O O7 0.075436 0.714380 0.352143
O O8 0.964152 0.801813 0.140674
O O9 0.929057 0.890849 0.126995
O O10 0.021209 0.878363 0.128990
O O11 0.970643 0.849612 0.000000
O O12 0.776606 0.088200 0.736960
O O13 0.742571 0.000000 0.750000
O O14 0.649037 0.649037 0.750000
O O15 0.663230 0.601876 0.616993
O O16 0.570275 0.394154 0.500000
#
# Coordination Sequence:
#
# PCOD9572234 Si02
#       6
#    32  32  32  32  32  32
#     4   9  18  32  49  70  95 123 158 197 238 292
#     4   9  18  34  54  73  97 131 166 199 236 284
#     4  10  20  33  47  62  86 120 163 209 254 299
#     4  12  22  32  47  71 100 125 157 200 247 292
#     4  12  20  29  47  66  92 124 157 201 244 294
#     4  10  20  33  46  60  81 118 163 209 256 298
#
# _framework density 15.330985999999999
#
# number of rings (size 3 to 8) (size 9 to 14) (size 15 to 20)
#    0.000    1.667    5.000    2.000    0.000    4.000 
#    0.000    1.667    0.000    0.000    0.000    0.000 
#    0.000    0.333    0.000    1.833    0.000    0.000 
#
# Total GULP energy -534906.373885 kJ/mol
# GULP energy per Si atom -5571.941395 kJ/mol
# Density = 1.529609 g / cm^3
# Si number density = 15.330986 Si / 1000 Ang^3
#
#
#
# Elastic Constant Matrix: (Units=GPa)
#
#
# Indices 1 2 3 4 5 6 
#
# 1 64.9461 33.8440 33.4146 0.0000 0.0000 0.0000
# 2 33.8440 64.9461 33.4146 0.0000 0.0000 0.0000
# 3 33.4146 33.4146 29.3761 0.0000 0.0000 0.0000
# 4 0.0000 0.0000 0.0000 26.0497 0.0000 0.0000
# 5 0.0000 0.0000 0.0000 0.0000 26.0497 0.0000
# 6 0.0000 0.0000 0.0000 0.0000 0.0000 18.1804
#
#
#
# Elastic Compliance Matrix: (Units=1/GPa)
#
#
# Indices 1 2 3 4 5 6 
#
# 1 0.038032 0.005879 -0.049948 0.000000 0.000000 0.000000
# 2 0.005879 0.038032 -0.049948 0.000000 0.000000 0.000000
# 3 -0.049948 -0.049948 0.147670 0.000000 0.000000 0.000000
# 4 0.000000 0.000000 0.000000 0.038388 0.000000 0.000000
# 5 0.000000 0.000000 0.000000 0.000000 0.038388 0.000000
# 6 0.000000 0.000000 0.000000 0.000000 0.000000 0.055004
#
#
# Mechanical properties :
#
#
# Convention : Reuss Voigt Hill
#
# Bulk Modulus (GPa) = 28.01041 40.06831 34.03936
# Shear Modulus (GPa) = 9.00179 17.96228 13.48203
#
# Velocity S-wave (km/s) = 2.42577 3.42662 2.96868
# Velocity P-wave (km/s) = 5.11429 6.46900 5.83112
#
# Compressibility (1/GPa) = 0.03570101
#
# Stress axis : x y z
#
# Youngs Moduli (GPa) = 26.29397 26.29397 6.77188
#
# Poissons Ratio (x) = -0.15459 0.33824
# Poissons Ratio (y) = -0.15459 0.33824
# Poissons Ratio (z) = 1.31332 1.31332
#
# Static dielectric constant tensor:
#      x y z
#    x 1.517780 0.000000 0.000000 
#    y 0.000000 1.517780 0.000000 
#    z 0.000000 0.000000 1.558490 
# 
# From -- ./inp_files/5293.got.cif
#   From: 2010.05.17/outbox.cif.g08.bks.cpg/sg140_3_cif.got.tgz:5293.got - 2010.06.21 00:45:31.
