data_PCOD9572714
_publ_section_title
;
Structure prediction by ZEFSAII (Michael W. Deem and Ramdas Pophale) SiO2 
 PCOD9572714
Probable space group: I 4/M C M
;
_chemical_formula_sum "Si O2"
_cell_formula_units_Z 96
_cell_length_a 21.000000
_cell_length_b 21.000000
_cell_length_c 27.000000
_cell_angle_alpha 90.000000
_cell_angle_beta 90.000000
_cell_angle_gamma 90.000000
_cell_volume 11907.000000
_symmetry_space_group_name_H-M "I 4/M C M"
_symmetry_group_IT_number 140
_symmetry_cell_setting 'tetragonal'
loop_
_space_group_symop_operation_xyz
x,y,z
-y,x,z
-x,-y,z
y,-x,z
x,-y,1/2-z
-x,y,1/2-z
y,x,1/2-z
-y,-x,1/2-z
-x,-y,-z
y,-x,-z
x,y,-z
-y,x,-z
-x,y,1/2+z
x,-y,1/2+z
-y,-x,1/2+z
y,x,1/2+z
1/2+x,1/2+y,1/2+z
1/2-y,1/2+x,1/2+z
1/2-x,1/2-y,1/2+z
1/2+y,1/2-x,1/2+z
1/2+x,1/2-y,-z
1/2-x,1/2+y,-z
1/2+y,1/2+x,-z
1/2-y,1/2-x,-z
1/2-x,1/2-y,1/2-z
1/2+y,1/2-x,1/2-z
1/2+x,1/2+y,1/2-z
1/2-y,1/2+x,1/2-z
1/2-x,1/2+y,z
1/2+x,1/2-y,z
1/2-y,1/2-x,z
1/2+y,1/2+x,z
loop_
_atom_site_type_symbol
_atom_site_label
_atom_site_fract_x
_atom_site_fract_y
_atom_site_fract_z
Si Si1 0.098856 0.302725 0.665024
Si Si2 0.082933 0.136435 0.798964
Si Si3 0.996584 0.892643 0.946609
Si Si4 0.725014 0.125975 0.780787
Si Si5 0.376483 0.021728 0.692895
Si Si6 0.958518 0.168078 0.852732
O O1 0.161435 0.338566 0.645215
O O2 0.112250 0.286002 0.722703
O O3 0.075529 0.235799 0.644071
O O4 0.040577 0.353019 0.664433
O O5 0.094478 0.094478 0.750000
O O6 0.121935 0.201491 0.792985
O O7 0.113544 0.093431 0.841857
O O8 0.011509 0.159623 0.809819
O O9 0.002332 0.844837 0.902083
O O10 0.937935 0.941261 0.943990
O O11 0.995112 0.860608 0.000000
O O12 0.693294 0.193294 0.792809
O O13 0.682658 0.071303 0.806860
O O14 0.438810 0.061191 0.676844
O O15 0.386844 0.000000 0.750000
#
# Coordination Sequence:
#
# PCOD9572714 Si02
#       6
#    32  32  32  32  32  32
#     4  10  20  32  48  67  96 132 172 209 244 291
#     4  12  23  32  47  67 104 144 167 201 233 295
#     4   9  18  35  56  76  95 121 164 213 252 296
#     4   9  18  32  46  62  91 138 179 205 232 274
#     4   9  16  27  44  63  88 124 169 213 247 276
#     4  12  22  35  50  71 101 131 169 202 256 290
#
# _framework density 8.0624839999999995
#
# number of rings (size 3 to 8) (size 9 to 14) (size 15 to 20)
#    0.000    1.833    5.000    2.500    0.000    2.500 
#    0.000    0.833    0.000    0.500    0.000    0.000 
#    0.000    2.667    0.000    1.500    0.000    0.000 
#
# Total GULP energy -534671.302177 kJ/mol
# GULP energy per Si atom -5569.492731 kJ/mol
# Density = 0.804413 g / cm^3
# Si number density = 8.062484 Si / 1000 Ang^3
#
#
#
# Elastic Constant Matrix: (Units=GPa)
#
#
# Indices 1 2 3 4 5 6 
#
# 1 48.6763 22.2321 9.9398 0.0000 0.0000 0.0000
# 2 22.2321 48.6763 9.9398 0.0000 0.0000 0.0000
# 3 9.9398 9.9398 48.8221 0.0000 0.0000 0.0000
# 4 0.0000 0.0000 0.0000 4.9257 0.0000 0.0000
# 5 0.0000 0.0000 0.0000 0.0000 4.9257 0.0000
# 6 0.0000 0.0000 0.0000 0.0000 0.0000 21.6670
#
#
#
# Elastic Compliance Matrix: (Units=1/GPa)
#
#
# Indices 1 2 3 4 5 6 
#
# 1 0.026386 -0.011430 -0.003045 0.000000 0.000000 0.000000
# 2 -0.011430 0.026386 -0.003045 0.000000 0.000000 0.000000
# 3 -0.003045 -0.003045 0.021722 0.000000 0.000000 0.000000
# 4 0.000000 0.000000 0.000000 0.203019 0.000000 0.000000
# 5 0.000000 0.000000 0.000000 0.000000 0.203019 0.000000
# 6 0.000000 0.000000 0.000000 0.000000 0.000000 0.046153
#
#
# Mechanical properties :
#
#
# Convention : Reuss Voigt Hill
#
# Bulk Modulus (GPa) = 25.34524 25.59980 25.47252
# Shear Modulus (GPa) = 8.69753 13.24119 10.96936
#
# Velocity S-wave (km/s) = 2.32498 2.86870 2.61103
# Velocity P-wave (km/s) = 4.79161 5.18487 4.99212
#
# Compressibility (1/GPa) = 0.03945515
#
# Stress axis : x y z
#
# Youngs Moduli (GPa) = 37.89896 37.89897 46.03543
#
# Poissons Ratio (x) = 0.43317 0.14018
# Poissons Ratio (y) = 0.43317 0.14018
# Poissons Ratio (z) = 0.11540 0.11540
#
# Static dielectric constant tensor:
#      x y z
#    x 1.567090 0.000000 0.000000 
#    y 0.000000 1.567090 0.000000 
#    z 0.000000 0.000000 1.552510 
# 
# From -- ./inp_files/10821.got.cif
#   From: 2010.05.17/outbox.ucp.g08.bks.cvg/sg140_6_cif.got.tgz:10821.got - 2010.06.11 11:42:50.
