data_PCOD9572291
_publ_section_title
;
Structure prediction by ZEFSAII (Michael W. Deem and Ramdas Pophale) SiO2 
 PCOD9572291
Probable space group: I 4/M C M
;
_chemical_formula_sum "Si O2"
_cell_formula_units_Z 160
_cell_length_a 31.190947
_cell_length_b 31.190947
_cell_length_c 9.778341
_cell_angle_alpha 90.000000
_cell_angle_beta 90.000000
_cell_angle_gamma 90.000000
_cell_volume 9513.105209
_symmetry_space_group_name_H-M "I 4/M C M"
_symmetry_group_IT_number 140
_symmetry_cell_setting 'tetragonal'
loop_
_space_group_symop_operation_xyz
x,y,z
-y,x,z
-x,-y,z
y,-x,z
x,-y,1/2-z
-x,y,1/2-z
y,x,1/2-z
-y,-x,1/2-z
-x,-y,-z
y,-x,-z
x,y,-z
-y,x,-z
-x,y,1/2+z
x,-y,1/2+z
-y,-x,1/2+z
y,x,1/2+z
1/2+x,1/2+y,1/2+z
1/2-y,1/2+x,1/2+z
1/2-x,1/2-y,1/2+z
1/2+y,1/2-x,1/2+z
1/2+x,1/2-y,-z
1/2-x,1/2+y,-z
1/2+y,1/2+x,-z
1/2-y,1/2-x,-z
1/2-x,1/2-y,1/2-z
1/2+y,1/2-x,1/2-z
1/2+x,1/2+y,1/2-z
1/2-y,1/2+x,1/2-z
1/2-x,1/2+y,z
1/2+x,1/2-y,z
1/2-y,1/2-x,z
1/2+y,1/2+x,z
loop_
_atom_site_type_symbol
_atom_site_label
_atom_site_fract_x
_atom_site_fract_y
_atom_site_fract_z
Si Si1 0.161560 0.220289 0.839560
Si Si2 0.933006 0.884924 0.500000
Si Si3 0.574062 0.676749 0.253955
Si Si4 0.872717 0.966467 0.500000
Si Si5 0.039476 0.268828 0.342583
Si Si6 0.367607 0.201571 0.842277
O O1 0.198283 0.198283 0.750000
O O2 0.118919 0.191026 0.821368
O O3 0.151258 0.265372 0.767450
O O4 0.171750 0.223843 0.000000
O O5 0.919563 0.857361 0.632685
O O6 0.910348 0.930991 0.500000
O O7 0.984624 0.888038 0.500000
O O8 0.543433 0.656054 0.367355
O O9 0.553902 0.720331 0.194118
O O10 0.026635 0.269578 0.500000
O O11 0.081430 0.298039 0.322894
O O12 0.000000 0.281524 0.250000
O O13 0.343323 0.156678 0.830164
O O14 0.360487 0.217407 0.000000
#
# Coordination Sequence:
#
# PCOD9572291 Si02
#       6
#    32  16  32  16  32  32
#     4  11  22  35  55  79 104 135 176 219 260 311
#     4  12  24  39  56  72  97 125 165 211 270 334
#     4  11  23  37  55  78 102 129 163 215 272 323
#     4  12  24  39  54  74  95 127 163 211 270 330
#     4  10  20  34  57  84 109 136 172 216 258 304
#     4   9  20  38  55  76 110 149 181 212 255 305
#
# _framework density 16.818904
#
# number of rings (size 3 to 8) (size 9 to 14) (size 15 to 20)
#    0.000    1.400    2.000    4.200    4.200    1.800 
#    0.000    0.000    0.000    2.400    0.000    0.000 
#    0.000    0.400    0.000    5.000    0.000    0.000 
#
# Total GULP energy -447107.212605 kJ/mol
# GULP energy per Si atom -5588.840158 kJ/mol
# Density = 1.678062 g / cm^3
# Si number density = 16.818904 Si / 1000 Ang^3
#
#
#
# Elastic Constant Matrix: (Units=GPa)
#
#
# Indices 1 2 3 4 5 6 
#
# 1 72.4891 54.7210 51.0101 0.0000 0.0000 0.0000
# 2 54.7210 72.4891 51.0101 0.0000 0.0000 0.0000
# 3 51.0101 51.0101 142.1999 0.0000 0.0000 0.0000
# 4 0.0000 0.0000 0.0000 21.5125 0.0000 0.0000
# 5 0.0000 0.0000 0.0000 0.0000 21.5125 0.0000
# 6 0.0000 0.0000 0.0000 0.0000 0.0000 11.1277
#
#
#
# Elastic Compliance Matrix: (Units=1/GPa)
#
#
# Indices 1 2 3 4 5 6 
#
# 1 0.033658 -0.022622 -0.003959 0.000000 0.000000 0.000000
# 2 -0.022622 0.033658 -0.003959 0.000000 0.000000 0.000000
# 3 -0.003959 -0.003959 0.009873 0.000000 0.000000 0.000000
# 4 0.000000 0.000000 0.000000 0.046485 0.000000 0.000000
# 5 0.000000 0.000000 0.000000 0.000000 0.046485 0.000000
# 6 0.000000 0.000000 0.000000 0.000000 0.000000 0.089866
#
#
# Mechanical properties :
#
#
# Convention : Reuss Voigt Hill
#
# Bulk Modulus (GPa) = 62.07659 66.74008 64.40833
# Shear Modulus (GPa) = 15.31517 19.52634 17.42075
#
# Velocity S-wave (km/s) = 3.02088 3.41101 3.22185
# Velocity P-wave (km/s) = 7.01117 7.43512 7.22626
#
# Compressibility (1/GPa) = 0.01610913
#
# Stress axis : x y z
#
# Youngs Moduli (GPa) = 29.71042 29.71042 101.29072
#
# Poissons Ratio (x) = 0.67212 0.40099
# Poissons Ratio (y) = 0.67212 0.40099
# Poissons Ratio (z) = 0.11762 0.11762
#
# Static dielectric constant tensor:
#      x y z
#    x 1.560220 0.000000 0.000000 
#    y 0.000000 1.560220 0.000000 
#    z 0.000000 0.000000 1.576020 
# 
# From -- ./inp_files/1848.got.cif
#   From: 2010.05.17/outbox.cif.g08.bks.cpg/sg140_1_cif.got.tgz:1848.got - 2010.06.21 00:45:31.
