data_PCOD9572761
_publ_section_title
;
Structure prediction by ZEFSAII (Michael W. Deem and Ramdas Pophale) SiO2 
 PCOD9572761
Probable space group: I 41/A M D
;
_chemical_formula_sum "Si O2"
_cell_formula_units_Z 160
_cell_length_a 17.869866
_cell_length_b 17.869866
_cell_length_c 25.654720
_cell_angle_alpha 90.000000
_cell_angle_beta 90.000000
_cell_angle_gamma 90.000000
_cell_volume 8192.375891
_symmetry_space_group_name_H-M "I 41/A M D"
_symmetry_group_IT_number 141
_space_group.IT_coordinate_system_code '2'
_symmetry_cell_setting 'tetragonal'
loop_
_space_group_symop_operation_xyz
x,y,z
1/4-y,3/4+x,1/4+z
-x,1/2-y,z
1/4+y,1/4-x,3/4+z
x,-y,-z
-x,1/2+y,-z
1/4+y,3/4+x,1/4-z
1/4-y,1/4-x,3/4-z
-x,-y,-z
3/4+y,1/4-x,3/4-z
x,1/2+y,-z
3/4-y,3/4+x,1/4-z
-x,y,z
x,1/2-y,z
3/4-y,1/4-x,3/4+z
3/4+y,3/4+x,1/4+z
1/2+x,1/2+y,1/2+z
3/4-y,1/4+x,3/4+z
1/2-x,-y,1/2+z
3/4+y,3/4-x,1/4+z
1/2+x,1/2-y,1/2-z
1/2-x,y,1/2-z
3/4+y,1/4+x,3/4-z
3/4-y,3/4-x,1/4-z
1/2-x,1/2-y,1/2-z
1/4+y,3/4-x,1/4-z
1/2+x,y,1/2-z
1/4-y,1/4+x,3/4-z
1/2-x,1/2+y,1/2+z
1/2+x,-y,1/2+z
1/4-y,3/4-x,1/4+z
1/4+y,1/4+x,3/4+z
loop_
_atom_site_type_symbol
_atom_site_label
_atom_site_fract_x
_atom_site_fract_y
_atom_site_fract_z
Si Si1 0.707993 0.336498 0.634526
Si Si2 0.080595 0.996072 0.766500
Si Si3 0.082725 0.377296 0.491096
Si Si4 0.255129 0.377846 0.328222
Si Si5 0.808189 0.958896 0.314481
O O1 0.630078 0.380078 0.625000
O O2 0.699161 0.250000 0.650346
O O3 0.750229 0.337551 0.578650
O O4 0.758441 0.387367 0.672430
O O5 0.145874 0.041460 0.738434
O O6 0.000000 0.029149 0.752901
O O7 0.083006 0.910229 0.746621
O O8 0.091137 0.434121 0.540342
O O9 0.090061 0.427284 0.438651
O O10 0.000000 0.342509 0.492870
O O11 0.242198 0.465750 0.314396
O O12 0.277474 0.382187 0.388368
#
# Coordination Sequence:
#
# PCOD9572761 Si02
#       5
#    32  32  32  32  32
#     4  11  22  41  63  88 116 148 188 237 303 364
#     4  10  22  37  57  85 119 156 198 246 292 344
#     4  10  18  29  50  80 115 152 195 240 284 337
#     4   9  16  29  50  79 108 144 200 239 273 325
#     4  10  18  35  58  81 111 154 193 242 277 339
#
# _framework density 19.530353999999999
#
# number of rings (size 3 to 8) (size 9 to 14) (size 15 to 20)
#    0.000    2.000    4.000    1.200    0.000    3.000 
#    0.000    2.000    0.000    1.800    0.000    5.600 
#    0.000    0.000    0.000    0.000    0.000    0.000 
#
# Total GULP energy -446104.321615 kJ/mol
# GULP energy per Si atom -5576.304020 kJ/mol
# Density = 1.948590 g / cm^3
# Si number density = 19.530354 Si / 1000 Ang^3
#
#
#
# Elastic Constant Matrix: (Units=GPa)
#
#
# Indices 1 2 3 4 5 6 
#
# 1 117.0328 37.6700 21.6003 0.0000 0.0000 0.0000
# 2 37.6700 117.0328 21.6003 0.0000 0.0000 0.0000
# 3 21.6003 21.6003 60.3214 0.0000 0.0000 0.0000
# 4 0.0000 0.0000 0.0000 23.6693 0.0000 0.0000
# 5 0.0000 0.0000 0.0000 0.0000 23.6693 0.0000
# 6 0.0000 0.0000 0.0000 0.0000 0.0000 3.9209
#
#
#
# Elastic Compliance Matrix: (Units=1/GPa)
#
#
# Indices 1 2 3 4 5 6 
#
# 1 0.009891 -0.002709 -0.002572 0.000000 0.000000 0.000000
# 2 -0.002709 0.009891 -0.002572 0.000000 0.000000 0.000000
# 3 -0.002572 -0.002572 0.018420 0.000000 0.000000 0.000000
# 4 0.000000 0.000000 0.000000 0.042249 0.000000 0.000000
# 5 0.000000 0.000000 0.000000 0.000000 0.042249 0.000000
# 6 0.000000 0.000000 0.000000 0.000000 0.000000 0.255045
#
#
# Mechanical properties :
#
#
# Convention : Reuss Voigt Hill
#
# Bulk Modulus (GPa) = 44.45088 50.68090 47.56589
# Shear Modulus (GPa) = 12.47038 24.48630 18.47834
#
# Velocity S-wave (km/s) = 2.52962 3.54468 3.07927
# Velocity P-wave (km/s) = 5.59833 6.53905 6.08689
#
# Compressibility (1/GPa) = 0.02249674
#
# Stress axis : x y z
#
# Youngs Moduli (GPa) = 101.09914 101.09914 54.28952
#
# Poissons Ratio (x) = 0.27389 0.13962
# Poissons Ratio (y) = 0.27389 0.13962
# Poissons Ratio (z) = 0.26001 0.26001
#
# Static dielectric constant tensor:
#      x y z
#    x 1.695720 0.000000 0.000000 
#    y 0.000000 1.695720 0.000000 
#    z 0.000000 0.000000 1.712320 
# 
# From -- ./inp_files/14288.got.cif
#   From: 2010.05.17/outbox.cif.g08.bks.cpg/sg141_8_cif.got.tgz:14288.got - 2010.05.20 13:30:51.
