data_PCOD9572297
_publ_section_title
;
Structure prediction by ZEFSAII (Michael W. Deem and Ramdas Pophale) SiO2 
 PCOD9572297
Probable space group: I 4/M C M
;
_chemical_formula_sum "Si O2"
_cell_formula_units_Z 176
_cell_length_a 20.590337
_cell_length_b 20.590337
_cell_length_c 25.673573
_cell_angle_alpha 90.000000
_cell_angle_beta 90.000000
_cell_angle_gamma 90.000000
_cell_volume 10884.618786
_symmetry_space_group_name_H-M "I 4/M C M"
_symmetry_group_IT_number 140
_symmetry_cell_setting 'tetragonal'
loop_
_space_group_symop_operation_xyz
x,y,z
-y,x,z
-x,-y,z
y,-x,z
x,-y,1/2-z
-x,y,1/2-z
y,x,1/2-z
-y,-x,1/2-z
-x,-y,-z
y,-x,-z
x,y,-z
-y,x,-z
-x,y,1/2+z
x,-y,1/2+z
-y,-x,1/2+z
y,x,1/2+z
1/2+x,1/2+y,1/2+z
1/2-y,1/2+x,1/2+z
1/2-x,1/2-y,1/2+z
1/2+y,1/2-x,1/2+z
1/2+x,1/2-y,-z
1/2-x,1/2+y,-z
1/2+y,1/2+x,-z
1/2-y,1/2-x,-z
1/2-x,1/2-y,1/2-z
1/2+y,1/2-x,1/2-z
1/2+x,1/2+y,1/2-z
1/2-y,1/2+x,1/2-z
1/2-x,1/2+y,z
1/2+x,1/2-y,z
1/2-y,1/2-x,z
1/2+y,1/2+x,z
loop_
_atom_site_type_symbol
_atom_site_label
_atom_site_fract_x
_atom_site_fract_y
_atom_site_fract_z
Si Si1 0.575364 0.815492 0.500000
Si Si2 0.579087 0.315840 0.193681
Si Si3 0.897414 0.957889 0.000000
Si Si4 0.296609 0.607722 0.076991
Si Si5 0.180723 0.925626 0.691224
Si Si6 0.246471 0.144257 0.593914
Si Si7 0.076544 0.683158 0.000000
O O1 0.620924 0.879076 0.500000
O O2 0.595003 0.774018 0.449125
O O3 0.499739 0.830199 0.500000
O O4 0.613580 0.385798 0.189966
O O5 0.502623 0.325474 0.188663
O O6 0.591624 0.289306 0.252285
O O7 0.608396 0.272723 0.147448
O O8 0.852256 0.937493 0.950408
O O9 0.965740 0.917593 0.000000
O O10 0.285800 0.595465 0.137992
O O11 0.322259 0.681245 0.071824
O O12 0.229642 0.595050 0.048051
O O13 0.300574 0.199427 0.602620
O O14 0.118971 0.618971 0.000000
#
# Coordination Sequence:
#
# PCOD9572297 Si02
#       7
#    16  32  16  32  32  32  16
#     4  10  21  35  56  77  97 130 170 203 255 319
#     4   9  18  32  48  70 101 130 171 205 247 290
#     4  10  23  34  45  75 108 141 179 211 249 298
#     4  10  21  32  54  71 104 133 173 206 256 300
#     4   9  18  31  48  72  97 135 168 206 243 294
#     4  10  20  35  53  75 100 131 169 211 257 310
#     4  11  22  35  52  75 102 129 162 210 264 309
#
# _framework density 16.169606000000002
#
# number of rings (size 3 to 8) (size 9 to 14) (size 15 to 20)
#    0.000    2.273    0.000    2.727   10.182    1.273 
#    0.000   10.000    0.000    0.000    0.000    0.000 
#    0.000    0.000    0.000    9.636    0.000    0.182 
#
# Total GULP energy -490416.547167 kJ/mol
# GULP energy per Si atom -5572.915309 kJ/mol
# Density = 1.613280 g / cm^3
# Si number density = 16.169606 Si / 1000 Ang^3
#
#
#
# Elastic Constant Matrix: (Units=GPa)
#
#
# Indices 1 2 3 4 5 6 
#
# 1 87.7197 51.0692 57.1788 0.0000 0.0000 0.0000
# 2 51.0692 87.7197 57.1788 0.0000 0.0000 0.0000
# 3 57.1788 57.1788 125.6435 0.0000 0.0000 0.0000
# 4 0.0000 0.0000 0.0000 11.9462 0.0000 0.0000
# 5 0.0000 0.0000 0.0000 0.0000 11.9462 0.0000
# 6 0.0000 0.0000 0.0000 0.0000 0.0000 5.9809
#
#
#
# Elastic Compliance Matrix: (Units=1/GPa)
#
#
# Indices 1 2 3 4 5 6 
#
# 1 0.019406 -0.007878 -0.005246 0.000000 0.000000 0.000000
# 2 -0.007878 0.019406 -0.005246 0.000000 0.000000 0.000000
# 3 -0.005246 -0.005246 0.012734 0.000000 0.000000 0.000000
# 4 0.000000 0.000000 0.000000 0.083708 0.000000 0.000000
# 5 0.000000 0.000000 0.000000 0.000000 0.083708 0.000000
# 6 0.000000 0.000000 0.000000 0.000000 0.000000 0.167199
#
#
# Mechanical properties :
#
#
# Convention : Reuss Voigt Hill
#
# Bulk Modulus (GPa) = 67.54492 70.21519 68.88006
# Shear Modulus (GPa) = 11.68663 15.01841 13.35252
#
# Velocity S-wave (km/s) = 2.69132 3.05094 2.87675
# Velocity P-wave (km/s) = 7.17782 7.47860 7.32975
#
# Compressibility (1/GPa) = 0.01480496
#
# Stress axis : x y z
#
# Youngs Moduli (GPa) = 51.52960 51.52960 78.52994
#
# Poissons Ratio (x) = 0.40597 0.41198
# Poissons Ratio (y) = 0.40597 0.41198
# Poissons Ratio (z) = 0.27033 0.27033
#
# Static dielectric constant tensor:
#      x y z
#    x 1.520240 0.000000 0.000000 
#    y 0.000000 1.520240 0.000000 
#    z 0.000000 0.000000 1.586170 
# 
# From -- ./inp_files/10746.got.cif
#   From: 2010.05.17/outbox.cif.g08.bks.cpg/sg140_6_cif.got.tgz:10746.got - 2010.06.21 00:45:31.
