data_PCOD9572178
_publ_section_title
;
Structure prediction by ZEFSAII (Michael W. Deem and Ramdas Pophale) SiO2 
 PCOD9572178
Probable space group: I 4/M C M
;
_chemical_formula_sum "Si O2"
_cell_formula_units_Z 160
_cell_length_a 23.733029
_cell_length_b 23.733029
_cell_length_c 14.091956
_cell_angle_alpha 90.000000
_cell_angle_beta 90.000000
_cell_angle_gamma 90.000000
_cell_volume 7937.388147
_symmetry_space_group_name_H-M "I 4/M C M"
_symmetry_group_IT_number 140
_symmetry_cell_setting 'tetragonal'
loop_
_space_group_symop_operation_xyz
x,y,z
-y,x,z
-x,-y,z
y,-x,z
x,-y,1/2-z
-x,y,1/2-z
y,x,1/2-z
-y,-x,1/2-z
-x,-y,-z
y,-x,-z
x,y,-z
-y,x,-z
-x,y,1/2+z
x,-y,1/2+z
-y,-x,1/2+z
y,x,1/2+z
1/2+x,1/2+y,1/2+z
1/2-y,1/2+x,1/2+z
1/2-x,1/2-y,1/2+z
1/2+y,1/2-x,1/2+z
1/2+x,1/2-y,-z
1/2-x,1/2+y,-z
1/2+y,1/2+x,-z
1/2-y,1/2-x,-z
1/2-x,1/2-y,1/2-z
1/2+y,1/2-x,1/2-z
1/2+x,1/2+y,1/2-z
1/2-y,1/2+x,1/2-z
1/2-x,1/2+y,z
1/2+x,1/2-y,z
1/2-y,1/2-x,z
1/2+y,1/2+x,z
loop_
_atom_site_type_symbol
_atom_site_label
_atom_site_fract_x
_atom_site_fract_y
_atom_site_fract_z
Si Si1 0.034785 0.711643 0.386987
Si Si2 0.863670 0.636331 0.887031
Si Si3 0.052302 0.077162 0.111919
Si Si4 0.701798 0.201798 0.272636
Si Si5 0.680864 0.434851 0.269920
Si Si6 0.093382 0.745752 0.886454
O O1 0.037257 0.721465 0.500000
O O2 0.071723 0.655600 0.366340
O O3 0.067053 0.762472 0.333995
O O4 0.967356 0.714681 0.363992
O O5 0.823211 0.676790 0.825490
O O6 0.855186 0.644815 0.000000
O O7 0.080556 0.127385 0.168350
O O8 0.985283 0.074489 0.133083
O O9 0.058001 0.086591 0.000000
O O10 0.750000 0.250000 0.250000
O O11 0.721842 0.148557 0.335486
O O12 0.674139 0.500000 0.250000
O O13 0.694655 0.410604 0.166893
O O14 0.098608 0.748180 0.000000
#
# Coordination Sequence:
#
# PCOD9572178 Si02
#       6
#    32  16  32  16  32  32
#     4   9  18  36  63  95 126 163 212 270 335 399
#     4  10  20  37  64  96 130 166 212 276 340 402
#     4   9  19  37  59  85 120 162 212 276 345 404
#     4  12  25  43  66  92 131 177 224 265 337 403
#     4  10  19  34  58  86 119 160 216 269 327 394
#     4  10  22  42  65  90 126 173 221 271 325 397
#
# _framework density 20.157762999999999
#
# number of rings (size 3 to 8) (size 9 to 14) (size 15 to 20)
#    0.000    2.200    2.000    1.500    0.000    2.400 
#    7.200    1.000    0.000    4.200    0.000    6.300 
#    0.000    0.000    0.000    0.000    0.000    0.000 
#
# Total GULP energy -445756.178350 kJ/mol
# GULP energy per Si atom -5571.952229 kJ/mol
# Density = 2.011188 g / cm^3
# Si number density = 20.157763 Si / 1000 Ang^3
#
#
#
# Elastic Constant Matrix: (Units=GPa)
#
#
# Indices 1 2 3 4 5 6 
#
# 1 122.0776 81.0572 65.7917 0.0000 0.0000 0.0000
# 2 81.0572 122.0773 65.7920 0.0000 0.0000 0.0000
# 3 65.7917 65.7920 106.3327 0.0000 0.0000 0.0000
# 4 0.0000 0.0000 0.0000 32.3227 0.0000 0.0000
# 5 0.0000 0.0000 0.0000 0.0000 32.3226 0.0000
# 6 0.0000 0.0000 0.0000 0.0000 0.0000 8.1697
#
#
#
# Elastic Compliance Matrix: (Units=1/GPa)
#
#
# Indices 1 2 3 4 5 6 
#
# 1 0.016297 -0.008081 -0.005083 0.000000 0.000000 0.000000
# 2 -0.008081 0.016297 -0.005083 0.000000 0.000000 0.000000
# 3 -0.005083 -0.005083 0.015695 0.000000 0.000000 0.000000
# 4 0.000000 0.000000 0.000000 0.030938 0.000000 0.000000
# 5 0.000000 0.000000 0.000000 0.000000 0.030938 0.000000
# 6 0.000000 0.000000 0.000000 0.000000 0.000000 0.122403
#
#
# Mechanical properties :
#
#
# Convention : Reuss Voigt Hill
#
# Bulk Modulus (GPa) = 84.79653 86.19659 85.49656
# Shear Modulus (GPa) = 18.31535 23.75278 21.03407
#
# Velocity S-wave (km/s) = 3.01757 3.43643 3.23379
# Velocity P-wave (km/s) = 7.36877 7.65501 7.51325
#
# Compressibility (1/GPa) = 0.01179294
#
# Stress axis : x y z
#
# Youngs Moduli (GPa) = 61.36163 61.36110 63.71500
#
# Poissons Ratio (x) = 0.49588 0.32388
# Poissons Ratio (y) = 0.49588 0.32389
# Poissons Ratio (z) = 0.31191 0.31192
#
# Static dielectric constant tensor:
#      x y z
#    x 1.360600 0.000000 0.000000 
#    y 0.000000 1.360590 0.000000 
#    z 0.000000 0.000000 1.740340 
# 
# From -- ./inp_files/4806.got.cif
#   From: 2010.05.17/outbox.cif.g08.bks.cpg/sg140_3_cif.got.tgz:4806.got - 2010.06.21 00:45:31.
