data_PCOD9572339
_publ_section_title
;
Structure prediction by ZEFSAII (Michael W. Deem and Ramdas Pophale) SiO2 
 PCOD9572339
Probable space group: I 4/M C M
;
_chemical_formula_sum "Si O2"
_cell_formula_units_Z 96
_cell_length_a 23.228707
_cell_length_b 23.228707
_cell_length_c 8.282202
_cell_angle_alpha 90.000000
_cell_angle_beta 90.000000
_cell_angle_gamma 90.000000
_cell_volume 4468.851163
_symmetry_space_group_name_H-M "I 4/M C M"
_symmetry_group_IT_number 140
_symmetry_cell_setting 'tetragonal'
loop_
_space_group_symop_operation_xyz
x,y,z
-y,x,z
-x,-y,z
y,-x,z
x,-y,1/2-z
-x,y,1/2-z
y,x,1/2-z
-y,-x,1/2-z
-x,-y,-z
y,-x,-z
x,y,-z
-y,x,-z
-x,y,1/2+z
x,-y,1/2+z
-y,-x,1/2+z
y,x,1/2+z
1/2+x,1/2+y,1/2+z
1/2-y,1/2+x,1/2+z
1/2-x,1/2-y,1/2+z
1/2+y,1/2-x,1/2+z
1/2+x,1/2-y,-z
1/2-x,1/2+y,-z
1/2+y,1/2+x,-z
1/2-y,1/2-x,-z
1/2-x,1/2-y,1/2-z
1/2+y,1/2-x,1/2-z
1/2+x,1/2+y,1/2-z
1/2-y,1/2+x,1/2-z
1/2-x,1/2+y,z
1/2+x,1/2-y,z
1/2-y,1/2-x,z
1/2+y,1/2+x,z
loop_
_atom_site_type_symbol
_atom_site_label
_atom_site_fract_x
_atom_site_fract_y
_atom_site_fract_z
Si Si1 0.342098 0.066750 0.695011
Si Si2 0.562814 0.355456 0.691551
Si Si3 0.850652 0.761749 0.812913
O O1 0.337530 0.065711 0.500000
O O2 0.403358 0.096643 0.737912
O O3 0.293429 0.113325 0.754167
O O4 0.335406 0.000000 0.750000
O O5 0.500000 0.341788 0.750000
O O6 0.581531 0.418470 0.750000
O O7 0.569724 0.349031 0.500000
O O8 0.603893 0.312375 0.786484
O O9 0.791716 0.791716 0.750000
O O10 0.840999 0.749885 0.000000
#
# Coordination Sequence:
#
# PCOD9572339 Si02
#       3
#    32  32  32
#     4  10  23  42  63  90 124 162 206 256 308 365
#     4  11  21  34  51  74 105 143 189 239 293 352
#     4  10  20  36  59  87 119 154 194 242 297 358
#
# _framework density 21.482032
#
# number of rings (size 3 to 8) (size 9 to 14) (size 15 to 20)
#    0.000    1.667    0.000    7.000    0.000    7.333 
#    0.000    3.333    0.000    0.000    0.000    0.000 
#    0.000    0.000    0.000    0.000    0.000    0.000 
#
# Total GULP energy -267418.709208 kJ/mol
# GULP energy per Si atom -5571.223109 kJ/mol
# Density = 2.143314 g / cm^3
# Si number density = 21.482032 Si / 1000 Ang^3
#
#
#
# Elastic Constant Matrix: (Units=GPa)
#
#
# Indices 1 2 3 4 5 6 
#
# 1 99.8724 137.3765 21.0367 0.0000 0.0000 0.0000
# 2 137.3765 99.8726 21.0444 0.0000 0.0000 0.0000
# 3 21.0367 21.0444 59.0946 0.0000 0.0000 0.0000
# 4 0.0000 0.0000 0.0000-1008.1440 0.0000 0.0000
# 5 0.0000 0.0000 0.0000 0.0000-1007.6891 0.0000
# 6 0.0000 0.0000 0.0000 0.0000 0.0000 28.1342
#
#
#
# Elastic Compliance Matrix: (Units=1/GPa)
#
#
# Indices 1 2 3 4 5 6 
#
# 1 -0.011082 0.015581 -0.001604 0.000000 0.000000 0.000000
# 2 0.015581 -0.011083 -0.001600 0.000000 0.000000 0.000000
# 3 -0.001604 -0.001600 0.018063 0.000000 0.000000 0.000000
# 4 0.000000 0.000000 0.000000 -0.000992 0.000000 0.000000
# 5 0.000000 0.000000 0.000000 0.000000 -0.000992 0.000000
# 6 0.000000 0.000000 0.000000 0.000000 0.000000 0.035544
#
#
# Mechanical properties :
#
#
# Convention : Reuss Voigt Hill
#
# Bulk Modulus (GPa) = 48.41834 68.63944 58.52889
# Shear Modulus (GPa) = 431.52392 -392.24767 19.63812
#
# Velocity S-wave (km/s) = 14.18847 -13.52737 3.02680
# Velocity P-wave (km/s) = 17.05887 14.55902 6.28649
#
# Compressibility (1/GPa) = 0.02065333
#
# Stress axis : x y z
#
# Youngs Moduli (GPa) = -90.23627 -90.23106 55.36265
#
# Poissons Ratio (x) = 1.40593 0.08879
# Poissons Ratio (y) = 1.40601 0.08858
# Poissons Ratio (z) = -0.14472 -0.14437
#
# Static dielectric constant tensor:
#      x y z
#    x 1.772750 0.000000 0.000000 
#    y 0.000000 1.772770 0.000000 
#    z 0.000000 0.000000 1.753390 
# 
# From -- ./inp_files/911.got.cif
#   From: 2010.05.17/outbox.cif.g08.bks.cpg/sg140_1_cif.got.tgz:911.got - 2010.06.21 00:45:31.
