data_PCOD9572566
_publ_section_title
;
Structure prediction by ZEFSAII (Michael W. Deem and Ramdas Pophale) SiO2 
 PCOD9572566
Probable space group: I 4/M C M
;
_chemical_formula_sum "Si O2"
_cell_formula_units_Z 112
_cell_length_a 14.618258
_cell_length_b 14.618258
_cell_length_c 24.501984
_cell_angle_alpha 90.000000
_cell_angle_beta 90.000000
_cell_angle_gamma 90.000000
_cell_volume 5235.913908
_symmetry_space_group_name_H-M "I 4/M C M"
_symmetry_group_IT_number 140
_symmetry_cell_setting 'tetragonal'
loop_
_space_group_symop_operation_xyz
x,y,z
-y,x,z
-x,-y,z
y,-x,z
x,-y,1/2-z
-x,y,1/2-z
y,x,1/2-z
-y,-x,1/2-z
-x,-y,-z
y,-x,-z
x,y,-z
-y,x,-z
-x,y,1/2+z
x,-y,1/2+z
-y,-x,1/2+z
y,x,1/2+z
1/2+x,1/2+y,1/2+z
1/2-y,1/2+x,1/2+z
1/2-x,1/2-y,1/2+z
1/2+y,1/2-x,1/2+z
1/2+x,1/2-y,-z
1/2-x,1/2+y,-z
1/2+y,1/2+x,-z
1/2-y,1/2-x,-z
1/2-x,1/2-y,1/2-z
1/2+y,1/2-x,1/2-z
1/2+x,1/2+y,1/2-z
1/2-y,1/2+x,1/2-z
1/2-x,1/2+y,z
1/2+x,1/2-y,z
1/2-y,1/2-x,z
1/2+y,1/2+x,z
loop_
_atom_site_type_symbol
_atom_site_label
_atom_site_fract_x
_atom_site_fract_y
_atom_site_fract_z
Si Si1 0.929087 0.429087 0.565956
Si Si2 0.897058 0.754472 0.226211
Si Si3 0.477437 0.738639 0.437523
Si Si4 0.197198 0.846878 0.896947
O O1 0.929709 0.429709 0.500000
O O2 0.831672 0.471128 0.579766
O O3 0.000000 0.500000 0.589488
O O4 0.839503 0.839503 0.250000
O O5 0.837727 0.662274 0.237952
O O6 0.887140 0.774753 0.161666
O O7 0.000000 0.750120 0.250000
O O8 0.443988 0.747249 0.500000
O O9 0.565532 0.673227 0.434090
O O10 0.394401 0.713586 0.398419
O O11 0.279566 0.779566 0.916294
#
# Coordination Sequence:
#
# PCOD9572566 Si02
#       4
#    16  32  32  32
#     4   9  18  34  56  84 119 165 219 263 306 370
#     4  10  22  42  68  96 130 169 220 278 341 406
#     4  11  22  37  60  90 131 176 217 263 321 387
#     4  11  23  40  63  92 129 169 219 272 331 392
#
# _framework density 21.390726999999998
#
# number of rings (size 3 to 8) (size 9 to 14) (size 15 to 20)
#    0.000    1.571    1.429    3.429    0.000    4.000 
#    0.000    5.714    0.000    0.000    0.000    0.000 
#    0.000    0.000    0.000    0.000    0.000    0.000 
#
# Total GULP energy -312110.589620 kJ/mol
# GULP energy per Si atom -5573.403386 kJ/mol
# Density = 2.134204 g / cm^3
# Si number density = 21.390727 Si / 1000 Ang^3
#
#
#
# Elastic Constant Matrix: (Units=GPa)
#
#
# Indices 1 2 3 4 5 6 
#
# 1 130.6125 74.9851 36.5446 0.0000 0.0000 0.0000
# 2 74.9851 130.6125 36.5446 0.0000 0.0000 0.0000
# 3 36.5446 36.5446 76.4515 0.0000 0.0000 0.0000
# 4 0.0000 0.0000 0.0000 20.5365 0.0000 0.0000
# 5 0.0000 0.0000 0.0000 0.0000 20.5365 0.0000
# 6 0.0000 0.0000 0.0000 0.0000 0.0000 27.8183
#
#
#
# Elastic Compliance Matrix: (Units=1/GPa)
#
#
# Indices 1 2 3 4 5 6 
#
# 1 0.011918 -0.006059 -0.002801 0.000000 0.000000 0.000000
# 2 -0.006059 0.011918 -0.002801 0.000000 0.000000 0.000000
# 3 -0.002801 -0.002801 0.015758 0.000000 0.000000 0.000000
# 4 0.000000 0.000000 0.000000 0.048694 0.000000 0.000000
# 5 0.000000 0.000000 0.000000 0.000000 0.048694 0.000000
# 6 0.000000 0.000000 0.000000 0.000000 0.000000 0.035947
#
#
# Mechanical properties :
#
#
# Convention : Reuss Voigt Hill
#
# Bulk Modulus (GPa) = 61.45013 70.42502 65.93757
# Shear Modulus (GPa) = 24.79239 26.41841 25.60540
#
# Velocity S-wave (km/s) = 3.40814 3.51813 3.46357
# Velocity P-wave (km/s) = 6.65410 7.03545 6.84743
#
# Compressibility (1/GPa) = 0.01627336
#
# Stress axis : x y z
#
# Youngs Moduli (GPa) = 83.90549 83.90549 63.45999
#
# Poissons Ratio (x) = 0.50835 0.17775
# Poissons Ratio (y) = 0.50835 0.17775
# Poissons Ratio (z) = 0.23501 0.23501
#
# Static dielectric constant tensor:
#      x y z
#    x 1.881120 0.000000 0.000000 
#    y 0.000000 1.881120 0.000000 
#    z 0.000000 0.000000 1.830590 
# 
# From -- ./inp_files/9029.got.cif
#   From: 2010.05.17/outbox.cif.g08.bks.cpg/sg140_5_cif.got.tgz:9029.got - 2010.06.21 00:45:31.
