data_PCOD9572615
_publ_section_title
;
Structure prediction by ZEFSAII (Michael W. Deem and Ramdas Pophale) SiO2 
 PCOD9572615
Probable space group: I 4/M C M
;
_chemical_formula_sum "Si O2"
_cell_formula_units_Z 96
_cell_length_a 18.823598
_cell_length_b 18.823598
_cell_length_c 15.708679
_cell_angle_alpha 90.000000
_cell_angle_beta 90.000000
_cell_angle_gamma 90.000000
_cell_volume 5566.022325
_symmetry_space_group_name_H-M "I 4/M C M"
_symmetry_group_IT_number 140
_symmetry_cell_setting 'tetragonal'
loop_
_space_group_symop_operation_xyz
x,y,z
-y,x,z
-x,-y,z
y,-x,z
x,-y,1/2-z
-x,y,1/2-z
y,x,1/2-z
-y,-x,1/2-z
-x,-y,-z
y,-x,-z
x,y,-z
-y,x,-z
-x,y,1/2+z
x,-y,1/2+z
-y,-x,1/2+z
y,x,1/2+z
1/2+x,1/2+y,1/2+z
1/2-y,1/2+x,1/2+z
1/2-x,1/2-y,1/2+z
1/2+y,1/2-x,1/2+z
1/2+x,1/2-y,-z
1/2-x,1/2+y,-z
1/2+y,1/2+x,-z
1/2-y,1/2-x,-z
1/2-x,1/2-y,1/2-z
1/2+y,1/2-x,1/2-z
1/2+x,1/2+y,1/2-z
1/2-y,1/2+x,1/2-z
1/2-x,1/2+y,z
1/2+x,1/2-y,z
1/2-y,1/2-x,z
1/2+y,1/2+x,z
loop_
_atom_site_type_symbol
_atom_site_label
_atom_site_fract_x
_atom_site_fract_y
_atom_site_fract_z
Si Si1 0.415210 0.915210 0.750000
Si Si2 0.663168 0.836833 0.095666
Si Si3 0.583431 0.416570 0.250000
Si Si4 0.179370 0.179372 0.848369
Si Si5 0.336834 0.836834 0.095665
O O1 0.500000 0.902776 0.750000
O O2 0.379279 0.879279 0.667459
O O3 0.379280 0.879280 0.832541
O O4 0.748144 0.846759 0.108761
O O5 0.642912 0.857089 0.000000
O O6 0.597080 0.500000 0.250000
O O7 0.619953 0.380049 0.332462
O O8 0.197534 0.197534 0.750000
O O9 0.153241 0.251857 0.891240
O O10 0.357090 0.857090 0.000000
#
# Coordination Sequence:
#
# PCOD9572615 Si02
#       5
#    16  16  16  32  16
#     4  11  24  41  56  76 112 149 184 229 278 332
#     4  11  20  36  60  85 110 139 182 230 279 329
#     4   9  18  31  52  80 110 149 188 217 260 322
#     4   9  17  32  57  84 110 145 177 223 275 322
#     4  11  20  36  60  85 110 139 182 230 279 329
#
# _framework density 17.247506000000001
#
# number of rings (size 3 to 8) (size 9 to 14) (size 15 to 20)
#    1.000    1.000    3.333    3.000    0.000    6.667 
#    0.000    1.667    0.000    6.000    0.000    9.333 
#    0.000    0.000    0.000    0.000    0.000    0.000 
#
# Total GULP energy -267210.089421 kJ/mol
# GULP energy per Si atom -5566.876863 kJ/mol
# Density = 1.720825 g / cm^3
# Si number density = 17.247506 Si / 1000 Ang^3
#
#
#
# Elastic Constant Matrix: (Units=GPa)
#
#
# Indices 1 2 3 4 5 6 
#
# 1 100.8906 103.3938 46.2217 0.0000 0.0000 0.0000
# 2 103.3938 100.8937 46.2223 0.0000 0.0000 0.0000
# 3 46.2217 46.2223 147.0808 0.0000 0.0000 0.0000
# 4 0.0000 0.0000 0.0000 39.4660 0.0000 0.0000
# 5 0.0000 0.0000 0.0000 0.0000 39.4615 0.0000
# 6 0.0000 0.0000 0.0000 0.0000 0.0000 34.6555
#
#
#
# Elastic Compliance Matrix: (Units=1/GPa)
#
#
# Indices 1 2 3 4 5 6 
#
# 1 -0.197018 0.202722 -0.001793 0.000000 0.000000 0.000000
# 2 0.202722 -0.197012 -0.001794 0.000000 0.000000 0.000000
# 3 -0.001793 -0.001794 0.007926 0.000000 0.000000 0.000000
# 4 0.000000 0.000000 0.000000 0.025338 0.000000 0.000000
# 5 0.000000 0.000000 0.000000 0.000000 0.025341 0.000000
# 6 0.000000 0.000000 0.000000 0.000000 0.000000 0.028855
#
#
# Mechanical properties :
#
#
# Convention : Reuss Voigt Hill
#
# Bulk Modulus (GPa) = 82.19683 82.28232 82.23957
# Shear Modulus (GPa) = -7.13487 32.91840 12.89177
#
# Velocity S-wave (km/s) = -2.03611 4.37348 2.73693
# Velocity P-wave (km/s) = 6.49870 8.56233 7.60087
#
# Compressibility (1/GPa) = 0.01216592
#
# Stress axis : x y z
#
# Youngs Moduli (GPa) = -5.07567 -5.07583 126.16430
#
# Poissons Ratio (x) = 1.02898 0.22625
# Poissons Ratio (y) = 1.02895 0.22628
# Poissons Ratio (z) = -0.00910 -0.00910
#
# Static dielectric constant tensor:
#      x y z
#    x 1.580890 0.000000 0.000000 
#    y 0.000000 1.580890 0.000000 
#    z 0.000000 0.000000 1.586970 
# 
# From -- ./inp_files/4197.got.cif
#   From: 2010.05.17/outbox.cif.g08.bks.cpg/sg140_3_cif.got.tgz:4197.got - 2010.06.21 00:45:31.
