data_PCOD9572332
_publ_section_title
;
Structure prediction by ZEFSAII (Michael W. Deem and Ramdas Pophale) SiO2 
 PCOD9572332
Probable space group: I 4/M C M
;
_chemical_formula_sum "Si O2"
_cell_formula_units_Z 128
_cell_length_a 27.633406
_cell_length_b 27.633406
_cell_length_c 9.306187
_cell_angle_alpha 90.000000
_cell_angle_beta 90.000000
_cell_angle_gamma 90.000000
_cell_volume 7106.252108
_symmetry_space_group_name_H-M "I 4/M C M"
_symmetry_group_IT_number 140
_symmetry_cell_setting 'tetragonal'
loop_
_space_group_symop_operation_xyz
x,y,z
-y,x,z
-x,-y,z
y,-x,z
x,-y,1/2-z
-x,y,1/2-z
y,x,1/2-z
-y,-x,1/2-z
-x,-y,-z
y,-x,-z
x,y,-z
-y,x,-z
-x,y,1/2+z
x,-y,1/2+z
-y,-x,1/2+z
y,x,1/2+z
1/2+x,1/2+y,1/2+z
1/2-y,1/2+x,1/2+z
1/2-x,1/2-y,1/2+z
1/2+y,1/2-x,1/2+z
1/2+x,1/2-y,-z
1/2-x,1/2+y,-z
1/2+y,1/2+x,-z
1/2-y,1/2-x,-z
1/2-x,1/2-y,1/2-z
1/2+y,1/2-x,1/2-z
1/2+x,1/2+y,1/2-z
1/2-y,1/2+x,1/2-z
1/2-x,1/2+y,z
1/2+x,1/2-y,z
1/2-y,1/2-x,z
1/2+y,1/2+x,z
loop_
_atom_site_type_symbol
_atom_site_label
_atom_site_fract_x
_atom_site_fract_y
_atom_site_fract_z
Si Si1 0.864063 0.000000 0.250000
Si Si2 0.242062 0.447556 0.171992
Si Si3 0.924694 0.973119 0.500000
Si Si4 0.399304 0.325789 0.166826
Si Si5 0.449555 0.129133 0.670776
O O1 0.840180 0.043376 0.337939
O O2 0.894474 0.967476 0.358999
O O3 0.249551 0.500000 0.250000
O O4 0.276230 0.406529 0.241966
O O5 0.185422 0.436106 0.193354
O O6 0.252150 0.452208 0.000000
O O7 0.971679 0.941518 0.500000
O O8 0.363715 0.363715 0.250000
O O9 0.383593 0.320640 0.000000
O O10 0.500000 0.119501 0.750000
O O11 0.456896 0.123195 0.500000
O O12 0.407566 0.092435 0.717233
#
# Coordination Sequence:
#
# PCOD9572332 Si02
#       5
#    16  32  16  32  32
#     4  12  24  35  48  68  94 128 171 220 280 338
#     4  10  20  36  57  82 111 148 190 235 283 335
#     4  11  22  36  48  62  88 126 168 216 271 338
#     4  12  25  38  56  76 103 139 184 239 294 349
#     4   9  19  36  59  89 126 162 195 227 267 322
#
# _framework density 18.012308999999998
#
# number of rings (size 3 to 8) (size 9 to 14) (size 15 to 20)
#    0.000    1.375    2.500    3.750    3.500    2.750 
#    0.000    1.250    0.000    0.750    0.000    0.000 
#    0.000    0.000    0.000    0.000    0.000    0.000 
#
# Total GULP energy -356464.174785 kJ/mol
# GULP energy per Si atom -5569.752731 kJ/mol
# Density = 1.797131 g / cm^3
# Si number density = 18.012309 Si / 1000 Ang^3
#
#
#
# Elastic Constant Matrix: (Units=GPa)
#
#
# Indices 1 2 3 4 5 6 
#
# 1 91.8543 83.7881 53.1537 0.0000 0.0000 0.0000
# 2 83.7881 91.8543 53.1537 0.0000 0.0000 0.0000
# 3 53.1537 53.1537 121.1873 0.0000 0.0000 0.0000
# 4 0.0000 0.0000 0.0000 36.4685 0.0000 0.0000
# 5 0.0000 0.0000 0.0000 0.0000 36.4685 0.0000
# 6 0.0000 0.0000 0.0000 0.0000 0.0000 31.1356
#
#
#
# Elastic Compliance Matrix: (Units=1/GPa)
#
#
# Indices 1 2 3 4 5 6 
#
# 1 0.065862 -0.058111 -0.003400 0.000000 0.000000 0.000000
# 2 -0.058111 0.065862 -0.003400 0.000000 0.000000 0.000000
# 3 -0.003400 -0.003400 0.011234 0.000000 0.000000 0.000000
# 4 0.000000 0.000000 0.000000 0.027421 0.000000 0.000000
# 5 0.000000 0.000000 0.000000 0.000000 0.027421 0.000000
# 6 0.000000 0.000000 0.000000 0.000000 0.000000 0.032118
#
#
# Mechanical properties :
#
#
# Convention : Reuss Voigt Hill
#
# Bulk Modulus (GPa) = 76.11895 76.12078 76.11987
# Shear Modulus (GPa) = 13.73185 28.46790 21.09988
#
# Velocity S-wave (km/s) = 2.76408 3.97982 3.42631
# Velocity P-wave (km/s) = 7.24831 7.96686 7.61606
#
# Compressibility (1/GPa) = 0.01313733
#
# Stress axis : x y z
#
# Youngs Moduli (GPa) = 15.18326 15.18326 89.01597
#
# Poissons Ratio (x) = 0.88231 0.30262
# Poissons Ratio (y) = 0.88231 0.30262
# Poissons Ratio (z) = 0.05162 0.05162
#
# Static dielectric constant tensor:
#      x y z
#    x 1.638600 0.000000 0.000000 
#    y 0.000000 1.638600 0.000000 
#    z 0.000000 0.000000 1.654390 
# 
# From -- ./inp_files/1478.got.cif
#   From: 2010.05.17/outbox.cif.g08.bks.cpg/sg140_1_cif.got.tgz:1478.got - 2010.06.21 00:45:31.
