data_PCOD9572832
_publ_section_title
;
Structure prediction by ZEFSAII (Michael W. Deem and Ramdas Pophale) SiO2 
 PCOD9572832
Probable space group: I 41/A M D
;
_chemical_formula_sum "Si O2"
_cell_formula_units_Z 224
_cell_length_a 24.455328
_cell_length_b 24.455328
_cell_length_c 20.443630
_cell_angle_alpha 90.000000
_cell_angle_beta 90.000000
_cell_angle_gamma 90.000000
_cell_volume 12226.580070
_symmetry_space_group_name_H-M "I 41/A M D"
_symmetry_group_IT_number 141
_space_group.IT_coordinate_system_code '2'
_symmetry_cell_setting 'tetragonal'
loop_
_space_group_symop_operation_xyz
x,y,z
1/4-y,3/4+x,1/4+z
-x,1/2-y,z
1/4+y,1/4-x,3/4+z
x,-y,-z
-x,1/2+y,-z
1/4+y,3/4+x,1/4-z
1/4-y,1/4-x,3/4-z
-x,-y,-z
3/4+y,1/4-x,3/4-z
x,1/2+y,-z
3/4-y,3/4+x,1/4-z
-x,y,z
x,1/2-y,z
3/4-y,1/4-x,3/4+z
3/4+y,3/4+x,1/4+z
1/2+x,1/2+y,1/2+z
3/4-y,1/4+x,3/4+z
1/2-x,-y,1/2+z
3/4+y,3/4-x,1/4+z
1/2+x,1/2-y,1/2-z
1/2-x,y,1/2-z
3/4+y,1/4+x,3/4-z
3/4-y,3/4-x,1/4-z
1/2-x,1/2-y,1/2-z
1/4+y,3/4-x,1/4-z
1/2+x,y,1/2-z
1/4-y,1/4+x,3/4-z
1/2-x,1/2+y,1/2+z
1/2+x,-y,1/2+z
1/4-y,3/4-x,1/4+z
1/4+y,1/4+x,3/4+z
loop_
_atom_site_type_symbol
_atom_site_label
_atom_site_fract_x
_atom_site_fract_y
_atom_site_fract_z
Si Si1 0.560724 0.937416 0.976481
Si Si2 0.726545 0.632040 0.519764
Si Si3 0.190193 0.123595 0.781303
Si Si4 0.435982 0.906035 0.123316
Si Si5 0.358793 0.813049 0.169193
Si Si6 0.437543 0.991494 0.357927
Si Si7 0.299727 0.568318 0.803121
O O1 0.500000 0.923252 0.948488
O O2 0.569398 0.906473 0.045128
O O3 0.617639 0.934462 0.937288
O O4 0.556759 0.000000 0.000000
O O5 0.680980 0.592336 0.487372
O O6 0.704318 0.652955 0.589658
O O7 0.732891 0.681166 0.468901
O O8 0.782765 0.599198 0.524441
O O9 0.250000 0.117086 0.750000
O O10 0.159297 0.171675 0.742438
O O11 0.202458 0.145139 0.853818
O O12 0.500000 0.911193 0.138682
O O13 0.408661 0.851212 0.149712
O O14 0.371749 0.750000 0.161804
O O15 0.304374 0.825779 0.126492
O O16 0.500000 0.981721 0.379808
O O17 0.250000 0.565787 0.750000
O O18 0.291003 0.541003 0.875000
#
# Coordination Sequence:
#
# PCOD9572832 Si02
#       7
#    32  32  32  32  32  32  32
#     4   9  18  35  57  78 104 140 178 214 259 318
#     4  11  20  31  49  75 106 136 171 215 273 330
#     4   9  18  31  47  68  97 137 176 215 264 326
#     4  10  20  34  52  75 103 133 173 225 273 321
#     4   9  18  32  49  69  95 132 177 222 268 319
#     4  10  19  31  48  70  99 134 175 219 264 321
#     4  11  23  37  56  84 117 149 181 223 273 332
#
# _framework density 18.320740000000001
#
# number of rings (size 3 to 8) (size 9 to 14) (size 15 to 20)
#    0.000    2.143    0.000    4.286    0.000    5.429 
#    0.000    0.714    0.000    0.857    0.000    0.000 
#    0.000   10.286    0.000    0.000    0.000    0.000 
#
# Total GULP energy -624000.817373 kJ/mol
# GULP energy per Si atom -5571.435869 kJ/mol
# Density = 1.827904 g / cm^3
# Si number density = 18.320740 Si / 1000 Ang^3
#
#
#
# Elastic Constant Matrix: (Units=GPa)
#
#
# Indices 1 2 3 4 5 6 
#
# 1 65.5678 41.2331 7.1832 0.0000 0.0000 0.0000
# 2 41.2331 65.5678 7.1832 0.0000 0.0000 0.0000
# 3 7.1832 7.1832 53.6722 0.0000 0.0000 0.0000
# 4 0.0000 0.0000 0.0000 21.7430 0.0000 0.0000
# 5 0.0000 0.0000 0.0000 0.0000 21.7430 0.0000
# 6 0.0000 0.0000 0.0000 0.0000 0.0000 15.8758
#
#
#
# Elastic Compliance Matrix: (Units=1/GPa)
#
#
# Indices 1 2 3 4 5 6 
#
# 1 0.025314 -0.015779 -0.001276 0.000000 0.000000 0.000000
# 2 -0.015779 0.025314 -0.001276 0.000000 0.000000 0.000000
# 3 -0.001276 -0.001276 0.018973 0.000000 0.000000 0.000000
# 4 0.000000 0.000000 0.000000 0.045992 0.000000 0.000000
# 5 0.000000 0.000000 0.000000 0.000000 0.045992 0.000000
# 6 0.000000 0.000000 0.000000 0.000000 0.000000 0.062989
#
#
# Mechanical properties :
#
#
# Convention : Reuss Voigt Hill
#
# Bulk Modulus (GPa) = 30.35958 32.88967 31.62462
# Shear Modulus (GPa) = 18.36770 20.48623 19.42696
#
# Velocity S-wave (km/s) = 3.16976 3.34758 3.25988
# Velocity P-wave (km/s) = 5.47756 5.73871 5.60966
#
# Compressibility (1/GPa) = 0.03293854
#
# Stress axis : x y z
#
# Youngs Moduli (GPa) = 39.50348 39.50348 52.70593
#
# Poissons Ratio (x) = 0.62334 0.06726
# Poissons Ratio (y) = 0.62334 0.06726
# Poissons Ratio (z) = 0.05041 0.05041
#
# Static dielectric constant tensor:
#      x y z
#    x 1.666180 0.000000 0.000000 
#    y 0.000000 1.666180 0.000000 
#    z 0.000000 0.000000 1.709170 
# 
# From -- ./inp_files/11895.got.cif
#   From: 2010.05.17/outbox.cif.g08.bks.cpg/sg141_6_cif.got.tgz:11895.got - 2010.05.20 13:30:51.
