data_PCOD9572304
_publ_section_title
;
Structure prediction by ZEFSAII (Michael W. Deem and Ramdas Pophale) SiO2 
 PCOD9572304
Probable space group: I 4/M C M
;
_chemical_formula_sum "Si O2"
_cell_formula_units_Z 112
_cell_length_a 18.823491
_cell_length_b 18.823491
_cell_length_c 17.441992
_cell_angle_alpha 90.000000
_cell_angle_beta 90.000000
_cell_angle_gamma 90.000000
_cell_volume 6180.113119
_symmetry_space_group_name_H-M "I 4/M C M"
_symmetry_group_IT_number 140
_symmetry_cell_setting 'tetragonal'
loop_
_space_group_symop_operation_xyz
x,y,z
-y,x,z
-x,-y,z
y,-x,z
x,-y,1/2-z
-x,y,1/2-z
y,x,1/2-z
-y,-x,1/2-z
-x,-y,-z
y,-x,-z
x,y,-z
-y,x,-z
-x,y,1/2+z
x,-y,1/2+z
-y,-x,1/2+z
y,x,1/2+z
1/2+x,1/2+y,1/2+z
1/2-y,1/2+x,1/2+z
1/2-x,1/2-y,1/2+z
1/2+y,1/2-x,1/2+z
1/2+x,1/2-y,-z
1/2-x,1/2+y,-z
1/2+y,1/2+x,-z
1/2-y,1/2-x,-z
1/2-x,1/2-y,1/2-z
1/2+y,1/2-x,1/2-z
1/2+x,1/2+y,1/2-z
1/2-y,1/2+x,1/2-z
1/2-x,1/2+y,z
1/2+x,1/2-y,z
1/2-y,1/2-x,z
1/2+y,1/2+x,z
loop_
_atom_site_type_symbol
_atom_site_label
_atom_site_fract_x
_atom_site_fract_y
_atom_site_fract_z
Si Si1 0.293311 0.324704 0.584435
Si Si2 0.888153 0.730083 0.813642
Si Si3 0.219643 0.453204 0.356458
Si Si4 0.442013 0.942013 0.591865
O O1 0.325200 0.309681 0.500000
O O2 0.220307 0.279694 0.588389
O O3 0.340539 0.294399 0.653753
O O4 0.270303 0.406067 0.590763
O O5 0.840899 0.659102 0.830640
O O6 0.911126 0.726148 0.724681
O O7 0.964439 0.738910 0.852977
O O8 0.137598 0.455990 0.380447
O O9 0.443588 0.943588 0.500000
O O10 0.500000 0.000000 0.620036
#
# Coordination Sequence:
#
# PCOD9572304 Si02
#       4
#    32  32  32  16
#     4  10  20  35  56  79 109 149 193 240 288 343
#     4  10  21  36  55  84 112 147 191 238 283 341
#     4  11  20  35  57  81 112 152 191 233 287 344
#     4  11  22  34  51  80 117 155 188 228 282 346
#
# _framework density 18.122644999999999
#
# number of rings (size 3 to 8) (size 9 to 14) (size 15 to 20)
#    0.000    1.571    2.857    2.571    0.000    4.571 
#    0.000    2.857    0.000    0.857    0.000    6.000 
#    0.000    0.000    0.000    0.000    0.000    0.000 
#
# Total GULP energy -311966.856460 kJ/mol
# GULP energy per Si atom -5570.836723 kJ/mol
# Density = 1.808140 g / cm^3
# Si number density = 18.122645 Si / 1000 Ang^3
#
#
#
# Elastic Constant Matrix: (Units=GPa)
#
#
# Indices 1 2 3 4 5 6 
#
# 1 122.3776 25.2828 35.7510 0.0000 0.0000 0.0000
# 2 25.2828 122.3776 35.7510 0.0000 0.0000 0.0000
# 3 35.7510 35.7510 60.4369 0.0000 0.0000 0.0000
# 4 0.0000 0.0000 0.0000 20.7373 0.0000 0.0000
# 5 0.0000 0.0000 0.0000 0.0000 20.7373 0.0000
# 6 0.0000 0.0000 0.0000 0.0000 0.0000 30.3777
#
#
#
# Elastic Compliance Matrix: (Units=1/GPa)
#
#
# Indices 1 2 3 4 5 6 
#
# 1 0.009895 -0.000404 -0.005614 0.000000 0.000000 0.000000
# 2 -0.000404 0.009895 -0.005614 0.000000 0.000000 0.000000
# 3 -0.005614 -0.005614 0.023188 0.000000 0.000000 0.000000
# 4 0.000000 0.000000 0.000000 0.048222 0.000000 0.000000
# 5 0.000000 0.000000 0.000000 0.000000 0.048222 0.000000
# 6 0.000000 0.000000 0.000000 0.000000 0.000000 0.032919
#
#
# Mechanical properties :
#
#
# Convention : Reuss Voigt Hill
#
# Bulk Modulus (GPa) = 50.72779 55.41799 53.07289
# Shear Modulus (GPa) = 24.73064 28.26428 26.49746
#
# Velocity S-wave (km/s) = 3.69809 3.95348 3.82791
# Velocity P-wave (km/s) = 6.80343 7.17536 6.99187
#
# Compressibility (1/GPa) = 0.01971306
#
# Stress axis : x y z
#
# Youngs Moduli (GPa) = 101.06050 101.06049 43.12506
#
# Poissons Ratio (x) = 0.04084 0.24212
# Poissons Ratio (y) = 0.04084 0.24212
# Poissons Ratio (z) = 0.56738 0.56738
#
# Static dielectric constant tensor:
#      x y z
#    x 1.627810 0.000000 0.000000 
#    y 0.000000 1.627810 0.000000 
#    z 0.000000 0.000000 1.710880 
# 
# From -- ./inp_files/6086.got.cif
#   From: 2010.05.17/outbox.cif.g08.bks.cpg/sg140_4_cif.got.tgz:6086.got - 2010.06.21 00:45:31.
