data_PCOD9572821
_publ_section_title
;
Structure prediction by ZEFSAII (Michael W. Deem and Ramdas Pophale) SiO2 
 PCOD9572821
Probable space group: I 41/A M D
;
_chemical_formula_sum "Si O2"
_cell_formula_units_Z 176
_cell_length_a 26.966944
_cell_length_b 26.966944
_cell_length_c 11.235280
_cell_angle_alpha 90.000000
_cell_angle_beta 90.000000
_cell_angle_gamma 90.000000
_cell_volume 8170.476152
_symmetry_space_group_name_H-M "I 41/A M D"
_symmetry_group_IT_number 141
_space_group.IT_coordinate_system_code '2'
_symmetry_cell_setting 'tetragonal'
loop_
_space_group_symop_operation_xyz
x,y,z
1/4-y,3/4+x,1/4+z
-x,1/2-y,z
1/4+y,1/4-x,3/4+z
x,-y,-z
-x,1/2+y,-z
1/4+y,3/4+x,1/4-z
1/4-y,1/4-x,3/4-z
-x,-y,-z
3/4+y,1/4-x,3/4-z
x,1/2+y,-z
3/4-y,3/4+x,1/4-z
-x,y,z
x,1/2-y,z
3/4-y,1/4-x,3/4+z
3/4+y,3/4+x,1/4+z
1/2+x,1/2+y,1/2+z
3/4-y,1/4+x,3/4+z
1/2-x,-y,1/2+z
3/4+y,3/4-x,1/4+z
1/2+x,1/2-y,1/2-z
1/2-x,y,1/2-z
3/4+y,1/4+x,3/4-z
3/4-y,3/4-x,1/4-z
1/2-x,1/2-y,1/2-z
1/4+y,3/4-x,1/4-z
1/2+x,y,1/2-z
1/4-y,1/4+x,3/4-z
1/2-x,1/2+y,1/2+z
1/2+x,-y,1/2+z
1/4-y,3/4-x,1/4+z
1/4+y,1/4+x,3/4+z
loop_
_atom_site_type_symbol
_atom_site_label
_atom_site_fract_x
_atom_site_fract_y
_atom_site_fract_z
Si Si1 0.790779 0.308162 0.518249
Si Si2 0.892877 0.808345 0.881448
Si Si3 0.867695 0.034750 0.883885
Si Si4 0.857233 0.693899 0.243129
Si Si5 0.942396 0.692396 0.625000
Si Si6 0.440265 0.556077 0.992698
O O1 0.770821 0.250000 0.508760
O O2 0.751614 0.352900 0.540861
O O3 0.826921 0.307265 0.631567
O O4 0.820086 0.318345 0.395207
O O5 0.893604 0.750000 0.907761
O O6 0.922638 0.839214 0.976623
O O7 0.915236 0.816067 0.749076
O O8 0.838061 0.828864 0.852922
O O9 0.815894 0.065894 0.875000
O O10 0.908833 0.076646 0.907632
O O11 0.862375 0.000000 0.000000
O O12 0.858584 0.750000 0.200083
O O13 0.933985 0.750000 0.596616
O O14 0.500000 0.557525 0.006569
O O15 0.423019 0.500000 0.000000
#
# Coordination Sequence:
#
# PCOD9572821 Si02
#       6
#    32  32  32  32  16  32
#     4   9  18  35  59  83 111 143 187 246 287 332
#     4  10  19  30  48  77 118 159 191 232 284 343
#     4  10  22  40  65  85 110 145 193 247 305 358
#     4  10  20  35  57  87 116 151 197 235 279 344
#     4   9  16  26  42  66 100 148 192 218 260 330
#     4   9  18  30  47  75 110 148 188 228 279 335
#
# _framework density 21.540973000000001
#
# number of rings (size 3 to 8) (size 9 to 14) (size 15 to 20)
#    0.000    2.455    0.000    2.182    2.545    6.182 
#    0.000    0.909    8.000    0.000    0.000    0.000 
#    0.000    0.000    0.000    0.000    0.000    0.000 
#
# Total GULP energy -490614.384105 kJ/mol
# GULP energy per Si atom -5575.163456 kJ/mol
# Density = 2.149194 g / cm^3
# Si number density = 21.540973 Si / 1000 Ang^3
#
#
#
# Elastic Constant Matrix: (Units=GPa)
#
#
# Indices 1 2 3 4 5 6 
#
# 1 88.8871 37.6583 11.2821 0.0000 0.0000 0.0000
# 2 37.6583 88.8871 11.2821 0.0000 0.0000 0.0000
# 3 11.2821 11.2821 55.9193 0.0000 0.0000 0.0000
# 4 0.0000 0.0000 0.0000 24.7704 0.0000 0.0000
# 5 0.0000 0.0000 0.0000 0.0000 24.7704 0.0000
# 6 0.0000 0.0000 0.0000 0.0000 0.0000 34.8461
#
#
#
# Elastic Compliance Matrix: (Units=1/GPa)
#
#
# Indices 1 2 3 4 5 6 
#
# 1 0.013859 -0.005662 -0.001654 0.000000 0.000000 0.000000
# 2 -0.005662 0.013859 -0.001654 0.000000 0.000000 0.000000
# 3 -0.001654 -0.001654 0.018550 0.000000 0.000000 0.000000
# 4 0.000000 0.000000 0.000000 0.040371 0.000000 0.000000
# 5 0.000000 0.000000 0.000000 0.000000 0.040371 0.000000
# 6 0.000000 0.000000 0.000000 0.000000 0.000000 0.028698
#
#
# Mechanical properties :
#
#
# Convention : Reuss Voigt Hill
#
# Bulk Modulus (GPa) = 35.29915 39.34873 37.32394
# Shear Modulus (GPa) = 27.30921 28.44211 27.87566
#
# Velocity S-wave (km/s) = 3.56445 3.63764 3.60123
# Velocity P-wave (km/s) = 5.77607 5.99581 5.88697
#
# Compressibility (1/GPa) = 0.02832930
#
# Stress axis : x y z
#
# Youngs Moduli (GPa) = 72.15660 72.15660 53.90757
#
# Poissons Ratio (x) = 0.40852 0.08915
# Poissons Ratio (y) = 0.40852 0.08915
# Poissons Ratio (z) = 0.11934 0.11934
#
# Static dielectric constant tensor:
#      x y z
#    x 1.837460 0.000000 0.000000 
#    y 0.000000 1.837460 0.000000 
#    z 0.000000 0.000000 1.801670 
# 
# From -- ./inp_files/5006.got.cif
#   From: 2010.05.17/outbox.cif.g08.bks.cpg/sg141_3_cif.got.tgz:5006.got - 2010.05.20 13:30:51.
