data_PCOD9572692
_publ_section_title
;
Structure prediction by ZEFSAII (Michael W. Deem and Ramdas Pophale) SiO2 
 PCOD9572692
Probable space group: I 4/M C M
;
_chemical_formula_sum "Si O2"
_cell_formula_units_Z 144
_cell_length_a 19.419468
_cell_length_b 19.419468
_cell_length_c 17.469229
_cell_angle_alpha 90.000000
_cell_angle_beta 90.000000
_cell_angle_gamma 90.000000
_cell_volume 6587.921176
_symmetry_space_group_name_H-M "I 4/M C M"
_symmetry_group_IT_number 140
_symmetry_cell_setting 'tetragonal'
loop_
_space_group_symop_operation_xyz
x,y,z
-y,x,z
-x,-y,z
y,-x,z
x,-y,1/2-z
-x,y,1/2-z
y,x,1/2-z
-y,-x,1/2-z
-x,-y,-z
y,-x,-z
x,y,-z
-y,x,-z
-x,y,1/2+z
x,-y,1/2+z
-y,-x,1/2+z
y,x,1/2+z
1/2+x,1/2+y,1/2+z
1/2-y,1/2+x,1/2+z
1/2-x,1/2-y,1/2+z
1/2+y,1/2-x,1/2+z
1/2+x,1/2-y,-z
1/2-x,1/2+y,-z
1/2+y,1/2+x,-z
1/2-y,1/2-x,-z
1/2-x,1/2-y,1/2-z
1/2+y,1/2-x,1/2-z
1/2+x,1/2+y,1/2-z
1/2-y,1/2+x,1/2-z
1/2-x,1/2+y,z
1/2+x,1/2-y,z
1/2-y,1/2-x,z
1/2+y,1/2+x,z
loop_
_atom_site_type_symbol
_atom_site_label
_atom_site_fract_x
_atom_site_fract_y
_atom_site_fract_z
Si Si1 0.089489 0.179066 0.201722
Si Si2 0.055131 0.327170 0.412297
Si Si3 0.384333 0.493227 0.917634
Si Si4 0.170632 0.213124 0.584777
Si Si5 0.000000 0.703600 0.250000
O O1 0.112659 0.112659 0.250000
O O2 0.021085 0.163325 0.153228
O O3 0.154617 0.185368 0.146013
O O4 0.069086 0.249446 0.242354
O O5 0.024393 0.329099 0.500000
O O6 0.110647 0.389354 0.409514
O O7 0.100083 0.256405 0.408530
O O8 0.009469 0.331809 0.334236
O O9 0.438823 0.430188 0.914468
O O10 0.348994 0.491526 0.000000
O O11 0.171103 0.181378 0.500000
O O12 0.230412 0.269589 0.589222
#
# Coordination Sequence:
#
# PCOD9572692 Si02
#       5
#    32  32  32  32  16
#     4  12  22  33  47  79 117 148 187 245 300 354
#     4   9  20  41  65  90 124 163 204 253 312 376
#     4   9  19  34  48  62  91 143 196 237 282 337
#     4   9  19  37  59  80 108 151 195 244 311 371
#     4  12  24  36  60  94 118 160 212 254 312 376
#
# _framework density 21.858184000000001
#
# number of rings (size 3 to 8) (size 9 to 14) (size 15 to 20)
#    0.000    2.000    2.222    4.000    0.000    3.111 
#    0.000    1.111    0.000    1.000    0.000    1.556 
#    0.000    0.000    0.000    0.000    0.000    0.000 
#
# Total GULP energy -401638.465702 kJ/mol
# GULP energy per Si atom -5578.312024 kJ/mol
# Density = 2.180843 g / cm^3
# Si number density = 21.858184 Si / 1000 Ang^3
#
#
#
# Elastic Constant Matrix: (Units=GPa)
#
#
# Indices 1 2 3 4 5 6 
#
# 1 45.6370 13.0123 32.5263 0.0000 0.0000 0.0000
# 2 13.0123 45.6370 32.5263 0.0000 0.0000 0.0000
# 3 32.5263 32.5263 174.7261 0.0000 0.0000 0.0000
# 4 0.0000 0.0000 0.0000 28.5204 0.0000 0.0000
# 5 0.0000 0.0000 0.0000 0.0000 28.5204 0.0000
# 6 0.0000 0.0000 0.0000 0.0000 0.0000 25.7304
#
#
#
# Elastic Compliance Matrix: (Units=1/GPa)
#
#
# Indices 1 2 3 4 5 6 
#
# 1 0.026069 -0.004582 -0.004000 0.000000 0.000000 0.000000
# 2 -0.004582 0.026069 -0.004000 0.000000 0.000000 0.000000
# 3 -0.004000 -0.004000 0.007212 0.000000 0.000000 0.000000
# 4 0.000000 0.000000 0.000000 0.035063 0.000000 0.000000
# 5 0.000000 0.000000 0.000000 0.000000 0.035063 0.000000
# 6 0.000000 0.000000 0.000000 0.000000 0.000000 0.038864
#
#
# Mechanical properties :
#
#
# Convention : Reuss Voigt Hill
#
# Bulk Modulus (GPa) = 29.25089 46.90331 38.07710
# Shear Modulus (GPa) = 24.40202 29.08324 26.74263
#
# Velocity S-wave (km/s) = 3.34485 3.65162 3.50160
# Velocity P-wave (km/s) = 5.32246 6.26767 5.81430
#
# Compressibility (1/GPa) = 0.03418699
#
# Stress axis : x y z
#
# Youngs Moduli (GPa) = 38.35915 38.35915 138.64855
#
# Poissons Ratio (x) = 0.17577 0.55459
# Poissons Ratio (y) = 0.17577 0.55459
# Poissons Ratio (z) = 0.15344 0.15344
#
# Static dielectric constant tensor:
#      x y z
#    x 1.780900 0.000000 0.000000 
#    y 0.000000 1.780900 0.000000 
#    z 0.000000 0.000000 1.934860 
# 
# From -- ./inp_files/6664.got.cif
#   From: 2010.05.17/outbox.cif.g08.bks.cpg/sg140_4_cif.got.tgz:6664.got - 2010.06.21 00:45:31.
