data_PCOD9572119
_publ_section_title
;
Structure prediction by ZEFSAII (Michael W. Deem and Ramdas Pophale) SiO2 
 PCOD9572119
Probable space group: I 4/M C M
;
_chemical_formula_sum "Si O2"
_cell_formula_units_Z 160
_cell_length_a 24.019734
_cell_length_b 24.019734
_cell_length_c 15.615757
_cell_angle_alpha 90.000000
_cell_angle_beta 90.000000
_cell_angle_gamma 90.000000
_cell_volume 9009.473858
_symmetry_space_group_name_H-M "I 4/M C M"
_symmetry_group_IT_number 140
_symmetry_cell_setting 'tetragonal'
loop_
_space_group_symop_operation_xyz
x,y,z
-y,x,z
-x,-y,z
y,-x,z
x,-y,1/2-z
-x,y,1/2-z
y,x,1/2-z
-y,-x,1/2-z
-x,-y,-z
y,-x,-z
x,y,-z
-y,x,-z
-x,y,1/2+z
x,-y,1/2+z
-y,-x,1/2+z
y,x,1/2+z
1/2+x,1/2+y,1/2+z
1/2-y,1/2+x,1/2+z
1/2-x,1/2-y,1/2+z
1/2+y,1/2-x,1/2+z
1/2+x,1/2-y,-z
1/2-x,1/2+y,-z
1/2+y,1/2+x,-z
1/2-y,1/2-x,-z
1/2-x,1/2-y,1/2-z
1/2+y,1/2-x,1/2-z
1/2+x,1/2+y,1/2-z
1/2-y,1/2+x,1/2-z
1/2-x,1/2+y,z
1/2+x,1/2-y,z
1/2-y,1/2-x,z
1/2+y,1/2+x,z
loop_
_atom_site_type_symbol
_atom_site_label
_atom_site_fract_x
_atom_site_fract_y
_atom_site_fract_z
Si Si1 0.060211 0.739244 0.402281
Si Si2 0.864999 0.924657 0.904218
Si Si3 0.432783 0.843047 0.246419
Si Si4 0.856288 0.960704 0.665906
Si Si5 0.763248 0.574569 0.597252
O O1 0.081029 0.738738 0.500000
O O2 0.080597 0.690121 0.341029
O O3 0.068605 0.797739 0.354249
O O4 0.992842 0.735305 0.406265
O O5 0.912434 0.901337 0.842691
O O6 0.800926 0.910024 0.881431
O O7 0.867566 0.991556 0.904104
O O8 0.875541 0.903201 0.000000
O O9 0.500000 0.848133 0.250000
O O10 0.401541 0.901541 0.248079
O O11 0.411897 0.806011 0.327182
O O12 0.853104 0.000000 0.750000
O O13 0.775964 0.594392 0.500000
#
# Coordination Sequence:
#
# PCOD9572119 Si02
#       5
#    32  32  32  32  32
#     4   9  17  32  52  72  98 137 181 214 245 296
#     4  10  19  32  49  71 100 135 175 217 264 312
#     4  10  20  34  54  80 106 131 163 205 255 314
#     4  11  20  31  49  74 102 134 174 222 269 310
#     4   8  16  32  53  74  98 134 179 218 250 298
#
# _framework density 17.759084999999999
#
# number of rings (size 3 to 8) (size 9 to 14) (size 15 to 20)
#    0.000    2.400    0.000    6.600    0.000    1.400 
#    0.000    2.000    0.000    2.400    0.000    8.400 
#    0.000    0.000    0.000    0.000    0.000    0.000 
#
# Total GULP energy -445417.371169 kJ/mol
# GULP energy per Si atom -5567.717140 kJ/mol
# Density = 1.771866 g / cm^3
# Si number density = 17.759085 Si / 1000 Ang^3
#
#
#
# Elastic Constant Matrix: (Units=GPa)
#
#
# Indices 1 2 3 4 5 6 
#
# 1 62.3997 38.9276 39.8869 0.0000 0.0000 0.0000
# 2 38.9276 62.3997 39.8869 0.0000 0.0000 0.0000
# 3 39.8869 39.8869 131.1535 0.0000 0.0000 0.0000
# 4 0.0000 0.0000 0.0000 13.7933 0.0000 0.0000
# 5 0.0000 0.0000 0.0000 0.0000 13.7933 0.0000
# 6 0.0000 0.0000 0.0000 0.0000 0.0000 -6.7455
#
#
#
# Elastic Compliance Matrix: (Units=1/GPa)
#
#
# Indices 1 2 3 4 5 6 
#
# 1 0.027790 -0.014814 -0.003946 0.000000 0.000000 0.000000
# 2 -0.014814 0.027790 -0.003946 0.000000 0.000000 0.000000
# 3 -0.003946 -0.003946 0.010025 0.000000 0.000000 0.000000
# 4 0.000000 0.000000 0.000000 0.072499 0.000000 0.000000
# 5 0.000000 0.000000 0.000000 0.000000 0.072499 0.000000
# 6 0.000000 0.000000 0.000000 0.000000 0.000000 -0.148246
#
#
# Mechanical properties :
#
#
# Convention : Reuss Voigt Hill
#
# Bulk Modulus (GPa) = 49.52553 54.81731 52.17142
# Shear Modulus (GPa) = 43.66806 13.31830 28.49318
#
# Velocity S-wave (km/s) = 4.96412 2.74148 4.00988
# Velocity P-wave (km/s) = 7.79773 6.39962 7.13302
#
# Compressibility (1/GPa) = 0.02019161
#
# Stress axis : x y z
#
# Youngs Moduli (GPa) = 35.98451 35.98451 99.75098
#
# Poissons Ratio (x) = 0.53307 0.39364
# Poissons Ratio (y) = 0.53307 0.39364
# Poissons Ratio (z) = 0.14200 0.14200
#
# Static dielectric constant tensor:
#      x y z
#    x 1.599160 0.000000 0.000000 
#    y 0.000000 1.599160 0.000000 
#    z 0.000000 0.000000 1.719010 
# 
# From -- ./inp_files/4732.got.cif
#   From: 2010.05.17/outbox.cif.g08.bks.cpg/sg140_3_cif.got.tgz:4732.got - 2010.06.21 00:45:31.
