data_PCOD9572510
_publ_section_title
;
Structure prediction by ZEFSAII (Michael W. Deem and Ramdas Pophale) SiO2 
 PCOD9572510
Probable space group: I 4/M C M
;
_chemical_formula_sum "Si O2"
_cell_formula_units_Z 224
_cell_length_a 23.105941
_cell_length_b 23.105941
_cell_length_c 23.995040
_cell_angle_alpha 90.000000
_cell_angle_beta 90.000000
_cell_angle_gamma 90.000000
_cell_volume 12810.580161
_symmetry_space_group_name_H-M "I 4/M C M"
_symmetry_group_IT_number 140
_symmetry_cell_setting 'tetragonal'
loop_
_space_group_symop_operation_xyz
x,y,z
-y,x,z
-x,-y,z
y,-x,z
x,-y,1/2-z
-x,y,1/2-z
y,x,1/2-z
-y,-x,1/2-z
-x,-y,-z
y,-x,-z
x,y,-z
-y,x,-z
-x,y,1/2+z
x,-y,1/2+z
-y,-x,1/2+z
y,x,1/2+z
1/2+x,1/2+y,1/2+z
1/2-y,1/2+x,1/2+z
1/2-x,1/2-y,1/2+z
1/2+y,1/2-x,1/2+z
1/2+x,1/2-y,-z
1/2-x,1/2+y,-z
1/2+y,1/2+x,-z
1/2-y,1/2-x,-z
1/2-x,1/2-y,1/2-z
1/2+y,1/2-x,1/2-z
1/2+x,1/2+y,1/2-z
1/2-y,1/2+x,1/2-z
1/2-x,1/2+y,z
1/2+x,1/2-y,z
1/2-y,1/2-x,z
1/2+y,1/2+x,z
loop_
_atom_site_type_symbol
_atom_site_label
_atom_site_fract_x
_atom_site_fract_y
_atom_site_fract_z
Si Si1 0.844107 0.920055 0.565296
Si Si2 0.453101 0.953101 0.114031
Si Si3 0.947130 0.260799 0.157711
Si Si4 0.331638 0.445490 0.435271
Si Si5 0.969839 0.377333 0.194832
Si Si6 0.846701 0.251122 0.244679
Si Si7 0.735224 0.913892 0.358613
Si Si8 0.129295 0.370706 0.064395
O O1 0.828384 0.911547 0.500000
O O2 0.900885 0.882820 0.576874
O O3 0.792878 0.901701 0.605963
O O4 0.852514 0.988676 0.573393
O O5 0.485113 0.907504 0.154028
O O6 0.419872 0.919872 0.066192
O O7 0.500000 0.000000 0.095208
O O8 0.934202 0.223491 0.103324
O O9 0.936341 0.329231 0.160057
O O10 0.902448 0.239137 0.205233
O O11 0.018229 0.260534 0.160583
O O12 0.315596 0.439603 0.500000
O O13 0.926575 0.426575 0.215809
O O14 0.000000 0.352067 0.250000
O O15 0.804691 0.195310 0.250000
O O16 0.804549 0.304549 0.226325
O O17 0.873869 0.267441 0.304408
O O18 0.682614 0.897718 0.400212
O O19 0.143788 0.356213 0.000000
#
# Coordination Sequence:
#
# PCOD9572510 Si02
#       8
#    32  16  32  32  32  32  32  16
#     4   9  18  34  58  84 113 147 185 234 288 346
#     4  10  22  37  54  83 112 149 187 235 294 339
#     4  11  22  34  56  83 112 150 185 235 289 341
#     4   9  19  36  57  83 112 145 186 233 286 347
#     4  11  20  33  55  81 112 144 187 237 289 340
#     4  11  23  38  57  82 114 150 187 240 289 340
#     4  11  21  38  57  85 116 147 196 235 289 342
#     4  12  24  39  59  83 116 155 202 247 284 336
#
# _framework density 17.485547
#
# number of rings (size 3 to 8) (size 9 to 14) (size 15 to 20)
#    0.000    1.571    2.857    3.000    0.000    1.000 
#    0.000    1.429    0.000    1.714    0.000    0.000 
#    0.000   12.571    0.000    0.000    0.000    0.000 
#
# Total GULP energy -624003.113862 kJ/mol
# GULP energy per Si atom -5571.456374 kJ/mol
# Density = 1.744575 g / cm^3
# Si number density = 17.485547 Si / 1000 Ang^3
#
#
#
# Elastic Constant Matrix: (Units=GPa)
#
#
# Indices 1 2 3 4 5 6 
#
# 1 80.6038 47.4959 59.1470 0.0000 0.0000 0.0000
# 2 47.4959 80.6042 59.1475 0.0000 0.0000 0.0000
# 3 59.1470 59.1475 91.6812 0.0000 0.0000 0.0000
# 4 0.0000 0.0000 0.0000 19.4910 0.0000 0.0000
# 5 0.0000 0.0000 0.0000 0.0000 19.4902 0.0000
# 6 0.0000 0.0000 0.0000 0.0000 0.0000 -11.6702
#
#
#
# Elastic Compliance Matrix: (Units=1/GPa)
#
#
# Indices 1 2 3 4 5 6 
#
# 1 0.024758 -0.005446 -0.012458 0.000000 0.000000 0.000000
# 2 -0.005446 0.024758 -0.012459 0.000000 0.000000 0.000000
# 3 -0.012458 -0.012459 0.026982 0.000000 0.000000 0.000000
# 4 0.000000 0.000000 0.000000 0.051306 0.000000 0.000000
# 5 0.000000 0.000000 0.000000 0.000000 0.051308 0.000000
# 6 0.000000 0.000000 0.000000 0.000000 0.000000 -0.085689
#
#
# Mechanical properties :
#
#
# Convention : Reuss Voigt Hill
#
# Bulk Modulus (GPa) = 63.40789 64.94110 64.17450
# Shear Modulus (GPa) = 31.36640 11.26880 21.31760
#
# Velocity S-wave (km/s) = 4.23998 2.54138 3.49543
# Velocity P-wave (km/s) = 7.76606 6.76993 7.28504
#
# Compressibility (1/GPa) = 0.01577091
#
# Stress axis : x y z
#
# Youngs Moduli (GPa) = 40.39157 40.39141 37.06132
#
# Poissons Ratio (x) = 0.21999 0.46172
# Poissons Ratio (y) = 0.21999 0.46173
# Poissons Ratio (z) = 0.50321 0.50322
#
# Static dielectric constant tensor:
#      x y z
#    x 1.608750 0.000000 0.000000 
#    y 0.000000 1.608750 0.000000 
#    z 0.000000 0.000000 1.586490 
# 
# From -- ./inp_files/10016.got.cif
#   From: 2010.05.17/outbox.cif.g08.bks.cpg/sg140_6_cif.got.tgz:10016.got - 2010.06.21 00:45:31.
