data_PCOD9572105
_publ_section_title
;
Structure prediction by ZEFSAII (Michael W. Deem and Ramdas Pophale) SiO2 
 PCOD9572105
Probable space group: I 4/M C M
;
_chemical_formula_sum "Si O2"
_cell_formula_units_Z 192
_cell_length_a 21.740049
_cell_length_b 21.740049
_cell_length_c 22.879667
_cell_angle_alpha 90.000000
_cell_angle_beta 90.000000
_cell_angle_gamma 90.000000
_cell_volume 10813.610849
_symmetry_space_group_name_H-M "I 4/M C M"
_symmetry_group_IT_number 140
_symmetry_cell_setting 'tetragonal'
loop_
_space_group_symop_operation_xyz
x,y,z
-y,x,z
-x,-y,z
y,-x,z
x,-y,1/2-z
-x,y,1/2-z
y,x,1/2-z
-y,-x,1/2-z
-x,-y,-z
y,-x,-z
x,y,-z
-y,x,-z
-x,y,1/2+z
x,-y,1/2+z
-y,-x,1/2+z
y,x,1/2+z
1/2+x,1/2+y,1/2+z
1/2-y,1/2+x,1/2+z
1/2-x,1/2-y,1/2+z
1/2+y,1/2-x,1/2+z
1/2+x,1/2-y,-z
1/2-x,1/2+y,-z
1/2+y,1/2+x,-z
1/2-y,1/2-x,-z
1/2-x,1/2-y,1/2-z
1/2+y,1/2-x,1/2-z
1/2+x,1/2+y,1/2-z
1/2-y,1/2+x,1/2-z
1/2-x,1/2+y,z
1/2+x,1/2-y,z
1/2-y,1/2-x,z
1/2+y,1/2+x,z
loop_
_atom_site_type_symbol
_atom_site_label
_atom_site_fract_x
_atom_site_fract_y
_atom_site_fract_z
Si Si1 0.188910 0.407533 0.620301
Si Si2 0.050825 0.180107 0.570219
Si Si3 0.927796 0.327811 0.746220
Si Si4 0.841130 0.909795 0.429525
Si Si5 0.281511 0.881507 0.128217
Si Si6 0.525112 0.875907 0.430300
O O1 0.155892 0.344109 0.601339
O O2 0.254796 0.424297 0.593614
O O3 0.195036 0.406886 0.690360
O O4 0.141729 0.462520 0.602437
O O5 0.050378 0.184764 0.500000
O O6 0.095910 0.124252 0.586361
O O7 0.981018 0.165689 0.588595
O O8 0.890247 0.390247 0.733201
O O9 0.911452 0.282997 0.692681
O O10 0.000000 0.338790 0.750000
O O11 0.835020 0.907208 0.500000
O O12 0.784914 0.875251 0.399133
O O13 0.317733 0.817733 0.131376
O O14 0.322057 0.927142 0.087514
O O15 0.514658 0.875587 0.500000
O O16 0.560225 0.939776 0.415100
#
# Coordination Sequence:
#
# PCOD9572105 Si02
#       6
#    32  32  32  32  32  32
#     4  11  22  35  53  78 112 147 184 227 271 320
#     4  10  21  37  57  82 109 140 177 219 274 329
#     4  10  19  32  51  74 103 144 188 231 272 310
#     4  10  20  36  59  83 110 140 174 221 273 329
#     4  10  19  33  54  79 106 140 184 224 260 314
#     4  10  19  31  50  75 106 145 183 219 263 314
#
# _framework density 17.755400999999999
#
# number of rings (size 3 to 8) (size 9 to 14) (size 15 to 20)
#    0.000    1.833    3.333    1.000    0.000    3.833 
#    0.000    6.667    0.000    3.000    0.000    0.000 
#    0.000    4.000    0.000    0.000    0.000    0.000 
#
# Total GULP energy -535577.654891 kJ/mol
# GULP energy per Si atom -5578.933905 kJ/mol
# Density = 1.771499 g / cm^3
# Si number density = 17.755401 Si / 1000 Ang^3
#
#
#
# Elastic Constant Matrix: (Units=GPa)
#
#
# Indices 1 2 3 4 5 6 
#
# 1 67.3133 65.3737 22.7568 0.0000 0.0000 0.0000
# 2 65.3737 67.3133 22.7568 0.0000 0.0000 0.0000
# 3 22.7568 22.7568 44.7806 0.0000 0.0000 0.0000
# 4 0.0000 0.0000 0.0000 15.7978 0.0000 0.0000
# 5 0.0000 0.0000 0.0000 0.0000 15.7978 0.0000
# 6 0.0000 0.0000 0.0000 0.0000 0.0000 21.2936
#
#
#
# Elastic Compliance Matrix: (Units=1/GPa)
#
#
# Indices 1 2 3 4 5 6 
#
# 1 0.262341 -0.253214 -0.004638 0.000000 0.000000 0.000000
# 2 -0.253214 0.262341 -0.004639 0.000000 0.000000 0.000000
# 3 -0.004638 -0.004639 0.027046 0.000000 0.000000 0.000000
# 4 0.000000 0.000000 0.000000 0.063300 0.000000 0.000000
# 5 0.000000 0.000000 0.000000 0.000000 0.063300 0.000000
# 6 0.000000 0.000000 0.000000 0.000000 0.000000 0.046962
#
#
# Mechanical properties :
#
#
# Convention : Reuss Voigt Hill
#
# Bulk Modulus (GPa) = 37.38775 44.57574 40.98175
# Shear Modulus (GPa) = 3.97082 15.14586 9.55834
#
# Velocity S-wave (km/s) = 1.49708 2.92383 2.32272
# Velocity P-wave (km/s) = 4.90828 6.04635 5.50679
#
# Compressibility (1/GPa) = 0.02674673
#
# Stress axis : x y z
#
# Youngs Moduli (GPa) = 3.81183 3.81183 36.97469
#
# Poissons Ratio (x) = 0.96521 0.17151
# Poissons Ratio (y) = 0.96521 0.17151
# Poissons Ratio (z) = 0.01768 0.01768
#
# Static dielectric constant tensor:
#      x y z
#    x 1.607580 0.000000 0.000000 
#    y 0.000000 1.607580 0.000000 
#    z 0.000000 0.000000 1.603970 
# 
# From -- ./inp_files/9761.got.cif
#   From: 2010.05.17/outbox.cif.g08.bks.cpg/sg140_5_cif.got.tgz:9761.got - 2010.06.21 00:45:31.
