data_PCOD9572023
_publ_section_title
;
Structure prediction by ZEFSAII (Michael W. Deem and Ramdas Pophale) SiO2 
 PCOD9572023
Probable space group: I 4/M C M
;
_chemical_formula_sum "Si O2"
_cell_formula_units_Z 160
_cell_length_a 23.364350
_cell_length_b 23.364350
_cell_length_c 14.641997
_cell_angle_alpha 90.000000
_cell_angle_beta 90.000000
_cell_angle_gamma 90.000000
_cell_volume 7992.961486
_symmetry_space_group_name_H-M "I 4/M C M"
_symmetry_group_IT_number 140
_symmetry_cell_setting 'tetragonal'
loop_
_space_group_symop_operation_xyz
x,y,z
-y,x,z
-x,-y,z
y,-x,z
x,-y,1/2-z
-x,y,1/2-z
y,x,1/2-z
-y,-x,1/2-z
-x,-y,-z
y,-x,-z
x,y,-z
-y,x,-z
-x,y,1/2+z
x,-y,1/2+z
-y,-x,1/2+z
y,x,1/2+z
1/2+x,1/2+y,1/2+z
1/2-y,1/2+x,1/2+z
1/2-x,1/2-y,1/2+z
1/2+y,1/2-x,1/2+z
1/2+x,1/2-y,-z
1/2-x,1/2+y,-z
1/2+y,1/2+x,-z
1/2-y,1/2-x,-z
1/2-x,1/2-y,1/2-z
1/2+y,1/2-x,1/2-z
1/2+x,1/2+y,1/2-z
1/2-y,1/2+x,1/2-z
1/2-x,1/2+y,z
1/2+x,1/2-y,z
1/2-y,1/2-x,z
1/2+y,1/2+x,z
loop_
_atom_site_type_symbol
_atom_site_label
_atom_site_fract_x
_atom_site_fract_y
_atom_site_fract_z
Si Si1 0.841471 0.007847 0.603510
Si Si2 0.117212 0.129327 0.888020
Si Si3 0.153432 0.745849 0.388984
Si Si4 0.974764 0.283647 0.648435
Si Si5 0.498942 0.908183 0.361398
O O1 0.863833 0.010079 0.500000
O O2 0.855791 0.069710 0.643822
O O3 0.866294 0.948909 0.643300
O O4 0.773624 0.997365 0.601519
O O5 0.150666 0.187290 0.861196
O O6 0.117244 0.130633 0.000000
O O7 0.150793 0.744071 0.500000
O O8 0.208174 0.708174 0.360640
O O9 0.094152 0.718450 0.353457
O O10 0.995184 0.343515 0.607277
O O11 0.000000 0.280476 0.750000
O O12 0.500000 0.907124 0.250000
O O13 0.552368 0.947633 0.389573
O O14 0.441722 0.941722 0.388473
#
# Coordination Sequence:
#
# PCOD9572023 Si02
#       5
#    32  32  32  32  32
#     4   9  17  31  48  66  90 118 152 192 235 283
#     4   8  15  28  48  71  91 116 152 195 238 277
#     4   9  17  31  51  71  91 120 160 197 226 266
#     4  10  18  28  45  69  95 123 152 188 232 275
#     4   8  14  25  41  61  85 113 146 182 217 258
#
# _framework density 20.017612
#
# number of rings (size 3 to 8) (size 9 to 14) (size 15 to 20)
#    0.000    3.200    0.000    3.000    0.000    1.200 
#    0.000    7.000    0.000    4.800    0.000   12.600 
#    0.000    0.000    0.000    0.000    0.000    0.000 
#
# Total GULP energy -445872.265109 kJ/mol
# GULP energy per Si atom -5573.403314 kJ/mol
# Density = 1.997205 g / cm^3
# Si number density = 20.017612 Si / 1000 Ang^3
#
#
#
# Elastic Constant Matrix: (Units=GPa)
#
#
# Indices 1 2 3 4 5 6 
#
# 1 129.2117 107.8351 -1.6798 0.0000 0.0000 0.0000
# 2 107.8351 129.2117 -1.6798 0.0000 0.0000 0.0000
# 3 -1.6798 -1.6798 61.0798 0.0000 0.0000 0.0000
# 4 0.0000 0.0000 0.0000 9.3453 0.0000 0.0000
# 5 0.0000 0.0000 0.0000 0.0000 9.3453 0.0000
# 6 0.0000 0.0000 0.0000 0.0000 0.0000 24.7960
#
#
#
# Elastic Compliance Matrix: (Units=1/GPa)
#
#
# Indices 1 2 3 4 5 6 
#
# 1 0.025500 -0.021280 0.000116 0.000000 0.000000 0.000000
# 2 -0.021280 0.025500 0.000116 0.000000 0.000000 0.000000
# 3 0.000116 0.000116 0.016378 0.000000 0.000000 0.000000
# 4 0.000000 0.000000 0.000000 0.107006 0.000000 0.000000
# 5 0.000000 0.000000 0.000000 0.000000 0.107006 0.000000
# 6 0.000000 0.000000 0.000000 0.000000 0.000000 0.040329
#
#
# Mechanical properties :
#
#
# Convention : Reuss Voigt Hill
#
# Bulk Modulus (GPa) = 39.55211 58.71713 49.13462
# Shear Modulus (GPa) = 13.43208 23.03249 18.23228
#
# Velocity S-wave (km/s) = 2.59320 3.39575 3.02124
# Velocity P-wave (km/s) = 5.36356 6.69113 6.06379
#
# Compressibility (1/GPa) = 0.02528310
#
# Stress axis : x y z
#
# Youngs Moduli (GPa) = 39.21529 39.21529 61.05603
#
# Poissons Ratio (x) = 0.83450 -0.00709
# Poissons Ratio (y) = 0.83450 -0.00709
# Poissons Ratio (z) = -0.00455 -0.00455
#
# Static dielectric constant tensor:
#      x y z
#    x 1.695290 0.000000 0.000000 
#    y 0.000000 1.695290 0.000000 
#    z 0.000000 0.000000 1.781810 
# 
# From -- ./inp_files/4745.got.cif
#   From: 2010.05.17/outbox.cif.g08.bks.cpg/sg140_3_cif.got.tgz:4745.got - 2010.06.21 00:45:31.
