data_PCOD9572326
_publ_section_title
;
Structure prediction by ZEFSAII (Michael W. Deem and Ramdas Pophale) SiO2 
 PCOD9572326
Probable space group: I 4/M C M
;
_chemical_formula_sum "Si O2"
_cell_formula_units_Z 176
_cell_length_a 27.080649
_cell_length_b 27.080649
_cell_length_c 13.839342
_cell_angle_alpha 90.000000
_cell_angle_beta 90.000000
_cell_angle_gamma 90.000000
_cell_volume 10149.241304
_symmetry_space_group_name_H-M "I 4/M C M"
_symmetry_group_IT_number 140
_symmetry_cell_setting 'tetragonal'
loop_
_space_group_symop_operation_xyz
x,y,z
-y,x,z
-x,-y,z
y,-x,z
x,-y,1/2-z
-x,y,1/2-z
y,x,1/2-z
-y,-x,1/2-z
-x,-y,-z
y,-x,-z
x,y,-z
-y,x,-z
-x,y,1/2+z
x,-y,1/2+z
-y,-x,1/2+z
y,x,1/2+z
1/2+x,1/2+y,1/2+z
1/2-y,1/2+x,1/2+z
1/2-x,1/2-y,1/2+z
1/2+y,1/2-x,1/2+z
1/2+x,1/2-y,-z
1/2-x,1/2+y,-z
1/2+y,1/2+x,-z
1/2-y,1/2-x,-z
1/2-x,1/2-y,1/2-z
1/2+y,1/2-x,1/2-z
1/2+x,1/2+y,1/2-z
1/2-y,1/2+x,1/2-z
1/2-x,1/2+y,z
1/2+x,1/2-y,z
1/2-y,1/2-x,z
1/2+y,1/2+x,z
loop_
_atom_site_type_symbol
_atom_site_label
_atom_site_fract_x
_atom_site_fract_y
_atom_site_fract_z
Si Si1 0.246523 0.409408 0.112428
Si Si2 0.000000 0.767446 0.250000
Si Si3 0.527301 0.425705 0.883230
Si Si4 0.700050 0.583078 0.606072
Si Si5 0.140704 0.890980 0.148806
Si Si6 0.331026 0.247465 0.773980
O O1 0.240905 0.460463 0.175332
O O2 0.305074 0.396361 0.108622
O O3 0.230058 0.363299 0.180386
O O4 0.229192 0.412154 0.000000
O O5 0.962387 0.796097 0.320543
O O6 0.560789 0.472425 0.854824
O O7 0.553686 0.378624 0.842196
O O8 0.527639 0.421875 0.000000
O O9 0.718405 0.568675 0.500000
O O10 0.644135 0.602490 0.594675
O O11 0.731565 0.628781 0.650081
O O12 0.136631 0.863370 0.250000
O O13 0.290591 0.290591 0.750000
O O14 0.298415 0.201586 0.810088
#
# Coordination Sequence:
#
# PCOD9572326 Si02
#       6
#    32  16  32  32  32  32
#     4  11  21  36  53  73  99 130 167 208 260 316
#     4  10  22  36  50  74  95 126 164 213 256 302
#     4   9  20  34  44  58  79 110 157 208 260 316
#     4  11  21  36  53  73  99 130 167 208 260 316
#     4  12  21  33  45  64  92 122 160 210 259 316
#     4  10  20  36  54  77 105 129 164 213 262 316
#
# _framework density 17.341197999999999
#
# number of rings (size 3 to 8) (size 9 to 14) (size 15 to 20)
#    0.000    1.455    5.455    2.727    2.545    1.455 
#    0.000    2.727    0.000    0.000    0.000    0.000 
#    0.000    0.000    0.000    0.000    0.000  116.364 
#
# Total GULP energy -490137.326623 kJ/mol
# GULP energy per Si atom -5569.742348 kJ/mol
# Density = 1.730173 g / cm^3
# Si number density = 17.341198 Si / 1000 Ang^3
#
#
#
# Elastic Constant Matrix: (Units=GPa)
#
#
# Indices 1 2 3 4 5 6 
#
# 1 55.8162 33.6331 16.3672 0.0000 0.0000 0.0000
# 2 33.6331 55.8163 16.3674 0.0000 0.0000 0.0000
# 3 16.3672 16.3674 120.4408 0.0000 0.0000 0.0000
# 4 0.0000 0.0000 0.0000 37.1125 0.0000 0.0000
# 5 0.0000 0.0000 0.0000 0.0000 37.1147 0.0000
# 6 0.0000 0.0000 0.0000 0.0000 0.0000 26.6285
#
#
#
# Elastic Compliance Matrix: (Units=1/GPa)
#
#
# Indices 1 2 3 4 5 6 
#
# 1 0.028422 -0.016657 -0.001599 0.000000 0.000000 0.000000
# 2 -0.016657 0.028422 -0.001599 0.000000 0.000000 0.000000
# 3 -0.001599 -0.001599 0.008737 0.000000 0.000000 0.000000
# 4 0.000000 0.000000 0.000000 0.026945 0.000000 0.000000
# 5 0.000000 0.000000 0.000000 0.000000 0.026944 0.000000
# 6 0.000000 0.000000 0.000000 0.000000 0.000000 0.037554
#
#
# Mechanical properties :
#
#
# Convention : Reuss Voigt Hill
#
# Bulk Modulus (GPa) = 38.65252 40.53429 39.59340
# Shear Modulus (GPa) = 24.34783 31.21818 27.78300
#
# Velocity S-wave (km/s) = 3.75112 4.24752 4.00701
# Velocity P-wave (km/s) = 6.41085 6.89061 6.65506
#
# Compressibility (1/GPa) = 0.02587154
#
# Stress axis : x y z
#
# Youngs Moduli (GPa) = 35.18407 35.18413 114.45105
#
# Poissons Ratio (x) = 0.58607 0.18298
# Poissons Ratio (y) = 0.58607 0.18298
# Poissons Ratio (z) = 0.05625 0.05625
#
# Static dielectric constant tensor:
#      x y z
#    x 1.593980 0.000000 0.000000 
#    y 0.000000 1.593970 0.000000 
#    z 0.000000 0.000000 1.961960 
# 
# From -- ./inp_files/5134.got.cif
#   From: 2010.05.17/outbox.cif.g08.bks.cpg/sg140_3_cif.got.tgz:5134.got - 2010.06.21 00:45:31.
