data_PCOD9572086
_publ_section_title
;
Structure prediction by ZEFSAII (Michael W. Deem and Ramdas Pophale) SiO2 
 PCOD9572086
Probable space group: I 4/M C M
;
_chemical_formula_sum "Si O2"
_cell_formula_units_Z 160
_cell_length_a 17.454261
_cell_length_b 17.454261
_cell_length_c 31.100702
_cell_angle_alpha 90.000000
_cell_angle_beta 90.000000
_cell_angle_gamma 90.000000
_cell_volume 9474.867027
_symmetry_space_group_name_H-M "I 4/M C M"
_symmetry_group_IT_number 140
_symmetry_cell_setting 'tetragonal'
loop_
_space_group_symop_operation_xyz
x,y,z
-y,x,z
-x,-y,z
y,-x,z
x,-y,1/2-z
-x,y,1/2-z
y,x,1/2-z
-y,-x,1/2-z
-x,-y,-z
y,-x,-z
x,y,-z
-y,x,-z
-x,y,1/2+z
x,-y,1/2+z
-y,-x,1/2+z
y,x,1/2+z
1/2+x,1/2+y,1/2+z
1/2-y,1/2+x,1/2+z
1/2-x,1/2-y,1/2+z
1/2+y,1/2-x,1/2+z
1/2+x,1/2-y,-z
1/2-x,1/2+y,-z
1/2+y,1/2+x,-z
1/2-y,1/2-x,-z
1/2-x,1/2-y,1/2-z
1/2+y,1/2-x,1/2-z
1/2+x,1/2+y,1/2-z
1/2-y,1/2+x,1/2-z
1/2-x,1/2+y,z
1/2+x,1/2-y,z
1/2-y,1/2-x,z
1/2+y,1/2+x,z
loop_
_atom_site_type_symbol
_atom_site_label
_atom_site_fract_x
_atom_site_fract_y
_atom_site_fract_z
Si Si1 0.880636 0.500000 0.750000
Si Si2 0.558456 0.387971 0.448466
Si Si3 0.950166 0.246362 0.809259
Si Si4 0.342938 0.342938 0.750000
Si Si5 0.846323 0.224696 0.108909
Si Si6 0.374355 0.756302 0.830835
O O1 0.937320 0.437320 0.729466
O O2 0.823785 0.544910 0.718462
O O3 0.599911 0.468794 0.437367
O O4 0.563167 0.378981 0.500000
O O5 0.598431 0.318049 0.424265
O O6 0.919420 0.177768 0.777951
O O7 0.894550 0.252345 0.849762
O O8 0.036263 0.238803 0.826703
O O9 0.278875 0.340461 0.786702
O O10 0.794361 0.294361 0.091774
O O11 0.788907 0.161916 0.129324
O O12 0.342841 0.842841 0.834049
#
# Coordination Sequence:
#
# PCOD9572086 Si02
#       6
#    16  32  32  16  32  32
#     4  11  22  34  50  72  97 134 184 228 263 302
#     4   9  18  35  59  83 107 136 168 205 256 315
#     4  11  20  33  50  69 101 137 176 219 262 303
#     4  10  19  30  46  71  92 125 174 218 263 302
#     4  10  21  33  50  78 106 136 171 212 261 312
#     4  10  19  31  49  70  97 134 176 215 259 307
#
# _framework density 16.886780999999999
#
# number of rings (size 3 to 8) (size 9 to 14) (size 15 to 20)
#    0.000    1.900    2.000    3.300    0.000    2.000 
#    0.000    0.000    0.000   20.400    0.000    0.000 
#    0.000    0.000    0.000   25.400    0.000    0.000 
#
# Total GULP energy -445421.485201 kJ/mol
# GULP energy per Si atom -5567.768565 kJ/mol
# Density = 1.684835 g / cm^3
# Si number density = 16.886781 Si / 1000 Ang^3
#
#
#
# Elastic Constant Matrix: (Units=GPa)
#
#
# Indices 1 2 3 4 5 6 
#
# 1 80.8034 68.3174 27.7583 0.0000 0.0000 0.0000
# 2 68.3174 80.8034 27.7583 0.0000 0.0000 0.0000
# 3 27.7583 27.7583 47.8013 0.0000 0.0000 0.0000
# 4 0.0000 0.0000 0.0000 16.3488 0.0000 0.0000
# 5 0.0000 0.0000 0.0000 0.0000 16.3488 0.0000
# 6 0.0000 0.0000 0.0000 0.0000 0.0000 34.2240
#
#
#
# Elastic Compliance Matrix: (Units=1/GPa)
#
#
# Indices 1 2 3 4 5 6 
#
# 1 0.044323 -0.035767 -0.004968 0.000000 0.000000 0.000000
# 2 -0.035767 0.044323 -0.004968 0.000000 0.000000 0.000000
# 3 -0.004968 -0.004968 0.026690 0.000000 0.000000 0.000000
# 4 0.000000 0.000000 0.000000 0.061167 0.000000 0.000000
# 5 0.000000 0.000000 0.000000 0.000000 0.061167 0.000000
# 6 0.000000 0.000000 0.000000 0.000000 0.000000 0.029219
#
#
# Mechanical properties :
#
#
# Convention : Reuss Voigt Hill
#
# Bulk Modulus (GPa) = 41.79153 50.78621 46.28887
# Shear Modulus (GPa) = 13.65110 19.08926 16.37018
#
# Velocity S-wave (km/s) = 2.84630 3.36583 3.11691
# Velocity P-wave (km/s) = 5.96689 6.72643 6.35801
#
# Compressibility (1/GPa) = 0.02392829
#
# Stress axis : x y z
#
# Youngs Moduli (GPa) = 22.56186 22.56186 37.46711
#
# Poissons Ratio (x) = 0.80697 0.18615
# Poissons Ratio (y) = 0.80697 0.18615
# Poissons Ratio (z) = 0.11209 0.11209
#
# Static dielectric constant tensor:
#      x y z
#    x 1.601130 0.000000 0.000000 
#    y 0.000000 1.601130 0.000000 
#    z 0.000000 0.000000 1.552740 
# 
# From -- ./inp_files/11464.got.cif
#   From: 2010.05.17/outbox.cif.g08.bks.cpg/sg140_6_cif.got.tgz:11464.got - 2010.06.21 00:45:31.
