data_PCOD9572318
_publ_section_title
;
Structure prediction by ZEFSAII (Michael W. Deem and Ramdas Pophale) SiO2 
 PCOD9572318
Probable space group: I 4/M C M
;
_chemical_formula_sum "Si O2"
_cell_formula_units_Z 160
_cell_length_a 30.674945
_cell_length_b 30.674945
_cell_length_c 9.101321
_cell_angle_alpha 90.000000
_cell_angle_beta 90.000000
_cell_angle_gamma 90.000000
_cell_volume 8563.908480
_symmetry_space_group_name_H-M "I 4/M C M"
_symmetry_group_IT_number 140
_symmetry_cell_setting 'tetragonal'
loop_
_space_group_symop_operation_xyz
x,y,z
-y,x,z
-x,-y,z
y,-x,z
x,-y,1/2-z
-x,y,1/2-z
y,x,1/2-z
-y,-x,1/2-z
-x,-y,-z
y,-x,-z
x,y,-z
-y,x,-z
-x,y,1/2+z
x,-y,1/2+z
-y,-x,1/2+z
y,x,1/2+z
1/2+x,1/2+y,1/2+z
1/2-y,1/2+x,1/2+z
1/2-x,1/2-y,1/2+z
1/2+y,1/2-x,1/2+z
1/2+x,1/2-y,-z
1/2-x,1/2+y,-z
1/2+y,1/2+x,-z
1/2-y,1/2-x,-z
1/2-x,1/2-y,1/2-z
1/2+y,1/2-x,1/2-z
1/2+x,1/2+y,1/2-z
1/2-y,1/2+x,1/2-z
1/2-x,1/2+y,z
1/2+x,1/2-y,z
1/2-y,1/2-x,z
1/2+y,1/2+x,z
loop_
_atom_site_type_symbol
_atom_site_label
_atom_site_fract_x
_atom_site_fract_y
_atom_site_fract_z
Si Si1 0.407108 0.653809 0.827366
Si Si2 0.070883 0.982519 0.500000
Si Si3 0.842486 0.778529 0.677933
Si Si4 0.000000 0.135578 0.250000
Si Si5 0.689015 0.115248 0.332009
Si Si6 0.452540 0.120380 0.821414
O O1 0.390556 0.609444 0.750000
O O2 0.380502 0.689683 0.736391
O O3 0.458893 0.660872 0.814815
O O4 0.395197 0.653562 0.000000
O O5 0.030977 0.949636 0.500000
O O6 0.102796 0.979169 0.365458
O O7 0.798427 0.798427 0.750000
O O8 0.838139 0.779360 0.500000
O O9 0.859324 0.730986 0.728711
O O10 0.701494 0.103848 0.500000
O O11 0.650557 0.150557 0.337324
O O12 0.664834 0.072424 0.269725
O O13 0.500000 0.116186 0.750000
O O14 0.420630 0.079371 0.786505
O O15 0.455650 0.122081 0.000000
#
# Coordination Sequence:
#
# PCOD9572318 Si02
#       6
#    32  16  32  16  32  32
#     4  11  23  38  56  74 101 135 171 217 268 327
#     4  11  22  36  52  74  98 122 162 216 270 322
#     4  10  20  35  58  82 109 142 181 226 275 328
#     4  12  24  35  54  74  94 132 170 212 265 324
#     4   8  16  34  58  83 113 150 186 221 272 330
#     4   9  18  34  56  82 114 154 194 233 275 325
#
# _framework density 18.683057999999999
#
# number of rings (size 3 to 8) (size 9 to 14) (size 15 to 20)
#    0.000    2.100    1.000    5.400    2.800    1.800 
#    1.800    3.000    0.000    4.200    0.000    0.000 
#    0.000    0.000    0.000    0.000    0.000    0.000 
#
# Total GULP energy -445346.977377 kJ/mol
# GULP energy per Si atom -5566.837217 kJ/mol
# Density = 1.864053 g / cm^3
# Si number density = 18.683058 Si / 1000 Ang^3
#
#
#
# Elastic Constant Matrix: (Units=GPa)
#
#
# Indices 1 2 3 4 5 6 
#
# 1 107.3071 38.0290 18.6597 0.0000 0.0000 0.0000
# 2 38.0290 107.3071 18.6597 0.0000 0.0000 0.0000
# 3 18.6597 18.6597 69.1516 0.0000 0.0000 0.0000
# 4 0.0000 0.0000 0.0000 21.7388 0.0000 0.0000
# 5 0.0000 0.0000 0.0000 0.0000 21.7388 0.0000
# 6 0.0000 0.0000 0.0000 0.0000 0.0000 0.2687
#
#
#
# Elastic Compliance Matrix: (Units=1/GPa)
#
#
# Indices 1 2 3 4 5 6 
#
# 1 0.010914 -0.003521 -0.001995 0.000000 0.000000 0.000000
# 2 -0.003521 0.010914 -0.001995 0.000000 0.000000 0.000000
# 3 -0.001995 -0.001995 0.015538 0.000000 0.000000 0.000000
# 4 0.000000 0.000000 0.000000 0.046001 0.000000 0.000000
# 5 0.000000 0.000000 0.000000 0.000000 0.046001 0.000000
# 6 0.000000 0.000000 0.000000 0.000000 0.000000 3.722289
#
#
# Mechanical properties :
#
#
# Convention : Reuss Voigt Hill
#
# Bulk Modulus (GPa) = 44.75518 48.27363 46.51441
# Shear Modulus (GPa) = 1.29061 22.64374 11.96718
#
# Velocity S-wave (km/s) = 0.83204 3.48515 2.53363
# Velocity P-wave (km/s) = 4.99300 6.48762 5.78875
#
# Compressibility (1/GPa) = 0.02234378
#
# Stress axis : x y z
#
# Youngs Moduli (GPa) = 91.62790 91.62790 64.36023
#
# Poissons Ratio (x) = 0.32261 0.12839
# Poissons Ratio (y) = 0.32261 0.12839
# Poissons Ratio (z) = 0.18278 0.18278
#
# Static dielectric constant tensor:
#      x y z
#    x 1.677280 0.000000 0.000000 
#    y 0.000000 1.677280 0.000000 
#    z 0.000000 0.000000 1.657900 
# 
# From -- ./inp_files/1802.got.cif
#   From: 2010.05.17/outbox.cif.g08.bks.cpg/sg140_1_cif.got.tgz:1802.got - 2010.06.21 00:45:31.
