data_PCOD9572963
_publ_section_title
;
Structure prediction by ZEFSAII (Michael W. Deem and Ramdas Pophale) SiO2 
 PCOD9572963
Probable space group: I 41/A M D
;
_chemical_formula_sum "Si O2"
_cell_formula_units_Z 160
_cell_length_a 19.571953
_cell_length_b 19.571953
_cell_length_c 23.714075
_cell_angle_alpha 90.000000
_cell_angle_beta 90.000000
_cell_angle_gamma 90.000000
_cell_volume 9083.945447
_symmetry_space_group_name_H-M "I 41/A M D"
_symmetry_group_IT_number 141
_space_group.IT_coordinate_system_code '2'
_symmetry_cell_setting 'tetragonal'
loop_
_space_group_symop_operation_xyz
x,y,z
1/4-y,3/4+x,1/4+z
-x,1/2-y,z
1/4+y,1/4-x,3/4+z
x,-y,-z
-x,1/2+y,-z
1/4+y,3/4+x,1/4-z
1/4-y,1/4-x,3/4-z
-x,-y,-z
3/4+y,1/4-x,3/4-z
x,1/2+y,-z
3/4-y,3/4+x,1/4-z
-x,y,z
x,1/2-y,z
3/4-y,1/4-x,3/4+z
3/4+y,3/4+x,1/4+z
1/2+x,1/2+y,1/2+z
3/4-y,1/4+x,3/4+z
1/2-x,-y,1/2+z
3/4+y,3/4-x,1/4+z
1/2+x,1/2-y,1/2-z
1/2-x,y,1/2-z
3/4+y,1/4+x,3/4-z
3/4-y,3/4-x,1/4-z
1/2-x,1/2-y,1/2-z
1/4+y,3/4-x,1/4-z
1/2+x,y,1/2-z
1/4-y,1/4+x,3/4-z
1/2-x,1/2+y,1/2+z
1/2+x,-y,1/2+z
1/4-y,3/4-x,1/4+z
1/4+y,1/4+x,3/4+z
loop_
_atom_site_type_symbol
_atom_site_label
_atom_site_fract_x
_atom_site_fract_y
_atom_site_fract_z
Si Si1 0.653896 0.575104 0.526811
Si Si2 0.364284 0.326316 0.573438
Si Si3 0.708074 0.331827 0.893274
Si Si4 0.810388 0.418379 0.494721
Si Si5 0.076487 0.827232 0.692433
O O1 0.652560 0.500000 0.500000
O O2 0.623259 0.624312 0.479048
O O3 0.613436 0.571364 0.585505
O O4 0.734516 0.594092 0.531243
O O5 0.362300 0.250000 0.551095
O O6 0.415697 0.334304 0.625000
O O7 0.290422 0.340494 0.602459
O O8 0.693856 0.250000 0.897944
O O9 0.684509 0.378274 0.945763
O O10 0.818319 0.500000 0.500000
O O11 0.869559 0.384068 0.458689
O O12 0.073921 0.823921 0.625000
O O13 0.089580 0.750000 0.713419
O O14 0.000000 0.848123 0.712176
#
# Coordination Sequence:
#
# PCOD9572963 Si02
#       5
#    32  32  32  32  32
#     4  10  20  35  58  83 111 146 195 238 279 333
#     4  10  20  35  55  82 114 147 188 238 284 335
#     4  10  21  37  57  82 113 153 194 231 287 354
#     4  10  22  33  58  87 117 146 186 244 291 335
#     4   9  19  37  59  81 110 150 190 227 274 337
#
# _framework density 17.613491
#
# number of rings (size 3 to 8) (size 9 to 14) (size 15 to 20)
#    0.000    2.200    2.000    1.200    2.800    2.600 
#    0.000    1.000    0.000    1.200    0.000    0.000 
#    0.000    0.000    0.000    0.000    0.000    0.000 
#
# Total GULP energy -445733.937272 kJ/mol
# GULP energy per Si atom -5571.674216 kJ/mol
# Density = 1.757340 g / cm^3
# Si number density = 17.613491 Si / 1000 Ang^3
#
#
#
# Elastic Constant Matrix: (Units=GPa)
#
#
# Indices 1 2 3 4 5 6 
#
# 1 75.7064 39.5122 48.1362 0.0000 0.0000 0.0000
# 2 39.5122 75.7083 48.1369 0.0000 0.0000 0.0000
# 3 48.1362 48.1369 99.8573 0.0000 0.0000 0.0000
# 4 0.0000 0.0000 0.0000 26.2264 0.0000 0.0000
# 5 0.0000 0.0000 0.0000 0.0000 26.2263 0.0000
# 6 0.0000 0.0000 0.0000 0.0000 0.0000 15.0802
#
#
#
# Elastic Compliance Matrix: (Units=1/GPa)
#
#
# Indices 1 2 3 4 5 6 
#
# 1 0.021081 -0.006548 -0.007006 0.000000 0.000000 0.000000
# 2 -0.006548 0.021080 -0.007005 0.000000 0.000000 0.000000
# 3 -0.007006 -0.007005 0.016768 0.000000 0.000000 0.000000
# 4 0.000000 0.000000 0.000000 0.038130 0.000000 0.000000
# 5 0.000000 0.000000 0.000000 0.000000 0.038130 0.000000
# 6 0.000000 0.000000 0.000000 0.000000 0.000000 0.066312
#
#
# Mechanical properties :
#
#
# Convention : Reuss Voigt Hill
#
# Bulk Modulus (GPa) = 56.14324 58.09361 57.11843
# Shear Modulus (GPa) = 20.11630 21.20570 20.66100
#
# Velocity S-wave (km/s) = 3.38316 3.47356 3.42866
# Velocity P-wave (km/s) = 6.87061 7.01010 6.94071
#
# Compressibility (1/GPa) = 0.01781158
#
# Stress axis : x y z
#
# Youngs Moduli (GPa) = 47.43716 47.43816 59.63618
#
# Poissons Ratio (x) = 0.31061 0.41778
# Poissons Ratio (y) = 0.31060 0.41778
# Poissons Ratio (z) = 0.33232 0.33233
#
# Static dielectric constant tensor:
#      x y z
#    x 1.616080 0.000000 0.000000 
#    y 0.000000 1.616070 0.000000 
#    z 0.000000 0.000000 1.592980 
# 
# From -- ./inp_files/8590.got.cif
#   From: 2010.05.17/outbox.cif.g08.bks.cpg/sg141_5_cif.got.tgz:8590.got - 2010.05.20 13:30:51.
