data_PCOD9572771
_publ_section_title
;
Structure prediction by ZEFSAII (Michael W. Deem and Ramdas Pophale) SiO2 
 PCOD9572771
Probable space group: I 41/A M D
;
_chemical_formula_sum "Si O2"
_cell_formula_units_Z 128
_cell_length_a 18.291330
_cell_length_b 18.291330
_cell_length_c 20.357026
_cell_angle_alpha 90.000000
_cell_angle_beta 90.000000
_cell_angle_gamma 90.000000
_cell_volume 6810.906235
_symmetry_space_group_name_H-M "I 41/A M D"
_symmetry_group_IT_number 141
_space_group.IT_coordinate_system_code '2'
_symmetry_cell_setting 'tetragonal'
loop_
_space_group_symop_operation_xyz
x,y,z
1/4-y,3/4+x,1/4+z
-x,1/2-y,z
1/4+y,1/4-x,3/4+z
x,-y,-z
-x,1/2+y,-z
1/4+y,3/4+x,1/4-z
1/4-y,1/4-x,3/4-z
-x,-y,-z
3/4+y,1/4-x,3/4-z
x,1/2+y,-z
3/4-y,3/4+x,1/4-z
-x,y,z
x,1/2-y,z
3/4-y,1/4-x,3/4+z
3/4+y,3/4+x,1/4+z
1/2+x,1/2+y,1/2+z
3/4-y,1/4+x,3/4+z
1/2-x,-y,1/2+z
3/4+y,3/4-x,1/4+z
1/2+x,1/2-y,1/2-z
1/2-x,y,1/2-z
3/4+y,1/4+x,3/4-z
3/4-y,3/4-x,1/4-z
1/2-x,1/2-y,1/2-z
1/4+y,3/4-x,1/4-z
1/2+x,y,1/2-z
1/4-y,1/4+x,3/4-z
1/2-x,1/2+y,1/2+z
1/2+x,-y,1/2+z
1/4-y,3/4-x,1/4+z
1/4+y,1/4+x,3/4+z
loop_
_atom_site_type_symbol
_atom_site_label
_atom_site_fract_x
_atom_site_fract_y
_atom_site_fract_z
Si Si1 0.500000 0.831107 0.637146
Si Si2 0.915376 0.600513 0.244481
Si Si3 0.660922 0.831738 0.653829
Si Si4 0.195606 0.991587 0.808079
Si Si5 0.336549 0.750000 0.246024
O O1 0.500000 0.750000 0.603614
O O2 0.575620 0.834624 0.675140
O O3 0.500000 0.890818 0.580657
O O4 0.911228 0.590172 0.324056
O O5 0.880843 0.529628 0.210184
O O6 0.871021 0.674522 0.226910
O O7 0.000000 0.609872 0.227441
O O8 0.689597 0.750000 0.669469
O O9 0.695798 0.904076 0.683594
O O10 0.224076 0.025925 0.875000
O O11 0.250000 0.013183 0.750000
O O12 0.250000 0.750000 0.250000
#
# Coordination Sequence:
#
# PCOD9572771 Si02
#       5
#    16  32  32  32  16
#     4   8  16  32  56  84 110 148 195 242 278 350
#     4  10  21  39  59  84 119 163 202 244 289 355
#     4   9  19  37  62  86 114 149 201 246 301 356
#     4  12  24  40  59  89 124 155 196 250 308 363
#     4  10  18  30  58  86 120 160 200 242 293 344
#
# _framework density 18.793388
#
# number of rings (size 3 to 8) (size 9 to 14) (size 15 to 20)
#    0.000    2.000    2.500    3.375    5.250    0.500 
#    2.250    0.000    0.000    0.000    0.000    0.000 
#    0.000    0.000    0.000    0.000    0.000    0.000 
#
# Total GULP energy -356891.809284 kJ/mol
# GULP energy per Si atom -5576.434520 kJ/mol
# Density = 1.875061 g / cm^3
# Si number density = 18.793388 Si / 1000 Ang^3
#
#
#
# Elastic Constant Matrix: (Units=GPa)
#
#
# Indices 1 2 3 4 5 6 
#
# 1 114.5906 33.5074 23.7981 0.0000 0.0000 0.0000
# 2 33.5074 114.5898 23.7982 0.0000 0.0000 0.0000
# 3 23.7981 23.7982 50.3644 0.0000 0.0000 0.0000
# 4 0.0000 0.0000 0.0000 17.7105 0.0000 0.0000
# 5 0.0000 0.0000 0.0000 0.0000 17.7113 0.0000
# 6 0.0000 0.0000 0.0000 0.0000 0.0000 29.5761
#
#
#
# Elastic Compliance Matrix: (Units=1/GPa)
#
#
# Indices 1 2 3 4 5 6 
#
# 1 0.010147 -0.002186 -0.003762 0.000000 0.000000 0.000000
# 2 -0.002186 0.010147 -0.003762 0.000000 0.000000 0.000000
# 3 -0.003762 -0.003762 0.023410 0.000000 0.000000 0.000000
# 4 0.000000 0.000000 0.000000 0.056464 0.000000 0.000000
# 5 0.000000 0.000000 0.000000 0.000000 0.056461 0.000000
# 6 0.000000 0.000000 0.000000 0.000000 0.000000 0.033811
#
#
# Mechanical properties :
#
#
# Convention : Reuss Voigt Hill
#
# Bulk Modulus (GPa) = 41.17677 49.08358 45.13017
# Shear Modulus (GPa) = 22.94048 26.22897 24.58473
#
# Velocity S-wave (km/s) = 3.49760 3.73989 3.62077
# Velocity P-wave (km/s) = 6.18617 6.69501 6.44562
#
# Compressibility (1/GPa) = 0.02428554
#
# Stress axis : x y z
#
# Youngs Moduli (GPa) = 98.54988 98.54902 42.71601
#
# Poissons Ratio (x) = 0.21542 0.16069
# Poissons Ratio (y) = 0.21542 0.16069
# Poissons Ratio (z) = 0.37073 0.37073
#
# Static dielectric constant tensor:
#      x y z
#    x 1.675540 0.000000 0.000000 
#    y 0.000000 1.675540 0.000000 
#    z 0.000000 0.000000 1.649920 
# 
# From -- ./inp_files/11385.got.cif
#   From: 2010.05.17/outbox.cif.g08.bks.cpg/sg141_6_cif.got.tgz:11385.got - 2010.05.20 13:30:51.
