data_PCOD9572525
_publ_section_title
;
Structure prediction by ZEFSAII (Michael W. Deem and Ramdas Pophale) SiO2 
 PCOD9572525
Probable space group: I 4/M C M
;
_chemical_formula_sum "Si O2"
_cell_formula_units_Z 84
_cell_length_a 18.801118
_cell_length_b 18.801118
_cell_length_c 11.469344
_cell_angle_alpha 90.000000
_cell_angle_beta 90.000000
_cell_angle_gamma 90.000000
_cell_volume 4054.207092
_symmetry_space_group_name_H-M "I 4/M C M"
_symmetry_group_IT_number 140
_symmetry_cell_setting 'tetragonal'
loop_
_space_group_symop_operation_xyz
x,y,z
-y,x,z
-x,-y,z
y,-x,z
x,-y,1/2-z
-x,y,1/2-z
y,x,1/2-z
-y,-x,1/2-z
-x,-y,-z
y,-x,-z
x,y,-z
-y,x,-z
-x,y,1/2+z
x,-y,1/2+z
-y,-x,1/2+z
y,x,1/2+z
1/2+x,1/2+y,1/2+z
1/2-y,1/2+x,1/2+z
1/2-x,1/2-y,1/2+z
1/2+y,1/2-x,1/2+z
1/2+x,1/2-y,-z
1/2-x,1/2+y,-z
1/2+y,1/2+x,-z
1/2-y,1/2-x,-z
1/2-x,1/2-y,1/2-z
1/2+y,1/2-x,1/2-z
1/2+x,1/2+y,1/2-z
1/2-y,1/2+x,1/2-z
1/2-x,1/2+y,z
1/2+x,1/2-y,z
1/2-y,1/2-x,z
1/2+y,1/2+x,z
loop_
_atom_site_type_symbol
_atom_site_label
_atom_site_fract_x
_atom_site_fract_y
_atom_site_fract_z
Si Si1 0.737135 0.454492 0.130123
Si Si2 0.890226 0.390226 0.172398
Si Si3 0.166048 0.833953 0.250000
Si Si4 0.500000 0.000000 0.750000
Si Si5 0.318858 0.181143 0.635083
O O1 0.740297 0.500000 0.250000
O O2 0.814051 0.415257 0.124768
O O3 0.674442 0.398103 0.159113
O O4 0.726615 0.487162 0.000000
O O5 0.873480 0.373480 0.307680
O O6 0.949920 0.449920 0.170909
O O7 0.164474 0.760208 0.320655
O O8 0.322536 0.177465 0.500000
#
# Coordination Sequence:
#
# PCOD9572525 Si02
#       5
#    32  16  16   4  16
#     4  11  23  40  62  90 123 160 207 256 306 365
#     4  10  22  39  56  80 124 170 215 251 294 344
#     4   9  20  36  58  83 114 152 192 253 316 363
#     4  12  20  44  50  80 134 184 214 244 290 344
#     4   9  17  33  58  83 106 143 205 261 304 351
#
# _framework density 20.719218000000001
#
# number of rings (size 3 to 8) (size 9 to 14) (size 15 to 20)
#    0.000    1.905    1.905    2.857    0.000    7.619 
#    0.000    2.381    0.000    0.571    0.000    2.667 
#    0.000    0.000    0.000    0.000    0.000    0.000 
#
# Total GULP energy -234047.539222 kJ/mol
# GULP energy per Si atom -5572.560458 kJ/mol
# Density = 2.067206 g / cm^3
# Si number density = 20.719218 Si / 1000 Ang^3
#
#
#
# Elastic Constant Matrix: (Units=GPa)
#
#
# Indices 1 2 3 4 5 6 
#
# 1 51.9749 43.2041 28.5123 0.0000 0.0000 0.0000
# 2 43.2041 51.9763 28.5122 0.0000 0.0000 0.0000
# 3 28.5123 28.5122 197.9218 0.0000 0.0000 0.0000
# 4 0.0000 0.0000 0.0000 9.1521 0.0000 0.0000
# 5 0.0000 0.0000 0.0000 0.0000 9.1513 0.0000
# 6 0.0000 0.0000 0.0000 0.0000 0.0000 40.7254
#
#
#
# Elastic Compliance Matrix: (Units=1/GPa)
#
#
# Indices 1 2 3 4 5 6 
#
# 1 0.062753 -0.051254 -0.001657 0.000000 0.000000 0.000000
# 2 -0.051254 0.062751 -0.001656 0.000000 0.000000 0.000000
# 3 -0.001657 -0.001656 0.005530 0.000000 0.000000 0.000000
# 4 0.000000 0.000000 0.000000 0.109265 0.000000 0.000000
# 5 0.000000 0.000000 0.000000 0.000000 0.109274 0.000000
# 6 0.000000 0.000000 0.000000 0.000000 0.000000 0.024555
#
#
# Mechanical properties :
#
#
# Convention : Reuss Voigt Hill
#
# Bulk Modulus (GPa) = 45.65895 55.81448 50.73671
# Shear Modulus (GPa) = 10.19240 25.24872 17.72056
#
# Velocity S-wave (km/s) = 2.22035 3.49465 2.92768
# Velocity P-wave (km/s) = 5.35333 6.57879 5.99744
#
# Compressibility (1/GPa) = 0.02190151
#
# Stress axis : x y z
#
# Youngs Moduli (GPa) = 15.93540 15.93588 180.83944
#
# Poissons Ratio (x) = 0.81677 0.29959
# Poissons Ratio (y) = 0.81675 0.29954
# Poissons Ratio (z) = 0.02640 0.02640
#
# Static dielectric constant tensor:
#      x y z
#    x 1.767690 0.000000 0.000000 
#    y 0.000000 1.767690 0.000000 
#    z 0.000000 0.000000 1.769300 
# 
# From -- ./inp_files/2534.got.cif
#   From: 2010.05.17/outbox.cif.g08.bks.cpg/sg140_2_cif.got.tgz:2534.got - 2010.06.21 00:45:31.
