data_PCOD9572563
_publ_section_title
;
Structure prediction by ZEFSAII (Michael W. Deem and Ramdas Pophale) SiO2 
 PCOD9572563
Probable space group: I 4/M C M
;
_chemical_formula_sum "Si O2"
_cell_formula_units_Z 84
_cell_length_a 11.965833
_cell_length_b 11.965833
_cell_length_c 31.089690
_cell_angle_alpha 90.000000
_cell_angle_beta 90.000000
_cell_angle_gamma 90.000000
_cell_volume 4451.457859
_symmetry_space_group_name_H-M "I 4/M C M"
_symmetry_group_IT_number 140
_symmetry_cell_setting 'tetragonal'
loop_
_space_group_symop_operation_xyz
x,y,z
-y,x,z
-x,-y,z
y,-x,z
x,-y,1/2-z
-x,y,1/2-z
y,x,1/2-z
-y,-x,1/2-z
-x,-y,-z
y,-x,-z
x,y,-z
-y,x,-z
-x,y,1/2+z
x,-y,1/2+z
-y,-x,1/2+z
y,x,1/2+z
1/2+x,1/2+y,1/2+z
1/2-y,1/2+x,1/2+z
1/2-x,1/2-y,1/2+z
1/2+y,1/2-x,1/2+z
1/2+x,1/2-y,-z
1/2-x,1/2+y,-z
1/2+y,1/2+x,-z
1/2-y,1/2-x,-z
1/2-x,1/2-y,1/2-z
1/2+y,1/2-x,1/2-z
1/2+x,1/2+y,1/2-z
1/2-y,1/2+x,1/2-z
1/2-x,1/2+y,z
1/2+x,1/2-y,z
1/2-y,1/2-x,z
1/2+y,1/2+x,z
loop_
_atom_site_type_symbol
_atom_site_label
_atom_site_fract_x
_atom_site_fract_y
_atom_site_fract_z
Si Si1 0.629604 0.370396 0.250000
Si Si2 0.667273 0.167273 0.194937
Si Si3 0.500000 0.000000 0.250000
Si Si4 0.182733 0.025297 0.448380
Si Si5 0.905386 0.405386 0.399398
O O1 0.649913 0.500000 0.250000
O O2 0.657771 0.296941 0.208486
O O3 0.637638 0.137638 0.146675
O O4 0.584620 0.084620 0.223553
O O5 0.198918 0.027593 0.500000
O O6 0.298992 0.045327 0.424841
O O7 0.092316 0.122323 0.437793
O O8 0.000000 0.500000 0.394310
#
# Coordination Sequence:
#
# PCOD9572563 Si02
#       5
#    16  16   4  32  16
#     4  10  22  42  66  92 116 160 222 268 314 384
#     4  11  24  42  66  88 129 172 208 268 329 392
#     4  12  20  48  64  80 126 180 208 244 336 404
#     4   9  21  44  68  92 131 180 224 277 342 401
#     4  12  26  39  64 105 137 173 226 278 341 409
#
# _framework density 18.870222999999999
#
# number of rings (size 3 to 8) (size 9 to 14) (size 15 to 20)
#    0.000    1.714    2.857    1.714    2.667    4.571 
#    0.000    3.810    0.000    0.000    0.000    0.000 
#    0.000    0.000    0.000    0.000    0.000    0.000 
#
# Total GULP energy -233824.802517 kJ/mol
# GULP energy per Si atom -5567.257203 kJ/mol
# Density = 1.882727 g / cm^3
# Si number density = 18.870223 Si / 1000 Ang^3
#
#
#
# Elastic Constant Matrix: (Units=GPa)
#
#
# Indices 1 2 3 4 5 6 
#
# 1 141.4481 51.3830 59.6876 0.0000 0.0000 0.0000
# 2 51.3830 141.4481 59.6876 0.0000 0.0000 0.0000
# 3 59.6876 59.6876 81.7919 0.0000 0.0000 0.0000
# 4 0.0000 0.0000 0.0000 37.7275 0.0000 0.0000
# 5 0.0000 0.0000 0.0000 0.0000 37.7275 0.0000
# 6 0.0000 0.0000 0.0000 0.0000 0.0000 -7.9391
#
#
#
# Elastic Compliance Matrix: (Units=1/GPa)
#
#
# Indices 1 2 3 4 5 6 
#
# 1 0.010281 -0.000822 -0.006903 0.000000 0.000000 0.000000
# 2 -0.000822 0.010281 -0.006903 0.000000 0.000000 0.000000
# 3 -0.006903 -0.006903 0.022301 0.000000 0.000000 0.000000
# 4 0.000000 0.000000 0.000000 0.026506 0.000000 0.000000
# 5 0.000000 0.000000 0.000000 0.000000 0.026506 0.000000
# 6 0.000000 0.000000 0.000000 0.000000 0.000000 -0.125960
#
#
# Mechanical properties :
#
#
# Convention : Reuss Voigt Hill
#
# Bulk Modulus (GPa) = 73.48691 78.46717 75.97704
# Shear Modulus (GPa) = 1349.02322 26.43187 687.72755
#
# Velocity S-wave (km/s) = 26.76653 3.74668 19.11132
# Velocity P-wave (km/s) = 31.53238 7.77107 22.96389
#
# Compressibility (1/GPa) = 0.01360787
#
# Stress axis : x y z
#
# Youngs Moduli (GPa) = 97.26550 97.26550 44.84135
#
# Poissons Ratio (x) = 0.07995 0.30953
# Poissons Ratio (y) = 0.07995 0.30953
# Poissons Ratio (z) = 0.67141 0.67141
#
# Static dielectric constant tensor:
#      x y z
#    x 1.958410 0.000000 0.000000 
#    y 0.000000 1.958410 0.000000 
#    z 0.000000 0.000000 1.627480 
# 
# From -- ./inp_files/11188.got.cif
#   From: 2010.05.17/outbox.cif.g08.bks.cpg/sg140_6_cif.got.tgz:11188.got - 2010.06.21 00:45:31.
