data_PCOD9572210
_publ_section_title
;
Structure prediction by ZEFSAII (Michael W. Deem and Ramdas Pophale) SiO2 
 PCOD9572210
Probable space group: I 4/M C M
;
_chemical_formula_sum "Si O2"
_cell_formula_units_Z 176
_cell_length_a 25.420372
_cell_length_b 25.420372
_cell_length_c 14.965318
_cell_angle_alpha 90.000000
_cell_angle_beta 90.000000
_cell_angle_gamma 90.000000
_cell_volume 9670.518343
_symmetry_space_group_name_H-M "I 4/M C M"
_symmetry_group_IT_number 140
_symmetry_cell_setting 'tetragonal'
loop_
_space_group_symop_operation_xyz
x,y,z
-y,x,z
-x,-y,z
y,-x,z
x,-y,1/2-z
-x,y,1/2-z
y,x,1/2-z
-y,-x,1/2-z
-x,-y,-z
y,-x,-z
x,y,-z
-y,x,-z
-x,y,1/2+z
x,-y,1/2+z
-y,-x,1/2+z
y,x,1/2+z
1/2+x,1/2+y,1/2+z
1/2-y,1/2+x,1/2+z
1/2-x,1/2-y,1/2+z
1/2+y,1/2-x,1/2+z
1/2+x,1/2-y,-z
1/2-x,1/2+y,-z
1/2+y,1/2+x,-z
1/2-y,1/2-x,-z
1/2-x,1/2-y,1/2-z
1/2+y,1/2-x,1/2-z
1/2+x,1/2+y,1/2-z
1/2-y,1/2+x,1/2-z
1/2-x,1/2+y,z
1/2+x,1/2-y,z
1/2-y,1/2-x,z
1/2+y,1/2+x,z
loop_
_atom_site_type_symbol
_atom_site_label
_atom_site_fract_x
_atom_site_fract_y
_atom_site_fract_z
Si Si1 0.669280 0.971217 0.656292
Si Si2 0.128293 0.192282 0.896226
Si Si3 0.210081 0.989624 0.855730
Si Si4 0.588380 0.000896 0.500000
Si Si5 0.630893 0.785520 0.737969
Si Si6 0.101941 0.211966 0.400111
O O1 0.727818 0.985119 0.620595
O O2 0.625501 0.988820 0.585642
O O3 0.677142 0.910597 0.686042
O O4 0.659687 0.000000 0.750000
O O5 0.065952 0.184007 0.879097
O O6 0.144649 0.239327 0.831076
O O7 0.165320 0.142512 0.878654
O O8 0.134543 0.207081 0.000000
O O9 0.207282 0.000000 0.750000
O O10 0.189917 0.042775 0.899367
O O11 0.542569 0.957432 0.500000
O O12 0.557544 0.057544 0.500000
O O13 0.680854 0.819147 0.765093
O O14 0.606105 0.756926 0.824522
O O15 0.113890 0.232067 0.500000
#
# Coordination Sequence:
#
# PCOD9572210 Si02
#       6
#    32  32  32  16  32  32
#     4  10  21  41  62  86 112 151 201 247 301 361
#     4  10  22  37  59  89 120 158 199 242 299 359
#     4  10  19  37  62  85 115 154 197 243 289 346
#     4  11  26  42  60  88 118 152 198 259 316 364
#     4  11  23  38  59  87 118 156 200 246 297 361
#     4  11  22  38  60  88 121 157 198 246 301 357
#
# _framework density 18.199645
#
# number of rings (size 3 to 8) (size 9 to 14) (size 15 to 20)
#    0.000    1.545    5.455    1.636    6.364    3.636 
#    0.000    2.727    0.000    0.545    0.000    3.818 
#    0.000    0.000    0.000    0.000    0.000    0.000 
#
# Total GULP energy -490699.075618 kJ/mol
# GULP energy per Si atom -5576.125859 kJ/mol
# Density = 1.815822 g / cm^3
# Si number density = 18.199645 Si / 1000 Ang^3
#
#
#
# Elastic Constant Matrix: (Units=GPa)
#
#
# Indices 1 2 3 4 5 6 
#
# 1 67.6554 56.1743 36.7602 0.0000 0.0000 0.0000
# 2 56.1743 67.6553 36.7601 0.0000 0.0000 0.0000
# 3 36.7602 36.7601 88.5378 0.0000 0.0000 0.0000
# 4 0.0000 0.0000 0.0000 9.1662 0.0000 0.0000
# 5 0.0000 0.0000 0.0000 0.0000 9.1759 0.0000
# 6 0.0000 0.0000 0.0000 0.0000 0.0000 32.0683
#
#
#
# Elastic Compliance Matrix: (Units=1/GPa)
#
#
# Indices 1 2 3 4 5 6 
#
# 1 0.048909 -0.038191 -0.004450 0.000000 0.000000 0.000000
# 2 -0.038191 0.048909 -0.004450 0.000000 0.000000 0.000000
# 3 -0.004450 -0.004450 0.014990 0.000000 0.000000 0.000000
# 4 0.000000 0.000000 0.000000 0.109097 0.000000 0.000000
# 5 0.000000 0.000000 0.000000 0.000000 0.108981 0.000000
# 6 0.000000 0.000000 0.000000 0.000000 0.000000 0.031183
#
#
# Mechanical properties :
#
#
# Convention : Reuss Voigt Hill
#
# Bulk Modulus (GPa) = 53.68997 53.69309 53.69153
# Shear Modulus (GPa) = 10.81176 16.35899 13.58538
#
# Velocity S-wave (km/s) = 2.43999 3.00136 2.73511
# Velocity P-wave (km/s) = 6.12394 6.44804 6.28808
#
# Compressibility (1/GPa) = 0.01862545
#
# Stress axis : x y z
#
# Youngs Moduli (GPa) = 20.44621 20.44619 66.71252
#
# Poissons Ratio (x) = 0.78087 0.29686
# Poissons Ratio (y) = 0.78087 0.29686
# Poissons Ratio (z) = 0.09098 0.09098
#
# Static dielectric constant tensor:
#      x y z
#    x 1.633770 0.000000 0.000000 
#    y 0.000000 1.633770 0.000000 
#    z 0.000000 0.000000 1.650690 
# 
# From -- ./inp_files/4906.got.cif
#   From: 2010.05.17/outbox.cif.g08.bks.cpg/sg140_3_cif.got.tgz:4906.got - 2010.06.21 00:45:31.
