data_PCOD9572407
_publ_section_title
;
Structure prediction by ZEFSAII (Michael W. Deem and Ramdas Pophale) SiO2 
 PCOD9572407
Probable space group: I 4/M C M
;
_chemical_formula_sum "Si O2"
_cell_formula_units_Z 112
_cell_length_a 14.707653
_cell_length_b 14.707653
_cell_length_c 22.088977
_cell_angle_alpha 90.000000
_cell_angle_beta 90.000000
_cell_angle_gamma 90.000000
_cell_volume 4778.178314
_symmetry_space_group_name_H-M "I 4/M C M"
_symmetry_group_IT_number 140
_symmetry_cell_setting 'tetragonal'
loop_
_space_group_symop_operation_xyz
x,y,z
-y,x,z
-x,-y,z
y,-x,z
x,-y,1/2-z
-x,y,1/2-z
y,x,1/2-z
-y,-x,1/2-z
-x,-y,-z
y,-x,-z
x,y,-z
-y,x,-z
-x,y,1/2+z
x,-y,1/2+z
-y,-x,1/2+z
y,x,1/2+z
1/2+x,1/2+y,1/2+z
1/2-y,1/2+x,1/2+z
1/2-x,1/2-y,1/2+z
1/2+y,1/2-x,1/2+z
1/2+x,1/2-y,-z
1/2-x,1/2+y,-z
1/2+y,1/2+x,-z
1/2-y,1/2-x,-z
1/2-x,1/2-y,1/2-z
1/2+y,1/2-x,1/2-z
1/2+x,1/2+y,1/2-z
1/2-y,1/2+x,1/2-z
1/2-x,1/2+y,z
1/2+x,1/2-y,z
1/2-y,1/2-x,z
1/2+y,1/2+x,z
loop_
_atom_site_type_symbol
_atom_site_label
_atom_site_fract_x
_atom_site_fract_y
_atom_site_fract_z
Si Si1 0.606064 0.389696 0.184422
Si Si2 0.213548 0.132075 0.934514
Si Si3 0.505396 0.848210 0.385819
Si Si4 0.348211 0.000000 0.250000
O O1 0.620280 0.498145 0.183608
O O2 0.643344 0.356657 0.250000
O O3 0.651863 0.352480 0.124112
O O4 0.289136 0.210865 0.934428
O O5 0.269665 0.037508 0.926564
O O6 0.166469 0.132290 0.000000
O O7 0.600083 0.899918 0.400868
O O8 0.509245 0.809000 0.317184
O O9 0.429508 0.929508 0.386100
O O10 0.412411 0.912411 0.254271
#
# Coordination Sequence:
#
# PCOD9572407 Si02
#       4
#    32  32  32  16
#     4   9  20  41  66  87 107 138 188 246 296 346
#     4  10  21  35  53  84 124 158 191 237 290 344
#     4   8  14  26  45  71 109 158 202 233 268 324
#     4   7  10  18  34  58  88 127 182 236 268 301
#
# _framework density 23.439896999999998
#
# number of rings (size 3 to 8) (size 9 to 14) (size 15 to 20)
#    0.000    3.286    0.000    2.571    0.000    4.571 
#    0.000    5.714    0.000    0.000    0.000    0.000 
#    0.000    0.000    0.000    0.000    0.000    0.000 
#
# Total GULP energy -312403.528741 kJ/mol
# GULP energy per Si atom -5578.634442 kJ/mol
# Density = 2.338655 g / cm^3
# Si number density = 23.439897 Si / 1000 Ang^3
#
#
#
# Elastic Constant Matrix: (Units=GPa)
#
#
# Indices 1 2 3 4 5 6 
#
# 1 55.1312 12.7163 31.9566 0.0000 0.0000 0.0000
# 2 12.7163 55.1322 31.9573 0.0000 0.0000 0.0000
# 3 31.9566 31.9573 213.8475 0.0000 0.0000 0.0000
# 4 0.0000 0.0000 0.0000 25.3637 0.0000 0.0000
# 5 0.0000 0.0000 0.0000 0.0000 25.3637 0.0000
# 6 0.0000 0.0000 0.0000 0.0000 0.0000 8.0860
#
#
#
# Elastic Compliance Matrix: (Units=1/GPa)
#
#
# Indices 1 2 3 4 5 6 
#
# 1 0.020365 -0.003211 -0.002563 0.000000 0.000000 0.000000
# 2 -0.003211 0.020365 -0.002563 0.000000 0.000000 0.000000
# 3 -0.002563 -0.002563 0.005442 0.000000 0.000000 0.000000
# 4 0.000000 0.000000 0.000000 0.039426 0.000000 0.000000
# 5 0.000000 0.000000 0.000000 0.000000 0.039426 0.000000
# 6 0.000000 0.000000 0.000000 0.000000 0.000000 0.123671
#
#
# Mechanical properties :
#
#
# Convention : Reuss Voigt Hill
#
# Bulk Modulus (GPa) = 33.90294 53.04124 43.47209
# Shear Modulus (GPa) = 18.16833 28.26140 23.21486
#
# Velocity S-wave (km/s) = 2.78709 3.47608 3.15048
# Velocity P-wave (km/s) = 4.98521 6.22805 5.64096
#
# Compressibility (1/GPa) = 0.02949597
#
# Stress axis : x y z
#
# Youngs Moduli (GPa) = 49.10359 49.10430 183.74355
#
# Poissons Ratio (x) = 0.15769 0.47101
# Poissons Ratio (y) = 0.15769 0.47101
# Poissons Ratio (z) = 0.12587 0.12587
#
# Static dielectric constant tensor:
#      x y z
#    x 1.895970 0.000000 0.000000 
#    y 0.000000 1.895970 0.000000 
#    z 0.000000 0.000000 1.919020 
# 
# From -- ./inp_files/7901.got.cif
#   From: 2010.05.17/outbox.cif.g08.bks.cpg/sg140_4_cif.got.tgz:7901.got - 2010.06.21 00:45:31.
