data_PCOD9572827
_publ_section_title
;
Structure prediction by ZEFSAII (Michael W. Deem and Ramdas Pophale) SiO2 
 PCOD9572827
Probable space group: I 41/A M D
;
_chemical_formula_sum "Si O2"
_cell_formula_units_Z 160
_cell_length_a 24.312731
_cell_length_b 24.312731
_cell_length_c 12.142431
_cell_angle_alpha 90.000000
_cell_angle_beta 90.000000
_cell_angle_gamma 90.000000
_cell_volume 7177.498894
_symmetry_space_group_name_H-M "I 41/A M D"
_symmetry_group_IT_number 141
_space_group.IT_coordinate_system_code '2'
_symmetry_cell_setting 'tetragonal'
loop_
_space_group_symop_operation_xyz
x,y,z
1/4-y,3/4+x,1/4+z
-x,1/2-y,z
1/4+y,1/4-x,3/4+z
x,-y,-z
-x,1/2+y,-z
1/4+y,3/4+x,1/4-z
1/4-y,1/4-x,3/4-z
-x,-y,-z
3/4+y,1/4-x,3/4-z
x,1/2+y,-z
3/4-y,3/4+x,1/4-z
-x,y,z
x,1/2-y,z
3/4-y,1/4-x,3/4+z
3/4+y,3/4+x,1/4+z
1/2+x,1/2+y,1/2+z
3/4-y,1/4+x,3/4+z
1/2-x,-y,1/2+z
3/4+y,3/4-x,1/4+z
1/2+x,1/2-y,1/2-z
1/2-x,y,1/2-z
3/4+y,1/4+x,3/4-z
3/4-y,3/4-x,1/4-z
1/2-x,1/2-y,1/2-z
1/4+y,3/4-x,1/4-z
1/2+x,y,1/2-z
1/4-y,1/4+x,3/4-z
1/2-x,1/2+y,1/2+z
1/2+x,-y,1/2+z
1/4-y,3/4-x,1/4+z
1/4+y,1/4+x,3/4+z
loop_
_atom_site_type_symbol
_atom_site_label
_atom_site_fract_x
_atom_site_fract_y
_atom_site_fract_z
Si Si1 0.125785 0.970867 0.819180
Si Si2 0.065537 0.189939 0.707491
Si Si3 0.934847 0.070841 0.775552
Si Si4 0.853422 0.471307 0.617363
Si Si5 0.062679 0.128776 0.276511
O O1 0.168516 0.935252 0.886915
O O2 0.078925 0.929983 0.774411
O O3 0.098263 0.028494 0.855059
O O4 0.161876 0.986093 0.712010
O O5 0.087973 0.250000 0.744910
O O6 0.082101 0.134561 0.769822
O O7 0.081029 0.183857 0.579031
O O8 0.000000 0.192319 0.717944
O O9 0.914565 0.047640 0.656191
O O10 0.000000 0.066326 0.790957
O O11 0.854188 0.500000 0.500000
O O12 0.102502 0.147499 0.375000
O O13 0.000000 0.129254 0.316973
#
# Coordination Sequence:
#
# PCOD9572827 Si02
#       5
#    32  32  32  32  32
#     4  10  20  32  43  62  82 121 162 215 246 287
#     4   9  17  29  42  58  85 122 160 199 238 281
#     4   9  19  30  44  63  88 120 163 200 241 285
#     4  10  19  31  45  58  89 119 164 203 251 282
#     4  11  19  27  37  54  82 118 163 204 240 275
#
# _framework density 22.291886999999999
#
# number of rings (size 3 to 8) (size 9 to 14) (size 15 to 20)
#    1.200    1.000    2.000    3.000    0.000    1.400 
#    0.000    0.000    0.000    0.000    0.000    0.000 
#    0.000    0.800    0.000    1.600    0.000    1.200 
#
# Total GULP energy -445395.338479 kJ/mol
# GULP energy per Si atom -5567.441731 kJ/mol
# Density = 2.224115 g / cm^3
# Si number density = 22.291887 Si / 1000 Ang^3
#
#
#
# Elastic Constant Matrix: (Units=GPa)
#
#
# Indices 1 2 3 4 5 6 
#
# 1 57.5134 27.8440 12.1489 0.0000 0.0000 0.0000
# 2 27.8440 57.5165 12.1498 0.0000 0.0000 0.0000
# 3 12.1489 12.1498 27.7941 0.0000 0.0000 0.0000
# 4 0.0000 0.0000 0.0000 16.9099 0.0000 0.0000
# 5 0.0000 0.0000 0.0000 0.0000 16.9088 0.0000
# 6 0.0000 0.0000 0.0000 0.0000 0.0000 33.0915
#
#
#
# Elastic Compliance Matrix: (Units=1/GPa)
#
#
# Indices 1 2 3 4 5 6 
#
# 1 0.023542 -0.010161 -0.005848 0.000000 0.000000 0.000000
# 2 -0.010161 0.023541 -0.005849 0.000000 0.000000 0.000000
# 3 -0.005848 -0.005849 0.041092 0.000000 0.000000 0.000000
# 4 0.000000 0.000000 0.000000 0.059137 0.000000 0.000000
# 5 0.000000 0.000000 0.000000 0.000000 0.059141 0.000000
# 6 0.000000 0.000000 0.000000 0.000000 0.000000 0.030219
#
#
# Mechanical properties :
#
#
# Convention : Reuss Voigt Hill
#
# Bulk Modulus (GPa) = 22.49342 27.45661 24.97501
# Shear Modulus (GPa) = 16.93714 19.42745 18.18229
#
# Velocity S-wave (km/s) = 2.75942 2.95533 2.85905
# Velocity P-wave (km/s) = 4.50165 4.89784 4.70392
#
# Compressibility (1/GPa) = 0.04445745
#
# Stress axis : x y z
#
# Youngs Moduli (GPa) = 42.47712 42.47897 24.33554
#
# Poissons Ratio (x) = 0.43165 0.14233
# Poissons Ratio (y) = 0.43163 0.14234
# Poissons Ratio (z) = 0.24843 0.24846
#
# Static dielectric constant tensor:
#      x y z
#    x 1.847790 0.000000 0.000000 
#    y 0.000000 1.847790 0.000000 
#    z 0.000000 0.000000 4.475150 
# 
# From -- ./inp_files/8913.got.cif
#   From: 2010.05.17/outbox.cif.g08.bks.cpg/sg141_5_cif.got.tgz:8913.got - 2010.05.20 13:30:51.
