data_PCOD9572958
_publ_section_title
;
Structure prediction by ZEFSAII (Michael W. Deem and Ramdas Pophale) SiO2 
 PCOD9572958
Probable space group: I 41/A M D
;
_chemical_formula_sum "Si O2"
_cell_formula_units_Z 176
_cell_length_a 18.764101
_cell_length_b 18.764101
_cell_length_c 25.575182
_cell_angle_alpha 90.000000
_cell_angle_beta 90.000000
_cell_angle_gamma 90.000000
_cell_volume 9004.803844
_symmetry_space_group_name_H-M "I 41/A M D"
_symmetry_group_IT_number 141
_space_group.IT_coordinate_system_code '2'
_symmetry_cell_setting 'tetragonal'
loop_
_space_group_symop_operation_xyz
x,y,z
1/4-y,3/4+x,1/4+z
-x,1/2-y,z
1/4+y,1/4-x,3/4+z
x,-y,-z
-x,1/2+y,-z
1/4+y,3/4+x,1/4-z
1/4-y,1/4-x,3/4-z
-x,-y,-z
3/4+y,1/4-x,3/4-z
x,1/2+y,-z
3/4-y,3/4+x,1/4-z
-x,y,z
x,1/2-y,z
3/4-y,1/4-x,3/4+z
3/4+y,3/4+x,1/4+z
1/2+x,1/2+y,1/2+z
3/4-y,1/4+x,3/4+z
1/2-x,-y,1/2+z
3/4+y,3/4-x,1/4+z
1/2+x,1/2-y,1/2-z
1/2-x,y,1/2-z
3/4+y,1/4+x,3/4-z
3/4-y,3/4-x,1/4-z
1/2-x,1/2-y,1/2-z
1/4+y,3/4-x,1/4-z
1/2+x,y,1/2-z
1/4-y,1/4+x,3/4-z
1/2-x,1/2+y,1/2+z
1/2+x,-y,1/2+z
1/4-y,3/4-x,1/4+z
1/4+y,1/4+x,3/4+z
loop_
_atom_site_type_symbol
_atom_site_label
_atom_site_fract_x
_atom_site_fract_y
_atom_site_fract_z
Si Si1 0.692248 0.830573 0.090395
Si Si2 0.581378 0.077316 0.584318
Si Si3 0.728847 0.877566 0.974946
Si Si4 0.305827 0.828109 0.620015
Si Si5 0.250000 0.926933 0.250000
Si Si6 0.310758 0.668508 0.794853
O O1 0.663999 0.750000 0.083505
O O2 0.754655 0.828400 0.132669
O O3 0.634507 0.885901 0.111878
O O4 0.725466 0.856712 0.035617
O O5 0.500000 0.097851 0.570034
O O6 0.616888 0.133113 0.625000
O O7 0.628684 0.054568 0.533866
O O8 0.779389 0.829407 0.939540
O O9 0.767990 0.953507 0.966083
O O10 0.645809 0.883934 0.959673
O O11 0.332974 0.750000 0.634416
O O12 0.233373 0.840494 0.652158
O O13 0.338301 0.750000 0.791207
O O14 0.250000 0.660194 0.750000
#
# Coordination Sequence:
#
# PCOD9572958 Si02
#       6
#    32  32  32  32  16  32
#     4  11  23  39  60  88 123 163 207 257 311 374
#     4  11  24  42  64  91 125 163 209 259 314 378
#     4  12  21  36  63  93 122 159 210 264 308 375
#     4  11  23  39  59  88 125 163 209 259 315 376
#     4  12  21  36  65  96 122 160 212 264 315 364
#     4  10  20  34  57  88 120 156 200 257 315 370
#
# _framework density 19.545123
#
# number of rings (size 3 to 8) (size 9 to 14) (size 15 to 20)
#    0.000    0.909    6.364    1.364    0.000    0.545 
#    0.000    0.000    0.000    1.636    0.000    5.091 
#    0.000    0.000    0.000    0.000    0.000    0.000 
#
# Total GULP energy -490705.289507 kJ/mol
# GULP energy per Si atom -5576.196472 kJ/mol
# Density = 1.950064 g / cm^3
# Si number density = 19.545123 Si / 1000 Ang^3
#
#
#
# Elastic Constant Matrix: (Units=GPa)
#
#
# Indices 1 2 3 4 5 6 
#
# 1 56.5640 25.2449 25.4196 0.0000 0.0000 0.0000
# 2 25.2449 56.5653 25.4199 0.0000 0.0000 0.0000
# 3 25.4196 25.4199 53.1538 0.0000 0.0000 0.0000
# 4 0.0000 0.0000 0.0000 19.8461 0.0000 0.0000
# 5 0.0000 0.0000 0.0000 0.0000 19.8461 0.0000
# 6 0.0000 0.0000 0.0000 0.0000 0.0000 7.8335
#
#
#
# Elastic Compliance Matrix: (Units=1/GPa)
#
#
# Indices 1 2 3 4 5 6 
#
# 1 0.024661 -0.007268 -0.008318 0.000000 0.000000 0.000000
# 2 -0.007268 0.024660 -0.008318 0.000000 0.000000 0.000000
# 3 -0.008318 -0.008318 0.026769 0.000000 0.000000 0.000000
# 4 0.000000 0.000000 0.000000 0.050388 0.000000 0.000000
# 5 0.000000 0.000000 0.000000 0.000000 0.050388 0.000000
# 6 0.000000 0.000000 0.000000 0.000000 0.000000 0.127657
#
#
# Mechanical properties :
#
#
# Convention : Reuss Voigt Hill
#
# Bulk Modulus (GPa) = 35.35664 35.38356 35.37010
# Shear Modulus (GPa) = 13.82145 15.51838 14.66991
#
# Velocity S-wave (km/s) = 2.66212 2.82082 2.74262
# Velocity P-wave (km/s) = 5.25150 5.36210 5.30709
#
# Compressibility (1/GPa) = 0.02828323
#
# Stress axis : x y z
#
# Youngs Moduli (GPa) = 40.55019 40.55102 37.35708
#
# Poissons Ratio (x) = 0.29473 0.31072
# Poissons Ratio (y) = 0.29473 0.31072
# Poissons Ratio (z) = 0.33728 0.33728
#
# Static dielectric constant tensor:
#      x y z
#    x 1.716880 0.000000 0.000000 
#    y 0.000000 1.716880 0.000000 
#    z 0.000000 0.000000 1.775960 
# 
# From -- ./inp_files/12910.got.cif
#   From: 2010.05.17/outbox.cif.g08.bks.cpg/sg141_7_cif.got.tgz:12910.got - 2010.05.20 13:30:51.
