data_PCOD9572356
_publ_section_title
;
Structure prediction by ZEFSAII (Michael W. Deem and Ramdas Pophale) SiO2 
 PCOD9572356
Probable space group: I 4/M C M
;
_chemical_formula_sum "Si O2"
_cell_formula_units_Z 176
_cell_length_a 25.123527
_cell_length_b 25.123527
_cell_length_c 14.326514
_cell_angle_alpha 90.000000
_cell_angle_beta 90.000000
_cell_angle_gamma 90.000000
_cell_volume 9042.775422
_symmetry_space_group_name_H-M "I 4/M C M"
_symmetry_group_IT_number 140
_symmetry_cell_setting 'tetragonal'
loop_
_space_group_symop_operation_xyz
x,y,z
-y,x,z
-x,-y,z
y,-x,z
x,-y,1/2-z
-x,y,1/2-z
y,x,1/2-z
-y,-x,1/2-z
-x,-y,-z
y,-x,-z
x,y,-z
-y,x,-z
-x,y,1/2+z
x,-y,1/2+z
-y,-x,1/2+z
y,x,1/2+z
1/2+x,1/2+y,1/2+z
1/2-y,1/2+x,1/2+z
1/2-x,1/2-y,1/2+z
1/2+y,1/2-x,1/2+z
1/2+x,1/2-y,-z
1/2-x,1/2+y,-z
1/2+y,1/2+x,-z
1/2-y,1/2-x,-z
1/2-x,1/2-y,1/2-z
1/2+y,1/2-x,1/2-z
1/2+x,1/2+y,1/2-z
1/2-y,1/2+x,1/2-z
1/2-x,1/2+y,z
1/2+x,1/2-y,z
1/2-y,1/2-x,z
1/2+y,1/2+x,z
loop_
_atom_site_type_symbol
_atom_site_label
_atom_site_fract_x
_atom_site_fract_y
_atom_site_fract_z
Si Si1 0.721110 0.306691 0.886607
Si Si2 0.570924 0.735004 0.111152
Si Si3 0.318142 0.022894 0.388249
Si Si4 0.500000 0.912296 0.750000
Si Si5 0.643311 0.555620 0.243339
Si Si6 0.602047 0.274248 0.888070
O O1 0.764262 0.264262 0.854808
O O2 0.740037 0.366503 0.864015
O O3 0.662022 0.288379 0.855164
O O4 0.719029 0.304970 0.000000
O O5 0.530573 0.783318 0.131928
O O6 0.554350 0.684453 0.171135
O O7 0.567274 0.725596 0.000000
O O8 0.326464 0.025358 0.500000
O O9 0.281529 0.073951 0.360733
O O10 0.372902 0.018325 0.332724
O O11 0.451093 0.951093 0.723235
O O12 0.613565 0.500000 0.250000
O O13 0.604270 0.604270 0.250000
O O14 0.679492 0.565023 0.152611
O O15 0.602054 0.275190 0.000000
#
# Coordination Sequence:
#
# PCOD9572356 Si02
#       6
#    32  32  32  16  32  32
#     4   9  18  33  55  87 124 154 184 230 296 367
#     4  10  20  37  61  88 119 157 197 243 299 357
#     4  10  21  39  67  94 118 158 213 263 308 362
#     4  11  26  46  64  86 124 166 203 256 316 372
#     4  12  23  36  58  84 117 157 206 249 290 345
#     4  10  20  37  61  88 119 157 197 243 299 357
#
# _framework density 19.463051
#
# number of rings (size 3 to 8) (size 9 to 14) (size 15 to 20)
#    0.000    1.727    3.636    1.091    0.000    2.364 
#    0.000    6.364    0.000    0.000    0.000    2.545 
#    0.000    0.000    0.000    0.000    0.000    0.000 
#
# Total GULP energy -491044.094620 kJ/mol
# GULP energy per Si atom -5580.046530 kJ/mol
# Density = 1.941875 g / cm^3
# Si number density = 19.463051 Si / 1000 Ang^3
#
#
#
# Elastic Constant Matrix: (Units=GPa)
#
#
# Indices 1 2 3 4 5 6 
#
# 1 129.4291 5.4258 -0.7069 0.0000 0.0000 0.0000
# 2 5.4258 129.4291 -0.7069 0.0000 0.0000 0.0000
# 3 -0.7069 -0.7069 20.6682 0.0000 0.0000 0.0000
# 4 0.0000 0.0000 0.0000 19.8587 0.0000 0.0000
# 5 0.0000 0.0000 0.0000 0.0000 19.8587 0.0000
# 6 0.0000 0.0000 0.0000 0.0000 0.0000 35.6665
#
#
#
# Elastic Compliance Matrix: (Units=1/GPa)
#
#
# Indices 1 2 3 4 5 6 
#
# 1 0.007741 -0.000323 0.000254 0.000000 0.000000 0.000000
# 2 -0.000323 0.007741 0.000254 0.000000 0.000000 0.000000
# 3 0.000254 0.000254 0.048401 0.000000 0.000000 0.000000
# 4 0.000000 0.000000 0.000000 0.050356 0.000000 0.000000
# 5 0.000000 0.000000 0.000000 0.000000 0.050356 0.000000
# 6 0.000000 0.000000 0.000000 0.000000 0.000000 0.028038
#
#
# Mechanical properties :
#
#
# Convention : Reuss Voigt Hill
#
# Bulk Modulus (GPa) = 15.56378 31.95006 23.75692
# Shear Modulus (GPa) = 23.39934 33.44437 28.42186
#
# Velocity S-wave (km/s) = 3.47110 4.14980 3.82553
# Velocity P-wave (km/s) = 4.90700 6.27794 5.63432
#
# Compressibility (1/GPa) = 0.06425172
#
# Stress axis : x y z
#
# Youngs Moduli (GPa) = 129.17941 129.17941 20.66080
#
# Poissons Ratio (x) = 0.04174 -0.00524
# Poissons Ratio (y) = 0.04174 -0.00524
# Poissons Ratio (z) = -0.03277 -0.03277
#
# Static dielectric constant tensor:
#      x y z
#    x 1.690040 0.000000 0.000000 
#    y 0.000000 1.690040 0.000000 
#    z 0.000000 0.000000 1.707450 
# 
# From -- ./inp_files/4886.got.cif
#   From: 2010.05.17/outbox.cif.g08.bks.cpg/sg140_3_cif.got.tgz:4886.got - 2010.06.21 00:45:31.
