data_PCOD9572733
_publ_section_title
;
Structure prediction by ZEFSAII (Michael W. Deem and Ramdas Pophale) SiO2 
 PCOD9572733
Probable space group: I 41/A M D
;
_chemical_formula_sum "Si O2"
_cell_formula_units_Z 168
_cell_length_a 21.457333
_cell_length_b 21.457333
_cell_length_c 20.680411
_cell_angle_alpha 90.000000
_cell_angle_beta 90.000000
_cell_angle_gamma 90.000000
_cell_volume 9521.615676
_symmetry_space_group_name_H-M "I 41/A M D"
_symmetry_group_IT_number 141
_space_group.IT_coordinate_system_code '2'
_symmetry_cell_setting 'tetragonal'
loop_
_space_group_symop_operation_xyz
x,y,z
1/4-y,3/4+x,1/4+z
-x,1/2-y,z
1/4+y,1/4-x,3/4+z
x,-y,-z
-x,1/2+y,-z
1/4+y,3/4+x,1/4-z
1/4-y,1/4-x,3/4-z
-x,-y,-z
3/4+y,1/4-x,3/4-z
x,1/2+y,-z
3/4-y,3/4+x,1/4-z
-x,y,z
x,1/2-y,z
3/4-y,1/4-x,3/4+z
3/4+y,3/4+x,1/4+z
1/2+x,1/2+y,1/2+z
3/4-y,1/4+x,3/4+z
1/2-x,-y,1/2+z
3/4+y,3/4-x,1/4+z
1/2+x,1/2-y,1/2-z
1/2-x,y,1/2-z
3/4+y,1/4+x,3/4-z
3/4-y,3/4-x,1/4-z
1/2-x,1/2-y,1/2-z
1/4+y,3/4-x,1/4-z
1/2+x,y,1/2-z
1/4-y,1/4+x,3/4-z
1/2-x,1/2+y,1/2+z
1/2+x,-y,1/2+z
1/4-y,3/4-x,1/4+z
1/4+y,1/4+x,3/4+z
loop_
_atom_site_type_symbol
_atom_site_label
_atom_site_fract_x
_atom_site_fract_y
_atom_site_fract_z
Si Si1 0.815367 0.250000 0.460741
Si Si2 0.133083 0.619060 0.879383
Si Si3 0.141658 0.250000 0.603301
Si Si4 0.864091 0.113908 0.277861
Si Si5 0.000000 0.564495 0.368115
Si Si6 0.788562 0.490629 0.686858
Si Si7 0.000000 0.750000 0.793431
Si Si8 0.643979 0.250000 0.238917
O O1 0.813860 0.250000 0.539751
O O2 0.851456 0.315035 0.449426
O O3 0.750590 0.250000 0.420906
O O4 0.139920 0.612117 0.800941
O O5 0.144215 0.690334 0.896501
O O6 0.186558 0.585386 0.918555
O O7 0.063075 0.598093 0.892057
O O8 0.068135 0.250000 0.579083
O O9 0.821694 0.057818 0.303248
O O10 0.844485 0.184225 0.295956
O O11 0.000000 0.562408 0.446851
O O12 0.744923 0.494923 0.625000
O O13 0.750000 0.476688 0.750000
O O14 0.931157 0.750000 0.757983
#
# Coordination Sequence:
#
# PCOD9572733 Si02
#       8
#    16  32  16  32  16  32   8  16
#     4  10  16  26  51  77 106 140 188 226 273 328
#     4  10  19  34  54  82 112 141 185 231 282 342
#     4  10  18  30  51  83 110 142 180 234 282 340
#     4  10  19  34  52  79 111 148 188 231 278 330
#     4  10  16  26  51  81 107 138 181 230 273 320
#     4  12  24  38  56  78 109 148 192 237 285 341
#     4  12  12  24  52  82 107 144 181 228 274 324
#     4  10  18  30  49  79 114 146 190 231 277 326
#
# _framework density 17.644065000000001
#
# number of rings (size 3 to 8) (size 9 to 14) (size 15 to 20)
#    0.000    1.524    9.524    0.000    0.000    0.000 
#    0.000    2.857    0.000    0.000    0.000    1.333 
#    0.000    0.000    0.000    2.857    0.000    0.000 
#
# Total GULP energy -468270.360685 kJ/mol
# GULP energy per Si atom -5574.647151 kJ/mol
# Density = 1.760391 g / cm^3
# Si number density = 17.644065 Si / 1000 Ang^3
#
#
#
# Elastic Constant Matrix: (Units=GPa)
#
#
# Indices 1 2 3 4 5 6 
#
# 1 89.9573 27.9336 43.3334 0.0000 0.0000 0.0000
# 2 27.9336 89.9573 43.3334 0.0000 0.0000 0.0000
# 3 43.3334 43.3334 72.9500 0.0000 0.0000 0.0000
# 4 0.0000 0.0000 0.0000 35.3564 0.0000 0.0000
# 5 0.0000 0.0000 0.0000 0.0000 35.3564 0.0000
# 6 0.0000 0.0000 0.0000 0.0000 0.0000 18.3363
#
#
#
# Elastic Compliance Matrix: (Units=1/GPa)
#
#
# Indices 1 2 3 4 5 6 
#
# 1 0.015590 -0.000532 -0.008945 0.000000 0.000000 0.000000
# 2 -0.000532 0.015590 -0.008945 0.000000 0.000000 0.000000
# 3 -0.008945 -0.008945 0.024335 0.000000 0.000000 0.000000
# 4 0.000000 0.000000 0.000000 0.028283 0.000000 0.000000
# 5 0.000000 0.000000 0.000000 0.000000 0.028283 0.000000
# 6 0.000000 0.000000 0.000000 0.000000 0.000000 0.054537
#
#
# Mechanical properties :
#
#
# Convention : Reuss Voigt Hill
#
# Bulk Modulus (GPa) = 53.55646 53.56280 53.55963
# Shear Modulus (GPa) = 23.84510 27.02743 25.43627
#
# Velocity S-wave (km/s) = 3.68020 3.91809 3.80100
# Velocity P-wave (km/s) = 6.96263 7.13385 7.04876
#
# Compressibility (1/GPa) = 0.01867189
#
# Stress axis : x y z
#
# Youngs Moduli (GPa) = 64.14173 64.14173 41.09373
#
# Poissons Ratio (x) = 0.03415 0.36757
# Poissons Ratio (y) = 0.03415 0.36757
# Poissons Ratio (z) = 0.57373 0.57373
#
# Static dielectric constant tensor:
#      x y z
#    x 1.778290 0.000000 0.000000 
#    y 0.000000 1.778290 0.000000 
#    z 0.000000 0.000000 1.623640 
# 
# From -- ./inp_files/10402.got.cif
#   From: 2010.05.17/outbox.cif.g08.bks.cpg/sg141_6_cif.got.tgz:10402.got - 2010.05.20 13:30:51.
