data_PCOD9572338
_publ_section_title
;
Structure prediction by ZEFSAII (Michael W. Deem and Ramdas Pophale) SiO2 
 PCOD9572338
Probable space group: I 4/M C M
;
_chemical_formula_sum "Si O2"
_cell_formula_units_Z 160
_cell_length_a 23.150132
_cell_length_b 23.150132
_cell_length_c 14.910223
_cell_angle_alpha 90.000000
_cell_angle_beta 90.000000
_cell_angle_gamma 90.000000
_cell_volume 7990.815111
_symmetry_space_group_name_H-M "I 4/M C M"
_symmetry_group_IT_number 140
_symmetry_cell_setting 'tetragonal'
loop_
_space_group_symop_operation_xyz
x,y,z
-y,x,z
-x,-y,z
y,-x,z
x,-y,1/2-z
-x,y,1/2-z
y,x,1/2-z
-y,-x,1/2-z
-x,-y,-z
y,-x,-z
x,y,-z
-y,x,-z
-x,y,1/2+z
x,-y,1/2+z
-y,-x,1/2+z
y,x,1/2+z
1/2+x,1/2+y,1/2+z
1/2-y,1/2+x,1/2+z
1/2-x,1/2-y,1/2+z
1/2+y,1/2-x,1/2+z
1/2+x,1/2-y,-z
1/2-x,1/2+y,-z
1/2+y,1/2+x,-z
1/2-y,1/2-x,-z
1/2-x,1/2-y,1/2-z
1/2+y,1/2-x,1/2-z
1/2+x,1/2+y,1/2-z
1/2-y,1/2+x,1/2-z
1/2-x,1/2+y,z
1/2+x,1/2-y,z
1/2-y,1/2-x,z
1/2+y,1/2+x,z
loop_
_atom_site_type_symbol
_atom_site_label
_atom_site_fract_x
_atom_site_fract_y
_atom_site_fract_z
Si Si1 0.799144 0.532325 0.602288
Si Si2 0.485680 0.326697 0.152130
Si Si3 0.728368 0.681038 0.844154
Si Si4 0.085437 0.322626 0.207392
Si Si5 0.608127 0.379554 0.099776
O O1 0.820864 0.542239 0.500000
O O2 0.729446 0.532333 0.597335
O O3 0.817227 0.470355 0.644012
O O4 0.815855 0.573857 0.685615
O O5 0.500000 0.302473 0.250000
O O6 0.543736 0.356968 0.118003
O O7 0.431982 0.370049 0.160824
O O8 0.704086 0.704086 0.750000
O O9 0.766271 0.733730 0.885244
O O10 0.772718 0.629537 0.822808
O O11 0.674125 0.652380 0.893535
O O12 0.116784 0.383217 0.192667
O O13 0.610089 0.404287 0.000000
#
# Coordination Sequence:
#
# PCOD9572338 Si02
#       5
#    32  32  32  32  32
#     4  11  21  38  62  90 124 163 207 255 312 375
#     4  12  23  41  61  84 119 168 213 258 317 372
#     4  10  20  36  59  85 119 161 204 252 312 376
#     4  10  21  38  61  91 125 161 205 258 312 377
#     4  12  24  38  59  88 120 158 212 267 314 369
#
# _framework density 20.022988999999999
#
# number of rings (size 3 to 8) (size 9 to 14) (size 15 to 20)
#    0.000    1.000    4.000    4.800    0.000    1.600 
#    0.000    4.000    0.000   10.800    0.000    5.600 
#    0.000    0.000    0.000    0.000    0.000    0.000 
#
# Total GULP energy -446486.831905 kJ/mol
# GULP energy per Si atom -5581.085399 kJ/mol
# Density = 1.997742 g / cm^3
# Si number density = 20.022989 Si / 1000 Ang^3
#
#
#
# Elastic Constant Matrix: (Units=GPa)
#
#
# Indices 1 2 3 4 5 6 
#
# 1 63.5065 32.1482 -13.3596 0.0000 0.0000 0.0000
# 2 32.1482 63.5065 -13.3596 0.0000 0.0000 0.0000
# 3 -13.3596 -13.3596 78.1861 0.0000 0.0000 0.0000
# 4 0.0000 0.0000 0.0000 -598.2093 0.0000 0.0000
# 5 0.0000 0.0000 0.0000 0.0000 -598.2093 0.0000
# 6 0.0000 0.0000 0.0000 0.0000 0.0000 31.0180
#
#
#
# Elastic Compliance Matrix: (Units=1/GPa)
#
#
# Indices 1 2 3 4 5 6 
#
# 1 0.021434 -0.010456 0.001876 0.000000 0.000000 0.000000
# 2 -0.010456 0.021434 0.001876 0.000000 0.000000 0.000000
# 3 0.001876 0.001876 0.013431 0.000000 0.000000 0.000000
# 4 0.000000 0.000000 0.000000 -0.001672 0.000000 0.000000
# 5 0.000000 0.000000 0.000000 0.000000 -0.001672 0.000000
# 6 0.000000 0.000000 0.000000 0.000000 0.000000 0.032239
#
#
# Mechanical properties :
#
#
# Convention : Reuss Voigt Hill
#
# Bulk Modulus (GPa) = 23.31494 24.00632 23.66063
# Shear Modulus (GPa) = 44.28712 -219.76211 -87.73749
#
# Velocity S-wave (km/s) = 4.70809 -10.48776 -6.62673
# Velocity P-wave (km/s) = 6.42061 11.60354 6.83440
#
# Compressibility (1/GPa) = 0.04289096
#
# Stress axis : x y z
#
# Youngs Moduli (GPa) = 46.65512 46.65512 74.45440
#
# Poissons Ratio (x) = 0.48781 -0.13967
# Poissons Ratio (y) = 0.48781 -0.13967
# Poissons Ratio (z) = -0.08752 -0.08752
#
# Static dielectric constant tensor:
#      x y z
#    x 1.704860 0.000000 0.000000 
#    y 0.000000 1.704860 0.000000 
#    z 0.000000 0.000000 1.775610 
# 
# From -- ./inp_files/4689.got.cif
#   From: 2010.05.17/outbox.cif.g08.bks.cpg/sg140_3_cif.got.tgz:4689.got - 2010.06.21 00:45:31.
