data_PCOD9572992
_publ_section_title
;
Structure prediction by ZEFSAII (Michael W. Deem and Ramdas Pophale) SiO2 
 PCOD9572992
Probable space group: I 41/A M D
;
_chemical_formula_sum "Si O2"
_cell_formula_units_Z 176
_cell_length_a 29.312223
_cell_length_b 29.312223
_cell_length_c 11.183195
_cell_angle_alpha 90.000000
_cell_angle_beta 90.000000
_cell_angle_gamma 90.000000
_cell_volume 9608.672909
_symmetry_space_group_name_H-M "I 41/A M D"
_symmetry_group_IT_number 141
_space_group.IT_coordinate_system_code '2'
_symmetry_cell_setting 'tetragonal'
loop_
_space_group_symop_operation_xyz
x,y,z
1/4-y,3/4+x,1/4+z
-x,1/2-y,z
1/4+y,1/4-x,3/4+z
x,-y,-z
-x,1/2+y,-z
1/4+y,3/4+x,1/4-z
1/4-y,1/4-x,3/4-z
-x,-y,-z
3/4+y,1/4-x,3/4-z
x,1/2+y,-z
3/4-y,3/4+x,1/4-z
-x,y,z
x,1/2-y,z
3/4-y,1/4-x,3/4+z
3/4+y,3/4+x,1/4+z
1/2+x,1/2+y,1/2+z
3/4-y,1/4+x,3/4+z
1/2-x,-y,1/2+z
3/4+y,3/4-x,1/4+z
1/2+x,1/2-y,1/2-z
1/2-x,y,1/2-z
3/4+y,1/4+x,3/4-z
3/4-y,3/4-x,1/4-z
1/2-x,1/2-y,1/2-z
1/4+y,3/4-x,1/4-z
1/2+x,y,1/2-z
1/4-y,1/4+x,3/4-z
1/2-x,1/2+y,1/2+z
1/2+x,-y,1/2+z
1/4-y,3/4-x,1/4+z
1/4+y,1/4+x,3/4+z
loop_
_atom_site_type_symbol
_atom_site_label
_atom_site_fract_x
_atom_site_fract_y
_atom_site_fract_z
Si Si1 0.733861 0.802706 0.980595
Si Si2 0.336783 0.803551 0.461738
Si Si3 0.134276 0.951122 0.562496
Si Si4 0.946877 0.696877 0.625000
Si Si5 0.113319 0.347287 0.172964
Si Si6 0.826934 0.696241 0.308071
O O1 0.721728 0.750000 0.946256
O O2 0.710555 0.841917 0.902555
O O3 0.788037 0.807986 0.973034
O O4 0.720435 0.808050 0.120257
O O5 0.346104 0.750000 0.451501
O O6 0.374573 0.824803 0.546406
O O7 0.331143 0.821946 0.326800
O O8 0.178897 0.928897 0.625000
O O9 0.116867 0.910331 0.476961
O O10 0.143570 0.000000 0.500000
O O11 0.940974 0.750000 0.588991
O O12 0.911881 0.685143 0.731954
O O13 0.078791 0.387756 0.143697
O O14 0.836799 0.750000 0.304067
#
# Coordination Sequence:
#
# PCOD9572992 Si02
#       6
#    32  32  32  16  32  32
#     4  10  20  36  60  91 120 151 191 250 313 367
#     4  10  21  35  56  87 120 154 195 248 303 360
#     4  12  24  42  65  88 121 159 204 261 311 371
#     4  11  24  40  60  90 130 172 210 250 302 372
#     4  12  21  37  60  88 120 160 205 250 298 361
#     4  10  20  36  58  86 120 157 198 244 302 363
#
# _framework density 18.316787000000001
#
# number of rings (size 3 to 8) (size 9 to 14) (size 15 to 20)
#    0.000    1.182    4.545    2.182    0.000    5.455 
#    0.000    0.000    4.000    0.000    0.000    7.636 
#    0.000    0.000    0.000    0.000    0.000    0.000 
#
# Total GULP energy -490714.855086 kJ/mol
# GULP energy per Si atom -5576.305171 kJ/mol
# Density = 1.827510 g / cm^3
# Si number density = 18.316787 Si / 1000 Ang^3
#
#
#
# Elastic Constant Matrix: (Units=GPa)
#
#
# Indices 1 2 3 4 5 6 
#
# 1 76.6320 36.5125 36.5730 0.0000 0.0000 0.0000
# 2 36.5125 76.6320 36.5730 0.0000 0.0000 0.0000
# 3 36.5730 36.5730 81.9305 0.0000 0.0000 0.0000
# 4 0.0000 0.0000 0.0000 32.2959 0.0000 0.0000
# 5 0.0000 0.0000 0.0000 0.0000 32.2959 0.0000
# 6 0.0000 0.0000 0.0000 0.0000 0.0000 24.3578
#
#
#
# Elastic Compliance Matrix: (Units=1/GPa)
#
#
# Indices 1 2 3 4 5 6 
#
# 1 0.018674 -0.006251 -0.005546 0.000000 0.000000 0.000000
# 2 -0.006251 0.018674 -0.005546 0.000000 0.000000 0.000000
# 3 -0.005546 -0.005546 0.017157 0.000000 0.000000 0.000000
# 4 0.000000 0.000000 0.000000 0.030964 0.000000 0.000000
# 5 0.000000 0.000000 0.000000 0.000000 0.030964 0.000000
# 6 0.000000 0.000000 0.000000 0.000000 0.000000 0.041055
#
#
# Mechanical properties :
#
#
# Convention : Reuss Voigt Hill
#
# Bulk Modulus (GPa) = 50.45246 50.50129 50.47688
# Shear Modulus (GPa) = 25.15351 26.15898 25.65624
#
# Velocity S-wave (km/s) = 3.70976 3.78318 3.74665
# Velocity P-wave (km/s) = 6.77893 6.83477 6.80691
#
# Compressibility (1/GPa) = 0.01982064
#
# Stress axis : x y z
#
# Youngs Moduli (GPa) = 53.54899 53.54899 58.28661
#
# Poissons Ratio (x) = 0.33474 0.32324
# Poissons Ratio (y) = 0.33474 0.32324
# Poissons Ratio (z) = 0.29697 0.29697
#
# Static dielectric constant tensor:
#      x y z
#    x 1.622850 0.000000 0.000000 
#    y 0.000000 1.622850 0.000000 
#    z 0.000000 0.000000 1.668860 
# 
# From -- ./inp_files/5032.got.cif
#   From: 2010.05.17/outbox.cif.g08.bks.cpg/sg141_3_cif.got.tgz:5032.got - 2010.05.20 13:30:51.
