data_PCOD9572009
_publ_section_title
;
Structure prediction by ZEFSAII (Michael W. Deem and Ramdas Pophale) SiO2 
 PCOD9572009
Probable space group: I 4/M C M
;
_chemical_formula_sum "Si O2"
_cell_formula_units_Z 120
_cell_length_a 16.547360
_cell_length_b 16.547360
_cell_length_c 20.859953
_cell_angle_alpha 90.000000
_cell_angle_beta 90.000000
_cell_angle_gamma 90.000000
_cell_volume 5711.770596
_symmetry_space_group_name_H-M "I 4/M C M"
_symmetry_group_IT_number 140
_symmetry_cell_setting 'tetragonal'
loop_
_space_group_symop_operation_xyz
x,y,z
-y,x,z
-x,-y,z
y,-x,z
x,-y,1/2-z
-x,y,1/2-z
y,x,1/2-z
-y,-x,1/2-z
-x,-y,-z
y,-x,-z
x,y,-z
-y,x,-z
-x,y,1/2+z
x,-y,1/2+z
-y,-x,1/2+z
y,x,1/2+z
1/2+x,1/2+y,1/2+z
1/2-y,1/2+x,1/2+z
1/2-x,1/2-y,1/2+z
1/2+y,1/2-x,1/2+z
1/2+x,1/2-y,-z
1/2-x,1/2+y,-z
1/2+y,1/2+x,-z
1/2-y,1/2-x,-z
1/2-x,1/2-y,1/2-z
1/2+y,1/2-x,1/2-z
1/2+x,1/2+y,1/2-z
1/2-y,1/2+x,1/2-z
1/2-x,1/2+y,z
1/2+x,1/2-y,z
1/2-y,1/2-x,z
1/2+y,1/2+x,z
loop_
_atom_site_type_symbol
_atom_site_label
_atom_site_fract_x
_atom_site_fract_y
_atom_site_fract_z
Si Si1 0.461284 0.783611 0.135668
Si Si2 0.950727 0.327116 0.500000
Si Si3 0.517399 0.633989 0.925095
Si Si4 0.882840 0.617161 0.637707
Si Si5 0.140203 0.359798 0.500000
Si Si6 0.316189 0.816189 0.769654
O O1 0.517827 0.704766 0.127200
O O2 0.521922 0.860126 0.138550
O O3 0.392887 0.783098 0.189212
O O4 0.421110 0.786129 0.065089
O O5 0.916563 0.416563 0.500000
O O6 0.046291 0.336676 0.500000
O O7 0.432604 0.586864 0.917469
O O8 0.522926 0.661686 0.000000
O O9 0.840501 0.659500 0.574872
O O10 0.848922 0.651079 0.703004
O O11 0.250000 0.750000 0.750000
#
# Coordination Sequence:
#
# PCOD9572009 Si02
#       6
#    32  16  32  16   8  16
#     4  11  22  41  67  95 134 176 220 275 338 406
#     4  10  17  34  59  98 127 160 213 263 332 387
#     4   9  19  37  64  99 134 172 223 281 341 406
#     4  10  24  44  65  94 127 170 222 271 335 405
#     4   8  19  36  66  88 118 160 212 275 320 392
#     4  12  28  44  61  92 135 184 223 276 336 404
#
# _framework density 21.009247999999999
#
# number of rings (size 3 to 8) (size 9 to 14) (size 15 to 20)
#    0.000    1.867    2.667    1.800    3.733    0.533 
#    0.000    2.667    0.000    0.000    0.000    0.000 
#    0.000    0.000    0.000    0.000    0.000    0.000 
#
# Total GULP energy -334164.845953 kJ/mol
# GULP energy per Si atom -5569.414099 kJ/mol
# Density = 2.096143 g / cm^3
# Si number density = 21.009248 Si / 1000 Ang^3
#
#
#
# Elastic Constant Matrix: (Units=GPa)
#
#
# Indices 1 2 3 4 5 6 
#
# 1 2.5423 100.2920 24.5892 0.0000 0.0000 0.0000
# 2 100.2920 2.5428 24.5901 0.0000 0.0000 0.0000
# 3 24.5892 24.5901 164.4986 0.0000 0.0000 0.0000
# 4 0.0000 0.0000 0.0000 28.3529 0.0000 0.0000
# 5 0.0000 0.0000 0.0000 0.0000 28.3528 0.0000
# 6 0.0000 0.0000 0.0000 0.0000 0.0000 22.3531
#
#
#
# Elastic Compliance Matrix: (Units=1/GPa)
#
#
# Indices 1 2 3 4 5 6 
#
# 1 0.000121 0.010352 -0.001566 0.000000 0.000000 0.000000
# 2 0.010352 0.000121 -0.001566 0.000000 0.000000 0.000000
# 3 -0.001566 -0.001566 0.006547 0.000000 0.000000 0.000000
# 4 0.000000 0.000000 0.000000 0.035270 0.000000 0.000000
# 5 0.000000 0.000000 0.000000 0.000000 0.035270 0.000000
# 6 0.000000 0.000000 0.000000 0.000000 0.000000 0.044737
#
#
# Mechanical properties :
#
#
# Convention : Reuss Voigt Hill
#
# Bulk Modulus (GPa) = 47.10076 52.05849 49.57962
# Shear Modulus (GPa) = 43.59121 17.15258 30.37190
#
# Velocity S-wave (km/s) = 4.56000 2.86042 3.80629
# Velocity P-wave (km/s) = 7.08467 5.97846 6.55494
#
# Compressibility (1/GPa) = 0.02123108
#
# Stress axis : x y z
#
# Youngs Moduli (GPa) = 8237.43171 8235.40935 152.73891
#
# Poissons Ratio (x) = -85.25006 0.23912
# Poissons Ratio (y) = -85.27099 0.23911
# Poissons Ratio (z) = 12.89625 12.89264
#
# Static dielectric constant tensor:
#      x y z
#    x 1.826010 0.000000 0.000000 
#    y 0.000000 1.826000 0.000000 
#    z 0.000000 0.000000 1.791720 
# 
# From -- ./inp_files/8046.got.cif
#   From: 2010.05.17/outbox.cif.g08.bks.cpg/sg140_5_cif.got.tgz:8046.got - 2010.06.21 00:45:31.
