data_PCOD9572123
_publ_section_title
;
Structure prediction by ZEFSAII (Michael W. Deem and Ramdas Pophale) SiO2 
 PCOD9572123
Probable space group: I 4/M C M
;
_chemical_formula_sum "Si O2"
_cell_formula_units_Z 160
_cell_length_a 32.767496
_cell_length_b 32.767496
_cell_length_c 8.741595
_cell_angle_alpha 90.000000
_cell_angle_beta 90.000000
_cell_angle_gamma 90.000000
_cell_volume 9385.927426
_symmetry_space_group_name_H-M "I 4/M C M"
_symmetry_group_IT_number 140
_symmetry_cell_setting 'tetragonal'
loop_
_space_group_symop_operation_xyz
x,y,z
-y,x,z
-x,-y,z
y,-x,z
x,-y,1/2-z
-x,y,1/2-z
y,x,1/2-z
-y,-x,1/2-z
-x,-y,-z
y,-x,-z
x,y,-z
-y,x,-z
-x,y,1/2+z
x,-y,1/2+z
-y,-x,1/2+z
y,x,1/2+z
1/2+x,1/2+y,1/2+z
1/2-y,1/2+x,1/2+z
1/2-x,1/2-y,1/2+z
1/2+y,1/2-x,1/2+z
1/2+x,1/2-y,-z
1/2-x,1/2+y,-z
1/2+y,1/2+x,-z
1/2-y,1/2-x,-z
1/2-x,1/2-y,1/2-z
1/2+y,1/2-x,1/2-z
1/2+x,1/2+y,1/2-z
1/2-y,1/2+x,1/2-z
1/2-x,1/2+y,z
1/2+x,1/2-y,z
1/2-y,1/2-x,z
1/2+y,1/2+x,z
loop_
_atom_site_type_symbol
_atom_site_label
_atom_site_fract_x
_atom_site_fract_y
_atom_site_fract_z
Si Si1 0.167576 0.454903 0.683459
Si Si2 0.324732 0.175269 0.675176
Si Si3 0.391427 0.454684 0.816144
Si Si4 0.105243 0.605243 0.676610
Si Si5 0.387360 0.766259 0.316371
Si Si6 0.328239 0.390982 0.315130
O O1 0.171826 0.500000 0.750000
O O2 0.167288 0.456391 0.500000
O O3 0.126206 0.433133 0.741696
O O4 0.205164 0.425404 0.733076
O O5 0.315419 0.184581 0.500000
O O6 0.359752 0.140249 0.680433
O O7 0.345837 0.213714 0.754589
O O8 0.390373 0.500000 0.750000
O O9 0.430372 0.430372 0.750000
O O10 0.352649 0.429040 0.755732
O O11 0.392353 0.454631 0.000000
O O12 0.096055 0.596055 0.500000
O O13 0.386224 0.768123 0.500000
O O14 0.391959 0.719242 0.271809
O O15 0.351145 0.351145 0.250000
O O16 0.331902 0.391825 0.500000
#
# Coordination Sequence:
#
# PCOD9572123 Si02
#       6
#    32  16  32  16  32  32
#     4  10  19  32  50  75 103 133 167 208 252 299
#     4   9  17  29  50  76 100 128 170 215 258 303
#     4  11  22  38  58  81 107 137 172 212 256 306
#     4   9  17  31  49  71  99 133 167 205 250 301
#     4   9  19  34  52  73 103 137 171 211 259 307
#     4  10  20  36  55  77 104 139 176 212 257 310
#
# _framework density 17.046797000000002
#
# number of rings (size 3 to 8) (size 9 to 14) (size 15 to 20)
#    0.000    2.200    0.000    4.800    0.000    5.800 
#    0.000    3.500    0.000    0.300    0.000    2.100 
#    0.000    0.000    0.000    0.000    0.000    0.000 
#
# Total GULP energy -446304.419759 kJ/mol
# GULP energy per Si atom -5578.805247 kJ/mol
# Density = 1.700800 g / cm^3
# Si number density = 17.046797 Si / 1000 Ang^3
#
#
#
# Elastic Constant Matrix: (Units=GPa)
#
#
# Indices 1 2 3 4 5 6 
#
# 1 94.5863 133.5194 54.1720 0.0000 0.0000 0.0000
# 2 133.5194 94.5867 54.1725 0.0000 0.0000 0.0000
# 3 54.1720 54.1725 87.0785 0.0000 0.0000 0.0000
# 4 0.0000 0.0000 0.0000 29.9430 0.0000 0.0000
# 5 0.0000 0.0000 0.0000 0.0000 29.9430 0.0000
# 6 0.0000 0.0000 0.0000 0.0000 0.0000 6.9669
#
#
#
# Elastic Compliance Matrix: (Units=1/GPa)
#
#
# Indices 1 2 3 4 5 6 
#
# 1 -0.009731 0.015954 -0.003871 0.000000 0.000000 0.000000
# 2 0.015954 -0.009731 -0.003871 0.000000 0.000000 0.000000
# 3 -0.003871 -0.003871 0.016300 0.000000 0.000000 0.000000
# 4 0.000000 0.000000 0.000000 0.033397 0.000000 0.000000
# 5 0.000000 0.000000 0.000000 0.000000 0.033397 0.000000
# 6 0.000000 0.000000 0.000000 0.000000 0.000000 0.143536
#
#
# Mechanical properties :
#
#
# Convention : Reuss Voigt Hill
#
# Bulk Modulus (GPa) = 75.40851 84.44212 79.92531
# Shear Modulus (GPa) = 25.61942 15.66309 20.64125
#
# Velocity S-wave (km/s) = 3.88091 3.03451 3.48351
# Velocity P-wave (km/s) = 8.02585 7.86897 7.94779
#
# Compressibility (1/GPa) = 0.01326110
#
# Stress axis : x y z
#
# Youngs Moduli (GPa) = -102.76125 -102.76080 61.34807
#
# Poissons Ratio (x) = 1.63944 0.23749
# Poissons Ratio (y) = 1.63945 0.23748
# Poissons Ratio (z) = -0.39781 -0.39779
#
# Static dielectric constant tensor:
#      x y z
#    x 1.562340 0.000000 0.000000 
#    y 0.000000 1.562340 0.000000 
#    z 0.000000 0.000000 1.574180 
# 
# From -- ./inp_files/1859.got.cif
#   From: 2010.05.17/outbox.cif.g08.bks.cpg/sg140_1_cif.got.tgz:1859.got - 2010.06.21 00:45:31.
