data_PCOD9572453
_publ_section_title
;
Structure prediction by ZEFSAII (Michael W. Deem and Ramdas Pophale) SiO2 
 PCOD9572453
Probable space group: I 4/M C M
;
_chemical_formula_sum "Si O2"
_cell_formula_units_Z 128
_cell_length_a 19.249158
_cell_length_b 19.249158
_cell_length_c 17.480531
_cell_angle_alpha 90.000000
_cell_angle_beta 90.000000
_cell_angle_gamma 90.000000
_cell_volume 6477.062615
_symmetry_space_group_name_H-M "I 4/M C M"
_symmetry_group_IT_number 140
_symmetry_cell_setting 'tetragonal'
loop_
_space_group_symop_operation_xyz
x,y,z
-y,x,z
-x,-y,z
y,-x,z
x,-y,1/2-z
-x,y,1/2-z
y,x,1/2-z
-y,-x,1/2-z
-x,-y,-z
y,-x,-z
x,y,-z
-y,x,-z
-x,y,1/2+z
x,-y,1/2+z
-y,-x,1/2+z
y,x,1/2+z
1/2+x,1/2+y,1/2+z
1/2-y,1/2+x,1/2+z
1/2-x,1/2-y,1/2+z
1/2+y,1/2-x,1/2+z
1/2+x,1/2-y,-z
1/2-x,1/2+y,-z
1/2+y,1/2+x,-z
1/2-y,1/2-x,-z
1/2-x,1/2-y,1/2-z
1/2+y,1/2-x,1/2-z
1/2+x,1/2+y,1/2-z
1/2-y,1/2+x,1/2-z
1/2-x,1/2+y,z
1/2+x,1/2-y,z
1/2-y,1/2-x,z
1/2+y,1/2+x,z
loop_
_atom_site_type_symbol
_atom_site_label
_atom_site_fract_x
_atom_site_fract_y
_atom_site_fract_z
Si Si1 0.252558 0.452174 0.841868
Si Si2 0.905278 0.288182 0.172196
Si Si3 0.304930 0.312432 0.914906
Si Si4 0.883763 0.996876 0.413026
O O1 0.227088 0.422873 0.760893
O O2 0.204303 0.517792 0.865250
O O3 0.269197 0.384699 0.892236
O O4 0.327479 0.489776 0.846974
O O5 0.854701 0.354701 0.163924
O O6 0.862873 0.222060 0.139179
O O7 0.243778 0.256223 0.915273
O O8 0.334788 0.318105 0.000000
O O9 0.853741 0.996026 0.500000
O O10 0.935451 0.931435 0.407046
#
# Coordination Sequence:
#
# PCOD9572453 Si02
#       4
#    32  32  32  32
#     4  11  20  33  59  83 106 146 195 236 274 328
#     4  10  23  40  56  80 115 151 187 231 285 339
#     4  10  21  37  58  84 114 148 186 231 284 340
#     4   9  18  32  51  81 121 155 181 218 274 341
#
# _framework density 19.762043999999999
#
# number of rings (size 3 to 8) (size 9 to 14) (size 15 to 20)
#    0.000    2.000    0.000    4.500    0.000    8.000 
#    0.000    0.000    0.000   18.750    0.000    1.750 
#    0.000    0.000    0.000    0.000    0.000    0.000 
#
# Total GULP energy -356644.034565 kJ/mol
# GULP energy per Si atom -5572.563040 kJ/mol
# Density = 1.971706 g / cm^3
# Si number density = 19.762044 Si / 1000 Ang^3
#
#
#
# Elastic Constant Matrix: (Units=GPa)
#
#
# Indices 1 2 3 4 5 6 
#
# 1 119.9742 44.7417 34.7292 0.0000 0.0000 0.0000
# 2 44.7417 119.9742 34.7292 0.0000 0.0000 0.0000
# 3 34.7292 34.7292 36.4744 0.0000 0.0000 0.0000
# 4 0.0000 0.0000 0.0000 22.7095 0.0000 0.0000
# 5 0.0000 0.0000 0.0000 0.0000 22.7095 0.0000
# 6 0.0000 0.0000 0.0000 0.0000 0.0000 23.7642
#
#
#
# Elastic Compliance Matrix: (Units=1/GPa)
#
#
# Indices 1 2 3 4 5 6 
#
# 1 0.011718 -0.001574 -0.009659 0.000000 0.000000 0.000000
# 2 -0.001574 0.011718 -0.009659 0.000000 0.000000 0.000000
# 3 -0.009659 -0.009659 0.045809 0.000000 0.000000 0.000000
# 4 0.000000 0.000000 0.000000 0.044034 0.000000 0.000000
# 5 0.000000 0.000000 0.000000 0.000000 0.044034 0.000000
# 6 0.000000 0.000000 0.000000 0.000000 0.000000 0.042080
#
#
# Mechanical properties :
#
#
# Convention : Reuss Voigt Hill
#
# Bulk Modulus (GPa) = 36.41274 56.09145 46.25210
# Shear Modulus (GPa) = 19.97356 24.65151 22.31254
#
# Velocity S-wave (km/s) = 3.18260 3.53571 3.36379
# Velocity P-wave (km/s) = 5.65428 6.71665 6.20823
#
# Compressibility (1/GPa) = 0.02746291
#
# Stress axis : x y z
#
# Youngs Moduli (GPa) = 85.33856 85.33856 21.82962
#
# Poissons Ratio (x) = 0.13433 0.21084
# Poissons Ratio (y) = 0.13433 0.21084
# Poissons Ratio (z) = 0.82425 0.82425
#
# Static dielectric constant tensor:
#      x y z
#    x 1.736040 0.000000 0.000000 
#    y 0.000000 1.736040 0.000000 
#    z 0.000000 0.000000 1.720960 
# 
# From -- ./inp_files/6491.got.cif
#   From: 2010.05.17/outbox.cif.g08.bks.cpg/sg140_4_cif.got.tgz:6491.got - 2010.06.21 00:45:31.
