data_PCOD9572289
_publ_section_title
;
Structure prediction by ZEFSAII (Michael W. Deem and Ramdas Pophale) SiO2 
 PCOD9572289
Probable space group: I 4/M C M
;
_chemical_formula_sum "Si O2"
_cell_formula_units_Z 160
_cell_length_a 21.225948
_cell_length_b 21.225948
_cell_length_c 18.332951
_cell_angle_alpha 90.000000
_cell_angle_beta 90.000000
_cell_angle_gamma 90.000000
_cell_volume 8259.743666
_symmetry_space_group_name_H-M "I 4/M C M"
_symmetry_group_IT_number 140
_symmetry_cell_setting 'tetragonal'
loop_
_space_group_symop_operation_xyz
x,y,z
-y,x,z
-x,-y,z
y,-x,z
x,-y,1/2-z
-x,y,1/2-z
y,x,1/2-z
-y,-x,1/2-z
-x,-y,-z
y,-x,-z
x,y,-z
-y,x,-z
-x,y,1/2+z
x,-y,1/2+z
-y,-x,1/2+z
y,x,1/2+z
1/2+x,1/2+y,1/2+z
1/2-y,1/2+x,1/2+z
1/2-x,1/2-y,1/2+z
1/2+y,1/2-x,1/2+z
1/2+x,1/2-y,-z
1/2-x,1/2+y,-z
1/2+y,1/2+x,-z
1/2-y,1/2-x,-z
1/2-x,1/2-y,1/2-z
1/2+y,1/2-x,1/2-z
1/2+x,1/2+y,1/2-z
1/2-y,1/2+x,1/2-z
1/2-x,1/2+y,z
1/2+x,1/2-y,z
1/2-y,1/2-x,z
1/2+y,1/2+x,z
loop_
_atom_site_type_symbol
_atom_site_label
_atom_site_fract_x
_atom_site_fract_y
_atom_site_fract_z
Si Si1 0.065141 0.171363 0.586509
Si Si2 0.256236 0.651647 0.292279
Si Si3 0.399572 0.003618 0.338057
Si Si4 0.578073 0.327201 0.088300
Si Si5 0.800065 0.594031 0.652666
O O1 0.060034 0.169306 0.500000
O O2 0.106674 0.111543 0.607271
O O3 0.099128 0.235999 0.608216
O O4 0.993937 0.172249 0.614305
O O5 0.315274 0.684727 0.250000
O O6 0.208033 0.708033 0.308055
O O7 0.276744 0.616848 0.365256
O O8 0.221297 0.604101 0.236492
O O9 0.452724 0.952724 0.361191
O O10 0.334067 0.972860 0.362624
O O11 0.398098 0.000000 0.250000
O O12 0.427784 0.072217 0.358243
O O13 0.581524 0.317965 0.000000
O O14 0.850412 0.649589 0.637366
#
# Coordination Sequence:
#
# PCOD9572289 Si02
#       5
#    32  32  32  32  32
#     4  10  22  39  59  82 108 147 193 234 289 352
#     4  10  20  36  57  87 119 147 185 230 284 344
#     4   8  15  28  46  73 107 144 187 225 264 319
#     4  10  22  40  59  81 112 149 190 237 287 344
#     4  10  20  34  56  86 118 151 187 238 287 332
#
# _framework density 19.371061999999998
#
# number of rings (size 3 to 8) (size 9 to 14) (size 15 to 20)
#    0.000    2.400    2.000    0.600    2.800    1.200 
#    0.000    4.000    0.000    1.800    0.000    2.800 
#    0.000    0.000    0.000    7.800    0.000    0.000 
#
# Total GULP energy -445787.929290 kJ/mol
# GULP energy per Si atom -5572.349116 kJ/mol
# Density = 1.932697 g / cm^3
# Si number density = 19.371062 Si / 1000 Ang^3
#
#
#
# Elastic Constant Matrix: (Units=GPa)
#
#
# Indices 1 2 3 4 5 6 
#
# 1 76.3192 29.4858 7.3196 0.0000 0.0000 0.0000
# 2 29.4858 76.3199 7.3188 0.0000 0.0000 0.0000
# 3 7.3196 7.3188 -17.7358 0.0000 0.0000 0.0000
# 4 0.0000 0.0000 0.0000 21.9892 0.0000 0.0000
# 5 0.0000 0.0000 0.0000 0.0000 21.9891 0.0000
# 6 0.0000 0.0000 0.0000 0.0000 0.0000 18.8933
#
#
#
# Elastic Compliance Matrix: (Units=1/GPa)
#
#
# Indices 1 2 3 4 5 6 
#
# 1 0.015146 -0.006206 0.003690 0.000000 0.000000 0.000000
# 2 -0.006206 0.015146 0.003689 0.000000 0.000000 0.000000
# 3 0.003690 0.003689 -0.053338 0.000000 0.000000 0.000000
# 4 0.000000 0.000000 0.000000 0.045477 0.000000 0.000000
# 5 0.000000 0.000000 0.000000 0.000000 0.045477 0.000000
# 6 0.000000 0.000000 0.000000 0.000000 0.000000 0.052929
#
#
# Mechanical properties :
#
#
# Convention : Reuss Voigt Hill
#
# Bulk Modulus (GPa) = -48.31539 24.79463 -11.76038
# Shear Modulus (GPa) = 44.80634 18.62625 31.71630
#
# Velocity S-wave (km/s) = 4.81464 3.10425 4.05075
# Velocity P-wave (km/s) = 2.43136 5.06716 3.97414
#
# Compressibility (1/GPa) = -0.02069734
#
# Stress axis : x y z
#
# Youngs Moduli (GPa) = 66.02190 66.02194 -18.74842
#
# Poissons Ratio (x) = 0.40971 0.06918
# Poissons Ratio (y) = 0.40971 0.06917
# Poissons Ratio (z) = -0.24363 -0.24357
#
# Static dielectric constant tensor:
#      x y z
#    x 1.711570 0.000000 0.000000 
#    y 0.000000 1.711560 0.000000 
#    z 0.000000 0.000000 1.652990 
# 
# From -- ./inp_files/6820.got.cif
#   From: 2010.05.17/outbox.cif.g08.bks.cpg/sg140_4_cif.got.tgz:6820.got - 2010.06.21 00:45:31.
