data_PCOD9572546
_publ_section_title
;
Structure prediction by ZEFSAII (Michael W. Deem and Ramdas Pophale) SiO2 
 PCOD9572546
Probable space group: I 4/M C M
;
_chemical_formula_sum "Si O2"
_cell_formula_units_Z 64
_cell_length_a 18.809054
_cell_length_b 18.809054
_cell_length_c 7.878402
_cell_angle_alpha 90.000000
_cell_angle_beta 90.000000
_cell_angle_gamma 90.000000
_cell_volume 2787.225096
_symmetry_space_group_name_H-M "I 4/M C M"
_symmetry_group_IT_number 140
_symmetry_cell_setting 'tetragonal'
loop_
_space_group_symop_operation_xyz
x,y,z
-y,x,z
-x,-y,z
y,-x,z
x,-y,1/2-z
-x,y,1/2-z
y,x,1/2-z
-y,-x,1/2-z
-x,-y,-z
y,-x,-z
x,y,-z
-y,x,-z
-x,y,1/2+z
x,-y,1/2+z
-y,-x,1/2+z
y,x,1/2+z
1/2+x,1/2+y,1/2+z
1/2-y,1/2+x,1/2+z
1/2-x,1/2-y,1/2+z
1/2+y,1/2-x,1/2+z
1/2+x,1/2-y,-z
1/2-x,1/2+y,-z
1/2+y,1/2+x,-z
1/2-y,1/2-x,-z
1/2-x,1/2-y,1/2-z
1/2+y,1/2-x,1/2-z
1/2+x,1/2+y,1/2-z
1/2-y,1/2+x,1/2-z
1/2-x,1/2+y,z
1/2+x,1/2-y,z
1/2-y,1/2-x,z
1/2+y,1/2+x,z
loop_
_atom_site_type_symbol
_atom_site_label
_atom_site_fract_x
_atom_site_fract_y
_atom_site_fract_z
Si Si1 0.417169 0.691570 0.701739
Si Si2 0.812053 0.312053 0.809647
Si Si3 0.419526 0.919526 0.200494
O O1 0.500000 0.702073 0.750000
O O2 0.385543 0.614458 0.750000
O O3 0.414697 0.700228 0.500000
O O4 0.358271 0.748051 0.773665
O O5 0.871468 0.371468 0.815523
O O6 0.789474 0.289474 0.000000
O O7 0.500000 0.904459 0.250000
O O8 0.408071 0.908071 0.000000
#
# Coordination Sequence:
#
# PCOD9572546 Si02
#       3
#    32  16  16
#     4  11  24  43  67  96 130 169 214 264 319 379
#     4  10  22  40  63  93 127 162 205 257 315 378
#     4  11  21  33  52  79 117 163 210 258 310 370
#
# _framework density 22.961907
#
# number of rings (size 3 to 8) (size 9 to 14) (size 15 to 20)
#    0.000    1.250    0.000    6.750    0.000    8.500 
#    0.000    2.500    0.000    0.000    0.000    0.000 
#    0.000    0.000    0.000    0.000    0.000    0.000 
#
# Total GULP energy -178466.142612 kJ/mol
# GULP energy per Si atom -5577.066957 kJ/mol
# Density = 2.290964 g / cm^3
# Si number density = 22.961907 Si / 1000 Ang^3
#
#
#
# Elastic Constant Matrix: (Units=GPa)
#
#
# Indices 1 2 3 4 5 6 
#
# 1 130.6318 92.5337 14.5269 0.0000 0.0000 0.0000
# 2 92.5337 130.6509 14.5266 0.0000 0.0000 0.0000
# 3 14.5269 14.5266 103.0443 0.0000 0.0000 0.0000
# 4 0.0000 0.0000 0.0000 19.7921 0.0000 0.0000
# 5 0.0000 0.0000 0.0000 0.0000 19.7914 0.0000
# 6 0.0000 0.0000 0.0000 0.0000 0.0000 42.3939
#
#
#
# Elastic Compliance Matrix: (Units=1/GPa)
#
#
# Indices 1 2 3 4 5 6 
#
# 1 0.015404 -0.010838 -0.000644 0.000000 0.000000 0.000000
# 2 -0.010838 0.015402 -0.000643 0.000000 0.000000 0.000000
# 3 -0.000644 -0.000643 0.009886 0.000000 0.000000 0.000000
# 4 0.000000 0.000000 0.000000 0.050525 0.000000 0.000000
# 5 0.000000 0.000000 0.000000 0.000000 0.050527 0.000000
# 6 0.000000 0.000000 0.000000 0.000000 0.000000 0.023588
#
#
# Mechanical properties :
#
#
# Convention : Reuss Voigt Hill
#
# Bulk Modulus (GPa) = 60.82301 67.50015 64.16158
# Shear Modulus (GPa) = 25.63264 32.57814 29.10539
#
# Velocity S-wave (km/s) = 3.34475 3.77077 3.56413
# Velocity P-wave (km/s) = 6.43915 6.95835 6.70378
#
# Compressibility (1/GPa) = 0.01644115
#
# Stress axis : x y z
#
# Youngs Moduli (GPa) = 64.91755 64.92724 101.15317
#
# Poissons Ratio (x) = 0.70371 0.06511
# Poissons Ratio (y) = 0.70361 0.06507
# Poissons Ratio (z) = 0.04179 0.04177
#
# Static dielectric constant tensor:
#      x y z
#    x 1.872240 0.000000 0.000000 
#    y 0.000000 1.872230 0.000000 
#    z 0.000000 0.000000 1.993990 
# 
# From -- ./inp_files/596.got.cif
#   From: 2010.05.17/outbox.cif.g08.bks.cpg/sg140_1_cif.got.tgz:596.got - 2010.06.21 00:45:31.
