data_PCOD9572350
_publ_section_title
;
Structure prediction by ZEFSAII (Michael W. Deem and Ramdas Pophale) SiO2 
 PCOD9572350
Probable space group: I 4/M C M
;
_chemical_formula_sum "Si O2"
_cell_formula_units_Z 116
_cell_length_a 24.794036
_cell_length_b 24.794036
_cell_length_c 10.666545
_cell_angle_alpha 90.000000
_cell_angle_beta 90.000000
_cell_angle_gamma 90.000000
_cell_volume 6557.196899
_symmetry_space_group_name_H-M "I 4/M C M"
_symmetry_group_IT_number 140
_symmetry_cell_setting 'tetragonal'
loop_
_space_group_symop_operation_xyz
x,y,z
-y,x,z
-x,-y,z
y,-x,z
x,-y,1/2-z
-x,y,1/2-z
y,x,1/2-z
-y,-x,1/2-z
-x,-y,-z
y,-x,-z
x,y,-z
-y,x,-z
-x,y,1/2+z
x,-y,1/2+z
-y,-x,1/2+z
y,x,1/2+z
1/2+x,1/2+y,1/2+z
1/2-y,1/2+x,1/2+z
1/2-x,1/2-y,1/2+z
1/2+y,1/2-x,1/2+z
1/2+x,1/2-y,-z
1/2-x,1/2+y,-z
1/2+y,1/2+x,-z
1/2-y,1/2-x,-z
1/2-x,1/2-y,1/2-z
1/2+y,1/2-x,1/2-z
1/2+x,1/2+y,1/2-z
1/2-y,1/2+x,1/2-z
1/2-x,1/2+y,z
1/2+x,1/2-y,z
1/2-y,1/2-x,z
1/2+y,1/2+x,z
loop_
_atom_site_type_symbol
_atom_site_label
_atom_site_fract_x
_atom_site_fract_y
_atom_site_fract_z
Si Si1 0.388358 0.383903 0.000000
Si Si2 0.085645 0.414356 0.849814
Si Si3 0.500000 0.000000 0.750000
Si Si4 0.263166 0.567903 0.000000
Si Si5 0.936192 0.936192 0.250000
Si Si6 0.205243 0.436468 0.755753
Si Si7 0.064726 0.229265 0.000000
O O1 0.413923 0.408807 0.874668
O O2 0.327443 0.405275 0.000000
O O3 0.401445 0.320275 0.000000
O O4 0.142360 0.429215 0.785538
O O5 0.040097 0.459904 0.825469
O O6 0.091948 0.408053 0.000000
O O7 0.228643 0.583279 0.123408
O O8 0.274057 0.501904 0.000000
O O9 0.000000 0.926434 0.250000
O O10 0.214648 0.500000 0.750000
O O11 0.238665 0.417363 0.876015
#
# Coordination Sequence:
#
# PCOD9572350 Si02
#       7
#    16  16   4  16  16  32  16
#     4  12  22  37  60  83 120 160 216 272 302 360
#     4  12  23  42  64  97 134 165 191 237 308 372
#     4  12  26  36  68 110 136 154 192 240 298 406
#     4  10  22  37  57  89 117 161 216 259 307 355
#     4  11  22  34  52  84 122 159 194 252 340 399
#     4  10  21  38  61  86 122 162 203 243 301 375
#     4  10  20  37  59  83 115 163 208 253 311 367
#
# _framework density 17.690487000000001
#
# number of rings (size 3 to 8) (size 9 to 14) (size 15 to 20)
#    0.000    1.241    2.759    4.345    0.000    3.862 
#    2.483    0.000    0.000    4.966    0.000    0.000 
#    0.000    0.000    0.000    0.000    0.000    0.000 
#
# Total GULP energy -323530.077658 kJ/mol
# GULP energy per Si atom -5578.104787 kJ/mol
# Density = 1.765022 g / cm^3
# Si number density = 17.690487 Si / 1000 Ang^3
#
#
#
# Elastic Constant Matrix: (Units=GPa)
#
#
# Indices 1 2 3 4 5 6 
#
# 1 101.1558 39.7103 72.5180 0.0000 0.0000 0.0000
# 2 39.7103 101.1532 72.5168 0.0000 0.0000 0.0000
# 3 72.5180 72.5168 201.6757 0.0000 0.0000 0.0000
# 4 0.0000 0.0000 0.0000 30.7489 0.0000 0.0000
# 5 0.0000 0.0000 0.0000 0.0000 30.7492 0.0000
# 6 0.0000 0.0000 0.0000 0.0000 0.0000 25.7373
#
#
#
# Elastic Compliance Matrix: (Units=1/GPa)
#
#
# Indices 1 2 3 4 5 6 
#
# 1 0.013773 -0.002501 -0.004053 0.000000 0.000000 0.000000
# 2 -0.002501 0.013774 -0.004053 0.000000 0.000000 0.000000
# 3 -0.004053 -0.004053 0.007873 0.000000 0.000000 0.000000
# 4 0.000000 0.000000 0.000000 0.032521 0.000000 0.000000
# 5 0.000000 0.000000 0.000000 0.000000 0.032521 0.000000
# 6 0.000000 0.000000 0.000000 0.000000 0.000000 0.038854
#
#
# Mechanical properties :
#
#
# Convention : Reuss Voigt Hill
#
# Bulk Modulus (GPa) = 70.39818 85.94167 78.16992
# Shear Modulus (GPa) = 30.25394 32.06304 31.15849
#
# Velocity S-wave (km/s) = 4.13992 4.26190 4.20135
# Velocity P-wave (km/s) = 7.92040 8.53842 8.23521
#
# Compressibility (1/GPa) = 0.01420491
#
# Stress axis : x y z
#
# Youngs Moduli (GPa) = 72.60370 72.60200 127.01149
#
# Poissons Ratio (x) = 0.18161 0.51480
# Poissons Ratio (y) = 0.18161 0.51480
# Poissons Ratio (z) = 0.29428 0.29427
#
# Static dielectric constant tensor:
#      x y z
#    x 1.623180 0.000000 0.000000 
#    y 0.000000 1.623190 0.000000 
#    z 0.000000 0.000000 1.615420 
# 
# From -- ./inp_files/1281.got.cif
#   From: 2010.05.17/outbox.cif.g08.bks.cpg/sg140_1_cif.got.tgz:1281.got - 2010.06.21 00:45:31.
