data_PCOD9572815
_publ_section_title
;
Structure prediction by ZEFSAII (Michael W. Deem and Ramdas Pophale) SiO2 
 PCOD9572815
Probable space group: I 41/A M D
;
_chemical_formula_sum "Si O2"
_cell_formula_units_Z 192
_cell_length_a 26.108066
_cell_length_b 26.108066
_cell_length_c 10.653389
_cell_angle_alpha 90.000000
_cell_angle_beta 90.000000
_cell_angle_gamma 90.000000
_cell_volume 7261.681372
_symmetry_space_group_name_H-M "I 41/A M D"
_symmetry_group_IT_number 141
_space_group.IT_coordinate_system_code '2'
_symmetry_cell_setting 'tetragonal'
loop_
_space_group_symop_operation_xyz
x,y,z
1/4-y,3/4+x,1/4+z
-x,1/2-y,z
1/4+y,1/4-x,3/4+z
x,-y,-z
-x,1/2+y,-z
1/4+y,3/4+x,1/4-z
1/4-y,1/4-x,3/4-z
-x,-y,-z
3/4+y,1/4-x,3/4-z
x,1/2+y,-z
3/4-y,3/4+x,1/4-z
-x,y,z
x,1/2-y,z
3/4-y,1/4-x,3/4+z
3/4+y,3/4+x,1/4+z
1/2+x,1/2+y,1/2+z
3/4-y,1/4+x,3/4+z
1/2-x,-y,1/2+z
3/4+y,3/4-x,1/4+z
1/2+x,1/2-y,1/2-z
1/2-x,y,1/2-z
3/4+y,1/4+x,3/4-z
3/4-y,3/4-x,1/4-z
1/2-x,1/2-y,1/2-z
1/4+y,3/4-x,1/4-z
1/2+x,y,1/2-z
1/4-y,1/4+x,3/4-z
1/2-x,1/2+y,1/2+z
1/2+x,-y,1/2+z
1/4-y,3/4-x,1/4+z
1/4+y,1/4+x,3/4+z
loop_
_atom_site_type_symbol
_atom_site_label
_atom_site_fract_x
_atom_site_fract_y
_atom_site_fract_z
Si Si1 0.888781 0.082591 0.684099
Si Si2 0.145733 0.193040 0.719865
Si Si3 0.442302 0.058080 0.056434
Si Si4 0.795017 0.945190 0.481800
Si Si5 0.736903 0.160534 0.935759
Si Si6 0.941541 0.809741 0.492828
O O1 0.865866 0.132573 0.750778
O O2 0.922517 0.092914 0.558453
O O3 0.843308 0.051018 0.613100
O O4 0.921562 0.045380 0.775364
O O5 0.140476 0.250000 0.783623
O O6 0.203947 0.189318 0.667982
O O7 0.101406 0.193592 0.614049
O O8 0.500000 0.073121 0.084918
O O9 0.417206 0.048816 0.190946
O O10 0.442049 0.000000 0.000000
O O11 0.814739 0.935262 0.625000
O O12 0.762965 0.900481 0.418257
O O13 0.769369 0.000000 0.500000
O O14 0.945941 0.750000 0.528946
O O15 0.919037 0.830964 0.625000
O O16 0.000000 0.824631 0.452916
#
# Coordination Sequence:
#
# PCOD9572815 Si02
#       6
#    32  32  32  32  32  32
#     4  10  19  29  42  56  80 112 143 178 222 269
#     4  10  21  30  42  59  80 109 146 193 231 269
#     4   9  16  25  37  55  78 105 139 176 210 249
#     4  11  17  28  44  59  80 107 138 172 217 266
#     4  10  19  30  41  58  80 108 141 177 225 266
#     4   8  15  27  37  46  65  97 138 180 220 254
#
# _framework density 26.440156000000002
#
# number of rings (size 3 to 8) (size 9 to 14) (size 15 to 20)
#    0.000    2.333    3.333    1.500    2.333    1.333 
#    0.000    0.000    0.000    0.000    0.000    0.000 
#    0.000    0.667    0.000    0.000    0.000    0.167 
#
# Total GULP energy -534511.309208 kJ/mol
# GULP energy per Si atom -5567.826138 kJ/mol
# Density = 2.637998 g / cm^3
# Si number density = 26.440156 Si / 1000 Ang^3
#
#
#
# Elastic Constant Matrix: (Units=GPa)
#
#
# Indices 1 2 3 4 5 6 
#
# 1 108.8362 20.2597 16.3123 0.0000 0.0000 0.0000
# 2 20.2597 108.8371 16.3124 0.0000 0.0000 0.0000
# 3 16.3123 16.3124 72.4225 0.0000 0.0000 0.0000
# 4 0.0000 0.0000 0.0000 5.1660 0.0000 0.0000
# 5 0.0000 0.0000 0.0000 0.0000 5.1656 0.0000
# 6 0.0000 0.0000 0.0000 0.0000 0.0000 21.1522
#
#
#
# Elastic Compliance Matrix: (Units=1/GPa)
#
#
# Indices 1 2 3 4 5 6 
#
# 1 0.009752 -0.001538 -0.001850 0.000000 0.000000 0.000000
# 2 -0.001538 0.009752 -0.001850 0.000000 0.000000 0.000000
# 3 -0.001850 -0.001850 0.014641 0.000000 0.000000 0.000000
# 4 0.000000 0.000000 0.000000 0.193572 0.000000 0.000000
# 5 0.000000 0.000000 0.000000 0.000000 0.193590 0.000000
# 6 0.000000 0.000000 0.000000 0.000000 0.000000 0.047276
#
#
# Mechanical properties :
#
#
# Convention : Reuss Voigt Hill
#
# Bulk Modulus (GPa) = 42.25027 43.98493 43.11760
# Shear Modulus (GPa) = 10.26803 22.11085 16.18944
#
# Velocity S-wave (km/s) = 1.97280 2.89495 2.47716
# Velocity P-wave (km/s) = 4.60473 5.27694 4.95225
#
# Compressibility (1/GPa) = 0.02366849
#
# Stress axis : x y z
#
# Youngs Moduli (GPa) = 102.54627 102.54710 68.30008
#
# Poissons Ratio (x) = 0.15771 0.12636
# Poissons Ratio (y) = 0.15771 0.12636
# Poissons Ratio (z) = 0.18972 0.18972
#
# Static dielectric constant tensor:
#      x y z
#    x 2.183060 0.000000 0.000000 
#    y 0.000000 2.183060 0.000000 
#    z 0.000000 0.000000 2.250140 
# 
# From -- ./inp_files/6932.got.cif
#   From: 2010.05.17/outbox.cif.g08.bks.cpg/sg141_4_cif.got.tgz:6932.got - 2010.05.20 13:30:51.
