data_PCOD9572535
_publ_section_title
;
Structure prediction by ZEFSAII (Michael W. Deem and Ramdas Pophale) SiO2 
 PCOD9572535
Probable space group: I 4/M C M
;
_chemical_formula_sum "Si O2"
_cell_formula_units_Z 128
_cell_length_a 21.608690
_cell_length_b 21.608690
_cell_length_c 14.435170
_cell_angle_alpha 90.000000
_cell_angle_beta 90.000000
_cell_angle_gamma 90.000000
_cell_volume 6740.293084
_symmetry_space_group_name_H-M "I 4/M C M"
_symmetry_group_IT_number 140
_symmetry_cell_setting 'tetragonal'
loop_
_space_group_symop_operation_xyz
x,y,z
-y,x,z
-x,-y,z
y,-x,z
x,-y,1/2-z
-x,y,1/2-z
y,x,1/2-z
-y,-x,1/2-z
-x,-y,-z
y,-x,-z
x,y,-z
-y,x,-z
-x,y,1/2+z
x,-y,1/2+z
-y,-x,1/2+z
y,x,1/2+z
1/2+x,1/2+y,1/2+z
1/2-y,1/2+x,1/2+z
1/2-x,1/2-y,1/2+z
1/2+y,1/2-x,1/2+z
1/2+x,1/2-y,-z
1/2-x,1/2+y,-z
1/2+y,1/2+x,-z
1/2-y,1/2-x,-z
1/2-x,1/2-y,1/2-z
1/2+y,1/2-x,1/2-z
1/2+x,1/2+y,1/2-z
1/2-y,1/2+x,1/2-z
1/2-x,1/2+y,z
1/2+x,1/2-y,z
1/2-y,1/2-x,z
1/2+y,1/2+x,z
loop_
_atom_site_type_symbol
_atom_site_label
_atom_site_fract_x
_atom_site_fract_y
_atom_site_fract_z
Si Si1 0.404055 0.461253 0.000000
Si Si2 0.699446 0.940366 0.105950
Si Si3 0.000000 0.602054 0.750000
Si Si4 0.693402 0.467312 0.344746
Si Si5 0.649966 0.754525 0.742924
O O1 0.466578 0.422427 0.000000
O O2 0.362621 0.449312 0.910260
O O3 0.646408 0.973056 0.168880
O O4 0.722523 0.879100 0.159761
O O5 0.759185 0.985205 0.107978
O O6 0.680201 0.930019 0.000000
O O7 0.056371 0.556371 0.720662
O O8 0.671341 0.500000 0.250000
O O9 0.732730 0.407577 0.317052
O O10 0.697808 0.697808 0.750000
O O11 0.688021 0.811979 0.702431
#
# Coordination Sequence:
#
# PCOD9572535 Si02
#       5
#    16  32  16  32  32
#     4  11  26  42  63  94 126 163 211 256 304 374
#     4  11  22  40  66  94 124 168 215 262 320 385
#     4  11  24  42  64  92 132 173 212 268 326 381
#     4  10  22  39  63  89 123 164 200 252 315 364
#     4  10  22  40  63  91 123 164 207 257 319 381
#
# _framework density 18.990272000000001
#
# number of rings (size 3 to 8) (size 9 to 14) (size 15 to 20)
#    0.000    1.500    5.000    0.750    7.000    2.500 
#    0.000    3.125    0.000    0.000    0.000    0.000 
#    0.000    0.000    0.000    0.000    0.000    0.000 
#
# Total GULP energy -357277.301998 kJ/mol
# GULP energy per Si atom -5582.457844 kJ/mol
# Density = 1.894705 g / cm^3
# Si number density = 18.990272 Si / 1000 Ang^3
#
#
#
# Elastic Constant Matrix: (Units=GPa)
#
#
# Indices 1 2 3 4 5 6 
#
# 1 78.0877 19.2806 48.5465 0.0000 0.0000 0.0000
# 2 19.2806 78.0877 48.5465 0.0000 0.0000 0.0000
# 3 48.5465 48.5465 135.1731 0.0000 0.0000 0.0000
# 4 0.0000 0.0000 0.0000 0.8609 0.0000 0.0000
# 5 0.0000 0.0000 0.0000 0.0000 0.8609 0.0000
# 6 0.0000 0.0000 0.0000 0.0000 0.0000 27.2389
#
#
#
# Elastic Compliance Matrix: (Units=1/GPa)
#
#
# Indices 1 2 3 4 5 6 
#
# 1 0.016503 -0.000502 -0.005746 0.000000 0.000000 0.000000
# 2 -0.000502 0.016503 -0.005746 0.000000 0.000000 0.000000
# 3 -0.005746 -0.005746 0.011526 0.000000 0.000000 0.000000
# 4 0.000000 0.000000 0.000000 1.161560 0.000000 0.000000
# 5 0.000000 0.000000 0.000000 0.000000 1.161560 0.000000
# 6 0.000000 0.000000 0.000000 0.000000 0.000000 0.036712
#
#
# Mechanical properties :
#
#
# Convention : Reuss Voigt Hill
#
# Bulk Modulus (GPa) = 48.68393 58.23288 53.45840
# Shear Modulus (GPa) = 2.05322 17.45714 9.75518
#
# Velocity S-wave (km/s) = 1.04093 3.03523 2.26894
# Velocity P-wave (km/s) = 5.20928 6.55856 5.92247
#
# Compressibility (1/GPa) = 0.02054066
#
# Stress axis : x y z
#
# Youngs Moduli (GPa) = 60.59636 60.59636 86.76380
#
# Poissons Ratio (x) = 0.03043 0.49859
# Poissons Ratio (y) = 0.03043 0.49859
# Poissons Ratio (z) = 0.34822 0.34822
#
# Static dielectric constant tensor:
#      x y z
#    x 1.659140 0.000000 0.000000 
#    y 0.000000 1.659140 0.000000 
#    z 0.000000 0.000000 1.648080 
# 
# From -- ./inp_files/4435.got.cif
#   From: 2010.05.17/outbox.cif.g08.bks.cpg/sg140_3_cif.got.tgz:4435.got - 2010.06.21 00:45:31.
