data_PCOD9572971
_publ_section_title
;
Structure prediction by ZEFSAII (Michael W. Deem and Ramdas Pophale) SiO2 
 PCOD9572971
Probable space group: I 41/A M D
;
_chemical_formula_sum "Si O2"
_cell_formula_units_Z 144
_cell_length_a 19.086798
_cell_length_b 19.086798
_cell_length_c 20.701273
_cell_angle_alpha 90.000000
_cell_angle_beta 90.000000
_cell_angle_gamma 90.000000
_cell_volume 7541.595020
_symmetry_space_group_name_H-M "I 41/A M D"
_symmetry_group_IT_number 141
_space_group.IT_coordinate_system_code '2'
_symmetry_cell_setting 'tetragonal'
loop_
_space_group_symop_operation_xyz
x,y,z
1/4-y,3/4+x,1/4+z
-x,1/2-y,z
1/4+y,1/4-x,3/4+z
x,-y,-z
-x,1/2+y,-z
1/4+y,3/4+x,1/4-z
1/4-y,1/4-x,3/4-z
-x,-y,-z
3/4+y,1/4-x,3/4-z
x,1/2+y,-z
3/4-y,3/4+x,1/4-z
-x,y,z
x,1/2-y,z
3/4-y,1/4-x,3/4+z
3/4+y,3/4+x,1/4+z
1/2+x,1/2+y,1/2+z
3/4-y,1/4+x,3/4+z
1/2-x,-y,1/2+z
3/4+y,3/4-x,1/4+z
1/2+x,1/2-y,1/2-z
1/2-x,y,1/2-z
3/4+y,1/4+x,3/4-z
3/4-y,3/4-x,1/4-z
1/2-x,1/2-y,1/2-z
1/4+y,3/4-x,1/4-z
1/2+x,y,1/2-z
1/4-y,1/4+x,3/4-z
1/2-x,1/2+y,1/2+z
1/2+x,-y,1/2+z
1/4-y,3/4-x,1/4+z
1/4+y,1/4+x,3/4+z
loop_
_atom_site_type_symbol
_atom_site_label
_atom_site_fract_x
_atom_site_fract_y
_atom_site_fract_z
Si Si1 0.082984 0.167016 0.875000
Si Si2 0.839786 0.665944 0.991342
Si Si3 0.076314 0.834312 0.867771
Si Si4 0.666236 0.327946 0.245725
Si Si5 0.689114 0.969341 0.804046
O O1 0.091787 0.250000 0.858802
O O2 0.098546 0.118296 0.813240
O O3 0.825496 0.750000 0.986792
O O4 0.900628 0.648018 0.939808
O O5 0.775444 0.619296 0.966519
O O6 0.072156 0.750000 0.866313
O O7 0.134368 0.851064 0.814550
O O8 0.000000 0.863609 0.851122
O O9 0.639000 0.250000 0.229217
O O10 0.750000 0.321965 0.250000
O O11 0.653765 0.392460 0.198993
O O12 0.750000 0.973070 0.750000
O O13 0.723639 0.973639 0.875000
#
# Coordination Sequence:
#
# PCOD9572971 Si02
#       5
#    16  32  32  32  32
#     4   9  18  34  58  88 122 162 206 254 304 357
#     4  10  20  35  58  85 118 158 204 250 295 360
#     4   9  17  32  57  86 113 146 189 238 290 348
#     4   9  18  35  58  81 107 140 188 246 304 358
#     4  11  24  39  58  83 115 158 198 245 303 365
#
# _framework density 19.094103
#
# number of rings (size 3 to 8) (size 9 to 14) (size 15 to 20)
#    0.000    2.333    0.000    3.333    1.556    6.222 
#    0.000    0.000    0.000    1.333    0.000    1.556 
#    0.000    0.000    0.000    0.000    0.000    0.000 
#
# Total GULP energy -400917.009823 kJ/mol
# GULP energy per Si atom -5568.291803 kJ/mol
# Density = 1.905064 g / cm^3
# Si number density = 19.094103 Si / 1000 Ang^3
#
#
#
# Elastic Constant Matrix: (Units=GPa)
#
#
# Indices 1 2 3 4 5 6 
#
# 1 90.9900 29.4973 55.4420 0.0000 0.0000 0.0000
# 2 29.4973 90.9911 55.4418 0.0000 0.0000 0.0000
# 3 55.4420 55.4418 156.6928 0.0000 0.0000 0.0000
# 4 0.0000 0.0000 0.0000 24.3877 0.0000 0.0000
# 5 0.0000 0.0000 0.0000 0.0000 24.3878 0.0000
# 6 0.0000 0.0000 0.0000 0.0000 0.0000 47.5364
#
#
#
# Elastic Compliance Matrix: (Units=1/GPa)
#
#
# Indices 1 2 3 4 5 6 
#
# 1 0.014285 -0.001977 -0.004355 0.000000 0.000000 0.000000
# 2 -0.001977 0.014284 -0.004354 0.000000 0.000000 0.000000
# 3 -0.004355 -0.004354 0.009463 0.000000 0.000000 0.000000
# 4 0.000000 0.000000 0.000000 0.041004 0.000000 0.000000
# 5 0.000000 0.000000 0.000000 0.000000 0.041004 0.000000
# 6 0.000000 0.000000 0.000000 0.000000 0.000000 0.021036
#
#
# Mechanical properties :
#
#
# Convention : Reuss Voigt Hill
#
# Bulk Modulus (GPa) = 60.02646 68.82622 64.42634
# Shear Modulus (GPa) = 29.76131 32.48192 31.12161
#
# Velocity S-wave (km/s) = 3.95228 4.12897 4.04159
# Velocity P-wave (km/s) = 7.23414 7.67172 7.45614
#
# Compressibility (1/GPa) = 0.01665932
#
# Stress axis : x y z
#
# Youngs Moduli (GPa) = 70.00538 70.00658 105.67009
#
# Poissons Ratio (x) = 0.13843 0.46015
# Poissons Ratio (y) = 0.13843 0.46014
# Poissons Ratio (z) = 0.30485 0.30484
#
# Static dielectric constant tensor:
#      x y z
#    x 1.697340 0.000000 0.000000 
#    y 0.000000 1.697330 0.000000 
#    z 0.000000 0.000000 1.670520 
# 
# From -- ./inp_files/8425.got.cif
#   From: 2010.05.17/outbox.cif.g08.bks.cpg/sg141_5_cif.got.tgz:8425.got - 2010.05.20 13:30:51.
