data_PCOD9572551
_publ_section_title
;
Structure prediction by ZEFSAII (Michael W. Deem and Ramdas Pophale) SiO2 
 PCOD9572551
Probable space group: I 4/M C M
;
_chemical_formula_sum "Si O2"
_cell_formula_units_Z 160
_cell_length_a 19.666275
_cell_length_b 19.666275
_cell_length_c 21.018101
_cell_angle_alpha 90.000000
_cell_angle_beta 90.000000
_cell_angle_gamma 90.000000
_cell_volume 8129.010606
_symmetry_space_group_name_H-M "I 4/M C M"
_symmetry_group_IT_number 140
_symmetry_cell_setting 'tetragonal'
loop_
_space_group_symop_operation_xyz
x,y,z
-y,x,z
-x,-y,z
y,-x,z
x,-y,1/2-z
-x,y,1/2-z
y,x,1/2-z
-y,-x,1/2-z
-x,-y,-z
y,-x,-z
x,y,-z
-y,x,-z
-x,y,1/2+z
x,-y,1/2+z
-y,-x,1/2+z
y,x,1/2+z
1/2+x,1/2+y,1/2+z
1/2-y,1/2+x,1/2+z
1/2-x,1/2-y,1/2+z
1/2+y,1/2-x,1/2+z
1/2+x,1/2-y,-z
1/2-x,1/2+y,-z
1/2+y,1/2+x,-z
1/2-y,1/2-x,-z
1/2-x,1/2-y,1/2-z
1/2+y,1/2-x,1/2-z
1/2+x,1/2+y,1/2-z
1/2-y,1/2+x,1/2-z
1/2-x,1/2+y,z
1/2+x,1/2-y,z
1/2-y,1/2-x,z
1/2+y,1/2+x,z
loop_
_atom_site_type_symbol
_atom_site_label
_atom_site_fract_x
_atom_site_fract_y
_atom_site_fract_z
Si Si1 0.356776 0.741053 0.626056
Si Si2 0.301118 0.083101 0.000000
Si Si3 0.420183 0.192772 0.752629
Si Si4 0.577538 0.812870 0.500000
Si Si5 0.387980 0.481889 0.074264
Si Si6 0.398723 0.275563 0.375164
O O1 0.293761 0.793761 0.626773
O O2 0.398426 0.757440 0.562261
O O3 0.400950 0.759036 0.687962
O O4 0.324094 0.666886 0.625444
O O5 0.319102 0.003886 0.000000
O O6 0.367544 0.132457 0.000000
O O7 0.500000 0.177902 0.750000
O O8 0.374927 0.125074 0.759248
O O9 0.400275 0.230806 0.687773
O O10 0.615039 0.884962 0.500000
O O11 0.600899 0.771565 0.437535
O O12 0.446527 0.425047 0.083813
O O13 0.324922 0.463903 0.118177
O O14 0.366671 0.477942 0.000000
#
# Coordination Sequence:
#
# PCOD9572551 Si02
#       6
#    32  16  32  16  32  32
#     4  10  22  41  63  90 122 157 202 254 311 375
#     4  10  23  42  67  92 120 165 210 255 317 378
#     4  11  25  44  65  92 124 163 210 257 315 380
#     4  12  25  38  59  97 131 160 213 264 304 365
#     4   9  20  37  58  91 130 170 211 251 304 371
#     4  12  23  37  66  91 128 163 204 256 313 361
#
# _framework density 19.682593000000001
#
# number of rings (size 3 to 8) (size 9 to 14) (size 15 to 20)
#    0.000    1.400    1.000    4.800    5.600    2.800 
#    0.000    0.000    0.000    6.000    0.000    0.000 
#    0.000    0.000    0.000    0.000    0.000    0.000 
#
# Total GULP energy -447594.643899 kJ/mol
# GULP energy per Si atom -5594.933049 kJ/mol
# Density = 1.963779 g / cm^3
# Si number density = 19.682593 Si / 1000 Ang^3
#
#
#
# Elastic Constant Matrix: (Units=GPa)
#
#
# Indices 1 2 3 4 5 6 
#
# 1 121.6438 56.4730 56.6767 0.0000 0.0000 0.0000
# 2 56.4730 121.6370 56.6751 0.0000 0.0000 0.0000
# 3 56.6767 56.6751 156.3602 0.0000 0.0000 0.0000
# 4 0.0000 0.0000 0.0000 26.0950 0.0000 0.0000
# 5 0.0000 0.0000 0.0000 0.0000 26.0954 0.0000
# 6 0.0000 0.0000 0.0000 0.0000 0.0000 33.1109
#
#
#
# Elastic Compliance Matrix: (Units=1/GPa)
#
#
# Indices 1 2 3 4 5 6 
#
# 1 0.011321 -0.004024 -0.002645 0.000000 0.000000 0.000000
# 2 -0.004024 0.011322 -0.002645 0.000000 0.000000 0.000000
# 3 -0.002645 -0.002645 0.008313 0.000000 0.000000 0.000000
# 4 0.000000 0.000000 0.000000 0.038322 0.000000 0.000000
# 5 0.000000 0.000000 0.000000 0.000000 0.038321 0.000000
# 6 0.000000 0.000000 0.000000 0.000000 0.000000 0.030202
#
#
# Mechanical properties :
#
#
# Convention : Reuss Voigt Hill
#
# Bulk Modulus (GPa) = 81.11732 82.14341 81.63036
# Shear Modulus (GPa) = 31.14534 32.38132 31.76333
#
# Velocity S-wave (km/s) = 3.98223 4.06048 4.02154
# Velocity P-wave (km/s) = 7.90230 7.98799 7.94526
#
# Compressibility (1/GPa) = 0.01232782
#
# Stress axis : x y z
#
# Youngs Moduli (GPa) = 88.33017 88.32530 120.29142
#
# Poissons Ratio (x) = 0.35539 0.31820
# Poissons Ratio (y) = 0.35541 0.31821
# Poissons Ratio (z) = 0.23365 0.23365
#
# Static dielectric constant tensor:
#      x y z
#    x 1.687460 0.000000 0.000000 
#    y 0.000000 1.687460 0.000000 
#    z 0.000000 0.000000 1.656640 
# 
# From -- ./inp_files/6932.got.cif
#   From: 2010.05.17/outbox.cif.g08.bks.cpg/sg140_4_cif.got.tgz:6932.got - 2010.06.21 00:45:31.
