data_PCOD9572802
_publ_section_title
;
Structure prediction by ZEFSAII (Michael W. Deem and Ramdas Pophale) SiO2 
 PCOD9572802
Probable space group: I 41/A M D
;
_chemical_formula_sum "Si O2"
_cell_formula_units_Z 136
_cell_length_a 23.108392
_cell_length_b 23.108392
_cell_length_c 11.991325
_cell_angle_alpha 90.000000
_cell_angle_beta 90.000000
_cell_angle_gamma 90.000000
_cell_volume 6403.340939
_symmetry_space_group_name_H-M "I 41/A M D"
_symmetry_group_IT_number 141
_space_group.IT_coordinate_system_code '2'
_symmetry_cell_setting 'tetragonal'
loop_
_space_group_symop_operation_xyz
x,y,z
1/4-y,3/4+x,1/4+z
-x,1/2-y,z
1/4+y,1/4-x,3/4+z
x,-y,-z
-x,1/2+y,-z
1/4+y,3/4+x,1/4-z
1/4-y,1/4-x,3/4-z
-x,-y,-z
3/4+y,1/4-x,3/4-z
x,1/2+y,-z
3/4-y,3/4+x,1/4-z
-x,y,z
x,1/2-y,z
3/4-y,1/4-x,3/4+z
3/4+y,3/4+x,1/4+z
1/2+x,1/2+y,1/2+z
3/4-y,1/4+x,3/4+z
1/2-x,-y,1/2+z
3/4+y,3/4-x,1/4+z
1/2+x,1/2-y,1/2-z
1/2-x,y,1/2-z
3/4+y,1/4+x,3/4-z
3/4-y,3/4-x,1/4-z
1/2-x,1/2-y,1/2-z
1/4+y,3/4-x,1/4-z
1/2+x,y,1/2-z
1/4-y,1/4+x,3/4-z
1/2-x,1/2+y,1/2+z
1/2+x,-y,1/2+z
1/4-y,3/4-x,1/4+z
1/4+y,1/4+x,3/4+z
loop_
_atom_site_type_symbol
_atom_site_label
_atom_site_fract_x
_atom_site_fract_y
_atom_site_fract_z
Si Si1 0.109034 0.661418 0.863694
Si Si2 0.500000 0.250000 0.881214
Si Si3 0.196899 0.180384 0.323703
Si Si4 0.659516 0.684089 0.409809
Si Si5 0.211505 0.680143 0.419490
O O1 0.051235 0.699647 0.868383
O O2 0.138374 0.666154 0.742614
O O3 0.094907 0.594647 0.890492
O O4 0.154110 0.684673 0.955368
O O5 0.200175 0.250000 0.326001
O O6 0.250000 0.157372 0.250000
O O7 0.203548 0.161970 0.451246
O O8 0.607912 0.642089 0.375000
O O9 0.650177 0.750000 0.369796
O O10 0.724143 0.664226 0.380047
O O11 0.209230 0.750000 0.413597
#
# Coordination Sequence:
#
# PCOD9572802 Si02
#       5
#    32   8  32  32  32
#     4  12  22  41  64  93 137 159 208 273 316 386
#     4  12  24  36  60 110 130 168 198 266 342 364
#     4  10  18  35  63  89 122 166 206 247 306 384
#     4  11  25  42  66  91 122 173 222 266 323 388
#     4  10  22  39  62  94 124 169 211 253 331 395
#
# _framework density 21.238914000000001
#
# number of rings (size 3 to 8) (size 9 to 14) (size 15 to 20)
#    0.000    1.176    5.882    0.706    1.647    1.176 
#    0.000    4.706    5.176    0.000    0.000    0.000 
#    0.000    0.000    0.000    0.000    0.000    0.000 
#
# Total GULP energy -378926.071261 kJ/mol
# GULP energy per Si atom -5572.442224 kJ/mol
# Density = 2.119057 g / cm^3
# Si number density = 21.238914 Si / 1000 Ang^3
#
#
#
# Elastic Constant Matrix: (Units=GPa)
#
#
# Indices 1 2 3 4 5 6 
#
# 1 129.4059 46.8389 15.7485 0.0000 0.0000 0.0000
# 2 46.8389 129.4029 15.7480 0.0000 0.0000 0.0000
# 3 15.7485 15.7480 54.5639 0.0000 0.0000 0.0000
# 4 0.0000 0.0000 0.0000 26.6406 0.0000 0.0000
# 5 0.0000 0.0000 0.0000 0.0000 26.6411 0.0000
# 6 0.0000 0.0000 0.0000 0.0000 0.0000 23.2122
#
#
#
# Elastic Compliance Matrix: (Units=1/GPa)
#
#
# Indices 1 2 3 4 5 6 
#
# 1 0.009047 -0.003065 -0.001727 0.000000 0.000000 0.000000
# 2 -0.003065 0.009047 -0.001727 0.000000 0.000000 0.000000
# 3 -0.001727 -0.001727 0.019324 0.000000 0.000000 0.000000
# 4 0.000000 0.000000 0.000000 0.037537 0.000000 0.000000
# 5 0.000000 0.000000 0.000000 0.000000 0.037536 0.000000
# 6 0.000000 0.000000 0.000000 0.000000 0.000000 0.043081
#
#
# Mechanical properties :
#
#
# Convention : Reuss Voigt Hill
#
# Bulk Modulus (GPa) = 41.01351 52.22705 46.62028
# Shear Modulus (GPa) = 28.29100 30.96793 29.62946
#
# Velocity S-wave (km/s) = 3.65367 3.82262 3.73910
# Velocity P-wave (km/s) = 6.09520 6.64280 6.37489
#
# Compressibility (1/GPa) = 0.02438221
#
# Stress axis : x y z
#
# Youngs Moduli (GPa) = 110.53425 110.53175 51.74949
#
# Poissons Ratio (x) = 0.33873 0.08936
# Poissons Ratio (y) = 0.33873 0.08935
# Poissons Ratio (z) = 0.19086 0.19085
#
# Static dielectric constant tensor:
#      x y z
#    x 1.741880 0.000000 0.000000 
#    y 0.000000 1.741880 0.000000 
#    z 0.000000 0.000000 1.852630 
# 
# From -- ./inp_files/4650.got.cif
#   From: 2010.05.17/outbox.cif.g08.bks.cpg/sg141_3_cif.got.tgz:4650.got - 2010.05.20 13:30:51.
