data_PCOD9572642
_publ_section_title
;
Structure prediction by ZEFSAII (Michael W. Deem and Ramdas Pophale) SiO2 
 PCOD9572642
Probable space group: I 4/M C M
;
_chemical_formula_sum "Si O2"
_cell_formula_units_Z 112
_cell_length_a 14.635044
_cell_length_b 14.635044
_cell_length_c 26.538152
_cell_angle_alpha 90.000000
_cell_angle_beta 90.000000
_cell_angle_gamma 90.000000
_cell_volume 5684.061159
_symmetry_space_group_name_H-M "I 4/M C M"
_symmetry_group_IT_number 140
_symmetry_cell_setting 'tetragonal'
loop_
_space_group_symop_operation_xyz
x,y,z
-y,x,z
-x,-y,z
y,-x,z
x,-y,1/2-z
-x,y,1/2-z
y,x,1/2-z
-y,-x,1/2-z
-x,-y,-z
y,-x,-z
x,y,-z
-y,x,-z
-x,y,1/2+z
x,-y,1/2+z
-y,-x,1/2+z
y,x,1/2+z
1/2+x,1/2+y,1/2+z
1/2-y,1/2+x,1/2+z
1/2-x,1/2-y,1/2+z
1/2+y,1/2-x,1/2+z
1/2+x,1/2-y,-z
1/2-x,1/2+y,-z
1/2+y,1/2+x,-z
1/2-y,1/2-x,-z
1/2-x,1/2-y,1/2-z
1/2+y,1/2-x,1/2-z
1/2+x,1/2+y,1/2-z
1/2-y,1/2+x,1/2-z
1/2-x,1/2+y,z
1/2+x,1/2-y,z
1/2-y,1/2-x,z
1/2+y,1/2+x,z
loop_
_atom_site_type_symbol
_atom_site_label
_atom_site_fract_x
_atom_site_fract_y
_atom_site_fract_z
Si Si1 0.001302 0.345915 0.308427
Si Si2 0.350824 0.521127 0.000000
Si Si3 0.032031 0.262714 0.093108
Si Si4 0.892980 0.607021 0.439967
Si Si5 0.240282 0.740282 0.561414
O O1 0.092669 0.407332 0.316575
O O2 0.000000 0.317368 0.250000
O O3 0.915572 0.415572 0.315273
O O4 0.990933 0.263121 0.347808
O O5 0.401233 0.424952 0.000000
O O6 0.296212 0.523389 0.947949
O O7 0.137676 0.242905 0.082022
O O8 0.991966 0.362183 0.078731
O O9 0.893180 0.606821 0.500000
O O10 0.816167 0.683834 0.423906
O O11 0.237547 0.737547 0.500000
#
# Coordination Sequence:
#
# PCOD9572642 Si02
#       5
#    32  16  32  16  16
#     4   9  18  33  53  81 116 150 182 218 279 355
#     4  11  24  40  58  79 108 158 204 229 274 337
#     4  12  20  34  58  83 114 147 183 231 289 341
#     4  11  22  35  52  81 118 151 182 228 289 344
#     4  11  22  35  52  81 118 151 182 228 289 344
#
# _framework density 19.704222000000001
#
# number of rings (size 3 to 8) (size 9 to 14) (size 15 to 20)
#    0.000    1.286    5.714    2.571    0.000    0.571 
#    0.000    1.429    0.000    8.571    0.000    2.000 
#    0.000    0.000    0.000    0.000    0.000    0.000 
#
# Total GULP energy -312209.671475 kJ/mol
# GULP energy per Si atom -5575.172705 kJ/mol
# Density = 1.965937 g / cm^3
# Si number density = 19.704222 Si / 1000 Ang^3
#
#
#
# Elastic Constant Matrix: (Units=GPa)
#
#
# Indices 1 2 3 4 5 6 
#
# 1 84.5473 20.1227 38.2098 0.0000 0.0000 0.0000
# 2 20.1227 84.5473 38.2099 0.0000 0.0000 0.0000
# 3 38.2098 38.2099 171.4317 0.0000 0.0000 0.0000
# 4 0.0000 0.0000 0.0000 5.2541 0.0000 0.0000
# 5 0.0000 0.0000 0.0000 0.0000 5.2534 0.0000
# 6 0.0000 0.0000 0.0000 0.0000 0.0000 3.3367
#
#
#
# Elastic Compliance Matrix: (Units=1/GPa)
#
#
# Indices 1 2 3 4 5 6 
#
# 1 0.013466 -0.002056 -0.002543 0.000000 0.000000 0.000000
# 2 -0.002056 0.013466 -0.002543 0.000000 0.000000 0.000000
# 3 -0.002543 -0.002543 0.006967 0.000000 0.000000 0.000000
# 4 0.000000 0.000000 0.000000 0.190326 0.000000 0.000000
# 5 0.000000 0.000000 0.000000 0.000000 0.190352 0.000000
# 6 0.000000 0.000000 0.000000 0.000000 0.000000 0.299695
#
#
# Mechanical properties :
#
#
# Convention : Reuss Voigt Hill
#
# Bulk Modulus (GPa) = 50.98093 59.29013 55.13553
# Shear Modulus (GPa) = 6.80184 19.03446 12.91815
#
# Velocity S-wave (km/s) = 1.85996 3.11144 2.56325
# Velocity P-wave (km/s) = 5.52647 6.56228 6.06652
#
# Compressibility (1/GPa) = 0.01961518
#
# Stress axis : x y z
#
# Youngs Moduli (GPa) = 74.25919 74.25909 143.53465
#
# Poissons Ratio (x) = 0.15265 0.36505
# Poissons Ratio (y) = 0.15265 0.36505
# Poissons Ratio (z) = 0.18886 0.18886
#
# Static dielectric constant tensor:
#      x y z
#    x 1.719880 0.000000 0.000000 
#    y 0.000000 1.719880 0.000000 
#    z 0.000000 0.000000 1.790730 
# 
# From -- ./inp_files/10291.got.cif
#   From: 2010.05.17/outbox.cif.g08.bks.cpg/sg140_6_cif.got.tgz:10291.got - 2010.06.21 00:45:31.
