data_PCOD9572382
_publ_section_title
;
Structure prediction by ZEFSAII (Michael W. Deem and Ramdas Pophale) SiO2 
 PCOD9572382
Probable space group: I 4/M C M
;
_chemical_formula_sum "Si O2"
_cell_formula_units_Z 160
_cell_length_a 28.691316
_cell_length_b 28.691316
_cell_length_c 10.241971
_cell_angle_alpha 90.000000
_cell_angle_beta 90.000000
_cell_angle_gamma 90.000000
_cell_volume 8431.104636
_symmetry_space_group_name_H-M "I 4/M C M"
_symmetry_group_IT_number 140
_symmetry_cell_setting 'tetragonal'
loop_
_space_group_symop_operation_xyz
x,y,z
-y,x,z
-x,-y,z
y,-x,z
x,-y,1/2-z
-x,y,1/2-z
y,x,1/2-z
-y,-x,1/2-z
-x,-y,-z
y,-x,-z
x,y,-z
-y,x,-z
-x,y,1/2+z
x,-y,1/2+z
-y,-x,1/2+z
y,x,1/2+z
1/2+x,1/2+y,1/2+z
1/2-y,1/2+x,1/2+z
1/2-x,1/2-y,1/2+z
1/2+y,1/2-x,1/2+z
1/2+x,1/2-y,-z
1/2-x,1/2+y,-z
1/2+y,1/2+x,-z
1/2-y,1/2-x,-z
1/2-x,1/2-y,1/2-z
1/2+y,1/2-x,1/2-z
1/2+x,1/2+y,1/2-z
1/2-y,1/2+x,1/2-z
1/2-x,1/2+y,z
1/2+x,1/2-y,z
1/2-y,1/2-x,z
1/2+y,1/2+x,z
loop_
_atom_site_type_symbol
_atom_site_label
_atom_site_fract_x
_atom_site_fract_y
_atom_site_fract_z
Si Si1 0.378390 0.555826 0.000000
Si Si2 0.630548 0.446881 0.500000
Si Si3 0.781983 0.718018 0.653733
Si Si4 0.070928 0.648758 0.643043
Si Si5 0.172663 0.100225 0.754292
Si Si6 0.776146 0.393972 0.155768
Si Si7 0.000000 0.575435 0.750000
O O1 0.370569 0.501675 0.000000
O O2 0.429913 0.576954 0.000000
O O3 0.354733 0.577417 0.873296
O O4 0.656731 0.425459 0.375947
O O5 0.750000 0.750000 0.750000
O O6 0.771309 0.728692 0.500000
O O7 0.776637 0.662270 0.672957
O O8 0.066226 0.671639 0.500000
O O9 0.117361 0.617361 0.642708
O O10 0.078687 0.684582 0.761561
O O11 0.029052 0.611380 0.660654
O O12 0.153791 0.153791 0.750000
O O13 0.226253 0.093148 0.785783
O O14 0.780065 0.403256 0.000000
O O15 0.960172 0.539829 0.694131
#
# Coordination Sequence:
#
# PCOD9572382 Si02
#       7
#    16  16  16  32  32  32  16
#     4  10  20  41  60  91 121 157 199 251 307 365
#     4  10  22  37  66  89 121 159 197 253 311 363
#     4  10  22  38  60  90 121 162 215 263 314 375
#     4  10  22  40  62  93 128 159 204 261 319 371
#     4  10  21  39  60  86 122 164 208 252 305 370
#     4  11  22  40  60  87 125 170 210 258 315 371
#     4   9  20  42  70  96 126 166 210 264 325 388
#
# _framework density 18.977347999999999
#
# number of rings (size 3 to 8) (size 9 to 14) (size 15 to 20)
#    0.000    1.900    2.000    1.200    1.400    2.200 
#    3.600    4.000    0.000    3.600    0.000    0.000 
#    0.000    0.000    0.000    0.000    0.000    0.000 
#
# Total GULP energy -445709.408453 kJ/mol
# GULP energy per Si atom -5571.367606 kJ/mol
# Density = 1.893415 g / cm^3
# Si number density = 18.977348 Si / 1000 Ang^3
#
#
#
# Elastic Constant Matrix: (Units=GPa)
#
#
# Indices 1 2 3 4 5 6 
#
# 1 112.6997 17.5225 53.7368 0.0000 0.0000 0.0000
# 2 17.5225 112.6990 53.7370 0.0000 0.0000 0.0000
# 3 53.7368 53.7370 158.0903 0.0000 0.0000 0.0000
# 4 0.0000 0.0000 0.0000 18.4703 0.0000 0.0000
# 5 0.0000 0.0000 0.0000 0.0000 18.4704 0.0000
# 6 0.0000 0.0000 0.0000 0.0000 0.0000 25.3100
#
#
#
# Elastic Compliance Matrix: (Units=1/GPa)
#
#
# Indices 1 2 3 4 5 6 
#
# 1 0.010590 0.000083 -0.003628 0.000000 0.000000 0.000000
# 2 0.000083 0.010590 -0.003628 0.000000 0.000000 0.000000
# 3 -0.003628 -0.003628 0.008792 0.000000 0.000000 0.000000
# 4 0.000000 0.000000 0.000000 0.054141 0.000000 0.000000
# 5 0.000000 0.000000 0.000000 0.000000 0.054141 0.000000
# 6 0.000000 0.000000 0.000000 0.000000 0.000000 0.039510
#
#
# Mechanical properties :
#
#
# Convention : Reuss Voigt Hill
#
# Bulk Modulus (GPa) = 63.99306 70.38685 67.18995
# Shear Modulus (GPa) = 25.33976 29.68297 27.51136
#
# Velocity S-wave (km/s) = 3.65809 3.95919 3.81162
# Velocity P-wave (km/s) = 7.18583 7.62042 7.40631
#
# Compressibility (1/GPa) = 0.01562670
#
# Stress axis : x y z
#
# Youngs Moduli (GPa) = 94.42801 94.42721 113.74055
#
# Poissons Ratio (x) = -0.00787 0.41265
# Poissons Ratio (y) = -0.00787 0.41266
# Poissons Ratio (z) = 0.34259 0.34259
#
# Static dielectric constant tensor:
#      x y z
#    x 1.678410 0.000000 0.000000 
#    y 0.000000 1.678400 0.000000 
#    z 0.000000 0.000000 1.652220 
# 
# From -- ./inp_files/1888.got.cif
#   From: 2010.05.17/outbox.cif.g08.bks.cpg/sg140_1_cif.got.tgz:1888.got - 2010.06.21 00:45:31.
