data_PCOD9572678
_publ_section_title
;
Structure prediction by ZEFSAII (Michael W. Deem and Ramdas Pophale) SiO2 
 PCOD9572678
Probable space group: I 4/M C M
;
_chemical_formula_sum "Si O2"
_cell_formula_units_Z 160
_cell_length_a 19.723229
_cell_length_b 19.723229
_cell_length_c 19.288980
_cell_angle_alpha 90.000000
_cell_angle_beta 90.000000
_cell_angle_gamma 90.000000
_cell_volume 7503.524367
_symmetry_space_group_name_H-M "I 4/M C M"
_symmetry_group_IT_number 140
_symmetry_cell_setting 'tetragonal'
loop_
_space_group_symop_operation_xyz
x,y,z
-y,x,z
-x,-y,z
y,-x,z
x,-y,1/2-z
-x,y,1/2-z
y,x,1/2-z
-y,-x,1/2-z
-x,-y,-z
y,-x,-z
x,y,-z
-y,x,-z
-x,y,1/2+z
x,-y,1/2+z
-y,-x,1/2+z
y,x,1/2+z
1/2+x,1/2+y,1/2+z
1/2-y,1/2+x,1/2+z
1/2-x,1/2-y,1/2+z
1/2+y,1/2-x,1/2+z
1/2+x,1/2-y,-z
1/2-x,1/2+y,-z
1/2+y,1/2+x,-z
1/2-y,1/2-x,-z
1/2-x,1/2-y,1/2-z
1/2+y,1/2-x,1/2-z
1/2+x,1/2+y,1/2-z
1/2-y,1/2+x,1/2-z
1/2-x,1/2+y,z
1/2+x,1/2-y,z
1/2-y,1/2-x,z
1/2+y,1/2+x,z
loop_
_atom_site_type_symbol
_atom_site_label
_atom_site_fract_x
_atom_site_fract_y
_atom_site_fract_z
Si Si1 0.501887 0.386668 0.331909
Si Si2 0.648631 0.736108 0.793828
Si Si3 0.526293 0.746695 0.583367
Si Si4 0.843316 0.544623 0.687675
Si Si5 0.706731 0.321563 0.423530
O O1 0.566346 0.435614 0.344135
O O2 0.500000 0.368336 0.250000
O O3 0.501693 0.321906 0.381266
O O4 0.671438 0.671438 0.750000
O O5 0.707549 0.792452 0.784970
O O6 0.581451 0.777106 0.778825
O O7 0.652510 0.709754 0.871847
O O8 0.515765 0.749314 0.500000
O O9 0.496130 0.812215 0.622853
O O10 0.606972 0.739025 0.597268
O O11 0.872726 0.500000 0.750000
O O12 0.897399 0.602602 0.666967
O O13 0.677554 0.329401 0.500000
O O14 0.767524 0.267524 0.424578
#
# Coordination Sequence:
#
# PCOD9572678 Si02
#       5
#    32  32  32  32  32
#     4   9  20  40  63  88 126 178 230 274 319 387
#     4   9  18  34  59  87 114 148 195 256 319 378
#     4  11  24  39  61  95 132 172 215 268 330 396
#     4  11  25  44  65  92 125 165 218 276 332 395
#     4   9  19  37  60  87 123 164 201 246 312 384
#
# _framework density 21.323312000000001
#
# number of rings (size 3 to 8) (size 9 to 14) (size 15 to 20)
#    0.000    2.200    0.000    2.400    2.800    4.600 
#    0.000    3.000    0.000    0.000    0.000    4.200 
#    0.000    0.000    0.000    0.000    0.000    0.000 
#
# Total GULP energy -446917.717669 kJ/mol
# GULP energy per Si atom -5586.471471 kJ/mol
# Density = 2.127478 g / cm^3
# Si number density = 21.323312 Si / 1000 Ang^3
#
#
#
# Elastic Constant Matrix: (Units=GPa)
#
#
# Indices 1 2 3 4 5 6 
#
# 1 74.2173 12.8314 18.4500 0.0000 0.0000 0.0000
# 2 12.8314 74.2173 18.4500 0.0000 0.0000 0.0000
# 3 18.4500 18.4500 57.8543 0.0000 0.0000 0.0000
# 4 0.0000 0.0000 0.0000 24.5832 0.0000 0.0000
# 5 0.0000 0.0000 0.0000 0.0000 24.5832 0.0000
# 6 0.0000 0.0000 0.0000 0.0000 0.0000 36.2858
#
#
#
# Elastic Compliance Matrix: (Units=1/GPa)
#
#
# Indices 1 2 3 4 5 6 
#
# 1 0.014787 -0.001503 -0.004236 0.000000 0.000000 0.000000
# 2 -0.001503 0.014787 -0.004236 0.000000 0.000000 0.000000
# 3 -0.004236 -0.004236 0.019987 0.000000 0.000000 0.000000
# 4 0.000000 0.000000 0.000000 0.040678 0.000000 0.000000
# 5 0.000000 0.000000 0.000000 0.000000 0.040678 0.000000
# 6 0.000000 0.000000 0.000000 0.000000 0.000000 0.027559
#
#
# Mechanical properties :
#
#
# Convention : Reuss Voigt Hill
#
# Bulk Modulus (GPa) = 33.77348 33.97241 33.87295
# Shear Modulus (GPa) = 26.55380 27.52763 27.04071
#
# Velocity S-wave (km/s) = 3.53270 3.59690 3.56494
# Velocity P-wave (km/s) = 5.70203 5.76341 5.73280
#
# Compressibility (1/GPa) = 0.02960903
#
# Stress axis : x y z
#
# Youngs Moduli (GPa) = 67.62714 67.62714 50.03339
#
# Poissons Ratio (x) = 0.10167 0.21195
# Poissons Ratio (y) = 0.10167 0.21195
# Poissons Ratio (z) = 0.28648 0.28648
#
# Static dielectric constant tensor:
#      x y z
#    x 1.778240 0.000000 0.000000 
#    y 0.000000 1.778240 0.000000 
#    z 0.000000 0.000000 1.835520 
# 
# From -- ./inp_files/6777.got.cif
#   From: 2010.05.17/outbox.cif.g08.bks.cpg/sg140_4_cif.got.tgz:6777.got - 2010.06.21 00:45:31.
