data_PCOD9572493
_publ_section_title
;
Structure prediction by ZEFSAII (Michael W. Deem and Ramdas Pophale) SiO2 
 PCOD9572493
Probable space group: I 4/M C M
;
_chemical_formula_sum "Si O2"
_cell_formula_units_Z 176
_cell_length_a 18.415006
_cell_length_b 18.415006
_cell_length_c 27.367415
_cell_angle_alpha 90.000000
_cell_angle_beta 90.000000
_cell_angle_gamma 90.000000
_cell_volume 9280.631041
_symmetry_space_group_name_H-M "I 4/M C M"
_symmetry_group_IT_number 140
_symmetry_cell_setting 'tetragonal'
loop_
_space_group_symop_operation_xyz
x,y,z
-y,x,z
-x,-y,z
y,-x,z
x,-y,1/2-z
-x,y,1/2-z
y,x,1/2-z
-y,-x,1/2-z
-x,-y,-z
y,-x,-z
x,y,-z
-y,x,-z
-x,y,1/2+z
x,-y,1/2+z
-y,-x,1/2+z
y,x,1/2+z
1/2+x,1/2+y,1/2+z
1/2-y,1/2+x,1/2+z
1/2-x,1/2-y,1/2+z
1/2+y,1/2-x,1/2+z
1/2+x,1/2-y,-z
1/2-x,1/2+y,-z
1/2+y,1/2+x,-z
1/2-y,1/2-x,-z
1/2-x,1/2-y,1/2-z
1/2+y,1/2-x,1/2-z
1/2+x,1/2+y,1/2-z
1/2-y,1/2+x,1/2-z
1/2-x,1/2+y,z
1/2+x,1/2-y,z
1/2-y,1/2-x,z
1/2+y,1/2+x,z
loop_
_atom_site_type_symbol
_atom_site_label
_atom_site_fract_x
_atom_site_fract_y
_atom_site_fract_z
Si Si1 0.639881 0.860120 0.443170
Si Si2 0.213479 0.497396 0.406021
Si Si3 0.341984 0.158017 0.058303
Si Si4 0.998906 0.223260 0.694383
Si Si5 0.619027 0.503606 0.940833
Si Si6 0.844296 0.844565 0.194018
Si Si7 0.241517 0.741517 0.379504
O O1 0.654804 0.845197 0.500000
O O2 0.558148 0.836213 0.431020
O O3 0.688164 0.811837 0.407298
O O4 0.183189 0.419798 0.421800
O O5 0.216153 0.505401 0.347391
O O6 0.298648 0.505255 0.421683
O O7 0.284989 0.215012 0.079650
O O8 0.342595 0.157406 0.000000
O O9 0.072365 0.178018 0.686781
O O10 0.000000 0.251918 0.750000
O O11 0.929483 0.171189 0.689537
O O12 0.568816 0.573046 0.926576
O O13 0.622487 0.503685 0.000000
O O14 0.824173 0.824173 0.250000
O O15 0.802469 0.796183 0.154984
#
# Coordination Sequence:
#
# PCOD9572493 Si02
#       7
#    16  32  16  32  32  32  16
#     4  12  27  44  67  95 130 174 223 275 332 397
#     4  12  25  45  65  94 130 171 218 276 331 391
#     4  12  27  44  67  95 130 174 223 275 332 397
#     4  10  22  40  63  95 131 171 214 261 323 394
#     4   9  20  38  61  89 124 168 211 254 318 398
#     4  10  21  40  65  95 131 171 216 267 326 391
#     4  12  22  40  64 102 128 164 212 278 336 384
#
# _framework density 18.964227999999999
#
# number of rings (size 3 to 8) (size 9 to 14) (size 15 to 20)
#    0.000    1.273    3.636    2.727    5.091    0.727 
#    0.000    3.636    0.000    0.000    0.000    1.273 
#    0.000    0.000    0.000    0.000    0.000    0.000 
#
# Total GULP energy -491820.738221 kJ/mol
# GULP energy per Si atom -5588.872025 kJ/mol
# Density = 1.892106 g / cm^3
# Si number density = 18.964228 Si / 1000 Ang^3
#
#
#
# Elastic Constant Matrix: (Units=GPa)
#
#
# Indices 1 2 3 4 5 6 
#
# 1 51.9878 12.5409 3.3632 0.0000 0.0000 0.0000
# 2 12.5409 51.9902 3.3646 0.0000 0.0000 0.0000
# 3 3.3632 3.3646 100.1932 0.0000 0.0000 0.0000
# 4 0.0000 0.0000 0.0000 14.4175 0.0000 0.0000
# 5 0.0000 0.0000 0.0000 0.0000 14.4175 0.0000
# 6 0.0000 0.0000 0.0000 0.0000 0.0000 21.4186
#
#
#
# Elastic Compliance Matrix: (Units=1/GPa)
#
#
# Indices 1 2 3 4 5 6 
#
# 1 0.020451 -0.004899 -0.000522 0.000000 0.000000 0.000000
# 2 -0.004899 0.020450 -0.000522 0.000000 0.000000 0.000000
# 3 -0.000522 -0.000522 0.010016 0.000000 0.000000 0.000000
# 4 0.000000 0.000000 0.000000 0.069360 0.000000 0.000000
# 5 0.000000 0.000000 0.000000 0.000000 0.069360 0.000000
# 6 0.000000 0.000000 0.000000 0.000000 0.000000 0.046688
#
#
# Mechanical properties :
#
#
# Convention : Reuss Voigt Hill
#
# Bulk Modulus (GPa) = 25.62160 26.96762 26.29461
# Shear Modulus (GPa) = 19.14079 22.37756 20.75918
#
# Velocity S-wave (km/s) = 3.18041 3.43882 3.31214
# Velocity P-wave (km/s) = 5.19870 5.47891 5.34064
#
# Compressibility (1/GPa) = 0.03902957
#
# Stress axis : x y z
#
# Youngs Moduli (GPa) = 48.89767 48.89981 99.84250
#
# Poissons Ratio (x) = 0.23957 0.05211
# Poissons Ratio (y) = 0.23956 0.05214
# Poissons Ratio (z) = 0.02552 0.02554
#
# Static dielectric constant tensor:
#      x y z
#    x 1.646430 0.000000 0.000000 
#    y 0.000000 1.646430 0.000000 
#    z 0.000000 0.000000 1.689860 
# 
# From -- ./inp_files/10755.got.cif
#   From: 2010.05.17/outbox.cif.g08.bks.cpg/sg140_6_cif.got.tgz:10755.got - 2010.06.21 00:45:31.
