data_PCOD9572608
_publ_section_title
;
Structure prediction by ZEFSAII (Michael W. Deem and Ramdas Pophale) SiO2 
 PCOD9572608
Probable space group: I 4/M C M
;
_chemical_formula_sum "Si O2"
_cell_formula_units_Z 104
_cell_length_a 17.389916
_cell_length_b 17.389916
_cell_length_c 14.395507
_cell_angle_alpha 90.000000
_cell_angle_beta 90.000000
_cell_angle_gamma 90.000000
_cell_volume 4353.333446
_symmetry_space_group_name_H-M "I 4/M C M"
_symmetry_group_IT_number 140
_symmetry_cell_setting 'tetragonal'
loop_
_space_group_symop_operation_xyz
x,y,z
-y,x,z
-x,-y,z
y,-x,z
x,-y,1/2-z
-x,y,1/2-z
y,x,1/2-z
-y,-x,1/2-z
-x,-y,-z
y,-x,-z
x,y,-z
-y,x,-z
-x,y,1/2+z
x,-y,1/2+z
-y,-x,1/2+z
y,x,1/2+z
1/2+x,1/2+y,1/2+z
1/2-y,1/2+x,1/2+z
1/2-x,1/2-y,1/2+z
1/2+y,1/2-x,1/2+z
1/2+x,1/2-y,-z
1/2-x,1/2+y,-z
1/2+y,1/2+x,-z
1/2-y,1/2-x,-z
1/2-x,1/2-y,1/2-z
1/2+y,1/2-x,1/2-z
1/2+x,1/2+y,1/2-z
1/2-y,1/2+x,1/2-z
1/2-x,1/2+y,z
1/2+x,1/2-y,z
1/2-y,1/2-x,z
1/2+y,1/2+x,z
loop_
_atom_site_type_symbol
_atom_site_label
_atom_site_fract_x
_atom_site_fract_y
_atom_site_fract_z
Si Si1 0.275048 0.654215 0.612389
Si Si2 0.652400 0.975665 0.356002
Si Si3 0.099980 0.928491 0.387157
Si Si4 0.603013 0.103013 0.500000
O O1 0.277178 0.659482 0.500000
O O2 0.223307 0.723307 0.648128
O O3 0.229241 0.575313 0.632225
O O4 0.363196 0.658029 0.644262
O O5 0.581322 0.918679 0.382595
O O6 0.643840 0.000000 0.250000
O O7 0.646504 0.050253 0.419928
O O8 0.101953 0.931353 0.500000
O O9 0.016212 0.896840 0.357925
#
# Coordination Sequence:
#
# PCOD9572608 Si02
#       4
#    32  32  32   8
#     4   9  17  29  47  73 108 142 176 227 288 345
#     4  11  20  30  48  72 103 149 190 231 283 337
#     4   8  14  27  51  78 103 138 190 243 285 337
#     4  12  21  32  48  72 108 144 204 248 270 338
#
# _framework density 23.889738999999999
#
# number of rings (size 3 to 8) (size 9 to 14) (size 15 to 20)
#    0.000    2.462    3.077    2.308    0.000    0.000 
#    0.000    0.000    3.385    1.846    0.000    6.462 
#    0.000    0.000    0.000    0.000    0.000    0.000 
#
# Total GULP energy -289572.892922 kJ/mol
# GULP energy per Si atom -5568.709479 kJ/mol
# Density = 2.383536 g / cm^3
# Si number density = 23.889739 Si / 1000 Ang^3
#
#
#
# Elastic Constant Matrix: (Units=GPa)
#
#
# Indices 1 2 3 4 5 6 
#
# 1 25.6343 28.8376 -22.7352 0.0000 0.0000 0.0000
# 2 28.8376 25.6343 -22.7352 0.0000 0.0000 0.0000
# 3 -22.7352 -22.7352 122.3482 0.0000 0.0000 0.0000
# 4 0.0000 0.0000 0.0000 26.5704 0.0000 0.0000
# 5 0.0000 0.0000 0.0000 0.0000 26.5704 0.0000
# 6 0.0000 0.0000 0.0000 0.0000 0.0000 -9.0707
#
#
#
# Elastic Compliance Matrix: (Units=1/GPa)
#
#
# Indices 1 2 3 4 5 6 
#
# 1 -0.145226 0.166955 0.004038 0.000000 0.000000 0.000000
# 2 0.166955 -0.145226 0.004038 0.000000 0.000000 0.000000
# 3 0.004038 0.004038 0.009674 0.000000 0.000000 0.000000
# 4 0.000000 0.000000 0.000000 0.037636 0.000000 0.000000
# 5 0.000000 0.000000 0.000000 0.000000 0.037636 0.000000
# 6 0.000000 0.000000 0.000000 0.000000 0.000000 -0.110245
#
#
# Mechanical properties :
#
#
# Convention : Reuss Voigt Hill
#
# Bulk Modulus (GPa) = 14.43379 15.59456 15.01417
# Shear Modulus (GPa) = -7.77947 21.49734 6.85894
#
# Velocity S-wave (km/s) = -1.80651 3.00302 1.69626
# Velocity P-wave (km/s) = 1.30524 4.30883 3.18353
#
# Compressibility (1/GPa) = 0.06928187
#
# Stress axis : x y z
#
# Youngs Moduli (GPa) = -6.88582 -6.88582 103.36992
#
# Poissons Ratio (x) = 1.14962 -0.41738
# Poissons Ratio (y) = 1.14962 -0.41738
# Poissons Ratio (z) = 0.02780 0.02780
#
# Static dielectric constant tensor:
#      x y z
#    x 1.921190 0.000000 0.000000 
#    y 0.000000 1.921190 0.000000 
#    z 0.000000 0.000000 1.904310 
# 
# From -- ./inp_files/5974.got.cif
#   From: 2010.05.17/outbox.cif.g08.bks.cpg/sg140_3_cif.got.tgz:5974.got - 2010.06.21 00:45:31.
