data_PCOD9572225
_publ_section_title
;
Structure prediction by ZEFSAII (Michael W. Deem and Ramdas Pophale) SiO2 
 PCOD9572225
Probable space group: I 4/M C M
;
_chemical_formula_sum "Si O2"
_cell_formula_units_Z 240
_cell_length_a 20.224322
_cell_length_b 20.224322
_cell_length_c 27.000509
_cell_angle_alpha 90.000000
_cell_angle_beta 90.000000
_cell_angle_gamma 90.000000
_cell_volume 11043.834603
_symmetry_space_group_name_H-M "I 4/M C M"
_symmetry_group_IT_number 140
_symmetry_cell_setting 'tetragonal'
loop_
_space_group_symop_operation_xyz
x,y,z
-y,x,z
-x,-y,z
y,-x,z
x,-y,1/2-z
-x,y,1/2-z
y,x,1/2-z
-y,-x,1/2-z
-x,-y,-z
y,-x,-z
x,y,-z
-y,x,-z
-x,y,1/2+z
x,-y,1/2+z
-y,-x,1/2+z
y,x,1/2+z
1/2+x,1/2+y,1/2+z
1/2-y,1/2+x,1/2+z
1/2-x,1/2-y,1/2+z
1/2+y,1/2-x,1/2+z
1/2+x,1/2-y,-z
1/2-x,1/2+y,-z
1/2+y,1/2+x,-z
1/2-y,1/2-x,-z
1/2-x,1/2-y,1/2-z
1/2+y,1/2-x,1/2-z
1/2+x,1/2+y,1/2-z
1/2-y,1/2+x,1/2-z
1/2-x,1/2+y,z
1/2+x,1/2-y,z
1/2-y,1/2-x,z
1/2+y,1/2+x,z
loop_
_atom_site_type_symbol
_atom_site_label
_atom_site_fract_x
_atom_site_fract_y
_atom_site_fract_z
Si Si1 0.755856 0.511765 0.057362
Si Si2 0.895536 0.994254 0.321921
Si Si3 0.709006 0.596620 0.148855
Si Si4 0.837799 0.450354 0.794504
Si Si5 0.644661 0.747135 0.747001
Si Si6 0.426904 0.417064 0.500000
Si Si7 0.001061 0.389093 0.896433
Si Si8 0.915424 0.147579 0.904250
O O1 0.739198 0.568156 0.098287
O O2 0.834341 0.501889 0.061164
O O3 0.716097 0.446639 0.076862
O O4 0.737327 0.525277 0.000000
O O5 0.890839 0.021747 0.379288
O O6 0.934439 0.058168 0.303716
O O7 0.822978 0.964157 0.318941
O O8 0.757185 0.628453 0.188923
O O9 0.646830 0.643981 0.133257
O O10 0.851455 0.500000 0.750000
O O11 0.893096 0.393096 0.793340
O O12 0.767925 0.415357 0.782348
O O13 0.847504 0.487070 0.846261
O O14 0.673350 0.673350 0.750000
O O15 0.703508 0.796493 0.761780
O O16 0.504828 0.410730 0.500000
O O17 0.393099 0.390503 0.451141
O O18 0.941698 0.441698 0.902101
O O19 0.067866 0.432135 0.893047
#
# Coordination Sequence:
#
# PCOD9572225 Si02
#       8
#    32  32  32  32  32  16  32  32
#     4  11  23  38  60  91 129 173 216 262 322 385
#     4   8  14  28  48  73 110 156 197 239 295 346
#     4  10  21  35  57  87 124 164 210 263 313 373
#     4  10  20  37  66  98 126 152 194 258 329 391
#     4  10  23  43  64  88 119 162 210 257 314 392
#     4  11  18  26  48  82 118 163 218 272 316 361
#     4  10  23  43  68  97 125 156 201 265 338 403
#     4  10  20  31  52  82 125 168 211 262 308 362
#
# _framework density 21.731583000000001
#
# number of rings (size 3 to 8) (size 9 to 14) (size 15 to 20)
#    0.000    2.067    0.667    3.600    2.800    4.933 
#    2.400    0.667    0.000    0.000    0.000    3.733 
#    0.000    0.000    0.000    0.000    0.000    0.000 
#
# Total GULP energy -668404.095411 kJ/mol
# GULP energy per Si atom -5570.034128 kJ/mol
# Density = 2.168212 g / cm^3
# Si number density = 21.731583 Si / 1000 Ang^3
#
#
#
# Elastic Constant Matrix: (Units=GPa)
#
#
# Indices 1 2 3 4 5 6 
#
# 1 75.9137 34.7694 32.8167 0.0000 0.0000 0.0000
# 2 34.7694 75.9137 32.8167 0.0000 0.0000 0.0000
# 3 32.8167 32.8167 82.8032 0.0000 0.0000 0.0000
# 4 0.0000 0.0000 0.0000 97.8146 0.0000 0.0000
# 5 0.0000 0.0000 0.0000 0.0000 97.8146 0.0000
# 6 0.0000 0.0000 0.0000 0.0000 0.0000 15.0975
#
#
#
# Elastic Compliance Matrix: (Units=1/GPa)
#
#
# Indices 1 2 3 4 5 6 
#
# 1 0.018058 -0.006247 -0.004681 0.000000 0.000000 0.000000
# 2 -0.006247 0.018058 -0.004681 0.000000 0.000000 0.000000
# 3 -0.004681 -0.004681 0.015787 0.000000 0.000000 0.000000
# 4 0.000000 0.000000 0.000000 0.010223 0.000000 0.000000
# 5 0.000000 0.000000 0.000000 0.000000 0.010223 0.000000
# 6 0.000000 0.000000 0.000000 0.000000 0.000000 0.066236
#
#
# Mechanical properties :
#
#
# Convention : Reuss Voigt Hill
#
# Bulk Modulus (GPa) = 48.34445 48.38180 48.36312
# Shear Modulus (GPa) = 28.29702 51.09387 39.69544
#
# Velocity S-wave (km/s) = 3.61240 4.85411 4.27854
# Velocity P-wave (km/s) = 6.30029 7.32995 6.83454
#
# Compressibility (1/GPa) = 0.02068490
#
# Stress axis : x y z
#
# Youngs Moduli (GPa) = 55.37856 55.37856 63.34336
#
# Poissons Ratio (x) = 0.34596 0.29649
# Poissons Ratio (y) = 0.34596 0.29649
# Poissons Ratio (z) = 0.25921 0.25921
#
# Static dielectric constant tensor:
#      x y z
#    x 1.848860 0.000000 0.000000 
#    y 0.000000 1.848860 0.000000 
#    z 0.000000 0.000000 1.844170 
# 
# From -- ./inp_files/10982.got.cif
#   From: 2010.05.17/outbox.cif.g08.bks.cpg/sg140_6_cif.got.tgz:10982.got - 2010.06.21 00:45:31.
