data_PCOD9572519
_publ_section_title
;
Structure prediction by ZEFSAII (Michael W. Deem and Ramdas Pophale) SiO2 
 PCOD9572519
Probable space group: I 4/M C M
;
_chemical_formula_sum "Si O2"
_cell_formula_units_Z 160
_cell_length_a 21.045613
_cell_length_b 21.045613
_cell_length_c 19.735298
_cell_angle_alpha 90.000000
_cell_angle_beta 90.000000
_cell_angle_gamma 90.000000
_cell_volume 8741.115296
_symmetry_space_group_name_H-M "I 4/M C M"
_symmetry_group_IT_number 140
_symmetry_cell_setting 'tetragonal'
loop_
_space_group_symop_operation_xyz
x,y,z
-y,x,z
-x,-y,z
y,-x,z
x,-y,1/2-z
-x,y,1/2-z
y,x,1/2-z
-y,-x,1/2-z
-x,-y,-z
y,-x,-z
x,y,-z
-y,x,-z
-x,y,1/2+z
x,-y,1/2+z
-y,-x,1/2+z
y,x,1/2+z
1/2+x,1/2+y,1/2+z
1/2-y,1/2+x,1/2+z
1/2-x,1/2-y,1/2+z
1/2+y,1/2-x,1/2+z
1/2+x,1/2-y,-z
1/2-x,1/2+y,-z
1/2+y,1/2+x,-z
1/2-y,1/2-x,-z
1/2-x,1/2-y,1/2-z
1/2+y,1/2-x,1/2-z
1/2+x,1/2+y,1/2-z
1/2-y,1/2+x,1/2-z
1/2-x,1/2+y,z
1/2+x,1/2-y,z
1/2-y,1/2-x,z
1/2+y,1/2+x,z
loop_
_atom_site_type_symbol
_atom_site_label
_atom_site_fract_x
_atom_site_fract_y
_atom_site_fract_z
Si Si1 0.886310 0.804388 0.420335
Si Si2 0.680603 0.074000 0.663374
Si Si3 0.569167 0.418163 0.673603
Si Si4 0.750991 0.145133 0.073612
Si Si5 0.571835 0.821795 0.322383
O O1 0.904138 0.804600 0.500000
O O2 0.911509 0.742072 0.382140
O O3 0.906088 0.868671 0.381336
O O4 0.810064 0.808539 0.415770
O O5 0.623774 0.123774 0.648630
O O6 0.696384 0.079047 0.743533
O O7 0.661622 0.000074 0.657379
O O8 0.585619 0.492645 0.666871
O O9 0.594713 0.405288 0.750000
O O10 0.689222 0.189222 0.071037
O O11 0.737017 0.095337 0.132252
O O12 0.760082 0.113647 0.000000
O O13 0.617459 0.882542 0.332493
#
# Coordination Sequence:
#
# PCOD9572519 Si02
#       5
#    32  32  32  32  32
#     4  11  24  36  56  86 119 157 193 236 293 352
#     4  10  22  38  58  86 119 154 195 247 302 358
#     4   9  21  40  60  83 113 151 193 241 292 344
#     4   9  19  36  55  78 111 146 183 229 283 345
#     4   9  20  38  61  87 113 150 198 246 298 358
#
# _framework density 18.304300999999999
#
# number of rings (size 3 to 8) (size 9 to 14) (size 15 to 20)
#    0.000    2.400    0.000    1.200    5.600    4.800 
#    0.000    6.000    0.000    0.000    0.000    4.200 
#    0.000    0.000    0.000    0.000    0.000    0.000 
#
# Total GULP energy -445613.470619 kJ/mol
# GULP energy per Si atom -5570.168383 kJ/mol
# Density = 1.826264 g / cm^3
# Si number density = 18.304301 Si / 1000 Ang^3
#
#
#
# Elastic Constant Matrix: (Units=GPa)
#
#
# Indices 1 2 3 4 5 6 
#
# 1 67.3027 33.9985 70.4906 0.0000 0.0000 0.0000
# 2 33.9985 67.3023 70.4907 0.0000 0.0000 0.0000
# 3 70.4906 70.4907 114.9892 0.0000 0.0000 0.0000
# 4 0.0000 0.0000 0.0000 15.7744 0.0000 0.0000
# 5 0.0000 0.0000 0.0000 0.0000 15.7746 0.0000
# 6 0.0000 0.0000 0.0000 0.0000 0.0000 21.6915
#
#
#
# Elastic Compliance Matrix: (Units=1/GPa)
#
#
# Indices 1 2 3 4 5 6 
#
# 1 0.048622 0.018597 -0.041207 0.000000 0.000000 0.000000
# 2 0.018597 0.048623 -0.041207 0.000000 0.000000 0.000000
# 3 -0.041207 -0.041207 0.059218 0.000000 0.000000 0.000000
# 4 0.000000 0.000000 0.000000 0.063394 0.000000 0.000000
# 5 0.000000 0.000000 0.000000 0.000000 0.063393 0.000000
# 6 0.000000 0.000000 0.000000 0.000000 0.000000 0.046101
#
#
# Mechanical properties :
#
#
# Convention : Reuss Voigt Hill
#
# Bulk Modulus (GPa) = 34.68708 66.61711 50.65210
# Shear Modulus (GPa) = 10.71592 15.62241 13.16916
#
# Velocity S-wave (km/s) = 2.42219 2.92461 2.68518
# Velocity P-wave (km/s) = 5.17823 6.91937 6.11113
#
# Compressibility (1/GPa) = 0.02882918
#
# Stress axis : x y z
#
# Youngs Moduli (GPa) = 20.56664 20.56622 16.88684
#
# Poissons Ratio (x) = -0.38246 0.69585
# Poissons Ratio (y) = -0.38247 0.69586
# Poissons Ratio (z) = 0.84748 0.84748
#
# Static dielectric constant tensor:
#      x y z
#    x 1.620820 0.000000 0.000000 
#    y 0.000000 1.620820 0.000000 
#    z 0.000000 0.000000 1.660170 
# 
# From -- ./inp_files/6823.got.cif
#   From: 2010.05.17/outbox.cif.g08.bks.cpg/sg140_4_cif.got.tgz:6823.got - 2010.06.21 00:45:31.
