data_PCOD9572397
_publ_section_title
;
Structure prediction by ZEFSAII (Michael W. Deem and Ramdas Pophale) SiO2 
 PCOD9572397
Probable space group: I 4/M C M
;
_chemical_formula_sum "Si O2"
_cell_formula_units_Z 176
_cell_length_a 18.071414
_cell_length_b 18.071414
_cell_length_c 26.461690
_cell_angle_alpha 90.000000
_cell_angle_beta 90.000000
_cell_angle_gamma 90.000000
_cell_volume 8641.752978
_symmetry_space_group_name_H-M "I 4/M C M"
_symmetry_group_IT_number 140
_symmetry_cell_setting 'tetragonal'
loop_
_space_group_symop_operation_xyz
x,y,z
-y,x,z
-x,-y,z
y,-x,z
x,-y,1/2-z
-x,y,1/2-z
y,x,1/2-z
-y,-x,1/2-z
-x,-y,-z
y,-x,-z
x,y,-z
-y,x,-z
-x,y,1/2+z
x,-y,1/2+z
-y,-x,1/2+z
y,x,1/2+z
1/2+x,1/2+y,1/2+z
1/2-y,1/2+x,1/2+z
1/2-x,1/2-y,1/2+z
1/2+y,1/2-x,1/2+z
1/2+x,1/2-y,-z
1/2-x,1/2+y,-z
1/2+y,1/2+x,-z
1/2-y,1/2-x,-z
1/2-x,1/2-y,1/2-z
1/2+y,1/2-x,1/2-z
1/2+x,1/2+y,1/2-z
1/2-y,1/2+x,1/2-z
1/2-x,1/2+y,z
1/2+x,1/2-y,z
1/2-y,1/2-x,z
1/2+y,1/2+x,z
loop_
_atom_site_type_symbol
_atom_site_label
_atom_site_fract_x
_atom_site_fract_y
_atom_site_fract_z
Si Si1 0.005568 0.226893 0.806643
Si Si2 0.839581 0.844416 0.805196
Si Si3 0.697101 0.309413 0.586698
Si Si4 0.623909 0.996193 0.000000
Si Si5 0.064696 0.688491 0.403782
Si Si6 0.438648 0.600775 0.560520
O O1 0.928245 0.185516 0.813228
O O2 0.000000 0.261948 0.750000
O O3 0.072286 0.167773 0.805430
O O4 0.025934 0.281450 0.852840
O O5 0.816322 0.816322 0.750000
O O6 0.808570 0.801051 0.852630
O O7 0.735354 0.235354 0.566469
O O8 0.749757 0.379011 0.573780
O O9 0.613917 0.330851 0.572800
O O10 0.669089 0.008325 0.051448
O O11 0.562440 0.062440 0.000000
O O12 0.580039 0.919962 0.000000
O O13 0.117202 0.617202 0.392626
O O14 0.400994 0.523563 0.578834
O O15 0.442294 0.597123 0.500000
#
# Coordination Sequence:
#
# PCOD9572397 Si02
#       6
#    32  32  32  16  32  32
#     4   9  18  35  57  82 113 149 191 240 293 346
#     4   9  19  34  54  80 112 148 187 232 285 347
#     4  10  21  34  55  85 113 149 189 232 290 346
#     4   9  18  36  62  84 106 145 194 244 295 348
#     4   9  19  35  55  80 112 150 193 234 285 354
#     4   9  20  38  59  82 110 150 193 236 286 341
#
# _framework density 20.366239
#
# number of rings (size 3 to 8) (size 9 to 14) (size 15 to 20)
#    0.000    2.818    0.000    0.545    6.364    1.091 
#    0.000    6.364    0.000    0.000    0.000    0.000 
#    0.000    0.000    0.000    0.000    0.000    0.000 
#
# Total GULP energy -490624.839968 kJ/mol
# GULP energy per Si atom -5575.282272 kJ/mol
# Density = 2.031988 g / cm^3
# Si number density = 20.366239 Si / 1000 Ang^3
#
#
#
# Elastic Constant Matrix: (Units=GPa)
#
#
# Indices 1 2 3 4 5 6 
#
# 1 47.9148 63.0709 31.1682 0.0000 0.0000 0.0000
# 2 63.0709 47.9152 31.1678 0.0000 0.0000 0.0000
# 3 31.1682 31.1678 106.0512 0.0000 0.0000 0.0000
# 4 0.0000 0.0000 0.0000 12.4133 0.0000 0.0000
# 5 0.0000 0.0000 0.0000 0.0000 12.4169 0.0000
# 6 0.0000 0.0000 0.0000 0.0000 0.0000 33.8757
#
#
#
# Elastic Compliance Matrix: (Units=1/GPa)
#
#
# Indices 1 2 3 4 5 6 
#
# 1 -0.027595 0.038386 -0.003171 0.000000 0.000000 0.000000
# 2 0.038386 -0.027594 -0.003172 0.000000 0.000000 0.000000
# 3 -0.003171 -0.003172 0.011294 0.000000 0.000000 0.000000
# 4 0.000000 0.000000 0.000000 0.080559 0.000000 0.000000
# 5 0.000000 0.000000 0.000000 0.000000 0.080536 0.000000
# 6 0.000000 0.000000 0.000000 0.000000 0.000000 0.029520
#
#
# Mechanical properties :
#
#
# Convention : Reuss Voigt Hill
#
# Bulk Modulus (GPa) = 49.52869 50.29944 49.91406
# Shear Modulus (GPa) = 55.95174 16.83946 36.39560
#
# Velocity S-wave (km/s) = 5.24714 2.87859 4.23194
# Velocity P-wave (km/s) = 7.81548 5.98326 6.95993
#
# Compressibility (1/GPa) = 0.02019032
#
# Stress axis : x y z
#
# Youngs Moduli (GPa) = -36.23874 -36.23932 88.54545
#
# Poissons Ratio (x) = 1.39108 0.28081
# Poissons Ratio (y) = 1.39106 0.28085
# Poissons Ratio (z) = -0.11493 -0.11494
#
# Static dielectric constant tensor:
#      x y z
#    x 1.735070 0.000000 0.000000 
#    y 0.000000 1.735070 0.000000 
#    z 0.000000 0.000000 1.778050 
# 
# From -- ./inp_files/10716.got.cif
#   From: 2010.05.17/outbox.cif.g08.bks.cpg/sg140_6_cif.got.tgz:10716.got - 2010.06.21 00:45:31.
