data_PCOD9572082
_publ_section_title
;
Structure prediction by ZEFSAII (Michael W. Deem and Ramdas Pophale) SiO2 
 PCOD9572082
Probable space group: I 4/M C M
;
_chemical_formula_sum "Si O2"
_cell_formula_units_Z 144
_cell_length_a 20.022772
_cell_length_b 20.022772
_cell_length_c 13.785611
_cell_angle_alpha 90.000000
_cell_angle_beta 90.000000
_cell_angle_gamma 90.000000
_cell_volume 5526.808586
_symmetry_space_group_name_H-M "I 4/M C M"
_symmetry_group_IT_number 140
_symmetry_cell_setting 'tetragonal'
loop_
_space_group_symop_operation_xyz
x,y,z
-y,x,z
-x,-y,z
y,-x,z
x,-y,1/2-z
-x,y,1/2-z
y,x,1/2-z
-y,-x,1/2-z
-x,-y,-z
y,-x,-z
x,y,-z
-y,x,-z
-x,y,1/2+z
x,-y,1/2+z
-y,-x,1/2+z
y,x,1/2+z
1/2+x,1/2+y,1/2+z
1/2-y,1/2+x,1/2+z
1/2-x,1/2-y,1/2+z
1/2+y,1/2-x,1/2+z
1/2+x,1/2-y,-z
1/2-x,1/2+y,-z
1/2+y,1/2+x,-z
1/2-y,1/2-x,-z
1/2-x,1/2-y,1/2-z
1/2+y,1/2-x,1/2-z
1/2+x,1/2+y,1/2-z
1/2-y,1/2+x,1/2-z
1/2-x,1/2+y,z
1/2+x,1/2-y,z
1/2-y,1/2-x,z
1/2+y,1/2+x,z
loop_
_atom_site_type_symbol
_atom_site_label
_atom_site_fract_x
_atom_site_fract_y
_atom_site_fract_z
Si Si1 0.928996 0.078680 0.365993
Si Si2 0.795448 0.157484 0.891578
Si Si3 0.554473 0.945528 0.617625
Si Si4 0.465684 0.792445 0.881564
Si Si5 0.382810 0.778806 0.381352
O O1 0.923564 0.076437 0.250000
O O2 0.884630 0.137365 0.401089
O O3 0.004832 0.090847 0.395686
O O4 0.743881 0.103054 0.847924
O O5 0.827517 0.224642 0.847092
O O6 0.770638 0.173291 0.000000
O O7 0.554323 0.945678 0.500000
O O8 0.537481 0.870010 0.645837
O O9 0.500000 0.000000 0.647247
O O10 0.539900 0.767062 0.851225
O O11 0.464323 0.786844 0.000000
O O12 0.383405 0.773969 0.500000
O O13 0.351771 0.851771 0.358287
#
# Coordination Sequence:
#
# PCOD9572082 Si02
#       5
#    32  32  16  32  32
#     4   9  18  32  48  66  92 129 168 201 239 290
#     4  10  19  29  46  71  99 126 158 203 250 295
#     4   9  16  26  42  62  91 130 170 209 249 296
#     4   9  17  27  41  64  93 126 165 203 246 298
#     4   9  17  28  42  62  93 128 158 192 244 298
#
# _framework density 26.054818999999998
#
# number of rings (size 3 to 8) (size 9 to 14) (size 15 to 20)
#    0.000    2.778    0.000    2.667    1.556    5.333 
#    0.000    1.111    0.000    0.667    0.000    0.000 
#    0.000    0.000    0.000    5.556    0.000    0.000 
#
# Total GULP energy -402477.896355 kJ/mol
# GULP energy per Si atom -5589.970783 kJ/mol
# Density = 2.599552 g / cm^3
# Si number density = 26.054819 Si / 1000 Ang^3
#
#
#
# Elastic Constant Matrix: (Units=GPa)
#
#
# Indices 1 2 3 4 5 6 
#
# 1 232.0624 51.7179 16.3768 0.0000 0.0000 0.0000
# 2 51.7179 232.0623 16.3776 0.0000 0.0000 0.0000
# 3 16.3768 16.3776 106.6878 0.0000 0.0000 0.0000
# 4 0.0000 0.0000 0.0000 9.9861 0.0000 0.0000
# 5 0.0000 0.0000 0.0000 0.0000 9.9861 0.0000
# 6 0.0000 0.0000 0.0000 0.0000 0.0000 87.8999
#
#
#
# Elastic Compliance Matrix: (Units=1/GPa)
#
#
# Indices 1 2 3 4 5 6 
#
# 1 0.004566 -0.000979 -0.000551 0.000000 0.000000 0.000000
# 2 -0.000979 0.004566 -0.000551 0.000000 0.000000 0.000000
# 3 -0.000551 -0.000551 0.009542 0.000000 0.000000 0.000000
# 4 0.000000 0.000000 0.000000 0.100140 0.000000 0.000000
# 5 0.000000 0.000000 0.000000 0.000000 0.100139 0.000000
# 6 0.000000 0.000000 0.000000 0.000000 0.000000 0.011377
#
#
# Mechanical properties :
#
#
# Convention : Reuss Voigt Hill
#
# Bulk Modulus (GPa) = 68.89763 82.19523 75.54643
# Shear Modulus (GPa) = 20.89178 53.99709 37.44444
#
# Velocity S-wave (km/s) = 2.83475 4.55735 3.79508
# Velocity P-wave (km/s) = 6.10042 7.70117 6.94706
#
# Compressibility (1/GPa) = 0.01451429
#
# Stress axis : x y z
#
# Youngs Moduli (GPa) = 219.00165 219.00122 104.79753
#
# Poissons Ratio (x) = 0.21435 0.05771
# Poissons Ratio (y) = 0.21435 0.05771
# Poissons Ratio (z) = 0.12060 0.12061
#
# Static dielectric constant tensor:
#      x y z
#    x 1.995400 0.000000 0.000000 
#    y 0.000000 1.995390 0.000000 
#    z 0.000000 0.000000 2.044380 
# 
# From -- ./inp_files/6639.got.cif
#   From: 2010.05.17/outbox.cif.g08.bks.cpg/sg140_4_cif.got.tgz:6639.got - 2010.06.21 00:45:31.
