data_PCOD9572697
_publ_section_title
;
Structure prediction by ZEFSAII (Michael W. Deem and Ramdas Pophale) SiO2 
 PCOD9572697
Probable space group: I 4/M C M
;
_chemical_formula_sum "Si O2"
_cell_formula_units_Z 160
_cell_length_a 18.793786
_cell_length_b 18.793786
_cell_length_c 18.606323
_cell_angle_alpha 90.000000
_cell_angle_beta 90.000000
_cell_angle_gamma 90.000000
_cell_volume 6571.872219
_symmetry_space_group_name_H-M "I 4/M C M"
_symmetry_group_IT_number 140
_symmetry_cell_setting 'tetragonal'
loop_
_space_group_symop_operation_xyz
x,y,z
-y,x,z
-x,-y,z
y,-x,z
x,-y,1/2-z
-x,y,1/2-z
y,x,1/2-z
-y,-x,1/2-z
-x,-y,-z
y,-x,-z
x,y,-z
-y,x,-z
-x,y,1/2+z
x,-y,1/2+z
-y,-x,1/2+z
y,x,1/2+z
1/2+x,1/2+y,1/2+z
1/2-y,1/2+x,1/2+z
1/2-x,1/2-y,1/2+z
1/2+y,1/2-x,1/2+z
1/2+x,1/2-y,-z
1/2-x,1/2+y,-z
1/2+y,1/2+x,-z
1/2-y,1/2-x,-z
1/2-x,1/2-y,1/2-z
1/2+y,1/2-x,1/2-z
1/2+x,1/2+y,1/2-z
1/2-y,1/2+x,1/2-z
1/2-x,1/2+y,z
1/2+x,1/2-y,z
1/2-y,1/2-x,z
1/2+y,1/2+x,z
loop_
_atom_site_type_symbol
_atom_site_label
_atom_site_fract_x
_atom_site_fract_y
_atom_site_fract_z
Si Si1 0.082702 0.171385 0.705043
Si Si2 0.998355 0.119886 0.078463
Si Si3 0.340344 0.725816 0.420863
Si Si4 0.348185 0.037358 0.082738
Si Si5 0.682874 0.065673 0.205723
O O1 0.101169 0.101169 0.750000
O O2 0.015686 0.163539 0.651017
O O3 0.147807 0.179567 0.648979
O O4 0.078629 0.242032 0.753521
O O5 0.066040 0.068861 0.079691
O O6 0.999106 0.157442 0.000000
O O7 0.344867 0.691745 0.500000
O O8 0.266708 0.766708 0.417005
O O9 0.402674 0.785654 0.416110
O O10 0.419016 0.080985 0.108005
O O11 0.321823 0.969012 0.126719
O O12 0.360430 0.018262 0.000000
O O13 0.636171 0.136171 0.209877
O O14 0.648987 0.000000 0.250000
#
# Coordination Sequence:
#
# PCOD9572697 Si02
#       5
#    32  32  32  32  32
#     4  12  26  39  64  95 137 181 221 266 342 419
#     4   9  21  43  70 101 134 170 222 287 345 404
#     4   9  18  36  60  85 117 163 220 274 323 390
#     4   9  19  39  68  96 125 170 227 285 345 405
#     4  12  26  43  64  96 137 177 229 289 347 410
#
# _framework density 24.346181999999999
#
# number of rings (size 3 to 8) (size 9 to 14) (size 15 to 20)
#    0.000    1.800    2.000    3.600    2.800    3.400 
#    0.000    4.000    0.000    0.000    0.000    0.000 
#    0.000    0.000    0.000    0.000    0.000    0.000 
#
# Total GULP energy -446757.326525 kJ/mol
# GULP energy per Si atom -5584.466582 kJ/mol
# Density = 2.429077 g / cm^3
# Si number density = 24.346182 Si / 1000 Ang^3
#
#
#
# Elastic Constant Matrix: (Units=GPa)
#
#
# Indices 1 2 3 4 5 6 
#
# 1 68.7895 27.4531 52.8210 0.0000 0.0000 0.0000
# 2 27.4531 68.7895 52.8210 0.0000 0.0000 0.0000
# 3 52.8210 52.8210 159.0602 0.0000 0.0000 0.0000
# 4 0.0000 0.0000 0.0000 36.1413 0.0000 0.0000
# 5 0.0000 0.0000 0.0000 0.0000 36.1413 0.0000
# 6 0.0000 0.0000 0.0000 0.0000 0.0000 40.4255
#
#
#
# Elastic Compliance Matrix: (Units=1/GPa)
#
#
# Indices 1 2 3 4 5 6 
#
# 1 0.020271 -0.003921 -0.005430 0.000000 0.000000 0.000000
# 2 -0.003921 0.020271 -0.005430 0.000000 0.000000 0.000000
# 3 -0.005430 -0.005430 0.009893 0.000000 0.000000 0.000000
# 4 0.000000 0.000000 0.000000 0.027669 0.000000 0.000000
# 5 0.000000 0.000000 0.000000 0.000000 0.027669 0.000000
# 6 0.000000 0.000000 0.000000 0.000000 0.000000 0.024737
#
#
# Mechanical properties :
#
#
# Convention : Reuss Voigt Hill
#
# Bulk Modulus (GPa) = 47.90378 62.53658 55.22018
# Shear Modulus (GPa) = 29.93494 33.44454 31.68974
#
# Velocity S-wave (km/s) = 3.51030 3.71038 3.61173
# Velocity P-wave (km/s) = 6.01236 6.64063 6.33429
#
# Compressibility (1/GPa) = 0.02087518
#
# Stress axis : x y z
#
# Youngs Moduli (GPa) = 49.33145 49.33145 101.08054
#
# Poissons Ratio (x) = 0.19341 0.54883
# Poissons Ratio (y) = 0.19341 0.54883
# Poissons Ratio (z) = 0.26785 0.26785
#
# Static dielectric constant tensor:
#      x y z
#    x 1.954950 0.000000 0.000000 
#    y 0.000000 1.954950 0.000000 
#    z 0.000000 0.000000 2.046310 
# 
# From -- ./inp_files/6835.got.cif
#   From: 2010.05.17/outbox.cif.g08.bks.cpg/sg140_4_cif.got.tgz:6835.got - 2010.06.21 00:45:31.
