data_PCOD9572329
_publ_section_title
;
Structure prediction by ZEFSAII (Michael W. Deem and Ramdas Pophale) SiO2 
 PCOD9572329
Probable space group: I 4/M C M
;
_chemical_formula_sum "Si O2"
_cell_formula_units_Z 160
_cell_length_a 23.315717
_cell_length_b 23.315717
_cell_length_c 16.925195
_cell_angle_alpha 90.000000
_cell_angle_beta 90.000000
_cell_angle_gamma 90.000000
_cell_volume 9200.919514
_symmetry_space_group_name_H-M "I 4/M C M"
_symmetry_group_IT_number 140
_symmetry_cell_setting 'tetragonal'
loop_
_space_group_symop_operation_xyz
x,y,z
-y,x,z
-x,-y,z
y,-x,z
x,-y,1/2-z
-x,y,1/2-z
y,x,1/2-z
-y,-x,1/2-z
-x,-y,-z
y,-x,-z
x,y,-z
-y,x,-z
-x,y,1/2+z
x,-y,1/2+z
-y,-x,1/2+z
y,x,1/2+z
1/2+x,1/2+y,1/2+z
1/2-y,1/2+x,1/2+z
1/2-x,1/2-y,1/2+z
1/2+y,1/2-x,1/2+z
1/2+x,1/2-y,-z
1/2-x,1/2+y,-z
1/2+y,1/2+x,-z
1/2-y,1/2-x,-z
1/2-x,1/2-y,1/2-z
1/2+y,1/2-x,1/2-z
1/2+x,1/2+y,1/2-z
1/2-y,1/2+x,1/2-z
1/2-x,1/2+y,z
1/2+x,1/2-y,z
1/2-y,1/2-x,z
1/2+y,1/2+x,z
loop_
_atom_site_type_symbol
_atom_site_label
_atom_site_fract_x
_atom_site_fract_y
_atom_site_fract_z
Si Si1 0.091834 0.496766 0.596226
Si Si2 0.118868 0.876958 0.343846
Si Si3 0.257758 0.334071 0.904426
Si Si4 0.042110 0.287436 0.903929
Si Si5 0.835264 0.002253 0.594741
O O1 0.094257 0.494523 0.500000
O O2 0.047624 0.547624 0.615810
O O3 0.154455 0.513318 0.625671
O O4 0.062421 0.437580 0.623086
O O5 0.121671 0.878330 0.250000
O O6 0.155682 0.822245 0.374118
O O7 0.053230 0.867776 0.371326
O O8 0.141566 0.937014 0.377033
O O9 0.222336 0.277664 0.879042
O O10 0.222459 0.391575 0.881000
O O11 0.260328 0.333353 0.000000
O O12 0.006935 0.230994 0.881098
O O13 0.042360 0.289993 0.000000
O O14 0.838493 0.999203 0.500000
#
# Coordination Sequence:
#
# PCOD9572329 Si02
#       5
#    32  32  32  32  32
#     4   8  12  18  32  59  95 129 158 192 237 285
#     4  11  22  36  54  78 106 133 164 207 261 312
#     4   9  17  31  52  75  99 133 177 216 249 293
#     4   8  14  25  43  66  93 126 165 207 245 285
#     4  10  20  36  55  74  98 131 170 209 251 305
#
# _framework density 17.389565999999999
#
# number of rings (size 3 to 8) (size 9 to 14) (size 15 to 20)
#    0.000    2.800    0.000    4.800    0.000    3.200 
#    0.000    3.000    0.000    3.600    0.000    0.000 
#    0.000    0.000    0.000   31.600    0.000   29.200 
#
# Total GULP energy -445762.664173 kJ/mol
# GULP energy per Si atom -5572.033302 kJ/mol
# Density = 1.734999 g / cm^3
# Si number density = 17.389566 Si / 1000 Ang^3
#
#
#
# Elastic Constant Matrix: (Units=GPa)
#
#
# Indices 1 2 3 4 5 6 
#
# 1 122.5809 122.0024 36.6119 0.0000 0.0000 0.0000
# 2 122.0024 122.5823 36.6132 0.0000 0.0000 0.0000
# 3 36.6119 36.6132 46.2862 0.0000 0.0000 0.0000
# 4 0.0000 0.0000 0.0000 6.1813 0.0000 0.0000
# 5 0.0000 0.0000 0.0000 0.0000 6.1811 0.0000
# 6 0.0000 0.0000 0.0000 0.0000 0.0000 29.5530
#
#
#
# Elastic Compliance Matrix: (Units=1/GPa)
#
#
# Indices 1 2 3 4 5 6 
#
# 1 0.865938 -0.860584 -0.004209 0.000000 0.000000 0.000000
# 2 -0.860584 0.865945 -0.004266 0.000000 0.000000 0.000000
# 3 -0.004209 -0.004266 0.028309 0.000000 0.000000 0.000000
# 4 0.000000 0.000000 0.000000 0.161778 0.000000 0.000000
# 5 0.000000 0.000000 0.000000 0.000000 0.161783 0.000000
# 6 0.000000 0.000000 0.000000 0.000000 0.000000 0.033838
#
#
# Mechanical properties :
#
#
# Convention : Reuss Voigt Hill
#
# Bulk Modulus (GPa) = 45.30480 75.76716 60.53598
# Shear Modulus (GPa) = 1.29431 14.79788 8.04609
#
# Velocity S-wave (km/s) = 0.86367 2.92029 2.15337
# Velocity P-wave (km/s) = 5.20615 7.41862 6.40858
#
# Compressibility (1/GPa) = 0.02207272
#
# Stress axis : x y z
#
# Youngs Moduli (GPa) = 1.15482 1.15481 35.32491
#
# Poissons Ratio (x) = 0.99381 0.14869
# Poissons Ratio (y) = 0.99382 0.15069
# Poissons Ratio (z) = 0.00486 0.00493
#
# Static dielectric constant tensor:
#      x y z
#    x 1.591480 0.000000 0.000000 
#    y 0.000000 1.591480 0.000000 
#    z 0.000000 0.000000 1.579570 
# 
# From -- ./inp_files/6863.got.cif
#   From: 2010.05.17/outbox.cif.g08.bks.cpg/sg140_4_cif.got.tgz:6863.got - 2010.06.21 00:45:31.
