data_PCOD9572232
_publ_section_title
;
Structure prediction by ZEFSAII (Michael W. Deem and Ramdas Pophale) SiO2 
 PCOD9572232
Probable space group: I 4/M C M
;
_chemical_formula_sum "Si O2"
_cell_formula_units_Z 160
_cell_length_a 19.238505
_cell_length_b 19.238505
_cell_length_c 28.105366
_cell_angle_alpha 90.000000
_cell_angle_beta 90.000000
_cell_angle_gamma 90.000000
_cell_volume 10402.360162
_symmetry_space_group_name_H-M "I 4/M C M"
_symmetry_group_IT_number 140
_symmetry_cell_setting 'tetragonal'
loop_
_space_group_symop_operation_xyz
x,y,z
-y,x,z
-x,-y,z
y,-x,z
x,-y,1/2-z
-x,y,1/2-z
y,x,1/2-z
-y,-x,1/2-z
-x,-y,-z
y,-x,-z
x,y,-z
-y,x,-z
-x,y,1/2+z
x,-y,1/2+z
-y,-x,1/2+z
y,x,1/2+z
1/2+x,1/2+y,1/2+z
1/2-y,1/2+x,1/2+z
1/2-x,1/2-y,1/2+z
1/2+y,1/2-x,1/2+z
1/2+x,1/2-y,-z
1/2-x,1/2+y,-z
1/2+y,1/2+x,-z
1/2-y,1/2-x,-z
1/2-x,1/2-y,1/2-z
1/2+y,1/2-x,1/2-z
1/2+x,1/2+y,1/2-z
1/2-y,1/2+x,1/2-z
1/2-x,1/2+y,z
1/2+x,1/2-y,z
1/2-y,1/2-x,z
1/2+y,1/2+x,z
loop_
_atom_site_type_symbol
_atom_site_label
_atom_site_fract_x
_atom_site_fract_y
_atom_site_fract_z
Si Si1 0.501474 0.382567 0.804109
Si Si2 0.400694 0.900694 0.442676
Si Si3 0.846362 0.872367 0.943163
Si Si4 0.287207 0.212794 0.057844
Si Si5 0.980230 0.808372 0.900223
Si Si6 0.548189 0.836737 0.443350
O O1 0.567611 0.434180 0.809386
O O2 0.500000 0.355406 0.750000
O O3 0.504954 0.325950 0.845388
O O4 0.398155 0.898155 0.500000
O O5 0.344209 0.844209 0.425863
O O6 0.478679 0.879319 0.430144
O O7 0.788873 0.814694 0.928012
O O8 0.920512 0.859868 0.919114
O O9 0.818278 0.947980 0.928765
O O10 0.853782 0.867942 0.000000
O O11 0.287476 0.212525 0.000000
O O12 0.951978 0.732295 0.912370
O O13 0.543856 0.818544 0.500000
O O14 0.615066 0.884935 0.437141
#
# Coordination Sequence:
#
# PCOD9572232 Si02
#       6
#    32  16  32  16  32  32
#     4   9  18  35  55  74  95 124 170 220 258 299
#     4   9  15  30  51  68  95 136 178 216 245 277
#     4  11  22  33  47  71 109 144 173 203 242 305
#     4   9  18  33  48  65  98 146 180 205 242 291
#     4  12  21  33  50  76 102 139 172 206 259 308
#     4  10  20  32  48  75 107 138 176 216 252 301
#
# _framework density 15.381124
#
# number of rings (size 3 to 8) (size 9 to 14) (size 15 to 20)
#    0.000    1.800    4.000    2.700    1.400    1.600 
#    0.000    1.000    0.000    0.000    5.200    2.800 
#    0.000    0.000    0.000    0.000    0.000    0.000 
#
# Total GULP energy -446136.135913 kJ/mol
# GULP energy per Si atom -5576.701699 kJ/mol
# Density = 1.534612 g / cm^3
# Si number density = 15.381124 Si / 1000 Ang^3
#
#
#
# Elastic Constant Matrix: (Units=GPa)
#
#
# Indices 1 2 3 4 5 6 
#
# 1 43.8958 32.3646 29.2472 0.0000 0.0000 0.0000
# 2 32.3646 43.8959 29.2473 0.0000 0.0000 0.0000
# 3 29.2472 29.2473 84.3701 0.0000 0.0000 0.0000
# 4 0.0000 0.0000 0.0000 9.2880 0.0000 0.0000
# 5 0.0000 0.0000 0.0000 0.0000 9.2880 0.0000
# 6 0.0000 0.0000 0.0000 0.0000 0.0000 20.4956
#
#
#
# Elastic Compliance Matrix: (Units=1/GPa)
#
#
# Indices 1 2 3 4 5 6 
#
# 1 0.052292 -0.034429 -0.006192 0.000000 0.000000 0.000000
# 2 -0.034429 0.052292 -0.006192 0.000000 0.000000 0.000000
# 3 -0.006192 -0.006192 0.016146 0.000000 0.000000 0.000000
# 4 0.000000 0.000000 0.000000 0.107666 0.000000 0.000000
# 5 0.000000 0.000000 0.000000 0.000000 0.107666 0.000000
# 6 0.000000 0.000000 0.000000 0.000000 0.000000 0.048791
#
#
# Mechanical properties :
#
#
# Convention : Reuss Voigt Hill
#
# Bulk Modulus (GPa) = 36.89740 39.31999 38.10870
# Shear Modulus (GPa) = 10.25615 13.23450 11.74532
#
# Velocity S-wave (km/s) = 2.58505 2.93650 2.76636
# Velocity P-wave (km/s) = 5.74028 6.09235 5.91893
#
# Compressibility (1/GPa) = 0.02710218
#
# Stress axis : x y z
#
# Youngs Moduli (GPa) = 19.12348 19.12349 61.93634
#
# Poissons Ratio (x) = 0.65841 0.38351
# Poissons Ratio (y) = 0.65841 0.38352
# Poissons Ratio (z) = 0.11841 0.11842
#
# Static dielectric constant tensor:
#      x y z
#    x 1.529600 0.000000 0.000000 
#    y 0.000000 1.529600 0.000000 
#    z 0.000000 0.000000 1.486180 
# 
# From -- ./inp_files/11438.got.cif
#   From: 2010.05.17/outbox.cif.g08.bks.cpg/sg140_6_cif.got.tgz:11438.got - 2010.06.21 00:45:31.
