data_PCOD9572725
_publ_section_title
;
Structure prediction by ZEFSAII (Michael W. Deem and Ramdas Pophale) SiO2 
 PCOD9572725
Probable space group: I 4/M C M
;
_chemical_formula_sum "Si O2"
_cell_formula_units_Z 80
_cell_length_a 21.000000
_cell_length_b 21.000000
_cell_length_c 18.000000
_cell_angle_alpha 90.000000
_cell_angle_beta 90.000000
_cell_angle_gamma 90.000000
_cell_volume 7938.000000
_symmetry_space_group_name_H-M "I 4/M C M"
_symmetry_group_IT_number 140
_symmetry_cell_setting 'tetragonal'
loop_
_space_group_symop_operation_xyz
x,y,z
-y,x,z
-x,-y,z
y,-x,z
x,-y,1/2-z
-x,y,1/2-z
y,x,1/2-z
-y,-x,1/2-z
-x,-y,-z
y,-x,-z
x,y,-z
-y,x,-z
-x,y,1/2+z
x,-y,1/2+z
-y,-x,1/2+z
y,x,1/2+z
1/2+x,1/2+y,1/2+z
1/2-y,1/2+x,1/2+z
1/2-x,1/2-y,1/2+z
1/2+y,1/2-x,1/2+z
1/2+x,1/2-y,-z
1/2-x,1/2+y,-z
1/2+y,1/2+x,-z
1/2-y,1/2-x,-z
1/2-x,1/2-y,1/2-z
1/2+y,1/2-x,1/2-z
1/2+x,1/2+y,1/2-z
1/2-y,1/2+x,1/2-z
1/2-x,1/2+y,z
1/2+x,1/2-y,z
1/2-y,1/2-x,z
1/2+y,1/2+x,z
loop_
_atom_site_type_symbol
_atom_site_label
_atom_site_fract_x
_atom_site_fract_y
_atom_site_fract_z
Si Si1 0.640726 0.036904 0.176924
Si Si2 0.929641 0.429641 0.914109
Si Si3 0.276878 0.116358 0.418040
Si Si4 0.178367 0.678367 0.088239
Si Si5 0.420678 0.436720 0.660583
Si Si6 0.663902 0.312634 0.662377
O O1 0.597815 0.097815 0.198579
O O2 0.702723 0.058305 0.132905
O O3 0.659072 0.000000 0.250000
O O4 0.597459 0.991569 0.126339
O O5 0.875436 0.375436 0.909525
O O6 0.942946 0.442946 0.000000
O O7 0.258171 0.095681 0.500000
O O8 0.339782 0.160219 0.423475
O O9 0.223517 0.158871 0.381428
O O10 0.241378 0.655204 0.132083
O O11 0.192055 0.692055 0.000000
O O12 0.490342 0.413177 0.634288
O O13 0.430370 0.430370 0.750000
O O14 0.359176 0.394811 0.644146
O O15 0.681029 0.318972 0.750000
#
# Coordination Sequence:
#
# PCOD9572725 Si02
#       6
#    32  16  32  16  32  32
#     4  11  23  39  64  91 123 163 210 260 305 358
#     4  11  25  41  60  88 126 165 200 251 318 376
#     4  10  22  40  61  86 120 168 212 251 304 373
#     4  11  25  42  59  81 122 164 197 247 311 372
#     4   8  16  34  57  87 124 155 189 241 302 363
#     4  11  22  35  63  95 119 158 206 257 308 368
#
# _framework density 10.078105000000001
#
# number of rings (size 3 to 8) (size 9 to 14) (size 15 to 20)
#    0.000    1.800    2.000    2.400    2.800    3.200 
#    3.600    0.000    0.000    3.600    0.000    5.600 
#    0.000    0.000    0.000    0.000    0.000    0.000 
#
# Total GULP energy -446508.501624 kJ/mol
# GULP energy per Si atom -5581.356270 kJ/mol
# Density = 1.005517 g / cm^3
# Si number density = 10.078105 Si / 1000 Ang^3
#
#
#
# Elastic Constant Matrix: (Units=GPa)
#
#
# Indices 1 2 3 4 5 6 
#
# 1 0.9479 85.3106 19.7925 0.0000 0.0000 0.0000
# 2 85.3106 0.9480 19.7934 0.0000 0.0000 0.0000
# 3 19.7925 19.7934 105.2601 0.0000 0.0000 0.0000
# 4 0.0000 0.0000 0.0000 -7.7211 0.0000 0.0000
# 5 0.0000 0.0000 0.0000 0.0000 -7.7221 0.0000
# 6 0.0000 0.0000 0.0000 0.0000 0.0000 37.0157
#
#
#
# Elastic Compliance Matrix: (Units=1/GPa)
#
#
# Indices 1 2 3 4 5 6 
#
# 1 0.000417 0.012271 -0.002386 0.000000 0.000000 0.000000
# 2 0.012271 0.000417 -0.002386 0.000000 0.000000 0.000000
# 3 -0.002386 -0.002386 0.010398 0.000000 0.000000 0.000000
# 4 0.000000 0.000000 0.000000 -0.129515 0.000000 0.000000
# 5 0.000000 0.000000 0.000000 0.000000 -0.129498 0.000000
# 6 0.000000 0.000000 0.000000 0.000000 0.000000 0.027016
#
#
# Mechanical properties :
#
#
# Convention : Reuss Voigt Hill
#
# Bulk Modulus (GPa) = 38.12404 39.66098 38.89251
# Shear Modulus (GPa) = -22.02448 3.13179 -9.44635
#
# Velocity S-wave (km/s) = -3.30917 1.24785 -2.16720
# Velocity P-wave (km/s) = 2.08675 4.66859 3.61595
#
# Compressibility (1/GPa) = 0.02623017
#
# Stress axis : x y z
#
# Youngs Moduli (GPa) = 2396.89719 2397.12113 96.17676
#
# Poissons Ratio (x) = -29.41454 0.22947
# Poissons Ratio (y) = -29.41179 0.22946
# Poissons Ratio (z) = 5.71870 5.71897
#
# Static dielectric constant tensor:
#      x y z
#    x 1.706080 0.000000 0.000000 
#    y 0.000000 1.706080 0.000000 
#    z 0.000000 0.000000 1.710750 
# 
# From -- ./inp_files/6898.got.cif
#   From: 2010.05.17/outbox.ucp.g08.bks.cvg/sg140_4_cif.got.tgz:6898.got - 2010.06.11 11:42:50.
