data_PCOD9572042
_publ_section_title
;
Structure prediction by ZEFSAII (Michael W. Deem and Ramdas Pophale) SiO2 
 PCOD9572042
Probable space group: I 4/M C M
;
_chemical_formula_sum "Si O2"
_cell_formula_units_Z 208
_cell_length_a 29.930964
_cell_length_b 29.930964
_cell_length_c 18.933027
_cell_angle_alpha 90.000000
_cell_angle_beta 90.000000
_cell_angle_gamma 90.000000
_cell_volume 16961.390907
_symmetry_space_group_name_H-M "I 4/M C M"
_symmetry_group_IT_number 140
_symmetry_cell_setting 'tetragonal'
loop_
_space_group_symop_operation_xyz
x,y,z
-y,x,z
-x,-y,z
y,-x,z
x,-y,1/2-z
-x,y,1/2-z
y,x,1/2-z
-y,-x,1/2-z
-x,-y,-z
y,-x,-z
x,y,-z
-y,x,-z
-x,y,1/2+z
x,-y,1/2+z
-y,-x,1/2+z
y,x,1/2+z
1/2+x,1/2+y,1/2+z
1/2-y,1/2+x,1/2+z
1/2-x,1/2-y,1/2+z
1/2+y,1/2-x,1/2+z
1/2+x,1/2-y,-z
1/2-x,1/2+y,-z
1/2+y,1/2+x,-z
1/2-y,1/2-x,-z
1/2-x,1/2-y,1/2-z
1/2+y,1/2-x,1/2-z
1/2+x,1/2+y,1/2-z
1/2-y,1/2+x,1/2-z
1/2-x,1/2+y,z
1/2+x,1/2-y,z
1/2-y,1/2-x,z
1/2+y,1/2+x,z
loop_
_atom_site_type_symbol
_atom_site_label
_atom_site_fract_x
_atom_site_fract_y
_atom_site_fract_z
Si Si1 0.134005 0.289818 0.338232
Si Si2 0.397453 0.820773 0.188763
Si Si3 0.765422 0.657699 0.919172
Si Si4 0.281431 0.704586 0.831311
Si Si5 0.351388 0.926689 0.581898
Si Si6 0.125649 0.511724 0.329731
Si Si7 0.962129 0.537872 0.083968
O O1 0.174531 0.325470 0.333422
O O2 0.108527 0.295717 0.263713
O O3 0.157977 0.242554 0.349239
O O4 0.102464 0.307804 0.399985
O O5 0.362631 0.862631 0.189659
O O6 0.381172 0.787211 0.127776
O O7 0.446232 0.841027 0.175893
O O8 0.803123 0.696878 0.919484
O O9 0.722358 0.679348 0.881418
O O10 0.756951 0.644943 0.000000
O O11 0.296562 0.703439 0.750000
O O12 0.243068 0.743068 0.835071
O O13 0.353007 0.939891 0.500000
O O14 0.394144 0.894144 0.595615
O O15 0.352928 0.968464 0.633841
O O16 0.111173 0.500000 0.250000
O O17 0.083368 0.523350 0.378226
O O18 0.000000 0.500000 0.093429
O O19 0.955809 0.544192 0.000000
#
# Coordination Sequence:
#
# PCOD9572042 Si02
#       7
#    32  32  32  32  32  32  16
#     4   9  16  27  45  60  77  99 126 149 184 231
#     4  10  18  31  43  60  78  98 126 158 194 243
#     4   9  17  26  39  60  84 102 119 147 183 226
#     4   9  14  23  40  60  80 103 123 142 173 219
#     4  10  21  35  47  59  78  99 124 166 212 246
#     4  12  23  33  51  64  74  98 134 166 204 260
#     4  11  26  40  48  62  80  93 118 170 228 269
#
# _framework density 12.263145
#
# number of rings (size 3 to 8) (size 9 to 14) (size 15 to 20)
#    0.000    2.077    3.846    0.923    2.154    3.077 
#    0.000    3.077    0.000    0.000    0.000    0.000 
#    0.000    0.000    0.000    0.000    0.000    0.000 
#
# Total GULP energy -579477.339028 kJ/mol
# GULP energy per Si atom -5571.897491 kJ/mol
# Density = 1.223523 g / cm^3
# Si number density = 12.263145 Si / 1000 Ang^3
#
#
#
# Elastic Constant Matrix: (Units=GPa)
#
#
# Indices 1 2 3 4 5 6 
#
# 1 33.7109 35.5747 24.8715 0.0000 0.0000 0.0000
# 2 35.5747 33.7116 24.8718 0.0000 0.0000 0.0000
# 3 24.8715 24.8718 79.5533 0.0000 0.0000 0.0000
# 4 0.0000 0.0000 0.0000 14.2970 0.0000 0.0000
# 5 0.0000 0.0000 0.0000 0.0000 14.2971 0.0000
# 6 0.0000 0.0000 0.0000 0.0000 0.0000 16.7780
#
#
#
# Elastic Compliance Matrix: (Units=1/GPa)
#
#
# Indices 1 2 3 4 5 6 
#
# 1 -0.259025 0.277632 -0.005818 0.000000 0.000000 0.000000
# 2 0.277632 -0.259020 -0.005818 0.000000 0.000000 0.000000
# 3 -0.005818 -0.005818 0.016208 0.000000 0.000000 0.000000
# 4 0.000000 0.000000 0.000000 0.069945 0.000000 0.000000
# 5 0.000000 0.000000 0.000000 0.000000 0.069944 0.000000
# 6 0.000000 0.000000 0.000000 0.000000 0.000000 0.059602
#
#
# Mechanical properties :
#
#
# Convention : Reuss Voigt Hill
#
# Bulk Modulus (GPa) = 33.16162 35.29022 34.22592
# Shear Modulus (GPa) = -6.06586 13.18495 3.55954
#
# Velocity S-wave (km/s) = -2.22647 3.28253 1.70556
# Velocity P-wave (km/s) = 4.52668 6.57318 5.64347
#
# Compressibility (1/GPa) = 0.03015534
#
# Stress axis : x y z
#
# Youngs Moduli (GPa) = -3.86063 -3.86071 61.69687
#
# Poissons Ratio (x) = 1.07186 0.35898
# Poissons Ratio (y) = 1.07184 0.35896
# Poissons Ratio (z) = -0.02246 -0.02246
#
# Static dielectric constant tensor:
#      x y z
#    x 1.390340 0.000000 0.000000 
#    y 0.000000 1.390340 0.000000 
#    z 0.000000 0.000000 1.413080 
# 
# From -- ./inp_files/7255.got.cif
#   From: 2010.05.17/outbox.cif.g08.bks.cpg/sg140_4_cif.got.tgz:7255.got - 2010.06.21 00:45:31.
