data_PCOD9572067
_publ_section_title
;
Structure prediction by ZEFSAII (Michael W. Deem and Ramdas Pophale) SiO2 
 PCOD9572067
Probable space group: I 4/M C M
;
_chemical_formula_sum "Si O2"
_cell_formula_units_Z 168
_cell_length_a 23.067006
_cell_length_b 23.067006
_cell_length_c 15.012928
_cell_angle_alpha 90.000000
_cell_angle_beta 90.000000
_cell_angle_gamma 90.000000
_cell_volume 7988.180305
_symmetry_space_group_name_H-M "I 4/M C M"
_symmetry_group_IT_number 140
_symmetry_cell_setting 'tetragonal'
loop_
_space_group_symop_operation_xyz
x,y,z
-y,x,z
-x,-y,z
y,-x,z
x,-y,1/2-z
-x,y,1/2-z
y,x,1/2-z
-y,-x,1/2-z
-x,-y,-z
y,-x,-z
x,y,-z
-y,x,-z
-x,y,1/2+z
x,-y,1/2+z
-y,-x,1/2+z
y,x,1/2+z
1/2+x,1/2+y,1/2+z
1/2-y,1/2+x,1/2+z
1/2-x,1/2-y,1/2+z
1/2+y,1/2-x,1/2+z
1/2+x,1/2-y,-z
1/2-x,1/2+y,-z
1/2+y,1/2+x,-z
1/2-y,1/2-x,-z
1/2-x,1/2-y,1/2-z
1/2+y,1/2-x,1/2-z
1/2+x,1/2+y,1/2-z
1/2-y,1/2+x,1/2-z
1/2-x,1/2+y,z
1/2+x,1/2-y,z
1/2-y,1/2-x,z
1/2+y,1/2+x,z
loop_
_atom_site_type_symbol
_atom_site_label
_atom_site_fract_x
_atom_site_fract_y
_atom_site_fract_z
Si Si1 0.503022 0.095983 0.000000
Si Si2 0.645314 0.047605 0.676233
Si Si3 0.209500 0.290501 0.000000
Si Si4 0.358431 0.442700 0.805208
Si Si5 0.170931 0.203956 0.843890
Si Si6 0.769203 0.633979 0.399830
Si Si7 0.407612 0.530142 0.500000
O O1 0.487851 0.132478 0.086471
O O2 0.566029 0.066029 0.000000
O O3 0.456421 0.043580 0.000000
O O4 0.590265 0.090265 0.692219
O O5 0.700175 0.089374 0.664877
O O6 0.652277 0.000000 0.750000
O O7 0.177337 0.252333 0.080524
O O8 0.342491 0.500000 0.750000
O O9 0.410470 0.410470 0.750000
O O10 0.308690 0.394425 0.815789
O O11 0.375626 0.458454 0.906489
O O12 0.206240 0.206240 0.750000
O O13 0.202237 0.147522 0.886979
O O14 0.780165 0.613014 0.500000
O O15 0.804747 0.695254 0.394026
O O16 0.429293 0.464181 0.500000
#
# Coordination Sequence:
#
# PCOD9572067 Si02
#       7
#    16  32   8  32  32  32  16
#     4   9  16  27  46  79 123 164 221 291 353 423
#     4  10  19  31  53  85 125 178 233 296 370 433
#     4  12  20  42  72 108 150 166 249 303 360 428
#     4  11  23  41  62 100 149 191 247 311 372 462
#     4  11  23  39  70 106 135 184 230 305 367 429
#     4  10  18  36  61  90 124 168 230 293 354 429
#     4  11  21  34  64  91 124 190 246 295 374 436
#
# _framework density 21.031072999999999
#
# number of rings (size 3 to 8) (size 9 to 14) (size 15 to 20)
#    0.000    1.524    4.762    1.429    0.000    1.143 
#    0.000    3.810    0.000    1.143    2.476    0.000 
#    0.000    0.000    0.000    0.000    0.000    1.429 
#
# Total GULP energy -467702.730001 kJ/mol
# GULP energy per Si atom -5567.889643 kJ/mol
# Density = 2.098321 g / cm^3
# Si number density = 21.031073 Si / 1000 Ang^3
#
#
#
# Elastic Constant Matrix: (Units=GPa)
#
#
# Indices 1 2 3 4 5 6 
#
# 1 80.9523 42.3158 37.6361 0.0000 0.0000 0.0000
# 2 42.3158 80.9521 37.6361 0.0000 0.0000 0.0000
# 3 37.6361 37.6361 159.3985 0.0000 0.0000 0.0000
# 4 0.0000 0.0000 0.0000 43.9620 0.0000 0.0000
# 5 0.0000 0.0000 0.0000 0.0000 43.9537 0.0000
# 6 0.0000 0.0000 0.0000 0.0000 0.0000 247.2685
#
#
#
# Elastic Compliance Matrix: (Units=1/GPa)
#
#
# Indices 1 2 3 4 5 6 
#
# 1 0.017681 -0.008202 -0.002238 0.000000 0.000000 0.000000
# 2 -0.008202 0.017681 -0.002238 0.000000 0.000000 0.000000
# 3 -0.002238 -0.002238 0.007330 0.000000 0.000000 0.000000
# 4 0.000000 0.000000 0.000000 0.022747 0.000000 0.000000
# 5 0.000000 0.000000 0.000000 0.000000 0.022751 0.000000
# 6 0.000000 0.000000 0.000000 0.000000 0.000000 0.004044
#
#
# Mechanical properties :
#
#
# Convention : Reuss Voigt Hill
#
# Bulk Modulus (GPa) = 57.68302 61.83101 59.75702
# Shear Modulus (GPa) = 40.52888 80.61782 60.57335
#
# Velocity S-wave (km/s) = 4.39463 6.19806 5.37256
# Velocity P-wave (km/s) = 7.29640 8.98248 8.18298
#
# Compressibility (1/GPa) = 0.01733612
#
# Stress axis : x y z
#
# Youngs Moduli (GPa) = 56.55881 56.55871 136.41647
#
# Poissons Ratio (x) = 0.46387 0.30532
# Poissons Ratio (y) = 0.46387 0.30532
# Poissons Ratio (z) = 0.12659 0.12659
#
# Static dielectric constant tensor:
#      x y z
#    x 1.772280 0.000000 0.000000 
#    y 0.000000 1.772280 0.000000 
#    z 0.000000 0.000000 1.762570 
# 
# From -- ./inp_files/4996.got.cif
#   From: 2010.05.17/outbox.cif.g08.bks.cpg/sg140_3_cif.got.tgz:4996.got - 2010.06.21 00:45:31.
