data_PCOD9572172
_publ_section_title
;
Structure prediction by ZEFSAII (Michael W. Deem and Ramdas Pophale) SiO2 
 PCOD9572172
Probable space group: I 4/M C M
;
_chemical_formula_sum "Si O2"
_cell_formula_units_Z 160
_cell_length_a 20.765787
_cell_length_b 20.765787
_cell_length_c 19.944259
_cell_angle_alpha 90.000000
_cell_angle_beta 90.000000
_cell_angle_gamma 90.000000
_cell_volume 8600.321677
_symmetry_space_group_name_H-M "I 4/M C M"
_symmetry_group_IT_number 140
_symmetry_cell_setting 'tetragonal'
loop_
_space_group_symop_operation_xyz
x,y,z
-y,x,z
-x,-y,z
y,-x,z
x,-y,1/2-z
-x,y,1/2-z
y,x,1/2-z
-y,-x,1/2-z
-x,-y,-z
y,-x,-z
x,y,-z
-y,x,-z
-x,y,1/2+z
x,-y,1/2+z
-y,-x,1/2+z
y,x,1/2+z
1/2+x,1/2+y,1/2+z
1/2-y,1/2+x,1/2+z
1/2-x,1/2-y,1/2+z
1/2+y,1/2-x,1/2+z
1/2+x,1/2-y,-z
1/2-x,1/2+y,-z
1/2+y,1/2+x,-z
1/2-y,1/2-x,-z
1/2-x,1/2-y,1/2-z
1/2+y,1/2-x,1/2-z
1/2+x,1/2+y,1/2-z
1/2-y,1/2+x,1/2-z
1/2-x,1/2+y,z
1/2+x,1/2-y,z
1/2-y,1/2-x,z
1/2+y,1/2+x,z
loop_
_atom_site_type_symbol
_atom_site_label
_atom_site_fract_x
_atom_site_fract_y
_atom_site_fract_z
Si Si1 0.846962 0.242927 0.670277
Si Si2 0.280358 0.383712 0.318595
Si Si3 0.585355 0.446345 0.829405
Si Si4 0.678192 0.068713 0.075763
Si Si5 0.851008 0.459723 0.819796
O O1 0.807678 0.307678 0.688378
O O2 0.881753 0.218941 0.737277
O O3 0.794120 0.188324 0.655080
O O4 0.897902 0.261472 0.613639
O O5 0.343889 0.420603 0.342054
O O6 0.212279 0.416061 0.333103
O O7 0.584832 0.519637 0.855920
O O8 0.568473 0.431528 0.750000
O O9 0.624447 0.124447 0.072664
O O10 0.649669 0.011825 0.120923
O O11 0.693640 0.048598 0.000000
O O12 0.845128 0.500000 0.750000
O O13 0.913199 0.413199 0.817015
#
# Coordination Sequence:
#
# PCOD9572172 Si02
#       5
#    32  32  32  32  32
#     4  10  19  34  55  85 119 152 192 236 295 365
#     4  11  20  31  58  89 124 153 187 247 310 368
#     4   9  18  28  42  76 121 153 183 225 282 354
#     4  10  23  43  64  85 117 165 212 251 303 378
#     4  12  25  39  60  93 126 158 206 269 326 372
#
# _framework density 18.603956
#
# number of rings (size 3 to 8) (size 9 to 14) (size 15 to 20)
#    0.000    1.600    4.000    3.600    5.600    1.800 
#    0.000    2.000    0.000    2.400    0.000    0.000 
#    0.000    1.600    0.000    0.000    0.000    0.000 
#
# Total GULP energy -445362.888435 kJ/mol
# GULP energy per Si atom -5567.036105 kJ/mol
# Density = 1.856161 g / cm^3
# Si number density = 18.603956 Si / 1000 Ang^3
#
#
#
# Elastic Constant Matrix: (Units=GPa)
#
#
# Indices 1 2 3 4 5 6 
#
# 1 65.9166 66.3779 29.7361 0.0000 0.0000 0.0000
# 2 66.3779 65.9140 29.7355 0.0000 0.0000 0.0000
# 3 29.7361 29.7355 66.9565 0.0000 0.0000 0.0000
# 4 0.0000 0.0000 0.0000 12.7537 0.0000 0.0000
# 5 0.0000 0.0000 0.0000 0.0000 12.7535 0.0000
# 6 0.0000 0.0000 0.0000 0.0000 0.0000 8.6129
#
#
#
# Elastic Compliance Matrix: (Units=1/GPa)
#
#
# Indices 1 2 3 4 5 6 
#
# 1 -1.076211 1.085676 -0.004193 0.000000 0.000000 0.000000
# 2 1.085676 -1.076253 -0.004195 0.000000 0.000000 0.000000
# 3 -0.004193 -0.004195 0.018661 0.000000 0.000000 0.000000
# 4 0.000000 0.000000 0.000000 0.078409 0.000000 0.000000
# 5 0.000000 0.000000 0.000000 0.000000 0.078410 0.000000
# 6 0.000000 0.000000 0.000000 0.000000 0.000000 0.116105
#
#
# Mechanical properties :
#
#
# Convention : Reuss Voigt Hill
#
# Bulk Modulus (GPa) = 48.14143 50.05400 49.09772
# Shear Modulus (GPa) = -1.24734 11.68653 5.21960
#
# Velocity S-wave (km/s) = -0.81971 2.50906 1.67682
# Velocity P-wave (km/s) = 5.00372 5.94620 5.49520
#
# Compressibility (1/GPa) = 0.02077213
#
# Stress axis : x y z
#
# Youngs Moduli (GPa) = -0.92919 -0.92915 53.58894
#
# Poissons Ratio (x) = 1.00876 0.22473
# Poissons Ratio (y) = 1.00880 0.22482
# Poissons Ratio (z) = -0.00390 -0.00390
#
# Static dielectric constant tensor:
#      x y z
#    x 1.685450 0.000000 0.000000 
#    y 0.000000 1.685450 0.000000 
#    z 0.000000 0.000000 1.636590 
# 
# From -- ./inp_files/6831.got.cif
#   From: 2010.05.17/outbox.cif.g08.bks.cpg/sg140_4_cif.got.tgz:6831.got - 2010.06.21 00:45:31.
