data_PCOD9572021
_publ_section_title
;
Structure prediction by ZEFSAII (Michael W. Deem and Ramdas Pophale) SiO2 
 PCOD9572021
Probable space group: I 4/M C M
;
_chemical_formula_sum "Si O2"
_cell_formula_units_Z 128
_cell_length_a 32.138962
_cell_length_b 32.138962
_cell_length_c 9.986792
_cell_angle_alpha 90.000000
_cell_angle_beta 90.000000
_cell_angle_gamma 90.000000
_cell_volume 10315.486071
_symmetry_space_group_name_H-M "I 4/M C M"
_symmetry_group_IT_number 140
_symmetry_cell_setting 'tetragonal'
loop_
_space_group_symop_operation_xyz
x,y,z
-y,x,z
-x,-y,z
y,-x,z
x,-y,1/2-z
-x,y,1/2-z
y,x,1/2-z
-y,-x,1/2-z
-x,-y,-z
y,-x,-z
x,y,-z
-y,x,-z
-x,y,1/2+z
x,-y,1/2+z
-y,-x,1/2+z
y,x,1/2+z
1/2+x,1/2+y,1/2+z
1/2-y,1/2+x,1/2+z
1/2-x,1/2-y,1/2+z
1/2+y,1/2-x,1/2+z
1/2+x,1/2-y,-z
1/2-x,1/2+y,-z
1/2+y,1/2+x,-z
1/2-y,1/2-x,-z
1/2-x,1/2-y,1/2-z
1/2+y,1/2-x,1/2-z
1/2+x,1/2+y,1/2-z
1/2-y,1/2+x,1/2-z
1/2-x,1/2+y,z
1/2+x,1/2-y,z
1/2-y,1/2-x,z
1/2+y,1/2+x,z
loop_
_atom_site_type_symbol
_atom_site_label
_atom_site_fract_x
_atom_site_fract_y
_atom_site_fract_z
Si Si1 0.671679 0.953975 0.272610
Si Si2 0.633984 0.203275 0.846456
Si Si3 0.374486 0.057840 0.000000
Si Si4 0.758960 0.187829 0.345158
Si Si5 0.533084 0.897163 0.500000
O O1 0.697673 0.915300 0.327797
O O2 0.654087 0.942196 0.129107
O O3 0.632253 0.958431 0.372162
O O4 0.691078 0.000000 0.250000
O O5 0.659346 0.159346 0.830133
O O6 0.652133 0.234524 0.736021
O O7 0.642924 0.216837 0.000000
O O8 0.403353 0.016489 0.000000
O O9 0.402337 0.097664 0.000000
O O10 0.796237 0.203764 0.250000
O O11 0.769897 0.177726 0.500000
O O12 0.726128 0.226128 0.352009
O O13 0.562755 0.937246 0.500000
#
# Coordination Sequence:
#
# PCOD9572021 Si02
#       5
#    32  32  16  32  16
#     4  10  20  31  42  56  74  95 121 155 193 233
#     4  10  18  28  44  59  73  98 126 151 185 231
#     4  10  20  29  40  56  71  87 113 155 197 235
#     4   9  17  28  41  60  83 101 118 142 173 213
#     4  10  18  31  44  52  67  91 117 149 193 243
#
# _framework density 12.408528
#
# number of rings (size 3 to 8) (size 9 to 14) (size 15 to 20)
#    0.000    2.250    1.250    3.000    1.750    3.250 
#    0.000    0.000    0.000    4.500    0.000    0.000 
#    0.000    0.000    0.000    0.000    0.000    0.000 
#
# Total GULP energy -356309.172617 kJ/mol
# GULP energy per Si atom -5567.330822 kJ/mol
# Density = 1.238029 g / cm^3
# Si number density = 12.408528 Si / 1000 Ang^3
#
#
#
# Elastic Constant Matrix: (Units=GPa)
#
#
# Indices 1 2 3 4 5 6 
#
# 1 30.3929 18.4211 17.7813 0.0000 0.0000 0.0000
# 2 18.4211 30.3949 17.7814 0.0000 0.0000 0.0000
# 3 17.7813 17.7814 109.6281 0.0000 0.0000 0.0000
# 4 0.0000 0.0000 0.0000 14.8996 0.0000 0.0000
# 5 0.0000 0.0000 0.0000 0.0000 14.9002 0.0000
# 6 0.0000 0.0000 0.0000 0.0000 0.0000 17.7399
#
#
#
# Elastic Compliance Matrix: (Units=1/GPa)
#
#
# Indices 1 2 3 4 5 6 
#
# 1 0.053378 -0.030146 -0.003768 0.000000 0.000000 0.000000
# 2 -0.030146 0.053375 -0.003768 0.000000 0.000000 0.000000
# 3 -0.003768 -0.003768 0.010344 0.000000 0.000000 0.000000
# 4 0.000000 0.000000 0.000000 0.067116 0.000000 0.000000
# 5 0.000000 0.000000 0.000000 0.000000 0.067113 0.000000
# 6 0.000000 0.000000 0.000000 0.000000 0.000000 0.056370
#
#
# Mechanical properties :
#
#
# Convention : Reuss Voigt Hill
#
# Bulk Modulus (GPa) = 23.96161 30.93149 27.44655
# Shear Modulus (GPa) = 12.59538 17.27010 14.93274
#
# Velocity S-wave (km/s) = 3.18945 3.73472 3.47281
# Velocity P-wave (km/s) = 5.73725 6.60146 6.18447
#
# Compressibility (1/GPa) = 0.04173343
#
# Stress axis : x y z
#
# Youngs Moduli (GPa) = 18.73416 18.73546 96.67406
#
# Poissons Ratio (x) = 0.56480 0.36428
# Poissons Ratio (y) = 0.56476 0.36424
# Poissons Ratio (z) = 0.07059 0.07059
#
# Static dielectric constant tensor:
#      x y z
#    x 1.395650 0.000000 0.000000 
#    y 0.000000 1.395650 0.000000 
#    z 0.000000 0.000000 1.439510 
# 
# From -- ./inp_files/1534.got.cif
#   From: 2010.05.17/outbox.cif.g08.bks.cpg/sg140_1_cif.got.tgz:1534.got - 2010.06.21 00:45:31.
