data_PCOD9572806
_publ_section_title
;
Structure prediction by ZEFSAII (Michael W. Deem and Ramdas Pophale) SiO2 
 PCOD9572806
Probable space group: I 41/A M D
;
_chemical_formula_sum "Si O2"
_cell_formula_units_Z 120
_cell_length_a 14.138867
_cell_length_b 14.138867
_cell_length_c 28.480917
_cell_angle_alpha 90.000000
_cell_angle_beta 90.000000
_cell_angle_gamma 90.000000
_cell_volume 5693.550625
_symmetry_space_group_name_H-M "I 41/A M D"
_symmetry_group_IT_number 141
_space_group.IT_coordinate_system_code '2'
_symmetry_cell_setting 'tetragonal'
loop_
_space_group_symop_operation_xyz
x,y,z
1/4-y,3/4+x,1/4+z
-x,1/2-y,z
1/4+y,1/4-x,3/4+z
x,-y,-z
-x,1/2+y,-z
1/4+y,3/4+x,1/4-z
1/4-y,1/4-x,3/4-z
-x,-y,-z
3/4+y,1/4-x,3/4-z
x,1/2+y,-z
3/4-y,3/4+x,1/4-z
-x,y,z
x,1/2-y,z
3/4-y,1/4-x,3/4+z
3/4+y,3/4+x,1/4+z
1/2+x,1/2+y,1/2+z
3/4-y,1/4+x,3/4+z
1/2-x,-y,1/2+z
3/4+y,3/4-x,1/4+z
1/2+x,1/2-y,1/2-z
1/2-x,y,1/2-z
3/4+y,1/4+x,3/4-z
3/4-y,3/4-x,1/4-z
1/2-x,1/2-y,1/2-z
1/4+y,3/4-x,1/4-z
1/2+x,y,1/2-z
1/4-y,1/4+x,3/4-z
1/2-x,1/2+y,1/2+z
1/2+x,-y,1/2+z
1/4-y,3/4-x,1/4+z
1/4+y,1/4+x,3/4+z
loop_
_atom_site_type_symbol
_atom_site_label
_atom_site_fract_x
_atom_site_fract_y
_atom_site_fract_z
Si Si1 0.202282 0.466376 0.054842
Si Si2 0.791465 0.750000 0.345716
Si Si3 0.500000 0.250000 0.446762
Si Si4 0.000000 0.589922 0.802035
Si Si5 0.703517 0.750000 0.535931
Si Si6 0.709423 0.850197 0.696775
O O1 0.099723 0.493947 0.075034
O O2 0.214665 0.352503 0.060124
O O3 0.299147 0.511023 0.074668
O O4 0.199166 0.500000 0.000000
O O5 0.905251 0.750000 0.334637
O O6 0.778415 0.750000 0.400971
O O7 0.593342 0.250000 0.477840
O O8 0.903509 0.647744 0.801610
O O9 0.000000 0.523662 0.757123
O O10 0.740603 0.750000 0.674676
O O11 0.750000 0.850555 0.750000
#
# Coordination Sequence:
#
# PCOD9572806 Si02
#       6
#    32  16   8  16  16  32
#     4  10  19  39  60  83 121 160 207 244 309 377
#     4  10  23  34  61  88 113 157 208 264 300 355
#     4   8  20  38  58  82 119 162 210 234 311 392
#     4  12  21  37  60  89 121 150 210 261 305 360
#     4  10  18  37  59  85 113 164 199 246 297 379
#     4  10  21  36  58  86 122 157 192 249 315 372
#
# _framework density 21.07648
#
# number of rings (size 3 to 8) (size 9 to 14) (size 15 to 20)
#    0.000    1.867    5.333    0.800    1.867    1.067 
#    0.000    0.667    0.000    1.600    0.000    0.000 
#    0.000    0.000    0.000    0.000    0.000    0.000 
#
# Total GULP energy -334473.951743 kJ/mol
# GULP energy per Si atom -5574.565862 kJ/mol
# Density = 2.102851 g / cm^3
# Si number density = 21.076480 Si / 1000 Ang^3
#
#
#
# Elastic Constant Matrix: (Units=GPa)
#
#
# Indices 1 2 3 4 5 6 
#
# 1 154.4052 57.3444 9.4739 0.0000 0.0000 0.0000
# 2 57.3444 154.4052 9.4739 0.0000 0.0000 0.0000
# 3 9.4739 9.4739 31.0431 0.0000 0.0000 0.0000
# 4 0.0000 0.0000 0.0000 82.1123 0.0000 0.0000
# 5 0.0000 0.0000 0.0000 0.0000 82.1123 0.0000
# 6 0.0000 0.0000 0.0000 0.0000 0.0000 38.4952
#
#
#
# Elastic Compliance Matrix: (Units=1/GPa)
#
#
# Indices 1 2 3 4 5 6 
#
# 1 0.007579 -0.002724 -0.001482 0.000000 0.000000 0.000000
# 2 -0.002724 0.007579 -0.001482 0.000000 0.000000 0.000000
# 3 -0.001482 -0.001482 0.033118 0.000000 0.000000 0.000000
# 4 0.000000 0.000000 0.000000 0.012178 0.000000 0.000000
# 5 0.000000 0.000000 0.000000 0.000000 0.012178 0.000000
# 6 0.000000 0.000000 0.000000 0.000000 0.000000 0.025977
#
#
# Mechanical properties :
#
#
# Convention : Reuss Voigt Hill
#
# Bulk Modulus (GPa) = 27.09944 54.71530 40.90737
# Shear Modulus (GPa) = 40.88820 58.11473 49.50146
#
# Velocity S-wave (km/s) = 4.40931 5.25672 4.85155
# Velocity P-wave (km/s) = 6.22963 7.92849 7.12984
#
# Compressibility (1/GPa) = 0.03690113
#
# Stress axis : x y z
#
# Youngs Moduli (GPa) = 131.94385 131.94385 30.19534
#
# Poissons Ratio (x) = 0.35939 0.04474
# Poissons Ratio (y) = 0.35939 0.04474
# Poissons Ratio (z) = 0.19550 0.19550
#
# Static dielectric constant tensor:
#      x y z
#    x 1.784450 0.000000 0.000000 
#    y 0.000000 1.784450 0.000000 
#    z 0.000000 0.000000 1.764550 
# 
# From -- ./inp_files/14145.got.cif
#   From: 2010.05.17/outbox.cif.g08.bks.cpg/sg141_8_cif.got.tgz:14145.got - 2010.05.20 13:30:51.
