data_PCOD9572163
_publ_section_title
;
Structure prediction by ZEFSAII (Michael W. Deem and Ramdas Pophale) SiO2 
 PCOD9572163
Probable space group: I 4/M C M
;
_chemical_formula_sum "Si O2"
_cell_formula_units_Z 160
_cell_length_a 21.345480
_cell_length_b 21.345480
_cell_length_c 16.320469
_cell_angle_alpha 90.000000
_cell_angle_beta 90.000000
_cell_angle_gamma 90.000000
_cell_volume 7436.087398
_symmetry_space_group_name_H-M "I 4/M C M"
_symmetry_group_IT_number 140
_symmetry_cell_setting 'tetragonal'
loop_
_space_group_symop_operation_xyz
x,y,z
-y,x,z
-x,-y,z
y,-x,z
x,-y,1/2-z
-x,y,1/2-z
y,x,1/2-z
-y,-x,1/2-z
-x,-y,-z
y,-x,-z
x,y,-z
-y,x,-z
-x,y,1/2+z
x,-y,1/2+z
-y,-x,1/2+z
y,x,1/2+z
1/2+x,1/2+y,1/2+z
1/2-y,1/2+x,1/2+z
1/2-x,1/2-y,1/2+z
1/2+y,1/2-x,1/2+z
1/2+x,1/2-y,-z
1/2-x,1/2+y,-z
1/2+y,1/2+x,-z
1/2-y,1/2-x,-z
1/2-x,1/2-y,1/2-z
1/2+y,1/2-x,1/2-z
1/2+x,1/2+y,1/2-z
1/2-y,1/2+x,1/2-z
1/2-x,1/2+y,z
1/2+x,1/2-y,z
1/2-y,1/2-x,z
1/2+y,1/2+x,z
loop_
_atom_site_type_symbol
_atom_site_label
_atom_site_fract_x
_atom_site_fract_y
_atom_site_fract_z
Si Si1 0.847797 0.745729 0.594104
Si Si2 0.685973 0.916742 0.667704
Si Si3 0.034995 0.174665 0.836856
Si Si4 0.908650 0.133853 0.095834
Si Si5 0.849491 0.551880 0.643092
O O1 0.831197 0.758930 0.500000
O O2 0.792134 0.707867 0.635714
O O3 0.865595 0.810776 0.631690
O O4 0.907179 0.699677 0.592317
O O5 0.647276 0.852724 0.647951
O O6 0.760808 0.925192 0.651318
O O7 0.673055 0.931291 0.764070
O O8 0.655316 0.978540 0.626293
O O9 0.075741 0.112165 0.849599
O O10 0.000000 0.179589 0.750000
O O11 0.977636 0.162773 0.898794
O O12 0.895305 0.119885 0.000000
O O13 0.917691 0.582310 0.632433
#
# Coordination Sequence:
#
# PCOD9572163 Si02
#       5
#    32  32  32  32  32
#     4   9  17  32  57  85 114 156 204 247 300 366
#     4  10  19  33  57  89 124 159 199 251 305 361
#     4  12  23  42  64  91 122 160 205 256 310 368
#     4  11  24  41  64  89 121 161 205 259 314 369
#     4   9  16  31  54  84 122 162 202 246 297 358
#
# _framework density 21.516691999999999
#
# number of rings (size 3 to 8) (size 9 to 14) (size 15 to 20)
#    0.000    1.800    4.000    1.200    0.000    1.600 
#    0.000    4.000    0.000   10.800    0.000    2.800 
#    0.000    0.000    0.000    0.000    0.000    0.000 
#
# Total GULP energy -445449.000947 kJ/mol
# GULP energy per Si atom -5568.112512 kJ/mol
# Density = 2.146772 g / cm^3
# Si number density = 21.516692 Si / 1000 Ang^3
#
#
#
# Elastic Constant Matrix: (Units=GPa)
#
#
# Indices 1 2 3 4 5 6 
#
# 1 69.0091 55.3089 15.6839 0.0000 0.0000 0.0000
# 2 55.3089 69.0091 15.6839 0.0000 0.0000 0.0000
# 3 15.6839 15.6839 21.6587 0.0000 0.0000 0.0000
# 4 0.0000 0.0000 0.0000 14.2051 0.0000 0.0000
# 5 0.0000 0.0000 0.0000 0.0000 14.2051 0.0000
# 6 0.0000 0.0000 0.0000 0.0000 0.0000 23.4864
#
#
#
# Elastic Compliance Matrix: (Units=1/GPa)
#
#
# Indices 1 2 3 4 5 6 
#
# 1 0.041417 -0.031575 -0.007127 0.000000 0.000000 0.000000
# 2 -0.031575 0.041417 -0.007127 0.000000 0.000000 0.000000
# 3 -0.007127 -0.007127 0.056493 0.000000 0.000000 0.000000
# 4 0.000000 0.000000 0.000000 0.070397 0.000000 0.000000
# 5 0.000000 0.000000 0.000000 0.000000 0.070397 0.000000
# 6 0.000000 0.000000 0.000000 0.000000 0.000000 0.042578
#
#
# Mechanical properties :
#
#
# Convention : Reuss Voigt Hill
#
# Bulk Modulus (GPa) = 20.97806 37.00334 28.99070
# Shear Modulus (GPa) = 11.62123 15.24598 13.43360
#
# Velocity S-wave (km/s) = 2.32653 2.66478 2.50138
# Velocity P-wave (km/s) = 4.12163 5.16748 4.67390
#
# Compressibility (1/GPa) = 0.04766884
#
# Stress axis : x y z
#
# Youngs Moduli (GPa) = 24.14468 24.14468 17.70135
#
# Poissons Ratio (x) = 0.76236 0.12616
# Poissons Ratio (y) = 0.76236 0.12616
# Poissons Ratio (z) = 0.17208 0.17208
#
# Static dielectric constant tensor:
#      x y z
#    x 1.834590 0.000000 0.000000 
#    y 0.000000 1.834590 0.000000 
#    z 0.000000 0.000000 1.818030 
# 
# From -- ./inp_files/6810.got.cif
#   From: 2010.05.17/outbox.cif.g08.bks.cpg/sg140_4_cif.got.tgz:6810.got - 2010.06.21 00:45:31.
