data_PCOD9572873
_publ_section_title
;
Structure prediction by ZEFSAII (Michael W. Deem and Ramdas Pophale) SiO2 
 PCOD9572873
Probable space group: I 41/A M D
;
_chemical_formula_sum "Si O2"
_cell_formula_units_Z 128
_cell_length_a 23.775505
_cell_length_b 23.775505
_cell_length_c 12.783183
_cell_angle_alpha 90.000000
_cell_angle_beta 90.000000
_cell_angle_gamma 90.000000
_cell_volume 7226.009143
_symmetry_space_group_name_H-M "I 41/A M D"
_symmetry_group_IT_number 141
_space_group.IT_coordinate_system_code '2'
_symmetry_cell_setting 'tetragonal'
loop_
_space_group_symop_operation_xyz
x,y,z
1/4-y,3/4+x,1/4+z
-x,1/2-y,z
1/4+y,1/4-x,3/4+z
x,-y,-z
-x,1/2+y,-z
1/4+y,3/4+x,1/4-z
1/4-y,1/4-x,3/4-z
-x,-y,-z
3/4+y,1/4-x,3/4-z
x,1/2+y,-z
3/4-y,3/4+x,1/4-z
-x,y,z
x,1/2-y,z
3/4-y,1/4-x,3/4+z
3/4+y,3/4+x,1/4+z
1/2+x,1/2+y,1/2+z
3/4-y,1/4+x,3/4+z
1/2-x,-y,1/2+z
3/4+y,3/4-x,1/4+z
1/2+x,1/2-y,1/2-z
1/2-x,y,1/2-z
3/4+y,1/4+x,3/4-z
3/4-y,3/4-x,1/4-z
1/2-x,1/2-y,1/2-z
1/4+y,3/4-x,1/4-z
1/2+x,y,1/2-z
1/4-y,1/4+x,3/4-z
1/2-x,1/2+y,1/2+z
1/2+x,-y,1/2+z
1/4-y,3/4-x,1/4+z
1/4+y,1/4+x,3/4+z
loop_
_atom_site_type_symbol
_atom_site_label
_atom_site_fract_x
_atom_site_fract_y
_atom_site_fract_z
Si Si1 0.564550 0.184587 0.250867
Si Si2 0.637843 0.595467 0.631352
Si Si3 0.434294 0.098561 0.574083
Si Si4 0.144298 0.027628 0.800307
O O1 0.500000 0.167712 0.280012
O O2 0.571336 0.250000 0.281844
O O3 0.612414 0.146065 0.301354
O O4 0.568035 0.181966 0.125000
O O5 0.591385 0.587334 0.539848
O O6 0.647469 0.538884 0.696330
O O7 0.694292 0.604662 0.563432
O O8 0.402015 0.152015 0.625000
O O9 0.500000 0.106399 0.572240
O O10 0.413743 0.047143 0.645824
O O11 0.192239 0.057762 0.875000
#
# Coordination Sequence:
#
# PCOD9572873 Si02
#       4
#    32  32  32  32
#     4   9  19  37  58  78 104 139 177 216 260 313
#     4  10  19  34  55  77 102 137 178 218 262 312
#     4   9  18  30  46  72 106 141 175 216 264 314
#     4   9  19  34  51  74 107 139 173 216 259 315
#
# _framework density 17.713788000000001
#
# number of rings (size 3 to 8) (size 9 to 14) (size 15 to 20)
#    0.000    3.250    0.000    4.500    0.000    7.250 
#    0.000    5.000    0.000    3.000    0.000    0.000 
#    0.000    0.000    0.000    0.000    0.000    0.000 
#
# Total GULP energy -356459.606113 kJ/mol
# GULP energy per Si atom -5569.681346 kJ/mol
# Density = 1.767347 g / cm^3
# Si number density = 17.713788 Si / 1000 Ang^3
#
#
#
# Elastic Constant Matrix: (Units=GPa)
#
#
# Indices 1 2 3 4 5 6 
#
# 1 128.4005 17.4556 41.9271 0.0000 0.0000 0.0000
# 2 17.4556 128.3962 41.9280 0.0000 0.0000 0.0000
# 3 41.9271 41.9280 58.0277 0.0000 0.0000 0.0000
# 4 0.0000 0.0000 0.0000 -3.3344 0.0000 0.0000
# 5 0.0000 0.0000 0.0000 0.0000 -3.3327 0.0000
# 6 0.0000 0.0000 0.0000 0.0000 0.0000 3.0119
#
#
#
# Elastic Compliance Matrix: (Units=1/GPa)
#
#
# Indices 1 2 3 4 5 6 
#
# 1 0.010371 0.001357 -0.008474 0.000000 0.000000 0.000000
# 2 0.001357 0.010371 -0.008474 0.000000 0.000000 0.000000
# 3 -0.008474 -0.008474 0.029479 0.000000 0.000000 0.000000
# 4 0.000000 0.000000 0.000000 -0.299907 0.000000 0.000000
# 5 0.000000 0.000000 0.000000 0.000000 -0.300058 0.000000
# 6 0.000000 0.000000 0.000000 0.000000 0.000000 0.332014
#
#
# Mechanical properties :
#
#
# Convention : Reuss Voigt Hill
#
# Bulk Modulus (GPa) = 52.52417 57.49399 55.00908
# Shear Modulus (GPa) = -27.74641 13.50323 -7.12159
#
# Velocity S-wave (km/s) = -3.96204 2.76397 -2.00726
# Velocity P-wave (km/s) = 2.96406 6.53557 5.07441
#
# Compressibility (1/GPa) = 0.01903885
#
# Stress axis : x y z
#
# Youngs Moduli (GPa) = 96.42644 96.42091 33.92254
#
# Poissons Ratio (x) = -0.13087 0.28745
# Poissons Ratio (y) = -0.13087 0.28747
# Poissons Ratio (z) = 0.81710 0.81711
#
# Static dielectric constant tensor:
#      x y z
#    x 1.609260 0.000000 0.000000 
#    y 0.000000 1.609260 0.000000 
#    z 0.000000 0.000000 1.613530 
# 
# From -- ./inp_files/4535.got.cif
#   From: 2010.05.17/outbox.cif.g08.bks.cpg/sg141_3_cif.got.tgz:4535.got - 2010.05.20 13:30:51.
