data_PCOD9572891
_publ_section_title
;
Structure prediction by ZEFSAII (Michael W. Deem and Ramdas Pophale) SiO2 
 PCOD9572891
Probable space group: I 41/A M D
;
_chemical_formula_sum "Si O2"
_cell_formula_units_Z 240
_cell_length_a 20.331825
_cell_length_b 20.331825
_cell_length_c 25.312731
_cell_angle_alpha 90.000000
_cell_angle_beta 90.000000
_cell_angle_gamma 90.000000
_cell_volume 10463.855408
_symmetry_space_group_name_H-M "I 41/A M D"
_symmetry_group_IT_number 141
_space_group.IT_coordinate_system_code '2'
_symmetry_cell_setting 'tetragonal'
loop_
_space_group_symop_operation_xyz
x,y,z
1/4-y,3/4+x,1/4+z
-x,1/2-y,z
1/4+y,1/4-x,3/4+z
x,-y,-z
-x,1/2+y,-z
1/4+y,3/4+x,1/4-z
1/4-y,1/4-x,3/4-z
-x,-y,-z
3/4+y,1/4-x,3/4-z
x,1/2+y,-z
3/4-y,3/4+x,1/4-z
-x,y,z
x,1/2-y,z
3/4-y,1/4-x,3/4+z
3/4+y,3/4+x,1/4+z
1/2+x,1/2+y,1/2+z
3/4-y,1/4+x,3/4+z
1/2-x,-y,1/2+z
3/4+y,3/4-x,1/4+z
1/2+x,1/2-y,1/2-z
1/2-x,y,1/2-z
3/4+y,1/4+x,3/4-z
3/4-y,3/4-x,1/4-z
1/2-x,1/2-y,1/2-z
1/4+y,3/4-x,1/4-z
1/2+x,y,1/2-z
1/4-y,1/4+x,3/4-z
1/2-x,1/2+y,1/2+z
1/2+x,-y,1/2+z
1/4-y,3/4-x,1/4+z
1/4+y,1/4+x,3/4+z
loop_
_atom_site_type_symbol
_atom_site_label
_atom_site_fract_x
_atom_site_fract_y
_atom_site_fract_z
Si Si1 0.679798 0.459086 0.874837
Si Si2 0.683107 0.354956 0.528996
Si Si3 0.638683 0.324246 0.326157
Si Si4 0.073606 0.328010 0.058932
Si Si5 0.728290 0.369712 0.690991
Si Si6 0.676695 0.750000 0.378316
Si Si7 0.077404 0.464736 0.304442
Si Si8 0.921638 0.820537 0.712015
O O1 0.733836 0.516165 0.875000
O O2 0.638105 0.435897 0.925831
O O3 0.714013 0.396706 0.846447
O O4 0.620472 0.488271 0.840141
O O5 0.626776 0.351675 0.483833
O O6 0.680625 0.428129 0.551483
O O7 0.665411 0.306420 0.575832
O O8 0.753006 0.335794 0.503685
O O9 0.669121 0.250000 0.328637
O O10 0.597353 0.332989 0.380273
O O11 0.593741 0.323495 0.274331
O O12 0.069428 0.250000 0.048846
O O13 0.000000 0.356892 0.052907
O O14 0.750000 0.352482 0.750000
O O15 0.693128 0.308263 0.664554
O O16 0.101990 0.390010 0.310094
O O17 0.000000 0.467907 0.316809
O O18 0.895393 0.750000 0.691411
O O19 0.000000 0.819939 0.704339
#
# Coordination Sequence:
#
# PCOD9572891 Si02
#       8
#    32  32  32  32  32  16  32  32
#     4  12  26  43  67  97 129 174 229 285 346 422
#     4  12  23  44  65  96 133 187 239 288 351 429
#     4  10  20  38  64  94 128 164 222 281 334 406
#     4  10  19  35  62  91 128 175 227 282 336 395
#     4  12  27  48  68  95 137 185 239 302 356 417
#     4  12  27  44  69  98 139 184 250 297 359 425
#     4  11  22  43  74  95 133 181 221 278 354 436
#     4   9  20  37  63 100 134 168 216 280 356 422
#
# _framework density 22.936097
#
# number of rings (size 3 to 8) (size 9 to 14) (size 15 to 20)
#    0.000    1.067    4.000    2.200    4.667    1.600 
#    3.600    1.333    0.000    1.600    0.000    0.000 
#    0.000    0.000    0.000    0.000    0.000    0.000 
#
# Total GULP energy -668286.429777 kJ/mol
# GULP energy per Si atom -5569.053581 kJ/mol
# Density = 2.288389 g / cm^3
# Si number density = 22.936097 Si / 1000 Ang^3
#
#
#
# Elastic Constant Matrix: (Units=GPa)
#
#
# Indices 1 2 3 4 5 6 
#
# 1 83.4475 -6.3292 -1.3281 0.0000 0.0000 0.0000
# 2 -6.3292 83.4474 -1.3287 0.0000 0.0000 0.0000
# 3 -1.3281 -1.3287 45.9944 0.0000 0.0000 0.0000
# 4 0.0000 0.0000 0.0000 21.7114 0.0000 0.0000
# 5 0.0000 0.0000 0.0000 0.0000 21.7163 0.0000
# 6 0.0000 0.0000 0.0000 0.0000 0.0000 34.7692
#
#
#
# Elastic Compliance Matrix: (Units=1/GPa)
#
#
# Indices 1 2 3 4 5 6 
#
# 1 0.012059 0.000921 0.000375 0.000000 0.000000 0.000000
# 2 0.000921 0.012059 0.000375 0.000000 0.000000 0.000000
# 3 0.000375 0.000375 0.021763 0.000000 0.000000 0.000000
# 4 0.000000 0.000000 0.000000 0.046059 0.000000 0.000000
# 5 0.000000 0.000000 0.000000 0.000000 0.046048 0.000000
# 6 0.000000 0.000000 0.000000 0.000000 0.000000 0.028761
#
#
# Mechanical properties :
#
#
# Convention : Reuss Voigt Hill
#
# Bulk Modulus (GPa) = 20.31570 21.65748 20.98659
# Shear Modulus (GPa) = 27.80598 30.43105 29.11851
#
# Velocity S-wave (km/s) = 3.48562 3.64644 3.56694
# Velocity P-wave (km/s) = 5.00761 5.21457 5.11214
#
# Compressibility (1/GPa) = 0.04922301
#
# Stress axis : x y z
#
# Youngs Moduli (GPa) = 82.92299 82.92294 45.94861
#
# Poissons Ratio (x) = -0.07634 -0.01722
# Poissons Ratio (y) = -0.07634 -0.01723
# Poissons Ratio (z) = -0.03108 -0.03109
#
# Static dielectric constant tensor:
#      x y z
#    x 1.920730 0.000000 0.000000 
#    y 0.000000 1.920740 0.000000 
#    z 0.000000 0.000000 1.851930 
# 
# From -- ./inp_files/13158.got.cif
#   From: 2010.05.17/outbox.cif.g08.bks.cpg/sg141_7_cif.got.tgz:13158.got - 2010.05.20 13:30:51.
