data_PCOD9572567
_publ_section_title
;
Structure prediction by ZEFSAII (Michael W. Deem and Ramdas Pophale) SiO2 
 PCOD9572567
Probable space group: I 4/M C M
;
_chemical_formula_sum "Si O2"
_cell_formula_units_Z 160
_cell_length_a 20.083607
_cell_length_b 20.083607
_cell_length_c 16.776436
_cell_angle_alpha 90.000000
_cell_angle_beta 90.000000
_cell_angle_gamma 90.000000
_cell_volume 6766.796769
_symmetry_space_group_name_H-M "I 4/M C M"
_symmetry_group_IT_number 140
_symmetry_cell_setting 'tetragonal'
loop_
_space_group_symop_operation_xyz
x,y,z
-y,x,z
-x,-y,z
y,-x,z
x,-y,1/2-z
-x,y,1/2-z
y,x,1/2-z
-y,-x,1/2-z
-x,-y,-z
y,-x,-z
x,y,-z
-y,x,-z
-x,y,1/2+z
x,-y,1/2+z
-y,-x,1/2+z
y,x,1/2+z
1/2+x,1/2+y,1/2+z
1/2-y,1/2+x,1/2+z
1/2-x,1/2-y,1/2+z
1/2+y,1/2-x,1/2+z
1/2+x,1/2-y,-z
1/2-x,1/2+y,-z
1/2+y,1/2+x,-z
1/2-y,1/2-x,-z
1/2-x,1/2-y,1/2-z
1/2+y,1/2-x,1/2-z
1/2+x,1/2+y,1/2-z
1/2-y,1/2+x,1/2-z
1/2-x,1/2+y,z
1/2+x,1/2-y,z
1/2-y,1/2-x,z
1/2+y,1/2+x,z
loop_
_atom_site_type_symbol
_atom_site_label
_atom_site_fract_x
_atom_site_fract_y
_atom_site_fract_z
Si Si1 0.857592 0.246941 0.667659
Si Si2 0.488957 0.607663 0.654945
Si Si3 0.843064 0.546974 0.089939
Si Si4 0.917214 0.689157 0.317344
Si Si5 0.884966 0.805434 0.408585
O O1 0.789778 0.289778 0.678850
O O2 0.899886 0.283346 0.599306
O O3 0.903199 0.258402 0.745780
O O4 0.839743 0.171932 0.645494
O O5 0.430047 0.555917 0.631217
O O6 0.500000 0.614745 0.750000
O O7 0.460566 0.673659 0.615850
O O8 0.910259 0.589742 0.102935
O O9 0.831961 0.490045 0.155081
O O10 0.844094 0.519879 0.000000
O O11 0.875597 0.624404 0.294106
O O12 0.883715 0.727222 0.391498
O O13 0.872690 0.821749 0.500000
#
# Coordination Sequence:
#
# PCOD9572567 Si02
#       5
#    32  32  32  32  32
#     4  10  23  44  68  96 134 181 229 281 345 421
#     4   9  22  43  65  92 127 172 220 266 327 400
#     4  10  22  42  69 100 135 179 232 290 355 423
#     4  11  25  43  65  98 138 182 233 289 347 417
#     4  12  26  40  67 102 136 178 228 289 350 412
#
# _framework density 23.644864999999999
#
# number of rings (size 3 to 8) (size 9 to 14) (size 15 to 20)
#    0.000    1.600    0.000    3.600    8.400    6.400 
#    0.000    2.000    0.000    3.600    0.000    0.000 
#    0.000    0.000    0.000    0.000    0.000    0.000 
#
# Total GULP energy -447034.067439 kJ/mol
# GULP energy per Si atom -5587.925843 kJ/mol
# Density = 2.359105 g / cm^3
# Si number density = 23.644865 Si / 1000 Ang^3
#
#
#
# Elastic Constant Matrix: (Units=GPa)
#
#
# Indices 1 2 3 4 5 6 
#
# 1 91.6905 26.3307 33.8461 0.0000 0.0000 0.0000
# 2 26.3307 91.6905 33.8461 0.0000 0.0000 0.0000
# 3 33.8461 33.8461 115.8850 0.0000 0.0000 0.0000
# 4 0.0000 0.0000 0.0000 26.4220 0.0000 0.0000
# 5 0.0000 0.0000 0.0000 0.0000 26.4220 0.0000
# 6 0.0000 0.0000 0.0000 0.0000 0.0000 30.8409
#
#
#
# Elastic Compliance Matrix: (Units=1/GPa)
#
#
# Indices 1 2 3 4 5 6 
#
# 1 0.012739 -0.002561 -0.002973 0.000000 0.000000 0.000000
# 2 -0.002561 0.012739 -0.002973 0.000000 0.000000 0.000000
# 3 -0.002973 -0.002973 0.010366 0.000000 0.000000 0.000000
# 4 0.000000 0.000000 0.000000 0.037847 0.000000 0.000000
# 5 0.000000 0.000000 0.000000 0.000000 0.037847 0.000000
# 6 0.000000 0.000000 0.000000 0.000000 0.000000 0.032424
#
#
# Mechanical properties :
#
#
# Convention : Reuss Voigt Hill
#
# Bulk Modulus (GPa) = 53.10358 54.14575 53.62466
# Shear Modulus (GPa) = 29.89497 30.41986 30.15742
#
# Velocity S-wave (km/s) = 3.55960 3.59072 3.57519
# Velocity P-wave (km/s) = 6.27710 6.33564 6.30643
#
# Compressibility (1/GPa) = 0.01883112
#
# Stress axis : x y z
#
# Youngs Moduli (GPa) = 78.49915 78.49915 96.47231
#
# Poissons Ratio (x) = 0.20103 0.28678
# Poissons Ratio (y) = 0.20103 0.28678
# Poissons Ratio (z) = 0.23335 0.23335
#
# Static dielectric constant tensor:
#      x y z
#    x 1.880570 0.000000 0.000000 
#    y 0.000000 1.880570 0.000000 
#    z 0.000000 0.000000 1.922240 
# 
# From -- ./inp_files/6868.got.cif
#   From: 2010.05.17/outbox.cif.g08.bks.cpg/sg140_4_cif.got.tgz:6868.got - 2010.06.21 00:45:31.
