data_PCOD9572713
_publ_section_title
;
Structure prediction by ZEFSAII (Michael W. Deem and Ramdas Pophale) SiO2 
 PCOD9572713
Probable space group: I 4/M C M
;
_chemical_formula_sum "Si O2"
_cell_formula_units_Z 96
_cell_length_a 21.000000
_cell_length_b 21.000000
_cell_length_c 24.000000
_cell_angle_alpha 90.000000
_cell_angle_beta 90.000000
_cell_angle_gamma 90.000000
_cell_volume 10584.000000
_symmetry_space_group_name_H-M "I 4/M C M"
_symmetry_group_IT_number 140
_symmetry_cell_setting 'tetragonal'
loop_
_space_group_symop_operation_xyz
x,y,z
-y,x,z
-x,-y,z
y,-x,z
x,-y,1/2-z
-x,y,1/2-z
y,x,1/2-z
-y,-x,1/2-z
-x,-y,-z
y,-x,-z
x,y,-z
-y,x,-z
-x,y,1/2+z
x,-y,1/2+z
-y,-x,1/2+z
y,x,1/2+z
1/2+x,1/2+y,1/2+z
1/2-y,1/2+x,1/2+z
1/2-x,1/2-y,1/2+z
1/2+y,1/2-x,1/2+z
1/2+x,1/2-y,-z
1/2-x,1/2+y,-z
1/2+y,1/2+x,-z
1/2-y,1/2-x,-z
1/2-x,1/2-y,1/2-z
1/2+y,1/2-x,1/2-z
1/2+x,1/2+y,1/2-z
1/2-y,1/2+x,1/2-z
1/2-x,1/2+y,z
1/2+x,1/2-y,z
1/2-y,1/2-x,z
1/2+y,1/2+x,z
loop_
_atom_site_type_symbol
_atom_site_label
_atom_site_fract_x
_atom_site_fract_y
_atom_site_fract_z
Si Si1 0.846139 0.241080 0.665620
Si Si2 0.752838 0.357852 0.149173
Si Si3 0.029515 0.759043 0.066483
Si Si4 0.006079 0.898130 0.432377
Si Si5 0.805333 0.405385 0.434345
Si Si6 0.681085 0.924797 0.253372
O O1 0.790858 0.290858 0.684022
O O2 0.813770 0.172475 0.670330
O O3 0.864402 0.256148 0.601958
O O4 0.906346 0.265190 0.700799
O O5 0.798333 0.298333 0.134797
O O6 0.744725 0.404090 0.097341
O O7 0.788227 0.397971 0.196675
O O8 0.995569 0.825065 0.084405
O O9 0.979425 0.703093 0.079713
O O10 0.038727 0.760664 0.000000
O O11 0.007153 0.898935 0.500000
O O12 0.065281 0.941676 0.414441
O O13 0.791845 0.398787 0.500000
O O14 0.873984 0.373984 0.422940
O O15 0.617105 0.882896 0.264601
O O16 0.669418 0.000000 0.250000
#
# Coordination Sequence:
#
# PCOD9572713 Si02
#       6
#    32  32  32  32  32  32
#     4   9  18  33  54  76 102 138 171 208 263 314
#     4  10  21  35  51  76 106 134 171 218 264 312
#     4  10  20  31  49  75 104 142 179 217 261 307
#     4   8  15  28  44  64  94 131 171 214 254 295
#     4   9  18  32  50  75 106 137 173 214 256 308
#     4  10  20  36  57  79 104 133 170 215 261 313
#
# _framework density 9.0702949999999998
#
# number of rings (size 3 to 8) (size 9 to 14) (size 15 to 20)
#    0.000    2.667    0.000    2.000    2.333    3.167 
#    0.000    1.667    0.000    1.500    0.000    2.333 
#    0.000    2.667    0.000    0.000    0.000    0.000 
#
# Total GULP energy -534642.199265 kJ/mol
# GULP energy per Si atom -5569.189576 kJ/mol
# Density = 0.904965 g / cm^3
# Si number density = 9.070295 Si / 1000 Ang^3
#
#
#
# Elastic Constant Matrix: (Units=GPa)
#
#
# Indices 1 2 3 4 5 6 
#
# 1 102.8908 52.0518 27.1801 0.0000 0.0000 0.0000
# 2 52.0518 102.8908 27.1801 0.0000 0.0000 0.0000
# 3 27.1801 27.1801 33.0280 0.0000 0.0000 0.0000
# 4 0.0000 0.0000 0.0000 19.0076 0.0000 0.0000
# 5 0.0000 0.0000 0.0000 0.0000 19.0076 0.0000
# 6 0.0000 0.0000 0.0000 0.0000 0.0000 18.3458
#
#
#
# Elastic Compliance Matrix: (Units=1/GPa)
#
#
# Indices 1 2 3 4 5 6 
#
# 1 0.014372 -0.005298 -0.007467 0.000000 0.000000 0.000000
# 2 -0.005298 0.014372 -0.007467 0.000000 0.000000 0.000000
# 3 -0.007467 -0.007467 0.042568 0.000000 0.000000 0.000000
# 4 0.000000 0.000000 0.000000 0.052610 0.000000 0.000000
# 5 0.000000 0.000000 0.000000 0.000000 0.052610 0.000000
# 6 0.000000 0.000000 0.000000 0.000000 0.000000 0.054508
#
#
# Mechanical properties :
#
#
# Convention : Reuss Voigt Hill
#
# Bulk Modulus (GPa) = 32.41881 50.18151 41.30016
# Shear Modulus (GPa) = 17.74385 20.09871 18.92128
#
# Velocity S-wave (km/s) = 3.13090 3.33219 3.23311
# Velocity P-wave (km/s) = 5.56594 6.52129 6.06246
#
# Compressibility (1/GPa) = 0.03084629
#
# Stress axis : x y z
#
# Youngs Moduli (GPa) = 69.58037 69.58037 23.49207
#
# Poissons Ratio (x) = 0.36864 0.17542
# Poissons Ratio (y) = 0.36864 0.17542
# Poissons Ratio (z) = 0.51957 0.51957
#
# Static dielectric constant tensor:
#      x y z
#    x 1.634520 0.000000 0.000000 
#    y 0.000000 1.634520 0.000000 
#    z 0.000000 0.000000 1.654870 
# 
# From -- ./inp_files/9772.got.cif
#   From: 2010.05.17/outbox.ucp.g08.bks.cvg/sg140_5_cif.got.tgz:9772.got - 2010.06.11 11:42:50.
