data_PCOD9572670
_publ_section_title
;
Structure prediction by ZEFSAII (Michael W. Deem and Ramdas Pophale) SiO2 
 PCOD9572670
Probable space group: I 4/M C M
;
_chemical_formula_sum "Si O2"
_cell_formula_units_Z 176
_cell_length_a 24.868064
_cell_length_b 24.868064
_cell_length_c 15.402149
_cell_angle_alpha 90.000000
_cell_angle_beta 90.000000
_cell_angle_gamma 90.000000
_cell_volume 9525.006335
_symmetry_space_group_name_H-M "I 4/M C M"
_symmetry_group_IT_number 140
_symmetry_cell_setting 'tetragonal'
loop_
_space_group_symop_operation_xyz
x,y,z
-y,x,z
-x,-y,z
y,-x,z
x,-y,1/2-z
-x,y,1/2-z
y,x,1/2-z
-y,-x,1/2-z
-x,-y,-z
y,-x,-z
x,y,-z
-y,x,-z
-x,y,1/2+z
x,-y,1/2+z
-y,-x,1/2+z
y,x,1/2+z
1/2+x,1/2+y,1/2+z
1/2-y,1/2+x,1/2+z
1/2-x,1/2-y,1/2+z
1/2+y,1/2-x,1/2+z
1/2+x,1/2-y,-z
1/2-x,1/2+y,-z
1/2+y,1/2+x,-z
1/2-y,1/2-x,-z
1/2-x,1/2-y,1/2-z
1/2+y,1/2-x,1/2-z
1/2+x,1/2+y,1/2-z
1/2-y,1/2+x,1/2-z
1/2-x,1/2+y,z
1/2+x,1/2-y,z
1/2-y,1/2-x,z
1/2+y,1/2+x,z
loop_
_atom_site_type_symbol
_atom_site_label
_atom_site_fract_x
_atom_site_fract_y
_atom_site_fract_z
Si Si1 0.583010 0.728299 0.600048
Si Si2 0.500001 0.909391 0.000000
Si Si3 0.728299 0.583010 0.600048
Si Si4 0.646041 0.557087 0.750000
Si Si5 0.319987 1.000000 0.647686
Si Si6 0.294294 0.294294 0.354702
O O1 0.570050 0.717160 0.500000
O O2 0.561305 0.683851 0.666164
O O3 0.552537 0.783268 0.626200
O O4 0.647546 0.724997 0.611370
O O5 0.500000 0.870959 0.084353
O O6 0.551982 0.948019 0.000000
O O7 0.448020 0.948020 0.000000
O O8 0.717160 0.570050 0.500000
O O9 0.683850 0.561305 0.666164
O O10 0.783268 0.552538 0.626200
O O11 0.724997 0.647546 0.611370
O O12 0.617410 0.500000 0.750000
O O13 0.605843 0.605843 0.750000
O O14 0.332839 0.000000 0.750000
O O15 0.298453 0.298453 0.250000
O O16 0.250001 0.250000 0.376783
#
# Coordination Sequence:
#
# PCOD9572670 Si02
#       6
#    32  16  32  32  32  32
#     4  12  21  38  66  96 130 171 217 269 330 393
#     4  11  28  52  72  98 138 178 223 282 344 398
#     4  12  21  38  66  96 130 171 217 269 330 393
#     4  12  24  41  64  94 132 172 226 274 328 388
#     4  12  23  43  75 102 130 171 229 279 325 396
#     4  11  23  39  59  92 141 176 206 260 336 411
#
# _framework density 18.477677
#
# number of rings (size 3 to 8) (size 9 to 14) (size 15 to 20)
#    0.000    0.273    9.091    0.545    0.000    3.818 
#    0.000    0.909    0.000    0.000    0.000    2.545 
#    0.000    0.000    0.000    0.000    0.000    0.000 
#
# Total GULP energy -491693.398054 kJ/mol
# GULP energy per Si atom -5587.424978 kJ/mol
# Density = 1.843562 g / cm^3
# Si number density = 18.477677 Si / 1000 Ang^3
#
#
#
# Elastic Constant Matrix: (Units=GPa)
#
#
# Indices 1 2 3 4 5 6 
#
# 1 145.7007 70.1456 55.5626 0.0000 0.0000 0.0000
# 2 70.1456 145.7013 55.5626 0.0000 0.0000 0.0000
# 3 55.5626 55.5626 193.9829 0.0000 0.0000 0.0000
# 4 0.0000 0.0000 0.0000 3.3506 0.0000 0.0000
# 5 0.0000 0.0000 0.0000 0.0000 3.3487 0.0000
# 6 0.0000 0.0000 0.0000 0.0000 0.0000 30.5247
#
#
#
# Elastic Compliance Matrix: (Units=1/GPa)
#
#
# Indices 1 2 3 4 5 6 
#
# 1 0.009335 -0.003901 -0.001557 0.000000 0.000000 0.000000
# 2 -0.003901 0.009335 -0.001557 0.000000 0.000000 0.000000
# 3 -0.001557 -0.001557 0.006047 0.000000 0.000000 0.000000
# 4 0.000000 0.000000 0.000000 0.298450 0.000000 0.000000
# 5 0.000000 0.000000 0.000000 0.000000 0.298619 0.000000
# 6 0.000000 0.000000 0.000000 0.000000 0.000000 0.032760
#
#
# Mechanical properties :
#
#
# Convention : Reuss Voigt Hill
#
# Bulk Modulus (GPa) = 93.55267 94.21406 93.88336
# Shear Modulus (GPa) = 7.43897 27.71910 17.57904
#
# Velocity S-wave (km/s) = 2.00865 3.87737 3.08777
# Velocity P-wave (km/s) = 7.49130 8.43469 7.97695
#
# Compressibility (1/GPa) = 0.01068917
#
# Stress axis : x y z
#
# Youngs Moduli (GPa) = 107.12581 107.12628 165.37737
#
# Poissons Ratio (x) = 0.41785 0.25742
# Poissons Ratio (y) = 0.41785 0.25742
# Poissons Ratio (z) = 0.16675 0.16675
#
# Static dielectric constant tensor:
#      x y z
#    x 1.634190 0.000000 0.000000 
#    y 0.000000 1.634190 0.000000 
#    z 0.000000 0.000000 1.650400 
# 
# From -- ./inp_files/4919.got.cif
#   From: 2010.05.17/outbox.cif.g08.bks.cpg/sg140_3_cif.got.tgz:4919.got - 2010.06.21 00:45:31.
