data_PCOD9572906
_publ_section_title
;
Structure prediction by ZEFSAII (Michael W. Deem and Ramdas Pophale) SiO2 
 PCOD9572906
Probable space group: I 41/A M D
;
_chemical_formula_sum "Si O2"
_cell_formula_units_Z 124
_cell_length_a 15.410684
_cell_length_b 15.410684
_cell_length_c 26.943193
_cell_angle_alpha 90.000000
_cell_angle_beta 90.000000
_cell_angle_gamma 90.000000
_cell_volume 6398.716848
_symmetry_space_group_name_H-M "I 41/A M D"
_symmetry_group_IT_number 141
_space_group.IT_coordinate_system_code '2'
_symmetry_cell_setting 'tetragonal'
loop_
_space_group_symop_operation_xyz
x,y,z
1/4-y,3/4+x,1/4+z
-x,1/2-y,z
1/4+y,1/4-x,3/4+z
x,-y,-z
-x,1/2+y,-z
1/4+y,3/4+x,1/4-z
1/4-y,1/4-x,3/4-z
-x,-y,-z
3/4+y,1/4-x,3/4-z
x,1/2+y,-z
3/4-y,3/4+x,1/4-z
-x,y,z
x,1/2-y,z
3/4-y,1/4-x,3/4+z
3/4+y,3/4+x,1/4+z
1/2+x,1/2+y,1/2+z
3/4-y,1/4+x,3/4+z
1/2-x,-y,1/2+z
3/4+y,3/4-x,1/4+z
1/2+x,1/2-y,1/2-z
1/2-x,y,1/2-z
3/4+y,1/4+x,3/4-z
3/4-y,3/4-x,1/4-z
1/2-x,1/2-y,1/2-z
1/4+y,3/4-x,1/4-z
1/2+x,y,1/2-z
1/4-y,1/4+x,3/4-z
1/2-x,1/2+y,1/2+z
1/2+x,-y,1/2+z
1/4-y,3/4-x,1/4+z
1/4+y,1/4+x,3/4+z
loop_
_atom_site_type_symbol
_atom_site_label
_atom_site_fract_x
_atom_site_fract_y
_atom_site_fract_z
Si Si1 0.899824 0.567785 0.316865
Si Si2 0.500000 0.384230 0.379430
Si Si3 0.000000 0.250000 0.208451
Si Si4 0.500000 0.250000 0.625000
Si Si5 0.750000 0.107640 0.750000
Si Si6 0.689085 0.250000 0.671788
Si Si7 0.653307 0.096694 0.125000
Si Si8 0.901026 0.750000 0.695009
O O1 0.893026 0.664801 0.339251
O O2 0.832517 0.558370 0.271813
O O3 0.866315 0.499565 0.357038
O O4 0.000000 0.549777 0.304223
O O5 0.500000 0.333160 0.327677
O O6 0.500000 0.489280 0.377814
O O7 0.916261 0.250000 0.245467
O O8 0.589680 0.250000 0.655777
O O9 0.712285 0.168007 0.706211
O O10 0.637620 0.163864 0.170346
O O11 0.000000 0.750000 0.677632
#
# Coordination Sequence:
#
# PCOD9572906 Si02
#       8
#    32  16   8   4  16  16  16  16
#     4  11  22  41  71  92 130 177 214 269 342 395
#     4  10  21  43  63  95 133 173 218 270 330 400
#     4  10  20  39  67  94 120 172 215 269 328 388
#     4  12  24  40  62  92 132 192 202 268 356 384
#     4   9  22  42  62  99 122 164 230 281 308 403
#     4   9  22  42  64  91 133 169 225 271 331 392
#     4  12  21  43  64  94 123 175 208 270 346 384
#     4  10  19  39  63  87 126 157 218 259 317 402
#
# _framework density 19.378885
#
# number of rings (size 3 to 8) (size 9 to 14) (size 15 to 20)
#    0.387    1.290    3.871    0.774    1.806    4.129 
#    9.290    1.290    0.000    0.000    0.000    0.000 
#    0.000    0.000    0.000    0.000    0.000    0.000 
#
# Total GULP energy -345598.452048 kJ/mol
# GULP energy per Si atom -5574.168581 kJ/mol
# Density = 1.933478 g / cm^3
# Si number density = 19.378885 Si / 1000 Ang^3
#
#
#
# Elastic Constant Matrix: (Units=GPa)
#
#
# Indices 1 2 3 4 5 6 
#
# 1 125.2669 44.7580 42.0077 0.0000 0.0000 0.0000
# 2 44.7580 125.2652 42.0067 0.0000 0.0000 0.0000
# 3 42.0077 42.0067 100.3139 0.0000 0.0000 0.0000
# 4 0.0000 0.0000 0.0000 23.5137 0.0000 0.0000
# 5 0.0000 0.0000 0.0000 0.0000 23.5150 0.0000
# 6 0.0000 0.0000 0.0000 0.0000 0.0000 23.6878
#
#
#
# Elastic Compliance Matrix: (Units=1/GPa)
#
#
# Indices 1 2 3 4 5 6 
#
# 1 0.009919 -0.002503 -0.003106 0.000000 0.000000 0.000000
# 2 -0.002503 0.009919 -0.003105 0.000000 0.000000 0.000000
# 3 -0.003106 -0.003105 0.012570 0.000000 0.000000 0.000000
# 4 0.000000 0.000000 0.000000 0.042528 0.000000 0.000000
# 5 0.000000 0.000000 0.000000 0.000000 0.042526 0.000000
# 6 0.000000 0.000000 0.000000 0.000000 0.000000 0.042216
#
#
# Mechanical properties :
#
#
# Convention : Reuss Voigt Hill
#
# Bulk Modulus (GPa) = 66.75730 67.59899 67.17814
# Shear Modulus (GPa) = 27.45782 28.94821 28.20302
#
# Velocity S-wave (km/s) = 3.76825 3.86917 3.81904
# Velocity P-wave (km/s) = 7.31137 7.41074 7.36123
#
# Compressibility (1/GPa) = 0.01497964
#
# Stress axis : x y z
#
# Youngs Moduli (GPa) = 100.82115 100.82039 79.55683
#
# Poissons Ratio (x) = 0.25231 0.24707
# Poissons Ratio (y) = 0.25231 0.24706
# Poissons Ratio (z) = 0.31311 0.31310
#
# Static dielectric constant tensor:
#      x y z
#    x 1.681710 0.000000 0.000000 
#    y 0.000000 1.681720 0.000000 
#    z 0.000000 0.000000 1.448870 
# 
# From -- ./inp_files/14190.got.cif
#   From: 2010.05.17/outbox.cif.g08.bks.cpg/sg141_8_cif.got.tgz:14190.got - 2010.05.20 13:30:51.
