data_PCOD9572573
_publ_section_title
;
Structure prediction by ZEFSAII (Michael W. Deem and Ramdas Pophale) SiO2 
 PCOD9572573
Probable space group: I 4/M C M
;
_chemical_formula_sum "Si O2"
_cell_formula_units_Z 104
_cell_length_a 17.834471
_cell_length_b 17.834471
_cell_length_c 14.138003
_cell_angle_alpha 90.000000
_cell_angle_beta 90.000000
_cell_angle_gamma 90.000000
_cell_volume 4496.851369
_symmetry_space_group_name_H-M "I 4/M C M"
_symmetry_group_IT_number 140
_symmetry_cell_setting 'tetragonal'
loop_
_space_group_symop_operation_xyz
x,y,z
-y,x,z
-x,-y,z
y,-x,z
x,-y,1/2-z
-x,y,1/2-z
y,x,1/2-z
-y,-x,1/2-z
-x,-y,-z
y,-x,-z
x,y,-z
-y,x,-z
-x,y,1/2+z
x,-y,1/2+z
-y,-x,1/2+z
y,x,1/2+z
1/2+x,1/2+y,1/2+z
1/2-y,1/2+x,1/2+z
1/2-x,1/2-y,1/2+z
1/2+y,1/2-x,1/2+z
1/2+x,1/2-y,-z
1/2-x,1/2+y,-z
1/2+y,1/2+x,-z
1/2-y,1/2-x,-z
1/2-x,1/2-y,1/2-z
1/2+y,1/2-x,1/2-z
1/2+x,1/2+y,1/2-z
1/2-y,1/2+x,1/2-z
1/2-x,1/2+y,z
1/2+x,1/2-y,z
1/2-y,1/2-x,z
1/2+y,1/2+x,z
loop_
_atom_site_type_symbol
_atom_site_label
_atom_site_fract_x
_atom_site_fract_y
_atom_site_fract_z
Si Si1 0.104656 0.927800 0.000000
Si Si2 0.140986 0.185082 0.654148
Si Si3 0.253849 0.500000 0.750000
Si Si4 0.996006 0.623261 0.609445
Si Si5 0.696901 0.803100 0.000000
O O1 0.144227 0.890793 0.091881
O O2 0.017776 0.898799 0.000000
O O3 0.189077 0.189077 0.750000
O O4 0.059732 0.194804 0.699183
O O5 0.156340 0.251990 0.582475
O O6 0.193913 0.477382 0.831313
O O7 0.981075 0.643162 0.500000
O O8 0.060645 0.560645 0.610921
O O9 0.920443 0.579558 0.644362
#
# Coordination Sequence:
#
# PCOD9572573 Si02
#       5
#    16  32  16  32   8
#     4  10  22  44  76 100 125 165 213 288 353 389
#     4  11  25  45  64  99 134 173 222 266 324 397
#     4  12  24  35  68  91 122 170 214 280 318 384
#     4   9  20  38  59  89 127 163 214 276 326 377
#     4  10  26  46  68  84 139 192 213 252 318 408
#
# _framework density 23.127293999999999
#
# number of rings (size 3 to 8) (size 9 to 14) (size 15 to 20)
#    0.000    1.692    0.000    4.154    8.615    1.231 
#    5.538    1.538    0.000    0.000    0.000    0.000 
#    0.000    0.000    0.000    0.000    0.000    0.000 
#
# Total GULP energy -289470.515487 kJ/mol
# GULP energy per Si atom -5566.740682 kJ/mol
# Density = 2.307466 g / cm^3
# Si number density = 23.127294 Si / 1000 Ang^3
#
#
#
# Elastic Constant Matrix: (Units=GPa)
#
#
# Indices 1 2 3 4 5 6 
#
# 1 24.8852 4.4724 23.0077 0.0000 0.0000 0.0000
# 2 4.4724 24.8835 23.0066 0.0000 0.0000 0.0000
# 3 23.0077 23.0066 174.9739 0.0000 0.0000 0.0000
# 4 0.0000 0.0000 0.0000 24.3986 0.0000 0.0000
# 5 0.0000 0.0000 0.0000 0.0000 24.3987 0.0000
# 6 0.0000 0.0000 0.0000 0.0000 0.0000 28.6229
#
#
#
# Elastic Compliance Matrix: (Units=1/GPa)
#
#
# Indices 1 2 3 4 5 6 
#
# 1 0.045947 -0.003042 -0.005642 0.000000 0.000000 0.000000
# 2 -0.003042 0.045950 -0.005642 0.000000 0.000000 0.000000
# 3 -0.005642 -0.005642 0.007199 0.000000 0.000000 0.000000
# 4 0.000000 0.000000 0.000000 0.040986 0.000000 0.000000
# 5 0.000000 0.000000 0.000000 0.000000 0.040986 0.000000
# 6 0.000000 0.000000 0.000000 0.000000 0.000000 0.034937
#
#
# Mechanical properties :
#
#
# Convention : Reuss Voigt Hill
#
# Bulk Modulus (GPa) = 14.19542 36.19067 25.19305
# Shear Modulus (GPa) = 18.64710 27.10111 22.87410
#
# Velocity S-wave (km/s) = 2.84259 3.42690 3.14833
# Velocity P-wave (km/s) = 4.11400 5.59827 4.91252
#
# Compressibility (1/GPa) = 0.07044524
#
# Stress axis : x y z
#
# Youngs Moduli (GPa) = 21.76400 21.76265 138.91197
#
# Poissons Ratio (x) = 0.06620 0.78371
# Poissons Ratio (y) = 0.06621 0.78371
# Poissons Ratio (z) = 0.12279 0.12278
#
# Static dielectric constant tensor:
#      x y z
#    x 1.907520 0.000000 0.000000 
#    y 0.000000 1.907530 0.000000 
#    z 0.000000 0.000000 1.896310 
# 
# From -- ./inp_files/4268.got.cif
#   From: 2010.05.17/outbox.cif.g08.bks.cpg/sg140_3_cif.got.tgz:4268.got - 2010.06.21 00:45:31.
