data_PCOD9572923
_publ_section_title
;
Structure prediction by ZEFSAII (Michael W. Deem and Ramdas Pophale) SiO2 
 PCOD9572923
Probable space group: I 41/A M D
;
_chemical_formula_sum "Si O2"
_cell_formula_units_Z 160
_cell_length_a 25.443180
_cell_length_b 25.443180
_cell_length_c 13.947200
_cell_angle_alpha 90.000000
_cell_angle_beta 90.000000
_cell_angle_gamma 90.000000
_cell_volume 9028.795354
_symmetry_space_group_name_H-M "I 41/A M D"
_symmetry_group_IT_number 141
_space_group.IT_coordinate_system_code '2'
_symmetry_cell_setting 'tetragonal'
loop_
_space_group_symop_operation_xyz
x,y,z
1/4-y,3/4+x,1/4+z
-x,1/2-y,z
1/4+y,1/4-x,3/4+z
x,-y,-z
-x,1/2+y,-z
1/4+y,3/4+x,1/4-z
1/4-y,1/4-x,3/4-z
-x,-y,-z
3/4+y,1/4-x,3/4-z
x,1/2+y,-z
3/4-y,3/4+x,1/4-z
-x,y,z
x,1/2-y,z
3/4-y,1/4-x,3/4+z
3/4+y,3/4+x,1/4+z
1/2+x,1/2+y,1/2+z
3/4-y,1/4+x,3/4+z
1/2-x,-y,1/2+z
3/4+y,3/4-x,1/4+z
1/2+x,1/2-y,1/2-z
1/2-x,y,1/2-z
3/4+y,1/4+x,3/4-z
3/4-y,3/4-x,1/4-z
1/2-x,1/2-y,1/2-z
1/4+y,3/4-x,1/4-z
1/2+x,y,1/2-z
1/4-y,1/4+x,3/4-z
1/2-x,1/2+y,1/2+z
1/2+x,-y,1/2+z
1/4-y,3/4-x,1/4+z
1/4+y,1/4+x,3/4+z
loop_
_atom_site_type_symbol
_atom_site_label
_atom_site_fract_x
_atom_site_fract_y
_atom_site_fract_z
Si Si1 0.436687 0.953229 0.565517
Si Si2 0.438213 0.337155 0.514543
Si Si3 0.060203 0.408765 0.638376
Si Si4 0.640858 0.813269 0.825759
Si Si5 0.563738 0.517126 0.776290
O O1 0.500000 0.958639 0.570440
O O2 0.428638 0.897996 0.513009
O O3 0.417089 0.960273 0.674273
O O4 0.415689 0.000000 0.500000
O O5 0.500000 0.324990 0.495199
O O6 0.426265 0.323736 0.625000
O O7 0.394780 0.309559 0.448764
O O8 0.082947 0.398425 0.533099
O O9 0.082753 0.458293 0.697419
O O10 0.000000 0.424412 0.618521
O O11 0.633098 0.750000 0.826532
O O12 0.592085 0.842085 0.875000
O O13 0.692584 0.825423 0.888258
O O14 0.500000 0.515108 0.768355
#
# Coordination Sequence:
#
# PCOD9572923 Si02
#       5
#    32  32  32  32  32
#     4   9  17  30  49  71  95 126 167 213 257 304
#     4  11  22  34  49  73 106 141 174 209 258 321
#     4  10  20  33  50  72  99 134 176 218 260 306
#     4  10  20  33  50  74 104 137 172 213 264 322
#     4   9  17  32  52  72  96 128 173 226 267 300
#
# _framework density 17.721080000000001
#
# number of rings (size 3 to 8) (size 9 to 14) (size 15 to 20)
#    0.000    2.200    0.000    3.600    0.000    9.600 
#    0.000    2.000    0.000    0.000    0.000    7.000 
#    0.000    0.000    0.000    0.000    0.000    0.000 
#
# Total GULP energy -445576.311150 kJ/mol
# GULP energy per Si atom -5569.703889 kJ/mol
# Density = 1.768075 g / cm^3
# Si number density = 17.721080 Si / 1000 Ang^3
#
#
#
# Elastic Constant Matrix: (Units=GPa)
#
#
# Indices 1 2 3 4 5 6 
#
# 1 29.6582 61.2786 33.7142 0.0000 0.0000 0.0000
# 2 61.2786 29.6444 33.7153 0.0000 0.0000 0.0000
# 3 33.7142 33.7153 125.8621 0.0000 0.0000 0.0000
# 4 0.0000 0.0000 0.0000 22.0544 0.0000 0.0000
# 5 0.0000 0.0000 0.0000 0.0000 22.0544 0.0000
# 6 0.0000 0.0000 0.0000 0.0000 0.0000 -7.6858
#
#
#
# Elastic Compliance Matrix: (Units=1/GPa)
#
#
# Indices 1 2 3 4 5 6 
#
# 1 -0.008944 0.022671 -0.003677 0.000000 0.000000 0.000000
# 2 0.022671 -0.008950 -0.003675 0.000000 0.000000 0.000000
# 3 -0.003677 -0.003675 0.009915 0.000000 0.000000 0.000000
# 4 0.000000 0.000000 0.000000 0.045342 0.000000 0.000000
# 5 0.000000 0.000000 0.000000 0.000000 0.045343 0.000000
# 6 0.000000 0.000000 0.000000 0.000000 0.000000 -0.130110
#
#
# Mechanical properties :
#
#
# Convention : Reuss Voigt Hill
#
# Bulk Modulus (GPa) = 44.13606 49.17564 46.65585
# Shear Modulus (GPa) = -70.93231 11.04837 -29.94197
#
# Velocity S-wave (km/s) = -6.33356 2.49963 -4.11496
# Velocity P-wave (km/s) = 5.34091 6.01173 1.95136
#
# Compressibility (1/GPa) = 0.02265721
#
# Stress axis : x y z
#
# Youngs Moduli (GPa) = -111.80358 -111.72570 100.86081
#
# Poissons Ratio (x) = 2.53292 0.37088
# Poissons Ratio (y) = 2.53469 0.37068
# Poissons Ratio (z) = -0.41111 -0.41061
#
# Static dielectric constant tensor:
#      x y z
#    x 1.624970 0.000000 0.000000 
#    y 0.000000 1.624970 0.000000 
#    z 0.000000 0.000000 1.627200 
# 
# From -- ./inp_files/6570.got.cif
#   From: 2010.05.17/outbox.cif.g08.bks.cpg/sg141_4_cif.got.tgz:6570.got - 2010.05.20 13:30:51.
