data_PCOD9572989
_publ_section_title
;
Structure prediction by ZEFSAII (Michael W. Deem and Ramdas Pophale) SiO2 
 PCOD9572989
Probable space group: I 41/A M D
;
_chemical_formula_sum "Si O2"
_cell_formula_units_Z 192
_cell_length_a 18.311365
_cell_length_b 18.311365
_cell_length_c 31.748817
_cell_angle_alpha 90.000000
_cell_angle_beta 90.000000
_cell_angle_gamma 90.000000
_cell_volume 10645.571632
_symmetry_space_group_name_H-M "I 41/A M D"
_symmetry_group_IT_number 141
_space_group.IT_coordinate_system_code '2'
_symmetry_cell_setting 'tetragonal'
loop_
_space_group_symop_operation_xyz
x,y,z
1/4-y,3/4+x,1/4+z
-x,1/2-y,z
1/4+y,1/4-x,3/4+z
x,-y,-z
-x,1/2+y,-z
1/4+y,3/4+x,1/4-z
1/4-y,1/4-x,3/4-z
-x,-y,-z
3/4+y,1/4-x,3/4-z
x,1/2+y,-z
3/4-y,3/4+x,1/4-z
-x,y,z
x,1/2-y,z
3/4-y,1/4-x,3/4+z
3/4+y,3/4+x,1/4+z
1/2+x,1/2+y,1/2+z
3/4-y,1/4+x,3/4+z
1/2-x,-y,1/2+z
3/4+y,3/4-x,1/4+z
1/2+x,1/2-y,1/2-z
1/2-x,y,1/2-z
3/4+y,1/4+x,3/4-z
3/4-y,3/4-x,1/4-z
1/2-x,1/2-y,1/2-z
1/4+y,3/4-x,1/4-z
1/2+x,y,1/2-z
1/4-y,1/4+x,3/4-z
1/2-x,1/2+y,1/2+z
1/2+x,-y,1/2+z
1/4-y,3/4-x,1/4+z
1/4+y,1/4+x,3/4+z
loop_
_atom_site_type_symbol
_atom_site_label
_atom_site_fract_x
_atom_site_fract_y
_atom_site_fract_z
Si Si1 0.686745 0.831913 0.284276
Si Si2 0.243883 0.616764 0.367012
Si Si3 0.275838 0.835695 0.458688
Si Si4 0.837214 0.664622 0.525953
Si Si5 0.248069 0.620519 0.610211
Si Si6 0.000000 0.107301 0.490737
Si Si7 0.500000 0.473711 0.926435
O O1 0.656431 0.750000 0.277027
O O2 0.750000 0.845715 0.250000
O O3 0.725878 0.834334 0.329622
O O4 0.628815 0.898048 0.285240
O O5 0.303563 0.553563 0.375000
O O6 0.242653 0.656282 0.411866
O O7 0.170767 0.574760 0.352687
O O8 0.288773 0.750000 0.467215
O O9 0.214871 0.868912 0.490011
O O10 0.838762 0.750000 0.517863
O O11 0.793528 0.652380 0.569545
O O12 0.921713 0.641400 0.522489
O O13 0.191072 0.558929 0.625000
O O14 0.264803 0.680385 0.646092
O O15 0.000000 0.095717 0.541716
O O16 0.000000 0.036024 0.461548
#
# Coordination Sequence:
#
# PCOD9572989 Si02
#       7
#    32  32  32  32  32  16  16
#     4  10  20  36  58  85 114 148 191 241 300 370
#     4   9  19  34  54  80 110 146 185 231 295 365
#     4  10  21  37  57  85 115 153 195 246 304 371
#     4  11  22  37  57  80 116 155 203 251 307 367
#     4  11  20  35  55  80 113 149 194 250 311 364
#     4  11  23  38  54  82 115 157 204 254 310 371
#     4  11  22  36  54  80 114 150 194 258 311 360
#
# _framework density 18.035668999999999
#
# number of rings (size 3 to 8) (size 9 to 14) (size 15 to 20)
#    0.000    1.667    2.500    2.750    0.000    0.333 
#    3.000    0.000    0.000    3.000    0.000    0.000 
#    0.000    0.000    0.000    0.000    0.000    0.000 
#
# Total GULP energy -534427.662587 kJ/mol
# GULP energy per Si atom -5566.954819 kJ/mol
# Density = 1.799462 g / cm^3
# Si number density = 18.035669 Si / 1000 Ang^3
#
#
#
# Elastic Constant Matrix: (Units=GPa)
#
#
# Indices 1 2 3 4 5 6 
#
# 1 75.7965 54.7183 21.5685 0.0000 0.0000 0.0000
# 2 54.7183 75.7959 21.5668 0.0000 0.0000 0.0000
# 3 21.5685 21.5668 96.9928 0.0000 0.0000 0.0000
# 4 0.0000 0.0000 0.0000 86.6462 0.0000 0.0000
# 5 0.0000 0.0000 0.0000 0.0000 86.5629 0.0000
# 6 0.0000 0.0000 0.0000 0.0000 0.0000 -274.7998
#
#
#
# Elastic Compliance Matrix: (Units=1/GPa)
#
#
# Indices 1 2 3 4 5 6 
#
# 1 0.027857 -0.019587 -0.001839 0.000000 0.000000 0.000000
# 2 -0.019587 0.027856 -0.001838 0.000000 0.000000 0.000000
# 3 -0.001839 -0.001838 0.011128 0.000000 0.000000 0.000000
# 4 0.000000 0.000000 0.000000 0.011541 0.000000 0.000000
# 5 0.000000 0.000000 0.000000 0.000000 0.011552 0.000000
# 6 0.000000 0.000000 0.000000 0.000000 0.000000 -0.003639
#
#
# Mechanical properties :
#
#
# Convention : Reuss Voigt Hill
#
# Bulk Modulus (GPa) = 49.23253 49.36583 49.29918
# Shear Modulus (GPa) = 35.81793 -10.26939 12.77427
#
# Velocity S-wave (km/s) = 4.46123 -2.38879 2.66424
# Velocity P-wave (km/s) = 7.34121 4.45222 6.07106
#
# Compressibility (1/GPa) = 0.02031178
#
# Stress axis : x y z
#
# Youngs Moduli (GPa) = 35.89826 35.89833 89.86460
#
# Poissons Ratio (x) = 0.70313 0.16529
# Poissons Ratio (y) = 0.70313 0.16521
# Poissons Ratio (z) = 0.06603 0.06600
#
# Static dielectric constant tensor:
#      x y z
#    x 1.640330 0.000000 0.000000 
#    y 0.000000 1.640330 0.000000 
#    z 0.000000 0.000000 1.658630 
# 
# From -- ./inp_files/14456.got.cif
#   From: 2010.05.17/outbox.cif.g08.bks.cpg/sg141_8_cif.got.tgz:14456.got - 2010.05.20 13:30:51.
