data_PCOD9572115
_publ_section_title
;
Structure prediction by ZEFSAII (Michael W. Deem and Ramdas Pophale) SiO2 
 PCOD9572115
Probable space group: I 4/M C M
;
_chemical_formula_sum "Si O2"
_cell_formula_units_Z 176
_cell_length_a 19.310425
_cell_length_b 19.310425
_cell_length_c 31.488543
_cell_angle_alpha 90.000000
_cell_angle_beta 90.000000
_cell_angle_gamma 90.000000
_cell_volume 11741.841951
_symmetry_space_group_name_H-M "I 4/M C M"
_symmetry_group_IT_number 140
_symmetry_cell_setting 'tetragonal'
loop_
_space_group_symop_operation_xyz
x,y,z
-y,x,z
-x,-y,z
y,-x,z
x,-y,1/2-z
-x,y,1/2-z
y,x,1/2-z
-y,-x,1/2-z
-x,-y,-z
y,-x,-z
x,y,-z
-y,x,-z
-x,y,1/2+z
x,-y,1/2+z
-y,-x,1/2+z
y,x,1/2+z
1/2+x,1/2+y,1/2+z
1/2-y,1/2+x,1/2+z
1/2-x,1/2-y,1/2+z
1/2+y,1/2-x,1/2+z
1/2+x,1/2-y,-z
1/2-x,1/2+y,-z
1/2+y,1/2+x,-z
1/2-y,1/2-x,-z
1/2-x,1/2-y,1/2-z
1/2+y,1/2-x,1/2-z
1/2+x,1/2+y,1/2-z
1/2-y,1/2+x,1/2-z
1/2-x,1/2+y,z
1/2+x,1/2-y,z
1/2-y,1/2-x,z
1/2+y,1/2+x,z
loop_
_atom_site_type_symbol
_atom_site_label
_atom_site_fract_x
_atom_site_fract_y
_atom_site_fract_z
Si Si1 0.940405 0.559596 0.551554
Si Si2 0.184819 0.481351 0.384211
Si Si3 0.803778 0.070092 0.000000
Si Si4 0.648149 0.264802 0.409852
Si Si5 0.113684 0.497035 0.204761
Si Si6 0.874710 0.257563 0.587181
Si Si7 0.094673 0.813583 0.000000
O O1 0.928651 0.571350 0.500000
O O2 0.872146 0.533841 0.578039
O O3 0.000000 0.500000 0.554801
O O4 0.242849 0.422078 0.387023
O O5 0.150550 0.480254 0.338062
O O6 0.217371 0.557118 0.389131
O O7 0.763824 0.098208 0.959125
O O8 0.878538 0.107280 0.000000
O O9 0.807650 0.987674 0.000000
O O10 0.700525 0.200525 0.407232
O O11 0.691190 0.332310 0.395212
O O12 0.626764 0.278190 0.458528
O O13 0.153137 0.500000 0.250000
O O14 0.051982 0.551982 0.211184
O O15 0.077576 0.422425 0.197795
O O16 0.819681 0.319681 0.584385
#
# Coordination Sequence:
#
# PCOD9572115 Si02
#       7
#    16  32  16  32  32  32  16
#     4  11  24  32  44  76 110 131 156 199 255 306
#     4  12  20  33  54  71  99 135 168 206 245 299
#     4  10  19  32  47  64  90 128 167 210 244 294
#     4  10  20  33  48  67  94 131 170 203 244 300
#     4   9  17  30  49  75 104 131 160 197 245 305
#     4  10  21  33  47  68  96 130 167 205 247 297
#     4  10  19  32  47  64  90 126 171 206 248 288
#
# _framework density 14.989131
#
# number of rings (size 3 to 8) (size 9 to 14) (size 15 to 20)
#    0.000    1.727    3.636    2.727    2.545    2.364 
#    0.000    0.000    0.000    1.636    0.000    5.091 
#    0.000    0.000    0.000    1.636    0.000    0.364 
#
# Total GULP energy -490190.048874 kJ/mol
# GULP energy per Si atom -5570.341464 kJ/mol
# Density = 1.495502 g / cm^3
# Si number density = 14.989131 Si / 1000 Ang^3
#
#
#
# Elastic Constant Matrix: (Units=GPa)
#
#
# Indices 1 2 3 4 5 6 
#
# 1 79.0922 33.9800 21.3581 0.0000 0.0000 0.0000
# 2 33.9800 79.0922 21.3581 0.0000 0.0000 0.0000
# 3 21.3581 21.3581 88.0259 0.0000 0.0000 0.0000
# 4 0.0000 0.0000 0.0000 17.0734 0.0000 0.0000
# 5 0.0000 0.0000 0.0000 0.0000 17.0735 0.0000
# 6 0.0000 0.0000 0.0000 0.0000 0.0000 22.0406
#
#
#
# Elastic Compliance Matrix: (Units=1/GPa)
#
#
# Indices 1 2 3 4 5 6 
#
# 1 0.015952 -0.006215 -0.002362 0.000000 0.000000 0.000000
# 2 -0.006215 0.015952 -0.002362 0.000000 0.000000 0.000000
# 3 -0.002362 -0.002362 0.012507 0.000000 0.000000 0.000000
# 4 0.000000 0.000000 0.000000 0.058571 0.000000 0.000000
# 5 0.000000 0.000000 0.000000 0.000000 0.058570 0.000000
# 6 0.000000 0.000000 0.000000 0.000000 0.000000 0.045371
#
#
# Mechanical properties :
#
#
# Convention : Reuss Voigt Hill
#
# Bulk Modulus (GPa) = 44.38544 44.40028 44.39286
# Shear Modulus (GPa) = 21.15850 22.53845 21.84847
#
# Velocity S-wave (km/s) = 3.76119 3.88190 3.82202
# Velocity P-wave (km/s) = 6.96693 7.05537 7.01129
#
# Compressibility (1/GPa) = 0.02252991
#
# Stress axis : x y z
#
# Youngs Moduli (GPa) = 62.68940 62.68938 79.95727
#
# Poissons Ratio (x) = 0.38963 0.18889
# Poissons Ratio (y) = 0.38963 0.18889
# Poissons Ratio (z) = 0.14810 0.14810
#
# Static dielectric constant tensor:
#      x y z
#    x 1.509320 0.000000 0.000000 
#    y 0.000000 1.509320 0.000000 
#    z 0.000000 0.000000 1.494120 
# 
# From -- ./inp_files/11588.got.cif
#   From: 2010.05.17/outbox.cif.g08.bks.cpg/sg140_6_cif.got.tgz:11588.got - 2010.06.21 00:45:31.
