data_PCOD9572959
_publ_section_title
;
Structure prediction by ZEFSAII (Michael W. Deem and Ramdas Pophale) SiO2 
 PCOD9572959
Probable space group: I 41/A M D
;
_chemical_formula_sum "Si O2"
_cell_formula_units_Z 192
_cell_length_a 22.617131
_cell_length_b 22.617131
_cell_length_c 22.342626
_cell_angle_alpha 90.000000
_cell_angle_beta 90.000000
_cell_angle_gamma 90.000000
_cell_volume 11429.026582
_symmetry_space_group_name_H-M "I 41/A M D"
_symmetry_group_IT_number 141
_space_group.IT_coordinate_system_code '2'
_symmetry_cell_setting 'tetragonal'
loop_
_space_group_symop_operation_xyz
x,y,z
1/4-y,3/4+x,1/4+z
-x,1/2-y,z
1/4+y,1/4-x,3/4+z
x,-y,-z
-x,1/2+y,-z
1/4+y,3/4+x,1/4-z
1/4-y,1/4-x,3/4-z
-x,-y,-z
3/4+y,1/4-x,3/4-z
x,1/2+y,-z
3/4-y,3/4+x,1/4-z
-x,y,z
x,1/2-y,z
3/4-y,1/4-x,3/4+z
3/4+y,3/4+x,1/4+z
1/2+x,1/2+y,1/2+z
3/4-y,1/4+x,3/4+z
1/2-x,-y,1/2+z
3/4+y,3/4-x,1/4+z
1/2+x,1/2-y,1/2-z
1/2-x,y,1/2-z
3/4+y,1/4+x,3/4-z
3/4-y,3/4-x,1/4-z
1/2-x,1/2-y,1/2-z
1/4+y,3/4-x,1/4-z
1/2+x,y,1/2-z
1/4-y,1/4+x,3/4-z
1/2-x,1/2+y,1/2+z
1/2+x,-y,1/2+z
1/4-y,3/4-x,1/4+z
1/4+y,1/4+x,3/4+z
loop_
_atom_site_type_symbol
_atom_site_label
_atom_site_fract_x
_atom_site_fract_y
_atom_site_fract_z
Si Si1 0.929086 0.495918 0.191191
Si Si2 0.870038 0.639729 0.008783
Si Si3 0.500000 0.681695 0.056633
Si Si4 0.434220 0.457848 0.443053
Si Si5 0.121701 0.178692 0.501885
Si Si6 0.929974 0.320027 0.875000
Si Si7 0.569600 0.180401 0.125000
Si Si8 0.500000 0.818290 0.199090
O O1 0.898169 0.553104 0.219458
O O2 0.920877 0.489706 0.119586
O O3 0.908674 0.434166 0.221247
O O4 0.000000 0.502986 0.200888
O O5 0.910339 0.640543 0.068786
O O6 0.883696 0.586473 0.964235
O O7 0.895586 0.694973 0.972926
O O8 0.500000 0.750000 0.033819
O O9 0.562235 0.655551 0.034327
O O10 0.500000 0.683329 0.127773
O O11 0.439522 0.500000 0.500000
O O12 0.500000 0.428621 0.434883
O O13 0.122521 0.250000 0.510482
O O14 0.110592 0.167808 0.431791
O O15 0.920998 0.250000 0.887786
O O16 0.576506 0.250000 0.141783
O O17 0.500000 0.750000 0.221417
#
# Coordination Sequence:
#
# PCOD9572959 Si02
#       8
#    32  32  16  32  32  16  16  16
#     4  10  20  35  50  77 112 147 181 223 278 341
#     4  12  21  34  52  75 106 144 184 225 274 342
#     4   9  16  28  46  77 111 140 173 222 279 329
#     4  10  21  36  55  76 103 141 185 231 279 329
#     4   9  16  27  47  74 110 143 169 216 271 333
#     4  11  20  30  46  72 107 136 172 230 283 322
#     4   9  14  24  46  78 107 130 170 216 275 332
#     4  11  20  30  48  77 108 139 171 218 277 338
#
# _framework density 16.799330999999999
#
# number of rings (size 3 to 8) (size 9 to 14) (size 15 to 20)
#    0.000    1.833    2.500    3.500    0.000    4.000 
#    0.000    0.000    0.000    2.000    0.000    4.667 
#    0.000    0.000    0.000    0.000    0.000    0.000 
#
# Total GULP energy -534992.803517 kJ/mol
# GULP energy per Si atom -5572.841703 kJ/mol
# Density = 1.676109 g / cm^3
# Si number density = 16.799331 Si / 1000 Ang^3
#
#
#
# Elastic Constant Matrix: (Units=GPa)
#
#
# Indices 1 2 3 4 5 6 
#
# 1 82.9611 38.8892 41.2441 0.0000 0.0000 0.0000
# 2 38.8892 82.9622 41.2436 0.0000 0.0000 0.0000
# 3 41.2441 41.2436 82.4901 0.0000 0.0000 0.0000
# 4 0.0000 0.0000 0.0000 19.6726 0.0000 0.0000
# 5 0.0000 0.0000 0.0000 0.0000 19.6728 0.0000
# 6 0.0000 0.0000 0.0000 0.0000 0.0000 16.8657
#
#
#
# Elastic Compliance Matrix: (Units=1/GPa)
#
#
# Indices 1 2 3 4 5 6 
#
# 1 0.017548 -0.005142 -0.006203 0.000000 0.000000 0.000000
# 2 -0.005142 0.017548 -0.006202 0.000000 0.000000 0.000000
# 3 -0.006203 -0.006202 0.018325 0.000000 0.000000 0.000000
# 4 0.000000 0.000000 0.000000 0.050832 0.000000 0.000000
# 5 0.000000 0.000000 0.000000 0.000000 0.050832 0.000000
# 6 0.000000 0.000000 0.000000 0.000000 0.000000 0.059292
#
#
# Mechanical properties :
#
#
# Convention : Reuss Voigt Hill
#
# Bulk Modulus (GPa) = 54.56766 54.57413 54.57090
# Shear Modulus (GPa) = 19.56337 19.71134 19.63735
#
# Velocity S-wave (km/s) = 3.41623 3.42912 3.42268
# Velocity P-wave (km/s) = 6.93638 6.94514 6.94076
#
# Compressibility (1/GPa) = 0.01832587
#
# Stress axis : x y z
#
# Youngs Moduli (GPa) = 56.98652 56.98797 54.56986
#
# Poissons Ratio (x) = 0.29304 0.33849
# Poissons Ratio (y) = 0.29303 0.33847
# Poissons Ratio (z) = 0.35348 0.35347
#
# Static dielectric constant tensor:
#      x y z
#    x 1.546140 0.000000 0.000000 
#    y 0.000000 1.546140 0.000000 
#    z 0.000000 0.000000 1.577900 
# 
# From -- ./inp_files/10512.got.cif
#   From: 2010.05.17/outbox.cif.g08.bks.cpg/sg141_6_cif.got.tgz:10512.got - 2010.05.20 13:30:51.
