data_PCOD9572913
_publ_section_title
;
Structure prediction by ZEFSAII (Michael W. Deem and Ramdas Pophale) SiO2 
 PCOD9572913
Probable space group: I 41/A M D
;
_chemical_formula_sum "Si O2"
_cell_formula_units_Z 160
_cell_length_a 23.437557
_cell_length_b 23.437557
_cell_length_c 14.050707
_cell_angle_alpha 90.000000
_cell_angle_beta 90.000000
_cell_angle_gamma 90.000000
_cell_volume 7718.321416
_symmetry_space_group_name_H-M "I 41/A M D"
_symmetry_group_IT_number 141
_space_group.IT_coordinate_system_code '2'
_symmetry_cell_setting 'tetragonal'
loop_
_space_group_symop_operation_xyz
x,y,z
1/4-y,3/4+x,1/4+z
-x,1/2-y,z
1/4+y,1/4-x,3/4+z
x,-y,-z
-x,1/2+y,-z
1/4+y,3/4+x,1/4-z
1/4-y,1/4-x,3/4-z
-x,-y,-z
3/4+y,1/4-x,3/4-z
x,1/2+y,-z
3/4-y,3/4+x,1/4-z
-x,y,z
x,1/2-y,z
3/4-y,1/4-x,3/4+z
3/4+y,3/4+x,1/4+z
1/2+x,1/2+y,1/2+z
3/4-y,1/4+x,3/4+z
1/2-x,-y,1/2+z
3/4+y,3/4-x,1/4+z
1/2+x,1/2-y,1/2-z
1/2-x,y,1/2-z
3/4+y,1/4+x,3/4-z
3/4-y,3/4-x,1/4-z
1/2-x,1/2-y,1/2-z
1/4+y,3/4-x,1/4-z
1/2+x,y,1/2-z
1/4-y,1/4+x,3/4-z
1/2-x,1/2+y,1/2+z
1/2+x,-y,1/2+z
1/4-y,3/4-x,1/4+z
1/4+y,1/4+x,3/4+z
loop_
_atom_site_type_symbol
_atom_site_label
_atom_site_fract_x
_atom_site_fract_y
_atom_site_fract_z
Si Si1 0.262713 0.819216 0.894272
Si Si2 0.068176 0.619295 0.329603
Si Si3 0.627689 0.181478 0.211846
Si Si4 0.068706 0.486263 0.147971
Si Si5 0.068384 0.092811 0.966305
O O1 0.261550 0.750000 0.886472
O O2 0.196498 0.835704 0.901884
O O3 0.307505 0.838686 0.814408
O O4 0.284876 0.837511 0.998841
O O5 0.082567 0.645807 0.433347
O O6 0.098854 0.650282 0.242307
O O7 0.000000 0.620446 0.314737
O O8 0.630249 0.250000 0.210807
O O9 0.589803 0.160198 0.125000
O O10 0.080890 0.444445 0.061463
O O11 0.000000 0.490252 0.153059
O O12 0.087679 0.550043 0.117777
O O13 0.000000 0.101081 0.958290
#
# Coordination Sequence:
#
# PCOD9572913 Si02
#       5
#    32  32  32  32  32
#     4   9  17  31  49  69  94 126 168 208 241 286
#     4  10  20  31  46  72 103 134 165 201 251 310
#     4  10  20  33  50  73 100 130 164 205 253 305
#     4   8  15  29  50  71  91 123 169 214 247 283
#     4   9  17  30  48  73 101 129 167 210 252 299
#
# _framework density 20.729894000000002
#
# number of rings (size 3 to 8) (size 9 to 14) (size 15 to 20)
#    0.000    2.800    0.000    3.000    0.000    6.200 
#    0.000    2.000    0.000    0.000   20.800    5.600 
#    0.000    0.000    0.000    0.000    0.000    0.000 
#
# Total GULP energy -445647.999130 kJ/mol
# GULP energy per Si atom -5570.599989 kJ/mol
# Density = 2.068271 g / cm^3
# Si number density = 20.729894 Si / 1000 Ang^3
#
#
#
# Elastic Constant Matrix: (Units=GPa)
#
#
# Indices 1 2 3 4 5 6 
#
# 1 40.4487 11.9264 4.2288 0.0000 0.0000 0.0000
# 2 11.9264 40.4449 4.2305 0.0000 0.0000 0.0000
# 3 4.2288 4.2305 44.2581 0.0000 0.0000 0.0000
# 4 0.0000 0.0000 0.0000 30.2657 0.0000 0.0000
# 5 0.0000 0.0000 0.0000 0.0000 30.2659 0.0000
# 6 0.0000 0.0000 0.0000 0.0000 0.0000 -32.8568
#
#
#
# Elastic Compliance Matrix: (Units=1/GPa)
#
#
# Indices 1 2 3 4 5 6 
#
# 1 0.027226 -0.007835 -0.001853 0.000000 0.000000 0.000000
# 2 -0.007835 0.027229 -0.001854 0.000000 0.000000 0.000000
# 3 -0.001853 -0.001854 0.022949 0.000000 0.000000 0.000000
# 4 0.000000 0.000000 0.000000 0.033041 0.000000 0.000000
# 5 0.000000 0.000000 0.000000 0.000000 0.033040 0.000000
# 6 0.000000 0.000000 0.000000 0.000000 0.000000 -0.030435
#
#
# Mechanical properties :
#
#
# Convention : Reuss Voigt Hill
#
# Bulk Modulus (GPa) = 18.40884 18.43590 18.42237
# Shear Modulus (GPa) = 32.41681 12.51937 22.46809
#
# Velocity S-wave (km/s) = 3.95874 2.46016 3.29576
# Velocity P-wave (km/s) = 5.45849 4.12099 4.83620
#
# Compressibility (1/GPa) = 0.05432172
#
# Stress axis : x y z
#
# Youngs Moduli (GPa) = 36.72900 36.72515 43.57496
#
# Poissons Ratio (x) = 0.28773 0.08072
# Poissons Ratio (y) = 0.28776 0.08080
# Poissons Ratio (z) = 0.06804 0.06810
#
# Static dielectric constant tensor:
#      x y z
#    x 1.776910 0.000000 0.000000 
#    y 0.000000 1.776910 0.000000 
#    z 0.000000 0.000000 1.828400 
# 
# From -- ./inp_files/6605.got.cif
#   From: 2010.05.17/outbox.cif.g08.bks.cpg/sg141_4_cif.got.tgz:6605.got - 2010.05.20 13:30:51.
