data_PCOD9572513
_publ_section_title
;
Structure prediction by ZEFSAII (Michael W. Deem and Ramdas Pophale) SiO2 
 PCOD9572513
Probable space group: I 4/M C M
;
_chemical_formula_sum "Si O2"
_cell_formula_units_Z 160
_cell_length_a 26.638059
_cell_length_b 26.638059
_cell_length_c 11.868295
_cell_angle_alpha 90.000000
_cell_angle_beta 90.000000
_cell_angle_gamma 90.000000
_cell_volume 8421.578199
_symmetry_space_group_name_H-M "I 4/M C M"
_symmetry_group_IT_number 140
_symmetry_cell_setting 'tetragonal'
loop_
_space_group_symop_operation_xyz
x,y,z
-y,x,z
-x,-y,z
y,-x,z
x,-y,1/2-z
-x,y,1/2-z
y,x,1/2-z
-y,-x,1/2-z
-x,-y,-z
y,-x,-z
x,y,-z
-y,x,-z
-x,y,1/2+z
x,-y,1/2+z
-y,-x,1/2+z
y,x,1/2+z
1/2+x,1/2+y,1/2+z
1/2-y,1/2+x,1/2+z
1/2-x,1/2-y,1/2+z
1/2+y,1/2-x,1/2+z
1/2+x,1/2-y,-z
1/2-x,1/2+y,-z
1/2+y,1/2+x,-z
1/2-y,1/2-x,-z
1/2-x,1/2-y,1/2-z
1/2+y,1/2-x,1/2-z
1/2+x,1/2+y,1/2-z
1/2-y,1/2+x,1/2-z
1/2-x,1/2+y,z
1/2+x,1/2-y,z
1/2-y,1/2-x,z
1/2+y,1/2+x,z
loop_
_atom_site_type_symbol
_atom_site_label
_atom_site_fract_x
_atom_site_fract_y
_atom_site_fract_z
Si Si1 0.859922 0.445000 0.763810
Si Si2 0.756817 0.826483 0.000000
Si Si3 0.807870 0.877486 0.805774
Si Si4 0.672491 0.911927 0.000000
Si Si5 0.010837 0.825967 0.125991
Si Si6 0.760436 0.572524 0.871970
O O1 0.883202 0.500000 0.750000
O O2 0.901008 0.401008 0.756185
O O3 0.815809 0.438105 0.673289
O O4 0.832167 0.442440 0.885188
O O5 0.789973 0.834132 0.889568
O O6 0.719642 0.874917 0.000000
O O7 0.722610 0.777391 0.000000
O O8 0.859443 0.859443 0.750000
O O9 0.814431 0.930122 0.869636
O O10 0.766453 0.888293 0.710841
O O11 0.624438 0.875563 0.000000
O O12 0.000000 0.851177 0.250000
O O13 0.976861 0.775429 0.131097
O O14 0.999599 0.848315 0.000000
O O15 0.761588 0.590381 0.000000
#
# Coordination Sequence:
#
# PCOD9572513 Si02
#       6
#    32  16  32  16  32  32
#     4  11  23  39  59  82 108 141 183 235 294 357
#     4  11  22  38  56  72 105 156 203 238 281 347
#     4  11  22  35  58  83 113 150 192 238 289 340
#     4   9  20  38  59  77  98 139 193 229 267 345
#     4   9  18  35  57  85 113 147 186 235 287 341
#     4  10  22  37  59  88 116 146 188 238 291 345
#
# _framework density 18.998815
#
# number of rings (size 3 to 8) (size 9 to 14) (size 15 to 20)
#    0.000    1.800    3.000    1.800    2.800    1.000 
#    0.000    0.000    0.000    1.800    0.000    0.000 
#    0.000   32.400    0.000   95.400    0.000    2.400 
#
# Total GULP energy -446004.108322 kJ/mol
# GULP energy per Si atom -5575.051354 kJ/mol
# Density = 1.895557 g / cm^3
# Si number density = 18.998815 Si / 1000 Ang^3
#
#
#
# Elastic Constant Matrix: (Units=GPa)
#
#
# Indices 1 2 3 4 5 6 
#
# 1 36.4525 19.1364 10.4433 0.0000 0.0000 0.0000
# 2 19.1364 36.4522 10.4436 0.0000 0.0000 0.0000
# 3 10.4433 10.4436 141.0161 0.0000 0.0000 0.0000
# 4 0.0000 0.0000 0.0000 3.6124 0.0000 0.0000
# 5 0.0000 0.0000 0.0000 0.0000 3.6090 0.0000
# 6 0.0000 0.0000 0.0000 0.0000 0.0000 17.9480
#
#
#
# Elastic Compliance Matrix: (Units=1/GPa)
#
#
# Indices 1 2 3 4 5 6 
#
# 1 0.038127 -0.019623 -0.001370 0.000000 0.000000 0.000000
# 2 -0.019623 0.038127 -0.001370 0.000000 0.000000 0.000000
# 3 -0.001370 -0.001370 0.007294 0.000000 0.000000 0.000000
# 4 0.000000 0.000000 0.000000 0.276822 0.000000 0.000000
# 5 0.000000 0.000000 0.000000 0.000000 0.277084 0.000000
# 6 0.000000 0.000000 0.000000 0.000000 0.000000 0.055716
#
#
# Mechanical properties :
#
#
# Convention : Reuss Voigt Hill
#
# Bulk Modulus (GPa) = 25.75915 32.66304 29.21110
# Shear Modulus (GPa) = 6.65921 16.62706 11.64314
#
# Velocity S-wave (km/s) = 1.87421 2.96152 2.47824
# Velocity P-wave (km/s) = 4.27449 5.37807 4.85772
#
# Compressibility (1/GPa) = 0.03882116
#
# Stress axis : x y z
#
# Youngs Moduli (GPa) = 26.22809 26.22783 137.09212
#
# Poissons Ratio (x) = 0.51467 0.18786
# Poissons Ratio (y) = 0.51468 0.18788
# Poissons Ratio (z) = 0.03594 0.03594
#
# Static dielectric constant tensor:
#      x y z
#    x 1.640590 0.000000 0.000000 
#    y 0.000000 1.640590 0.000000 
#    z 0.000000 0.000000 1.735090 
# 
# From -- ./inp_files/3183.got.cif
#   From: 2010.05.17/outbox.cif.g08.bks.cpg/sg140_2_cif.got.tgz:3183.got - 2010.06.21 00:45:31.
