data_PCOD9572967
_publ_section_title
;
Structure prediction by ZEFSAII (Michael W. Deem and Ramdas Pophale) SiO2 
 PCOD9572967
Probable space group: I 41/A M D
;
_chemical_formula_sum "Si O2"
_cell_formula_units_Z 160
_cell_length_a 18.564830
_cell_length_b 18.564830
_cell_length_c 24.700170
_cell_angle_alpha 90.000000
_cell_angle_beta 90.000000
_cell_angle_gamma 90.000000
_cell_volume 8512.985540
_symmetry_space_group_name_H-M "I 41/A M D"
_symmetry_group_IT_number 141
_space_group.IT_coordinate_system_code '2'
_symmetry_cell_setting 'tetragonal'
loop_
_space_group_symop_operation_xyz
x,y,z
1/4-y,3/4+x,1/4+z
-x,1/2-y,z
1/4+y,1/4-x,3/4+z
x,-y,-z
-x,1/2+y,-z
1/4+y,3/4+x,1/4-z
1/4-y,1/4-x,3/4-z
-x,-y,-z
3/4+y,1/4-x,3/4-z
x,1/2+y,-z
3/4-y,3/4+x,1/4-z
-x,y,z
x,1/2-y,z
3/4-y,1/4-x,3/4+z
3/4+y,3/4+x,1/4+z
1/2+x,1/2+y,1/2+z
3/4-y,1/4+x,3/4+z
1/2-x,-y,1/2+z
3/4+y,3/4-x,1/4+z
1/2+x,1/2-y,1/2-z
1/2-x,y,1/2-z
3/4+y,1/4+x,3/4-z
3/4-y,3/4-x,1/4-z
1/2-x,1/2-y,1/2-z
1/4+y,3/4-x,1/4-z
1/2+x,y,1/2-z
1/4-y,1/4+x,3/4-z
1/2-x,1/2+y,1/2+z
1/2+x,-y,1/2+z
1/4-y,3/4-x,1/4+z
1/4+y,1/4+x,3/4+z
loop_
_atom_site_type_symbol
_atom_site_label
_atom_site_fract_x
_atom_site_fract_y
_atom_site_fract_z
Si Si1 0.159182 0.018263 0.651362
Si Si2 0.421030 0.547492 0.554472
Si Si3 0.294039 0.336707 0.996679
Si Si4 0.083769 0.563315 0.456572
Si Si5 0.687253 0.829613 0.403257
O O1 0.166060 0.094418 0.683161
O O2 0.106711 0.032820 0.601421
O O3 0.231811 0.981811 0.625000
O O4 0.123912 0.965540 0.695276
O O5 0.414951 0.500000 0.500000
O O6 0.500000 0.586392 0.550238
O O7 0.426849 0.497712 0.607323
O O8 0.295324 0.250000 0.999839
O O9 0.365423 0.369335 0.969953
O O10 0.227532 0.357677 0.956801
O O11 0.097362 0.500000 0.500000
O O12 0.000000 0.582291 0.458184
O O13 0.658313 0.750000 0.415774
O O14 0.628332 0.878332 0.375000
#
# Coordination Sequence:
#
# PCOD9572967 Si02
#       5
#    32  32  32  32  32
#     4  12  23  37  66  95 125 165 212 265 314 368
#     4  10  21  34  55  89 126 159 204 257 307 364
#     4  11  24  42  63  92 126 163 206 259 317 375
#     4  11  24  42  63  91 124 162 207 258 314 377
#     4  10  20  35  56  84 120 161 204 249 302 370
#
# _framework density 18.794816999999998
#
# number of rings (size 3 to 8) (size 9 to 14) (size 15 to 20)
#    0.000    1.200    4.000    2.400    2.800    0.600 
#    0.000    0.000    0.000    3.000    0.000    0.000 
#    0.000    0.000    0.000    0.000    0.000    0.000 
#
# Total GULP energy -445980.636877 kJ/mol
# GULP energy per Si atom -5574.757961 kJ/mol
# Density = 1.875204 g / cm^3
# Si number density = 18.794817 Si / 1000 Ang^3
#
#
#
# Elastic Constant Matrix: (Units=GPa)
#
#
# Indices 1 2 3 4 5 6 
#
# 1 77.9386 48.4942 27.7651 0.0000 0.0000 0.0000
# 2 48.4942 77.9386 27.7651 0.0000 0.0000 0.0000
# 3 27.7651 27.7651 130.1659 0.0000 0.0000 0.0000
# 4 0.0000 0.0000 0.0000 24.3216 0.0000 0.0000
# 5 0.0000 0.0000 0.0000 0.0000 24.3216 0.0000
# 6 0.0000 0.0000 0.0000 0.0000 0.0000 18.8888
#
#
#
# Elastic Compliance Matrix: (Units=1/GPa)
#
#
# Indices 1 2 3 4 5 6 
#
# 1 0.021345 -0.012618 -0.001862 0.000000 0.000000 0.000000
# 2 -0.012618 0.021345 -0.001862 0.000000 0.000000 0.000000
# 3 -0.001862 -0.001862 0.008477 0.000000 0.000000 0.000000
# 4 0.000000 0.000000 0.000000 0.041116 0.000000 0.000000
# 5 0.000000 0.000000 0.000000 0.000000 0.041116 0.000000
# 6 0.000000 0.000000 0.000000 0.000000 0.000000 0.052941
#
#
# Mechanical properties :
#
#
# Convention : Reuss Voigt Hill
#
# Bulk Modulus (GPa) = 54.09943 54.89910 54.49926
# Shear Modulus (GPa) = 22.20430 25.64097 23.92263
#
# Velocity S-wave (km/s) = 3.44089 3.69759 3.57155
# Velocity P-wave (km/s) = 6.68079 6.89222 6.78733
#
# Compressibility (1/GPa) = 0.01848448
#
# Stress axis : x y z
#
# Youngs Moduli (GPa) = 46.85022 46.85022 117.97123
#
# Poissons Ratio (x) = 0.59114 0.21960
# Poissons Ratio (y) = 0.59114 0.21960
# Poissons Ratio (z) = 0.08721 0.08721
#
# Static dielectric constant tensor:
#      x y z
#    x 1.694270 0.000000 0.000000 
#    y 0.000000 1.694270 0.000000 
#    z 0.000000 0.000000 1.640600 
# 
# From -- ./inp_files/12674.got.cif
#   From: 2010.05.17/outbox.cif.g08.bks.cpg/sg141_7_cif.got.tgz:12674.got - 2010.05.20 13:30:51.
