data_PCOD9572094
_publ_section_title
;
Structure prediction by ZEFSAII (Michael W. Deem and Ramdas Pophale) SiO2 
 PCOD9572094
Probable space group: I 4/M C M
;
_chemical_formula_sum "Si O2"
_cell_formula_units_Z 96
_cell_length_a 22.325005
_cell_length_b 22.325005
_cell_length_c 9.559640
_cell_angle_alpha 90.000000
_cell_angle_beta 90.000000
_cell_angle_gamma 90.000000
_cell_volume 4764.580483
_symmetry_space_group_name_H-M "I 4/M C M"
_symmetry_group_IT_number 140
_symmetry_cell_setting 'tetragonal'
loop_
_space_group_symop_operation_xyz
x,y,z
-y,x,z
-x,-y,z
y,-x,z
x,-y,1/2-z
-x,y,1/2-z
y,x,1/2-z
-y,-x,1/2-z
-x,-y,-z
y,-x,-z
x,y,-z
-y,x,-z
-x,y,1/2+z
x,-y,1/2+z
-y,-x,1/2+z
y,x,1/2+z
1/2+x,1/2+y,1/2+z
1/2-y,1/2+x,1/2+z
1/2-x,1/2-y,1/2+z
1/2+y,1/2-x,1/2+z
1/2+x,1/2-y,-z
1/2-x,1/2+y,-z
1/2+y,1/2+x,-z
1/2-y,1/2-x,-z
1/2-x,1/2-y,1/2-z
1/2+y,1/2-x,1/2-z
1/2+x,1/2+y,1/2-z
1/2-y,1/2+x,1/2-z
1/2-x,1/2+y,z
1/2+x,1/2-y,z
1/2-y,1/2-x,z
1/2+y,1/2+x,z
loop_
_atom_site_type_symbol
_atom_site_label
_atom_site_fract_x
_atom_site_fract_y
_atom_site_fract_z
Si Si1 0.770014 0.150232 0.341202
Si Si2 0.550629 0.371866 0.657506
Si Si3 0.338779 0.936891 0.331873
O O1 0.795143 0.204858 0.250000
O O2 0.756981 0.168626 0.500000
O O3 0.825616 0.104628 0.350228
O O4 0.713772 0.110439 0.289676
O O5 0.500000 0.341168 0.750000
O O6 0.572216 0.427785 0.750000
O O7 0.531524 0.386896 0.500000
O O8 0.331548 0.946981 0.500000
O O9 0.401328 0.901328 0.309751
O O10 0.335602 0.000000 0.250000
#
# Coordination Sequence:
#
# PCOD9572094 Si02
#       3
#    32  32  32
#     4   9  19  35  56  83 114 147 184 231 286 344
#     4  10  19  31  47  68  96 132 175 222 274 331
#     4  10  22  40  61  87 120 157 199 247 297 350
#
# _framework density 20.148678
#
# number of rings (size 3 to 8) (size 9 to 14) (size 15 to 20)
#    0.000    2.333    0.000    2.000    0.000    4.667 
#    0.000    3.333    0.000    0.000    0.000    0.000 
#    0.000    0.000    0.000    0.000    0.000    0.000 
#
# Total GULP energy -267536.288880 kJ/mol
# GULP energy per Si atom -5573.672685 kJ/mol
# Density = 2.010282 g / cm^3
# Si number density = 20.148678 Si / 1000 Ang^3
#
#
#
# Elastic Constant Matrix: (Units=GPa)
#
#
# Indices 1 2 3 4 5 6 
#
# 1 44.5970 129.2384 68.4873 0.0000 0.0000 0.0000
# 2 129.2384 44.5862 68.4847 0.0000 0.0000 0.0000
# 3 68.4873 68.4847 125.9575 0.0000 0.0000 0.0000
# 4 0.0000 0.0000 0.0000-1194.2660 0.0000 0.0000
# 5 0.0000 0.0000 0.0000 0.0000-1194.4994 0.0000
# 6 0.0000 0.0000 0.0000 0.0000 0.0000 23.4553
#
#
#
# Elastic Compliance Matrix: (Units=1/GPa)
#
#
# Indices 1 2 3 4 5 6 
#
# 1 -0.000874 0.010939 -0.005473 0.000000 0.000000 0.000000
# 2 0.010939 -0.000875 -0.005472 0.000000 0.000000 0.000000
# 3 -0.005473 -0.005472 0.013890 0.000000 0.000000 0.000000
# 4 0.000000 0.000000 0.000000 -0.000837 0.000000 0.000000
# 5 0.000000 0.000000 0.000000 0.000000 -0.000837 0.000000
# 6 0.000000 0.000000 0.000000 0.000000 0.000000 0.042634
#
#
# Mechanical properties :
#
#
# Convention : Reuss Voigt Hill
#
# Bulk Modulus (GPa) = 82.44038 83.06241 82.75139
# Shear Modulus (GPa) = 87.48009 -476.46666 -194.49329
#
# Velocity S-wave (km/s) = 6.59633 -15.39444 -9.83558
# Velocity P-wave (km/s) = 9.95089 16.57319 9.37151
#
# Compressibility (1/GPa) = 0.01212998
#
# Stress axis : x y z
#
# Youngs Moduli (GPa) = -1144.19867 -1142.95866 71.99292
#
# Poissons Ratio (x) = 12.50322 0.39399
# Poissons Ratio (y) = 12.51678 0.39397
# Poissons Ratio (z) = -6.26180 -6.25471
#
# Static dielectric constant tensor:
#      x y z
#    x 1.763820 0.000000 0.000000 
#    y 0.000000 1.763830 0.000000 
#    z 0.000000 0.000000 1.741220 
# 
# From -- ./inp_files/918.got.cif
#   From: 2010.05.17/outbox.cif.g08.bks.cpg/sg140_1_cif.got.tgz:918.got - 2010.06.21 00:45:31.
