data_PCOD9572560
_publ_section_title
;
Structure prediction by ZEFSAII (Michael W. Deem and Ramdas Pophale) SiO2 
 PCOD9572560
Probable space group: I 4/M C M
;
_chemical_formula_sum "Si O2"
_cell_formula_units_Z 80
_cell_length_a 14.321230
_cell_length_b 14.321230
_cell_length_c 16.035452
_cell_angle_alpha 90.000000
_cell_angle_beta 90.000000
_cell_angle_gamma 90.000000
_cell_volume 3288.833181
_symmetry_space_group_name_H-M "I 4/M C M"
_symmetry_group_IT_number 140
_symmetry_cell_setting 'tetragonal'
loop_
_space_group_symop_operation_xyz
x,y,z
-y,x,z
-x,-y,z
y,-x,z
x,-y,1/2-z
-x,y,1/2-z
y,x,1/2-z
-y,-x,1/2-z
-x,-y,-z
y,-x,-z
x,y,-z
-y,x,-z
-x,y,1/2+z
x,-y,1/2+z
-y,-x,1/2+z
y,x,1/2+z
1/2+x,1/2+y,1/2+z
1/2-y,1/2+x,1/2+z
1/2-x,1/2-y,1/2+z
1/2+y,1/2-x,1/2+z
1/2+x,1/2-y,-z
1/2-x,1/2+y,-z
1/2+y,1/2+x,-z
1/2-y,1/2-x,-z
1/2-x,1/2-y,1/2-z
1/2+y,1/2-x,1/2-z
1/2+x,1/2+y,1/2-z
1/2-y,1/2+x,1/2-z
1/2-x,1/2+y,z
1/2+x,1/2-y,z
1/2-y,1/2-x,z
1/2+y,1/2+x,z
loop_
_atom_site_type_symbol
_atom_site_label
_atom_site_fract_x
_atom_site_fract_y
_atom_site_fract_z
Si Si1 0.701275 0.640821 0.337966
Si Si2 0.003227 0.353748 0.850210
Si Si3 0.124905 0.094589 0.500000
O O1 0.645966 0.645966 0.250000
O O2 0.785225 0.714776 0.329531
O O3 0.752344 0.542831 0.359739
O O4 0.638161 0.667083 0.416333
O O5 0.927785 0.427785 0.885814
O O6 0.000000 0.362627 0.750000
O O7 0.105095 0.394906 0.875403
O O8 0.016145 0.123575 0.500000
#
# Coordination Sequence:
#
# PCOD9572560 Si02
#       3
#    32  32  16
#     4  10  22  41  69 100 130 168 215 274 338 398
#     4   8  15  30  56  93 131 162 199 252 316 391
#     4  11  27  46  62  85 127 177 224 273 318 391
#
# _framework density 24.324738
#
# number of rings (size 3 to 8) (size 9 to 14) (size 15 to 20)
#    0.000    2.600    0.000    1.800    5.600    0.000 
#    0.000    5.000    0.000    4.800    0.000    0.000 
#    0.000    9.600    0.000    0.000    0.000    0.000 
#
# Total GULP energy -223012.691095 kJ/mol
# GULP energy per Si atom -5575.317277 kJ/mol
# Density = 2.426937 g / cm^3
# Si number density = 24.324738 Si / 1000 Ang^3
#
#
#
# Elastic Constant Matrix: (Units=GPa)
#
#
# Indices 1 2 3 4 5 6 
#
# 1 73.9135 80.8376 36.5035 0.0000 0.0000 0.0000
# 2 80.8376 73.9135 36.5035 0.0000 0.0000 0.0000
# 3 36.5035 36.5035 123.5034 0.0000 0.0000 0.0000
# 4 0.0000 0.0000 0.0000 22.0867 0.0000 0.0000
# 5 0.0000 0.0000 0.0000 0.0000 22.0867 0.0000
# 6 0.0000 0.0000 0.0000 0.0000 0.0000 41.9204
#
#
#
# Elastic Compliance Matrix: (Units=1/GPa)
#
#
# Indices 1 2 3 4 5 6 
#
# 1 -0.068457 0.075966 -0.002219 0.000000 0.000000 0.000000
# 2 0.075966 -0.068457 -0.002219 0.000000 0.000000 0.000000
# 3 -0.002219 -0.002219 0.009409 0.000000 0.000000 0.000000
# 4 0.000000 0.000000 0.000000 0.045276 0.000000 0.000000
# 5 0.000000 0.000000 0.000000 0.000000 0.045276 0.000000
# 6 0.000000 0.000000 0.000000 0.000000 0.000000 0.023855
#
#
# Mechanical properties :
#
#
# Convention : Reuss Voigt Hill
#
# Bulk Modulus (GPa) = 64.31153 64.33553 64.32353
# Shear Modulus (GPa) = -33.11927 25.05113 -4.03407
#
# Velocity S-wave (km/s) = -3.69392 3.21263 -1.28919
# Velocity P-wave (km/s) = 2.88145 6.34565 4.92799
#
# Compressibility (1/GPa) = 0.01554931
#
# Stress axis : x y z
#
# Youngs Moduli (GPa) = -14.60770 -14.60770 106.28208
#
# Poissons Ratio (x) = 1.10969 0.23589
# Poissons Ratio (y) = 1.10969 0.23589
# Poissons Ratio (z) = -0.03242 -0.03242
#
# Static dielectric constant tensor:
#      x y z
#    x 2.007980 0.000000 0.000000 
#    y 0.000000 2.007980 0.000000 
#    z 0.000000 0.000000 1.906410 
# 
# From -- ./inp_files/3828.got.cif
#   From: 2010.05.17/outbox.cif.g08.bks.cpg/sg140_2_cif.got.tgz:3828.got - 2010.06.21 00:45:31.
