data_PCOD9572690
_publ_section_title
;
Structure prediction by ZEFSAII (Michael W. Deem and Ramdas Pophale) SiO2 
 PCOD9572690
Probable space group: I 4/M C M
;
_chemical_formula_sum "Si O2"
_cell_formula_units_Z 168
_cell_length_a 24.252198
_cell_length_b 24.252198
_cell_length_c 18.084190
_cell_angle_alpha 90.000000
_cell_angle_beta 90.000000
_cell_angle_gamma 90.000000
_cell_volume 10636.561898
_symmetry_space_group_name_H-M "I 4/M C M"
_symmetry_group_IT_number 140
_symmetry_cell_setting 'tetragonal'
loop_
_space_group_symop_operation_xyz
x,y,z
-y,x,z
-x,-y,z
y,-x,z
x,-y,1/2-z
-x,y,1/2-z
y,x,1/2-z
-y,-x,1/2-z
-x,-y,-z
y,-x,-z
x,y,-z
-y,x,-z
-x,y,1/2+z
x,-y,1/2+z
-y,-x,1/2+z
y,x,1/2+z
1/2+x,1/2+y,1/2+z
1/2-y,1/2+x,1/2+z
1/2-x,1/2-y,1/2+z
1/2+y,1/2-x,1/2+z
1/2+x,1/2-y,-z
1/2-x,1/2+y,-z
1/2+y,1/2+x,-z
1/2-y,1/2-x,-z
1/2-x,1/2-y,1/2-z
1/2+y,1/2-x,1/2-z
1/2+x,1/2+y,1/2-z
1/2-y,1/2+x,1/2-z
1/2-x,1/2+y,z
1/2+x,1/2-y,z
1/2-y,1/2-x,z
1/2+y,1/2+x,z
loop_
_atom_site_type_symbol
_atom_site_label
_atom_site_fract_x
_atom_site_fract_y
_atom_site_fract_z
Si Si1 0.262371 0.851697 0.686360
Si Si2 0.427994 0.591642 0.332409
Si Si3 0.000000 0.000000 0.389138
Si Si4 0.815224 0.931545 0.583840
Si Si5 0.825950 0.237113 0.641862
Si Si6 0.782756 0.967111 0.173631
O O1 0.319859 0.819859 0.673634
O O2 0.215283 0.815292 0.645902
O O3 0.248330 0.845816 0.773793
O O4 0.258044 0.915508 0.665116
O O5 0.433475 0.566526 0.250000
O O6 0.473110 0.562139 0.383298
O O7 0.367045 0.580482 0.362534
O O8 0.440207 0.656132 0.324832
O O9 0.834754 0.936529 0.500000
O O10 0.776075 0.878763 0.593411
O O11 0.785009 0.986876 0.610302
O O12 0.789028 0.289028 0.618417
O O13 0.773471 0.000000 0.250000
#
# Coordination Sequence:
#
# PCOD9572690 Si02
#       6
#    32  32   8  32  32  32
#     4   9  17  31  56  81  97 125 177 227 264 311
#     4  12  20  34  51  68  92 133 183 221 250 296
#     4  12  21  32  49  66  85 128 181 218 245 280
#     4  12  25  35  48  75 106 135 172 220 263 304
#     4   9  17  33  55  76  99 129 167 215 267 315
#     4  12  20  33  56  72 100 139 179 215 262 312
#
# _framework density 15.794577
#
# number of rings (size 3 to 8) (size 9 to 14) (size 15 to 20)
#    0.000    1.143    7.619    2.000    0.000    1.143 
#    0.000    0.476    0.000    0.571    0.000    0.000 
#    0.000    2.667    0.000    1.714    0.000    0.000 
#
# Total GULP energy -467854.255459 kJ/mol
# GULP energy per Si atom -5569.693517 kJ/mol
# Density = 1.575863 g / cm^3
# Si number density = 15.794577 Si / 1000 Ang^3
#
#
#
# Elastic Constant Matrix: (Units=GPa)
#
#
# Indices 1 2 3 4 5 6 
#
# 1 84.0240 49.9249 17.1065 0.0000 0.0000 0.0000
# 2 49.9249 84.0249 17.1071 0.0000 0.0000 0.0000
# 3 17.1065 17.1071 40.1854 0.0000 0.0000 0.0000
# 4 0.0000 0.0000 0.0000 0.6417 0.0000 0.0000
# 5 0.0000 0.0000 0.0000 0.0000 0.6414 0.0000
# 6 0.0000 0.0000 0.0000 0.0000 0.0000 31.9341
#
#
#
# Elastic Compliance Matrix: (Units=1/GPa)
#
#
# Indices 1 2 3 4 5 6 
#
# 1 0.018851 -0.010475 -0.003566 0.000000 0.000000 0.000000
# 2 -0.010475 0.018851 -0.003566 0.000000 0.000000 0.000000
# 3 -0.003566 -0.003566 0.027921 0.000000 0.000000 0.000000
# 4 0.000000 0.000000 0.000000 1.558427 0.000000 0.000000
# 5 0.000000 0.000000 0.000000 0.000000 1.559064 0.000000
# 6 0.000000 0.000000 0.000000 0.000000 0.000000 0.031315
#
#
# Mechanical properties :
#
#
# Convention : Reuss Voigt Hill
#
# Bulk Modulus (GPa) = 32.88386 41.83460 37.35923
# Shear Modulus (GPa) = 1.53385 14.91648 8.22516
#
# Velocity S-wave (km/s) = 0.98652 3.07645 2.28449
# Velocity P-wave (km/s) = 4.70771 6.25808 5.53742
#
# Compressibility (1/GPa) = 0.03041005
#
# Stress axis : x y z
#
# Youngs Moduli (GPa) = 53.04714 53.04740 35.81596
#
# Poissons Ratio (x) = 0.55566 0.12770
# Poissons Ratio (y) = 0.55566 0.12772
# Poissons Ratio (z) = 0.18914 0.18916
#
# Static dielectric constant tensor:
#      x y z
#    x 1.538890 0.000000 0.000000 
#    y 0.000000 1.538890 0.000000 
#    z 0.000000 0.000000 1.565590 
# 
# From -- ./inp_files/8597.got.cif
#   From: 2010.05.17/outbox.cif.g08.bks.cpg/sg140_5_cif.got.tgz:8597.got - 2010.06.21 00:45:31.
