data_PCOD9572740
_publ_section_title
;
Structure prediction by ZEFSAII (Michael W. Deem and Ramdas Pophale) SiO2 
 PCOD9572740
Probable space group: I 41/A M D
;
_chemical_formula_sum "Si O2"
_cell_formula_units_Z 120
_cell_length_a 18.110748
_cell_length_b 18.110748
_cell_length_c 18.399191
_cell_angle_alpha 90.000000
_cell_angle_beta 90.000000
_cell_angle_gamma 90.000000
_cell_volume 6034.919802
_symmetry_space_group_name_H-M "I 41/A M D"
_symmetry_group_IT_number 141
_space_group.IT_coordinate_system_code '2'
_symmetry_cell_setting 'tetragonal'
loop_
_space_group_symop_operation_xyz
x,y,z
1/4-y,3/4+x,1/4+z
-x,1/2-y,z
1/4+y,1/4-x,3/4+z
x,-y,-z
-x,1/2+y,-z
1/4+y,3/4+x,1/4-z
1/4-y,1/4-x,3/4-z
-x,-y,-z
3/4+y,1/4-x,3/4-z
x,1/2+y,-z
3/4-y,3/4+x,1/4-z
-x,y,z
x,1/2-y,z
3/4-y,1/4-x,3/4+z
3/4+y,3/4+x,1/4+z
1/2+x,1/2+y,1/2+z
3/4-y,1/4+x,3/4+z
1/2-x,-y,1/2+z
3/4+y,3/4-x,1/4+z
1/2+x,1/2-y,1/2-z
1/2-x,y,1/2-z
3/4+y,1/4+x,3/4-z
3/4-y,3/4-x,1/4-z
1/2-x,1/2-y,1/2-z
1/4+y,3/4-x,1/4-z
1/2+x,y,1/2-z
1/4-y,1/4+x,3/4-z
1/2-x,1/2+y,1/2+z
1/2+x,-y,1/2+z
1/4-y,3/4-x,1/4+z
1/4+y,1/4+x,3/4+z
loop_
_atom_site_type_symbol
_atom_site_label
_atom_site_fract_x
_atom_site_fract_y
_atom_site_fract_z
Si Si1 0.000000 0.368515 0.961049
Si Si2 0.332643 0.916795 0.119978
Si Si3 0.000000 0.250000 0.613381
Si Si4 0.750000 0.986939 0.250000
Si Si5 0.000000 0.584803 0.345007
Si Si6 0.000000 0.910898 0.870026
Si Si7 0.130452 0.250000 0.944165
O O1 0.073950 0.318966 0.952334
O O2 0.000000 0.415341 0.886445
O O3 0.000000 0.400896 0.041421
O O4 0.421224 0.932422 0.118512
O O5 0.312284 0.831821 0.104673
O O6 0.304747 0.937686 0.200943
O O7 0.289111 0.961603 0.059210
O O8 0.000000 0.325517 0.658112
O O9 0.080154 0.250000 0.578434
O O10 0.000000 0.562595 0.260452
#
# Coordination Sequence:
#
# PCOD9572740 Si02
#       7
#    16  32   8  16  16  16  16
#     4   9  13  21  40  77 126 149 166 225 303 331
#     4  10  22  40  65  80 122 148 207 229 308 336
#     4   8  12  24  45  84 116 123 174 250 304 286
#     4  10  24  46  52  80 124 176 168 242 298 378
#     4  10  16  32  59  87 100 151 201 258 262 348
#     4  10  16  32  59  89 107 150 194 252 267 355
#     4   9  13  21  40  77 125 149 168 227 301 329
#
# _framework density 19.884276
#
# number of rings (size 3 to 8) (size 9 to 14) (size 15 to 20)
#    0.000    2.400    5.333    0.800    0.000    2.133 
#    9.600    0.000    0.000    0.000    0.000    0.000 
#    0.000   19.200    0.000    0.000    0.000    0.000 
#
# Total GULP energy -334007.244863 kJ/mol
# GULP energy per Si atom -5566.787414 kJ/mol
# Density = 1.983902 g / cm^3
# Si number density = 19.884276 Si / 1000 Ang^3
#
#
#
# Elastic Constant Matrix: (Units=GPa)
#
#
# Indices 1 2 3 4 5 6 
#
# 1 81.7802 31.6878 15.1297 0.0000 0.0000 0.0000
# 2 31.6878 81.7802 15.1297 0.0000 0.0000 0.0000
# 3 15.1297 15.1297 47.1670 0.0000 0.0000 0.0000
# 4 0.0000 0.0000 0.0000 17.3772 0.0000 0.0000
# 5 0.0000 0.0000 0.0000 0.0000 17.3772 0.0000
# 6 0.0000 0.0000 0.0000 0.0000 0.0000 26.4919
#
#
#
# Elastic Compliance Matrix: (Units=1/GPa)
#
#
# Indices 1 2 3 4 5 6 
#
# 1 0.014800 -0.005163 -0.003091 0.000000 0.000000 0.000000
# 2 -0.005163 0.014800 -0.003091 0.000000 0.000000 0.000000
# 3 -0.003091 -0.003091 0.023185 0.000000 0.000000 0.000000
# 4 0.000000 0.000000 0.000000 0.057547 0.000000 0.000000
# 5 0.000000 0.000000 0.000000 0.000000 0.057547 0.000000
# 6 0.000000 0.000000 0.000000 0.000000 0.000000 0.037747
#
#
# Mechanical properties :
#
#
# Convention : Reuss Voigt Hill
#
# Bulk Modulus (GPa) = 33.22937 37.18020 35.20479
# Shear Modulus (GPa) = 20.97772 22.16796 21.57284
#
# Velocity S-wave (km/s) = 3.25159 3.34256 3.29738
# Velocity P-wave (km/s) = 5.55380 5.79964 5.67805
#
# Compressibility (1/GPa) = 0.03009386
#
# Stress axis : x y z
#
# Youngs Moduli (GPa) = 67.56625 67.56625 43.13222
#
# Poissons Ratio (x) = 0.34883 0.13334
# Poissons Ratio (y) = 0.34883 0.13334
# Poissons Ratio (z) = 0.20887 0.20887
#
# Static dielectric constant tensor:
#      x y z
#    x 1.750870 0.000000 0.000000 
#    y 0.000000 1.750870 0.000000 
#    z 0.000000 0.000000 1.710550 
# 
# From -- ./inp_files/10078.got.cif
#   From: 2010.05.17/outbox.cif.g08.bks.cpg/sg141_6_cif.got.tgz:10078.got - 2010.05.20 13:30:51.
