data_PCOD9572909
_publ_section_title
;
Structure prediction by ZEFSAII (Michael W. Deem and Ramdas Pophale) SiO2 
 PCOD9572909
Probable space group: I 41/A M D
;
_chemical_formula_sum "Si O2"
_cell_formula_units_Z 192
_cell_length_a 19.249089
_cell_length_b 19.249089
_cell_length_c 25.247515
_cell_angle_alpha 90.000000
_cell_angle_beta 90.000000
_cell_angle_gamma 90.000000
_cell_volume 9354.896779
_symmetry_space_group_name_H-M "I 41/A M D"
_symmetry_group_IT_number 141
_space_group.IT_coordinate_system_code '2'
_symmetry_cell_setting 'tetragonal'
loop_
_space_group_symop_operation_xyz
x,y,z
1/4-y,3/4+x,1/4+z
-x,1/2-y,z
1/4+y,1/4-x,3/4+z
x,-y,-z
-x,1/2+y,-z
1/4+y,3/4+x,1/4-z
1/4-y,1/4-x,3/4-z
-x,-y,-z
3/4+y,1/4-x,3/4-z
x,1/2+y,-z
3/4-y,3/4+x,1/4-z
-x,y,z
x,1/2-y,z
3/4-y,1/4-x,3/4+z
3/4+y,3/4+x,1/4+z
1/2+x,1/2+y,1/2+z
3/4-y,1/4+x,3/4+z
1/2-x,-y,1/2+z
3/4+y,3/4-x,1/4+z
1/2+x,1/2-y,1/2-z
1/2-x,y,1/2-z
3/4+y,1/4+x,3/4-z
3/4-y,3/4-x,1/4-z
1/2-x,1/2-y,1/2-z
1/4+y,3/4-x,1/4-z
1/2+x,y,1/2-z
1/4-y,1/4+x,3/4-z
1/2-x,1/2+y,1/2+z
1/2+x,-y,1/2+z
1/4-y,3/4-x,1/4+z
1/4+y,1/4+x,3/4+z
loop_
_atom_site_type_symbol
_atom_site_label
_atom_site_fract_x
_atom_site_fract_y
_atom_site_fract_z
Si Si1 0.879743 0.129743 0.875000
Si Si2 0.719800 0.667298 0.115753
Si Si3 0.788820 0.106758 0.090980
Si Si4 0.791177 0.588279 0.697488
Si Si5 0.080821 0.111854 0.238689
Si Si6 0.000000 0.669095 0.206520
Si Si7 0.918712 0.250000 0.168638
Si Si8 0.329446 0.250000 0.438937
O O1 0.797783 0.144815 0.869273
O O2 0.901091 0.181100 0.922771
O O3 0.710070 0.750000 0.124881
O O4 0.668185 0.616979 0.147940
O O5 0.700357 0.654611 0.053699
O O6 0.744478 0.047736 0.061650
O O7 0.747904 0.117003 0.146426
O O8 0.787202 0.178825 0.060336
O O9 0.750000 0.605646 0.750000
O O10 0.869164 0.611778 0.710807
O O11 0.093024 0.181760 0.204227
O O12 0.000000 0.109576 0.252848
O O13 0.000000 0.750000 0.216749
O O14 0.000000 0.628581 0.260909
O O15 0.871098 0.250000 0.116785
O O16 0.000000 0.250000 0.152614
#
# Coordination Sequence:
#
# PCOD9572909 Si02
#       8
#    16  32  32  32  32  16  16  16
#     4  12  23  44  66  96 130 180 226 273 334 402
#     4  11  22  39  66  92 129 176 216 277 328 398
#     4  11  26  40  62  99 132 168 228 276 342 408
#     4  11  22  42  63  92 132 176 218 283 337 407
#     4  10  22  38  69  97 127 177 226 270 339 416
#     4  12  25  44  67  97 133 177 233 281 344 408
#     4  10  19  41  63  94 129 164 220 276 321 398
#     4  12  25  39  66  97 130 179 215 289 346 396
#
# _framework density 20.524010000000001
#
# number of rings (size 3 to 8) (size 9 to 14) (size 15 to 20)
#    0.000    1.000    5.000    1.250    3.500    1.333 
#    0.000    1.667    0.000    2.500    0.000    0.000 
#    0.000    0.000    0.000    0.000    0.000    0.000 
#
# Total GULP energy -536412.100246 kJ/mol
# GULP energy per Si atom -5587.626044 kJ/mol
# Density = 2.047730 g / cm^3
# Si number density = 20.524010 Si / 1000 Ang^3
#
#
#
# Elastic Constant Matrix: (Units=GPa)
#
#
# Indices 1 2 3 4 5 6 
#
# 1 97.3894 30.8924 23.1338 0.0000 0.0000 0.0000
# 2 30.8924 97.3894 23.1338 0.0000 0.0000 0.0000
# 3 23.1338 23.1338 34.9196 0.0000 0.0000 0.0000
# 4 0.0000 0.0000 0.0000 17.7607 0.0000 0.0000
# 5 0.0000 0.0000 0.0000 0.0000 17.7607 0.0000
# 6 0.0000 0.0000 0.0000 0.0000 0.0000 29.6740
#
#
#
# Elastic Compliance Matrix: (Units=1/GPa)
#
#
# Indices 1 2 3 4 5 6 
#
# 1 0.012641 -0.002398 -0.006786 0.000000 0.000000 0.000000
# 2 -0.002398 0.012641 -0.006786 0.000000 0.000000 0.000000
# 3 -0.006786 -0.006786 0.037628 0.000000 0.000000 0.000000
# 4 0.000000 0.000000 0.000000 0.056304 0.000000 0.000000
# 5 0.000000 0.000000 0.000000 0.000000 0.056304 0.000000
# 6 0.000000 0.000000 0.000000 0.000000 0.000000 0.033700
#
#
# Mechanical properties :
#
#
# Convention : Reuss Voigt Hill
#
# Bulk Modulus (GPa) = 32.28846 42.66868 37.47857
# Shear Modulus (GPa) = 19.88237 23.20828 21.54533
#
# Velocity S-wave (km/s) = 3.11583 3.36637 3.24352
# Velocity P-wave (km/s) = 5.35824 5.99539 5.68575
#
# Compressibility (1/GPa) = 0.03097082
#
# Stress axis : x y z
#
# Youngs Moduli (GPa) = 79.11073 79.11073 26.57590
#
# Poissons Ratio (x) = 0.18969 0.18034
# Poissons Ratio (y) = 0.18969 0.18034
# Poissons Ratio (z) = 0.53682 0.53682
#
# Static dielectric constant tensor:
#      x y z
#    x 1.757980 0.000000 0.000000 
#    y 0.000000 1.757980 0.000000 
#    z 0.000000 0.000000 1.701910 
# 
# From -- ./inp_files/11804.got.cif
#   From: 2010.05.17/outbox.cif.g08.bks.cpg/sg141_6_cif.got.tgz:11804.got - 2010.05.20 13:30:51.
