data_PCOD9572409
_publ_section_title
;
Structure prediction by ZEFSAII (Michael W. Deem and Ramdas Pophale) SiO2 
 PCOD9572409
Probable space group: I 4/M C M
;
_chemical_formula_sum "Si O2"
_cell_formula_units_Z 192
_cell_length_a 19.721153
_cell_length_b 19.721153
_cell_length_c 25.645008
_cell_angle_alpha 90.000000
_cell_angle_beta 90.000000
_cell_angle_gamma 90.000000
_cell_volume 9973.955902
_symmetry_space_group_name_H-M "I 4/M C M"
_symmetry_group_IT_number 140
_symmetry_cell_setting 'tetragonal'
loop_
_space_group_symop_operation_xyz
x,y,z
-y,x,z
-x,-y,z
y,-x,z
x,-y,1/2-z
-x,y,1/2-z
y,x,1/2-z
-y,-x,1/2-z
-x,-y,-z
y,-x,-z
x,y,-z
-y,x,-z
-x,y,1/2+z
x,-y,1/2+z
-y,-x,1/2+z
y,x,1/2+z
1/2+x,1/2+y,1/2+z
1/2-y,1/2+x,1/2+z
1/2-x,1/2-y,1/2+z
1/2+y,1/2-x,1/2+z
1/2+x,1/2-y,-z
1/2-x,1/2+y,-z
1/2+y,1/2+x,-z
1/2-y,1/2-x,-z
1/2-x,1/2-y,1/2-z
1/2+y,1/2-x,1/2-z
1/2+x,1/2+y,1/2-z
1/2-y,1/2+x,1/2-z
1/2-x,1/2+y,z
1/2+x,1/2-y,z
1/2-y,1/2-x,z
1/2+y,1/2+x,z
loop_
_atom_site_type_symbol
_atom_site_label
_atom_site_fract_x
_atom_site_fract_y
_atom_site_fract_z
Si Si1 0.104008 0.212878 0.864506
Si Si2 0.718264 0.675276 0.561095
Si Si3 0.888784 0.501950 0.093249
Si Si4 0.419513 0.574200 0.312275
Si Si5 0.262356 0.517995 0.940567
Si Si6 0.162937 0.448489 0.796943
O O1 0.167059 0.218273 0.903485
O O2 0.115155 0.142128 0.835293
O O3 0.089709 0.272545 0.822946
O O4 0.037474 0.209232 0.900959
O O5 0.699847 0.682305 0.500000
O O6 0.792755 0.707246 0.567682
O O7 0.718850 0.595339 0.573345
O O8 0.929366 0.570635 0.078425
O O9 0.819030 0.490478 0.063320
O O10 0.869569 0.510462 0.154379
O O11 0.940308 0.440308 0.085722
O O12 0.407831 0.495733 0.327821
O O13 0.419845 0.580156 0.250000
O O14 0.284469 0.505384 0.000000
O O15 0.180163 0.500000 0.750000
O O16 0.107322 0.392679 0.779852
#
# Coordination Sequence:
#
# PCOD9572409 Si02
#       6
#    32  32  32  32  32  32
#     4  11  21  36  59  82 113 144 190 238 280 331
#     4  10  21  38  59  82 114 156 193 231 288 352
#     4   9  18  33  54  80 111 148 190 237 286 336
#     4   9  19  35  57  81 107 139 177 218 273 334
#     4  10  21  36  56  84 115 150 190 236 286 341
#     4  10  21  35  54  79 109 148 192 238 286 342
#
# _framework density 19.250135
#
# number of rings (size 3 to 8) (size 9 to 14) (size 15 to 20)
#    0.000    2.167    0.000    3.500    2.333    2.833 
#    0.000    0.833    0.000    1.000    0.000    7.000 
#    0.000    0.000    0.000    0.000    0.000    0.000 
#
# Total GULP energy -535439.298301 kJ/mol
# GULP energy per Si atom -5577.492691 kJ/mol
# Density = 1.920632 g / cm^3
# Si number density = 19.250135 Si / 1000 Ang^3
#
#
#
# Elastic Constant Matrix: (Units=GPa)
#
#
# Indices 1 2 3 4 5 6 
#
# 1 45.3480 36.1876 33.2574 0.0000 0.0000 0.0000
# 2 36.1876 45.3477 33.2553 0.0000 0.0000 0.0000
# 3 33.2574 33.2553 51.4698 0.0000 0.0000 0.0000
# 4 0.0000 0.0000 0.0000 25.6568 0.0000 0.0000
# 5 0.0000 0.0000 0.0000 0.0000 25.6571 0.0000
# 6 0.0000 0.0000 0.0000 0.0000 0.0000 21.8110
#
#
#
# Elastic Compliance Matrix: (Units=1/GPa)
#
#
# Indices 1 2 3 4 5 6 
#
# 1 0.067554 -0.041617 -0.016761 0.000000 0.000000 0.000000
# 2 -0.041617 0.067547 -0.016752 0.000000 0.000000 0.000000
# 3 -0.016761 -0.016752 0.041083 0.000000 0.000000 0.000000
# 4 0.000000 0.000000 0.000000 0.038976 0.000000 0.000000
# 5 0.000000 0.000000 0.000000 0.000000 0.038976 0.000000
# 6 0.000000 0.000000 0.000000 0.000000 0.000000 0.045848
#
#
# Mechanical properties :
#
#
# Convention : Reuss Voigt Hill
#
# Bulk Modulus (GPa) = 38.57449 38.61846 38.59647
# Shear Modulus (GPa) = 10.89593 17.25600 14.07596
#
# Velocity S-wave (km/s) = 2.38169 2.99726 2.70703
# Velocity P-wave (km/s) = 5.25788 5.66419 5.46481
#
# Compressibility (1/GPa) = 0.02592387
#
# Stress axis : x y z
#
# Youngs Moduli (GPa) = 14.80290 14.80442 24.34088
#
# Poissons Ratio (x) = 0.61611 0.40799
# Poissons Ratio (y) = 0.61605 0.40777
# Poissons Ratio (z) = 0.24812 0.24801
#
# Static dielectric constant tensor:
#      x y z
#    x 1.664950 0.000000 0.000000 
#    y 0.000000 1.664950 0.000000 
#    z 0.000000 0.000000 1.668270 
# 
# From -- ./inp_files/9753.got.cif
#   From: 2010.05.17/outbox.cif.g08.bks.cpg/sg140_5_cif.got.tgz:9753.got - 2010.06.21 00:45:31.
