data_PCOD9572504
_publ_section_title
;
Structure prediction by ZEFSAII (Michael W. Deem and Ramdas Pophale) SiO2 
 PCOD9572504
Probable space group: I 4/M C M
;
_chemical_formula_sum "Si O2"
_cell_formula_units_Z 96
_cell_length_a 14.991303
_cell_length_b 14.991303
_cell_length_c 25.149986
_cell_angle_alpha 90.000000
_cell_angle_beta 90.000000
_cell_angle_gamma 90.000000
_cell_volume 5652.186869
_symmetry_space_group_name_H-M "I 4/M C M"
_symmetry_group_IT_number 140
_symmetry_cell_setting 'tetragonal'
loop_
_space_group_symop_operation_xyz
x,y,z
-y,x,z
-x,-y,z
y,-x,z
x,-y,1/2-z
-x,y,1/2-z
y,x,1/2-z
-y,-x,1/2-z
-x,-y,-z
y,-x,-z
x,y,-z
-y,x,-z
-x,y,1/2+z
x,-y,1/2+z
-y,-x,1/2+z
y,x,1/2+z
1/2+x,1/2+y,1/2+z
1/2-y,1/2+x,1/2+z
1/2-x,1/2-y,1/2+z
1/2+y,1/2-x,1/2+z
1/2+x,1/2-y,-z
1/2-x,1/2+y,-z
1/2+y,1/2+x,-z
1/2-y,1/2-x,-z
1/2-x,1/2-y,1/2-z
1/2+y,1/2-x,1/2-z
1/2+x,1/2+y,1/2-z
1/2-y,1/2+x,1/2-z
1/2-x,1/2+y,z
1/2+x,1/2-y,z
1/2-y,1/2-x,z
1/2+y,1/2+x,z
loop_
_atom_site_type_symbol
_atom_site_label
_atom_site_fract_x
_atom_site_fract_y
_atom_site_fract_z
Si Si1 0.204276 0.295725 0.438238
Si Si2 0.499071 0.769320 0.811381
Si Si3 0.316257 0.675100 0.841871
Si Si4 0.572143 0.072143 0.615510
O O1 0.218533 0.281467 0.500000
O O2 0.292243 0.325387 0.404914
O O3 0.128941 0.371060 0.427321
O O4 0.500000 0.796957 0.750000
O O5 0.406236 0.725055 0.828032
O O6 0.576760 0.695923 0.819535
O O7 0.523124 0.853531 0.848243
O O8 0.233983 0.733983 0.819192
O O9 0.500000 0.000000 0.596088
#
# Coordination Sequence:
#
# PCOD9572504 Si02
#       4
#    16  32  32  16
#     4   8  18  40  59  74 111 155 188 244 300 327
#     4  11  21  34  56  81 119 159 187 230 291 347
#     4   9  21  37  54  80 117 145 198 237 278 355
#     4  10  22  32  53  91 116 144 197 245 287 357
#
# _framework density 16.984576000000001
#
# number of rings (size 3 to 8) (size 9 to 14) (size 15 to 20)
#    1.000    1.333    1.667    2.000    4.667    2.333 
#    0.000    8.333    0.000    0.000    0.000    9.333 
#    0.000    0.000    0.000    0.000    0.000    0.000 
#
# Total GULP energy -267277.114603 kJ/mol
# GULP energy per Si atom -5568.273221 kJ/mol
# Density = 1.694592 g / cm^3
# Si number density = 16.984576 Si / 1000 Ang^3
#
#
#
# Elastic Constant Matrix: (Units=GPa)
#
#
# Indices 1 2 3 4 5 6 
#
# 1 52.3377 10.7461 -1.6188 0.0000 0.0000 0.0000
# 2 10.7461 52.3383 -1.6180 0.0000 0.0000 0.0000
# 3 -1.6188 -1.6180 68.0244 0.0000 0.0000 0.0000
# 4 0.0000 0.0000 0.0000 5.3970 0.0000 0.0000
# 5 0.0000 0.0000 0.0000 0.0000 5.3969 0.0000
# 6 0.0000 0.0000 0.0000 0.0000 0.0000 21.2616
#
#
#
# Elastic Compliance Matrix: (Units=1/GPa)
#
#
# Indices 1 2 3 4 5 6 
#
# 1 0.019957 -0.004086 0.000378 0.000000 0.000000 0.000000
# 2 -0.004086 0.019957 0.000377 0.000000 0.000000 0.000000
# 3 0.000378 0.000377 0.014719 0.000000 0.000000 0.000000
# 4 0.000000 0.000000 0.000000 0.185289 0.000000 0.000000
# 5 0.000000 0.000000 0.000000 0.000000 0.185292 0.000000
# 6 0.000000 0.000000 0.000000 0.000000 0.000000 0.047033
#
#
# Mechanical properties :
#
#
# Convention : Reuss Voigt Hill
#
# Bulk Modulus (GPa) = 20.84573 20.85766 20.85170
# Shear Modulus (GPa) = 10.10307 17.42383 13.76345
#
# Velocity S-wave (km/s) = 2.44158 3.20638 2.84975
# Velocity P-wave (km/s) = 4.49982 5.10048 4.80953
#
# Compressibility (1/GPa) = 0.04797145
#
# Stress axis : x y z
#
# Youngs Moduli (GPa) = 50.10696 50.10762 67.94137
#
# Poissons Ratio (x) = 0.20474 -0.02566
# Poissons Ratio (y) = 0.20473 -0.02564
# Poissons Ratio (z) = -0.01893 -0.01891
#
# Static dielectric constant tensor:
#      x y z
#    x 1.577020 0.000000 0.000000 
#    y 0.000000 1.577020 0.000000 
#    z 0.000000 0.000000 1.576220 
# 
# From -- ./inp_files/8938.got.cif
#   From: 2010.05.17/outbox.cif.g08.bks.cpg/sg140_5_cif.got.tgz:8938.got - 2010.06.21 00:45:31.
