data_PCOD9572227
_publ_section_title
;
Structure prediction by ZEFSAII (Michael W. Deem and Ramdas Pophale) SiO2 
 PCOD9572227
Probable space group: I 4/M C M
;
_chemical_formula_sum "Si O2"
_cell_formula_units_Z 160
_cell_length_a 24.264285
_cell_length_b 24.264285
_cell_length_c 19.544821
_cell_angle_alpha 90.000000
_cell_angle_beta 90.000000
_cell_angle_gamma 90.000000
_cell_volume 11507.121379
_symmetry_space_group_name_H-M "I 4/M C M"
_symmetry_group_IT_number 140
_symmetry_cell_setting 'tetragonal'
loop_
_space_group_symop_operation_xyz
x,y,z
-y,x,z
-x,-y,z
y,-x,z
x,-y,1/2-z
-x,y,1/2-z
y,x,1/2-z
-y,-x,1/2-z
-x,-y,-z
y,-x,-z
x,y,-z
-y,x,-z
-x,y,1/2+z
x,-y,1/2+z
-y,-x,1/2+z
y,x,1/2+z
1/2+x,1/2+y,1/2+z
1/2-y,1/2+x,1/2+z
1/2-x,1/2-y,1/2+z
1/2+y,1/2-x,1/2+z
1/2+x,1/2-y,-z
1/2-x,1/2+y,-z
1/2+y,1/2+x,-z
1/2-y,1/2-x,-z
1/2-x,1/2-y,1/2-z
1/2+y,1/2-x,1/2-z
1/2+x,1/2+y,1/2-z
1/2-y,1/2+x,1/2-z
1/2-x,1/2+y,z
1/2+x,1/2-y,z
1/2-y,1/2-x,z
1/2+y,1/2+x,z
loop_
_atom_site_type_symbol
_atom_site_label
_atom_site_fract_x
_atom_site_fract_y
_atom_site_fract_z
Si Si1 0.735794 0.140965 0.850763
Si Si2 0.127074 0.721391 0.197844
Si Si3 0.036499 0.629342 0.182365
Si Si4 0.720905 0.316026 0.078059
Si Si5 0.059780 0.346448 0.919774
O O1 0.688642 0.188642 0.850416
O O2 0.750372 0.129591 0.771755
O O3 0.785381 0.166443 0.894310
O O4 0.706367 0.088396 0.884501
O O5 0.177189 0.677189 0.198252
O O6 0.072462 0.684659 0.192025
O O7 0.138632 0.760086 0.133082
O O8 0.079181 0.579181 0.173250
O O9 0.000000 0.619932 0.250000
O O10 0.995451 0.636933 0.119226
O O11 0.769063 0.269063 0.077525
O O12 0.714932 0.335455 0.000000
O O13 0.103655 0.396346 0.912376
O O14 0.051216 0.336712 0.000000
#
# Coordination Sequence:
#
# PCOD9572227 Si02
#       5
#    32  32  32  32  32
#     4   9  15  27  44  61  80 103 131 167 210 262
#     4   9  17  28  43  60  79 103 135 172 212 260
#     4  11  21  33  46  59  78 110 150 192 231 262
#     4   9  16  25  40  63  86 104 123 156 209 267
#     4  10  20  32  45  61  80 105 143 189 232 268
#
# _framework density 13.904432999999999
#
# number of rings (size 3 to 8) (size 9 to 14) (size 15 to 20)
#    0.000    2.400    2.000    1.800    0.000    7.400 
#    0.000    3.000    0.000    0.000    0.000    0.000 
#    0.000    0.000    0.000    0.000    0.000    1.000 
#
# Total GULP energy -445726.106467 kJ/mol
# GULP energy per Si atom -5571.576331 kJ/mol
# Density = 1.387279 g / cm^3
# Si number density = 13.904433 Si / 1000 Ang^3
#
#
#
# Elastic Constant Matrix: (Units=GPa)
#
#
# Indices 1 2 3 4 5 6 
#
# 1 30.1579 32.1216 35.0063 0.0000 0.0000 0.0000
# 2 32.1216 30.1579 35.0063 0.0000 0.0000 0.0000
# 3 35.0063 35.0063 128.4019 0.0000 0.0000 0.0000
# 4 0.0000 0.0000 0.0000 19.8550 0.0000 0.0000
# 5 0.0000 0.0000 0.0000 0.0000 19.8550 0.0000
# 6 0.0000 0.0000 0.0000 0.0000 0.0000 10.5478
#
#
#
# Elastic Compliance Matrix: (Units=1/GPa)
#
#
# Indices 1 2 3 4 5 6 
#
# 1 -0.243039 0.266192 -0.006312 0.000000 0.000000 0.000000
# 2 0.266192 -0.243039 -0.006312 0.000000 0.000000 0.000000
# 3 -0.006312 -0.006312 0.011230 0.000000 0.000000 0.000000
# 4 0.000000 0.000000 0.000000 0.050365 0.000000 0.000000
# 5 0.000000 0.000000 0.000000 0.000000 0.050365 0.000000
# 6 0.000000 0.000000 0.000000 0.000000 0.000000 0.094806
#
#
# Mechanical properties :
#
#
# Convention : Reuss Voigt Hill
#
# Bulk Modulus (GPa) = 30.97274 43.66512 37.31893
# Shear Modulus (GPa) = -6.44591 15.82381 4.68895
#
# Velocity S-wave (km/s) = -2.15544 3.37715 1.83837
# Velocity P-wave (km/s) = 4.01612 6.83218 5.60393
#
# Compressibility (1/GPa) = 0.03228646
#
# Stress axis : x y z
#
# Youngs Moduli (GPa) = -4.11456 -4.11456 89.04893
#
# Poissons Ratio (x) = 1.09526 0.56208
# Poissons Ratio (y) = 1.09526 0.56208
# Poissons Ratio (z) = -0.02597 -0.02597
#
# Static dielectric constant tensor:
#      x y z
#    x 1.439110 0.000000 0.000000 
#    y 0.000000 1.439110 0.000000 
#    z 0.000000 0.000000 1.475720 
# 
# From -- ./inp_files/6854.got.cif
#   From: 2010.05.17/outbox.cif.g08.bks.cpg/sg140_4_cif.got.tgz:6854.got - 2010.06.21 00:45:31.
