data_PCOD9572929
_publ_section_title
;
Structure prediction by ZEFSAII (Michael W. Deem and Ramdas Pophale) SiO2 
 PCOD9572929
Probable space group: I 41/A M D
;
_chemical_formula_sum "Si O2"
_cell_formula_units_Z 176
_cell_length_a 17.822252
_cell_length_b 17.822252
_cell_length_c 25.503739
_cell_angle_alpha 90.000000
_cell_angle_beta 90.000000
_cell_angle_gamma 90.000000
_cell_volume 8100.820621
_symmetry_space_group_name_H-M "I 41/A M D"
_symmetry_group_IT_number 141
_space_group.IT_coordinate_system_code '2'
_symmetry_cell_setting 'tetragonal'
loop_
_space_group_symop_operation_xyz
x,y,z
1/4-y,3/4+x,1/4+z
-x,1/2-y,z
1/4+y,1/4-x,3/4+z
x,-y,-z
-x,1/2+y,-z
1/4+y,3/4+x,1/4-z
1/4-y,1/4-x,3/4-z
-x,-y,-z
3/4+y,1/4-x,3/4-z
x,1/2+y,-z
3/4-y,3/4+x,1/4-z
-x,y,z
x,1/2-y,z
3/4-y,1/4-x,3/4+z
3/4+y,3/4+x,1/4+z
1/2+x,1/2+y,1/2+z
3/4-y,1/4+x,3/4+z
1/2-x,-y,1/2+z
3/4+y,3/4-x,1/4+z
1/2+x,1/2-y,1/2-z
1/2-x,y,1/2-z
3/4+y,1/4+x,3/4-z
3/4-y,3/4-x,1/4-z
1/2-x,1/2-y,1/2-z
1/4+y,3/4-x,1/4-z
1/2+x,y,1/2-z
1/4-y,1/4+x,3/4-z
1/2-x,1/2+y,1/2+z
1/2+x,-y,1/2+z
1/4-y,3/4-x,1/4+z
1/4+y,1/4+x,3/4+z
loop_
_atom_site_type_symbol
_atom_site_label
_atom_site_fract_x
_atom_site_fract_y
_atom_site_fract_z
Si Si1 0.411060 0.081611 0.518434
Si Si2 0.419171 0.663056 0.788937
Si Si3 0.086192 0.916874 0.436802
Si Si4 0.704868 0.053692 0.183449
Si Si5 0.590213 0.340213 0.625000
Si Si6 0.086191 0.427116 0.687704
O O1 0.500000 0.074511 0.524306
O O2 0.383572 0.113423 0.574096
O O3 0.392300 0.141739 0.473850
O O4 0.382062 0.000000 0.500000
O O5 0.500000 0.629932 0.801959
O O6 0.419725 0.750000 0.802942
O O7 0.402901 0.658450 0.726359
O O8 0.350765 0.624554 0.817630
O O9 0.092346 0.907653 0.374186
O O10 0.000000 0.947276 0.445705
O O11 0.157288 0.968581 0.452722
O O12 0.723298 0.026703 0.125000
O O13 0.648490 0.989414 0.204078
O O14 0.500000 0.350837 0.632969
O O15 0.000000 0.450283 0.696966
#
# Coordination Sequence:
#
# PCOD9572929 Si02
#       6
#    32  32  32  32  16  32
#     4  10  22  41  62  92 128 159 200 253 306 365
#     4  10  20  33  51  78 109 144 191 240 285 340
#     4   9  19  36  57  79 110 153 196 238 293 359
#     4  10  20  35  53  78 111 147 191 241 292 355
#     4   9  18  38  68  94 120 166 216 252 303 374
#     4  10  21  38  59  85 114 149 195 243 291 352
#
# _framework density 21.726195000000001
#
# number of rings (size 3 to 8) (size 9 to 14) (size 15 to 20)
#    0.000    2.273    0.000    2.182    0.000    6.909 
#    8.182    2.727    0.000    0.000    0.000    0.000 
#    0.000    0.000    0.000    0.000    0.000    0.000 
#
# Total GULP energy -490179.939577 kJ/mol
# GULP energy per Si atom -5570.226586 kJ/mol
# Density = 2.167674 g / cm^3
# Si number density = 21.726195 Si / 1000 Ang^3
#
#
#
# Elastic Constant Matrix: (Units=GPa)
#
#
# Indices 1 2 3 4 5 6 
#
# 1 21.8557 22.2761 10.4852 0.0000 0.0000 0.0000
# 2 22.2761 21.8559 10.4853 0.0000 0.0000 0.0000
# 3 10.4852 10.4853 103.4536 0.0000 0.0000 0.0000
# 4 0.0000 0.0000 0.0000 23.9857 0.0000 0.0000
# 5 0.0000 0.0000 0.0000 0.0000 23.9855 0.0000
# 6 0.0000 0.0000 0.0000 0.0000 0.0000 15.5233
#
#
#
# Elastic Compliance Matrix: (Units=1/GPa)
#
#
# Indices 1 2 3 4 5 6 
#
# 1 -1.177708 1.201508 -0.002413 0.000000 0.000000 0.000000
# 2 1.201508 -1.177697 -0.002412 0.000000 0.000000 0.000000
# 3 -0.002413 -0.002412 0.010155 0.000000 0.000000 0.000000
# 4 0.000000 0.000000 0.000000 0.041692 0.000000 0.000000
# 5 0.000000 0.000000 0.000000 0.000000 0.041692 0.000000
# 6 0.000000 0.000000 0.000000 0.000000 0.000000 0.064419
#
#
# Mechanical properties :
#
#
# Convention : Reuss Voigt Hill
#
# Bulk Modulus (GPa) = 20.78317 25.96203 23.37260
# Shear Modulus (GPa) = -1.09295 19.62680 9.26692
#
# Velocity S-wave (km/s) = -0.71003 3.00887 2.06751
# Velocity P-wave (km/s) = 2.98572 4.90374 4.05963
#
# Compressibility (1/GPa) = 0.04811584
#
# Stress axis : x y z
#
# Youngs Moduli (GPa) = -0.84911 -0.84912 98.47120
#
# Poissons Ratio (x) = 1.02022 0.23766
# Poissons Ratio (y) = 1.02021 0.23752
# Poissons Ratio (z) = -0.00205 -0.00205
#
# Static dielectric constant tensor:
#      x y z
#    x 1.805670 0.000000 0.000000 
#    y 0.000000 1.805670 0.000000 
#    z 0.000000 0.000000 1.851190 
# 
# From -- ./inp_files/12878.got.cif
#   From: 2010.05.17/outbox.cif.g08.bks.cpg/sg141_7_cif.got.tgz:12878.got - 2010.05.20 13:30:51.
