data_PCOD9572478
_publ_section_title
;
Structure prediction by ZEFSAII (Michael W. Deem and Ramdas Pophale) SiO2 
 PCOD9572478
Probable space group: I 4/M C M
;
_chemical_formula_sum "Si O2"
_cell_formula_units_Z 104
_cell_length_a 14.625013
_cell_length_b 14.625013
_cell_length_c 24.081607
_cell_angle_alpha 90.000000
_cell_angle_beta 90.000000
_cell_angle_gamma 90.000000
_cell_volume 5150.839129
_symmetry_space_group_name_H-M "I 4/M C M"
_symmetry_group_IT_number 140
_symmetry_cell_setting 'tetragonal'
loop_
_space_group_symop_operation_xyz
x,y,z
-y,x,z
-x,-y,z
y,-x,z
x,-y,1/2-z
-x,y,1/2-z
y,x,1/2-z
-y,-x,1/2-z
-x,-y,-z
y,-x,-z
x,y,-z
-y,x,-z
-x,y,1/2+z
x,-y,1/2+z
-y,-x,1/2+z
y,x,1/2+z
1/2+x,1/2+y,1/2+z
1/2-y,1/2+x,1/2+z
1/2-x,1/2-y,1/2+z
1/2+y,1/2-x,1/2+z
1/2+x,1/2-y,-z
1/2-x,1/2+y,-z
1/2+y,1/2+x,-z
1/2-y,1/2-x,-z
1/2-x,1/2-y,1/2-z
1/2+y,1/2-x,1/2-z
1/2+x,1/2+y,1/2-z
1/2-y,1/2+x,1/2-z
1/2-x,1/2+y,z
1/2+x,1/2-y,z
1/2-y,1/2-x,z
1/2+y,1/2+x,z
loop_
_atom_site_type_symbol
_atom_site_label
_atom_site_fract_x
_atom_site_fract_y
_atom_site_fract_z
Si Si1 0.334905 0.165096 0.500000
Si Si2 0.946854 0.856213 0.609899
Si Si3 0.778148 0.866618 0.000000
Si Si4 0.454792 0.198660 0.809997
Si Si5 0.423831 0.076170 0.608628
O O1 0.224173 0.157281 0.500000
O O2 0.378637 0.121364 0.554742
O O3 0.922779 0.798913 0.555004
O O4 0.927272 0.794477 0.663155
O O5 0.051947 0.887168 0.609509
O O6 0.676656 0.823345 0.000000
O O7 0.500000 0.208099 0.750000
O O8 0.368960 0.131041 0.805717
O O9 0.525578 0.150812 0.852809
O O10 0.500000 0.000000 0.593127
#
# Coordination Sequence:
#
# PCOD9572478 Si02
#       5
#     8  32  16  32  16
#     4  10  21  38  64 102 132 165 224 284 334 408
#     4  11  24  43  67  99 141 189 231 284 352 424
#     4  10  22  40  69  96 134 170 230 277 348 409
#     4  11  23  43  70 100 137 183 238 289 354 417
#     4  10  21  38  67 100 139 175 221 284 355 412
#
# _framework density 20.190885999999999
#
# number of rings (size 3 to 8) (size 9 to 14) (size 15 to 20)
#    0.462    0.923    1.538    3.923    0.000    3.692 
#    2.769    4.615    0.000    0.000    0.000    0.000 
#    0.000    0.000    0.000    0.000    0.000    0.000 
#
# Total GULP energy -290861.589241 kJ/mol
# GULP energy per Si atom -5593.492101 kJ/mol
# Density = 2.014493 g / cm^3
# Si number density = 20.190886 Si / 1000 Ang^3
#
#
#
# Elastic Constant Matrix: (Units=GPa)
#
#
# Indices 1 2 3 4 5 6 
#
# 1 111.7571 48.0301 75.1673 0.0000 0.0000 0.0000
# 2 48.0301 111.7568 75.1672 0.0000 0.0000 0.0000
# 3 75.1673 75.1672 147.2999 0.0000 0.0000 0.0000
# 4 0.0000 0.0000 0.0000 27.2505 0.0000 0.0000
# 5 0.0000 0.0000 0.0000 0.0000 27.2507 0.0000
# 6 0.0000 0.0000 0.0000 0.0000 0.0000 18.9084
#
#
#
# Elastic Compliance Matrix: (Units=1/GPa)
#
#
# Indices 1 2 3 4 5 6 
#
# 1 0.013865 -0.001827 -0.006143 0.000000 0.000000 0.000000
# 2 -0.001827 0.013865 -0.006143 0.000000 0.000000 0.000000
# 3 -0.006143 -0.006143 0.013058 0.000000 0.000000 0.000000
# 4 0.000000 0.000000 0.000000 0.036697 0.000000 0.000000
# 5 0.000000 0.000000 0.000000 0.000000 0.036696 0.000000
# 6 0.000000 0.000000 0.000000 0.000000 0.000000 0.052887
#
#
# Mechanical properties :
#
#
# Convention : Reuss Voigt Hill
#
# Bulk Modulus (GPa) = 79.60291 85.28258 82.44274
# Shear Modulus (GPa) = 25.06505 26.17852 25.62179
#
# Velocity S-wave (km/s) = 3.52718 3.60467 3.56614
# Velocity P-wave (km/s) = 7.48991 7.72365 7.60768
#
# Compressibility (1/GPa) = 0.01256235
#
# Stress axis : x y z
#
# Youngs Moduli (GPa) = 72.12455 72.12435 76.57931
#
# Poissons Ratio (x) = 0.13178 0.47042
# Poissons Ratio (y) = 0.13178 0.47042
# Poissons Ratio (z) = 0.44306 0.44306
#
# Static dielectric constant tensor:
#      x y z
#    x 1.722740 0.000000 0.000000 
#    y 0.000000 1.722740 0.000000 
#    z 0.000000 0.000000 1.656470 
# 
# From -- ./inp_files/9095.got.cif
#   From: 2010.05.17/outbox.cif.g08.bks.cpg/sg140_5_cif.got.tgz:9095.got - 2010.06.21 00:45:31.
