data_PCOD9572848
_publ_section_title
;
Structure prediction by ZEFSAII (Michael W. Deem and Ramdas Pophale) SiO2 
 PCOD9572848
Probable space group: I 41/A M D
;
_chemical_formula_sum "Si O2"
_cell_formula_units_Z 160
_cell_length_a 25.875819
_cell_length_b 25.875819
_cell_length_c 12.205009
_cell_angle_alpha 90.000000
_cell_angle_beta 90.000000
_cell_angle_gamma 90.000000
_cell_volume 8171.961525
_symmetry_space_group_name_H-M "I 41/A M D"
_symmetry_group_IT_number 141
_space_group.IT_coordinate_system_code '2'
_symmetry_cell_setting 'tetragonal'
loop_
_space_group_symop_operation_xyz
x,y,z
1/4-y,3/4+x,1/4+z
-x,1/2-y,z
1/4+y,1/4-x,3/4+z
x,-y,-z
-x,1/2+y,-z
1/4+y,3/4+x,1/4-z
1/4-y,1/4-x,3/4-z
-x,-y,-z
3/4+y,1/4-x,3/4-z
x,1/2+y,-z
3/4-y,3/4+x,1/4-z
-x,y,z
x,1/2-y,z
3/4-y,1/4-x,3/4+z
3/4+y,3/4+x,1/4+z
1/2+x,1/2+y,1/2+z
3/4-y,1/4+x,3/4+z
1/2-x,-y,1/2+z
3/4+y,3/4-x,1/4+z
1/2+x,1/2-y,1/2-z
1/2-x,y,1/2-z
3/4+y,1/4+x,3/4-z
3/4-y,3/4-x,1/4-z
1/2-x,1/2-y,1/2-z
1/4+y,3/4-x,1/4-z
1/2+x,y,1/2-z
1/4-y,1/4+x,3/4-z
1/2-x,1/2+y,1/2+z
1/2+x,-y,1/2+z
1/4-y,3/4-x,1/4+z
1/4+y,1/4+x,3/4+z
loop_
_atom_site_type_symbol
_atom_site_label
_atom_site_fract_x
_atom_site_fract_y
_atom_site_fract_z
Si Si1 0.645298 0.689698 0.347844
Si Si2 0.117811 0.054344 0.352651
Si Si3 0.058432 0.630890 0.481254
Si Si4 0.941067 0.902223 0.840319
Si Si5 0.207758 0.808863 0.942928
O O1 0.598725 0.651276 0.375000
O O2 0.630860 0.750000 0.364964
O O3 0.657911 0.683572 0.219823
O O4 0.692735 0.679782 0.431381
O O5 0.175878 0.074123 0.375000
O O6 0.083382 0.093150 0.427447
O O7 0.100146 0.065273 0.228272
O O8 0.099592 0.995659 0.365244
O O9 0.094220 0.679262 0.452039
O O10 0.058660 0.595940 0.372243
O O11 0.000000 0.644169 0.511177
O O12 0.000000 0.916510 0.814535
O O13 0.228969 0.750000 0.933607
#
# Coordination Sequence:
#
# PCOD9572848 Si02
#       5
#    32  32  32  32  32
#     4  10  20  34  52  78 112 147 183 222 265 318
#     4  10  21  35  51  76 105 135 176 227 279 327
#     4  10  19  32  52  78 109 143 180 219 260 317
#     4  10  20  33  50  76 112 145 176 216 266 326
#     4  10  19  33  55  79 104 138 181 226 268 313
#
# _framework density 19.579142999999998
#
# number of rings (size 3 to 8) (size 9 to 14) (size 15 to 20)
#    0.000    2.000    2.000    2.400    0.000    3.000 
#    0.000    5.000    0.000    3.600    0.000   21.000 
#    0.000    0.000    0.000    0.000    0.000    0.000 
#
# Total GULP energy -446105.994114 kJ/mol
# GULP energy per Si atom -5576.324926 kJ/mol
# Density = 1.953458 g / cm^3
# Si number density = 19.579143 Si / 1000 Ang^3
#
#
#
# Elastic Constant Matrix: (Units=GPa)
#
#
# Indices 1 2 3 4 5 6 
#
# 1 46.2421 20.2816 10.9974 0.0000 0.0000 0.0000
# 2 20.2816 46.2418 10.9996 0.0000 0.0000 0.0000
# 3 10.9974 10.9996 85.9264 0.0000 0.0000 0.0000
# 4 0.0000 0.0000 0.0000 22.4524 0.0000 0.0000
# 5 0.0000 0.0000 0.0000 0.0000 22.4514 0.0000
# 6 0.0000 0.0000 0.0000 0.0000 0.0000 19.7104
#
#
#
# Elastic Compliance Matrix: (Units=1/GPa)
#
#
# Indices 1 2 3 4 5 6 
#
# 1 0.027108 -0.011412 -0.002009 0.000000 0.000000 0.000000
# 2 -0.011412 0.027109 -0.002010 0.000000 0.000000 0.000000
# 3 -0.002009 -0.002010 0.012152 0.000000 0.000000 0.000000
# 4 0.000000 0.000000 0.000000 0.044539 0.000000 0.000000
# 5 0.000000 0.000000 0.000000 0.000000 0.044541 0.000000
# 6 0.000000 0.000000 0.000000 0.000000 0.000000 0.050735
#
#
# Mechanical properties :
#
#
# Convention : Reuss Voigt Hill
#
# Bulk Modulus (GPa) = 28.16198 29.21860 28.69029
# Shear Modulus (GPa) = 20.09004 21.99829 21.04416
#
# Velocity S-wave (km/s) = 3.20675 3.35559 3.28201
# Velocity P-wave (km/s) = 5.30338 5.47440 5.38957
#
# Compressibility (1/GPa) = 0.03550887
#
# Stress axis : x y z
#
# Youngs Moduli (GPa) = 36.88924 36.88856 82.28960
#
# Poissons Ratio (x) = 0.42096 0.16529
# Poissons Ratio (y) = 0.42097 0.16538
# Poissons Ratio (z) = 0.07410 0.07413
#
# Static dielectric constant tensor:
#      x y z
#    x 1.706760 0.000000 0.000000 
#    y 0.000000 1.706750 0.000000 
#    z 0.000000 0.000000 1.736460 
# 
# From -- ./inp_files/4826.got.cif
#   From: 2010.05.17/outbox.cif.g08.bks.cpg/sg141_3_cif.got.tgz:4826.got - 2010.05.20 13:30:51.
