data_PCOD9572863
_publ_section_title
;
Structure prediction by ZEFSAII (Michael W. Deem and Ramdas Pophale) SiO2 
 PCOD9572863
Probable space group: I 41/A M D
;
_chemical_formula_sum "Si O2"
_cell_formula_units_Z 96
_cell_length_a 14.499293
_cell_length_b 14.499293
_cell_length_c 17.348510
_cell_angle_alpha 90.000000
_cell_angle_beta 90.000000
_cell_angle_gamma 90.000000
_cell_volume 3647.168540
_symmetry_space_group_name_H-M "I 41/A M D"
_symmetry_group_IT_number 141
_space_group.IT_coordinate_system_code '2'
_symmetry_cell_setting 'tetragonal'
loop_
_space_group_symop_operation_xyz
x,y,z
1/4-y,3/4+x,1/4+z
-x,1/2-y,z
1/4+y,1/4-x,3/4+z
x,-y,-z
-x,1/2+y,-z
1/4+y,3/4+x,1/4-z
1/4-y,1/4-x,3/4-z
-x,-y,-z
3/4+y,1/4-x,3/4-z
x,1/2+y,-z
3/4-y,3/4+x,1/4-z
-x,y,z
x,1/2-y,z
3/4-y,1/4-x,3/4+z
3/4+y,3/4+x,1/4+z
1/2+x,1/2+y,1/2+z
3/4-y,1/4+x,3/4+z
1/2-x,-y,1/2+z
3/4+y,3/4-x,1/4+z
1/2+x,1/2-y,1/2-z
1/2-x,y,1/2-z
3/4+y,1/4+x,3/4-z
3/4-y,3/4-x,1/4-z
1/2-x,1/2-y,1/2-z
1/4+y,3/4-x,1/4-z
1/2+x,y,1/2-z
1/4-y,1/4+x,3/4-z
1/2-x,1/2+y,1/2+z
1/2+x,-y,1/2+z
1/4-y,3/4-x,1/4+z
1/4+y,1/4+x,3/4+z
loop_
_atom_site_type_symbol
_atom_site_label
_atom_site_fract_x
_atom_site_fract_y
_atom_site_fract_z
Si Si1 0.897000 0.994626 0.342627
Si Si2 0.389079 0.141171 0.974664
Si Si3 0.647451 0.355958 0.713487
O O1 0.856448 0.924783 0.405933
O O2 0.903780 0.927493 0.268060
O O3 0.000000 0.018552 0.368969
O O4 0.858009 0.086805 0.301617
O O5 0.500000 0.135380 0.980932
O O6 0.368258 0.250000 0.961398
O O7 0.637385 0.387385 0.625000
O O8 0.614763 0.250000 0.718955
O O9 0.750000 0.357824 0.750000
#
# Coordination Sequence:
#
# PCOD9572863 Si02
#       3
#    32  32  32
#     4  10  19  33  55  84 121 163 204 252 319 391
#     4   9  18  33  56  90 128 162 204 262 324 389
#     4  11  23  37  55  85 127 171 213 259 318 391
#
# _framework density 26.321788000000002
#
# number of rings (size 3 to 8) (size 9 to 14) (size 15 to 20)
#    0.000    2.000    0.000    4.000    0.000    9.000 
#    0.000    0.000    0.000    1.000    0.000   28.000 
#    0.000    0.000    0.000    0.000    0.000    0.000 
#
# Total GULP energy -268616.412393 kJ/mol
# GULP energy per Si atom -5596.175258 kJ/mol
# Density = 2.626188 g / cm^3
# Si number density = 26.321788 Si / 1000 Ang^3
#
#
#
# Elastic Constant Matrix: (Units=GPa)
#
#
# Indices 1 2 3 4 5 6 
#
# 1 145.5624 16.3655 22.8527 0.0000 0.0000 0.0000
# 2 16.3655 145.5624 22.8527 0.0000 0.0000 0.0000
# 3 22.8527 22.8527 176.3944 0.0000 0.0000 0.0000
# 4 0.0000 0.0000 0.0000 41.1263 0.0000 0.0000
# 5 0.0000 0.0000 0.0000 0.0000 41.1263 0.0000
# 6 0.0000 0.0000 0.0000 0.0000 0.0000 41.9372
#
#
#
# Elastic Compliance Matrix: (Units=1/GPa)
#
#
# Indices 1 2 3 4 5 6 
#
# 1 0.007075 -0.000665 -0.000830 0.000000 0.000000 0.000000
# 2 -0.000665 0.007075 -0.000830 0.000000 0.000000 0.000000
# 3 -0.000830 -0.000830 0.005884 0.000000 0.000000 0.000000
# 4 0.000000 0.000000 0.000000 0.024315 0.000000 0.000000
# 5 0.000000 0.000000 0.000000 0.000000 0.024315 0.000000
# 6 0.000000 0.000000 0.000000 0.000000 0.000000 0.023845
#
#
# Mechanical properties :
#
#
# Convention : Reuss Voigt Hill
#
# Bulk Modulus (GPa) = 65.00898 65.74012 65.37455
# Shear Modulus (GPa) = 48.88081 51.86786 50.37433
#
# Velocity S-wave (km/s) = 4.31402 4.44388 4.37943
# Velocity P-wave (km/s) = 7.04030 7.16663 7.10374
#
# Compressibility (1/GPa) = 0.01538249
#
# Stress axis : x y z
#
# Youngs Moduli (GPa) = 141.34164 141.34165 169.94408
#
# Poissons Ratio (x) = 0.09400 0.14113
# Poissons Ratio (y) = 0.09400 0.14113
# Poissons Ratio (z) = 0.11738 0.11738
#
# Static dielectric constant tensor:
#      x y z
#    x 2.108660 0.000000 0.000000 
#    y 0.000000 2.108660 0.000000 
#    z 0.000000 0.000000 2.104950 
# 
# From -- ./inp_files/7644.got.cif
#   From: 2010.05.17/outbox.cif.g08.bks.cpg/sg141_4_cif.got.tgz:7644.got - 2010.05.20 13:30:51.
