data_PCOD9572239
_publ_section_title
;
Structure prediction by ZEFSAII (Michael W. Deem and Ramdas Pophale) SiO2 
 PCOD9572239
Probable space group: I 4/M C M
;
_chemical_formula_sum "Si O2"
_cell_formula_units_Z 192
_cell_length_a 20.494851
_cell_length_b 20.494851
_cell_length_c 25.867519
_cell_angle_alpha 90.000000
_cell_angle_beta 90.000000
_cell_angle_gamma 90.000000
_cell_volume 10865.364679
_symmetry_space_group_name_H-M "I 4/M C M"
_symmetry_group_IT_number 140
_symmetry_cell_setting 'tetragonal'
loop_
_space_group_symop_operation_xyz
x,y,z
-y,x,z
-x,-y,z
y,-x,z
x,-y,1/2-z
-x,y,1/2-z
y,x,1/2-z
-y,-x,1/2-z
-x,-y,-z
y,-x,-z
x,y,-z
-y,x,-z
-x,y,1/2+z
x,-y,1/2+z
-y,-x,1/2+z
y,x,1/2+z
1/2+x,1/2+y,1/2+z
1/2-y,1/2+x,1/2+z
1/2-x,1/2-y,1/2+z
1/2+y,1/2-x,1/2+z
1/2+x,1/2-y,-z
1/2-x,1/2+y,-z
1/2+y,1/2+x,-z
1/2-y,1/2-x,-z
1/2-x,1/2-y,1/2-z
1/2+y,1/2-x,1/2-z
1/2+x,1/2+y,1/2-z
1/2-y,1/2+x,1/2-z
1/2-x,1/2+y,z
1/2+x,1/2-y,z
1/2-y,1/2-x,z
1/2+y,1/2+x,z
loop_
_atom_site_type_symbol
_atom_site_label
_atom_site_fract_x
_atom_site_fract_y
_atom_site_fract_z
Si Si1 0.175177 0.434440 0.785028
Si Si2 0.069735 0.322456 0.906303
Si Si3 0.687227 0.422188 0.758745
Si Si4 0.143336 0.248367 0.358957
Si Si5 0.668857 0.719244 0.558926
Si Si6 0.329290 0.069543 0.055343
O O1 0.167684 0.500000 0.750000
O O2 0.120634 0.379367 0.771914
O O3 0.170253 0.448706 0.845952
O O4 0.249077 0.408436 0.776945
O O5 0.121739 0.378262 0.918102
O O6 0.104792 0.254970 0.920103
O O7 0.006682 0.329311 0.940407
O O8 0.673187 0.500000 0.750000
O O9 0.624846 0.375155 0.750000
O O10 0.716847 0.400322 0.814199
O O11 0.204211 0.295790 0.341162
O O12 0.170195 0.192968 0.397278
O O13 0.099299 0.292183 0.396274
O O14 0.660310 0.694946 0.500000
O O15 0.726275 0.773726 0.556857
O O16 0.401498 0.098503 0.057305
O O17 0.300363 0.091689 0.000000
#
# Coordination Sequence:
#
# PCOD9572239 Si02
#       6
#    32  32  32  32  32  32
#     4  10  21  36  54  79 112 149 189 229 270 320
#     4  10  20  33  50  73 102 138 179 220 261 307
#     4  11  23  38  57  80 106 138 178 223 272 326
#     4  10  20  34  54  79 105 133 168 213 265 320
#     4   9  17  31  52  77 104 133 169 215 266 317
#     4  10  20  33  49  71 103 141 176 211 255 307
#
# _framework density 17.670829999999999
#
# number of rings (size 3 to 8) (size 9 to 14) (size 15 to 20)
#    0.000    2.000    0.000    4.500    0.000    8.333 
#    0.000    2.500    0.000    0.000    0.000    0.000 
#    0.000    0.000    0.000   18.333    0.000    1.000 
#
# Total GULP energy -534858.373651 kJ/mol
# GULP energy per Si atom -5571.441392 kJ/mol
# Density = 1.763061 g / cm^3
# Si number density = 17.670830 Si / 1000 Ang^3
#
#
#
# Elastic Constant Matrix: (Units=GPa)
#
#
# Indices 1 2 3 4 5 6 
#
# 1 78.9654 63.5585 39.7885 0.0000 0.0000 0.0000
# 2 63.5585 78.9638 39.7868 0.0000 0.0000 0.0000
# 3 39.7885 39.7868 87.7578 0.0000 0.0000 0.0000
# 4 0.0000 0.0000 0.0000 38.2343 0.0000 0.0000
# 5 0.0000 0.0000 0.0000 0.0000 38.2368 0.0000
# 6 0.0000 0.0000 0.0000 0.0000 0.0000 17.8803
#
#
#
# Elastic Compliance Matrix: (Units=1/GPa)
#
#
# Indices 1 2 3 4 5 6 
#
# 1 0.037152 -0.027757 -0.004260 0.000000 0.000000 0.000000
# 2 -0.027757 0.037152 -0.004259 0.000000 0.000000 0.000000
# 3 -0.004260 -0.004259 0.015257 0.000000 0.000000 0.000000
# 4 0.000000 0.000000 0.000000 0.026155 0.000000 0.000000
# 5 0.000000 0.000000 0.000000 0.000000 0.026153 0.000000
# 6 0.000000 0.000000 0.000000 0.000000 0.000000 0.055927
#
#
# Mechanical properties :
#
#
# Convention : Reuss Voigt Hill
#
# Bulk Modulus (GPa) = 58.79231 59.10606 58.94919
# Shear Modulus (GPa) = 18.11481 25.70718 21.91100
#
# Velocity S-wave (km/s) = 3.20523 3.81830 3.52512
# Velocity P-wave (km/s) = 6.85865 7.27737 7.07111
#
# Compressibility (1/GPa) = 0.01700903
#
# Stress axis : x y z
#
# Youngs Moduli (GPa) = 26.91652 26.91654 65.54307
#
# Poissons Ratio (x) = 0.74713 0.27921
# Poissons Ratio (y) = 0.74713 0.27912
# Poissons Ratio (z) = 0.11466 0.11463
#
# Static dielectric constant tensor:
#      x y z
#    x 1.605100 0.000000 0.000000 
#    y 0.000000 1.605100 0.000000 
#    z 0.000000 0.000000 2.115890 
# 
# From -- ./inp_files/9759.got.cif
#   From: 2010.05.17/outbox.cif.g08.bks.cpg/sg140_5_cif.got.tgz:9759.got - 2010.06.21 00:45:31.
