data_PCOD9572639
_publ_section_title
;
Structure prediction by ZEFSAII (Michael W. Deem and Ramdas Pophale) SiO2 
 PCOD9572639
Probable space group: I 4/M C M
;
_chemical_formula_sum "Si O2"
_cell_formula_units_Z 192
_cell_length_a 19.740246
_cell_length_b 19.740246
_cell_length_c 28.333672
_cell_angle_alpha 90.000000
_cell_angle_beta 90.000000
_cell_angle_gamma 90.000000
_cell_volume 11040.989148
_symmetry_space_group_name_H-M "I 4/M C M"
_symmetry_group_IT_number 140
_symmetry_cell_setting 'tetragonal'
loop_
_space_group_symop_operation_xyz
x,y,z
-y,x,z
-x,-y,z
y,-x,z
x,-y,1/2-z
-x,y,1/2-z
y,x,1/2-z
-y,-x,1/2-z
-x,-y,-z
y,-x,-z
x,y,-z
-y,x,-z
-x,y,1/2+z
x,-y,1/2+z
-y,-x,1/2+z
y,x,1/2+z
1/2+x,1/2+y,1/2+z
1/2-y,1/2+x,1/2+z
1/2-x,1/2-y,1/2+z
1/2+y,1/2-x,1/2+z
1/2+x,1/2-y,-z
1/2-x,1/2+y,-z
1/2+y,1/2+x,-z
1/2-y,1/2-x,-z
1/2-x,1/2-y,1/2-z
1/2+y,1/2-x,1/2-z
1/2+x,1/2+y,1/2-z
1/2-y,1/2+x,1/2-z
1/2-x,1/2+y,z
1/2+x,1/2-y,z
1/2-y,1/2-x,z
1/2+y,1/2+x,z
loop_
_atom_site_type_symbol
_atom_site_label
_atom_site_fract_x
_atom_site_fract_y
_atom_site_fract_z
Si Si1 0.525809 0.208007 0.804119
Si Si2 0.584698 0.287103 0.643025
Si Si3 0.206745 0.293256 0.313917
Si Si4 0.422998 0.584395 0.302789
Si Si5 0.995904 0.390330 0.613986
Si Si6 0.703867 0.088707 0.444521
Si Si7 0.814523 0.314523 0.703062
O O1 0.500000 0.208911 0.750000
O O2 0.487586 0.267536 0.833091
O O3 0.504302 0.142204 0.834138
O O4 0.607345 0.205713 0.806213
O O5 0.636758 0.233149 0.665207
O O6 0.604624 0.362139 0.659740
O O7 0.589512 0.270900 0.587732
O O8 0.263646 0.236355 0.322919
O O9 0.196734 0.303267 0.258565
O O10 0.409639 0.504627 0.306443
O O11 0.397472 0.602529 0.250000
O O12 0.050126 0.449875 0.613364
O O13 0.024079 0.337100 0.576070
O O14 0.923121 0.423121 0.603405
O O15 0.716214 0.083440 0.500000
O O16 0.654507 0.154507 0.436975
#
# Coordination Sequence:
#
# PCOD9572639 Si02
#       7
#    32  32  16  32  32  32  16
#     4  11  22  32  48  72 110 152 188 216 268 331
#     4  11  22  35  57  81 109 147 189 234 275 338
#     4  11  24  36  51  77 114 141 190 230 270 339
#     4   9  21  37  57  83 113 145 183 226 278 332
#     4   9  18  30  47  73 104 142 185 226 267 317
#     4   9  18  34  54  77 106 141 188 239 281 327
#     4  11  24  36  47  76 111 154 178 225 274 337
#
# _framework density 17.389745999999999
#
# number of rings (size 3 to 8) (size 9 to 14) (size 15 to 20)
#    0.000    2.000    3.333    0.500    9.333    0.333 
#    0.000    2.500    0.000    1.000    0.000    5.833 
#    0.000    0.000    0.000    0.000    0.000    0.000 
#
# Total GULP energy -534866.980432 kJ/mol
# GULP energy per Si atom -5571.531046 kJ/mol
# Density = 1.735017 g / cm^3
# Si number density = 17.389746 Si / 1000 Ang^3
#
#
#
# Elastic Constant Matrix: (Units=GPa)
#
#
# Indices 1 2 3 4 5 6 
#
# 1 61.8754 17.8275 28.6894 0.0000 0.0000 0.0000
# 2 17.8275 61.8751 28.6892 0.0000 0.0000 0.0000
# 3 28.6894 28.6892 124.6613 0.0000 0.0000 0.0000
# 4 0.0000 0.0000 0.0000 19.9701 0.0000 0.0000
# 5 0.0000 0.0000 0.0000 0.0000 19.9702 0.0000
# 6 0.0000 0.0000 0.0000 0.0000 0.0000 10.2939
#
#
#
# Elastic Compliance Matrix: (Units=1/GPa)
#
#
# Indices 1 2 3 4 5 6 
#
# 1 0.018870 -0.003832 -0.003461 0.000000 0.000000 0.000000
# 2 -0.003832 0.018870 -0.003461 0.000000 0.000000 0.000000
# 3 -0.003461 -0.003461 0.009615 0.000000 0.000000 0.000000
# 4 0.000000 0.000000 0.000000 0.050075 0.000000 0.000000
# 5 0.000000 0.000000 0.000000 0.000000 0.050075 0.000000
# 6 0.000000 0.000000 0.000000 0.000000 0.000000 0.097145
#
#
# Mechanical properties :
#
#
# Convention : Reuss Voigt Hill
#
# Bulk Modulus (GPa) = 38.68843 44.31378 41.50110
# Shear Modulus (GPa) = 18.19682 21.59390 19.89536
#
# Velocity S-wave (km/s) = 3.23834 3.52769 3.38610
# Velocity P-wave (km/s) = 6.02317 6.49082 6.26136
#
# Compressibility (1/GPa) = 0.02584752
#
# Stress axis : x y z
#
# Youngs Moduli (GPa) = 52.99319 52.99298 104.00769
#
# Poissons Ratio (x) = 0.20308 0.35995
# Poissons Ratio (y) = 0.20309 0.35995
# Poissons Ratio (z) = 0.18340 0.18340
#
# Static dielectric constant tensor:
#      x y z
#    x 1.632900 0.000000 0.000000 
#    y 0.000000 1.632900 0.000000 
#    z 0.000000 0.000000 1.569200 
# 
# From -- ./inp_files/10911.got.cif
#   From: 2010.05.17/outbox.cif.g08.bks.cpg/sg140_6_cif.got.tgz:10911.got - 2010.06.21 00:45:31.
