data_PCOD9572866
_publ_section_title
;
Structure prediction by ZEFSAII (Michael W. Deem and Ramdas Pophale) SiO2 
 PCOD9572866
Probable space group: I 41/A M D
;
_chemical_formula_sum "Si O2"
_cell_formula_units_Z 176
_cell_length_a 27.914903
_cell_length_b 27.914903
_cell_length_c 12.297568
_cell_angle_alpha 90.000000
_cell_angle_beta 90.000000
_cell_angle_gamma 90.000000
_cell_volume 9582.779141
_symmetry_space_group_name_H-M "I 41/A M D"
_symmetry_group_IT_number 141
_space_group.IT_coordinate_system_code '2'
_symmetry_cell_setting 'tetragonal'
loop_
_space_group_symop_operation_xyz
x,y,z
1/4-y,3/4+x,1/4+z
-x,1/2-y,z
1/4+y,1/4-x,3/4+z
x,-y,-z
-x,1/2+y,-z
1/4+y,3/4+x,1/4-z
1/4-y,1/4-x,3/4-z
-x,-y,-z
3/4+y,1/4-x,3/4-z
x,1/2+y,-z
3/4-y,3/4+x,1/4-z
-x,y,z
x,1/2-y,z
3/4-y,1/4-x,3/4+z
3/4+y,3/4+x,1/4+z
1/2+x,1/2+y,1/2+z
3/4-y,1/4+x,3/4+z
1/2-x,-y,1/2+z
3/4+y,3/4-x,1/4+z
1/2+x,1/2-y,1/2-z
1/2-x,y,1/2-z
3/4+y,1/4+x,3/4-z
3/4-y,3/4-x,1/4-z
1/2-x,1/2-y,1/2-z
1/4+y,3/4-x,1/4-z
1/2+x,y,1/2-z
1/4-y,1/4+x,3/4-z
1/2-x,1/2+y,1/2+z
1/2+x,-y,1/2+z
1/4-y,3/4-x,1/4+z
1/4+y,1/4+x,3/4+z
loop_
_atom_site_type_symbol
_atom_site_label
_atom_site_fract_x
_atom_site_fract_y
_atom_site_fract_z
Si Si1 0.697768 0.304852 0.012325
Si Si2 0.106312 0.640486 0.824609
Si Si3 0.617381 0.692972 0.446713
Si Si4 0.556571 0.193430 0.125000
Si Si5 0.301126 0.114113 0.195739
Si Si6 0.055931 0.532696 0.096845
O O1 0.688535 0.250000 0.044553
O O2 0.697631 0.340447 0.114218
O O3 0.656336 0.322310 0.929379
O O4 0.748529 0.307288 0.951976
O O5 0.084782 0.674373 0.730099
O O6 0.158438 0.623531 0.785609
O O7 0.111076 0.667278 0.937846
O O8 0.572066 0.677935 0.375000
O O9 0.621448 0.750000 0.461683
O O10 0.665219 0.675395 0.381996
O O11 0.564639 0.250000 0.110345
O O12 0.319014 0.069014 0.125000
O O13 0.250000 0.108211 0.250000
O O14 0.000000 0.540866 0.065956
O O15 0.077610 0.500000 0.000000
#
# Coordination Sequence:
#
# PCOD9572866 Si02
#       6
#    32  32  32  16  32  32
#     4  10  19  33  57  86 115 148 191 242 300 357
#     4  11  21  37  58  85 119 156 198 253 297 368
#     4  11  24  39  56  80 114 155 201 248 298 364
#     4  11  22  36  56  84 124 170 206 242 300 376
#     4  10  21  37  59  87 118 154 192 248 311 369
#     4   9  18  34  55  79 105 141 189 245 304 355
#
# _framework density 18.366278999999999
#
# number of rings (size 3 to 8) (size 9 to 14) (size 15 to 20)
#    0.000    1.727    2.727    3.273    0.000    4.182 
#    0.000    0.000    0.000   14.182    0.000    0.000 
#    0.000    0.000    0.000    0.000    0.000    0.000 
#
# Total GULP energy -491101.559725 kJ/mol
# GULP energy per Si atom -5580.699542 kJ/mol
# Density = 1.832448 g / cm^3
# Si number density = 18.366279 Si / 1000 Ang^3
#
#
#
# Elastic Constant Matrix: (Units=GPa)
#
#
# Indices 1 2 3 4 5 6 
#
# 1 97.6887 39.2516 31.9284 0.0000 0.0000 0.0000
# 2 39.2516 97.6797 31.9249 0.0000 0.0000 0.0000
# 3 31.9284 31.9249 92.2507 0.0000 0.0000 0.0000
# 4 0.0000 0.0000 0.0000 21.9323 0.0000 0.0000
# 5 0.0000 0.0000 0.0000 0.0000 21.9335 0.0000
# 6 0.0000 0.0000 0.0000 0.0000 0.0000 14.7083
#
#
#
# Elastic Compliance Matrix: (Units=1/GPa)
#
#
# Indices 1 2 3 4 5 6 
#
# 1 0.012910 -0.004203 -0.003014 0.000000 0.000000 0.000000
# 2 -0.004203 0.012911 -0.003014 0.000000 0.000000 0.000000
# 3 -0.003014 -0.003014 0.012926 0.000000 0.000000 0.000000
# 4 0.000000 0.000000 0.000000 0.045595 0.000000 0.000000
# 5 0.000000 0.000000 0.000000 0.000000 0.045592 0.000000
# 6 0.000000 0.000000 0.000000 0.000000 0.000000 0.067989
#
#
# Mechanical properties :
#
#
# Convention : Reuss Voigt Hill
#
# Bulk Modulus (GPa) = 54.68316 54.86988 54.77652
# Shear Modulus (GPa) = 22.27369 24.01577 23.14473
#
# Velocity S-wave (km/s) = 3.48623 3.62000 3.55375
# Velocity P-wave (km/s) = 6.78553 6.88569 6.83579
#
# Compressibility (1/GPa) = 0.01828717
#
# Stress axis : x y z
#
# Youngs Moduli (GPa) = 77.45709 77.45131 77.36324
#
# Poissons Ratio (x) = 0.32552 0.23316
# Poissons Ratio (y) = 0.32554 0.23314
# Poissons Ratio (z) = 0.23345 0.23340
#
# Static dielectric constant tensor:
#      x y z
#    x 1.633410 0.000000 0.000000 
#    y 0.000000 1.633410 0.000000 
#    z 0.000000 0.000000 1.630750 
# 
# From -- ./inp_files/5004.got.cif
#   From: 2010.05.17/outbox.cif.g08.bks.cpg/sg141_3_cif.got.tgz:5004.got - 2010.05.20 13:30:51.
