data_PCOD9572562
_publ_section_title
;
Structure prediction by ZEFSAII (Michael W. Deem and Ramdas Pophale) SiO2 
 PCOD9572562
Probable space group: I 4/M C M
;
_chemical_formula_sum "Si O2"
_cell_formula_units_Z 128
_cell_length_a 20.597837
_cell_length_b 20.597837
_cell_length_c 15.110806
_cell_angle_alpha 90.000000
_cell_angle_beta 90.000000
_cell_angle_gamma 90.000000
_cell_volume 6411.075096
_symmetry_space_group_name_H-M "I 4/M C M"
_symmetry_group_IT_number 140
_symmetry_cell_setting 'tetragonal'
loop_
_space_group_symop_operation_xyz
x,y,z
-y,x,z
-x,-y,z
y,-x,z
x,-y,1/2-z
-x,y,1/2-z
y,x,1/2-z
-y,-x,1/2-z
-x,-y,-z
y,-x,-z
x,y,-z
-y,x,-z
-x,y,1/2+z
x,-y,1/2+z
-y,-x,1/2+z
y,x,1/2+z
1/2+x,1/2+y,1/2+z
1/2-y,1/2+x,1/2+z
1/2-x,1/2-y,1/2+z
1/2+y,1/2-x,1/2+z
1/2+x,1/2-y,-z
1/2-x,1/2+y,-z
1/2+y,1/2+x,-z
1/2-y,1/2-x,-z
1/2-x,1/2-y,1/2-z
1/2+y,1/2-x,1/2-z
1/2+x,1/2+y,1/2-z
1/2-y,1/2+x,1/2-z
1/2-x,1/2+y,z
1/2+x,1/2-y,z
1/2-y,1/2-x,z
1/2+y,1/2+x,z
loop_
_atom_site_type_symbol
_atom_site_label
_atom_site_fract_x
_atom_site_fract_y
_atom_site_fract_z
Si Si1 0.282817 0.606471 0.652440
Si Si2 0.603078 0.476863 0.607087
Si Si3 0.424194 0.181713 0.500000
Si Si4 0.650228 0.740226 0.850801
Si Si5 0.686240 0.923211 0.000000
O O1 0.329788 0.544458 0.648860
O O2 0.224103 0.595933 0.585464
O O3 0.261555 0.623604 0.751317
O O4 0.326073 0.668524 0.622426
O O5 0.574886 0.546978 0.631656
O O6 0.609690 0.475653 0.500000
O O7 0.384568 0.115433 0.500000
O O8 0.501161 0.171827 0.500000
O O9 0.713127 0.786874 0.854303
O O10 0.597760 0.770604 0.916074
O O11 0.622147 0.877854 0.000000
#
# Coordination Sequence:
#
# PCOD9572562 Si02
#       5
#    32  32  16  32  16
#     4  11  21  36  65  94 128 156 204 254 309 361
#     4   9  19  35  55  86 130 174 210 241 286 360
#     4  12  25  40  65  99 127 152 199 266 322 373
#     4  10  22  42  63  88 122 162 206 254 312 369
#     4  10  25  46  67  86 120 169 210 253 313 384
#
# _framework density 19.965450000000001
#
# number of rings (size 3 to 8) (size 9 to 14) (size 15 to 20)
#    0.000    1.750    1.250    4.500    3.500    2.250 
#    4.500    0.000    0.000    6.000    0.000    3.500 
#    0.000    0.000    0.000    0.000    0.000    0.000 
#
# Total GULP energy -358246.378941 kJ/mol
# GULP energy per Si atom -5597.599671 kJ/mol
# Density = 1.992001 g / cm^3
# Si number density = 19.965450 Si / 1000 Ang^3
#
#
#
# Elastic Constant Matrix: (Units=GPa)
#
#
# Indices 1 2 3 4 5 6 
#
# 1 112.4389 44.4597 46.3478 0.0000 0.0000 0.0000
# 2 44.4597 112.4404 46.3479 0.0000 0.0000 0.0000
# 3 46.3478 46.3479 66.5118 0.0000 0.0000 0.0000
# 4 0.0000 0.0000 0.0000 -38.9858 0.0000 0.0000
# 5 0.0000 0.0000 0.0000 0.0000 -38.9603 0.0000
# 6 0.0000 0.0000 0.0000 0.0000 0.0000 27.2065
#
#
#
# Elastic Compliance Matrix: (Units=1/GPa)
#
#
# Indices 1 2 3 4 5 6 
#
# 1 0.012772 -0.001938 -0.007549 0.000000 0.000000 0.000000
# 2 -0.001938 0.012772 -0.007549 0.000000 0.000000 0.000000
# 3 -0.007549 -0.007549 0.025556 0.000000 0.000000 0.000000
# 4 0.000000 0.000000 0.000000 -0.025650 0.000000 0.000000
# 5 0.000000 0.000000 0.000000 0.000000 -0.025667 0.000000
# 6 0.000000 0.000000 0.000000 0.000000 0.000000 0.036756
#
#
# Mechanical properties :
#
#
# Convention : Reuss Voigt Hill
#
# Bulk Modulus (GPa) = 58.73263 62.85578 60.79420
# Shear Modulus (GPa) = 65.54164 0.13445 32.83805
#
# Velocity S-wave (km/s) = 5.73575 0.25978 4.05994
# Velocity P-wave (km/s) = 8.56423 5.62500 7.24523
#
# Compressibility (1/GPa) = 0.01702631
#
# Stress axis : x y z
#
# Youngs Moduli (GPa) = 78.29623 78.29748 39.12960
#
# Poissons Ratio (x) = 0.15177 0.29540
# Poissons Ratio (y) = 0.15176 0.29540
# Poissons Ratio (z) = 0.59108 0.59108
#
# Static dielectric constant tensor:
#      x y z
#    x 1.691150 0.000000 0.000000 
#    y 0.000000 1.691150 0.000000 
#    z 0.000000 0.000000 1.706680 
# 
# From -- ./inp_files/4389.got.cif
#   From: 2010.05.17/outbox.cif.g08.bks.cpg/sg140_3_cif.got.tgz:4389.got - 2010.06.21 00:45:31.
