data_PCOD9572489
_publ_section_title
;
Structure prediction by ZEFSAII (Michael W. Deem and Ramdas Pophale) SiO2 
 PCOD9572489
Probable space group: I 4/M C M
;
_chemical_formula_sum "Si O2"
_cell_formula_units_Z 240
_cell_length_a 20.924765
_cell_length_b 20.924765
_cell_length_c 25.587534
_cell_angle_alpha 90.000000
_cell_angle_beta 90.000000
_cell_angle_gamma 90.000000
_cell_volume 11203.394046
_symmetry_space_group_name_H-M "I 4/M C M"
_symmetry_group_IT_number 140
_symmetry_cell_setting 'tetragonal'
loop_
_space_group_symop_operation_xyz
x,y,z
-y,x,z
-x,-y,z
y,-x,z
x,-y,1/2-z
-x,y,1/2-z
y,x,1/2-z
-y,-x,1/2-z
-x,-y,-z
y,-x,-z
x,y,-z
-y,x,-z
-x,y,1/2+z
x,-y,1/2+z
-y,-x,1/2+z
y,x,1/2+z
1/2+x,1/2+y,1/2+z
1/2-y,1/2+x,1/2+z
1/2-x,1/2-y,1/2+z
1/2+y,1/2-x,1/2+z
1/2+x,1/2-y,-z
1/2-x,1/2+y,-z
1/2+y,1/2+x,-z
1/2-y,1/2-x,-z
1/2-x,1/2-y,1/2-z
1/2+y,1/2-x,1/2-z
1/2+x,1/2+y,1/2-z
1/2-y,1/2+x,1/2-z
1/2-x,1/2+y,z
1/2+x,1/2-y,z
1/2-y,1/2-x,z
1/2+y,1/2+x,z
loop_
_atom_site_type_symbol
_atom_site_label
_atom_site_fract_x
_atom_site_fract_y
_atom_site_fract_z
Si Si1 0.468918 0.197540 0.093311
Si Si2 0.208878 0.605697 0.363602
Si Si3 0.638157 0.236523 0.674783
Si Si4 0.606558 0.494549 0.662948
Si Si5 0.277378 0.561582 0.731792
Si Si6 0.194898 0.798604 0.581041
Si Si7 0.163054 0.945513 0.443167
Si Si8 0.002169 0.396695 0.000000
O O1 0.531694 0.199741 0.127744
O O2 0.409485 0.201148 0.133495
O O3 0.463695 0.262844 0.060868
O O4 0.481627 0.142657 0.051347
O O5 0.143816 0.643816 0.361351
O O6 0.245934 0.608959 0.309254
O O7 0.250542 0.636564 0.410138
O O8 0.682571 0.182571 0.700514
O O9 0.601845 0.282394 0.715057
O O10 0.681450 0.279904 0.637911
O O11 0.563991 0.557588 0.672300
O O12 0.664849 0.473259 0.700286
O O13 0.631599 0.513568 0.604381
O O14 0.235940 0.500000 0.750000
O O15 0.255527 0.755527 0.558794
O O16 0.167963 0.867063 0.560562
O O17 0.135515 0.961921 0.500000
O O18 0.956259 0.456259 0.000000
O O19 0.074835 0.425166 0.000000
#
# Coordination Sequence:
#
# PCOD9572489 Si02
#       8
#    32  32  32  32  32  32  32  16
#     4  11  21  42  62  94 130 169 212 266 331 395
#     4  11  22  39  62  89 131 172 208 262 328 401
#     4  10  21  39  64  95 129 166 217 276 334 398
#     4  11  26  46  65  92 132 179 230 283 338 403
#     4  12  22  40  62  92 127 165 220 267 323 393
#     4   9  21  40  61  93 131 166 209 266 334 402
#     4  11  22  41  67  94 127 169 227 279 339 405
#     4  11  24  42  68  98 126 167 222 272 326 397
#
# _framework density 21.422079
#
# number of rings (size 3 to 8) (size 9 to 14) (size 15 to 20)
#    0.000    1.267    3.333    2.800    0.000    3.467 
#    1.200    3.333    0.000    0.000    0.000    0.933 
#    0.000    0.000    0.000    0.000    0.000    0.000 
#
# Total GULP energy -668140.503062 kJ/mol
# GULP energy per Si atom -5567.837526 kJ/mol
# Density = 2.137332 g / cm^3
# Si number density = 21.422079 Si / 1000 Ang^3
#
#
#
# Elastic Constant Matrix: (Units=GPa)
#
#
# Indices 1 2 3 4 5 6 
#
# 1 54.1199 22.7970 11.6082 0.0000 0.0000 0.0000
# 2 22.7970 54.1208 11.6082 0.0000 0.0000 0.0000
# 3 11.6082 11.6082 101.9642 0.0000 0.0000 0.0000
# 4 0.0000 0.0000 0.0000 9.0181 0.0000 0.0000
# 5 0.0000 0.0000 0.0000 0.0000 9.0174 0.0000
# 6 0.0000 0.0000 0.0000 0.0000 0.0000 17.4950
#
#
#
# Elastic Compliance Matrix: (Units=1/GPa)
#
#
# Indices 1 2 3 4 5 6 
#
# 1 0.022695 -0.009231 -0.001533 0.000000 0.000000 0.000000
# 2 -0.009231 0.022694 -0.001533 0.000000 0.000000 0.000000
# 3 -0.001533 -0.001533 0.010156 0.000000 0.000000 0.000000
# 4 0.000000 0.000000 0.000000 0.110888 0.000000 0.000000
# 5 0.000000 0.000000 0.000000 0.000000 0.110897 0.000000
# 6 0.000000 0.000000 0.000000 0.000000 0.000000 0.057159
#
#
# Mechanical properties :
#
#
# Convention : Reuss Voigt Hill
#
# Bulk Modulus (GPa) = 32.30757 33.58130 32.94444
# Shear Modulus (GPa) = 13.53546 18.05218 15.79382
#
# Velocity S-wave (km/s) = 2.51638 2.90606 2.71821
# Velocity P-wave (km/s) = 4.85356 5.19330 5.02630
#
# Compressibility (1/GPa) = 0.03095250
#
# Stress axis : x y z
#
# Youngs Moduli (GPa) = 44.06349 44.06427 98.46042
#
# Poissons Ratio (x) = 0.40674 0.15092
# Poissons Ratio (y) = 0.40674 0.15092
# Poissons Ratio (z) = 0.06754 0.06754
#
# Static dielectric constant tensor:
#      x y z
#    x 1.827570 0.000000 0.000000 
#    y 0.000000 1.827570 0.000000 
#    z 0.000000 0.000000 2.168510 
# 
# From -- ./inp_files/10980.got.cif
#   From: 2010.05.17/outbox.cif.g08.bks.cpg/sg140_6_cif.got.tgz:10980.got - 2010.06.21 00:45:31.
