data_PCOD9572016
_publ_section_title
;
Structure prediction by ZEFSAII (Michael W. Deem and Ramdas Pophale) SiO2 
 PCOD9572016
Probable space group: I 4/M C M
;
_chemical_formula_sum "Si O2"
_cell_formula_units_Z 160
_cell_length_a 24.066636
_cell_length_b 24.066636
_cell_length_c 13.961907
_cell_angle_alpha 90.000000
_cell_angle_beta 90.000000
_cell_angle_gamma 90.000000
_cell_volume 8086.777978
_symmetry_space_group_name_H-M "I 4/M C M"
_symmetry_group_IT_number 140
_symmetry_cell_setting 'tetragonal'
loop_
_space_group_symop_operation_xyz
x,y,z
-y,x,z
-x,-y,z
y,-x,z
x,-y,1/2-z
-x,y,1/2-z
y,x,1/2-z
-y,-x,1/2-z
-x,-y,-z
y,-x,-z
x,y,-z
-y,x,-z
-x,y,1/2+z
x,-y,1/2+z
-y,-x,1/2+z
y,x,1/2+z
1/2+x,1/2+y,1/2+z
1/2-y,1/2+x,1/2+z
1/2-x,1/2-y,1/2+z
1/2+y,1/2-x,1/2+z
1/2+x,1/2-y,-z
1/2-x,1/2+y,-z
1/2+y,1/2+x,-z
1/2-y,1/2-x,-z
1/2-x,1/2-y,1/2-z
1/2+y,1/2-x,1/2-z
1/2+x,1/2+y,1/2-z
1/2-y,1/2+x,1/2-z
1/2-x,1/2+y,z
1/2+x,1/2-y,z
1/2-y,1/2-x,z
1/2+y,1/2+x,z
loop_
_atom_site_type_symbol
_atom_site_label
_atom_site_fract_x
_atom_site_fract_y
_atom_site_fract_z
Si Si1 0.621665 0.206950 0.705370
Si Si2 0.199943 0.444041 0.113185
Si Si3 0.788041 0.043405 0.385196
Si Si4 0.964980 0.618529 0.384503
Si Si5 0.587306 0.480105 0.883408
O O1 0.682637 0.182637 0.686741
O O2 0.607671 0.207864 0.817801
O O3 0.599431 0.263691 0.660605
O O4 0.578872 0.162310 0.658303
O O5 0.247658 0.490410 0.134475
O O6 0.141481 0.474285 0.139713
O O7 0.200894 0.432052 0.000000
O O8 0.787099 0.049684 0.500000
O O9 0.850420 0.031900 0.352187
O O10 0.962043 0.623406 0.500000
O O11 0.942409 0.557592 0.358365
O O12 0.564524 0.540599 0.854771
O O13 0.588185 0.479804 0.000000
#
# Coordination Sequence:
#
# PCOD9572016 Si02
#       5
#    32  32  32  32  32
#     4  10  18  27  42  63  91 128 168 214 260 296
#     4   9  17  28  42  61  86 121 169 218 261 308
#     4   9  16  27  47  75 104 134 168 203 244 302
#     4   8  13  22  38  60  85 114 149 192 248 314
#     4   8  14  26  47  79 117 147 166 190 235 301
#
# _framework density 19.785384000000001
#
# number of rings (size 3 to 8) (size 9 to 14) (size 15 to 20)
#    0.000    3.200    0.000    4.800    0.000    1.600 
#    0.000    0.000    0.000    5.400    0.000   16.800 
#    0.000    8.000    0.000    2.000    0.000    1.200 
#
# Total GULP energy -445857.655936 kJ/mol
# GULP energy per Si atom -5573.220699 kJ/mol
# Density = 1.974035 g / cm^3
# Si number density = 19.785384 Si / 1000 Ang^3
#
#
#
# Elastic Constant Matrix: (Units=GPa)
#
#
# Indices 1 2 3 4 5 6 
#
# 1 64.7212 57.3295 24.7755 0.0000 0.0000 0.0000
# 2 57.3295 64.7212 24.7755 0.0000 0.0000 0.0000
# 3 24.7755 24.7755 53.5755 0.0000 0.0000 0.0000
# 4 0.0000 0.0000 0.0000 9.1670 0.0000 0.0000
# 5 0.0000 0.0000 0.0000 0.0000 9.1670 0.0000
# 6 0.0000 0.0000 0.0000 0.0000 0.0000 8.7529
#
#
#
# Elastic Compliance Matrix: (Units=1/GPa)
#
#
# Indices 1 2 3 4 5 6 
#
# 1 0.072687 -0.062600 -0.004665 0.000000 0.000000 0.000000
# 2 -0.062600 0.072687 -0.004665 0.000000 0.000000 0.000000
# 3 -0.004665 -0.004665 0.022980 0.000000 0.000000 0.000000
# 4 0.000000 0.000000 0.000000 0.109087 0.000000 0.000000
# 5 0.000000 0.000000 0.000000 0.000000 0.109087 0.000000
# 6 0.000000 0.000000 0.000000 0.000000 0.000000 0.114248
#
#
# Mechanical properties :
#
#
# Convention : Reuss Voigt Hill
#
# Bulk Modulus (GPa) = 40.82466 44.08655 42.45560
# Shear Modulus (GPa) = 7.65933 10.49322 9.07627
#
# Velocity S-wave (km/s) = 1.96967 2.30544 2.14414
# Velocity P-wave (km/s) = 5.08442 5.42379 5.25684
#
# Compressibility (1/GPa) = 0.02449500
#
# Stress axis : x y z
#
# Youngs Moduli (GPa) = 13.75760 13.75760 43.51701
#
# Poissons Ratio (x) = 0.86123 0.20299
# Poissons Ratio (y) = 0.86123 0.20299
# Poissons Ratio (z) = 0.06417 0.06417
#
# Static dielectric constant tensor:
#      x y z
#    x 1.708650 0.000000 0.000000 
#    y 0.000000 1.708650 0.000000 
#    z 0.000000 0.000000 1.742060 
# 
# From -- ./inp_files/4713.got.cif
#   From: 2010.05.17/outbox.cif.g08.bks.cpg/sg140_3_cif.got.tgz:4713.got - 2010.06.21 00:45:31.
