data_PCOD9572371
_publ_section_title
;
Structure prediction by ZEFSAII (Michael W. Deem and Ramdas Pophale) SiO2 
 PCOD9572371
Probable space group: I 4/M C M
;
_chemical_formula_sum "Si O2"
_cell_formula_units_Z 176
_cell_length_a 17.894614
_cell_length_b 17.894614
_cell_length_c 27.584384
_cell_angle_alpha 90.000000
_cell_angle_beta 90.000000
_cell_angle_gamma 90.000000
_cell_volume 8832.994490
_symmetry_space_group_name_H-M "I 4/M C M"
_symmetry_group_IT_number 140
_symmetry_cell_setting 'tetragonal'
loop_
_space_group_symop_operation_xyz
x,y,z
-y,x,z
-x,-y,z
y,-x,z
x,-y,1/2-z
-x,y,1/2-z
y,x,1/2-z
-y,-x,1/2-z
-x,-y,-z
y,-x,-z
x,y,-z
-y,x,-z
-x,y,1/2+z
x,-y,1/2+z
-y,-x,1/2+z
y,x,1/2+z
1/2+x,1/2+y,1/2+z
1/2-y,1/2+x,1/2+z
1/2-x,1/2-y,1/2+z
1/2+y,1/2-x,1/2+z
1/2+x,1/2-y,-z
1/2-x,1/2+y,-z
1/2+y,1/2+x,-z
1/2-y,1/2-x,-z
1/2-x,1/2-y,1/2-z
1/2+y,1/2-x,1/2-z
1/2+x,1/2+y,1/2-z
1/2-y,1/2+x,1/2-z
1/2-x,1/2+y,z
1/2+x,1/2-y,z
1/2-y,1/2-x,z
1/2+y,1/2+x,z
loop_
_atom_site_type_symbol
_atom_site_label
_atom_site_fract_x
_atom_site_fract_y
_atom_site_fract_z
Si Si1 0.409033 0.417295 0.391401
Si Si2 0.464194 0.842669 0.598234
Si Si3 0.655266 0.429058 0.784029
Si Si4 0.378343 0.998444 0.500000
Si Si5 0.044996 0.329849 0.297827
Si Si6 0.154482 0.226835 0.442156
O O1 0.494795 0.397703 0.402958
O O2 0.389916 0.416815 0.333824
O O3 0.354106 0.362956 0.420574
O O4 0.423500 0.923500 0.596929
O O5 0.512231 0.836026 0.549899
O O6 0.498707 0.837019 0.651163
O O7 0.400566 0.780669 0.588839
O O8 0.631518 0.500000 0.750000
O O9 0.641436 0.358565 0.750000
O O10 0.742419 0.437424 0.794372
O O11 0.447040 0.052961 0.500000
O O12 0.412699 0.912699 0.500000
O O13 0.118410 0.381591 0.302096
O O14 0.000000 0.352338 0.250000
O O15 0.136603 0.230393 0.500000
O O16 0.236566 0.263435 0.436574
#
# Coordination Sequence:
#
# PCOD9572371 Si02
#       6
#    32  32  32  16  32  32
#     4  11  23  38  63  98 131 164 204 259 325 382
#     4   9  16  30  53  79 107 147 203 253 301 370
#     4  11  21  35  59  87 118 157 201 250 309 379
#     4   9  16  26  46  80 110 135 190 270 325 360
#     4  10  22  37  55  82 118 162 211 257 313 378
#     4  10  20  38  65  90 119 165 211 252 307 378
#
# _framework density 19.925291999999999
#
# number of rings (size 3 to 8) (size 9 to 14) (size 15 to 20)
#    0.000    1.909    4.545    0.000    0.000    2.182 
#    0.000    2.727    0.000    1.091    0.000    0.000 
#    0.000    0.000    0.000    0.000    0.000    0.000 
#
# Total GULP energy -490166.963812 kJ/mol
# GULP energy per Si atom -5570.079134 kJ/mol
# Density = 1.987994 g / cm^3
# Si number density = 19.925292 Si / 1000 Ang^3
#
#
#
# Elastic Constant Matrix: (Units=GPa)
#
#
# Indices 1 2 3 4 5 6 
#
# 1 40.4843 24.5635 31.5542 0.0000 0.0000 0.0000
# 2 24.5635 40.4881 31.5547 0.0000 0.0000 0.0000
# 3 31.5542 31.5547 172.8726 0.0000 0.0000 0.0000
# 4 0.0000 0.0000 0.0000 23.3363 0.0000 0.0000
# 5 0.0000 0.0000 0.0000 0.0000 23.3377 0.0000
# 6 0.0000 0.0000 0.0000 0.0000 0.0000 20.0455
#
#
#
# Elastic Compliance Matrix: (Units=1/GPa)
#
#
# Indices 1 2 3 4 5 6 
#
# 1 0.040744 -0.022061 -0.003410 0.000000 0.000000 0.000000
# 2 -0.022061 0.040740 -0.003410 0.000000 0.000000 0.000000
# 3 -0.003410 -0.003410 0.007029 0.000000 0.000000 0.000000
# 4 0.000000 0.000000 0.000000 0.042852 0.000000 0.000000
# 5 0.000000 0.000000 0.000000 0.000000 0.042849 0.000000
# 6 0.000000 0.000000 0.000000 0.000000 0.000000 0.049886
#
#
# Mechanical properties :
#
#
# Convention : Reuss Voigt Hill
#
# Bulk Modulus (GPa) = 32.51822 47.68775 40.10298
# Shear Modulus (GPa) = 17.11662 24.42208 20.76935
#
# Velocity S-wave (km/s) = 2.93412 3.50477 3.23206
# Velocity P-wave (km/s) = 5.27582 6.35320 5.83941
#
# Compressibility (1/GPa) = 0.03075199
#
# Stress axis : x y z
#
# Youngs Moduli (GPa) = 24.54325 24.54581 142.25953
#
# Poissons Ratio (x) = 0.54151 0.48512
# Poissons Ratio (y) = 0.54146 0.48504
# Poissons Ratio (z) = 0.08370 0.08369
#
# Static dielectric constant tensor:
#      x y z
#    x 1.714120 0.000000 0.000000 
#    y 0.000000 1.714120 0.000000 
#    z 0.000000 0.000000 1.798590 
# 
# From -- ./inp_files/10700.got.cif
#   From: 2010.05.17/outbox.cif.g08.bks.cpg/sg140_6_cif.got.tgz:10700.got - 2010.06.21 00:45:31.
