data_PCOD9572415
_publ_section_title
;
Structure prediction by ZEFSAII (Michael W. Deem and Ramdas Pophale) SiO2 
 PCOD9572415
Probable space group: I 4/M C M
;
_chemical_formula_sum "Si O2"
_cell_formula_units_Z 160
_cell_length_a 21.089661
_cell_length_b 21.089661
_cell_length_c 16.333421
_cell_angle_alpha 90.000000
_cell_angle_beta 90.000000
_cell_angle_gamma 90.000000
_cell_volume 7264.677743
_symmetry_space_group_name_H-M "I 4/M C M"
_symmetry_group_IT_number 140
_symmetry_cell_setting 'tetragonal'
loop_
_space_group_symop_operation_xyz
x,y,z
-y,x,z
-x,-y,z
y,-x,z
x,-y,1/2-z
-x,y,1/2-z
y,x,1/2-z
-y,-x,1/2-z
-x,-y,-z
y,-x,-z
x,y,-z
-y,x,-z
-x,y,1/2+z
x,-y,1/2+z
-y,-x,1/2+z
y,x,1/2+z
1/2+x,1/2+y,1/2+z
1/2-y,1/2+x,1/2+z
1/2-x,1/2-y,1/2+z
1/2+y,1/2-x,1/2+z
1/2+x,1/2-y,-z
1/2-x,1/2+y,-z
1/2+y,1/2+x,-z
1/2-y,1/2-x,-z
1/2-x,1/2-y,1/2-z
1/2+y,1/2-x,1/2-z
1/2+x,1/2+y,1/2-z
1/2-y,1/2+x,1/2-z
1/2-x,1/2+y,z
1/2+x,1/2-y,z
1/2-y,1/2-x,z
1/2+y,1/2+x,z
loop_
_atom_site_type_symbol
_atom_site_label
_atom_site_fract_x
_atom_site_fract_y
_atom_site_fract_z
Si Si1 0.852177 0.816896 0.841067
Si Si2 0.124951 0.729035 0.858055
Si Si3 0.907906 0.949605 0.403614
Si Si4 0.306954 0.088923 0.314968
Si Si5 0.471674 0.869886 0.408301
O O1 0.821414 0.821414 0.750000
O O2 0.797751 0.854811 0.890003
O O3 0.916359 0.856549 0.847699
O O4 0.872187 0.746126 0.866126
O O5 0.190396 0.690396 0.844845
O O6 0.084674 0.728810 0.772644
O O7 0.081037 0.685174 0.912993
O O8 0.891788 0.941559 0.500000
O O9 0.976022 0.917269 0.389135
O O10 0.365347 0.134654 0.298473
O O11 0.339060 0.027458 0.354522
O O12 0.495169 0.884223 0.500000
O O13 0.432450 0.932450 0.377573
#
# Coordination Sequence:
#
# PCOD9572415 Si02
#       5
#    32  32  32  32  32
#     4  10  21  35  58  88 116 147 189 242 297 351
#     4   9  19  38  60  83 115 152 190 237 296 360
#     4   9  20  38  55  76 112 155 192 230 282 346
#     4  10  21  38  60  86 116 151 195 247 302 361
#     4  10  22  39  59  85 118 157 200 246 296 353
#
# _framework density 22.024376
#
# number of rings (size 3 to 8) (size 9 to 14) (size 15 to 20)
#    0.000    2.400    0.000    1.800    2.800    5.600 
#    0.000    2.000    0.000    7.200    0.000    0.000 
#    0.000    0.000    0.000    0.000    0.000    0.000 
#
# Total GULP energy -445596.035138 kJ/mol
# GULP energy per Si atom -5569.950439 kJ/mol
# Density = 2.197425 g / cm^3
# Si number density = 22.024376 Si / 1000 Ang^3
#
#
#
# Elastic Constant Matrix: (Units=GPa)
#
#
# Indices 1 2 3 4 5 6 
#
# 1 91.4239 17.4879 27.1887 0.0000 0.0000 0.0000
# 2 17.4879 91.4239 27.1887 0.0000 0.0000 0.0000
# 3 27.1887 27.1887 36.5861 0.0000 0.0000 0.0000
# 4 0.0000 0.0000 0.0000 -11.7098 0.0000 0.0000
# 5 0.0000 0.0000 0.0000 0.0000 -11.7098 0.0000
# 6 0.0000 0.0000 0.0000 0.0000 0.0000 38.4636
#
#
#
# Elastic Compliance Matrix: (Units=1/GPa)
#
#
# Indices 1 2 3 4 5 6 
#
# 1 0.014062 0.000536 -0.010849 0.000000 0.000000 0.000000
# 2 0.000536 0.014062 -0.010849 0.000000 0.000000 0.000000
# 3 -0.010849 -0.010849 0.043457 0.000000 0.000000 0.000000
# 4 0.000000 0.000000 0.000000 -0.085399 0.000000 0.000000
# 5 0.000000 0.000000 0.000000 0.000000 -0.085399 0.000000
# 6 0.000000 0.000000 0.000000 0.000000 0.000000 0.025999
#
#
# Mechanical properties :
#
#
# Convention : Reuss Voigt Hill
#
# Bulk Modulus (GPa) = 34.17748 40.35159 37.26454
# Shear Modulus (GPa) = -236.46313 12.84672 -111.80820
#
# Velocity S-wave (km/s) = -10.37291 2.41777 -7.13273
# Velocity P-wave (km/s) = 11.30979 5.11422 7.13289
#
# Compressibility (1/GPa) = 0.02925904
#
# Stress axis : x y z
#
# Youngs Moduli (GPa) = 71.11519 71.11519 23.01139
#
# Poissons Ratio (x) = -0.03815 0.24964
# Poissons Ratio (y) = -0.03815 0.24964
# Poissons Ratio (z) = 0.77149 0.77149
#
# Static dielectric constant tensor:
#      x y z
#    x 1.833480 0.000000 0.000000 
#    y 0.000000 1.833480 0.000000 
#    z 0.000000 0.000000 1.910330 
# 
# From -- ./inp_files/6783.got.cif
#   From: 2010.05.17/outbox.cif.g08.bks.cpg/sg140_4_cif.got.tgz:6783.got - 2010.06.21 00:45:31.
