data_PCOD9572570
_publ_section_title
;
Structure prediction by ZEFSAII (Michael W. Deem and Ramdas Pophale) SiO2 
 PCOD9572570
Probable space group: I 4/M C M
;
_chemical_formula_sum "Si O2"
_cell_formula_units_Z 104
_cell_length_a 18.164366
_cell_length_b 18.164366
_cell_length_c 14.523927
_cell_angle_alpha 90.000000
_cell_angle_beta 90.000000
_cell_angle_gamma 90.000000
_cell_volume 4792.085361
_symmetry_space_group_name_H-M "I 4/M C M"
_symmetry_group_IT_number 140
_symmetry_cell_setting 'tetragonal'
loop_
_space_group_symop_operation_xyz
x,y,z
-y,x,z
-x,-y,z
y,-x,z
x,-y,1/2-z
-x,y,1/2-z
y,x,1/2-z
-y,-x,1/2-z
-x,-y,-z
y,-x,-z
x,y,-z
-y,x,-z
-x,y,1/2+z
x,-y,1/2+z
-y,-x,1/2+z
y,x,1/2+z
1/2+x,1/2+y,1/2+z
1/2-y,1/2+x,1/2+z
1/2-x,1/2-y,1/2+z
1/2+y,1/2-x,1/2+z
1/2+x,1/2-y,-z
1/2-x,1/2+y,-z
1/2+y,1/2+x,-z
1/2-y,1/2-x,-z
1/2-x,1/2-y,1/2-z
1/2+y,1/2-x,1/2-z
1/2+x,1/2+y,1/2-z
1/2-y,1/2+x,1/2-z
1/2-x,1/2+y,z
1/2+x,1/2-y,z
1/2-y,1/2-x,z
1/2+y,1/2+x,z
loop_
_atom_site_type_symbol
_atom_site_label
_atom_site_fract_x
_atom_site_fract_y
_atom_site_fract_z
Si Si1 0.292937 0.207064 0.607115
Si Si2 0.472711 0.857414 0.500000
Si Si3 0.956248 0.724398 0.845092
Si Si4 0.190151 0.690151 0.000000
Si Si5 0.003859 0.117307 0.137912
O O1 0.312381 0.187620 0.500000
O O2 0.367725 0.232243 0.657752
O O3 0.230406 0.269595 0.587325
O O4 0.437019 0.937019 0.500000
O O5 0.520741 0.841194 0.411119
O O6 0.398817 0.804369 0.500000
O O7 0.000000 0.715606 0.750000
O O8 0.986141 0.799603 0.890080
O O9 0.931453 0.073616 0.108799
O O10 0.000000 0.117596 0.250000
#
# Coordination Sequence:
#
# PCOD9572570 Si02
#       5
#    16  16  32   8  32
#     4  10  22  43  62  94 128 175 210 265 327 386
#     4  10  23  42  62  94 126 161 218 271 318 386
#     4  11  23  40  66  91 128 169 218 269 329 387
#     4   8  22  40  70  91 133 174 206 280 330 386
#     4   8  16  31  54  87 123 157 197 248 311 385
#
# _framework density 21.702452000000001
#
# number of rings (size 3 to 8) (size 9 to 14) (size 15 to 20)
#    0.923    1.538    1.538    0.923    6.462    0.000 
#    0.000    3.077    0.000    1.846    0.000    0.000 
#    0.000    0.000    0.000    0.000    0.000    0.000 
#
# Total GULP energy -289842.137546 kJ/mol
# GULP energy per Si atom -5573.887260 kJ/mol
# Density = 2.165306 g / cm^3
# Si number density = 21.702452 Si / 1000 Ang^3
#
#
#
# Elastic Constant Matrix: (Units=GPa)
#
#
# Indices 1 2 3 4 5 6 
#
# 1 65.7994 11.9593 -0.6148 0.0000 0.0000 0.0000
# 2 11.9593 65.7992 -0.6148 0.0000 0.0000 0.0000
# 3 -0.6148 -0.6148 72.6929 0.0000 0.0000 0.0000
# 4 0.0000 0.0000 0.0000 12.3020 0.0000 0.0000
# 5 0.0000 0.0000 0.0000 0.0000 12.3022 0.0000
# 6 0.0000 0.0000 0.0000 0.0000 0.0000 17.1744
#
#
#
# Elastic Compliance Matrix: (Units=1/GPa)
#
#
# Indices 1 2 3 4 5 6 
#
# 1 0.015718 -0.002856 0.000109 0.000000 0.000000 0.000000
# 2 -0.002856 0.015718 0.000109 0.000000 0.000000 0.000000
# 3 0.000109 0.000109 0.013758 0.000000 0.000000 0.000000
# 4 0.000000 0.000000 0.000000 0.081287 0.000000 0.000000
# 5 0.000000 0.000000 0.000000 0.000000 0.081286 0.000000
# 6 0.000000 0.000000 0.000000 0.000000 0.000000 0.058226
#
#
# Mechanical properties :
#
#
# Convention : Reuss Voigt Hill
#
# Bulk Modulus (GPa) = 25.05167 25.08345 25.06756
# Shear Modulus (GPa) = 17.57002 21.25986 19.41494
#
# Velocity S-wave (km/s) = 2.84841 3.13326 2.99423
# Velocity P-wave (km/s) = 4.73141 4.96717 4.85072
#
# Compressibility (1/GPa) = 0.03991750
#
# Stress axis : x y z
#
# Youngs Moduli (GPa) = 63.62221 63.62203 72.68321
#
# Poissons Ratio (x) = 0.18169 -0.00791
# Poissons Ratio (y) = 0.18169 -0.00791
# Poissons Ratio (z) = -0.00692 -0.00692
#
# Static dielectric constant tensor:
#      x y z
#    x 1.788920 0.000000 0.000000 
#    y 0.000000 1.788920 0.000000 
#    z 0.000000 0.000000 1.816180 
# 
# From -- ./inp_files/6022.got.cif
#   From: 2010.05.17/outbox.cif.g08.bks.cpg/sg140_4_cif.got.tgz:6022.got - 2010.06.21 00:45:31.
