data_PCOD9572961
_publ_section_title
;
Structure prediction by ZEFSAII (Michael W. Deem and Ramdas Pophale) SiO2 
 PCOD9572961
Probable space group: I 41/A M D
;
_chemical_formula_sum "Si O2"
_cell_formula_units_Z 160
_cell_length_a 25.745302
_cell_length_b 25.745302
_cell_length_c 13.542958
_cell_angle_alpha 90.000000
_cell_angle_beta 90.000000
_cell_angle_gamma 90.000000
_cell_volume 8976.551210
_symmetry_space_group_name_H-M "I 41/A M D"
_symmetry_group_IT_number 141
_space_group.IT_coordinate_system_code '2'
_symmetry_cell_setting 'tetragonal'
loop_
_space_group_symop_operation_xyz
x,y,z
1/4-y,3/4+x,1/4+z
-x,1/2-y,z
1/4+y,1/4-x,3/4+z
x,-y,-z
-x,1/2+y,-z
1/4+y,3/4+x,1/4-z
1/4-y,1/4-x,3/4-z
-x,-y,-z
3/4+y,1/4-x,3/4-z
x,1/2+y,-z
3/4-y,3/4+x,1/4-z
-x,y,z
x,1/2-y,z
3/4-y,1/4-x,3/4+z
3/4+y,3/4+x,1/4+z
1/2+x,1/2+y,1/2+z
3/4-y,1/4+x,3/4+z
1/2-x,-y,1/2+z
3/4+y,3/4-x,1/4+z
1/2+x,1/2-y,1/2-z
1/2-x,y,1/2-z
3/4+y,1/4+x,3/4-z
3/4-y,3/4-x,1/4-z
1/2-x,1/2-y,1/2-z
1/4+y,3/4-x,1/4-z
1/2+x,y,1/2-z
1/4-y,1/4+x,3/4-z
1/2-x,1/2+y,1/2+z
1/2+x,-y,1/2+z
1/4-y,3/4-x,1/4+z
1/4+y,1/4+x,3/4+z
loop_
_atom_site_type_symbol
_atom_site_label
_atom_site_fract_x
_atom_site_fract_y
_atom_site_fract_z
Si Si1 0.791583 0.188884 0.162677
Si Si2 0.938676 0.984635 0.798063
Si Si3 0.867972 0.640374 0.379673
Si Si4 0.938106 0.308235 0.981956
Si Si5 0.796493 0.385797 0.805616
O O1 0.808209 0.250000 0.168243
O O2 0.750000 0.180370 0.250000
O O3 0.839523 0.148542 0.167394
O O4 0.762904 0.181806 0.057130
O O5 0.914498 0.926328 0.799921
O O6 0.000000 0.980909 0.819414
O O7 0.910458 0.019979 0.881326
O O8 0.911776 0.677340 0.332850
O O9 0.835425 0.630364 0.279870
O O10 0.919167 0.330834 0.875000
O O11 0.916175 0.250000 0.991170
O O12 0.000000 0.305678 0.969099
O O13 0.825801 0.424200 0.875000
O O14 0.750000 0.414262 0.750000
#
# Coordination Sequence:
#
# PCOD9572961 Si02
#       5
#    32  32  32  32  32
#     4  10  22  40  60  81 110 148 193 240 288 339
#     4  10  22  38  58  85 114 146 189 235 278 339
#     4  11  20  34  58  81 111 147 188 228 285 335
#     4   9  18  30  47  79 118 150 181 217 269 344
#     4  10  20  35  54  79 111 145 181 224 275 332
#
# _framework density 17.824217000000001
#
# number of rings (size 3 to 8) (size 9 to 14) (size 15 to 20)
#    0.000    2.000    2.000    2.400    0.000    5.200 
#    0.000    4.000    0.000    0.000    0.000    0.000 
#    0.000   12.800    0.000    0.000    0.000    0.000 
#
# Total GULP energy -445467.279278 kJ/mol
# GULP energy per Si atom -5568.340991 kJ/mol
# Density = 1.778365 g / cm^3
# Si number density = 17.824217 Si / 1000 Ang^3
#
#
#
# Elastic Constant Matrix: (Units=GPa)
#
#
# Indices 1 2 3 4 5 6 
#
# 1 89.9328 56.6205 23.6071 0.0000 0.0000 0.0000
# 2 56.6205 89.9341 23.6099 0.0000 0.0000 0.0000
# 3 23.6071 23.6099 42.9992 0.0000 0.0000 0.0000
# 4 0.0000 0.0000 0.0000 22.5758 0.0000 0.0000
# 5 0.0000 0.0000 0.0000 0.0000 22.5750 0.0000
# 6 0.0000 0.0000 0.0000 0.0000 0.0000 37.4838
#
#
#
# Elastic Compliance Matrix: (Units=1/GPa)
#
#
# Indices 1 2 3 4 5 6 
#
# 1 0.019154 -0.010864 -0.004550 0.000000 0.000000 0.000000
# 2 -0.010864 0.019154 -0.004553 0.000000 0.000000 0.000000
# 3 -0.004550 -0.004553 0.028254 0.000000 0.000000 0.000000
# 4 0.000000 0.000000 0.000000 0.044295 0.000000 0.000000
# 5 0.000000 0.000000 0.000000 0.000000 0.044297 0.000000
# 6 0.000000 0.000000 0.000000 0.000000 0.000000 0.026678
#
#
# Mechanical properties :
#
#
# Convention : Reuss Voigt Hill
#
# Bulk Modulus (GPa) = 37.55462 47.83790 42.69626
# Shear Modulus (GPa) = 21.67853 24.46218 23.07035
#
# Velocity S-wave (km/s) = 3.49125 3.70863 3.60158
# Velocity P-wave (km/s) = 6.11285 6.72574 6.42660
#
# Compressibility (1/GPa) = 0.02662788
#
# Stress axis : x y z
#
# Youngs Moduli (GPa) = 52.20872 52.20755 35.39304
#
# Poissons Ratio (x) = 0.56720 0.16105
# Poissons Ratio (y) = 0.56721 0.16113
# Poissons Ratio (z) = 0.23757 0.23768
#
# Static dielectric constant tensor:
#      x y z
#    x 1.688060 0.000000 0.000000 
#    y 0.000000 1.688070 0.000000 
#    z 0.000000 0.000000 1.628810 
# 
# From -- ./inp_files/6652.got.cif
#   From: 2010.05.17/outbox.cif.g08.bks.cpg/sg141_4_cif.got.tgz:6652.got - 2010.05.20 13:30:51.
