data_PCOD9572879
_publ_section_title
;
Structure prediction by ZEFSAII (Michael W. Deem and Ramdas Pophale) SiO2 
 PCOD9572879
Probable space group: I 41/A M D
;
_chemical_formula_sum "Si O2"
_cell_formula_units_Z 120
_cell_length_a 13.787980
_cell_length_b 13.787980
_cell_length_c 34.903484
_cell_angle_alpha 90.000000
_cell_angle_beta 90.000000
_cell_angle_gamma 90.000000
_cell_volume 6635.445235
_symmetry_space_group_name_H-M "I 41/A M D"
_symmetry_group_IT_number 141
_space_group.IT_coordinate_system_code '2'
_symmetry_cell_setting 'tetragonal'
loop_
_space_group_symop_operation_xyz
x,y,z
1/4-y,3/4+x,1/4+z
-x,1/2-y,z
1/4+y,1/4-x,3/4+z
x,-y,-z
-x,1/2+y,-z
1/4+y,3/4+x,1/4-z
1/4-y,1/4-x,3/4-z
-x,-y,-z
3/4+y,1/4-x,3/4-z
x,1/2+y,-z
3/4-y,3/4+x,1/4-z
-x,y,z
x,1/2-y,z
3/4-y,1/4-x,3/4+z
3/4+y,3/4+x,1/4+z
1/2+x,1/2+y,1/2+z
3/4-y,1/4+x,3/4+z
1/2-x,-y,1/2+z
3/4+y,3/4-x,1/4+z
1/2+x,1/2-y,1/2-z
1/2-x,y,1/2-z
3/4+y,1/4+x,3/4-z
3/4-y,3/4-x,1/4-z
1/2-x,1/2-y,1/2-z
1/4+y,3/4-x,1/4-z
1/2+x,y,1/2-z
1/4-y,1/4+x,3/4-z
1/2-x,1/2+y,1/2+z
1/2+x,-y,1/2+z
1/4-y,3/4-x,1/4+z
1/4+y,1/4+x,3/4+z
loop_
_atom_site_type_symbol
_atom_site_label
_atom_site_fract_x
_atom_site_fract_y
_atom_site_fract_z
Si Si1 0.500000 0.030337 0.544509
Si Si2 0.500000 0.250000 0.725239
Si Si3 0.785077 0.640910 0.705719
Si Si4 0.198600 0.051068 0.829706
Si Si5 0.500000 0.856155 0.770013
Si Si6 0.206487 0.250000 0.967515
O O1 0.500000 0.148301 0.547438
O O2 0.398278 0.999134 0.563401
O O3 0.500000 0.000000 0.500000
O O4 0.500000 0.142313 0.743446
O O5 0.752845 0.750000 0.693971
O O6 0.750000 0.627886 0.750000
O O7 0.748729 0.550176 0.681481
O O8 0.901454 0.639425 0.706189
O O9 0.188867 0.061133 0.875000
O O10 0.094739 0.045903 0.808796
O O11 0.500000 0.750000 0.750039
O O12 0.500000 0.946083 0.741596
#
# Coordination Sequence:
#
# PCOD9572879 Si02
#       6
#    16   8  32  32  16  16
#     4  10  21  37  60  85 118 152 202 242 282 350
#     4   8  20  32  51  84 108 148 184 238 282 334
#     4  10  20  37  60  85 108 143 195 241 281 338
#     4  11  22  37  56  86 121 156 187 234 296 351
#     4  10  20  35  61  86 102 139 194 249 279 326
#     4  10  19  34  58  81 111 147 193 229 281 337
#
# _framework density 18.084693999999999
#
# number of rings (size 3 to 8) (size 9 to 14) (size 15 to 20)
#    0.000    1.867    2.667    1.600    3.733    0.000 
#    2.400    4.000    0.000    0.000    0.000    0.000 
#    0.000    0.000    0.000    0.000    0.000    0.000 
#
# Total GULP energy -334130.330476 kJ/mol
# GULP energy per Si atom -5568.838841 kJ/mol
# Density = 1.804353 g / cm^3
# Si number density = 18.084694 Si / 1000 Ang^3
#
#
#
# Elastic Constant Matrix: (Units=GPa)
#
#
# Indices 1 2 3 4 5 6 
#
# 1 124.5615 42.8073 32.2332 0.0000 0.0000 0.0000
# 2 42.8073 124.5609 32.2329 0.0000 0.0000 0.0000
# 3 32.2332 32.2329 71.9532 0.0000 0.0000 0.0000
# 4 0.0000 0.0000 0.0000 83.9921 0.0000 0.0000
# 5 0.0000 0.0000 0.0000 0.0000 84.0639 0.0000
# 6 0.0000 0.0000 0.0000 0.0000 0.0000 10.0254
#
#
#
# Elastic Compliance Matrix: (Units=1/GPa)
#
#
# Indices 1 2 3 4 5 6 
#
# 1 0.009726 -0.002506 -0.003235 0.000000 0.000000 0.000000
# 2 -0.002506 0.009726 -0.003235 0.000000 0.000000 0.000000
# 3 -0.003235 -0.003235 0.016796 0.000000 0.000000 0.000000
# 4 0.000000 0.000000 0.000000 0.011906 0.000000 0.000000
# 5 0.000000 0.000000 0.000000 0.000000 0.011896 0.000000
# 6 0.000000 0.000000 0.000000 0.000000 0.000000 0.099747
#
#
# Mechanical properties :
#
#
# Convention : Reuss Voigt Hill
#
# Bulk Modulus (GPa) = 54.64853 59.51361 57.08107
# Shear Modulus (GPa) = 27.19663 49.86977 38.53320
#
# Velocity S-wave (km/s) = 3.88216 5.25695 4.62097
# Velocity P-wave (km/s) = 7.09778 8.35626 7.75260
#
# Compressibility (1/GPa) = 0.01829875
#
# Stress axis : x y z
#
# Youngs Moduli (GPa) = 102.81418 102.81387 59.53778
#
# Poissons Ratio (x) = 0.25760 0.19259
# Poissons Ratio (y) = 0.25760 0.19259
# Poissons Ratio (z) = 0.33258 0.33257
#
# Static dielectric constant tensor:
#      x y z
#    x 1.665190 0.000000 0.000000 
#    y 0.000000 1.665190 0.000000 
#    z 0.000000 0.000000 1.571020 
# 
# From -- ./inp_files/14156.got.cif
#   From: 2010.05.17/outbox.cif.g08.bks.cpg/sg141_8_cif.got.tgz:14156.got - 2010.05.20 13:30:51.
