data_PCOD9572019
_publ_section_title
;
Structure prediction by ZEFSAII (Michael W. Deem and Ramdas Pophale) SiO2 
 PCOD9572019
Probable space group: I 4/M C M
;
_chemical_formula_sum "Si O2"
_cell_formula_units_Z 176
_cell_length_a 20.584713
_cell_length_b 20.584713
_cell_length_c 25.015121
_cell_angle_alpha 90.000000
_cell_angle_beta 90.000000
_cell_angle_gamma 90.000000
_cell_volume 10599.667460
_symmetry_space_group_name_H-M "I 4/M C M"
_symmetry_group_IT_number 140
_symmetry_cell_setting 'tetragonal'
loop_
_space_group_symop_operation_xyz
x,y,z
-y,x,z
-x,-y,z
y,-x,z
x,-y,1/2-z
-x,y,1/2-z
y,x,1/2-z
-y,-x,1/2-z
-x,-y,-z
y,-x,-z
x,y,-z
-y,x,-z
-x,y,1/2+z
x,-y,1/2+z
-y,-x,1/2+z
y,x,1/2+z
1/2+x,1/2+y,1/2+z
1/2-y,1/2+x,1/2+z
1/2-x,1/2-y,1/2+z
1/2+y,1/2-x,1/2+z
1/2+x,1/2-y,-z
1/2-x,1/2+y,-z
1/2+y,1/2+x,-z
1/2-y,1/2-x,-z
1/2-x,1/2-y,1/2-z
1/2+y,1/2-x,1/2-z
1/2+x,1/2+y,1/2-z
1/2-y,1/2+x,1/2-z
1/2-x,1/2+y,z
1/2+x,1/2-y,z
1/2-y,1/2-x,z
1/2+y,1/2+x,z
loop_
_atom_site_type_symbol
_atom_site_label
_atom_site_fract_x
_atom_site_fract_y
_atom_site_fract_z
Si Si1 0.716280 0.113872 0.059483
Si Si2 0.764958 0.841125 0.329113
Si Si3 0.257882 0.864573 0.350669
Si Si4 0.447308 0.052693 0.064977
Si Si5 0.297579 0.038567 0.062446
Si Si6 0.181875 0.423863 0.755318
O O1 0.642446 0.142446 0.062531
O O2 0.752942 0.146226 0.108374
O O3 0.720913 0.036889 0.065186
O O4 0.739976 0.131611 0.000000
O O5 0.715390 0.784611 0.309554
O O6 0.835894 0.809402 0.327179
O O7 0.739385 0.903497 0.296710
O O8 0.302804 0.802804 0.367148
O O9 0.256286 0.914147 0.399956
O O10 0.294202 0.899237 0.302108
O O11 0.372990 0.039784 0.080576
O O12 0.500000 0.000000 0.084550
O O13 0.449839 0.050162 0.000000
O O14 0.294851 0.058764 0.000000
O O15 0.169999 0.500000 0.750000
O O16 0.117635 0.382366 0.770616
#
# Coordination Sequence:
#
# PCOD9572019 Si02
#       6
#    32  32  32  16  32  32
#     4   9  17  29  45  66  94 128 162 196 237 286
#     4   9  18  32  49  67  90 126 164 202 243 285
#     4  10  19  31  47  67  93 124 166 204 242 285
#     4   9  16  26  40  60  91 134 172 198 229 272
#     4  10  18  28  43  66  98 130 164 204 239 280
#     4  10  20  34  52  71  97 128 160 196 236 287
#
# _framework density 16.604295
#
# number of rings (size 3 to 8) (size 9 to 14) (size 15 to 20)
#    0.000    2.455    0.909    2.182    0.000    5.273 
#    0.000    2.727    0.000    0.000    0.000    0.000 
#    0.000   29.818    0.000   16.000    0.000    0.364 
#
# Total GULP energy -489993.098202 kJ/mol
# GULP energy per Si atom -5568.103389 kJ/mol
# Density = 1.656650 g / cm^3
# Si number density = 16.604295 Si / 1000 Ang^3
#
#
#
# Elastic Constant Matrix: (Units=GPa)
#
#
# Indices 1 2 3 4 5 6 
#
# 1 55.0132 44.4318 20.0514 0.0000 0.0000 0.0000
# 2 44.4318 55.0132 20.0515 0.0000 0.0000 0.0000
# 3 20.0514 20.0515 56.9381 0.0000 0.0000 0.0000
# 4 0.0000 0.0000 0.0000 20.0906 0.0000 0.0000
# 5 0.0000 0.0000 0.0000 0.0000 20.0905 0.0000
# 6 0.0000 0.0000 0.0000 0.0000 0.0000 12.1456
#
#
#
# Elastic Compliance Matrix: (Units=1/GPa)
#
#
# Indices 1 2 3 4 5 6 
#
# 1 0.053113 -0.041393 -0.004127 0.000000 0.000000 0.000000
# 2 -0.041393 0.053113 -0.004127 0.000000 0.000000 0.000000
# 3 -0.004127 -0.004127 0.020470 0.000000 0.000000 0.000000
# 4 0.000000 0.000000 0.000000 0.049775 0.000000 0.000000
# 5 0.000000 0.000000 0.000000 0.000000 0.049775 0.000000
# 6 0.000000 0.000000 0.000000 0.000000 0.000000 0.082334
#
#
# Mechanical properties :
#
#
# Convention : Reuss Voigt Hill
#
# Bulk Modulus (GPa) = 36.49531 37.33710 36.91621
# Shear Modulus (GPa) = 11.99017 15.96066 13.97542
#
# Velocity S-wave (km/s) = 2.69013 3.10375 2.90431
# Velocity P-wave (km/s) = 5.62816 5.94807 5.79033
#
# Compressibility (1/GPa) = 0.02740078
#
# Stress axis : x y z
#
# Youngs Moduli (GPa) = 18.82778 18.82778 48.85204
#
# Poissons Ratio (x) = 0.77933 0.20163
# Poissons Ratio (y) = 0.77933 0.20163
# Poissons Ratio (z) = 0.07771 0.07771
#
# Static dielectric constant tensor:
#      x y z
#    x 1.566990 0.000000 0.000000 
#    y 0.000000 1.566990 0.000000 
#    z 0.000000 0.000000 1.589130 
# 
# From -- ./inp_files/10729.got.cif
#   From: 2010.05.17/outbox.cif.g08.bks.cpg/sg140_6_cif.got.tgz:10729.got - 2010.06.21 00:45:31.
