data_PCOD9572912
_publ_section_title
;
Structure prediction by ZEFSAII (Michael W. Deem and Ramdas Pophale) SiO2 
 PCOD9572912
Probable space group: I 41/A M D
;
_chemical_formula_sum "Si O2"
_cell_formula_units_Z 80
_cell_length_a 21.782555
_cell_length_b 21.782555
_cell_length_c 9.439557
_cell_angle_alpha 90.000000
_cell_angle_beta 90.000000
_cell_angle_gamma 90.000000
_cell_volume 4478.878195
_symmetry_space_group_name_H-M "I 41/A M D"
_symmetry_group_IT_number 141
_space_group.IT_coordinate_system_code '2'
_symmetry_cell_setting 'tetragonal'
loop_
_space_group_symop_operation_xyz
x,y,z
1/4-y,3/4+x,1/4+z
-x,1/2-y,z
1/4+y,1/4-x,3/4+z
x,-y,-z
-x,1/2+y,-z
1/4+y,3/4+x,1/4-z
1/4-y,1/4-x,3/4-z
-x,-y,-z
3/4+y,1/4-x,3/4-z
x,1/2+y,-z
3/4-y,3/4+x,1/4-z
-x,y,z
x,1/2-y,z
3/4-y,1/4-x,3/4+z
3/4+y,3/4+x,1/4+z
1/2+x,1/2+y,1/2+z
3/4-y,1/4+x,3/4+z
1/2-x,-y,1/2+z
3/4+y,3/4-x,1/4+z
1/2+x,1/2-y,1/2-z
1/2-x,y,1/2-z
3/4+y,1/4+x,3/4-z
3/4-y,3/4-x,1/4-z
1/2-x,1/2-y,1/2-z
1/4+y,3/4-x,1/4-z
1/2+x,y,1/2-z
1/4-y,1/4+x,3/4-z
1/2-x,1/2+y,1/2+z
1/2+x,-y,1/2+z
1/4-y,3/4-x,1/4+z
1/4+y,1/4+x,3/4+z
loop_
_atom_site_type_symbol
_atom_site_label
_atom_site_fract_x
_atom_site_fract_y
_atom_site_fract_z
Si Si1 0.217581 0.625093 0.451423
Si Si2 0.928045 0.910917 0.059868
Si Si3 0.250000 0.096914 0.250000
O O1 0.283800 0.641080 0.386534
O O2 0.170028 0.663596 0.356605
O O3 0.222631 0.635440 0.619775
O O4 0.195758 0.554493 0.439770
O O5 0.901047 0.848954 0.125000
O O6 0.000000 0.918576 0.084871
#
# Coordination Sequence:
#
# PCOD9572912 Si02
#       3
#    32  32  16
#     4  10  20  34  56  92 120 147 188 236 319 361
#     4  11  23  39  58  81 117 161 205 250 288 354
#     4  10  20  30  61  88 125 152 168 242 310 388
#
# _framework density 17.861615
#
# number of rings (size 3 to 8) (size 9 to 14) (size 15 to 20)
#    0.000    1.600    4.000    2.400    5.600    0.400 
#    0.000    4.000    0.000    0.000    0.000    0.000 
#    0.000    0.000    0.000    0.000    0.000    0.000 
#
# Total GULP energy -222934.178463 kJ/mol
# GULP energy per Si atom -5573.354462 kJ/mol
# Density = 1.782096 g / cm^3
# Si number density = 17.861615 Si / 1000 Ang^3
#
#
#
# Elastic Constant Matrix: (Units=GPa)
#
#
# Indices 1 2 3 4 5 6 
#
# 1 76.8035 36.7753 37.0154 0.0000 0.0000 0.0000
# 2 36.7753 76.8108 37.0185 0.0000 0.0000 0.0000
# 3 37.0154 37.0185 133.6236 0.0000 0.0000 0.0000
# 4 0.0000 0.0000 0.0000 21.1776 0.0000 0.0000
# 5 0.0000 0.0000 0.0000 0.0000 21.1761 0.0000
# 6 0.0000 0.0000 0.0000 0.0000 0.0000 6.4220
#
#
#
# Elastic Compliance Matrix: (Units=1/GPa)
#
#
# Indices 1 2 3 4 5 6 
#
# 1 0.017863 -0.007118 -0.002976 0.000000 0.000000 0.000000
# 2 -0.007118 0.017861 -0.002976 0.000000 0.000000 0.000000
# 3 -0.002976 -0.002976 0.009133 0.000000 0.000000 0.000000
# 4 0.000000 0.000000 0.000000 0.047220 0.000000 0.000000
# 5 0.000000 0.000000 0.000000 0.000000 0.047223 0.000000
# 6 0.000000 0.000000 0.000000 0.000000 0.000000 0.155714
#
#
# Mechanical properties :
#
#
# Convention : Reuss Voigt Hill
#
# Bulk Modulus (GPa) = 53.43137 56.53958 54.98548
# Shear Modulus (GPa) = 15.27213 21.51706 18.39459
#
# Velocity S-wave (km/s) = 2.92725 3.47458 3.21259
# Velocity P-wave (km/s) = 6.43460 6.91519 6.67922
#
# Compressibility (1/GPa) = 0.01871560
#
# Stress axis : x y z
#
# Youngs Moduli (GPa) = 55.98188 55.98654 109.49563
#
# Poissons Ratio (x) = 0.39851 0.32589
# Poissons Ratio (y) = 0.39848 0.32591
# Poissons Ratio (z) = 0.16662 0.16664
#
# Static dielectric constant tensor:
#      x y z
#    x 1.606520 0.000000 0.000000 
#    y 0.000000 1.606510 0.000000 
#    z 0.000000 0.000000 1.686170 
# 
# From -- ./inp_files/2365.got.cif
#   From: 2010.05.17/outbox.cif.g08.bks.cpg/sg141_2_cif.got.tgz:2365.got - 2010.05.20 13:30:51.
