data_PCOD9572386
_publ_section_title
;
Structure prediction by ZEFSAII (Michael W. Deem and Ramdas Pophale) SiO2 
 PCOD9572386
Probable space group: I 4/M C M
;
_chemical_formula_sum "Si O2"
_cell_formula_units_Z 212
_cell_length_a 20.325932
_cell_length_b 20.325932
_cell_length_c 27.643990
_cell_angle_alpha 90.000000
_cell_angle_beta 90.000000
_cell_angle_gamma 90.000000
_cell_volume 11420.935105
_symmetry_space_group_name_H-M "I 4/M C M"
_symmetry_group_IT_number 140
_symmetry_cell_setting 'tetragonal'
loop_
_space_group_symop_operation_xyz
x,y,z
-y,x,z
-x,-y,z
y,-x,z
x,-y,1/2-z
-x,y,1/2-z
y,x,1/2-z
-y,-x,1/2-z
-x,-y,-z
y,-x,-z
x,y,-z
-y,x,-z
-x,y,1/2+z
x,-y,1/2+z
-y,-x,1/2+z
y,x,1/2+z
1/2+x,1/2+y,1/2+z
1/2-y,1/2+x,1/2+z
1/2-x,1/2-y,1/2+z
1/2+y,1/2-x,1/2+z
1/2+x,1/2-y,-z
1/2-x,1/2+y,-z
1/2+y,1/2+x,-z
1/2-y,1/2-x,-z
1/2-x,1/2-y,1/2-z
1/2+y,1/2-x,1/2-z
1/2+x,1/2+y,1/2-z
1/2-y,1/2+x,1/2-z
1/2-x,1/2+y,z
1/2+x,1/2-y,z
1/2-y,1/2-x,z
1/2+y,1/2+x,z
loop_
_atom_site_type_symbol
_atom_site_label
_atom_site_fract_x
_atom_site_fract_y
_atom_site_fract_z
Si Si1 0.227748 0.543009 0.593647
Si Si2 0.106365 0.976084 0.345851
Si Si3 0.265118 0.516749 0.698534
Si Si4 0.558778 0.324172 0.445699
Si Si5 0.328339 0.275189 0.699748
Si Si6 0.905128 0.405128 0.552610
Si Si7 0.500000 0.000000 0.000000
Si Si8 0.203371 0.186752 0.593661
O O1 0.227868 0.512727 0.647597
O O2 0.261012 0.488629 0.559532
O O3 0.155393 0.562995 0.579456
O O4 0.269325 0.611613 0.590660
O O5 0.130287 0.966084 0.401244
O O6 0.048341 0.924415 0.338177
O O7 0.168904 0.973753 0.310436
O O8 0.233695 0.500000 0.750000
O O9 0.280531 0.593983 0.701026
O O10 0.552511 0.351758 0.500000
O O11 0.635327 0.308050 0.435216
O O12 0.301671 0.301671 0.750000
O O13 0.299071 0.200930 0.694055
O O14 0.303454 0.310942 0.651057
O O15 0.880089 0.380089 0.500000
O O16 0.959066 0.459066 0.540883
O O17 0.260134 0.239867 0.579926
#
# Coordination Sequence:
#
# PCOD9572386 Si02
#       8
#    32  32  32  32  32  16   4  32
#     4  10  21  40  64  88 124 169 206 263 313 390
#     4  10  22  38  54  78 117 166 215 259 306 374
#     4  10  22  33  58  88 120 157 206 254 312 371
#     4  11  23  37  55  88 125 161 203 261 328 384
#     4   9  19  34  58  82 114 156 200 251 305 368
#     4  10  20  42  70  94 118 156 220 263 320 377
#     4   8  24  40  72 104 106 152 208 280 300 382
#     4  10  21  40  61  91 123 160 215 264 317 378
#
# _framework density 18.562403
#
# number of rings (size 3 to 8) (size 9 to 14) (size 15 to 20)
#    0.226    1.811    0.755    3.170    7.396    3.321 
#    1.358    1.509    1.660    0.000    0.000    0.000 
#    0.000    0.000    0.000    0.000    0.000    0.000 
#
# Total GULP energy -590230.425636 kJ/mol
# GULP energy per Si atom -5568.211563 kJ/mol
# Density = 1.852015 g / cm^3
# Si number density = 18.562403 Si / 1000 Ang^3
#
#
#
# Elastic Constant Matrix: (Units=GPa)
#
#
# Indices 1 2 3 4 5 6 
#
# 1 49.9267 56.1692 17.4237 0.0000 0.0000 0.0000
# 2 56.1692 49.9267 17.4237 0.0000 0.0000 0.0000
# 3 17.4237 17.4237 86.2883 0.0000 0.0000 0.0000
# 4 0.0000 0.0000 0.0000 15.1498 0.0000 0.0000
# 5 0.0000 0.0000 0.0000 0.0000 15.1498 0.0000
# 6 0.0000 0.0000 0.0000 0.0000 0.0000 27.0061
#
#
#
# Elastic Compliance Matrix: (Units=1/GPa)
#
#
# Indices 1 2 3 4 5 6 
#
# 1 -0.075049 0.085144 -0.002038 0.000000 0.000000 0.000000
# 2 0.085144 -0.075049 -0.002038 0.000000 0.000000 0.000000
# 3 -0.002038 -0.002038 0.012412 0.000000 0.000000 0.000000
# 4 0.000000 0.000000 0.000000 0.066007 0.000000 0.000000
# 5 0.000000 0.000000 0.000000 0.000000 0.066007 0.000000
# 6 0.000000 0.000000 0.000000 0.000000 0.000000 0.037029
#
#
# Mechanical properties :
#
#
# Convention : Reuss Voigt Hill
#
# Bulk Modulus (GPa) = 40.90227 40.90831 40.90529
# Shear Modulus (GPa) = -40.77465 17.80281 -11.48592
#
# Velocity S-wave (km/s) = -4.69190 3.10026 -2.49021
# Velocity P-wave (km/s) = 2.69612 5.90776 3.71702
#
# Compressibility (1/GPa) = 0.02444852
#
# Stress axis : x y z
#
# Youngs Moduli (GPa) = -13.32470 -13.32470 80.56547
#
# Poissons Ratio (x) = 1.13451 0.16423
# Poissons Ratio (y) = 1.13451 0.16423
# Poissons Ratio (z) = -0.02716 -0.02716
#
# Static dielectric constant tensor:
#      x y z
#    x 1.635810 0.000000 0.000000 
#    y 0.000000 1.635810 0.000000 
#    z 0.000000 0.000000 1.671480 
# 
# From -- ./inp_files/10946.got.cif
#   From: 2010.05.17/outbox.cif.g08.bks.cpg/sg140_6_cif.got.tgz:10946.got - 2010.06.21 00:45:31.
