data_PCOD9572185
_publ_section_title
;
Structure prediction by ZEFSAII (Michael W. Deem and Ramdas Pophale) SiO2 
 PCOD9572185
Probable space group: I 4/M C M
;
_chemical_formula_sum "Si O2"
_cell_formula_units_Z 96
_cell_length_a 24.770277
_cell_length_b 24.770277
_cell_length_c 8.551931
_cell_angle_alpha 90.000000
_cell_angle_beta 90.000000
_cell_angle_gamma 90.000000
_cell_volume 5247.179421
_symmetry_space_group_name_H-M "I 4/M C M"
_symmetry_group_IT_number 140
_symmetry_cell_setting 'tetragonal'
loop_
_space_group_symop_operation_xyz
x,y,z
-y,x,z
-x,-y,z
y,-x,z
x,-y,1/2-z
-x,y,1/2-z
y,x,1/2-z
-y,-x,1/2-z
-x,-y,-z
y,-x,-z
x,y,-z
-y,x,-z
-x,y,1/2+z
x,-y,1/2+z
-y,-x,1/2+z
y,x,1/2+z
1/2+x,1/2+y,1/2+z
1/2-y,1/2+x,1/2+z
1/2-x,1/2-y,1/2+z
1/2+y,1/2-x,1/2+z
1/2+x,1/2-y,-z
1/2-x,1/2+y,-z
1/2+y,1/2+x,-z
1/2-y,1/2-x,-z
1/2-x,1/2-y,1/2-z
1/2+y,1/2-x,1/2-z
1/2+x,1/2+y,1/2-z
1/2-y,1/2+x,1/2-z
1/2-x,1/2+y,z
1/2+x,1/2-y,z
1/2-y,1/2-x,z
1/2+y,1/2+x,z
loop_
_atom_site_type_symbol
_atom_site_label
_atom_site_fract_x
_atom_site_fract_y
_atom_site_fract_z
Si Si1 0.851600 0.648401 0.809882
Si Si2 0.439981 0.642296 0.686567
Si Si3 0.854474 0.228013 0.311885
Si Si4 0.439837 0.060164 0.688704
O O1 0.862713 0.710162 0.762196
O O2 0.895629 0.604371 0.758602
O O3 0.852595 0.647406 0.000000
O O4 0.500000 0.647805 0.750000
O O5 0.411980 0.588021 0.750000
O O6 0.439240 0.642070 0.500000
O O7 0.402528 0.690765 0.748683
O O8 0.799406 0.200595 0.250000
O O9 0.853497 0.225745 0.500000
O O10 0.500000 0.073433 0.750000
O O11 0.441082 0.058919 0.500000
#
# Coordination Sequence:
#
# PCOD9572185 Si02
#       4
#    16  32  32  16
#     4   9  20  35  56  82 111 142 181 224 267 319
#     4  11  22  38  57  81 110 145 184 228 274 324
#     4  10  19  35  55  80 112 147 180 222 271 320
#     4  10  20  38  57  78 105 138 174 219 270 320
#
# _framework density 18.295544
#
# number of rings (size 3 to 8) (size 9 to 14) (size 15 to 20)
#    0.000    1.833    0.000    7.500    0.000    1.667 
#    0.000   14.167    0.000    0.000    0.000    0.000 
#    0.000    0.000    0.000    0.000    0.000    0.000 
#
# Total GULP energy -268072.290144 kJ/mol
# GULP energy per Si atom -5584.839378 kJ/mol
# Density = 1.825390 g / cm^3
# Si number density = 18.295544 Si / 1000 Ang^3
#
#
#
# Elastic Constant Matrix: (Units=GPa)
#
#
# Indices 1 2 3 4 5 6 
#
# 1 152.6650 100.1831 42.8464 0.0000 0.0000 0.0000
# 2 100.1831 152.6641 42.8502 0.0000 0.0000 0.0000
# 3 42.8464 42.8502 109.2774 0.0000 0.0000 0.0000
# 4 0.0000 0.0000 0.0000 28.4396 0.0000 0.0000
# 5 0.0000 0.0000 0.0000 0.0000 28.4398 0.0000
# 6 0.0000 0.0000 0.0000 0.0000 0.0000 25.0792
#
#
#
# Elastic Compliance Matrix: (Units=1/GPa)
#
#
# Indices 1 2 3 4 5 6 
#
# 1 0.011808 -0.007247 -0.001788 0.000000 0.000000 0.000000
# 2 -0.007247 0.011808 -0.001789 0.000000 0.000000 0.000000
# 3 -0.001788 -0.001789 0.010554 0.000000 0.000000 0.000000
# 4 0.000000 0.000000 0.000000 0.035162 0.000000 0.000000
# 5 0.000000 0.000000 0.000000 0.000000 0.035162 0.000000
# 6 0.000000 0.000000 0.000000 0.000000 0.000000 0.039874
#
#
# Mechanical properties :
#
#
# Convention : Reuss Voigt Hill
#
# Bulk Modulus (GPa) = 79.85948 87.37400 83.61674
# Shear Modulus (GPa) = 29.37930 31.64018 30.50974
#
# Velocity S-wave (km/s) = 4.01161 4.16311 4.08806
# Velocity P-wave (km/s) = 8.07476 8.42433 8.25140
#
# Compressibility (1/GPa) = 0.01252199
#
# Stress axis : x y z
#
# Youngs Moduli (GPa) = 84.69152 84.68909 94.75501
#
# Poissons Ratio (x) = 0.61371 0.16943
# Poissons Ratio (y) = 0.61373 0.16950
# Poissons Ratio (z) = 0.15143 0.15149
#
# Static dielectric constant tensor:
#      x y z
#    x 1.616830 0.000000 0.000000 
#    y 0.000000 1.616820 0.000000 
#    z 0.000000 0.000000 1.618120 
# 
# From -- ./inp_files/963.got.cif
#   From: 2010.05.17/outbox.cif.g08.bks.cpg/sg140_1_cif.got.tgz:963.got - 2010.06.21 00:45:31.
