data_PCOD9572263
_publ_section_title
;
Structure prediction by ZEFSAII (Michael W. Deem and Ramdas Pophale) SiO2 
 PCOD9572263
Probable space group: I 4/M C M
;
_chemical_formula_sum "Si O2"
_cell_formula_units_Z 224
_cell_length_a 23.015841
_cell_length_b 23.015841
_cell_length_c 23.457018
_cell_angle_alpha 90.000000
_cell_angle_beta 90.000000
_cell_angle_gamma 90.000000
_cell_volume 12425.861209
_symmetry_space_group_name_H-M "I 4/M C M"
_symmetry_group_IT_number 140
_symmetry_cell_setting 'tetragonal'
loop_
_space_group_symop_operation_xyz
x,y,z
-y,x,z
-x,-y,z
y,-x,z
x,-y,1/2-z
-x,y,1/2-z
y,x,1/2-z
-y,-x,1/2-z
-x,-y,-z
y,-x,-z
x,y,-z
-y,x,-z
-x,y,1/2+z
x,-y,1/2+z
-y,-x,1/2+z
y,x,1/2+z
1/2+x,1/2+y,1/2+z
1/2-y,1/2+x,1/2+z
1/2-x,1/2-y,1/2+z
1/2+y,1/2-x,1/2+z
1/2+x,1/2-y,-z
1/2-x,1/2+y,-z
1/2+y,1/2+x,-z
1/2-y,1/2-x,-z
1/2-x,1/2-y,1/2-z
1/2+y,1/2-x,1/2-z
1/2+x,1/2+y,1/2-z
1/2-y,1/2+x,1/2-z
1/2-x,1/2+y,z
1/2+x,1/2-y,z
1/2-y,1/2-x,z
1/2+y,1/2+x,z
loop_
_atom_site_type_symbol
_atom_site_label
_atom_site_fract_x
_atom_site_fract_y
_atom_site_fract_z
Si Si1 0.128027 0.533573 0.665360
Si Si2 0.581711 0.170395 0.714917
Si Si3 0.047538 0.914292 0.434929
Si Si4 0.197351 0.932733 0.736395
Si Si5 0.374217 0.645995 0.844058
Si Si6 0.911998 0.687324 0.062009
Si Si7 0.783139 0.814859 0.434351
O O1 0.065114 0.565114 0.657574
O O2 0.132867 0.466037 0.680428
O O3 0.156683 0.565815 0.719385
O O4 0.168915 0.545607 0.611669
O O5 0.644930 0.144930 0.702413
O O6 0.574945 0.238908 0.709288
O O7 0.058984 0.893666 0.500000
O O8 0.074951 0.873717 0.386929
O O9 0.978438 0.923895 0.429321
O O10 0.150295 0.907662 0.692549
O O11 0.190728 0.897239 0.795928
O O12 0.187891 0.000000 0.750000
O O13 0.323104 0.670642 0.884465
O O14 0.863830 0.636171 0.060948
O O15 0.873835 0.744732 0.070494
O O16 0.940483 0.690237 0.000000
O O17 0.804903 0.811625 0.500000
O O18 0.739102 0.760899 0.426166
#
# Coordination Sequence:
#
# PCOD9572263 Si02
#       7
#    32  32  32  32  32  32  32
#     4   9  16  29  52  77 102 134 169 214 265 313
#     4  10  20  34  52  74 104 140 177 221 266 309
#     4   9  18  35  58  82 107 133 167 216 270 320
#     4  11  23  38  51  75 110 141 177 222 268 316
#     4  11  22  34  56  78 104 142 180 218 259 324
#     4   8  14  26  47  76 107 136 168 209 259 307
#     4   9  18  32  51  79 111 139 174 221 264 307
#
# _framework density 18.026918999999999
#
# number of rings (size 3 to 8) (size 9 to 14) (size 15 to 20)
#    0.000    2.429    1.429    3.429    0.000    2.571 
#    0.000    2.857    0.000    4.714    0.000    2.000 
#    0.000    0.000    0.000    0.000    0.000    0.000 
#
# Total GULP energy -623953.948115 kJ/mol
# GULP energy per Si atom -5571.017394 kJ/mol
# Density = 1.798589 g / cm^3
# Si number density = 18.026919 Si / 1000 Ang^3
#
#
#
# Elastic Constant Matrix: (Units=GPa)
#
#
# Indices 1 2 3 4 5 6 
#
# 1 25.9974 30.2452 12.4513 0.0000 0.0000 0.0000
# 2 30.2452 25.9974 12.4513 0.0000 0.0000 0.0000
# 3 12.4513 12.4513 76.6445 0.0000 0.0000 0.0000
# 4 0.0000 0.0000 0.0000 15.1717 0.0000 0.0000
# 5 0.0000 0.0000 0.0000 0.0000 15.1717 0.0000
# 6 0.0000 0.0000 0.0000 0.0000 0.0000 21.2265
#
#
#
# Elastic Compliance Matrix: (Units=1/GPa)
#
#
# Indices 1 2 3 4 5 6 
#
# 1 -0.108129 0.127287 -0.003112 0.000000 0.000000 0.000000
# 2 0.127287 -0.108129 -0.003112 0.000000 0.000000 0.000000
# 3 -0.003112 -0.003112 0.014058 0.000000 0.000000 0.000000
# 4 0.000000 0.000000 0.000000 0.065912 0.000000 0.000000
# 5 0.000000 0.000000 0.000000 0.000000 0.065912 0.000000
# 6 0.000000 0.000000 0.000000 0.000000 0.000000 0.047111
#
#
# Mechanical properties :
#
#
# Convention : Reuss Voigt Hill
#
# Bulk Modulus (GPa) = 25.04669 26.54833 25.79751
# Shear Modulus (GPa) = -19.83500 15.21340 -2.31080
#
# Velocity S-wave (km/s) = -3.32067 2.90819 -1.13342
# Velocity P-wave (km/s) = 0.88221 5.10253 3.55370
#
# Compressibility (1/GPa) = 0.03992544
#
# Stress axis : x y z
#
# Youngs Moduli (GPa) = -9.24823 -9.24823 71.13143
#
# Poissons Ratio (x) = 1.17718 0.22139
# Poissons Ratio (y) = 1.17718 0.22139
# Poissons Ratio (z) = -0.02878 -0.02878
#
# Static dielectric constant tensor:
#      x y z
#    x 1.624100 0.000000 0.000000 
#    y 0.000000 1.624100 0.000000 
#    z 0.000000 0.000000 1.634920 
# 
# From -- ./inp_files/9969.got.cif
#   From: 2010.05.17/outbox.cif.g08.bks.cpg/sg140_5_cif.got.tgz:9969.got - 2010.06.21 00:45:31.
