data_PCOD9572829
_publ_section_title
;
Structure prediction by ZEFSAII (Michael W. Deem and Ramdas Pophale) SiO2 
 PCOD9572829
Probable space group: I 41/A M D
;
_chemical_formula_sum "Si O2"
_cell_formula_units_Z 160
_cell_length_a 23.026149
_cell_length_b 23.026149
_cell_length_c 15.222439
_cell_angle_alpha 90.000000
_cell_angle_beta 90.000000
_cell_angle_gamma 90.000000
_cell_volume 8070.991011
_symmetry_space_group_name_H-M "I 41/A M D"
_symmetry_group_IT_number 141
_space_group.IT_coordinate_system_code '2'
_symmetry_cell_setting 'tetragonal'
loop_
_space_group_symop_operation_xyz
x,y,z
1/4-y,3/4+x,1/4+z
-x,1/2-y,z
1/4+y,1/4-x,3/4+z
x,-y,-z
-x,1/2+y,-z
1/4+y,3/4+x,1/4-z
1/4-y,1/4-x,3/4-z
-x,-y,-z
3/4+y,1/4-x,3/4-z
x,1/2+y,-z
3/4-y,3/4+x,1/4-z
-x,y,z
x,1/2-y,z
3/4-y,1/4-x,3/4+z
3/4+y,3/4+x,1/4+z
1/2+x,1/2+y,1/2+z
3/4-y,1/4+x,3/4+z
1/2-x,-y,1/2+z
3/4+y,3/4-x,1/4+z
1/2+x,1/2-y,1/2-z
1/2-x,y,1/2-z
3/4+y,1/4+x,3/4-z
3/4-y,3/4-x,1/4-z
1/2-x,1/2-y,1/2-z
1/4+y,3/4-x,1/4-z
1/2+x,y,1/2-z
1/4-y,1/4+x,3/4-z
1/2-x,1/2+y,1/2+z
1/2+x,-y,1/2+z
1/4-y,3/4-x,1/4+z
1/4+y,1/4+x,3/4+z
loop_
_atom_site_type_symbol
_atom_site_label
_atom_site_fract_x
_atom_site_fract_y
_atom_site_fract_z
Si Si1 0.377473 0.817094 0.947357
Si Si2 0.375917 0.817142 0.133808
Si Si3 0.761732 0.819989 0.651153
Si Si4 0.568145 0.991190 0.404025
Si Si5 0.430057 0.086643 0.756237
O O1 0.426547 0.823454 0.875000
O O2 0.364991 0.750000 0.967313
O O3 0.319975 0.841022 0.898596
O O4 0.398946 0.841514 0.040634
O O5 0.392359 0.750000 0.149192
O O6 0.306584 0.819378 0.117596
O O7 0.397054 0.855343 0.215092
O O8 0.768352 0.750000 0.658846
O O9 0.750000 0.842352 0.750000
O O10 0.708803 0.830696 0.585143
O O11 0.500000 0.975171 0.417563
O O12 0.595674 0.000000 0.500000
O O13 0.589954 0.944619 0.333743
O O14 0.500000 0.096238 0.751400
#
# Coordination Sequence:
#
# PCOD9572829 Si02
#       5
#    32  32  32  32  32
#     4  10  19  31  47  73 112 153 191 236 288 349
#     4  10  20  34  53  82 117 147 188 244 295 349
#     4   9  16  28  47  71 100 140 193 236 267 326
#     4   9  18  35  57  79 105 142 191 235 275 334
#     4  10  19  33  54  81 112 150 191 233 289 350
#
# _framework density 19.824085
#
# number of rings (size 3 to 8) (size 9 to 14) (size 15 to 20)
#    0.000    2.400    2.000    1.200    0.000    3.800 
#    0.000    2.000    0.000    0.000    5.200    5.600 
#    0.000    0.000    0.000    0.000    0.000    0.000 
#
# Total GULP energy -445438.972078 kJ/mol
# GULP energy per Si atom -5567.987151 kJ/mol
# Density = 1.977896 g / cm^3
# Si number density = 19.824085 Si / 1000 Ang^3
#
#
#
# Elastic Constant Matrix: (Units=GPa)
#
#
# Indices 1 2 3 4 5 6 
#
# 1 50.2992 29.6291 40.1215 0.0000 0.0000 0.0000
# 2 29.6291 50.3012 40.1216 0.0000 0.0000 0.0000
# 3 40.1215 40.1216 165.1313 0.0000 0.0000 0.0000
# 4 0.0000 0.0000 0.0000 26.7248 0.0000 0.0000
# 5 0.0000 0.0000 0.0000 0.0000 26.7243 0.0000
# 6 0.0000 0.0000 0.0000 0.0000 0.0000 1.3869
#
#
#
# Elastic Compliance Matrix: (Units=1/GPa)
#
#
# Indices 1 2 3 4 5 6 
#
# 1 0.032463 -0.015915 -0.004021 0.000000 0.000000 0.000000
# 2 -0.015915 0.032461 -0.004020 0.000000 0.000000 0.000000
# 3 -0.004021 -0.004020 0.008009 0.000000 0.000000 0.000000
# 4 0.000000 0.000000 0.000000 0.037418 0.000000 0.000000
# 5 0.000000 0.000000 0.000000 0.000000 0.037419 0.000000
# 6 0.000000 0.000000 0.000000 0.000000 0.000000 0.721033
#
#
# Mechanical properties :
#
#
# Convention : Reuss Voigt Hill
#
# Bulk Modulus (GPa) = 39.96447 53.94180 46.95313
# Shear Modulus (GPa) = 5.40507 21.35783 13.38145
#
# Velocity S-wave (km/s) = 1.65301 3.28589 2.60091
# Velocity P-wave (km/s) = 4.88329 6.45487 5.72328
#
# Compressibility (1/GPa) = 0.02502223
#
# Stress axis : x y z
#
# Youngs Moduli (GPa) = 30.80440 30.80595 124.85220
#
# Poissons Ratio (x) = 0.49027 0.50199
# Poissons Ratio (y) = 0.49025 0.50194
# Poissons Ratio (z) = 0.12385 0.12385
#
# Static dielectric constant tensor:
#      x y z
#    x 1.723590 0.000000 0.000000 
#    y 0.000000 1.723580 0.000000 
#    z 0.000000 0.000000 1.798920 
# 
# From -- ./inp_files/6650.got.cif
#   From: 2010.05.17/outbox.cif.g08.bks.cpg/sg141_4_cif.got.tgz:6650.got - 2010.05.20 13:30:51.
