data_PCOD9572689
_publ_section_title
;
Structure prediction by ZEFSAII (Michael W. Deem and Ramdas Pophale) SiO2 
 PCOD9572689
Probable space group: I 4/M C M
;
_chemical_formula_sum "Si O2"
_cell_formula_units_Z 100
_cell_length_a 13.419817
_cell_length_b 13.419817
_cell_length_c 23.863101
_cell_angle_alpha 90.000000
_cell_angle_beta 90.000000
_cell_angle_gamma 90.000000
_cell_volume 4297.541375
_symmetry_space_group_name_H-M "I 4/M C M"
_symmetry_group_IT_number 140
_symmetry_cell_setting 'tetragonal'
loop_
_space_group_symop_operation_xyz
x,y,z
-y,x,z
-x,-y,z
y,-x,z
x,-y,1/2-z
-x,y,1/2-z
y,x,1/2-z
-y,-x,1/2-z
-x,-y,-z
y,-x,-z
x,y,-z
-y,x,-z
-x,y,1/2+z
x,-y,1/2+z
-y,-x,1/2+z
y,x,1/2+z
1/2+x,1/2+y,1/2+z
1/2-y,1/2+x,1/2+z
1/2-x,1/2-y,1/2+z
1/2+y,1/2-x,1/2+z
1/2+x,1/2-y,-z
1/2-x,1/2+y,-z
1/2+y,1/2+x,-z
1/2-y,1/2-x,-z
1/2-x,1/2-y,1/2-z
1/2+y,1/2-x,1/2-z
1/2+x,1/2+y,1/2-z
1/2-y,1/2+x,1/2-z
1/2-x,1/2+y,z
1/2+x,1/2-y,z
1/2-y,1/2-x,z
1/2+y,1/2+x,z
loop_
_atom_site_type_symbol
_atom_site_label
_atom_site_fract_x
_atom_site_fract_y
_atom_site_fract_z
Si Si1 0.000000 0.500000 0.500000
Si Si2 0.646055 0.431532 0.597045
Si Si3 0.396103 0.103898 0.110178
Si Si4 0.553324 0.216551 0.190604
Si Si5 0.255582 0.244419 0.439010
O O1 0.938458 0.561543 0.448638
O O2 0.627008 0.545413 0.582253
O O3 0.676444 0.428427 0.662133
O O4 0.734028 0.371876 0.567879
O O5 0.482618 0.155060 0.147571
O O6 0.311073 0.188928 0.101961
O O7 0.500000 0.222144 0.250000
O O8 0.655784 0.155784 0.195897
O O9 0.223955 0.276045 0.500000
#
# Coordination Sequence:
#
# PCOD9572689 Si02
#       5
#     4  32  16  32  16
#     4  12  24  40  78 108 156 196 256 322 372 444
#     4  11  26  49  73 108 152 194 253 310 378 460
#     4  12  24  44  70 111 153 195 260 311 379 450
#     4  12  24  44  77 112 153 201 252 318 385 452
#     4  12  26  48  77 104 148 206 254 310 383 458
#
# _framework density 23.269117999999999
#
# number of rings (size 3 to 8) (size 9 to 14) (size 15 to 20)
#    0.000    0.320    8.800    0.000    0.000    2.560 
#    5.760    6.400    0.000    0.000    0.000    0.000 
#    0.000    0.000    0.000    0.000    0.000    0.000 
#
# Total GULP energy -279145.668378 kJ/mol
# GULP energy per Si atom -5582.913368 kJ/mol
# Density = 2.321616 g / cm^3
# Si number density = 23.269118 Si / 1000 Ang^3
#
#
#
# Elastic Constant Matrix: (Units=GPa)
#
#
# Indices 1 2 3 4 5 6 
#
# 1 84.0313 47.6139 19.0856 0.0000 0.0000 0.0000
# 2 47.6139 84.0308 19.0855 0.0000 0.0000 0.0000
# 3 19.0856 19.0855 125.4683 0.0000 0.0000 0.0000
# 4 0.0000 0.0000 0.0000 16.4948 0.0000 0.0000
# 5 0.0000 0.0000 0.0000 0.0000 16.4950 0.0000
# 6 0.0000 0.0000 0.0000 0.0000 0.0000 38.8532
#
#
#
# Elastic Compliance Matrix: (Units=1/GPa)
#
#
# Indices 1 2 3 4 5 6 
#
# 1 0.017703 -0.009756 -0.001209 0.000000 0.000000 0.000000
# 2 -0.009756 0.017703 -0.001209 0.000000 0.000000 0.000000
# 3 -0.001209 -0.001209 0.008338 0.000000 0.000000 0.000000
# 4 0.000000 0.000000 0.000000 0.060625 0.000000 0.000000
# 5 0.000000 0.000000 0.000000 0.000000 0.060624 0.000000
# 6 0.000000 0.000000 0.000000 0.000000 0.000000 0.025738
#
#
# Mechanical properties :
#
#
# Convention : Reuss Voigt Hill
#
# Bulk Modulus (GPa) = 51.55690 51.67782 51.61736
# Shear Modulus (GPa) = 22.56875 28.21829 25.39352
#
# Velocity S-wave (km/s) = 3.11770 3.48615 3.30706
# Velocity P-wave (km/s) = 5.93001 6.20172 6.06738
#
# Compressibility (1/GPa) = 0.01939605
#
# Stress axis : x y z
#
# Youngs Moduli (GPa) = 56.48733 56.48704 119.93430
#
# Poissons Ratio (x) = 0.55111 0.14498
# Poissons Ratio (y) = 0.55112 0.14498
# Poissons Ratio (z) = 0.06828 0.06828
#
# Static dielectric constant tensor:
#      x y z
#    x 1.909090 0.000000 0.000000 
#    y 0.000000 1.909090 0.000000 
#    z 0.000000 0.000000 1.855950 
# 
# From -- ./inp_files/9005.got.cif
#   From: 2010.05.17/outbox.cif.g08.bks.cpg/sg140_5_cif.got.tgz:9005.got - 2010.06.21 00:45:31.
