data_PCOD9572766
_publ_section_title
;
Structure prediction by ZEFSAII (Michael W. Deem and Ramdas Pophale) SiO2 
 PCOD9572766
Probable space group: I 41/A M D
;
_chemical_formula_sum "Si O2"
_cell_formula_units_Z 192
_cell_length_a 29.948985
_cell_length_b 29.948985
_cell_length_c 13.624054
_cell_angle_alpha 90.000000
_cell_angle_beta 90.000000
_cell_angle_gamma 90.000000
_cell_volume 12219.982190
_symmetry_space_group_name_H-M "I 41/A M D"
_symmetry_group_IT_number 141
_space_group.IT_coordinate_system_code '2'
_symmetry_cell_setting 'tetragonal'
loop_
_space_group_symop_operation_xyz
x,y,z
1/4-y,3/4+x,1/4+z
-x,1/2-y,z
1/4+y,1/4-x,3/4+z
x,-y,-z
-x,1/2+y,-z
1/4+y,3/4+x,1/4-z
1/4-y,1/4-x,3/4-z
-x,-y,-z
3/4+y,1/4-x,3/4-z
x,1/2+y,-z
3/4-y,3/4+x,1/4-z
-x,y,z
x,1/2-y,z
3/4-y,1/4-x,3/4+z
3/4+y,3/4+x,1/4+z
1/2+x,1/2+y,1/2+z
3/4-y,1/4+x,3/4+z
1/2-x,-y,1/2+z
3/4+y,3/4-x,1/4+z
1/2+x,1/2-y,1/2-z
1/2-x,y,1/2-z
3/4+y,1/4+x,3/4-z
3/4-y,3/4-x,1/4-z
1/2-x,1/2-y,1/2-z
1/4+y,3/4-x,1/4-z
1/2+x,y,1/2-z
1/4-y,1/4+x,3/4-z
1/2-x,1/2+y,1/2+z
1/2+x,-y,1/2+z
1/4-y,3/4-x,1/4+z
1/4+y,1/4+x,3/4+z
loop_
_atom_site_type_symbol
_atom_site_label
_atom_site_fract_x
_atom_site_fract_y
_atom_site_fract_z
Si Si1 0.451106 0.047771 0.778954
Si Si2 0.174429 0.896719 0.016981
Si Si3 0.138097 0.914897 0.821325
Si Si4 0.236439 0.551405 0.528118
Si Si5 0.450236 0.941898 0.787131
Si Si6 0.083564 0.448639 0.505750
O O1 0.500000 0.064170 0.746754
O O2 0.406666 0.068667 0.732250
O O3 0.446591 0.053572 0.896902
O O4 0.449031 0.994612 0.762167
O O5 0.165781 0.915781 0.125000
O O6 0.136188 0.908116 0.938166
O O7 0.218339 0.919873 0.968370
O O8 0.169538 0.957108 0.796411
O O9 0.090264 0.920042 0.771389
O O10 0.164512 0.873374 0.774569
O O11 0.247044 0.500000 0.500000
O O12 0.206164 0.543837 0.625000
O O13 0.500000 0.924907 0.765467
O O14 0.440743 0.938850 0.903725
O O15 0.100841 0.500000 0.500000
#
# Coordination Sequence:
#
# PCOD9572766 Si02
#       6
#    32  32  32  32  32  32
#     4   9  18  34  52  71  96 133 177 217 257 303
#     4  11  24  37  50  71 100 138 182 218 257 299
#     4  11  21  32  48  72 103 132 176 214 248 302
#     4  12  21  32  48  70  99 140 172 205 247 293
#     4  10  18  30  48  73 104 136 168 208 259 309
#     4   9  17  29  49  76 102 131 164 208 259 304
#
# _framework density 15.711970000000001
#
# number of rings (size 3 to 8) (size 9 to 14) (size 15 to 20)
#    0.000    1.667    3.333    3.000    2.333    2.000 
#    0.000    0.833    0.000    2.000    0.000    0.000 
#    0.000   43.000    0.000    0.000    0.000    0.000 
#
# Total GULP energy -535128.917180 kJ/mol
# GULP energy per Si atom -5574.259554 kJ/mol
# Density = 1.567621 g / cm^3
# Si number density = 15.711970 Si / 1000 Ang^3
#
#
#
# Elastic Constant Matrix: (Units=GPa)
#
#
# Indices 1 2 3 4 5 6 
#
# 1 88.5071 35.5181 27.2377 0.0000 0.0000 0.0000
# 2 35.5181 88.5070 27.2380 0.0000 0.0000 0.0000
# 3 27.2377 27.2380 72.7943 0.0000 0.0000 0.0000
# 4 0.0000 0.0000 0.0000 10.2724 0.0000 0.0000
# 5 0.0000 0.0000 0.0000 0.0000 10.2726 0.0000
# 6 0.0000 0.0000 0.0000 0.0000 0.0000 9.1039
#
#
#
# Elastic Compliance Matrix: (Units=1/GPa)
#
#
# Indices 1 2 3 4 5 6 
#
# 1 0.014260 -0.004612 -0.003610 0.000000 0.000000 0.000000
# 2 -0.004612 0.014260 -0.003610 0.000000 0.000000 0.000000
# 3 -0.003610 -0.003610 0.016439 0.000000 0.000000 0.000000
# 4 0.000000 0.000000 0.000000 0.097349 0.000000 0.000000
# 5 0.000000 0.000000 0.000000 0.000000 0.097347 0.000000
# 6 0.000000 0.000000 0.000000 0.000000 0.000000 0.109844
#
#
# Mechanical properties :
#
#
# Convention : Reuss Voigt Hill
#
# Bulk Modulus (GPa) = 46.95887 47.75511 47.35699
# Shear Modulus (GPa) = 13.14886 16.58406 14.86646
#
# Velocity S-wave (km/s) = 2.89601 3.25238 3.07935
# Velocity P-wave (km/s) = 6.41363 6.67563 6.54594
#
# Compressibility (1/GPa) = 0.02129523
#
# Stress axis : x y z
#
# Youngs Moduli (GPa) = 70.12511 70.12491 60.83061
#
# Poissons Ratio (x) = 0.32339 0.21961
# Poissons Ratio (y) = 0.32339 0.21962
# Poissons Ratio (z) = 0.25317 0.25317
#
# Static dielectric constant tensor:
#      x y z
#    x 1.526160 0.000000 0.000000 
#    y 0.000000 1.526160 0.000000 
#    z 0.000000 0.000000 1.568020 
# 
# From -- ./inp_files/6926.got.cif
#   From: 2010.05.17/outbox.cif.g08.bks.cpg/sg141_4_cif.got.tgz:6926.got - 2010.05.20 13:30:51.
