data_PCOD9572181
_publ_section_title
;
Structure prediction by ZEFSAII (Michael W. Deem and Ramdas Pophale) SiO2 
 PCOD9572181
Probable space group: I 4/M C M
;
_chemical_formula_sum "Si O2"
_cell_formula_units_Z 72
_cell_length_a 26.351934
_cell_length_b 26.351934
_cell_length_c 5.458284
_cell_angle_alpha 90.000000
_cell_angle_beta 90.000000
_cell_angle_gamma 90.000000
_cell_volume 3790.365731
_symmetry_space_group_name_H-M "I 4/M C M"
_symmetry_group_IT_number 140
_symmetry_cell_setting 'tetragonal'
loop_
_space_group_symop_operation_xyz
x,y,z
-y,x,z
-x,-y,z
y,-x,z
x,-y,1/2-z
-x,y,1/2-z
y,x,1/2-z
-y,-x,1/2-z
-x,-y,-z
y,-x,-z
x,y,-z
-y,x,-z
-x,y,1/2+z
x,-y,1/2+z
-y,-x,1/2+z
y,x,1/2+z
1/2+x,1/2+y,1/2+z
1/2-y,1/2+x,1/2+z
1/2-x,1/2-y,1/2+z
1/2+y,1/2-x,1/2+z
1/2+x,1/2-y,-z
1/2-x,1/2+y,-z
1/2+y,1/2+x,-z
1/2-y,1/2-x,-z
1/2-x,1/2-y,1/2-z
1/2+y,1/2-x,1/2-z
1/2+x,1/2+y,1/2-z
1/2-y,1/2+x,1/2-z
1/2-x,1/2+y,z
1/2+x,1/2-y,z
1/2-y,1/2-x,z
1/2+y,1/2+x,z
loop_
_atom_site_type_symbol
_atom_site_label
_atom_site_fract_x
_atom_site_fract_y
_atom_site_fract_z
Si Si1 0.727211 0.772789 0.000000
Si Si2 0.525850 0.896529 0.500000
Si Si3 0.554659 0.783983 0.500000
Si Si4 0.606865 0.756014 0.000000
Si Si5 0.183747 0.017494 0.000000
O O1 0.750000 0.750000 0.750000
O O2 0.667332 0.759243 0.000000
O O3 0.500000 0.914662 0.750000
O O4 0.583083 0.916918 0.500000
O O5 0.524535 0.836065 0.500000
O O6 0.587447 0.781343 0.747879
O O7 0.516514 0.736049 0.500000
O O8 0.576142 0.701976 0.000000
O O9 0.157437 0.000000 0.250000
#
# Coordination Sequence:
#
# PCOD9572181 Si02
#       5
#     8  16  16  16  16
#     4  12  26  40  50  72 108 140 175 202 223 296
#     4  12  25  38  52  69  95 126 158 202 254 324
#     4  10  19  35  54  79  93 107 154 220 266 302
#     4  10  20  33  55  70  93 128 156 196 262 294
#     4   8  14  27  47  70  91 104 136 200 260 291
#
# _framework density 18.995526999999999
#
# number of rings (size 3 to 8) (size 9 to 14) (size 15 to 20)
#    0.000    1.778    0.000    7.333    3.111    1.333 
#    0.000    0.000    0.000    0.000    0.000    0.000 
#    0.000    0.000    0.000    0.000    0.000    0.000 
#
# Total GULP energy -200719.320489 kJ/mol
# GULP energy per Si atom -5575.536680 kJ/mol
# Density = 1.895229 g / cm^3
# Si number density = 18.995527 Si / 1000 Ang^3
#
#
#
# Elastic Constant Matrix: (Units=GPa)
#
#
# Indices 1 2 3 4 5 6 
#
# 1 37.9846 20.3064 31.4825 0.0000 0.0000 0.0000
# 2 20.3064 37.9874 31.4815 0.0000 0.0000 0.0000
# 3 31.4825 31.4815 217.3074 0.0000 0.0000 0.0000
# 4 0.0000 0.0000 0.0000 16.2741 0.0000 0.0000
# 5 0.0000 0.0000 0.0000 0.0000 16.2615 0.0000
# 6 0.0000 0.0000 0.0000 0.0000 0.0000 13.2188
#
#
#
# Elastic Compliance Matrix: (Units=1/GPa)
#
#
# Indices 1 2 3 4 5 6 
#
# 1 0.038452 -0.018113 -0.002947 0.000000 0.000000 0.000000
# 2 -0.018113 0.038448 -0.002946 0.000000 0.000000 0.000000
# 3 -0.002947 -0.002946 0.005455 0.000000 0.000000 0.000000
# 4 0.000000 0.000000 0.000000 0.061447 0.000000 0.000000
# 5 0.000000 0.000000 0.000000 0.000000 0.061495 0.000000
# 6 0.000000 0.000000 0.000000 0.000000 0.000000 0.075650
#
#
# Mechanical properties :
#
#
# Convention : Reuss Voigt Hill
#
# Bulk Modulus (GPa) = 29.11648 51.09113 40.10380
# Shear Modulus (GPa) = 14.68834 23.15148 18.91991
#
# Velocity S-wave (km/s) = 2.78376 3.49490 3.15940
# Velocity P-wave (km/s) = 5.06890 6.57575 5.87087
#
# Compressibility (1/GPa) = 0.03434482
#
# Stress axis : x y z
#
# Youngs Moduli (GPa) = 26.00667 26.00912 183.30250
#
# Poissons Ratio (x) = 0.47109 0.54014
# Poissons Ratio (y) = 0.47105 0.54000
# Poissons Ratio (z) = 0.07663 0.07662
#
# Static dielectric constant tensor:
#      x y z
#    x 1.652040 0.000000 0.000000 
#    y 0.000000 1.652030 0.000000 
#    z 0.000000 0.000000 1.761490 
# 
# From -- ./inp_files/148.got.cif
#   From: 2010.05.17/outbox.cif.g08.bks.cpg/sg140_1_cif.got.tgz:148.got - 2010.06.21 00:45:31.
