data_PCOD9572996
_publ_section_title
;
Structure prediction by ZEFSAII (Michael W. Deem and Ramdas Pophale) SiO2 
 PCOD9572996
Probable space group: I 41/A M D
;
_chemical_formula_sum "Si O2"
_cell_formula_units_Z 112
_cell_length_a 12.941307
_cell_length_b 12.941307
_cell_length_c 25.165104
_cell_angle_alpha 90.000000
_cell_angle_beta 90.000000
_cell_angle_gamma 90.000000
_cell_volume 4214.586865
_symmetry_space_group_name_H-M "I 41/A M D"
_symmetry_group_IT_number 141
_space_group.IT_coordinate_system_code '2'
_symmetry_cell_setting 'tetragonal'
loop_
_space_group_symop_operation_xyz
x,y,z
1/4-y,3/4+x,1/4+z
-x,1/2-y,z
1/4+y,1/4-x,3/4+z
x,-y,-z
-x,1/2+y,-z
1/4+y,3/4+x,1/4-z
1/4-y,1/4-x,3/4-z
-x,-y,-z
3/4+y,1/4-x,3/4-z
x,1/2+y,-z
3/4-y,3/4+x,1/4-z
-x,y,z
x,1/2-y,z
3/4-y,1/4-x,3/4+z
3/4+y,3/4+x,1/4+z
1/2+x,1/2+y,1/2+z
3/4-y,1/4+x,3/4+z
1/2-x,-y,1/2+z
3/4+y,3/4-x,1/4+z
1/2+x,1/2-y,1/2-z
1/2-x,y,1/2-z
3/4+y,1/4+x,3/4-z
3/4-y,3/4-x,1/4-z
1/2-x,1/2-y,1/2-z
1/4+y,3/4-x,1/4-z
1/2+x,y,1/2-z
1/4-y,1/4+x,3/4-z
1/2-x,1/2+y,1/2+z
1/2+x,-y,1/2+z
1/4-y,3/4-x,1/4+z
1/4+y,1/4+x,3/4+z
loop_
_atom_site_type_symbol
_atom_site_label
_atom_site_fract_x
_atom_site_fract_y
_atom_site_fract_z
Si Si1 0.108082 0.132921 0.554971
Si Si2 0.879345 0.370656 0.375000
Si Si3 0.117680 0.409893 0.790347
Si Si4 0.664633 0.089333 0.826903
O O1 0.102860 0.250000 0.535760
O O2 0.219456 0.099840 0.536132
O O3 0.000000 0.081679 0.540358
O O4 0.116381 0.131355 0.619024
O O5 0.869080 0.250000 0.357790
O O6 0.785057 0.392554 0.416116
O O7 0.215217 0.374074 0.824873
O O8 0.121488 0.373592 0.729390
O O9 0.000000 0.397519 0.809991
#
# Coordination Sequence:
#
# PCOD9572996 Si02
#       4
#    32  16  32  32
#     4  10  20  36  59  85 115 155 202 247 297 361
#     4  11  22  34  52  80 114 151 188 230 288 349
#     4  10  21  35  56  84 114 153 201 245 291 351
#     4  11  21  37  58  81 117 157 191 246 300 348
#
# _framework density 26.574372
#
# number of rings (size 3 to 8) (size 9 to 14) (size 15 to 20)
#    0.000    1.571    2.857    2.571    0.000    1.143 
#    0.000    8.571    0.000    4.286    0.000    8.000 
#    0.000    0.000    0.000    0.000    0.000    0.000 
#
# Total GULP energy -312383.904565 kJ/mol
# GULP energy per Si atom -5578.284010 kJ/mol
# Density = 2.651389 g / cm^3
# Si number density = 26.574372 Si / 1000 Ang^3
#
#
#
# Elastic Constant Matrix: (Units=GPa)
#
#
# Indices 1 2 3 4 5 6 
#
# 1 175.1151 7.1837 5.0908 0.0000 0.0000 0.0000
# 2 7.1837 175.1151 5.0913 0.0000 0.0000 0.0000
# 3 5.0908 5.0913 69.7342 0.0000 0.0000 0.0000
# 4 0.0000 0.0000 0.0000 -117.8186 0.0000 0.0000
# 5 0.0000 0.0000 0.0000 0.0000 -117.8208 0.0000
# 6 0.0000 0.0000 0.0000 0.0000 0.0000 0.8532
#
#
#
# Elastic Compliance Matrix: (Units=1/GPa)
#
#
# Indices 1 2 3 4 5 6 
#
# 1 0.005731 -0.000223 -0.000402 0.000000 0.000000 0.000000
# 2 -0.000223 0.005731 -0.000402 0.000000 0.000000 0.000000
# 3 -0.000402 -0.000402 0.014399 0.000000 0.000000 0.000000
# 4 0.000000 0.000000 0.000000 -0.008488 0.000000 0.000000
# 5 0.000000 0.000000 0.000000 0.000000 -0.008487 0.000000
# 6 0.000000 0.000000 0.000000 0.000000 0.000000 1.172104
#
#
# Mechanical properties :
#
#
# Convention : Reuss Voigt Hill
#
# Bulk Modulus (GPa) = 42.00561 50.52176 46.26368
# Shear Modulus (GPa) = 4.19822 -20.11732 -7.95955
#
# Velocity S-wave (km/s) = 1.25826 -2.75438 -1.73254
# Velocity P-wave (km/s) = 4.23699 2.98952 3.66670
#
# Compressibility (1/GPa) = 0.02380635
#
# Stress axis : x y z
#
# Youngs Moduli (GPa) = 174.47794 174.47787 69.44984
#
# Poissons Ratio (x) = 0.03898 0.02793
# Poissons Ratio (y) = 0.03898 0.02793
# Poissons Ratio (z) = 0.07016 0.07016
#
# Static dielectric constant tensor:
#      x y z
#    x 2.179120 0.000000 0.000000 
#    y 0.000000 2.179130 0.000000 
#    z 0.000000 0.000000 2.038860 
# 
# From -- ./inp_files/12470.got.cif
#   From: 2010.05.17/outbox.cif.g08.bks.cpg/sg141_7_cif.got.tgz:12470.got - 2010.05.20 13:30:51.
