data_PCOD9572687
_publ_section_title
;
Structure prediction by ZEFSAII (Michael W. Deem and Ramdas Pophale) SiO2 
 PCOD9572687
Probable space group: I 4/M C M
;
_chemical_formula_sum "Si O2"
_cell_formula_units_Z 176
_cell_length_a 17.122171
_cell_length_b 17.122171
_cell_length_c 32.534210
_cell_angle_alpha 90.000000
_cell_angle_beta 90.000000
_cell_angle_gamma 90.000000
_cell_volume 9538.013345
_symmetry_space_group_name_H-M "I 4/M C M"
_symmetry_group_IT_number 140
_symmetry_cell_setting 'tetragonal'
loop_
_space_group_symop_operation_xyz
x,y,z
-y,x,z
-x,-y,z
y,-x,z
x,-y,1/2-z
-x,y,1/2-z
y,x,1/2-z
-y,-x,1/2-z
-x,-y,-z
y,-x,-z
x,y,-z
-y,x,-z
-x,y,1/2+z
x,-y,1/2+z
-y,-x,1/2+z
y,x,1/2+z
1/2+x,1/2+y,1/2+z
1/2-y,1/2+x,1/2+z
1/2-x,1/2-y,1/2+z
1/2+y,1/2-x,1/2+z
1/2+x,1/2-y,-z
1/2-x,1/2+y,-z
1/2+y,1/2+x,-z
1/2-y,1/2-x,-z
1/2-x,1/2-y,1/2-z
1/2+y,1/2-x,1/2-z
1/2+x,1/2+y,1/2-z
1/2-y,1/2+x,1/2-z
1/2-x,1/2+y,z
1/2+x,1/2-y,z
1/2-y,1/2-x,z
1/2+y,1/2+x,z
loop_
_atom_site_type_symbol
_atom_site_label
_atom_site_fract_x
_atom_site_fract_y
_atom_site_fract_z
Si Si1 0.907032 0.273483 0.829065
Si Si2 0.979888 0.277270 0.403071
Si Si3 0.517923 0.627271 0.049233
Si Si4 0.433781 0.933781 0.951113
Si Si5 0.620950 0.247310 0.760138
Si Si6 0.217359 0.149686 0.346723
O O1 0.840567 0.340567 0.827810
O O2 0.929630 0.258644 0.781285
O O3 0.864813 0.194276 0.844959
O O4 0.970741 0.297639 0.862318
O O5 0.023534 0.210317 0.428925
O O6 0.961355 0.353495 0.429713
O O7 0.900849 0.237666 0.386102
O O8 0.435693 0.584779 0.059754
O O9 0.519374 0.637399 0.000000
O O10 0.500000 0.000000 0.945453
O O11 0.422384 0.922384 0.000000
O O12 0.689214 0.310787 0.750000
O O13 0.663730 0.163730 0.764401
O O14 0.596838 0.273530 0.805640
O O15 0.282387 0.217614 0.343380
#
# Coordination Sequence:
#
# PCOD9572687 Si02
#       6
#    32  32  32  16  32  32
#     4   9  18  31  50  75 104 138 173 214 254 306
#     4  12  20  33  55  81 101 135 177 226 265 312
#     4   9  19  36  57  81 108 135 164 209 275 340
#     4  11  26  44  56  70 101 146 188 227 278 333
#     4   7  12  26  46  68 101 138 169 203 248 303
#     4   9  17  31  49  76 105 133 173 214 256 301
#
# _framework density 18.452480000000001
#
# number of rings (size 3 to 8) (size 9 to 14) (size 15 to 20)
#    0.000    2.636    0.909    4.909    0.000    0.727 
#    0.000    0.000    0.000    0.000    0.000    0.000 
#    0.000   11.636    0.000    0.000    0.000    0.000 
#
# Total GULP energy -490062.998920 kJ/mol
# GULP energy per Si atom -5568.897715 kJ/mol
# Density = 1.841048 g / cm^3
# Si number density = 18.452480 Si / 1000 Ang^3
#
#
#
# Elastic Constant Matrix: (Units=GPa)
#
#
# Indices 1 2 3 4 5 6 
#
# 1 48.4784 12.4467 37.9530 0.0000 0.0000 0.0000
# 2 12.4467 48.4785 37.9533 0.0000 0.0000 0.0000
# 3 37.9530 37.9533 108.9607 0.0000 0.0000 0.0000
# 4 0.0000 0.0000 0.0000 32.8282 0.0000 0.0000
# 5 0.0000 0.0000 0.0000 0.0000 32.8281 0.0000
# 6 0.0000 0.0000 0.0000 0.0000 0.0000 12.0448
#
#
#
# Elastic Compliance Matrix: (Units=1/GPa)
#
#
# Indices 1 2 3 4 5 6 
#
# 1 0.028375 0.000622 -0.010100 0.000000 0.000000 0.000000
# 2 0.000622 0.028376 -0.010101 0.000000 0.000000 0.000000
# 3 -0.010100 -0.010101 0.016214 0.000000 0.000000 0.000000
# 4 0.000000 0.000000 0.000000 0.030462 0.000000 0.000000
# 5 0.000000 0.000000 0.000000 0.000000 0.030462 0.000000
# 6 0.000000 0.000000 0.000000 0.000000 0.000000 0.083023
#
#
# Mechanical properties :
#
#
# Convention : Reuss Voigt Hill
#
# Bulk Modulus (GPa) = 29.57920 42.51374 36.04647
# Shear Modulus (GPa) = 18.70291 23.37788 21.04039
#
# Velocity S-wave (km/s) = 3.18712 3.56325 3.38042
# Velocity P-wave (km/s) = 5.44136 6.32602 5.90029
#
# Compressibility (1/GPa) = 0.03380754
#
# Stress axis : x y z
#
# Youngs Moduli (GPa) = 35.24169 35.24157 61.67505
#
# Poissons Ratio (x) = -0.02193 0.62294
# Poissons Ratio (y) = -0.02193 0.62295
# Poissons Ratio (z) = 0.35596 0.35596
#
# Static dielectric constant tensor:
#      x y z
#    x 1.635790 0.000000 0.000000 
#    y 0.000000 1.635790 0.000000 
#    z 0.000000 0.000000 1.663850 
# 
# From -- ./inp_files/11544.got.cif
#   From: 2010.05.17/outbox.cif.g08.bks.cpg/sg140_6_cif.got.tgz:11544.got - 2010.06.21 00:45:31.
