data_PCOD9572538
_publ_section_title
;
Structure prediction by ZEFSAII (Michael W. Deem and Ramdas Pophale) SiO2 
 PCOD9572538
Probable space group: I 4/M C M
;
_chemical_formula_sum "Si O2"
_cell_formula_units_Z 192
_cell_length_a 20.464491
_cell_length_b 20.464491
_cell_length_c 23.395673
_cell_angle_alpha 90.000000
_cell_angle_beta 90.000000
_cell_angle_gamma 90.000000
_cell_volume 9798.000043
_symmetry_space_group_name_H-M "I 4/M C M"
_symmetry_group_IT_number 140
_symmetry_cell_setting 'tetragonal'
loop_
_space_group_symop_operation_xyz
x,y,z
-y,x,z
-x,-y,z
y,-x,z
x,-y,1/2-z
-x,y,1/2-z
y,x,1/2-z
-y,-x,1/2-z
-x,-y,-z
y,-x,-z
x,y,-z
-y,x,-z
-x,y,1/2+z
x,-y,1/2+z
-y,-x,1/2+z
y,x,1/2+z
1/2+x,1/2+y,1/2+z
1/2-y,1/2+x,1/2+z
1/2-x,1/2-y,1/2+z
1/2+y,1/2-x,1/2+z
1/2+x,1/2-y,-z
1/2-x,1/2+y,-z
1/2+y,1/2+x,-z
1/2-y,1/2-x,-z
1/2-x,1/2-y,1/2-z
1/2+y,1/2-x,1/2-z
1/2+x,1/2+y,1/2-z
1/2-y,1/2+x,1/2-z
1/2-x,1/2+y,z
1/2+x,1/2-y,z
1/2-y,1/2-x,z
1/2+y,1/2+x,z
loop_
_atom_site_type_symbol
_atom_site_label
_atom_site_fract_x
_atom_site_fract_y
_atom_site_fract_z
Si Si1 0.575117 0.428249 0.084864
Si Si2 0.485137 0.251895 0.632712
Si Si3 0.745664 0.652967 0.931030
Si Si4 0.441880 0.372452 0.708729
Si Si5 0.882887 0.210492 0.936317
Si Si6 0.001029 0.393194 0.681127
O O1 0.588323 0.502386 0.068253
O O2 0.574055 0.415771 0.152949
O O3 0.632351 0.388896 0.058208
O O4 0.420633 0.258457 0.592970
O O5 0.467529 0.303724 0.683118
O O6 0.554122 0.269369 0.601268
O O7 0.493165 0.178144 0.654679
O O8 0.814952 0.685049 0.914421
O O9 0.690173 0.706061 0.911047
O O10 0.742341 0.651951 0.000000
O O11 0.500000 0.396482 0.750000
O O12 0.378470 0.378470 0.750000
O O13 0.884936 0.240782 0.000000
O O14 0.067661 0.432340 0.665443
O O15 0.000000 0.387572 0.750000
O O16 0.941245 0.441245 0.664974
#
# Coordination Sequence:
#
# PCOD9572538 Si02
#       6
#    32  32  32  32  32  32
#     4  11  20  33  49  74 105 150 202 241 290 329
#     4  12  22  38  63  89 120 160 208 250 309 366
#     4  10  22  40  61  85 118 160 202 251 315 379
#     4  12  22  33  52  79 118 160 201 246 292 351
#     4  11  22  38  57  82 118 156 206 260 300 360
#     4   9  20  41  68  96 122 151 195 252 314 379
#
# _framework density 19.595835000000001
#
# number of rings (size 3 to 8) (size 9 to 14) (size 15 to 20)
#    0.000    1.167    5.000    2.000    0.000    2.833 
#    0.000    0.833    0.000    2.500    0.000    5.833 
#    0.000    0.000    0.000    0.000    0.000    0.000 
#
# Total GULP energy -534537.731079 kJ/mol
# GULP energy per Si atom -5568.101365 kJ/mol
# Density = 1.955123 g / cm^3
# Si number density = 19.595835 Si / 1000 Ang^3
#
#
#
# Elastic Constant Matrix: (Units=GPa)
#
#
# Indices 1 2 3 4 5 6 
#
# 1 -411.8392 583.7017 37.1454 0.0000 0.0000 0.0000
# 2 583.7017 -411.8392 37.1454 0.0000 0.0000 0.0000
# 3 37.1454 37.1454 82.9047 0.0000 0.0000 0.0000
# 4 0.0000 0.0000 0.0000 53.3054 0.0000 0.0000
# 5 0.0000 0.0000 0.0000 0.0000 53.3054 0.0000
# 6 0.0000 0.0000 0.0000 0.0000 0.0000 -47.9359
#
#
#
# Elastic Compliance Matrix: (Units=1/GPa)
#
#
# Indices 1 2 3 4 5 6 
#
# 1 0.003106 0.004110 -0.003233 0.000000 0.000000 0.000000
# 2 0.004110 0.003106 -0.003233 0.000000 0.000000 0.000000
# 3 -0.003233 -0.003233 0.014959 0.000000 0.000000 0.000000
# 4 0.000000 0.000000 0.000000 0.018760 0.000000 0.000000
# 5 0.000000 0.000000 0.000000 0.000000 0.018760 0.000000
# 6 0.000000 0.000000 0.000000 0.000000 0.000000 -0.020861
#
#
# Mechanical properties :
#
#
# Convention : Reuss Voigt Hill
#
# Bulk Modulus (GPa) = 60.75745 63.91235 62.33490
# Shear Modulus (GPa) = 104.10594 -81.51608 11.29493
#
# Velocity S-wave (km/s) = 7.29670 -6.45670 2.40343
# Velocity P-wave (km/s) = 10.10256 4.78531 6.29137
#
# Compressibility (1/GPa) = 0.01645889
#
# Stress axis : x y z
#
# Youngs Moduli (GPa) = 321.97069 321.97069 66.84794
#
# Poissons Ratio (x) = -1.32341 0.21613
# Poissons Ratio (y) = -1.32341 0.21613
# Poissons Ratio (z) = 1.04100 1.04100
#
# Static dielectric constant tensor:
#      x y z
#    x 1.726000 0.000000 0.000000 
#    y 0.000000 1.726000 0.000000 
#    z 0.000000 0.000000 1.719460 
# 
# From -- ./inp_files/9798.got.cif
#   From: 2010.05.17/outbox.cif.g08.bks.cpg/sg140_5_cif.got.tgz:9798.got - 2010.06.21 00:45:31.
