data_PCOD9572662
_publ_section_title
;
Structure prediction by ZEFSAII (Michael W. Deem and Ramdas Pophale) SiO2 
 PCOD9572662
Probable space group: I 4/M C M
;
_chemical_formula_sum "Si O2"
_cell_formula_units_Z 128
_cell_length_a 19.865367
_cell_length_b 19.865367
_cell_length_c 17.683988
_cell_angle_alpha 90.000000
_cell_angle_beta 90.000000
_cell_angle_gamma 90.000000
_cell_volume 6978.681807
_symmetry_space_group_name_H-M "I 4/M C M"
_symmetry_group_IT_number 140
_symmetry_cell_setting 'tetragonal'
loop_
_space_group_symop_operation_xyz
x,y,z
-y,x,z
-x,-y,z
y,-x,z
x,-y,1/2-z
-x,y,1/2-z
y,x,1/2-z
-y,-x,1/2-z
-x,-y,-z
y,-x,-z
x,y,-z
-y,x,-z
-x,y,1/2+z
x,-y,1/2+z
-y,-x,1/2+z
y,x,1/2+z
1/2+x,1/2+y,1/2+z
1/2-y,1/2+x,1/2+z
1/2-x,1/2-y,1/2+z
1/2+y,1/2-x,1/2+z
1/2+x,1/2-y,-z
1/2-x,1/2+y,-z
1/2+y,1/2+x,-z
1/2-y,1/2-x,-z
1/2-x,1/2-y,1/2-z
1/2+y,1/2-x,1/2-z
1/2+x,1/2+y,1/2-z
1/2-y,1/2+x,1/2-z
1/2-x,1/2+y,z
1/2+x,1/2-y,z
1/2-y,1/2-x,z
1/2+y,1/2+x,z
loop_
_atom_site_type_symbol
_atom_site_label
_atom_site_fract_x
_atom_site_fract_y
_atom_site_fract_z
Si Si1 0.995927 0.112599 0.337545
Si Si2 0.963984 0.242878 0.087636
Si Si3 0.856418 0.756149 0.718033
Si Si4 0.160483 0.449360 0.817008
O O1 0.994785 0.175051 0.393422
O O2 0.933427 0.062348 0.347745
O O3 0.000000 0.136691 0.250000
O O4 0.899457 0.236357 0.142266
O O5 0.006960 0.306528 0.116761
O O6 0.947495 0.247775 0.000000
O O7 0.824767 0.824767 0.750000
O O8 0.794813 0.705188 0.703248
O O9 0.903892 0.719558 0.779496
O O10 0.138424 0.500000 0.750000
O O11 0.100113 0.399888 0.839058
#
# Coordination Sequence:
#
# PCOD9572662 Si02
#       4
#    32  32  32  32
#     4   9  19  35  55  76 104 151 202 241 279 334
#     4  11  23  34  53  86 120 150 181 236 300 350
#     4   9  19  37  60  80 102 144 196 237 278 339
#     4   9  19  37  59  83 110 145 194 241 283 344
#
# _framework density 18.341571999999999
#
# number of rings (size 3 to 8) (size 9 to 14) (size 15 to 20)
#    0.000    2.500    0.000    3.000    7.000    2.250 
#    0.000    1.250    0.000    4.500    0.000    7.000 
#    0.000    0.000    0.000    0.000    0.000    0.000 
#
# Total GULP energy -357332.684302 kJ/mol
# GULP energy per Si atom -5583.323192 kJ/mol
# Density = 1.829983 g / cm^3
# Si number density = 18.341572 Si / 1000 Ang^3
#
#
#
# Elastic Constant Matrix: (Units=GPa)
#
#
# Indices 1 2 3 4 5 6 
#
# 1 85.7207 40.1233 47.1284 0.0000 0.0000 0.0000
# 2 40.1233 85.7207 47.1284 0.0000 0.0000 0.0000
# 3 47.1284 47.1284 118.9961 0.0000 0.0000 0.0000
# 4 0.0000 0.0000 0.0000 12.4529 0.0000 0.0000
# 5 0.0000 0.0000 0.0000 0.0000 12.4529 0.0000
# 6 0.0000 0.0000 0.0000 0.0000 0.0000 33.7114
#
#
#
# Elastic Compliance Matrix: (Units=1/GPa)
#
#
# Indices 1 2 3 4 5 6 
#
# 1 0.016614 -0.005317 -0.004474 0.000000 0.000000 0.000000
# 2 -0.005317 0.016614 -0.004474 0.000000 0.000000 0.000000
# 3 -0.004474 -0.004474 0.011948 0.000000 0.000000 0.000000
# 4 0.000000 0.000000 0.000000 0.080302 0.000000 0.000000
# 5 0.000000 0.000000 0.000000 0.000000 0.080302 0.000000
# 6 0.000000 0.000000 0.000000 0.000000 0.000000 0.029664
#
#
# Mechanical properties :
#
#
# Convention : Reuss Voigt Hill
#
# Bulk Modulus (GPa) = 60.07650 62.13306 61.10478
# Shear Modulus (GPa) = 18.55117 22.12728 20.33922
#
# Velocity S-wave (km/s) = 3.18375 3.47710 3.33365
# Velocity P-wave (km/s) = 6.80738 7.07597 6.94297
#
# Compressibility (1/GPa) = 0.01664544
#
# Stress axis : x y z
#
# Youngs Moduli (GPa) = 60.18881 60.18881 83.69705
#
# Poissons Ratio (x) = 0.32000 0.37450
# Poissons Ratio (y) = 0.32000 0.37450
# Poissons Ratio (z) = 0.26931 0.26931
#
# Static dielectric constant tensor:
#      x y z
#    x 1.653570 0.000000 0.000000 
#    y 0.000000 1.653570 0.000000 
#    z 0.000000 0.000000 1.588770 
# 
# From -- ./inp_files/6440.got.cif
#   From: 2010.05.17/outbox.cif.g08.bks.cpg/sg140_4_cif.got.tgz:6440.got - 2010.06.21 00:45:31.
