data_PCOD9572477
_publ_section_title
;
Structure prediction by ZEFSAII (Michael W. Deem and Ramdas Pophale) SiO2 
 PCOD9572477
Probable space group: I 4/M C M
;
_chemical_formula_sum "Si O2"
_cell_formula_units_Z 112
_cell_length_a 16.040803
_cell_length_b 16.040803
_cell_length_c 19.647837
_cell_angle_alpha 90.000000
_cell_angle_beta 90.000000
_cell_angle_gamma 90.000000
_cell_volume 5055.533086
_symmetry_space_group_name_H-M "I 4/M C M"
_symmetry_group_IT_number 140
_symmetry_cell_setting 'tetragonal'
loop_
_space_group_symop_operation_xyz
x,y,z
-y,x,z
-x,-y,z
y,-x,z
x,-y,1/2-z
-x,y,1/2-z
y,x,1/2-z
-y,-x,1/2-z
-x,-y,-z
y,-x,-z
x,y,-z
-y,x,-z
-x,y,1/2+z
x,-y,1/2+z
-y,-x,1/2+z
y,x,1/2+z
1/2+x,1/2+y,1/2+z
1/2-y,1/2+x,1/2+z
1/2-x,1/2-y,1/2+z
1/2+y,1/2-x,1/2+z
1/2+x,1/2-y,-z
1/2-x,1/2+y,-z
1/2+y,1/2+x,-z
1/2-y,1/2-x,-z
1/2-x,1/2-y,1/2-z
1/2+y,1/2-x,1/2-z
1/2+x,1/2+y,1/2-z
1/2-y,1/2+x,1/2-z
1/2-x,1/2+y,z
1/2+x,1/2-y,z
1/2-y,1/2-x,z
1/2+y,1/2+x,z
loop_
_atom_site_type_symbol
_atom_site_label
_atom_site_fract_x
_atom_site_fract_y
_atom_site_fract_z
Si Si1 0.576453 0.791282 0.200928
Si Si2 0.683204 0.681258 0.615525
Si Si3 0.815980 0.544662 0.081002
Si Si4 0.379745 0.569751 0.000000
O O1 0.500000 0.771784 0.250000
O O2 0.633805 0.866196 0.228898
O O3 0.637697 0.714438 0.184321
O O4 0.535444 0.819818 0.129172
O O5 0.759582 0.740419 0.592729
O O6 0.603209 0.741378 0.610750
O O7 0.665981 0.605658 0.565082
O O8 0.899521 0.600480 0.086390
O O9 0.802614 0.529112 0.000000
O O10 0.391387 0.471994 0.000000
#
# Coordination Sequence:
#
# PCOD9572477 Si02
#       4
#    32  32  32  16
#     4  11  25  42  63  90 127 174 218 264 320 384
#     4  10  21  38  62  90 123 163 209 261 317 379
#     4  10  21  38  62  92 126 163 212 274 328 379
#     4  11  21  34  58  92 127 159 196 252 318 379
#
# _framework density 22.153945
#
# number of rings (size 3 to 8) (size 9 to 14) (size 15 to 20)
#    0.000    1.571    1.429    3.000    2.000    3.714 
#    0.000    5.714    0.000    0.000    0.000    2.000 
#    0.000    0.000    0.000    0.000    0.000    0.000 
#
# Total GULP energy -313066.790182 kJ/mol
# GULP energy per Si atom -5590.478396 kJ/mol
# Density = 2.210352 g / cm^3
# Si number density = 22.153945 Si / 1000 Ang^3
#
#
#
# Elastic Constant Matrix: (Units=GPa)
#
#
# Indices 1 2 3 4 5 6 
#
# 1 71.2025 12.9773 35.1177 0.0000 0.0000 0.0000
# 2 12.9773 71.2025 35.1177 0.0000 0.0000 0.0000
# 3 35.1177 35.1177 83.8838 0.0000 0.0000 0.0000
# 4 0.0000 0.0000 0.0000 39.4838 0.0000 0.0000
# 5 0.0000 0.0000 0.0000 0.0000 39.4838 0.0000
# 6 0.0000 0.0000 0.0000 0.0000 0.0000 19.2566
#
#
#
# Elastic Compliance Matrix: (Units=1/GPa)
#
#
# Indices 1 2 3 4 5 6 
#
# 1 0.017715 0.000541 -0.007643 0.000000 0.000000 0.000000
# 2 0.000541 0.017715 -0.007643 0.000000 0.000000 0.000000
# 3 -0.007643 -0.007643 0.018321 0.000000 0.000000 0.000000
# 4 0.000000 0.000000 0.000000 0.025327 0.000000 0.000000
# 5 0.000000 0.000000 0.000000 0.000000 0.025327 0.000000
# 6 0.000000 0.000000 0.000000 0.000000 0.000000 0.051930
#
#
# Mechanical properties :
#
#
# Convention : Reuss Voigt Hill
#
# Bulk Modulus (GPa) = 41.21773 43.63490 42.42631
# Shear Modulus (GPa) = 25.78480 29.18323 27.48401
#
# Velocity S-wave (km/s) = 3.41529 3.63339 3.52603
# Velocity P-wave (km/s) = 5.84789 6.11073 5.98075
#
# Compressibility (1/GPa) = 0.02426141
#
# Stress axis : x y z
#
# Youngs Moduli (GPa) = 56.44790 56.44790 54.58337
#
# Poissons Ratio (x) = -0.03052 0.41718
# Poissons Ratio (y) = -0.03052 0.41718
# Poissons Ratio (z) = 0.43143 0.43143
#
# Static dielectric constant tensor:
#      x y z
#    x 1.795950 0.000000 0.000000 
#    y 0.000000 1.795950 0.000000 
#    z 0.000000 0.000000 1.830640 
# 
# From -- ./inp_files/6108.got.cif
#   From: 2010.05.17/outbox.cif.g08.bks.cpg/sg140_4_cif.got.tgz:6108.got - 2010.06.21 00:45:31.
