data_PCOD9572984
_publ_section_title
;
Structure prediction by ZEFSAII (Michael W. Deem and Ramdas Pophale) SiO2 
 PCOD9572984
Probable space group: I 41/A M D
;
_chemical_formula_sum "Si O2"
_cell_formula_units_Z 128
_cell_length_a 24.346772
_cell_length_b 24.346772
_cell_length_c 11.225420
_cell_angle_alpha 90.000000
_cell_angle_beta 90.000000
_cell_angle_gamma 90.000000
_cell_volume 6654.039530
_symmetry_space_group_name_H-M "I 41/A M D"
_symmetry_group_IT_number 141
_space_group.IT_coordinate_system_code '2'
_symmetry_cell_setting 'tetragonal'
loop_
_space_group_symop_operation_xyz
x,y,z
1/4-y,3/4+x,1/4+z
-x,1/2-y,z
1/4+y,1/4-x,3/4+z
x,-y,-z
-x,1/2+y,-z
1/4+y,3/4+x,1/4-z
1/4-y,1/4-x,3/4-z
-x,-y,-z
3/4+y,1/4-x,3/4-z
x,1/2+y,-z
3/4-y,3/4+x,1/4-z
-x,y,z
x,1/2-y,z
3/4-y,1/4-x,3/4+z
3/4+y,3/4+x,1/4+z
1/2+x,1/2+y,1/2+z
3/4-y,1/4+x,3/4+z
1/2-x,-y,1/2+z
3/4+y,3/4-x,1/4+z
1/2+x,1/2-y,1/2-z
1/2-x,y,1/2-z
3/4+y,1/4+x,3/4-z
3/4-y,3/4-x,1/4-z
1/2-x,1/2-y,1/2-z
1/4+y,3/4-x,1/4-z
1/2+x,y,1/2-z
1/4-y,1/4+x,3/4-z
1/2-x,1/2+y,1/2+z
1/2+x,-y,1/2+z
1/4-y,3/4-x,1/4+z
1/4+y,1/4+x,3/4+z
loop_
_atom_site_type_symbol
_atom_site_label
_atom_site_fract_x
_atom_site_fract_y
_atom_site_fract_z
Si Si1 0.851503 0.587297 0.367237
Si Si2 0.874076 0.686038 0.521628
Si Si3 0.250000 0.138730 0.750000
Si Si4 0.211740 0.500000 0.500000
Si Si5 0.746224 0.812011 0.509808
O O1 0.878335 0.643833 0.411587
O O2 0.804239 0.602280 0.272074
O O3 0.822773 0.555454 0.477409
O O4 0.894602 0.544233 0.317523
O O5 0.912644 0.662644 0.625000
O O6 0.885363 0.750000 0.494830
O O7 0.809073 0.682660 0.554535
O O8 0.253549 0.175046 0.631178
O O9 0.243072 0.493072 0.375000
O O10 0.728083 0.750000 0.532474
#
# Coordination Sequence:
#
# PCOD9572984 Si02
#       5
#    32  32  16  16  32
#     4  11  21  36  57  86 115 150 193 241 291 348
#     4  10  22  39  57  79 110 148 188 233 288 347
#     4  10  20  36  56  83 120 159 192 230 290 360
#     4  12  23  36  57  89 127 161 193 240 298 362
#     4  10  21  37  59  86 116 152 195 244 294 348
#
# _framework density 19.236435
#
# number of rings (size 3 to 8) (size 9 to 14) (size 15 to 20)
#    0.000    1.500    0.000    7.125    0.000    2.250 
#    0.000    3.125    0.000    0.000    0.000    0.000 
#    0.000    0.000    0.000    0.000    0.000    0.000 
#
# Total GULP energy -357443.383872 kJ/mol
# GULP energy per Si atom -5585.052873 kJ/mol
# Density = 1.919265 g / cm^3
# Si number density = 19.236435 Si / 1000 Ang^3
#
#
#
# Elastic Constant Matrix: (Units=GPa)
#
#
# Indices 1 2 3 4 5 6 
#
# 1 86.5845 26.9074 30.2886 0.0000 0.0000 0.0000
# 2 26.9074 86.5845 30.2886 0.0000 0.0000 0.0000
# 3 30.2886 30.2886 78.6275 0.0000 0.0000 0.0000
# 4 0.0000 0.0000 0.0000 15.1794 0.0000 0.0000
# 5 0.0000 0.0000 0.0000 0.0000 15.1794 0.0000
# 6 0.0000 0.0000 0.0000 0.0000 0.0000 0.4704
#
#
#
# Elastic Compliance Matrix: (Units=1/GPa)
#
#
# Indices 1 2 3 4 5 6 
#
# 1 0.013924 -0.002833 -0.004273 0.000000 0.000000 0.000000
# 2 -0.002833 0.013924 -0.004273 0.000000 0.000000 0.000000
# 3 -0.004273 -0.004273 0.016010 0.000000 0.000000 0.000000
# 4 0.000000 0.000000 0.000000 0.065879 0.000000 0.000000
# 5 0.000000 0.000000 0.000000 0.000000 0.065879 0.000000
# 6 0.000000 0.000000 0.000000 0.000000 0.000000 2.125803
#
#
# Mechanical properties :
#
#
# Convention : Reuss Voigt Hill
#
# Bulk Modulus (GPa) = 47.38731 47.41842 47.40287
# Shear Modulus (GPa) = 2.14481 17.11998 9.63239
#
# Velocity S-wave (km/s) = 1.05707 2.98648 2.24014
# Velocity P-wave (km/s) = 5.11639 6.04946 5.60238
#
# Compressibility (1/GPa) = 0.02110269
#
# Stress axis : x y z
#
# Youngs Moduli (GPa) = 71.81671 71.81671 62.46076
#
# Poissons Ratio (x) = 0.20342 0.26688
# Poissons Ratio (y) = 0.20342 0.26688
# Poissons Ratio (z) = 0.30685 0.30685
#
# Static dielectric constant tensor:
#      x y z
#    x 1.689450 0.000000 0.000000 
#    y 0.000000 1.689450 0.000000 
#    z 0.000000 0.000000 1.667590 
# 
# From -- ./inp_files/4627.got.cif
#   From: 2010.05.17/outbox.cif.g08.bks.cpg/sg141_3_cif.got.tgz:4627.got - 2010.05.20 13:30:51.
