data_PCOD9572883
_publ_section_title
;
Structure prediction by ZEFSAII (Michael W. Deem and Ramdas Pophale) SiO2 
 PCOD9572883
Probable space group: I 41/A M D
;
_chemical_formula_sum "Si O2"
_cell_formula_units_Z 144
_cell_length_a 28.844276
_cell_length_b 28.844276
_cell_length_c 10.032718
_cell_angle_alpha 90.000000
_cell_angle_beta 90.000000
_cell_angle_gamma 90.000000
_cell_volume 8347.143702
_symmetry_space_group_name_H-M "I 41/A M D"
_symmetry_group_IT_number 141
_space_group.IT_coordinate_system_code '2'
_symmetry_cell_setting 'tetragonal'
loop_
_space_group_symop_operation_xyz
x,y,z
1/4-y,3/4+x,1/4+z
-x,1/2-y,z
1/4+y,1/4-x,3/4+z
x,-y,-z
-x,1/2+y,-z
1/4+y,3/4+x,1/4-z
1/4-y,1/4-x,3/4-z
-x,-y,-z
3/4+y,1/4-x,3/4-z
x,1/2+y,-z
3/4-y,3/4+x,1/4-z
-x,y,z
x,1/2-y,z
3/4-y,1/4-x,3/4+z
3/4+y,3/4+x,1/4+z
1/2+x,1/2+y,1/2+z
3/4-y,1/4+x,3/4+z
1/2-x,-y,1/2+z
3/4+y,3/4-x,1/4+z
1/2+x,1/2-y,1/2-z
1/2-x,y,1/2-z
3/4+y,1/4+x,3/4-z
3/4-y,3/4-x,1/4-z
1/2-x,1/2-y,1/2-z
1/4+y,3/4-x,1/4-z
1/2+x,y,1/2-z
1/4-y,1/4+x,3/4-z
1/2-x,1/2+y,1/2+z
1/2+x,-y,1/2+z
1/4-y,3/4-x,1/4+z
1/4+y,1/4+x,3/4+z
loop_
_atom_site_type_symbol
_atom_site_label
_atom_site_fract_x
_atom_site_fract_y
_atom_site_fract_z
Si Si1 0.284889 0.465112 0.625000
Si Si2 0.395072 0.963173 0.329488
Si Si3 0.298879 0.196923 0.320030
Si Si4 0.191025 0.694125 0.338889
Si Si5 0.052337 0.123735 0.335533
O O1 0.275560 0.500000 0.500000
O O2 0.339775 0.470326 0.661023
O O3 0.411283 0.942893 0.189001
O O4 0.415709 0.933678 0.452664
O O5 0.422380 0.011992 0.348858
O O6 0.297069 0.250000 0.373308
O O7 0.250000 0.187036 0.250000
O O8 0.335992 0.195265 0.202965
O O9 0.196206 0.750000 0.318174
O O10 0.151076 0.686459 0.446371
O O11 0.086460 0.163541 0.375000
O O12 0.000000 0.140931 0.326541
#
# Coordination Sequence:
#
# PCOD9572883 Si02
#       5
#    16  32  32  32  32
#     4  12  28  46  54  78 122 170 215 232 269 350
#     4  11  21  37  59  83 113 151 192 246 294 339
#     4  10  19  34  59  90 115 139 183 244 303 347
#     4  10  19  37  64  89 110 139 191 252 308 350
#     4  10  22  37  57  86 118 152 190 233 288 357
#
# _framework density 17.251408999999999
#
# number of rings (size 3 to 8) (size 9 to 14) (size 15 to 20)
#    0.000    1.556    4.444    2.667    3.111    1.111 
#    2.000    0.000    0.000    0.000    0.000    0.000 
#    0.000    7.111    0.000    0.000    0.000    0.000 
#
# Total GULP energy -401657.889215 kJ/mol
# GULP energy per Si atom -5578.581795 kJ/mol
# Density = 1.721214 g / cm^3
# Si number density = 17.251409 Si / 1000 Ang^3
#
#
#
# Elastic Constant Matrix: (Units=GPa)
#
#
# Indices 1 2 3 4 5 6 
#
# 1 97.0500 53.4923 59.1695 0.0000 0.0000 0.0000
# 2 53.4923 97.0463 59.1760 0.0000 0.0000 0.0000
# 3 59.1695 59.1760 119.5823 0.0000 0.0000 0.0000
# 4 0.0000 0.0000 0.0000 57.2050 0.0000 0.0000
# 5 0.0000 0.0000 0.0000 0.0000 55.0470 0.0000
# 6 0.0000 0.0000 0.0000 0.0000 0.0000 22.1449
#
#
#
# Elastic Compliance Matrix: (Units=1/GPa)
#
#
# Indices 1 2 3 4 5 6 
#
# 1 0.016914 -0.006044 -0.005378 0.000000 0.000000 0.000000
# 2 -0.006044 0.016917 -0.005381 0.000000 0.000000 0.000000
# 3 -0.005378 -0.005381 0.013687 0.000000 0.000000 0.000000
# 4 0.000000 0.000000 0.000000 0.017481 0.000000 0.000000
# 5 0.000000 0.000000 0.000000 0.000000 0.018166 0.000000
# 6 0.000000 0.000000 0.000000 0.000000 0.000000 0.045157
#
#
# Mechanical properties :
#
#
# Convention : Reuss Voigt Hill
#
# Bulk Modulus (GPa) = 71.88323 73.03936 72.46129
# Shear Modulus (GPa) = 30.01830 36.33544 33.17687
#
# Velocity S-wave (km/s) = 4.17591 4.59435 4.39012
# Velocity P-wave (km/s) = 8.06285 8.40084 8.23358
#
# Compressibility (1/GPa) = 0.01391145
#
# Stress axis : x y z
#
# Youngs Moduli (GPa) = 59.12187 59.11297 73.06442
#
# Poissons Ratio (x) = 0.35725 0.39298
# Poissons Ratio (y) = 0.35730 0.39316
# Poissons Ratio (z) = 0.31799 0.31809
#
# Static dielectric constant tensor:
#      x y z
#    x 1.582970 0.000000 0.000000 
#    y 0.000000 1.582970 0.000000 
#    z 0.000000 0.000000 1.620450 
# 
# From -- ./inp_files/4801.got.cif
#   From: 2010.05.17/outbox.cif.g08.bks.cpg/sg141_3_cif.got.tgz:4801.got - 2010.05.20 13:30:51.
