data_PCOD9572914
_publ_section_title
;
Structure prediction by ZEFSAII (Michael W. Deem and Ramdas Pophale) SiO2 
 PCOD9572914
Probable space group: I 41/A M D
;
_chemical_formula_sum "Si O2"
_cell_formula_units_Z 160
_cell_length_a 21.220262
_cell_length_b 21.220262
_cell_length_c 19.435239
_cell_angle_alpha 90.000000
_cell_angle_beta 90.000000
_cell_angle_gamma 90.000000
_cell_volume 8751.678780
_symmetry_space_group_name_H-M "I 41/A M D"
_symmetry_group_IT_number 141
_space_group.IT_coordinate_system_code '2'
_symmetry_cell_setting 'tetragonal'
loop_
_space_group_symop_operation_xyz
x,y,z
1/4-y,3/4+x,1/4+z
-x,1/2-y,z
1/4+y,1/4-x,3/4+z
x,-y,-z
-x,1/2+y,-z
1/4+y,3/4+x,1/4-z
1/4-y,1/4-x,3/4-z
-x,-y,-z
3/4+y,1/4-x,3/4-z
x,1/2+y,-z
3/4-y,3/4+x,1/4-z
-x,y,z
x,1/2-y,z
3/4-y,1/4-x,3/4+z
3/4+y,3/4+x,1/4+z
1/2+x,1/2+y,1/2+z
3/4-y,1/4+x,3/4+z
1/2-x,-y,1/2+z
3/4+y,3/4-x,1/4+z
1/2+x,1/2-y,1/2-z
1/2-x,y,1/2-z
3/4+y,1/4+x,3/4-z
3/4-y,3/4-x,1/4-z
1/2-x,1/2-y,1/2-z
1/4+y,3/4-x,1/4-z
1/2+x,y,1/2-z
1/4-y,1/4+x,3/4-z
1/2-x,1/2+y,1/2+z
1/2+x,-y,1/2+z
1/4-y,3/4-x,1/4+z
1/4+y,1/4+x,3/4+z
loop_
_atom_site_type_symbol
_atom_site_label
_atom_site_fract_x
_atom_site_fract_y
_atom_site_fract_z
Si Si1 0.428252 0.325056 0.346240
Si Si2 0.717575 0.322710 0.126749
Si Si3 0.711541 0.060460 0.544593
Si Si4 0.652198 0.597339 0.988737
Si Si5 0.072816 0.409128 0.715649
O O1 0.500000 0.346396 0.336164
O O2 0.425110 0.250000 0.334681
O O3 0.381435 0.358882 0.294067
O O4 0.404920 0.335636 0.424270
O O5 0.704555 0.250000 0.143166
O O6 0.704006 0.365800 0.192591
O O7 0.673516 0.349395 0.066174
O O8 0.786763 0.327226 0.093487
O O9 0.703493 0.046508 0.625000
O O10 0.784636 0.071887 0.524575
O O11 0.675360 0.123809 0.520890
O O12 0.690041 0.000000 0.500000
O O13 0.000000 0.410250 0.740809
#
# Coordination Sequence:
#
# PCOD9572914 Si02
#       5
#    32  32  32  32  32
#     4  10  20  34  54  80 111 149 191 235 283 342
#     4   9  18  32  51  78 110 149 184 224 273 334
#     4  11  24  38  60  85 117 151 193 242 295 349
#     4  10  20  31  53  78 116 147 187 228 280 339
#     4   9  20  39  59  80 110 145 190 240 291 344
#
# _framework density 18.282208000000001
#
# number of rings (size 3 to 8) (size 9 to 14) (size 15 to 20)
#    0.000    2.200    0.000    2.400    8.400    0.800 
#    0.000    4.000    0.000    7.200    0.000    0.000 
#    0.000    0.000    0.000    0.000    0.000    0.000 
#
# Total GULP energy -446586.905832 kJ/mol
# GULP energy per Si atom -5582.336323 kJ/mol
# Density = 1.824060 g / cm^3
# Si number density = 18.282208 Si / 1000 Ang^3
#
#
#
# Elastic Constant Matrix: (Units=GPa)
#
#
# Indices 1 2 3 4 5 6 
#
# 1 45.4110 7.4204 41.9886 0.0000 0.0000 0.0000
# 2 7.4204 45.4130 41.9897 0.0000 0.0000 0.0000
# 3 41.9886 41.9897 123.7166 0.0000 0.0000 0.0000
# 4 0.0000 0.0000 0.0000 15.5525 0.0000 0.0000
# 5 0.0000 0.0000 0.0000 0.0000 15.5515 0.0000
# 6 0.0000 0.0000 0.0000 0.0000 0.0000 12.6110
#
#
#
# Elastic Compliance Matrix: (Units=1/GPa)
#
#
# Indices 1 2 3 4 5 6 
#
# 1 0.033712 0.007390 -0.013950 0.000000 0.000000 0.000000
# 2 0.007390 0.033711 -0.013949 0.000000 0.000000 0.000000
# 3 -0.013950 -0.013949 0.017552 0.000000 0.000000 0.000000
# 4 0.000000 0.000000 0.000000 0.064298 0.000000 0.000000
# 5 0.000000 0.000000 0.000000 0.000000 0.064303 0.000000
# 6 0.000000 0.000000 0.000000 0.000000 0.000000 0.079296
#
#
# Mechanical properties :
#
#
# Convention : Reuss Voigt Hill
#
# Bulk Modulus (GPa) = 22.75024 44.14864 33.44944
# Shear Modulus (GPa) = 14.34545 16.95244 15.64895
#
# Velocity S-wave (km/s) = 2.80423 3.04841 2.92886
# Velocity P-wave (km/s) = 4.79123 6.04907 5.45651
#
# Compressibility (1/GPa) = 0.04395558
#
# Stress axis : x y z
#
# Youngs Moduli (GPa) = 29.66302 29.66423 56.97382
#
# Poissons Ratio (x) = -0.21921 0.79477
# Poissons Ratio (y) = -0.21920 0.79476
# Poissons Ratio (z) = 0.41379 0.41380
#
# Static dielectric constant tensor:
#      x y z
#    x 1.641000 0.000000 0.000000 
#    y 0.000000 1.641000 0.000000 
#    z 0.000000 0.000000 1.606220 
# 
# From -- ./inp_files/6603.got.cif
#   From: 2010.05.17/outbox.cif.g08.bks.cpg/sg141_4_cif.got.tgz:6603.got - 2010.05.20 13:30:51.
