data_PCOD9572173
_publ_section_title
;
Structure prediction by ZEFSAII (Michael W. Deem and Ramdas Pophale) SiO2 
 PCOD9572173
Probable space group: I 4/M C M
;
_chemical_formula_sum "Si O2"
_cell_formula_units_Z 144
_cell_length_a 19.143502
_cell_length_b 19.143502
_cell_length_c 23.455631
_cell_angle_alpha 90.000000
_cell_angle_beta 90.000000
_cell_angle_gamma 90.000000
_cell_volume 8595.871147
_symmetry_space_group_name_H-M "I 4/M C M"
_symmetry_group_IT_number 140
_symmetry_cell_setting 'tetragonal'
loop_
_space_group_symop_operation_xyz
x,y,z
-y,x,z
-x,-y,z
y,-x,z
x,-y,1/2-z
-x,y,1/2-z
y,x,1/2-z
-y,-x,1/2-z
-x,-y,-z
y,-x,-z
x,y,-z
-y,x,-z
-x,y,1/2+z
x,-y,1/2+z
-y,-x,1/2+z
y,x,1/2+z
1/2+x,1/2+y,1/2+z
1/2-y,1/2+x,1/2+z
1/2-x,1/2-y,1/2+z
1/2+y,1/2-x,1/2+z
1/2+x,1/2-y,-z
1/2-x,1/2+y,-z
1/2+y,1/2+x,-z
1/2-y,1/2-x,-z
1/2-x,1/2-y,1/2-z
1/2+y,1/2-x,1/2-z
1/2+x,1/2+y,1/2-z
1/2-y,1/2+x,1/2-z
1/2-x,1/2+y,z
1/2+x,1/2-y,z
1/2-y,1/2-x,z
1/2+y,1/2+x,z
loop_
_atom_site_type_symbol
_atom_site_label
_atom_site_fract_x
_atom_site_fract_y
_atom_site_fract_z
Si Si1 0.257639 0.639977 0.124603
Si Si2 0.917408 0.303539 0.758370
Si Si3 0.009560 0.711302 0.933012
Si Si4 0.744289 0.128956 0.135644
Si Si5 0.556831 0.056831 0.430625
O O1 0.195030 0.695030 0.112223
O O2 0.239313 0.604652 0.185445
O O3 0.257504 0.577662 0.079424
O O4 0.327881 0.685011 0.126324
O O5 0.877825 0.377825 0.762282
O O6 0.887517 0.265408 0.702383
O O7 0.000000 0.310821 0.750000
O O8 0.032581 0.633618 0.912024
O O9 0.942330 0.737580 0.899220
O O10 0.994224 0.707385 0.000000
O O11 0.680317 0.180317 0.118922
O O12 0.558673 0.058673 0.500000
O O13 0.500000 0.000000 0.412780
#
# Coordination Sequence:
#
# PCOD9572173 Si02
#       5
#    32  32  32  32  16
#     4  10  20  36  57  80 110 147 185 228 273 326
#     4  10  19  34  56  84 114 143 178 221 275 335
#     4  11  21  34  53  80 111 148 189 225 271 327
#     4  10  21  36  56  82 111 145 186 229 273 324
#     4   9  18  32  50  74 109 146 178 217 267 330
#
# _framework density 16.752229
#
# number of rings (size 3 to 8) (size 9 to 14) (size 15 to 20)
#    0.000    1.889    3.333    1.333    0.000    5.111 
#    0.000    2.222    0.000    0.667    0.000    3.111 
#    0.000    0.000    0.000    0.000    0.000    0.000 
#
# Total GULP energy -401837.975287 kJ/mol
# GULP energy per Si atom -5581.082990 kJ/mol
# Density = 1.671410 g / cm^3
# Si number density = 16.752229 Si / 1000 Ang^3
#
#
#
# Elastic Constant Matrix: (Units=GPa)
#
#
# Indices 1 2 3 4 5 6 
#
# 1 90.0573 51.9691 12.1912 0.0000 0.0000 0.0000
# 2 51.9691 90.0573 12.1912 0.0000 0.0000 0.0000
# 3 12.1912 12.1912 43.5119 0.0000 0.0000 0.0000
# 4 0.0000 0.0000 0.0000 15.6562 0.0000 0.0000
# 5 0.0000 0.0000 0.0000 0.0000 15.6562 0.0000
# 6 0.0000 0.0000 0.0000 0.0000 0.0000 20.1316
#
#
#
# Elastic Compliance Matrix: (Units=1/GPa)
#
#
# Indices 1 2 3 4 5 6 
#
# 1 0.016826 -0.009429 -0.002072 0.000000 0.000000 0.000000
# 2 -0.009429 0.016826 -0.002072 0.000000 0.000000 0.000000
# 3 -0.002072 -0.002072 0.024144 0.000000 0.000000 0.000000
# 4 0.000000 0.000000 0.000000 0.063873 0.000000 0.000000
# 5 0.000000 0.000000 0.000000 0.000000 0.063873 0.000000
# 6 0.000000 0.000000 0.000000 0.000000 0.000000 0.049673
#
#
# Mechanical properties :
#
#
# Convention : Reuss Voigt Hill
#
# Bulk Modulus (GPa) = 32.62930 41.81439 37.22184
# Shear Modulus (GPa) = 18.34344 20.10712 19.22528
#
# Velocity S-wave (km/s) = 3.31265 3.46824 3.39134
# Velocity P-wave (km/s) = 5.84392 6.40726 6.13206
#
# Compressibility (1/GPa) = 0.03064730
#
# Stress axis : x y z
#
# Youngs Moduli (GPa) = 59.43252 59.43252 41.41897
#
# Poissons Ratio (x) = 0.56039 0.08584
# Poissons Ratio (y) = 0.56039 0.08584
# Poissons Ratio (z) = 0.12317 0.12317
#
# Static dielectric constant tensor:
#      x y z
#    x 1.549250 0.000000 0.000000 
#    y 0.000000 1.549250 0.000000 
#    z 0.000000 0.000000 1.576820 
# 
# From -- ./inp_files/8332.got.cif
#   From: 2010.05.17/outbox.cif.g08.bks.cpg/sg140_5_cif.got.tgz:8332.got - 2010.06.21 00:45:31.
