data_PCOD9572617
_publ_section_title
;
Structure prediction by ZEFSAII (Michael W. Deem and Ramdas Pophale) SiO2 
 PCOD9572617
Probable space group: I 4/M C M
;
_chemical_formula_sum "Si O2"
_cell_formula_units_Z 192
_cell_length_a 21.498972
_cell_length_b 21.498972
_cell_length_c 25.409002
_cell_angle_alpha 90.000000
_cell_angle_beta 90.000000
_cell_angle_gamma 90.000000
_cell_volume 11744.188022
_symmetry_space_group_name_H-M "I 4/M C M"
_symmetry_group_IT_number 140
_symmetry_cell_setting 'tetragonal'
loop_
_space_group_symop_operation_xyz
x,y,z
-y,x,z
-x,-y,z
y,-x,z
x,-y,1/2-z
-x,y,1/2-z
y,x,1/2-z
-y,-x,1/2-z
-x,-y,-z
y,-x,-z
x,y,-z
-y,x,-z
-x,y,1/2+z
x,-y,1/2+z
-y,-x,1/2+z
y,x,1/2+z
1/2+x,1/2+y,1/2+z
1/2-y,1/2+x,1/2+z
1/2-x,1/2-y,1/2+z
1/2+y,1/2-x,1/2+z
1/2+x,1/2-y,-z
1/2-x,1/2+y,-z
1/2+y,1/2+x,-z
1/2-y,1/2-x,-z
1/2-x,1/2-y,1/2-z
1/2+y,1/2-x,1/2-z
1/2+x,1/2+y,1/2-z
1/2-y,1/2+x,1/2-z
1/2-x,1/2+y,z
1/2+x,1/2-y,z
1/2-y,1/2-x,z
1/2+y,1/2+x,z
loop_
_atom_site_type_symbol
_atom_site_label
_atom_site_fract_x
_atom_site_fract_y
_atom_site_fract_z
Si Si1 0.115985 0.277045 0.000000
Si Si2 0.776999 0.616275 0.559056
Si Si3 0.965093 0.364204 0.115412
Si Si4 0.765056 0.841878 0.290286
Si Si5 0.287025 0.679840 0.408252
Si Si6 0.443629 0.839039 0.790811
Si Si7 0.016251 0.379049 0.000000
O O1 0.127701 0.236302 0.051653
O O2 0.169949 0.330052 0.000000
O O3 0.052371 0.313724 0.000000
O O4 0.775337 0.589054 0.500000
O O5 0.830700 0.669301 0.557891
O O6 0.799532 0.571043 0.605147
O O7 0.713366 0.651258 0.571297
O O8 0.917250 0.417250 0.136563
O O9 0.024315 0.351907 0.152214
O O10 0.981583 0.383629 0.055588
O O11 0.818204 0.818204 0.250000
O O12 0.711968 0.788033 0.288382
O O13 0.792393 0.842423 0.348913
O O14 0.725521 0.905461 0.283753
O O15 0.233391 0.733391 0.408839
O O16 0.500000 0.841599 0.750000
O O17 0.393991 0.893991 0.781665
O O18 0.066531 0.433470 0.000000
#
# Coordination Sequence:
#
# PCOD9572617 Si02
#       7
#    16  32  32  32  32  32  16
#     4   9  16  26  42  65  88 117 154 204 262 312
#     4   9  16  28  46  71  95 123 164 206 250 305
#     4  11  22  34  48  67  99 139 181 220 250 287
#     4   9  19  34  52  73  94 122 165 217 270 315
#     4   9  15  26  47  69  91 115 150 201 261 319
#     4  11  24  39  53  72 101 140 184 222 257 302
#     4  11  21  31  45  64  92 131 179 221 253 287
#
# _framework density 16.348511999999999
#
# number of rings (size 3 to 8) (size 9 to 14) (size 15 to 20)
#    0.000    2.167    1.667    2.250    2.333    5.167 
#    0.000    0.000    0.000    0.000    0.000    0.000 
#    0.000    0.333    0.000    0.000    0.000    7.000 
#
# Total GULP energy -534818.566712 kJ/mol
# GULP energy per Si atom -5571.026737 kJ/mol
# Density = 1.631130 g / cm^3
# Si number density = 16.348512 Si / 1000 Ang^3
#
#
#
# Elastic Constant Matrix: (Units=GPa)
#
#
# Indices 1 2 3 4 5 6 
#
# 1 50.3547 52.6575 33.9089 0.0000 0.0000 0.0000
# 2 52.6575 50.3548 33.9092 0.0000 0.0000 0.0000
# 3 33.9089 33.9092 101.1698 0.0000 0.0000 0.0000
# 4 0.0000 0.0000 0.0000 20.5643 0.0000 0.0000
# 5 0.0000 0.0000 0.0000 0.0000 20.5642 0.0000
# 6 0.0000 0.0000 0.0000 0.0000 0.0000 30.2127
#
#
#
# Elastic Compliance Matrix: (Units=1/GPa)
#
#
# Indices 1 2 3 4 5 6 
#
# 1 -0.210901 0.223357 -0.004176 0.000000 0.000000 0.000000
# 2 0.223357 -0.210901 -0.004174 0.000000 0.000000 0.000000
# 3 -0.004176 -0.004174 0.012683 0.000000 0.000000 0.000000
# 4 0.000000 0.000000 0.000000 0.048628 0.000000 0.000000
# 5 0.000000 0.000000 0.000000 0.000000 0.048628 0.000000
# 6 0.000000 0.000000 0.000000 0.000000 0.000000 0.033099
#
#
# Mechanical properties :
#
#
# Convention : Reuss Voigt Hill
#
# Bulk Modulus (GPa) = 47.85699 49.20339 48.53019
# Shear Modulus (GPa) = -7.12438 19.69516 6.28539
#
# Velocity S-wave (km/s) = -2.08980 3.47465 1.96290
# Velocity P-wave (km/s) = 4.84907 6.80143 5.90648
#
# Compressibility (1/GPa) = 0.02089559
#
# Stress axis : x y z
#
# Youngs Moduli (GPa) = -4.74156 -4.74155 78.84580
#
# Poissons Ratio (x) = 1.05906 0.32922
# Poissons Ratio (y) = 1.05906 0.32913
# Poissons Ratio (z) = -0.01980 -0.01979
#
# Static dielectric constant tensor:
#      x y z
#    x 1.556690 0.000000 0.000000 
#    y 0.000000 1.556690 0.000000 
#    z 0.000000 0.000000 1.579930 
# 
# From -- ./inp_files/9842.got.cif
#   From: 2010.05.17/outbox.cif.g08.bks.cpg/sg140_5_cif.got.tgz:9842.got - 2010.06.21 00:45:31.
