data_PCOD9572683
_publ_section_title
;
Structure prediction by ZEFSAII (Michael W. Deem and Ramdas Pophale) SiO2 
 PCOD9572683
Probable space group: I 4/M C M
;
_chemical_formula_sum "Si O2"
_cell_formula_units_Z 120
_cell_length_a 18.595374
_cell_length_b 18.595374
_cell_length_c 15.321104
_cell_angle_alpha 90.000000
_cell_angle_beta 90.000000
_cell_angle_gamma 90.000000
_cell_volume 5297.852902
_symmetry_space_group_name_H-M "I 4/M C M"
_symmetry_group_IT_number 140
_symmetry_cell_setting 'tetragonal'
loop_
_space_group_symop_operation_xyz
x,y,z
-y,x,z
-x,-y,z
y,-x,z
x,-y,1/2-z
-x,y,1/2-z
y,x,1/2-z
-y,-x,1/2-z
-x,-y,-z
y,-x,-z
x,y,-z
-y,x,-z
-x,y,1/2+z
x,-y,1/2+z
-y,-x,1/2+z
y,x,1/2+z
1/2+x,1/2+y,1/2+z
1/2-y,1/2+x,1/2+z
1/2-x,1/2-y,1/2+z
1/2+y,1/2-x,1/2+z
1/2+x,1/2-y,-z
1/2-x,1/2+y,-z
1/2+y,1/2+x,-z
1/2-y,1/2-x,-z
1/2-x,1/2-y,1/2-z
1/2+y,1/2-x,1/2-z
1/2+x,1/2+y,1/2-z
1/2-y,1/2+x,1/2-z
1/2-x,1/2+y,z
1/2+x,1/2-y,z
1/2-y,1/2-x,z
1/2+y,1/2+x,z
loop_
_atom_site_type_symbol
_atom_site_label
_atom_site_fract_x
_atom_site_fract_y
_atom_site_fract_z
Si Si1 0.687317 0.028274 0.160570
Si Si2 0.406631 0.906631 0.000000
Si Si3 0.877945 0.733090 0.603463
Si Si4 0.892839 0.945843 0.500000
Si Si5 0.322600 0.377707 0.168475
O O1 0.638683 0.050559 0.078561
O O2 0.742484 0.092883 0.184041
O O3 0.650179 0.000000 0.250000
O O4 0.735677 0.960029 0.132390
O O5 0.875202 0.742977 0.500000
O O6 0.844542 0.655459 0.624381
O O7 0.827429 0.794052 0.643604
O O8 0.851637 0.921089 0.586044
O O9 0.969696 0.906624 0.500000
O O10 0.377822 0.377822 0.250000
#
# Coordination Sequence:
#
# PCOD9572683 Si02
#       5
#    32   8  32  16  32
#     4  12  27  48  77 116 159 209 265 332 404 483
#     4  12  30  52  83 112 162 202 262 329 402 472
#     4  11  25  46  72 107 153 203 260 329 399 473
#     4  11  25  40  61  96 147 202 264 322 391 472
#     4  12  25  42  74 107 151 201 262 325 402 471
#
# _framework density 22.650686
#
# number of rings (size 3 to 8) (size 9 to 14) (size 15 to 20)
#    0.000    0.400    5.333    2.400    3.733    0.533 
#    0.000    2.667    0.000    0.000    0.000    0.000 
#    0.000    0.000    0.000    0.000    0.000    0.000 
#
# Total GULP energy -334240.683970 kJ/mol
# GULP energy per Si atom -5570.678066 kJ/mol
# Density = 2.259913 g / cm^3
# Si number density = 22.650686 Si / 1000 Ang^3
#
#
#
# Elastic Constant Matrix: (Units=GPa)
#
#
# Indices 1 2 3 4 5 6 
#
# 1 54.6241 40.2971 37.0888 0.0000 0.0000 0.0000
# 2 40.2971 54.6241 37.0888 0.0000 0.0000 0.0000
# 3 37.0888 37.0888 197.3528 0.0000 0.0000 0.0000
# 4 0.0000 0.0000 0.0000 9.6595 0.0000 0.0000
# 5 0.0000 0.0000 0.0000 0.0000 9.6595 0.0000
# 6 0.0000 0.0000 0.0000 0.0000 0.0000 25.7179
#
#
#
# Elastic Compliance Matrix: (Units=1/GPa)
#
#
# Indices 1 2 3 4 5 6 
#
# 1 0.041073 -0.028725 -0.002321 0.000000 0.000000 0.000000
# 2 -0.028725 0.041073 -0.002321 0.000000 0.000000 0.000000
# 3 -0.002321 -0.002321 0.005939 0.000000 0.000000 0.000000
# 4 0.000000 0.000000 0.000000 0.103525 0.000000 0.000000
# 5 0.000000 0.000000 0.000000 0.000000 0.103525 0.000000
# 6 0.000000 0.000000 0.000000 0.000000 0.000000 0.038883
#
#
# Mechanical properties :
#
#
# Convention : Reuss Voigt Hill
#
# Bulk Modulus (GPa) = 46.83014 59.50560 53.16787
# Shear Modulus (GPa) = 12.25882 21.81580 17.03731
#
# Velocity S-wave (km/s) = 2.32892 3.10682 2.74556
# Velocity P-wave (km/s) = 5.28693 6.26081 5.79437
#
# Compressibility (1/GPa) = 0.02135377
#
# Stress axis : x y z
#
# Youngs Moduli (GPa) = 24.34661 24.34661 168.36912
#
# Poissons Ratio (x) = 0.69935 0.39073
# Poissons Ratio (y) = 0.69935 0.39073
# Poissons Ratio (z) = 0.05650 0.05650
#
# Static dielectric constant tensor:
#      x y z
#    x 1.809080 0.000000 0.000000 
#    y 0.000000 1.809080 0.000000 
#    z 0.000000 0.000000 2.401250 
# 
# From -- ./inp_files/4318.got.cif
#   From: 2010.05.17/outbox.cif.g08.bks.cpg/sg140_3_cif.got.tgz:4318.got - 2010.06.21 00:45:31.
