data_PCOD9572980
_publ_section_title
;
Structure prediction by ZEFSAII (Michael W. Deem and Ramdas Pophale) SiO2 
 PCOD9572980
Probable space group: I 41/A M D
;
_chemical_formula_sum "Si O2"
_cell_formula_units_Z 176
_cell_length_a 17.695912
_cell_length_b 17.695912
_cell_length_c 29.475967
_cell_angle_alpha 90.000000
_cell_angle_beta 90.000000
_cell_angle_gamma 90.000000
_cell_volume 9230.260574
_symmetry_space_group_name_H-M "I 41/A M D"
_symmetry_group_IT_number 141
_space_group.IT_coordinate_system_code '2'
_symmetry_cell_setting 'tetragonal'
loop_
_space_group_symop_operation_xyz
x,y,z
1/4-y,3/4+x,1/4+z
-x,1/2-y,z
1/4+y,1/4-x,3/4+z
x,-y,-z
-x,1/2+y,-z
1/4+y,3/4+x,1/4-z
1/4-y,1/4-x,3/4-z
-x,-y,-z
3/4+y,1/4-x,3/4-z
x,1/2+y,-z
3/4-y,3/4+x,1/4-z
-x,y,z
x,1/2-y,z
3/4-y,1/4-x,3/4+z
3/4+y,3/4+x,1/4+z
1/2+x,1/2+y,1/2+z
3/4-y,1/4+x,3/4+z
1/2-x,-y,1/2+z
3/4+y,3/4-x,1/4+z
1/2+x,1/2-y,1/2-z
1/2-x,y,1/2-z
3/4+y,1/4+x,3/4-z
3/4-y,3/4-x,1/4-z
1/2-x,1/2-y,1/2-z
1/4+y,3/4-x,1/4-z
1/2+x,y,1/2-z
1/4-y,1/4+x,3/4-z
1/2-x,1/2+y,1/2+z
1/2+x,-y,1/2+z
1/4-y,3/4-x,1/4+z
1/4+y,1/4+x,3/4+z
loop_
_atom_site_type_symbol
_atom_site_label
_atom_site_fract_x
_atom_site_fract_y
_atom_site_fract_z
Si Si1 0.807932 0.660328 0.005887
Si Si2 0.206326 0.334677 0.798485
Si Si3 0.648781 0.901496 0.594679
Si Si4 0.000000 0.841595 0.490126
Si Si5 0.409974 0.404484 0.213083
Si Si6 0.500000 0.160725 0.889996
Si Si7 0.189691 0.439691 0.375000
O O1 0.824470 0.750000 0.010154
O O2 0.852759 0.609158 0.042050
O O3 0.830191 0.629592 0.955738
O O4 0.717650 0.649878 0.002368
O O5 0.175702 0.250000 0.805656
O O6 0.250000 0.334390 0.750000
O O7 0.271164 0.353366 0.835171
O O8 0.610479 0.828356 0.616203
O O9 0.720940 0.923638 0.625116
O O10 0.074600 0.861513 0.516745
O O11 0.000000 0.750000 0.487255
O O12 0.000000 0.874142 0.439969
O O13 0.500000 0.407541 0.200826
O O14 0.358204 0.416228 0.169135
O O15 0.500000 0.250000 0.893359
#
# Coordination Sequence:
#
# PCOD9572980 Si02
#       7
#    32  32  32  16  32  16  16
#     4   9  17  33  55  81 116 155 186 245 304 350
#     4   9  18  32  53  81 112 143 186 235 290 360
#     4  10  20  36  52  83 117 152 198 244 301 360
#     4   9  20  37  53  83 113 151 201 243 287 355
#     4   9  19  35  56  81 118 153 198 244 293 354
#     4  11  22  37  61  81 118 163 203 259 310 362
#     4  10  22  34  59  82 114 155 192 244 302 362
#
# _framework density 19.067717999999999
#
# number of rings (size 3 to 8) (size 9 to 14) (size 15 to 20)
#    0.000    2.545    0.909    0.545    2.545    2.545 
#    0.000    3.636    0.000    1.091    0.000    0.000 
#    0.000    0.000    0.000    0.000    0.000    0.000 
#
# Total GULP energy -490079.411046 kJ/mol
# GULP energy per Si atom -5569.084216 kJ/mol
# Density = 1.902432 g / cm^3
# Si number density = 19.067718 Si / 1000 Ang^3
#
#
#
# Elastic Constant Matrix: (Units=GPa)
#
#
# Indices 1 2 3 4 5 6 
#
# 1 121.0276 66.7807 36.4322 0.0000 0.0000 0.0000
# 2 66.7807 121.0276 36.4322 0.0000 0.0000 0.0000
# 3 36.4322 36.4322 45.3552 0.0000 0.0000 0.0000
# 4 0.0000 0.0000 0.0000 0.9514 0.0000 0.0000
# 5 0.0000 0.0000 0.0000 0.0000 0.9514 0.0000
# 6 0.0000 0.0000 0.0000 0.0000 0.0000 29.6919
#
#
#
# Elastic Compliance Matrix: (Units=1/GPa)
#
#
# Indices 1 2 3 4 5 6 
#
# 1 0.013085 -0.005350 -0.006213 0.000000 0.000000 0.000000
# 2 -0.005350 0.013085 -0.006213 0.000000 0.000000 0.000000
# 3 -0.006213 -0.006213 0.032030 0.000000 0.000000 0.000000
# 4 0.000000 0.000000 0.000000 1.051064 0.000000 0.000000
# 5 0.000000 0.000000 0.000000 0.000000 1.051064 0.000000
# 6 0.000000 0.000000 0.000000 0.000000 0.000000 0.033679
#
#
# Mechanical properties :
#
#
# Convention : Reuss Voigt Hill
#
# Bulk Modulus (GPa) = 44.15600 62.96672 53.56136
# Shear Modulus (GPa) = 2.23503 16.16996 9.20249
#
# Velocity S-wave (km/s) = 1.08383 2.91525 2.19925
# Velocity P-wave (km/s) = 4.97735 6.66528 5.88217
#
# Compressibility (1/GPa) = 0.02264698
#
# Stress axis : x y z
#
# Youngs Moduli (GPa) = 76.42498 76.42498 31.22049
#
# Poissons Ratio (x) = 0.40884 0.19399
# Poissons Ratio (y) = 0.40884 0.19399
# Poissons Ratio (z) = 0.47486 0.47486
#
# Static dielectric constant tensor:
#      x y z
#    x 2.153370 0.000000 0.000000 
#    y 0.000000 2.153370 0.000000 
#    z 0.000000 0.000000 1.653590 
# 
# From -- ./inp_files/12981.got.cif
#   From: 2010.05.17/outbox.cif.g08.bks.cpg/sg141_7_cif.got.tgz:12981.got - 2010.05.20 13:30:51.
