data_PCOD9572440
_publ_section_title
;
Structure prediction by ZEFSAII (Michael W. Deem and Ramdas Pophale) SiO2 
 PCOD9572440
Probable space group: I 4/M C M
;
_chemical_formula_sum "Si O2"
_cell_formula_units_Z 192
_cell_length_a 20.490479
_cell_length_b 20.490479
_cell_length_c 22.023047
_cell_angle_alpha 90.000000
_cell_angle_beta 90.000000
_cell_angle_gamma 90.000000
_cell_volume 9246.590559
_symmetry_space_group_name_H-M "I 4/M C M"
_symmetry_group_IT_number 140
_symmetry_cell_setting 'tetragonal'
loop_
_space_group_symop_operation_xyz
x,y,z
-y,x,z
-x,-y,z
y,-x,z
x,-y,1/2-z
-x,y,1/2-z
y,x,1/2-z
-y,-x,1/2-z
-x,-y,-z
y,-x,-z
x,y,-z
-y,x,-z
-x,y,1/2+z
x,-y,1/2+z
-y,-x,1/2+z
y,x,1/2+z
1/2+x,1/2+y,1/2+z
1/2-y,1/2+x,1/2+z
1/2-x,1/2-y,1/2+z
1/2+y,1/2-x,1/2+z
1/2+x,1/2-y,-z
1/2-x,1/2+y,-z
1/2+y,1/2+x,-z
1/2-y,1/2-x,-z
1/2-x,1/2-y,1/2-z
1/2+y,1/2-x,1/2-z
1/2+x,1/2+y,1/2-z
1/2-y,1/2+x,1/2-z
1/2-x,1/2+y,z
1/2+x,1/2-y,z
1/2-y,1/2-x,z
1/2+y,1/2+x,z
loop_
_atom_site_type_symbol
_atom_site_label
_atom_site_fract_x
_atom_site_fract_y
_atom_site_fract_z
Si Si1 0.895327 0.800528 0.884329
Si Si2 0.450432 0.160079 0.192635
Si Si3 0.574036 0.420325 0.182482
Si Si4 0.777918 0.485209 0.069813
Si Si5 0.660681 0.260881 0.571873
Si Si6 0.752047 0.642176 0.762147
O O1 0.901126 0.877627 0.872456
O O2 0.820261 0.796242 0.903128
O O3 0.902380 0.769492 0.817823
O O4 0.951226 0.768237 0.924335
O O5 0.500000 0.153893 0.250000
O O6 0.402565 0.097436 0.190178
O O7 0.484345 0.172141 0.127071
O O8 0.404514 0.223321 0.208407
O O9 0.588365 0.496389 0.179561
O O10 0.598476 0.401525 0.250000
O O11 0.739300 0.417124 0.079846
O O12 0.804183 0.482935 0.000000
O O13 0.668759 0.264320 0.500000
O O14 0.693240 0.193240 0.594347
O O15 0.695403 0.695403 0.750000
O O16 0.815081 0.684920 0.779691
#
# Coordination Sequence:
#
# PCOD9572440 Si02
#       6
#    32  32  32  32  32  32
#     4  12  20  34  59  89 126 163 214 269 328 383
#     4  11  23  43  67  95 128 167 217 271 336 407
#     4   9  19  33  48  75 117 165 211 253 308 376
#     4  11  24  41  63  95 132 173 222 273 326 396
#     4  10  22  40  60  85 123 172 217 262 326 400
#     4  10  21  36  59  93 129 161 199 257 328 397
#
# _framework density 20.764410000000002
#
# number of rings (size 3 to 8) (size 9 to 14) (size 15 to 20)
#    0.000    1.500    1.667    4.500    0.000    5.167 
#    0.000    0.000    0.000    1.500    0.000    8.167 
#    0.000    0.000    0.000    0.000    0.000    0.000 
#
# Total GULP energy -535218.515662 kJ/mol
# GULP energy per Si atom -5575.192871 kJ/mol
# Density = 2.071715 g / cm^3
# Si number density = 20.764410 Si / 1000 Ang^3
#
#
#
# Elastic Constant Matrix: (Units=GPa)
#
#
# Indices 1 2 3 4 5 6 
#
# 1 59.7624 7.4814 31.8535 0.0000 0.0000 0.0000
# 2 7.4814 59.7629 31.8534 0.0000 0.0000 0.0000
# 3 31.8535 31.8534 129.9630 0.0000 0.0000 0.0000
# 4 0.0000 0.0000 0.0000 26.2967 0.0000 0.0000
# 5 0.0000 0.0000 0.0000 0.0000 26.2966 0.0000
# 6 0.0000 0.0000 0.0000 0.0000 0.0000 30.0243
#
#
#
# Elastic Compliance Matrix: (Units=1/GPa)
#
#
# Indices 1 2 3 4 5 6 
#
# 1 0.019248 0.000121 -0.004747 0.000000 0.000000 0.000000
# 2 0.000121 0.019248 -0.004747 0.000000 0.000000 0.000000
# 3 -0.004747 -0.004747 0.010022 0.000000 0.000000 0.000000
# 4 0.000000 0.000000 0.000000 0.038028 0.000000 0.000000
# 5 0.000000 0.000000 0.000000 0.000000 0.038028 0.000000
# 6 0.000000 0.000000 0.000000 0.000000 0.000000 0.033306
#
#
# Mechanical properties :
#
#
# Convention : Reuss Voigt Hill
#
# Bulk Modulus (GPa) = 33.59071 43.54054 38.56562
# Shear Modulus (GPa) = 26.80246 28.41018 27.60632
#
# Velocity S-wave (km/s) = 3.59665 3.70295 3.65019
# Velocity P-wave (km/s) = 5.78447 6.26872 6.03145
#
# Compressibility (1/GPa) = 0.02977014
#
# Stress axis : x y z
#
# Youngs Moduli (GPa) = 51.95321 51.95368 99.78508
#
# Poissons Ratio (x) = -0.00627 0.47370
# Poissons Ratio (y) = -0.00627 0.47370
# Poissons Ratio (z) = 0.24663 0.24663
#
# Static dielectric constant tensor:
#      x y z
#    x 1.767240 0.000000 0.000000 
#    y 0.000000 1.767240 0.000000 
#    z 0.000000 0.000000 1.782260 
# 
# From -- ./inp_files/9801.got.cif
#   From: 2010.05.17/outbox.cif.g08.bks.cpg/sg140_5_cif.got.tgz:9801.got - 2010.06.21 00:45:31.
