data_PCOD9572476
_publ_section_title
;
Structure prediction by ZEFSAII (Michael W. Deem and Ramdas Pophale) SiO2 
 PCOD9572476
Probable space group: I 4/M C M
;
_chemical_formula_sum "Si O2"
_cell_formula_units_Z 176
_cell_length_a 27.541322
_cell_length_b 27.541322
_cell_length_c 12.915556
_cell_angle_alpha 90.000000
_cell_angle_beta 90.000000
_cell_angle_gamma 90.000000
_cell_volume 9796.764592
_symmetry_space_group_name_H-M "I 4/M C M"
_symmetry_group_IT_number 140
_symmetry_cell_setting 'tetragonal'
loop_
_space_group_symop_operation_xyz
x,y,z
-y,x,z
-x,-y,z
y,-x,z
x,-y,1/2-z
-x,y,1/2-z
y,x,1/2-z
-y,-x,1/2-z
-x,-y,-z
y,-x,-z
x,y,-z
-y,x,-z
-x,y,1/2+z
x,-y,1/2+z
-y,-x,1/2+z
y,x,1/2+z
1/2+x,1/2+y,1/2+z
1/2-y,1/2+x,1/2+z
1/2-x,1/2-y,1/2+z
1/2+y,1/2-x,1/2+z
1/2+x,1/2-y,-z
1/2-x,1/2+y,-z
1/2+y,1/2+x,-z
1/2-y,1/2-x,-z
1/2-x,1/2-y,1/2-z
1/2+y,1/2-x,1/2-z
1/2+x,1/2+y,1/2-z
1/2-y,1/2+x,1/2-z
1/2-x,1/2+y,z
1/2+x,1/2-y,z
1/2-y,1/2-x,z
1/2+y,1/2+x,z
loop_
_atom_site_type_symbol
_atom_site_label
_atom_site_fract_x
_atom_site_fract_y
_atom_site_fract_z
Si Si1 0.737659 0.159125 0.500000
Si Si2 0.053683 0.636099 0.226334
Si Si3 0.076254 0.969936 0.500000
Si Si4 0.383273 0.199651 0.377044
Si Si5 0.445887 0.631686 0.704760
Si Si6 0.712518 0.366602 0.782200
Si Si7 0.577284 0.844388 0.000000
O O1 0.711927 0.211927 0.500000
O O2 0.766166 0.149050 0.393690
O O3 0.694824 0.119766 0.500000
O O4 0.092895 0.592895 0.224783
O O5 0.073118 0.672883 0.314807
O O6 0.051907 0.659780 0.111363
O O7 0.000000 0.618259 0.250000
O O8 0.109739 0.956494 0.405774
O O9 0.026154 0.939732 0.500000
O O10 0.392957 0.209084 0.500000
O O11 0.337562 0.162439 0.372686
O O12 0.371398 0.246631 0.306923
O O13 0.500000 0.636496 0.750000
O O14 0.409733 0.590268 0.750000
O O15 0.416474 0.681966 0.708305
O O16 0.674598 0.325403 0.750000
O O17 0.602865 0.897136 0.000000
#
# Coordination Sequence:
#
# PCOD9572476 Si02
#       7
#    16  32  16  32  32  32  16
#     4  11  21  41  67  85 117 161 206 252 299 368
#     4  10  21  38  62  90 123 161 203 253 307 363
#     4  11  21  36  68  94 112 154 212 253 287 361
#     4  10  22  42  64  87 120 161 206 252 302 371
#     4  11  23  42  61  86 125 162 199 248 307 364
#     4  11  25  41  61  92 126 156 200 259 316 364
#     4   9  18  37  62  86 115 159 206 251 290 350
#
# _framework density 17.965115000000001
#
# number of rings (size 3 to 8) (size 9 to 14) (size 15 to 20)
#    0.000    1.545    3.636    1.091    2.545    2.545 
#    3.273    0.000    0.000    1.636    0.000    0.000 
#    0.000    0.000    0.000    0.000    0.000    0.000 
#
# Total GULP energy -490318.395512 kJ/mol
# GULP energy per Si atom -5571.799949 kJ/mol
# Density = 1.792423 g / cm^3
# Si number density = 17.965115 Si / 1000 Ang^3
#
#
#
# Elastic Constant Matrix: (Units=GPa)
#
#
# Indices 1 2 3 4 5 6 
#
# 1 123.4297 8.7302 63.5360 0.0000 0.0000 0.0000
# 2 8.7302 123.4060 63.5167 0.0000 0.0000 0.0000
# 3 63.5360 63.5167 192.9579 0.0000 0.0000 0.0000
# 4 0.0000 0.0000 0.0000 -55.2988 0.0000 0.0000
# 5 0.0000 0.0000 0.0000 0.0000 -54.9912 0.0000
# 6 0.0000 0.0000 0.0000 0.0000 0.0000 12.5262
#
#
#
# Elastic Compliance Matrix: (Units=1/GPa)
#
#
# Indices 1 2 3 4 5 6 
#
# 1 0.009895 0.001176 -0.003645 0.000000 0.000000 0.000000
# 2 0.001176 0.009896 -0.003645 0.000000 0.000000 0.000000
# 3 -0.003645 -0.003645 0.007583 0.000000 0.000000 0.000000
# 4 0.000000 0.000000 0.000000 -0.018084 0.000000 0.000000
# 5 0.000000 0.000000 0.000000 0.000000 -0.018185 0.000000
# 6 0.000000 0.000000 0.000000 0.000000 0.000000 0.079833
#
#
# Mechanical properties :
#
#
# Convention : Reuss Voigt Hill
#
# Bulk Modulus (GPa) = 66.02485 79.03993 72.53239
# Shear Modulus (GPa) = 56.67998 0.71462 28.69730
#
# Velocity S-wave (km/s) = 5.62303 0.63138 4.00107
# Velocity P-wave (km/s) = 8.88760 6.68007 7.86171
#
# Compressibility (1/GPa) = 0.01514581
#
# Stress axis : x y z
#
# Youngs Moduli (GPa) = 101.06063 101.04972 131.88105
#
# Poissons Ratio (x) = -0.11886 0.48076
# Poissons Ratio (y) = -0.11887 0.48069
# Poissons Ratio (z) = 0.36840 0.36831
#
# Static dielectric constant tensor:
#      x y z
#    x -3.820260 0.000000 0.000000 
#    y 0.000000 -3.279190 0.000000 
#    z 0.000000 0.000000 1.300150 
# 
# From -- ./inp_files/3283.got.cif
#   From: 2010.05.17/outbox.cif.g08.bks.cpg/sg140_2_cif.got.tgz:3283.got - 2010.06.21 00:45:31.
