data_PCOD9572137
_publ_section_title
;
Structure prediction by ZEFSAII (Michael W. Deem and Ramdas Pophale) SiO2 
 PCOD9572137
Probable space group: I 4/M C M
;
_chemical_formula_sum "Si O2"
_cell_formula_units_Z 240
_cell_length_a 21.490083
_cell_length_b 21.490083
_cell_length_c 25.710614
_cell_angle_alpha 90.000000
_cell_angle_beta 90.000000
_cell_angle_gamma 90.000000
_cell_volume 11873.770047
_symmetry_space_group_name_H-M "I 4/M C M"
_symmetry_group_IT_number 140
_symmetry_cell_setting 'tetragonal'
loop_
_space_group_symop_operation_xyz
x,y,z
-y,x,z
-x,-y,z
y,-x,z
x,-y,1/2-z
-x,y,1/2-z
y,x,1/2-z
-y,-x,1/2-z
-x,-y,-z
y,-x,-z
x,y,-z
-y,x,-z
-x,y,1/2+z
x,-y,1/2+z
-y,-x,1/2+z
y,x,1/2+z
1/2+x,1/2+y,1/2+z
1/2-y,1/2+x,1/2+z
1/2-x,1/2-y,1/2+z
1/2+y,1/2-x,1/2+z
1/2+x,1/2-y,-z
1/2-x,1/2+y,-z
1/2+y,1/2+x,-z
1/2-y,1/2-x,-z
1/2-x,1/2-y,1/2-z
1/2+y,1/2-x,1/2-z
1/2+x,1/2+y,1/2-z
1/2-y,1/2+x,1/2-z
1/2-x,1/2+y,z
1/2+x,1/2-y,z
1/2-y,1/2-x,z
1/2+y,1/2+x,z
loop_
_atom_site_type_symbol
_atom_site_label
_atom_site_fract_x
_atom_site_fract_y
_atom_site_fract_z
Si Si1 0.933401 0.924178 0.334533
Si Si2 0.240689 0.571350 0.057284
Si Si3 0.199669 0.600169 0.667376
Si Si4 0.242257 0.576341 0.557475
Si Si5 0.165826 0.174134 0.192744
Si Si6 0.500000 0.206746 0.250000
Si Si7 0.212521 0.612105 0.168949
Si Si8 0.384034 0.617767 0.557876
O O1 0.888851 0.874144 0.308744
O O2 0.921753 0.914834 0.396155
O O3 0.005368 0.915132 0.321036
O O4 0.252236 0.497585 0.057427
O O5 0.204147 0.586286 0.110298
O O6 0.308930 0.602105 0.060117
O O7 0.213546 0.587832 0.000000
O O8 0.158474 0.658474 0.682030
O O9 0.197421 0.589351 0.605671
O O10 0.271152 0.619563 0.676707
O O11 0.179797 0.542694 0.703559
O O12 0.219701 0.595324 0.500000
O O13 0.310446 0.606447 0.565309
O O14 0.188569 0.188569 0.250000
O O15 0.229245 0.159413 0.162969
O O16 0.442137 0.230861 0.211319
O O17 0.151678 0.651678 0.185186
O O18 0.400428 0.595019 0.500000
#
# Coordination Sequence:
#
# PCOD9572137 Si02
#       8
#    32  32  32  32  32  16  32  32
#     4  11  24  37  55  85 125 170 222 269 310 364
#     4  10  20  37  62  94 129 169 215 263 317 381
#     4  12  25  43  68  98 131 168 214 266 326 387
#     4  10  20  37  62  94 129 169 215 263 317 381
#     4  12  26  40  64  90 129 169 223 267 312 375
#     4  12  26  42  68  97 129 162 212 258 314 394
#     4  12  25  43  68  98 131 168 214 266 326 387
#     4  10  19  32  57  88 126 170 215 263 307 364
#
# _framework density 20.212620000000001
#
# number of rings (size 3 to 8) (size 9 to 14) (size 15 to 20)
#    0.000    0.933    5.333    1.600    1.867    3.200 
#    0.000    1.333    0.000    7.200    0.000    0.000 
#    0.000    2.133    0.000    0.000    0.000    0.000 
#
# Total GULP energy -668616.887903 kJ/mol
# GULP energy per Si atom -5571.807399 kJ/mol
# Density = 2.016661 g / cm^3
# Si number density = 20.212620 Si / 1000 Ang^3
#
#
#
# Elastic Constant Matrix: (Units=GPa)
#
#
# Indices 1 2 3 4 5 6 
#
# 1 42.5865 30.9434 12.9567 0.0000 0.0000 0.0000
# 2 30.9434 42.5865 12.9567 0.0000 0.0000 0.0000
# 3 12.9567 12.9567 116.3895 0.0000 0.0000 0.0000
# 4 0.0000 0.0000 0.0000 3.9870 0.0000 0.0000
# 5 0.0000 0.0000 0.0000 0.0000 3.9870 0.0000
# 6 0.0000 0.0000 0.0000 0.0000 0.0000 15.7784
#
#
#
# Elastic Compliance Matrix: (Units=1/GPa)
#
#
# Indices 1 2 3 4 5 6 
#
# 1 0.050021 -0.035866 -0.001576 0.000000 0.000000 0.000000
# 2 -0.035866 0.050021 -0.001576 0.000000 0.000000 0.000000
# 3 -0.001576 -0.001576 0.008943 0.000000 0.000000 0.000000
# 4 0.000000 0.000000 0.000000 0.250814 0.000000 0.000000
# 5 0.000000 0.000000 0.000000 0.000000 0.250814 0.000000
# 6 0.000000 0.000000 0.000000 0.000000 0.000000 0.063378
#
#
# Mechanical properties :
#
#
# Convention : Reuss Voigt Hill
#
# Bulk Modulus (GPa) = 32.31017 35.03070 33.67043
# Shear Modulus (GPa) = 6.55873 14.39754 10.47814
#
# Velocity S-wave (km/s) = 1.80331 2.67180 2.27930
# Velocity P-wave (km/s) = 4.51173 5.18524 4.86017
#
# Compressibility (1/GPa) = 0.03095001
#
# Stress axis : x y z
#
# Youngs Moduli (GPa) = 19.99141 19.99141 111.82333
#
# Poissons Ratio (x) = 0.71702 0.17621
# Poissons Ratio (y) = 0.71702 0.17621
# Poissons Ratio (z) = 0.03150 0.03150
#
# Static dielectric constant tensor:
#      x y z
#    x 1.706900 0.000000 0.000000 
#    y 0.000000 1.706900 0.000000 
#    z 0.000000 0.000000 1.804610 
# 
# From -- ./inp_files/10990.got.cif
#   From: 2010.05.17/outbox.cif.g08.bks.cpg/sg140_6_cif.got.tgz:10990.got - 2010.06.21 00:45:31.
