data_PCOD9572556
_publ_section_title
;
Structure prediction by ZEFSAII (Michael W. Deem and Ramdas Pophale) SiO2 
 PCOD9572556
Probable space group: I 4/M C M
;
_chemical_formula_sum "Si O2"
_cell_formula_units_Z 176
_cell_length_a 22.734860
_cell_length_b 22.734860
_cell_length_c 15.013279
_cell_angle_alpha 90.000000
_cell_angle_beta 90.000000
_cell_angle_gamma 90.000000
_cell_volume 7759.971456
_symmetry_space_group_name_H-M "I 4/M C M"
_symmetry_group_IT_number 140
_symmetry_cell_setting 'tetragonal'
loop_
_space_group_symop_operation_xyz
x,y,z
-y,x,z
-x,-y,z
y,-x,z
x,-y,1/2-z
-x,y,1/2-z
y,x,1/2-z
-y,-x,1/2-z
-x,-y,-z
y,-x,-z
x,y,-z
-y,x,-z
-x,y,1/2+z
x,-y,1/2+z
-y,-x,1/2+z
y,x,1/2+z
1/2+x,1/2+y,1/2+z
1/2-y,1/2+x,1/2+z
1/2-x,1/2-y,1/2+z
1/2+y,1/2-x,1/2+z
1/2+x,1/2-y,-z
1/2-x,1/2+y,-z
1/2+y,1/2+x,-z
1/2-y,1/2-x,-z
1/2-x,1/2-y,1/2-z
1/2+y,1/2-x,1/2-z
1/2+x,1/2+y,1/2-z
1/2-y,1/2+x,1/2-z
1/2-x,1/2+y,z
1/2+x,1/2-y,z
1/2-y,1/2-x,z
1/2+y,1/2+x,z
loop_
_atom_site_type_symbol
_atom_site_label
_atom_site_fract_x
_atom_site_fract_y
_atom_site_fract_z
Si Si1 0.386653 0.980089 0.101995
Si Si2 0.740348 0.384695 0.000000
Si Si3 0.841589 0.832556 0.851825
Si Si4 0.709418 0.885712 0.645353
Si Si5 0.411814 0.818767 0.347451
Si Si6 0.935845 0.928865 0.392039
O O1 0.442613 0.942613 0.134292
O O2 0.331818 0.934817 0.102156
O O3 0.366195 0.036249 0.156544
O O4 0.398149 0.998386 0.000000
O O5 0.710266 0.344124 0.921099
O O6 0.770979 0.425296 0.921601
O O7 0.821787 0.821787 0.750000
O O8 0.880000 0.776640 0.881887
O O9 0.881546 0.891159 0.854445
O O10 0.676221 0.823780 0.631038
O O11 0.706637 0.900344 0.750545
O O12 0.353205 0.853205 0.379824
O O13 0.932961 0.924314 0.500000
O O14 0.004111 0.919697 0.367277
#
# Coordination Sequence:
#
# PCOD9572556 Si02
#       6
#    32  16  32  32  32  32
#     4  10  22  41  66 100 137 176 223 277 344 411
#     4  12  25  42  63  98 132 168 225 275 336 395
#     4  12  25  43  67  99 130 175 226 271 331 405
#     4  10  24  44  64  92 133 177 223 277 334 398
#     4  11  23  44  70  97 135 178 225 284 345 407
#     4   9  20  42  68  95 130 167 208 268 329 385
#
# _framework density 22.680495000000001
#
# number of rings (size 3 to 8) (size 9 to 14) (size 15 to 20)
#    0.000    1.455    3.636    1.364    1.273    4.364 
#    3.273    1.818    0.000    3.273    0.000    0.000 
#    0.000    0.000    0.000    0.000    0.000    0.000 
#
# Total GULP energy -489977.757153 kJ/mol
# GULP energy per Si atom -5567.929059 kJ/mol
# Density = 2.262887 g / cm^3
# Si number density = 22.680495 Si / 1000 Ang^3
#
#
#
# Elastic Constant Matrix: (Units=GPa)
#
#
# Indices 1 2 3 4 5 6 
#
# 1 46.2101 12.0214 8.9343 0.0000 0.0000 0.0000
# 2 12.0214 46.2101 8.9343 0.0000 0.0000 0.0000
# 3 8.9343 8.9343 97.1698 0.0000 0.0000 0.0000
# 4 0.0000 0.0000 0.0000 16.2844 0.0000 0.0000
# 5 0.0000 0.0000 0.0000 0.0000 16.2844 0.0000
# 6 0.0000 0.0000 0.0000 0.0000 0.0000 30.1772
#
#
#
# Elastic Compliance Matrix: (Units=1/GPa)
#
#
# Indices 1 2 3 4 5 6 
#
# 1 0.023460 -0.005789 -0.001625 0.000000 0.000000 0.000000
# 2 -0.005789 0.023460 -0.001625 0.000000 0.000000 0.000000
# 3 -0.001625 -0.001625 0.010590 0.000000 0.000000 0.000000
# 4 0.000000 0.000000 0.000000 0.061409 0.000000 0.000000
# 5 0.000000 0.000000 0.000000 0.000000 0.061409 0.000000
# 6 0.000000 0.000000 0.000000 0.000000 0.000000 0.033138
#
#
# Mechanical properties :
#
#
# Convention : Reuss Voigt Hill
#
# Bulk Modulus (GPa) = 25.35907 27.70780 26.53343
# Shear Modulus (GPa) = 20.43425 23.19587 21.81506
#
# Velocity S-wave (km/s) = 3.00486 3.20147 3.10472
# Velocity P-wave (km/s) = 4.82122 5.09009 4.95748
#
# Compressibility (1/GPa) = 0.03943363
#
# Stress axis : x y z
#
# Youngs Moduli (GPa) = 42.62500 42.62500 94.42828
#
# Poissons Ratio (x) = 0.24676 0.15343
# Poissons Ratio (y) = 0.24676 0.15343
# Poissons Ratio (z) = 0.06926 0.06926
#
# Static dielectric constant tensor:
#      x y z
#    x 1.861280 0.000000 0.000000 
#    y 0.000000 1.861280 0.000000 
#    z 0.000000 0.000000 1.823680 
# 
# From -- ./inp_files/4914.got.cif
#   From: 2010.05.17/outbox.cif.g08.bks.cpg/sg140_3_cif.got.tgz:4914.got - 2010.06.21 00:45:31.
