data_PCOD9572127
_publ_section_title
;
Structure prediction by ZEFSAII (Michael W. Deem and Ramdas Pophale) SiO2 
 PCOD9572127
Probable space group: I 4/M C M
;
_chemical_formula_sum "Si O2"
_cell_formula_units_Z 160
_cell_length_a 19.198182
_cell_length_b 19.198182
_cell_length_c 25.072389
_cell_angle_alpha 90.000000
_cell_angle_beta 90.000000
_cell_angle_gamma 90.000000
_cell_volume 9240.935230
_symmetry_space_group_name_H-M "I 4/M C M"
_symmetry_group_IT_number 140
_symmetry_cell_setting 'tetragonal'
loop_
_space_group_symop_operation_xyz
x,y,z
-y,x,z
-x,-y,z
y,-x,z
x,-y,1/2-z
-x,y,1/2-z
y,x,1/2-z
-y,-x,1/2-z
-x,-y,-z
y,-x,-z
x,y,-z
-y,x,-z
-x,y,1/2+z
x,-y,1/2+z
-y,-x,1/2+z
y,x,1/2+z
1/2+x,1/2+y,1/2+z
1/2-y,1/2+x,1/2+z
1/2-x,1/2-y,1/2+z
1/2+y,1/2-x,1/2+z
1/2+x,1/2-y,-z
1/2-x,1/2+y,-z
1/2+y,1/2+x,-z
1/2-y,1/2-x,-z
1/2-x,1/2-y,1/2-z
1/2+y,1/2-x,1/2-z
1/2+x,1/2+y,1/2-z
1/2-y,1/2+x,1/2-z
1/2-x,1/2+y,z
1/2+x,1/2-y,z
1/2-y,1/2-x,z
1/2+y,1/2+x,z
loop_
_atom_site_type_symbol
_atom_site_label
_atom_site_fract_x
_atom_site_fract_y
_atom_site_fract_z
Si Si1 0.602171 0.314612 0.000000
Si Si2 0.000000 0.608731 0.250000
Si Si3 0.186023 0.522956 0.355279
Si Si4 0.440081 0.059919 0.435495
Si Si5 0.378725 0.761089 0.609429
Si Si6 0.267867 0.348499 0.114006
Si Si7 0.799851 0.936529 0.000000
O O1 0.635545 0.279274 0.948296
O O2 0.627033 0.394970 0.000000
O O3 0.519312 0.307161 0.000000
O O4 0.941471 0.558530 0.274814
O O5 0.967059 0.650687 0.201802
O O6 0.129838 0.535941 0.403388
O O7 0.213199 0.444217 0.357226
O O8 0.248457 0.577853 0.360927
O O9 0.429139 0.070862 0.500000
O O10 0.500000 0.000000 0.430202
O O11 0.322275 0.822275 0.603526
O O12 0.336271 0.694310 0.631493
O O13 0.410301 0.740613 0.552126
O O14 0.202267 0.297734 0.121707
#
# Coordination Sequence:
#
# PCOD9572127 Si02
#       7
#    16  16  32  16  32  32  16
#     4  10  19  32  51  76 110 146 185 230 290 340
#     4  11  22  38  58  84 120 153 188 224 284 359
#     4  12  22  38  60  82 114 155 189 233 286 340
#     4  11  24  36  54  88 119 146 186 235 290 347
#     4  10  21  35  53  79 111 146 189 237 285 341
#     4  10  20  35  54  78 109 148 192 231 285 343
#     4  10  19  32  51  76 110 148 181 234 286 348
#
# _framework density 17.314264999999999
#
# number of rings (size 3 to 8) (size 9 to 14) (size 15 to 20)
#    0.000    1.400    4.000    2.400    2.800    2.600 
#    0.000    1.000    0.000    4.200    0.000    0.000 
#    0.000    1.600    0.000    0.000    0.000    0.000 
#
# Total GULP energy -446247.086222 kJ/mol
# GULP energy per Si atom -5578.088578 kJ/mol
# Density = 1.727486 g / cm^3
# Si number density = 17.314265 Si / 1000 Ang^3
#
#
#
# Elastic Constant Matrix: (Units=GPa)
#
#
# Indices 1 2 3 4 5 6 
#
# 1 81.2865 31.7309 5.6795 0.0000 0.0000 0.0000
# 2 31.7309 81.2865 5.6796 0.0000 0.0000 0.0000
# 3 5.6795 5.6796 45.3660 0.0000 0.0000 0.0000
# 4 0.0000 0.0000 0.0000 0.5523 0.0000 0.0000
# 5 0.0000 0.0000 0.0000 0.0000 0.5527 0.0000
# 6 0.0000 0.0000 0.0000 0.0000 0.0000 35.7169
#
#
#
# Elastic Compliance Matrix: (Units=1/GPa)
#
#
# Indices 1 2 3 4 5 6 
#
# 1 0.014570 -0.005609 -0.001122 0.000000 0.000000 0.000000
# 2 -0.005609 0.014570 -0.001122 0.000000 0.000000 0.000000
# 3 -0.001122 -0.001122 0.022324 0.000000 0.000000 0.000000
# 4 0.000000 0.000000 0.000000 1.810630 0.000003 0.000000
# 5 0.000000 0.000000 0.000000 0.000003 1.809219 0.000000
# 6 0.000000 0.000000 0.000000 0.000000 0.000000 0.027998
#
#
# Mechanical properties :
#
#
# Convention : Reuss Voigt Hill
#
# Bulk Modulus (GPa) = 27.96552 32.67989 30.32271
# Shear Modulus (GPa) = 1.34158 18.35430 9.84794
#
# Velocity S-wave (km/s) = 0.88121 3.25940 2.38749
# Velocity P-wave (km/s) = 4.14996 5.75156 5.01511
#
# Compressibility (1/GPa) = 0.03575832
#
# Stress axis : x y z
#
# Youngs Moduli (GPa) = 68.63344 68.63342 44.79512
#
# Poissons Ratio (x) = 0.38498 0.05025
# Poissons Ratio (y) = 0.38498 0.05025
# Poissons Ratio (z) = 0.07700 0.07700
#
# Static dielectric constant tensor:
#      x y z
#    x 1.598000 0.000000 0.000000 
#    y 0.000000 1.598000 0.000000 
#    z 0.000000 0.000000 1.558280 
# 
# From -- ./inp_files/10641.got.cif
#   From: 2010.05.17/outbox.cif.g08.bks.cpg/sg140_6_cif.got.tgz:10641.got - 2010.06.21 00:45:31.
