data_PCOD9572798
_publ_section_title
;
Structure prediction by ZEFSAII (Michael W. Deem and Ramdas Pophale) SiO2 
 PCOD9572798
Probable space group: I 41/A M D
;
_chemical_formula_sum "Si O2"
_cell_formula_units_Z 80
_cell_length_a 23.795738
_cell_length_b 23.795738
_cell_length_c 7.320959
_cell_angle_alpha 90.000000
_cell_angle_beta 90.000000
_cell_angle_gamma 90.000000
_cell_volume 4145.398937
_symmetry_space_group_name_H-M "I 41/A M D"
_symmetry_group_IT_number 141
_space_group.IT_coordinate_system_code '2'
_symmetry_cell_setting 'tetragonal'
loop_
_space_group_symop_operation_xyz
x,y,z
1/4-y,3/4+x,1/4+z
-x,1/2-y,z
1/4+y,1/4-x,3/4+z
x,-y,-z
-x,1/2+y,-z
1/4+y,3/4+x,1/4-z
1/4-y,1/4-x,3/4-z
-x,-y,-z
3/4+y,1/4-x,3/4-z
x,1/2+y,-z
3/4-y,3/4+x,1/4-z
-x,y,z
x,1/2-y,z
3/4-y,1/4-x,3/4+z
3/4+y,3/4+x,1/4+z
1/2+x,1/2+y,1/2+z
3/4-y,1/4+x,3/4+z
1/2-x,-y,1/2+z
3/4+y,3/4-x,1/4+z
1/2+x,1/2-y,1/2-z
1/2-x,y,1/2-z
3/4+y,1/4+x,3/4-z
3/4-y,3/4-x,1/4-z
1/2-x,1/2-y,1/2-z
1/4+y,3/4-x,1/4-z
1/2+x,y,1/2-z
1/4-y,1/4+x,3/4-z
1/2-x,1/2+y,1/2+z
1/2+x,-y,1/2+z
1/4-y,3/4-x,1/4+z
1/4+y,1/4+x,3/4+z
loop_
_atom_site_type_symbol
_atom_site_label
_atom_site_fract_x
_atom_site_fract_y
_atom_site_fract_z
Si Si1 0.141138 0.815961 0.998277
Si Si2 0.733529 0.814004 0.964485
Si Si3 0.126274 0.876274 0.625000
O O1 0.134875 0.750000 0.022437
O O2 0.206203 0.829404 0.048952
O O3 0.126199 0.831575 0.788827
O O4 0.100306 0.850306 0.125000
O O5 0.716198 0.750000 0.021091
O O6 0.750000 0.809916 0.750000
O O7 0.685489 0.861204 0.973663
#
# Coordination Sequence:
#
# PCOD9572798 Si02
#       3
#    32  32  16
#     4  10  22  38  56  81 115 150 189 233 280 336
#     4   8  16  33  56  79 106 144 185 224 273 336
#     4  10  18  34  62  81 106 142 192 232 280 334
#
# _framework density 19.298504999999999
#
# number of rings (size 3 to 8) (size 9 to 14) (size 15 to 20)
#    0.000    2.800    0.000    3.600    0.000    5.200 
#    0.000    4.000   39.600    5.400    0.000    0.000 
#    0.000    0.000    0.000    0.000    0.000    0.000 
#
# Total GULP energy -222751.299646 kJ/mol
# GULP energy per Si atom -5568.782491 kJ/mol
# Density = 1.925458 g / cm^3
# Si number density = 19.298505 Si / 1000 Ang^3
#
#
#
# Elastic Constant Matrix: (Units=GPa)
#
#
# Indices 1 2 3 4 5 6 
#
# 1 131.1063 108.6427 26.1137 0.0000 0.0000 0.0000
# 2 108.6427 131.1063 26.1137 0.0000 0.0000 0.0000
# 3 26.1137 26.1137 44.6281 0.0000 0.0000 0.0000
# 4 0.0000 0.0000 0.0000 44.9779 0.0000 0.0000
# 5 0.0000 0.0000 0.0000 0.0000 44.9779 0.0000
# 6 0.0000 0.0000 0.0000 0.0000 0.0000 34.4096
#
#
#
# Elastic Compliance Matrix: (Units=1/GPa)
#
#
# Indices 1 2 3 4 5 6 
#
# 1 0.024648 -0.019868 -0.002797 0.000000 0.000000 0.000000
# 2 -0.019868 0.024648 -0.002797 0.000000 0.000000 0.000000
# 3 -0.002797 -0.002797 0.025681 0.000000 0.000000 0.000000
# 4 0.000000 0.000000 0.000000 0.022233 0.000000 0.000000
# 5 0.000000 0.000000 0.000000 0.000000 0.022233 0.000000
# 6 0.000000 0.000000 0.000000 0.000000 0.000000 0.029062
#
#
# Mechanical properties :
#
#
# Convention : Reuss Voigt Hill
#
# Bulk Modulus (GPa) = 41.57507 69.84233 55.70870
# Shear Modulus (GPa) = 24.10241 34.60444 29.35343
#
# Velocity S-wave (km/s) = 3.53785 4.23911 3.90426
# Velocity P-wave (km/s) = 6.18696 7.76075 7.01811
#
# Compressibility (1/GPa) = 0.02405287
#
# Stress axis : x y z
#
# Youngs Moduli (GPa) = 40.57056 40.57056 38.93948
#
# Poissons Ratio (x) = 0.80606 0.10892
# Poissons Ratio (y) = 0.80606 0.10892
# Poissons Ratio (z) = 0.11348 0.11348
#
# Static dielectric constant tensor:
#      x y z
#    x 1.678830 0.000000 0.000000 
#    y 0.000000 1.678830 0.000000 
#    z 0.000000 0.000000 1.789240 
# 
# From -- ./inp_files/2338.got.cif
#   From: 2010.05.17/outbox.cif.g08.bks.cpg/sg141_2_cif.got.tgz:2338.got - 2010.05.20 13:30:51.
