data_PCOD9572702
_publ_section_title
;
Structure prediction by ZEFSAII (Michael W. Deem and Ramdas Pophale) SiO2 
 PCOD9572702
Probable space group: I 4/M C M
;
_chemical_formula_sum "Si O2"
_cell_formula_units_Z 160
_cell_length_a 23.870794
_cell_length_b 23.870794
_cell_length_c 14.610760
_cell_angle_alpha 90.000000
_cell_angle_beta 90.000000
_cell_angle_gamma 90.000000
_cell_volume 8325.427378
_symmetry_space_group_name_H-M "I 4/M C M"
_symmetry_group_IT_number 140
_symmetry_cell_setting 'tetragonal'
loop_
_space_group_symop_operation_xyz
x,y,z
-y,x,z
-x,-y,z
y,-x,z
x,-y,1/2-z
-x,y,1/2-z
y,x,1/2-z
-y,-x,1/2-z
-x,-y,-z
y,-x,-z
x,y,-z
-y,x,-z
-x,y,1/2+z
x,-y,1/2+z
-y,-x,1/2+z
y,x,1/2+z
1/2+x,1/2+y,1/2+z
1/2-y,1/2+x,1/2+z
1/2-x,1/2-y,1/2+z
1/2+y,1/2-x,1/2+z
1/2+x,1/2-y,-z
1/2-x,1/2+y,-z
1/2+y,1/2+x,-z
1/2-y,1/2-x,-z
1/2-x,1/2-y,1/2-z
1/2+y,1/2-x,1/2-z
1/2+x,1/2+y,1/2-z
1/2-y,1/2+x,1/2-z
1/2-x,1/2+y,z
1/2+x,1/2-y,z
1/2-y,1/2-x,z
1/2+y,1/2+x,z
loop_
_atom_site_type_symbol
_atom_site_label
_atom_site_fract_x
_atom_site_fract_y
_atom_site_fract_z
Si Si1 0.299038 0.940229 0.398229
Si Si2 0.799466 0.385504 0.293016
Si Si3 0.977560 0.392474 0.650029
Si Si4 0.713814 0.456702 0.390703
Si Si5 0.912009 0.019397 0.888313
O O1 0.288708 0.918020 0.500000
O O2 0.297832 0.896955 0.315418
O O3 0.359058 0.972247 0.397325
O O4 0.252420 0.988051 0.376583
O O5 0.824626 0.324626 0.312711
O O6 0.845018 0.430096 0.332658
O O7 0.742221 0.404830 0.339178
O O8 0.945688 0.445688 0.608200
O O9 0.000000 0.408553 0.750000
O O10 0.714297 0.446444 0.500000
O O11 0.650787 0.467932 0.358957
O O12 0.958631 0.064713 0.860002
O O13 0.911420 0.019275 0.000000
#
# Coordination Sequence:
#
# PCOD9572702 Si02
#       5
#    32  32  32  32  32
#     4   9  17  28  43  63  86 119 168 218 261 307
#     4   9  17  29  44  62  90 128 168 214 259 294
#     4   8  14  24  37  55  82 116 152 193 246 308
#     4   9  16  27  47  75 104 134 168 203 244 302
#     4   8  14  26  47  79 117 147 166 190 235 301
#
# _framework density 19.218232
#
# number of rings (size 3 to 8) (size 9 to 14) (size 15 to 20)
#    0.000    3.400    0.000    2.400    0.000    1.400 
#    0.000    4.000    0.000    4.800    0.000   14.000 
#    0.000    8.000    0.000    0.000    0.000    1.200 
#
# Total GULP energy -445849.438976 kJ/mol
# GULP energy per Si atom -5573.117987 kJ/mol
# Density = 1.917449 g / cm^3
# Si number density = 19.218232 Si / 1000 Ang^3
#
#
#
# Elastic Constant Matrix: (Units=GPa)
#
#
# Indices 1 2 3 4 5 6 
#
# 1 80.4795 62.8424 16.1783 0.0000 0.0000 0.0000
# 2 62.8424 80.4795 16.1783 0.0000 0.0000 0.0000
# 3 16.1783 16.1783 51.3249 0.0000 0.0000 0.0000
# 4 0.0000 0.0000 0.0000 31.1483 0.0000 0.0000
# 5 0.0000 0.0000 0.0000 0.0000 31.1483 0.0000
# 6 0.0000 0.0000 0.0000 0.0000 0.0000 9.9731
#
#
#
# Elastic Compliance Matrix: (Units=1/GPa)
#
#
# Indices 1 2 3 4 5 6 
#
# 1 0.032105 -0.024593 -0.002368 0.000000 0.000000 0.000000
# 2 -0.024593 0.032105 -0.002368 0.000000 0.000000 0.000000
# 3 -0.002368 -0.002368 0.020976 0.000000 0.000000 0.000000
# 4 0.000000 0.000000 0.000000 0.032104 0.000000 0.000000
# 5 0.000000 0.000000 0.000000 0.000000 0.032104 0.000000
# 6 0.000000 0.000000 0.000000 0.000000 0.000000 0.100270
#
#
# Mechanical properties :
#
#
# Convention : Reuss Voigt Hill
#
# Bulk Modulus (GPa) = 37.69485 44.74245 41.21865
# Shear Modulus (GPa) = 15.76458 22.25960 19.01209
#
# Velocity S-wave (km/s) = 2.86718 3.40701 3.14868
# Velocity P-wave (km/s) = 5.53332 6.22966 5.89179
#
# Compressibility (1/GPa) = 0.02652883
#
# Stress axis : x y z
#
# Youngs Moduli (GPa) = 31.14762 31.14762 47.67245
#
# Poissons Ratio (x) = 0.76602 0.11288
# Poissons Ratio (y) = 0.76602 0.11288
# Poissons Ratio (z) = 0.07375 0.07375
#
# Static dielectric constant tensor:
#      x y z
#    x 1.671650 0.000000 0.000000 
#    y 0.000000 1.671650 0.000000 
#    z 0.000000 0.000000 1.710750 
# 
# From -- ./inp_files/4712.got.cif
#   From: 2010.05.17/outbox.cif.g08.bks.cpg/sg140_3_cif.got.tgz:4712.got - 2010.06.21 00:45:31.
