data_PCOD9572404
_publ_section_title
;
Structure prediction by ZEFSAII (Michael W. Deem and Ramdas Pophale) SiO2 
 PCOD9572404
Probable space group: I 4/M C M
;
_chemical_formula_sum "Si O2"
_cell_formula_units_Z 128
_cell_length_a 30.237112
_cell_length_b 30.237112
_cell_length_c 8.195479
_cell_angle_alpha 90.000000
_cell_angle_beta 90.000000
_cell_angle_gamma 90.000000
_cell_volume 7492.986652
_symmetry_space_group_name_H-M "I 4/M C M"
_symmetry_group_IT_number 140
_symmetry_cell_setting 'tetragonal'
loop_
_space_group_symop_operation_xyz
x,y,z
-y,x,z
-x,-y,z
y,-x,z
x,-y,1/2-z
-x,y,1/2-z
y,x,1/2-z
-y,-x,1/2-z
-x,-y,-z
y,-x,-z
x,y,-z
-y,x,-z
-x,y,1/2+z
x,-y,1/2+z
-y,-x,1/2+z
y,x,1/2+z
1/2+x,1/2+y,1/2+z
1/2-y,1/2+x,1/2+z
1/2-x,1/2-y,1/2+z
1/2+y,1/2-x,1/2+z
1/2+x,1/2-y,-z
1/2-x,1/2+y,-z
1/2+y,1/2+x,-z
1/2-y,1/2-x,-z
1/2-x,1/2-y,1/2-z
1/2+y,1/2-x,1/2-z
1/2+x,1/2+y,1/2-z
1/2-y,1/2+x,1/2-z
1/2-x,1/2+y,z
1/2+x,1/2-y,z
1/2-y,1/2-x,z
1/2+y,1/2+x,z
loop_
_atom_site_type_symbol
_atom_site_label
_atom_site_fract_x
_atom_site_fract_y
_atom_site_fract_z
Si Si1 0.362645 0.137355 0.178143
Si Si2 0.953275 0.763709 0.305715
Si Si3 0.202447 0.702447 0.685690
Si Si4 0.335932 0.952937 0.188187
Si Si5 0.144709 0.786108 0.303328
O O1 0.335070 0.164931 0.308991
O O2 0.353577 0.086335 0.202589
O O3 0.347443 0.152557 0.000000
O O4 0.955625 0.756165 0.500000
O O5 0.952667 0.716982 0.211195
O O6 0.905281 0.784196 0.264951
O O7 0.000000 0.785852 0.250000
O O8 0.214552 0.714552 0.500000
O O9 0.176992 0.745513 0.756376
O O10 0.352336 0.000000 0.250000
O O11 0.346998 0.945601 0.000000
O O12 0.169563 0.830438 0.250000
O O13 0.142066 0.782484 0.500000
#
# Coordination Sequence:
#
# PCOD9572404 Si02
#       5
#    16  32  16  32  32
#     4  12  22  33  53  77 102 133 172 214 263 316
#     4  11  21  35  54  77 103 136 176 220 266 311
#     4  10  21  35  51  72 105 144 182 220 259 305
#     4  11  21  35  53  75 101 130 168 215 266 315
#     4  11  22  36  53  76 108 146 184 221 264 314
#
# _framework density 17.082640999999999
#
# number of rings (size 3 to 8) (size 9 to 14) (size 15 to 20)
#    0.000    1.000    2.500    8.250    0.000    1.000 
#    0.000    0.000    0.000    0.375    0.000    2.625 
#    0.000    0.500    0.000    5.000    0.000    3.000 
#
# Total GULP energy -357031.336388 kJ/mol
# GULP energy per Si atom -5578.614631 kJ/mol
# Density = 1.704376 g / cm^3
# Si number density = 17.082641 Si / 1000 Ang^3
#
#
#
# Elastic Constant Matrix: (Units=GPa)
#
#
# Indices 1 2 3 4 5 6 
#
# 1 26.6834 102.8331 0.8472 0.0000 0.0000 0.0000
# 2 102.8331 26.6478 0.8452 0.0000 0.0000 0.0000
# 3 0.8472 0.8452 76.0586 0.0000 0.0000 0.0000
# 4 0.0000 0.0000 0.0000 22.7908 0.0000 0.0000
# 5 0.0000 0.0000 0.0000 0.0000 22.7914 0.0000
# 6 0.0000 0.0000 0.0000 0.0000 0.0000 14.5222
#
#
#
# Elastic Compliance Matrix: (Units=1/GPa)
#
#
# Indices 1 2 3 4 5 6 
#
# 1 -0.002701 0.010426 -0.000086 0.000000 0.000000 0.000000
# 2 0.010426 -0.002705 -0.000086 0.000000 0.000000 0.000000
# 3 -0.000086 -0.000086 0.013150 0.000000 0.000000 0.000000
# 4 0.000000 0.000000 0.000000 0.043877 0.000000 0.000000
# 5 0.000000 0.000000 0.000000 0.000000 0.043876 0.000000
# 6 0.000000 0.000000 0.000000 0.000000 0.000000 0.068860
#
#
# Mechanical properties :
#
#
# Convention : Reuss Voigt Hill
#
# Bulk Modulus (GPa) = 35.39522 37.60451 36.49986
# Shear Modulus (GPa) = 32.62290 13.67851 23.15070
#
# Velocity S-wave (km/s) = 4.37476 2.83278 3.68532
# Velocity P-wave (km/s) = 6.80317 5.72369 6.28664
#
# Compressibility (1/GPa) = 0.02825241
#
# Stress axis : x y z
#
# Youngs Moduli (GPa) = -370.22263 -369.72932 76.04750
#
# Poissons Ratio (x) = 3.85483 0.00652
# Poissons Ratio (y) = 3.85997 0.00655
# Poissons Ratio (z) = -0.03175 -0.03182
#
# Static dielectric constant tensor:
#      x y z
#    x 1.594540 0.000000 0.000000 
#    y 0.000000 1.594550 0.000000 
#    z 0.000000 0.000000 1.595270 
# 
# From -- ./inp_files/1504.got.cif
#   From: 2010.05.17/outbox.cif.g08.bks.cpg/sg140_1_cif.got.tgz:1504.got - 2010.06.21 00:45:31.
