data_PCOD9572183
_publ_section_title
;
Structure prediction by ZEFSAII (Michael W. Deem and Ramdas Pophale) SiO2 
 PCOD9572183
Probable space group: I 4/M C M
;
_chemical_formula_sum "Si O2"
_cell_formula_units_Z 176
_cell_length_a 16.403300
_cell_length_b 16.403300
_cell_length_c 33.448965
_cell_angle_alpha 90.000000
_cell_angle_beta 90.000000
_cell_angle_gamma 90.000000
_cell_volume 9000.054507
_symmetry_space_group_name_H-M "I 4/M C M"
_symmetry_group_IT_number 140
_symmetry_cell_setting 'tetragonal'
loop_
_space_group_symop_operation_xyz
x,y,z
-y,x,z
-x,-y,z
y,-x,z
x,-y,1/2-z
-x,y,1/2-z
y,x,1/2-z
-y,-x,1/2-z
-x,-y,-z
y,-x,-z
x,y,-z
-y,x,-z
-x,y,1/2+z
x,-y,1/2+z
-y,-x,1/2+z
y,x,1/2+z
1/2+x,1/2+y,1/2+z
1/2-y,1/2+x,1/2+z
1/2-x,1/2-y,1/2+z
1/2+y,1/2-x,1/2+z
1/2+x,1/2-y,-z
1/2-x,1/2+y,-z
1/2+y,1/2+x,-z
1/2-y,1/2-x,-z
1/2-x,1/2-y,1/2-z
1/2+y,1/2-x,1/2-z
1/2+x,1/2+y,1/2-z
1/2-y,1/2+x,1/2-z
1/2-x,1/2+y,z
1/2+x,1/2-y,z
1/2-y,1/2-x,z
1/2+y,1/2+x,z
loop_
_atom_site_type_symbol
_atom_site_label
_atom_site_fract_x
_atom_site_fract_y
_atom_site_fract_z
Si Si1 0.585333 0.783416 0.428692
Si Si2 0.323573 0.047725 0.873395
Si Si3 0.704696 0.339187 0.292271
Si Si4 0.497089 0.138118 0.000000
Si Si5 0.687422 0.672698 0.619476
Si Si6 0.653759 0.027005 0.794785
O O1 0.662877 0.837124 0.441382
O O2 0.543595 0.819687 0.389017
O O3 0.517655 0.803843 0.462175
O O4 0.620207 0.696595 0.413749
O O5 0.403362 0.096639 0.886749
O O6 0.244840 0.096031 0.889046
O O7 0.323234 0.043806 0.825401
O O8 0.657378 0.342623 0.250000
O O9 0.752322 0.252322 0.292449
O O10 0.661598 0.346119 0.335391
O O11 0.772880 0.408928 0.292442
O O12 0.564607 0.064607 0.000000
O O13 0.410180 0.089821 0.000000
O O14 0.749059 0.750942 0.620926
O O15 0.573860 0.073860 0.810191
O O16 0.637582 0.000000 0.750000
#
# Coordination Sequence:
#
# PCOD9572183 Si02
#       6
#    32  32  32  16  32  32
#     4  10  19  35  55  77 109 145 180 220 273 339
#     4  11  21  32  51  78 106 139 177 223 274 329
#     4   9  16  29  47  65  93 137 183 221 262 325
#     4   9  18  32  54  84 114 145 177 213 272 347
#     4   9  18  33  50  72 101 138 184 221 262 325
#     4  11  21  31  44  71 108 144 179 224 283 336
#
# _framework density 19.555437999999999
#
# number of rings (size 3 to 8) (size 9 to 14) (size 15 to 20)
#    0.000    2.091    1.818    2.727    0.000    6.000 
#    0.000    0.909    0.000    3.818    0.000    0.000 
#    0.000    1.455    0.000    0.000    0.000    0.000 
#
# Total GULP energy -490038.299515 kJ/mol
# GULP energy per Si atom -5568.617040 kJ/mol
# Density = 1.951093 g / cm^3
# Si number density = 19.555438 Si / 1000 Ang^3
#
#
#
# Elastic Constant Matrix: (Units=GPa)
#
#
# Indices 1 2 3 4 5 6 
#
# 1 13.2515 54.6658 15.1288 0.0000 0.0000 0.0000
# 2 54.6658 13.2490 15.1286 0.0000 0.0000 0.0000
# 3 15.1288 15.1286 90.6767 0.0000 0.0000 0.0000
# 4 0.0000 0.0000 0.0000 24.3023 0.0000 0.0000
# 5 0.0000 0.0000 0.0000 0.0000 24.3026 0.0000
# 6 0.0000 0.0000 0.0000 0.0000 0.0000 23.8021
#
#
#
# Elastic Compliance Matrix: (Units=1/GPa)
#
#
# Indices 1 2 3 4 5 6 
#
# 1 -0.004119 0.020026 -0.002654 0.000000 0.000000 0.000000
# 2 0.020026 -0.004120 -0.002654 0.000000 0.000000 0.000000
# 3 -0.002654 -0.002654 0.011914 0.000000 0.000000 0.000000
# 4 0.000000 0.000000 0.000000 0.041148 0.000000 0.000000
# 5 0.000000 0.000000 0.000000 0.000000 0.041148 0.000000
# 6 0.000000 0.000000 0.000000 0.000000 0.000000 0.042013
#
#
# Mechanical properties :
#
#
# Convention : Reuss Voigt Hill
#
# Bulk Modulus (GPa) = 30.20139 31.89152 31.04645
# Shear Modulus (GPa) = 45.62685 16.63165 31.12925
#
# Velocity S-wave (km/s) = 4.83557 2.91948 3.99412
# Velocity P-wave (km/s) = 6.83041 5.26385 6.09765
#
# Compressibility (1/GPa) = 0.03311106
#
# Stress axis : x y z
#
# Youngs Moduli (GPa) = -242.77113 -242.71616 83.93669
#
# Poissons Ratio (x) = 4.86062 0.22276
# Poissons Ratio (y) = 4.86172 0.22275
# Poissons Ratio (z) = -0.64429 -0.64412
#
# Static dielectric constant tensor:
#      x y z
#    x 1.695010 0.000000 0.000000 
#    y 0.000000 1.695010 0.000000 
#    z 0.000000 0.000000 1.768710 
# 
# From -- ./inp_files/11530.got.cif
#   From: 2010.05.17/outbox.cif.g08.bks.cpg/sg140_6_cif.got.tgz:11530.got - 2010.06.21 00:45:31.
