data_PCOD9572462
_publ_section_title
;
Structure prediction by ZEFSAII (Michael W. Deem and Ramdas Pophale) SiO2 
 PCOD9572462
Probable space group: I 4/M C M
;
_chemical_formula_sum "Si O2"
_cell_formula_units_Z 160
_cell_length_a 21.932883
_cell_length_b 21.932883
_cell_length_c 16.165647
_cell_angle_alpha 90.000000
_cell_angle_beta 90.000000
_cell_angle_gamma 90.000000
_cell_volume 7776.506421
_symmetry_space_group_name_H-M "I 4/M C M"
_symmetry_group_IT_number 140
_symmetry_cell_setting 'tetragonal'
loop_
_space_group_symop_operation_xyz
x,y,z
-y,x,z
-x,-y,z
y,-x,z
x,-y,1/2-z
-x,y,1/2-z
y,x,1/2-z
-y,-x,1/2-z
-x,-y,-z
y,-x,-z
x,y,-z
-y,x,-z
-x,y,1/2+z
x,-y,1/2+z
-y,-x,1/2+z
y,x,1/2+z
1/2+x,1/2+y,1/2+z
1/2-y,1/2+x,1/2+z
1/2-x,1/2-y,1/2+z
1/2+y,1/2-x,1/2+z
1/2+x,1/2-y,-z
1/2-x,1/2+y,-z
1/2+y,1/2+x,-z
1/2-y,1/2-x,-z
1/2-x,1/2-y,1/2-z
1/2+y,1/2-x,1/2-z
1/2+x,1/2+y,1/2-z
1/2-y,1/2+x,1/2-z
1/2-x,1/2+y,z
1/2+x,1/2-y,z
1/2-y,1/2-x,z
1/2+y,1/2+x,z
loop_
_atom_site_type_symbol
_atom_site_label
_atom_site_fract_x
_atom_site_fract_y
_atom_site_fract_z
Si Si1 0.017543 0.387171 0.344234
Si Si2 0.403770 0.809257 0.902025
Si Si3 0.172690 0.063741 0.653166
Si Si4 0.888008 0.706637 0.404445
Si Si5 0.074755 0.162028 0.647714
O O1 0.053308 0.446693 0.378846
O O2 0.067249 0.333128 0.347930
O O3 0.000000 0.400127 0.250000
O O4 0.958765 0.357456 0.386936
O O5 0.342686 0.842686 0.869470
O O6 0.417912 0.742650 0.865573
O O7 0.397636 0.800966 0.000000
O O8 0.119559 0.108077 0.620927
O O9 0.165288 0.068437 0.752587
O O10 0.160985 0.995564 0.620167
O O11 0.906871 0.695770 0.500000
O O12 0.820816 0.679185 0.394927
O O13 0.894746 0.776182 0.383207
#
# Coordination Sequence:
#
# PCOD9572462 Si02
#       5
#    32  32  32  32  32
#     4  11  22  37  59  88 122 160 204 249 295 351
#     4  11  24  40  59  87 125 164 202 248 301 356
#     4  10  22  40  62  91 120 156 201 247 305 364
#     4  10  21  37  60  89 120 161 206 244 291 354
#     4  10  21  39  64  90 121 156 198 251 303 362
#
# _framework density 20.57479
#
# number of rings (size 3 to 8) (size 9 to 14) (size 15 to 20)
#    0.000    1.600    2.000    2.400    0.000    7.000 
#    0.000    7.000    0.000    0.000    0.000    2.800 
#    0.000    0.000    0.000    0.000    0.000    0.000 
#
# Total GULP energy -446574.610797 kJ/mol
# GULP energy per Si atom -5582.182635 kJ/mol
# Density = 2.052796 g / cm^3
# Si number density = 20.574790 Si / 1000 Ang^3
#
#
#
# Elastic Constant Matrix: (Units=GPa)
#
#
# Indices 1 2 3 4 5 6 
#
# 1 135.5047 148.3818 14.3718 0.0000 0.0000 0.0000
# 2 148.3818 135.5047 14.3718 0.0000 0.0000 0.0000
# 3 14.3718 14.3718 16.7309 0.0000 0.0000 0.0000
# 4 0.0000 0.0000 0.0000 16.2433 0.0000 0.0000
# 5 0.0000 0.0000 0.0000 0.0000 16.2433 0.0000
# 6 0.0000 0.0000 0.0000 0.0000 0.0000 32.2063
#
#
#
# Elastic Compliance Matrix: (Units=1/GPa)
#
#
# Indices 1 2 3 4 5 6 
#
# 1 -0.036900 0.040758 -0.003314 0.000000 0.000000 0.000000
# 2 0.040758 -0.036900 -0.003314 0.000000 0.000000 0.000000
# 3 -0.003314 -0.003314 0.065463 0.000000 0.000000 0.000000
# 4 0.000000 0.000000 0.000000 0.061564 0.000000 0.000000
# 5 0.000000 0.000000 0.000000 0.000000 0.061564 0.000000
# 6 0.000000 0.000000 0.000000 0.000000 0.000000 0.031050
#
#
# Mechanical properties :
#
#
# Convention : Reuss Voigt Hill
#
# Bulk Modulus (GPa) = 16.68807 71.33237 44.01022
# Shear Modulus (GPa) = 51.25193 20.31289 35.78241
#
# Velocity S-wave (km/s) = 4.99641 3.14550 4.17482
# Velocity P-wave (km/s) = 6.43538 6.92367 6.68398
#
# Compressibility (1/GPa) = 0.05992304
#
# Stress axis : x y z
#
# Youngs Moduli (GPa) = -27.10059 -27.10059 15.27575
#
# Poissons Ratio (x) = 1.10456 0.05063
# Poissons Ratio (y) = 1.10456 0.05063
# Poissons Ratio (z) = -0.08981 -0.08981
#
# Static dielectric constant tensor:
#      x y z
#    x 1.732360 0.000000 0.000000 
#    y 0.000000 1.732360 0.000000 
#    z 0.000000 0.000000 1.752320 
# 
# From -- ./inp_files/6865.got.cif
#   From: 2010.05.17/outbox.cif.g08.bks.cpg/sg140_4_cif.got.tgz:6865.got - 2010.06.21 00:45:31.
