data_PCOD9572940
_publ_section_title
;
Structure prediction by ZEFSAII (Michael W. Deem and Ramdas Pophale) SiO2 
 PCOD9572940
Probable space group: I 41/A M D
;
_chemical_formula_sum "Si O2"
_cell_formula_units_Z 112
_cell_length_a 14.632812
_cell_length_b 14.632812
_cell_length_c 24.290041
_cell_angle_alpha 90.000000
_cell_angle_beta 90.000000
_cell_angle_gamma 90.000000
_cell_volume 5200.963832
_symmetry_space_group_name_H-M "I 41/A M D"
_symmetry_group_IT_number 141
_space_group.IT_coordinate_system_code '2'
_symmetry_cell_setting 'tetragonal'
loop_
_space_group_symop_operation_xyz
x,y,z
1/4-y,3/4+x,1/4+z
-x,1/2-y,z
1/4+y,1/4-x,3/4+z
x,-y,-z
-x,1/2+y,-z
1/4+y,3/4+x,1/4-z
1/4-y,1/4-x,3/4-z
-x,-y,-z
3/4+y,1/4-x,3/4-z
x,1/2+y,-z
3/4-y,3/4+x,1/4-z
-x,y,z
x,1/2-y,z
3/4-y,1/4-x,3/4+z
3/4+y,3/4+x,1/4+z
1/2+x,1/2+y,1/2+z
3/4-y,1/4+x,3/4+z
1/2-x,-y,1/2+z
3/4+y,3/4-x,1/4+z
1/2+x,1/2-y,1/2-z
1/2-x,y,1/2-z
3/4+y,1/4+x,3/4-z
3/4-y,3/4-x,1/4-z
1/2-x,1/2-y,1/2-z
1/4+y,3/4-x,1/4-z
1/2+x,y,1/2-z
1/4-y,1/4+x,3/4-z
1/2-x,1/2+y,1/2+z
1/2+x,-y,1/2+z
1/4-y,3/4-x,1/4+z
1/4+y,1/4+x,3/4+z
loop_
_atom_site_type_symbol
_atom_site_label
_atom_site_fract_x
_atom_site_fract_y
_atom_site_fract_z
Si Si1 0.393693 0.997128 0.146073
Si Si2 0.609291 0.140710 0.625000
Si Si3 0.346997 0.650941 0.717835
Si Si4 0.701110 0.352023 0.512634
O O1 0.330181 0.080181 0.125000
O O2 0.500000 0.026619 0.155505
O O3 0.356574 0.947961 0.201316
O O4 0.397803 0.926226 0.096365
O O5 0.624773 0.250000 0.630331
O O6 0.658071 0.108438 0.568554
O O7 0.386938 0.750000 0.732405
O O8 0.250000 0.644771 0.750000
O O9 0.401166 0.560249 0.730181
O O10 0.660994 0.250000 0.508315
#
# Coordination Sequence:
#
# PCOD9572940 Si02
#       4
#    32  16  32  32
#     4  10  20  34  52  80 112 147 186 228 283 349
#     4   9  20  40  62  86 116 152 203 262 312 360
#     4  10  20  34  52  78 114 153 189 230 287 345
#     4  10  21  36  58  84 111 150 196 240 296 355
#
# _framework density 21.534469000000001
#
# number of rings (size 3 to 8) (size 9 to 14) (size 15 to 20)
#    0.000    2.143    2.857    0.000    2.000    0.857 
#    0.000    4.286    0.000    9.429    0.000    0.000 
#    0.000    0.000    0.000    0.000    0.000    0.000 
#
# Total GULP energy -311993.744238 kJ/mol
# GULP energy per Si atom -5571.316861 kJ/mol
# Density = 2.148546 g / cm^3
# Si number density = 21.534469 Si / 1000 Ang^3
#
#
#
# Elastic Constant Matrix: (Units=GPa)
#
#
# Indices 1 2 3 4 5 6 
#
# 1 44.3496 8.1769 23.4634 0.0000 0.0000 0.0000
# 2 8.1769 44.3511 23.4635 0.0000 0.0000 0.0000
# 3 23.4634 23.4635 203.0525 0.0000 0.0000 0.0000
# 4 0.0000 0.0000 0.0000 27.4594 0.0000 0.0000
# 5 0.0000 0.0000 0.0000 0.0000 27.4599 0.0000
# 6 0.0000 0.0000 0.0000 0.0000 0.0000 23.3029
#
#
#
# Elastic Compliance Matrix: (Units=1/GPa)
#
#
# Indices 1 2 3 4 5 6 
#
# 1 0.024437 -0.003208 -0.002453 0.000000 0.000000 0.000000
# 2 -0.003208 0.024437 -0.002453 0.000000 0.000000 0.000000
# 3 -0.002453 -0.002453 0.005492 0.000000 0.000000 0.000000
# 4 0.000000 0.000000 0.000000 0.036417 0.000000 0.000000
# 5 0.000000 0.000000 0.000000 0.000000 0.036417 0.000000
# 6 0.000000 0.000000 0.000000 0.000000 0.000000 0.042913
#
#
# Mechanical properties :
#
#
# Convention : Reuss Voigt Hill
#
# Bulk Modulus (GPa) = 26.22065 44.66230 35.44148
# Shear Modulus (GPa) = 25.11890 31.42107 28.26998
#
# Velocity S-wave (km/s) = 3.41904 3.82397 3.62716
# Velocity P-wave (km/s) = 5.27153 6.34680 5.83399
#
# Compressibility (1/GPa) = 0.03813787
#
# Stress axis : x y z
#
# Youngs Moduli (GPa) = 40.92093 40.92239 182.09074
#
# Poissons Ratio (x) = 0.13126 0.44670
# Poissons Ratio (y) = 0.13126 0.44668
# Poissons Ratio (z) = 0.10039 0.10039
#
# Static dielectric constant tensor:
#      x y z
#    x 1.817900 0.000000 0.000000 
#    y 0.000000 1.817900 0.000000 
#    z 0.000000 0.000000 1.838960 
# 
# From -- ./inp_files/9988.got.cif
#   From: 2010.05.17/outbox.cif.g08.bks.cpg/sg141_5_cif.got.tgz:9988.got - 2010.05.20 13:30:51.
