data_PCOD9572112
_publ_section_title
;
Structure prediction by ZEFSAII (Michael W. Deem and Ramdas Pophale) SiO2 
 PCOD9572112
Probable space group: I 4/M C M
;
_chemical_formula_sum "Si O2"
_cell_formula_units_Z 160
_cell_length_a 16.838297
_cell_length_b 16.838297
_cell_length_c 29.196395
_cell_angle_alpha 90.000000
_cell_angle_beta 90.000000
_cell_angle_gamma 90.000000
_cell_volume 8278.002660
_symmetry_space_group_name_H-M "I 4/M C M"
_symmetry_group_IT_number 140
_symmetry_cell_setting 'tetragonal'
loop_
_space_group_symop_operation_xyz
x,y,z
-y,x,z
-x,-y,z
y,-x,z
x,-y,1/2-z
-x,y,1/2-z
y,x,1/2-z
-y,-x,1/2-z
-x,-y,-z
y,-x,-z
x,y,-z
-y,x,-z
-x,y,1/2+z
x,-y,1/2+z
-y,-x,1/2+z
y,x,1/2+z
1/2+x,1/2+y,1/2+z
1/2-y,1/2+x,1/2+z
1/2-x,1/2-y,1/2+z
1/2+y,1/2-x,1/2+z
1/2+x,1/2-y,-z
1/2-x,1/2+y,-z
1/2+y,1/2+x,-z
1/2-y,1/2-x,-z
1/2-x,1/2-y,1/2-z
1/2+y,1/2-x,1/2-z
1/2+x,1/2+y,1/2-z
1/2-y,1/2+x,1/2-z
1/2-x,1/2+y,z
1/2+x,1/2-y,z
1/2-y,1/2-x,z
1/2+y,1/2+x,z
loop_
_atom_site_type_symbol
_atom_site_label
_atom_site_fract_x
_atom_site_fract_y
_atom_site_fract_z
Si Si1 0.966817 0.331692 0.198504
Si Si2 0.843348 0.656653 0.945516
Si Si3 0.312653 0.687019 0.603880
Si Si4 0.067899 0.567899 0.368280
Si Si5 0.054206 0.881531 0.945545
Si Si6 0.795825 0.840089 0.201461
O O1 0.899233 0.399233 0.196345
O O2 0.922774 0.248359 0.191304
O O3 0.000000 0.332730 0.250000
O O4 0.031575 0.359821 0.161729
O O5 0.752518 0.643170 0.927869
O O6 0.900189 0.599812 0.916490
O O7 0.849652 0.650349 0.000000
O O8 0.275686 0.775686 0.606640
O O9 0.398462 0.685018 0.581312
O O10 0.316429 0.656140 0.655932
O O11 0.000000 0.500000 0.372983
O O12 0.963189 0.898781 0.934277
O O13 0.058882 0.868992 0.000000
O O14 0.840144 0.840144 0.250000
O O15 0.726876 0.773125 0.206011
#
# Coordination Sequence:
#
# PCOD9572112 Si02
#       6
#    32  16  32  16  32  32
#     4  10  19  31  54  82 120 152 193 237 289 347
#     4  10  22  37  58  82 111 154 202 242 290 352
#     4   9  20  35  56  83 110 144 190 239 288 345
#     4  10  22  35  53  89 120 156 188 240 290 356
#     4   9  18  34  57  82 107 140 186 241 292 333
#     4   9  19  34  52  78 110 150 190 234 285 340
#
# _framework density 19.328334000000002
#
# number of rings (size 3 to 8) (size 9 to 14) (size 15 to 20)
#    0.600    2.000    1.000    1.200    2.800    1.800 
#    0.000    0.000    0.000    1.200    0.000    1.400 
#    0.000    0.000    0.000    0.000    0.000    0.000 
#
# Total GULP energy -445507.404001 kJ/mol
# GULP energy per Si atom -5568.842550 kJ/mol
# Density = 1.928434 g / cm^3
# Si number density = 19.328334 Si / 1000 Ang^3
#
#
#
# Elastic Constant Matrix: (Units=GPa)
#
#
# Indices 1 2 3 4 5 6 
#
# 1 33.9866 19.9711 38.1544 0.0000 0.0000 0.0000
# 2 19.9711 33.9867 38.1545 0.0000 0.0000 0.0000
# 3 38.1544 38.1545 150.1627 0.0000 0.0000 0.0000
# 4 0.0000 0.0000 0.0000 18.9778 0.0000 0.0000
# 5 0.0000 0.0000 0.0000 0.0000 18.9778 0.0000
# 6 0.0000 0.0000 0.0000 0.0000 0.0000 19.3884
#
#
#
# Elastic Compliance Matrix: (Units=1/GPa)
#
#
# Indices 1 2 3 4 5 6 
#
# 1 0.050139 -0.021211 -0.007350 0.000000 0.000000 0.000000
# 2 -0.021211 0.050139 -0.007350 0.000000 0.000000 0.000000
# 3 -0.007350 -0.007350 0.010395 0.000000 0.000000 0.000000
# 4 0.000000 0.000000 0.000000 0.052693 0.000000 0.000000
# 5 0.000000 0.000000 0.000000 0.000000 0.052693 0.000000
# 6 0.000000 0.000000 0.000000 0.000000 0.000000 0.051577
#
#
# Mechanical properties :
#
#
# Convention : Reuss Voigt Hill
#
# Bulk Modulus (GPa) = 25.74026 45.63290 35.68658
# Shear Modulus (GPa) = 14.18813 19.59254 16.89034
#
# Velocity S-wave (km/s) = 2.71229 3.18727 2.95933
# Velocity P-wave (km/s) = 4.81196 6.09963 5.49366
#
# Compressibility (1/GPa) = 0.03884965
#
# Stress axis : x y z
#
# Youngs Moduli (GPa) = 19.94469 19.94475 96.20329
#
# Poissons Ratio (x) = 0.42304 0.70712
# Poissons Ratio (y) = 0.42304 0.70712
# Poissons Ratio (z) = 0.14660 0.14660
#
# Static dielectric constant tensor:
#      x y z
#    x 1.696770 0.000000 0.000000 
#    y 0.000000 1.696770 0.000000 
#    z 0.000000 0.000000 1.672160 
# 
# From -- ./inp_files/11471.got.cif
#   From: 2010.05.17/outbox.cif.g08.bks.cpg/sg140_6_cif.got.tgz:11471.got - 2010.06.21 00:45:31.
