data_PCOD9572550
_publ_section_title
;
Structure prediction by ZEFSAII (Michael W. Deem and Ramdas Pophale) SiO2 
 PCOD9572550
Probable space group: I 4/M C M
;
_chemical_formula_sum "Si O2"
_cell_formula_units_Z 160
_cell_length_a 20.475461
_cell_length_b 20.475461
_cell_length_c 18.680236
_cell_angle_alpha 90.000000
_cell_angle_beta 90.000000
_cell_angle_gamma 90.000000
_cell_volume 7831.586261
_symmetry_space_group_name_H-M "I 4/M C M"
_symmetry_group_IT_number 140
_symmetry_cell_setting 'tetragonal'
loop_
_space_group_symop_operation_xyz
x,y,z
-y,x,z
-x,-y,z
y,-x,z
x,-y,1/2-z
-x,y,1/2-z
y,x,1/2-z
-y,-x,1/2-z
-x,-y,-z
y,-x,-z
x,y,-z
-y,x,-z
-x,y,1/2+z
x,-y,1/2+z
-y,-x,1/2+z
y,x,1/2+z
1/2+x,1/2+y,1/2+z
1/2-y,1/2+x,1/2+z
1/2-x,1/2-y,1/2+z
1/2+y,1/2-x,1/2+z
1/2+x,1/2-y,-z
1/2-x,1/2+y,-z
1/2+y,1/2+x,-z
1/2-y,1/2-x,-z
1/2-x,1/2-y,1/2-z
1/2+y,1/2-x,1/2-z
1/2+x,1/2+y,1/2-z
1/2-y,1/2+x,1/2-z
1/2-x,1/2+y,z
1/2+x,1/2-y,z
1/2-y,1/2-x,z
1/2+y,1/2+x,z
loop_
_atom_site_type_symbol
_atom_site_label
_atom_site_fract_x
_atom_site_fract_y
_atom_site_fract_z
Si Si1 0.427808 0.578603 0.835824
Si Si2 0.452164 0.840620 0.685029
Si Si3 0.656161 0.259210 0.295779
Si Si4 0.926918 0.679319 0.085995
Si Si5 0.348149 0.689124 0.085270
O O1 0.410729 0.503856 0.852108
O O2 0.417481 0.582520 0.750000
O O3 0.388340 0.628152 0.884266
O O4 0.500000 0.859704 0.750000
O O5 0.396685 0.896685 0.672743
O O6 0.415178 0.772277 0.703688
O O7 0.501752 0.827321 0.620010
O O8 0.677889 0.322112 0.250000
O O9 0.701328 0.201328 0.266498
O O10 0.678827 0.279533 0.375010
O O11 0.882273 0.617728 0.107923
O O12 0.886684 0.744672 0.107095
O O13 0.931449 0.680088 0.000000
O O14 0.341957 0.689524 0.000000
#
# Coordination Sequence:
#
# PCOD9572550 Si02
#       5
#    32  32  32  32  32
#     4   9  20  39  60  84 119 163 208 255 311 380
#     4  11  24  41  66  97 128 164 210 267 322 380
#     4  10  22  41  63  89 122 161 206 257 316 381
#     4  10  23  43  64  89 127 173 217 264 323 386
#     4  11  23  38  62  91 125 165 209 260 317 380
#
# _framework density 20.430088999999999
#
# number of rings (size 3 to 8) (size 9 to 14) (size 15 to 20)
#    0.000    1.800    0.000    3.600    2.800    6.200 
#    0.000    4.000    0.000    0.000    0.000    0.000 
#    0.000    0.000    0.000    0.000    0.000    0.000 
#
# Total GULP energy -446419.779806 kJ/mol
# GULP energy per Si atom -5580.247248 kJ/mol
# Density = 2.038359 g / cm^3
# Si number density = 20.430089 Si / 1000 Ang^3
#
#
#
# Elastic Constant Matrix: (Units=GPa)
#
#
# Indices 1 2 3 4 5 6 
#
# 1 119.8024 29.8008 21.4938 0.0000 0.0000 0.0000
# 2 29.8008 119.8037 21.4981 0.0000 0.0000 0.0000
# 3 21.4938 21.4981 59.6170 0.0000 0.0000 0.0000
# 4 0.0000 0.0000 0.0000 33.1701 0.0000 0.0000
# 5 0.0000 0.0000 0.0000 0.0000 33.1705 0.0000
# 6 0.0000 0.0000 0.0000 0.0000 0.0000 41.9602
#
#
#
# Elastic Compliance Matrix: (Units=1/GPa)
#
#
# Indices 1 2 3 4 5 6 
#
# 1 0.009284 -0.001827 -0.002688 0.000000 0.000000 0.000000
# 2 -0.001827 0.009284 -0.002689 0.000000 0.000000 0.000000
# 3 -0.002688 -0.002689 0.018713 0.000000 0.000000 0.000000
# 4 0.000000 0.000000 0.000000 0.030148 0.000000 0.000000
# 5 0.000000 0.000000 0.000000 0.000000 0.030147 0.000000
# 6 0.000000 0.000000 0.000000 0.000000 0.000000 0.023832
#
#
# Mechanical properties :
#
#
# Convention : Reuss Voigt Hill
#
# Bulk Modulus (GPa) = 43.72217 49.42313 46.57265
# Shear Modulus (GPa) = 34.85774 36.75554 35.80664
#
# Velocity S-wave (km/s) = 4.13509 4.24617 4.19100
# Velocity P-wave (km/s) = 6.65177 6.94865 6.80183
#
# Compressibility (1/GPa) = 0.02287169
#
# Stress axis : x y z
#
# Youngs Moduli (GPa) = 107.71412 107.71235 53.43969
#
# Poissons Ratio (x) = 0.19678 0.14366
# Poissons Ratio (y) = 0.19679 0.14371
# Poissons Ratio (z) = 0.28957 0.28966
#
# Static dielectric constant tensor:
#      x y z
#    x 1.730300 0.000000 0.000000 
#    y 0.000000 1.730300 0.000000 
#    z 0.000000 0.000000 1.753600 
# 
# From -- ./inp_files/6879.got.cif
#   From: 2010.05.17/outbox.cif.g08.bks.cpg/sg140_4_cif.got.tgz:6879.got - 2010.06.21 00:45:31.
