data_PCOD9572652
_publ_section_title
;
Structure prediction by ZEFSAII (Michael W. Deem and Ramdas Pophale) SiO2 
 PCOD9572652
Probable space group: I 4/M C M
;
_chemical_formula_sum "Si O2"
_cell_formula_units_Z 96
_cell_length_a 14.216638
_cell_length_b 14.216638
_cell_length_c 21.129459
_cell_angle_alpha 90.000000
_cell_angle_beta 90.000000
_cell_angle_gamma 90.000000
_cell_volume 4270.534037
_symmetry_space_group_name_H-M "I 4/M C M"
_symmetry_group_IT_number 140
_symmetry_cell_setting 'tetragonal'
loop_
_space_group_symop_operation_xyz
x,y,z
-y,x,z
-x,-y,z
y,-x,z
x,-y,1/2-z
-x,y,1/2-z
y,x,1/2-z
-y,-x,1/2-z
-x,-y,-z
y,-x,-z
x,y,-z
-y,x,-z
-x,y,1/2+z
x,-y,1/2+z
-y,-x,1/2+z
y,x,1/2+z
1/2+x,1/2+y,1/2+z
1/2-y,1/2+x,1/2+z
1/2-x,1/2-y,1/2+z
1/2+y,1/2-x,1/2+z
1/2+x,1/2-y,-z
1/2-x,1/2+y,-z
1/2+y,1/2+x,-z
1/2-y,1/2-x,-z
1/2-x,1/2-y,1/2-z
1/2+y,1/2-x,1/2-z
1/2+x,1/2+y,1/2-z
1/2-y,1/2+x,1/2-z
1/2-x,1/2+y,z
1/2+x,1/2-y,z
1/2-y,1/2-x,z
1/2+y,1/2+x,z
loop_
_atom_site_type_symbol
_atom_site_label
_atom_site_fract_x
_atom_site_fract_y
_atom_site_fract_z
Si Si1 0.426010 0.073991 0.615659
Si Si2 0.008166 0.696476 0.500000
Si Si3 0.782525 0.717476 0.819503
Si Si4 0.604301 0.603406 0.641186
Si Si5 0.868715 0.859768 0.500000
O O1 0.360418 0.017348 0.565390
O O2 0.362296 0.137705 0.663094
O O3 0.500000 0.000000 0.645327
O O4 0.102106 0.762137 0.500000
O O5 0.911504 0.754957 0.500000
O O6 0.750000 0.750000 0.750000
O O7 0.686272 0.676853 0.847616
O O8 0.500285 0.629365 0.666060
O O9 0.600714 0.594448 0.565755
#
# Coordination Sequence:
#
# PCOD9572652 Si02
#       5
#    16  16  16  32  16
#     4  11  24  50  65 103 157 194 248 303 396 461
#     4  11  22  37  67 110 148 194 222 300 377 483
#     4  12  27  49  72 102 139 195 269 316 359 443
#     4  11  23  44  73 105 145 187 231 305 385 455
#     4  12  18  37  66 109 147 167 233 287 378 445
#
# _framework density 22.479624000000001
#
# number of rings (size 3 to 8) (size 9 to 14) (size 15 to 20)
#    0.000    0.667    6.667    1.000    0.000    3.667 
#   21.000    1.667    3.667    0.000    0.000    0.000 
#    0.000    0.000    0.000    0.000    0.000    0.000 
#
# Total GULP energy -267538.585810 kJ/mol
# GULP energy per Si atom -5573.720538 kJ/mol
# Density = 2.242846 g / cm^3
# Si number density = 22.479624 Si / 1000 Ang^3
#
#
#
# Elastic Constant Matrix: (Units=GPa)
#
#
# Indices 1 2 3 4 5 6 
#
# 1 131.0337 88.3814 38.4292 0.0000 0.0000 0.0000
# 2 88.3814 131.0337 38.4292 0.0000 0.0000 0.0000
# 3 38.4292 38.4292 98.3606 0.0000 0.0000 0.0000
# 4 0.0000 0.0000 0.0000 -26.1063 0.0000 0.0000
# 5 0.0000 0.0000 0.0000 0.0000 -26.1063 0.0000
# 6 0.0000 0.0000 0.0000 0.0000 0.0000 65.4973
#
#
#
# Elastic Compliance Matrix: (Units=1/GPa)
#
#
# Indices 1 2 3 4 5 6 
#
# 1 0.014363 -0.009083 -0.002063 0.000000 0.000000 0.000000
# 2 -0.009083 0.014363 -0.002063 0.000000 0.000000 0.000000
# 3 -0.002063 -0.002063 0.011779 0.000000 0.000000 0.000000
# 4 0.000000 0.000000 0.000000 -0.038305 0.000000 0.000000
# 5 0.000000 0.000000 0.000000 0.000000 -0.038305 0.000000
# 6 0.000000 0.000000 0.000000 0.000000 0.000000 0.015268
#
#
# Mechanical properties :
#
#
# Convention : Reuss Voigt Hill
#
# Bulk Modulus (GPa) = 70.98632 76.76752 73.87692
# Shear Modulus (GPa) = 486.61891 15.66948 251.14420
#
# Velocity S-wave (km/s) = 14.72892 2.64304 10.58127
# Velocity P-wave (km/s) = 17.91372 6.59835 13.49888
#
# Compressibility (1/GPa) = 0.01408722
#
# Stress axis : x y z
#
# Youngs Moduli (GPa) = 69.62438 69.62438 84.89936
#
# Poissons Ratio (x) = 0.63237 0.17514
# Poissons Ratio (y) = 0.63237 0.17514
# Poissons Ratio (z) = 0.14363 0.14363
#
# Static dielectric constant tensor:
#      x y z
#    x 2.067150 0.000000 0.000000 
#    y 0.000000 2.067150 0.000000 
#    z 0.000000 0.000000 1.827460 
# 
# From -- ./inp_files/7752.got.cif
#   From: 2010.05.17/outbox.cif.g08.bks.cpg/sg140_4_cif.got.tgz:7752.got - 2010.06.21 00:45:31.
