data_PCOD9572954
_publ_section_title
;
Structure prediction by ZEFSAII (Michael W. Deem and Ramdas Pophale) SiO2 
 PCOD9572954
Probable space group: I 41/A M D
;
_chemical_formula_sum "Si O2"
_cell_formula_units_Z 160
_cell_length_a 26.110701
_cell_length_b 26.110701
_cell_length_c 11.557298
_cell_angle_alpha 90.000000
_cell_angle_beta 90.000000
_cell_angle_gamma 90.000000
_cell_volume 7879.404111
_symmetry_space_group_name_H-M "I 41/A M D"
_symmetry_group_IT_number 141
_space_group.IT_coordinate_system_code '2'
_symmetry_cell_setting 'tetragonal'
loop_
_space_group_symop_operation_xyz
x,y,z
1/4-y,3/4+x,1/4+z
-x,1/2-y,z
1/4+y,1/4-x,3/4+z
x,-y,-z
-x,1/2+y,-z
1/4+y,3/4+x,1/4-z
1/4-y,1/4-x,3/4-z
-x,-y,-z
3/4+y,1/4-x,3/4-z
x,1/2+y,-z
3/4-y,3/4+x,1/4-z
-x,y,z
x,1/2-y,z
3/4-y,1/4-x,3/4+z
3/4+y,3/4+x,1/4+z
1/2+x,1/2+y,1/2+z
3/4-y,1/4+x,3/4+z
1/2-x,-y,1/2+z
3/4+y,3/4-x,1/4+z
1/2+x,1/2-y,1/2-z
1/2-x,y,1/2-z
3/4+y,1/4+x,3/4-z
3/4-y,3/4-x,1/4-z
1/2-x,1/2-y,1/2-z
1/4+y,3/4-x,1/4-z
1/2+x,y,1/2-z
1/4-y,1/4+x,3/4-z
1/2-x,1/2+y,1/2+z
1/2+x,-y,1/2+z
1/4-y,3/4-x,1/4+z
1/4+y,1/4+x,3/4+z
loop_
_atom_site_type_symbol
_atom_site_label
_atom_site_fract_x
_atom_site_fract_y
_atom_site_fract_z
Si Si1 0.557093 0.392056 0.423270
Si Si2 0.558810 0.691191 0.375000
Si Si3 0.852617 0.586903 0.452657
Si Si4 0.244870 0.381897 0.997686
Si Si5 0.593544 0.500000 0.500000
Si Si6 0.293705 0.194257 0.153338
O O1 0.500000 0.383271 0.375958
O O2 0.565579 0.350509 0.524820
O O3 0.604913 0.388510 0.337592
O O4 0.561251 0.449663 0.471706
O O5 0.500000 0.685836 0.331539
O O6 0.795137 0.582258 0.502050
O O7 0.855739 0.549588 0.339660
O O8 0.897026 0.575225 0.544372
O O9 0.265653 0.325995 0.038841
O O10 0.233585 0.377270 0.861720
O O11 0.318367 0.250000 0.139201
O O12 0.250000 0.199387 0.250000
#
# Coordination Sequence:
#
# PCOD9572954 Si02
#       6
#    32  16  32  32  16  32
#     4  10  20  34  55  83 115 151 194 242 295 349
#     4   9  18  32  50  76 114 154 188 228 286 360
#     4  10  21  38  61  84 118 154 196 243 293 349
#     4  10  21  37  61  83 118 153 195 242 297 356
#     4  10  21  36  58  84 112 150 192 248 297 346
#     4   9  19  37  62  87 110 146 196 241 283 339
#
# _framework density 20.306104999999999
#
# number of rings (size 3 to 8) (size 9 to 14) (size 15 to 20)
#    0.000    2.300    0.000    2.100    0.000    7.200 
#    0.000    4.000   88.000    0.000    0.000    0.000 
#    0.000    0.000    0.000    0.000    0.000    0.000 
#
# Total GULP energy -445875.254938 kJ/mol
# GULP energy per Si atom -5573.440687 kJ/mol
# Density = 2.025989 g / cm^3
# Si number density = 20.306105 Si / 1000 Ang^3
#
#
#
# Elastic Constant Matrix: (Units=GPa)
#
#
# Indices 1 2 3 4 5 6 
#
# 1 79.9977 25.5832 20.3904 0.0000 0.0000 0.0000
# 2 25.5832 80.0000 20.3897 0.0000 0.0000 0.0000
# 3 20.3904 20.3897 96.5954 0.0000 0.0000 0.0000
# 4 0.0000 0.0000 0.0000 12.8784 0.0000 0.0000
# 5 0.0000 0.0000 0.0000 0.0000 12.8795 0.0000
# 6 0.0000 0.0000 0.0000 0.0000 0.0000 28.4715
#
#
#
# Elastic Compliance Matrix: (Units=1/GPa)
#
#
# Indices 1 2 3 4 5 6 
#
# 1 0.014345 -0.004033 -0.002177 0.000000 0.000000 0.000000
# 2 -0.004033 0.014344 -0.002177 0.000000 0.000000 0.000000
# 3 -0.002177 -0.002177 0.011271 0.000000 0.000000 0.000000
# 4 0.000000 0.000000 0.000000 0.077649 0.000000 0.000000
# 5 0.000000 0.000000 0.000000 0.000000 0.077643 0.000000
# 6 0.000000 0.000000 0.000000 0.000000 0.000000 0.035123
#
#
# Mechanical properties :
#
#
# Convention : Reuss Voigt Hill
#
# Bulk Modulus (GPa) = 43.12470 43.25774 43.19122
# Shear Modulus (GPa) = 19.61729 23.52787 21.57258
#
# Velocity S-wave (km/s) = 3.11155 3.40760 3.26294
# Velocity P-wave (km/s) = 5.84743 6.06889 5.95919
#
# Compressibility (1/GPa) = 0.02318856
#
# Stress axis : x y z
#
# Youngs Moduli (GPa) = 69.71163 69.71406 88.71998
#
# Poissons Ratio (x) = 0.28112 0.19313
# Poissons Ratio (y) = 0.28111 0.19311
# Poissons Ratio (z) = 0.15175 0.15174
#
# Static dielectric constant tensor:
#      x y z
#    x 1.750860 0.000000 0.000000 
#    y 0.000000 1.750860 0.000000 
#    z 0.000000 0.000000 1.788520 
# 
# From -- ./inp_files/4929.got.cif
#   From: 2010.05.17/outbox.cif.g08.bks.cpg/sg141_3_cif.got.tgz:4929.got - 2010.05.20 13:30:51.
