data_PCOD9572728
_publ_section_title
;
Structure prediction by ZEFSAII (Michael W. Deem and Ramdas Pophale) SiO2 
 PCOD9572728
Probable space group: I 4/M C M
;
_chemical_formula_sum "Si O2"
_cell_formula_units_Z 80
_cell_length_a 21.000000
_cell_length_b 21.000000
_cell_length_c 18.000000
_cell_angle_alpha 90.000000
_cell_angle_beta 90.000000
_cell_angle_gamma 90.000000
_cell_volume 7938.000000
_symmetry_space_group_name_H-M "I 4/M C M"
_symmetry_group_IT_number 140
_symmetry_cell_setting 'tetragonal'
loop_
_space_group_symop_operation_xyz
x,y,z
-y,x,z
-x,-y,z
y,-x,z
x,-y,1/2-z
-x,y,1/2-z
y,x,1/2-z
-y,-x,1/2-z
-x,-y,-z
y,-x,-z
x,y,-z
-y,x,-z
-x,y,1/2+z
x,-y,1/2+z
-y,-x,1/2+z
y,x,1/2+z
1/2+x,1/2+y,1/2+z
1/2-y,1/2+x,1/2+z
1/2-x,1/2-y,1/2+z
1/2+y,1/2-x,1/2+z
1/2+x,1/2-y,-z
1/2-x,1/2+y,-z
1/2+y,1/2+x,-z
1/2-y,1/2-x,-z
1/2-x,1/2-y,1/2-z
1/2+y,1/2-x,1/2-z
1/2+x,1/2+y,1/2-z
1/2-y,1/2+x,1/2-z
1/2-x,1/2+y,z
1/2+x,1/2-y,z
1/2-y,1/2-x,z
1/2+y,1/2+x,z
loop_
_atom_site_type_symbol
_atom_site_label
_atom_site_fract_x
_atom_site_fract_y
_atom_site_fract_z
Si Si1 0.918959 0.931653 0.335057
Si Si2 0.877836 0.622165 0.090654
Si Si3 0.664937 0.663769 0.915828
Si Si4 0.718036 0.781965 0.674670
Si Si5 0.102831 0.706079 0.082391
Si Si6 0.985744 0.382378 0.837398
O O1 0.909143 0.909143 0.250000
O O2 0.868958 0.898854 0.387932
O O3 0.992846 0.914480 0.346152
O O4 0.836034 0.663966 0.150566
O O5 0.869380 0.548137 0.113917
O O6 0.867419 0.632582 0.000000
O O7 0.721529 0.686573 0.864551
O O8 0.612404 0.719491 0.912480
O O9 0.688167 0.658704 0.000000
O O10 0.750000 0.750000 0.750000
O O11 0.171837 0.671837 0.086105
O O12 0.061135 0.676075 0.146400
O O13 0.077041 0.689654 0.000000
O O14 0.945517 0.445517 0.859842
O O15 0.000000 0.387884 0.750000
#
# Coordination Sequence:
#
# PCOD9572728 Si02
#       6
#    32  16  32  16  32  32
#     4   9  20  41  64  91 129 170 217 273 335 401
#     4  12  27  44  66  99 141 185 228 296 364 414
#     4  11  22  40  66  95 129 167 215 273 338 406
#     4  12  28  45  69  96 131 174 227 276 347 411
#     4   9  19  37  62  89 125 171 219 270 334 407
#     4  11  23  40  65  97 139 180 236 288 341 416
#
# _framework density 10.078105000000001
#
# number of rings (size 3 to 8) (size 9 to 14) (size 15 to 20)
#    0.000    1.600    2.000    3.000    2.800    4.000 
#    3.600    3.000    0.000    0.000    0.000    0.000 
#    0.000    0.000    0.000    0.000    0.000    0.000 
#
# Total GULP energy -445686.878506 kJ/mol
# GULP energy per Si atom -5571.085981 kJ/mol
# Density = 1.005517 g / cm^3
# Si number density = 10.078105 Si / 1000 Ang^3
#
#
#
# Elastic Constant Matrix: (Units=GPa)
#
#
# Indices 1 2 3 4 5 6 
#
# 1 -33.1217 103.8732 43.2809 0.0000 0.0000 0.0000
# 2 103.8732 -33.1217 43.2814 0.0000 0.0000 0.0000
# 3 43.2809 43.2814 85.9769 0.0000 0.0000 0.0000
# 4 0.0000 0.0000 0.0000 19.2605 0.0000 0.0000
# 5 0.0000 0.0000 0.0000 0.0000 19.2605 0.0000
# 6 0.0000 0.0000 0.0000 0.0000 0.0000 33.6928
#
#
#
# Elastic Compliance Matrix: (Units=1/GPa)
#
#
# Indices 1 2 3 4 5 6 
#
# 1 0.014749 0.022049 -0.018524 0.000000 0.000000 0.000000
# 2 0.022049 0.014749 -0.018524 0.000000 0.000000 0.000000
# 3 -0.018524 -0.018524 0.030281 0.000000 0.000000 0.000000
# 4 0.000000 0.000000 0.000000 0.051920 0.000000 0.000000
# 5 0.000000 0.000000 0.000000 0.000000 0.051920 0.000000
# 6 0.000000 0.000000 0.000000 0.000000 0.000000 0.029680
#
#
# Mechanical properties :
#
#
# Convention : Reuss Voigt Hill
#
# Bulk Modulus (GPa) = 33.57939 44.51158 39.04548
# Shear Modulus (GPa) = 21.43858 3.06264 12.25061
#
# Velocity S-wave (km/s) = 3.26486 1.23400 2.46800
# Velocity P-wave (km/s) = 5.55951 4.91544 5.24737
#
# Compressibility (1/GPa) = 0.02978017
#
# Stress axis : x y z
#
# Youngs Moduli (GPa) = 67.80072 67.80132 33.02376
#
# Poissons Ratio (x) = -1.49492 0.61174
# Poissons Ratio (y) = -1.49491 0.61173
# Poissons Ratio (z) = 1.25595 1.25595
#
# Static dielectric constant tensor:
#      x y z
#    x 1.776390 0.000000 0.000000 
#    y 0.000000 1.776390 0.000000 
#    z 0.000000 0.000000 1.739400 
# 
# From -- ./inp_files/6912.got.cif
#   From: 2010.05.17/outbox.ucp.g08.bks.cvg/sg140_4_cif.got.tgz:6912.got - 2010.06.11 11:42:50.
