data_PCOD9572893
_publ_section_title
;
Structure prediction by ZEFSAII (Michael W. Deem and Ramdas Pophale) SiO2 
 PCOD9572893
Probable space group: I 41/A M D
;
_chemical_formula_sum "Si O2"
_cell_formula_units_Z 192
_cell_length_a 20.410944
_cell_length_b 20.410944
_cell_length_c 23.301121
_cell_angle_alpha 90.000000
_cell_angle_beta 90.000000
_cell_angle_gamma 90.000000
_cell_volume 9707.401611
_symmetry_space_group_name_H-M "I 41/A M D"
_symmetry_group_IT_number 141
_space_group.IT_coordinate_system_code '2'
_symmetry_cell_setting 'tetragonal'
loop_
_space_group_symop_operation_xyz
x,y,z
1/4-y,3/4+x,1/4+z
-x,1/2-y,z
1/4+y,1/4-x,3/4+z
x,-y,-z
-x,1/2+y,-z
1/4+y,3/4+x,1/4-z
1/4-y,1/4-x,3/4-z
-x,-y,-z
3/4+y,1/4-x,3/4-z
x,1/2+y,-z
3/4-y,3/4+x,1/4-z
-x,y,z
x,1/2-y,z
3/4-y,1/4-x,3/4+z
3/4+y,3/4+x,1/4+z
1/2+x,1/2+y,1/2+z
3/4-y,1/4+x,3/4+z
1/2-x,-y,1/2+z
3/4+y,3/4-x,1/4+z
1/2+x,1/2-y,1/2-z
1/2-x,y,1/2-z
3/4+y,1/4+x,3/4-z
3/4-y,3/4-x,1/4-z
1/2-x,1/2-y,1/2-z
1/4+y,3/4-x,1/4-z
1/2+x,y,1/2-z
1/4-y,1/4+x,3/4-z
1/2-x,1/2+y,1/2+z
1/2+x,-y,1/2+z
1/4-y,3/4-x,1/4+z
1/4+y,1/4+x,3/4+z
loop_
_atom_site_type_symbol
_atom_site_label
_atom_site_fract_x
_atom_site_fract_y
_atom_site_fract_z
Si Si1 0.718292 0.822227 0.638070
Si Si2 0.330749 0.574184 0.021535
Si Si3 0.319425 0.322578 0.610771
Si Si4 0.073408 0.952022 0.945551
Si Si5 0.927017 0.381393 0.431033
Si Si6 0.695729 0.865579 0.513021
O O1 0.691821 0.750000 0.654023
O O2 0.678361 0.881727 0.667489
O O3 0.792865 0.824581 0.660287
O O4 0.720353 0.829851 0.569932
O O5 0.338789 0.500000 0.000000
O O6 0.372389 0.622011 0.980255
O O7 0.254462 0.589442 0.012448
O O8 0.337915 0.250000 0.632699
O O9 0.371468 0.378533 0.625000
O O10 0.249415 0.337775 0.640960
O O11 0.317845 0.321496 0.542047
O O12 0.131307 0.903456 0.964265
O O13 0.000000 0.922870 0.937015
O O14 0.069241 0.000000 0.000000
O O15 0.910452 0.339549 0.375000
O O16 0.000000 0.366924 0.452399
#
# Coordination Sequence:
#
# PCOD9572893 Si02
#       6
#    32  32  32  32  32  32
#     4  10  21  37  57  85 127 163 197 250 314 365
#     4  10  21  34  56  90 122 154 200 250 306 356
#     4  11  24  40  59  85 116 154 197 241 300 365
#     4  10  21  39  59  85 122 157 188 244 323 375
#     4  10  19  36  56  81 121 167 207 249 300 358
#     4  12  21  37  63  92 117 156 203 254 296 366
#
# _framework density 19.778721000000001
#
# number of rings (size 3 to 8) (size 9 to 14) (size 15 to 20)
#    0.000    1.500    3.333    2.500    0.000    2.333 
#    0.000    0.000    0.000    1.500    0.000    0.000 
#    0.000    0.000    0.000    0.000    0.000    0.000 
#
# Total GULP energy -534942.008529 kJ/mol
# GULP energy per Si atom -5572.312589 kJ/mol
# Density = 1.973370 g / cm^3
# Si number density = 19.778721 Si / 1000 Ang^3
#
#
#
# Elastic Constant Matrix: (Units=GPa)
#
#
# Indices 1 2 3 4 5 6 
#
# 1 82.0000 47.6692 19.9997 0.0000 0.0000 0.0000
# 2 47.6692 81.9979 19.9988 0.0000 0.0000 0.0000
# 3 19.9997 19.9988 99.6749 0.0000 0.0000 0.0000
# 4 0.0000 0.0000 0.0000 20.5308 0.0000 0.0000
# 5 0.0000 0.0000 0.0000 0.0000 20.5305 0.0000
# 6 0.0000 0.0000 0.0000 0.0000 0.0000 8.8435
#
#
#
# Elastic Compliance Matrix: (Units=1/GPa)
#
#
# Indices 1 2 3 4 5 6 
#
# 1 0.018675 -0.010454 -0.001650 0.000000 0.000000 0.000000
# 2 -0.010454 0.018675 -0.001649 0.000000 0.000000 0.000000
# 3 -0.001650 -0.001649 0.010695 0.000000 0.000000 0.000000
# 4 0.000000 0.000000 0.000000 0.048707 0.000000 0.000000
# 5 0.000000 0.000000 0.000000 0.000000 0.048708 0.000000
# 6 0.000000 0.000000 0.000000 0.000000 0.000000 0.113077
#
#
# Mechanical properties :
#
#
# Convention : Reuss Voigt Hill
#
# Bulk Modulus (GPa) = 48.68957 48.77870 48.73413
# Shear Modulus (GPa) = 17.07129 21.71463 19.39296
#
# Velocity S-wave (km/s) = 2.94107 3.31702 3.13468
# Velocity P-wave (km/s) = 6.01696 6.27582 6.14775
#
# Compressibility (1/GPa) = 0.02053828
#
# Stress axis : x y z
#
# Youngs Moduli (GPa) = 53.54803 53.54681 93.50581
#
# Poissons Ratio (x) = 0.55979 0.15424
# Poissons Ratio (y) = 0.55980 0.15423
# Poissons Ratio (z) = 0.08833 0.08832
#
# Static dielectric constant tensor:
#      x y z
#    x 1.710660 0.000000 0.000000 
#    y 0.000000 1.710660 0.000000 
#    z 0.000000 0.000000 1.716490 
# 
# From -- ./inp_files/11669.got.cif
#   From: 2010.05.17/outbox.cif.g08.bks.cpg/sg141_6_cif.got.tgz:11669.got - 2010.05.20 13:30:51.
