data_PCOD9572430
_publ_section_title
;
Structure prediction by ZEFSAII (Michael W. Deem and Ramdas Pophale) SiO2 
 PCOD9572430
Probable space group: I 4/M C M
;
_chemical_formula_sum "Si O2"
_cell_formula_units_Z 176
_cell_length_a 19.630107
_cell_length_b 19.630107
_cell_length_c 27.008139
_cell_angle_alpha 90.000000
_cell_angle_beta 90.000000
_cell_angle_gamma 90.000000
_cell_volume 10407.346014
_symmetry_space_group_name_H-M "I 4/M C M"
_symmetry_group_IT_number 140
_symmetry_cell_setting 'tetragonal'
loop_
_space_group_symop_operation_xyz
x,y,z
-y,x,z
-x,-y,z
y,-x,z
x,-y,1/2-z
-x,y,1/2-z
y,x,1/2-z
-y,-x,1/2-z
-x,-y,-z
y,-x,-z
x,y,-z
-y,x,-z
-x,y,1/2+z
x,-y,1/2+z
-y,-x,1/2+z
y,x,1/2+z
1/2+x,1/2+y,1/2+z
1/2-y,1/2+x,1/2+z
1/2-x,1/2-y,1/2+z
1/2+y,1/2-x,1/2+z
1/2+x,1/2-y,-z
1/2-x,1/2+y,-z
1/2+y,1/2+x,-z
1/2-y,1/2-x,-z
1/2-x,1/2-y,1/2-z
1/2+y,1/2-x,1/2-z
1/2+x,1/2+y,1/2-z
1/2-y,1/2+x,1/2-z
1/2-x,1/2+y,z
1/2+x,1/2-y,z
1/2-y,1/2-x,z
1/2+y,1/2+x,z
loop_
_atom_site_type_symbol
_atom_site_label
_atom_site_fract_x
_atom_site_fract_y
_atom_site_fract_z
Si Si1 0.334337 0.053035 0.287685
Si Si2 0.248384 0.632534 0.891810
Si Si3 0.736158 0.649906 0.059062
Si Si4 0.555667 0.944334 0.440749
Si Si5 0.143392 0.760220 0.776761
Si Si6 0.017117 0.702599 0.602681
O O1 0.386243 0.113758 0.300192
O O2 0.272108 0.084033 0.256150
O O3 0.309514 0.020041 0.338362
O O4 0.368568 0.000000 0.250000
O O5 0.181869 0.681869 0.894130
O O6 0.307722 0.671585 0.921276
O O7 0.270094 0.626363 0.834209
O O8 0.229391 0.557699 0.911001
O O9 0.801862 0.698139 0.070041
O O10 0.747888 0.578090 0.085779
O O11 0.732783 0.640832 0.000000
O O12 0.557640 0.942361 0.500000
O O13 0.629598 0.966343 0.421581
O O14 0.500000 0.000000 0.424509
O O15 0.174050 0.825951 0.750000
O O16 0.203072 0.703072 0.776649
#
# Coordination Sequence:
#
# PCOD9572430 Si02
#       6
#    32  32  32  16  32  32
#     4  11  21  33  49  78 113 153 190 220 269 344
#     4  10  21  36  56  84 115 148 192 245 290 341
#     4  10  21  38  59  82 109 149 199 244 293 348
#     4  11  24  38  56  82 115 158 200 235 290 357
#     4   9  17  31  52  75 107 144 185 228 278 332
#     4  12  21  37  59  82 119 154 193 240 291 348
#
# _framework density 16.911131000000001
#
# number of rings (size 3 to 8) (size 9 to 14) (size 15 to 20)
#    0.000    1.545    3.636    2.182    0.000    5.273 
#    0.000    1.818    0.000    0.545    0.000    1.273 
#    0.000    0.364    0.000    0.000    0.000    0.000 
#
# Total GULP energy -491172.977487 kJ/mol
# GULP energy per Si atom -5581.511108 kJ/mol
# Density = 1.687264 g / cm^3
# Si number density = 16.911131 Si / 1000 Ang^3
#
#
#
# Elastic Constant Matrix: (Units=GPa)
#
#
# Indices 1 2 3 4 5 6 
#
# 1 89.2029 56.3923 28.9702 0.0000 0.0000 0.0000
# 2 56.3923 89.2024 28.9699 0.0000 0.0000 0.0000
# 3 28.9702 28.9699 60.4158 0.0000 0.0000 0.0000
# 4 0.0000 0.0000 0.0000 21.3961 0.0000 0.0000
# 5 0.0000 0.0000 0.0000 0.0000 21.3951 0.0000
# 6 0.0000 0.0000 0.0000 0.0000 0.0000 19.1207
#
#
#
# Elastic Compliance Matrix: (Units=1/GPa)
#
#
# Indices 1 2 3 4 5 6 
#
# 1 0.019483 -0.010995 -0.004070 0.000000 0.000000 0.000000
# 2 -0.010995 0.019483 -0.004070 0.000000 0.000000 0.000000
# 3 -0.004070 -0.004070 0.020455 0.000000 0.000000 0.000000
# 4 0.000000 0.000000 0.000000 0.046737 0.000000 0.000000
# 5 0.000000 0.000000 0.000000 0.000000 0.046740 0.000000
# 6 0.000000 0.000000 0.000000 0.000000 0.000000 0.052299
#
#
# Mechanical properties :
#
#
# Convention : Reuss Voigt Hill
#
# Bulk Modulus (GPa) = 47.27920 51.94289 49.61104
# Shear Modulus (GPa) = 19.95858 20.68165 20.32012
#
# Velocity S-wave (km/s) = 3.43914 3.50088 3.47015
# Velocity P-wave (km/s) = 6.61728 6.86465 6.74210
#
# Compressibility (1/GPa) = 0.02115095
#
# Stress axis : x y z
#
# Youngs Moduli (GPa) = 51.32652 51.32638 48.88710
#
# Poissons Ratio (x) = 0.56434 0.19898
# Poissons Ratio (y) = 0.56434 0.19897
# Poissons Ratio (z) = 0.20891 0.20890
#
# Static dielectric constant tensor:
#      x y z
#    x 1.575470 0.000000 0.000000 
#    y 0.000000 1.575470 0.000000 
#    z 0.000000 0.000000 1.572330 
# 
# From -- ./inp_files/10709.got.cif
#   From: 2010.05.17/outbox.cif.g08.bks.cpg/sg140_6_cif.got.tgz:10709.got - 2010.06.21 00:45:31.
