data_PCOD9572527
_publ_section_title
;
Structure prediction by ZEFSAII (Michael W. Deem and Ramdas Pophale) SiO2 
 PCOD9572527
Probable space group: I 4/M C M
;
_chemical_formula_sum "Si O2"
_cell_formula_units_Z 160
_cell_length_a 20.394746
_cell_length_b 20.394746
_cell_length_c 20.852167
_cell_angle_alpha 90.000000
_cell_angle_beta 90.000000
_cell_angle_gamma 90.000000
_cell_volume 8673.368457
_symmetry_space_group_name_H-M "I 4/M C M"
_symmetry_group_IT_number 140
_symmetry_cell_setting 'tetragonal'
loop_
_space_group_symop_operation_xyz
x,y,z
-y,x,z
-x,-y,z
y,-x,z
x,-y,1/2-z
-x,y,1/2-z
y,x,1/2-z
-y,-x,1/2-z
-x,-y,-z
y,-x,-z
x,y,-z
-y,x,-z
-x,y,1/2+z
x,-y,1/2+z
-y,-x,1/2+z
y,x,1/2+z
1/2+x,1/2+y,1/2+z
1/2-y,1/2+x,1/2+z
1/2-x,1/2-y,1/2+z
1/2+y,1/2-x,1/2+z
1/2+x,1/2-y,-z
1/2-x,1/2+y,-z
1/2+y,1/2+x,-z
1/2-y,1/2-x,-z
1/2-x,1/2-y,1/2-z
1/2+y,1/2-x,1/2-z
1/2+x,1/2+y,1/2-z
1/2-y,1/2+x,1/2-z
1/2-x,1/2+y,z
1/2+x,1/2-y,z
1/2-y,1/2-x,z
1/2+y,1/2+x,z
loop_
_atom_site_type_symbol
_atom_site_label
_atom_site_fract_x
_atom_site_fract_y
_atom_site_fract_z
Si Si1 0.409247 0.197945 0.123155
Si Si2 0.366731 0.755248 0.000000
Si Si3 0.751976 0.044499 0.874919
Si Si4 0.238627 0.850079 0.500000
Si Si5 0.251463 0.643305 0.742060
Si Si6 0.505152 0.391087 0.923472
O O1 0.370564 0.129437 0.113454
O O2 0.487282 0.198009 0.127094
O O3 0.382773 0.228519 0.189083
O O4 0.390250 0.244723 0.063566
O O5 0.409730 0.760218 0.936271
O O6 0.331706 0.683922 0.000000
O O7 0.311149 0.811149 0.000000
O O8 0.752163 0.087194 0.810822
O O9 0.823780 0.012367 0.885328
O O10 0.290344 0.790344 0.500000
O O11 0.320884 0.679117 0.750000
O O12 0.199547 0.699547 0.721270
O O13 0.566511 0.439749 0.910277
O O14 0.505108 0.376730 0.000000
#
# Coordination Sequence:
#
# PCOD9572527 Si02
#       6
#    32  16  32  16  32  32
#     4  10  22  39  58  85 116 148 197 243 293 351
#     4  11  23  36  55  90 120 144 192 246 288 343
#     4  12  22  34  62  87 114 160 195 238 293 347
#     4   9  19  36  60  84 113 149 188 245 297 340
#     4  10  22  40  59  83 117 153 192 248 303 349
#     4   9  20  36  53  82 124 164 199 233 273 339
#
# _framework density 18.447272000000002
#
# number of rings (size 3 to 8) (size 9 to 14) (size 15 to 20)
#    0.000    1.800    1.000    3.600    5.600    3.200 
#    0.000    0.000    0.000    3.000    0.000    5.600 
#    0.000    0.000    0.000    0.000    0.000    0.000 
#
# Total GULP energy -446988.378859 kJ/mol
# GULP energy per Si atom -5587.354736 kJ/mol
# Density = 1.840529 g / cm^3
# Si number density = 18.447272 Si / 1000 Ang^3
#
#
#
# Elastic Constant Matrix: (Units=GPa)
#
#
# Indices 1 2 3 4 5 6 
#
# 1 98.9026 41.3111 46.4370 0.0000 0.0000 0.0000
# 2 41.3111 98.9035 46.4373 0.0000 0.0000 0.0000
# 3 46.4370 46.4373 108.7443 0.0000 0.0000 0.0000
# 4 0.0000 0.0000 0.0000 27.3564 0.0000 0.0000
# 5 0.0000 0.0000 0.0000 0.0000 27.3571 0.0000
# 6 0.0000 0.0000 0.0000 0.0000 0.0000 16.3380
#
#
#
# Elastic Compliance Matrix: (Units=1/GPa)
#
#
# Indices 1 2 3 4 5 6 
#
# 1 0.013654 -0.003709 -0.004247 0.000000 0.000000 0.000000
# 2 -0.003709 0.013654 -0.004247 0.000000 0.000000 0.000000
# 3 -0.004247 -0.004247 0.012823 0.000000 0.000000 0.000000
# 4 0.000000 0.000000 0.000000 0.036554 0.000000 0.000000
# 5 0.000000 0.000000 0.000000 0.000000 0.036554 0.000000
# 6 0.000000 0.000000 0.000000 0.000000 0.000000 0.061207
#
#
# Mechanical properties :
#
#
# Convention : Reuss Voigt Hill
#
# Bulk Modulus (GPa) = 63.59065 63.88016 63.73540
# Shear Modulus (GPa) = 24.49850 25.70130 25.09990
#
# Velocity S-wave (km/s) = 3.64817 3.73665 3.69267
# Velocity P-wave (km/s) = 7.23131 7.30208 7.26678
#
# Compressibility (1/GPa) = 0.01572558
#
# Stress axis : x y z
#
# Youngs Moduli (GPa) = 73.23712 73.23772 77.98549
#
# Poissons Ratio (x) = 0.27166 0.33119
# Poissons Ratio (y) = 0.27166 0.33119
# Poissons Ratio (z) = 0.31102 0.31102
#
# Static dielectric constant tensor:
#      x y z
#    x 1.647570 0.000000 0.000000 
#    y 0.000000 1.647570 0.000000 
#    z 0.000000 0.000000 1.613330 
# 
# From -- ./inp_files/6893.got.cif
#   From: 2010.05.17/outbox.cif.g08.bks.cpg/sg140_4_cif.got.tgz:6893.got - 2010.06.21 00:45:31.
