data_PCOD9572146
_publ_section_title
;
Structure prediction by ZEFSAII (Michael W. Deem and Ramdas Pophale) SiO2 
 PCOD9572146
Probable space group: I 4/M C M
;
_chemical_formula_sum "Si O2"
_cell_formula_units_Z 112
_cell_length_a 17.794848
_cell_length_b 17.794848
_cell_length_c 20.552276
_cell_angle_alpha 90.000000
_cell_angle_beta 90.000000
_cell_angle_gamma 90.000000
_cell_volume 6508.014156
_symmetry_space_group_name_H-M "I 4/M C M"
_symmetry_group_IT_number 140
_symmetry_cell_setting 'tetragonal'
loop_
_space_group_symop_operation_xyz
x,y,z
-y,x,z
-x,-y,z
y,-x,z
x,-y,1/2-z
-x,y,1/2-z
y,x,1/2-z
-y,-x,1/2-z
-x,-y,-z
y,-x,-z
x,y,-z
-y,x,-z
-x,y,1/2+z
x,-y,1/2+z
-y,-x,1/2+z
y,x,1/2+z
1/2+x,1/2+y,1/2+z
1/2-y,1/2+x,1/2+z
1/2-x,1/2-y,1/2+z
1/2+y,1/2-x,1/2+z
1/2+x,1/2-y,-z
1/2-x,1/2+y,-z
1/2+y,1/2+x,-z
1/2-y,1/2-x,-z
1/2-x,1/2-y,1/2-z
1/2+y,1/2-x,1/2-z
1/2+x,1/2+y,1/2-z
1/2-y,1/2+x,1/2-z
1/2-x,1/2+y,z
1/2+x,1/2-y,z
1/2-y,1/2-x,z
1/2+y,1/2+x,z
loop_
_atom_site_type_symbol
_atom_site_label
_atom_site_fract_x
_atom_site_fract_y
_atom_site_fract_z
Si Si1 0.334578 0.283236 0.074887
Si Si2 0.669129 0.500000 0.250000
Si Si3 0.855382 0.241108 0.301984
Si Si4 0.041402 0.885147 0.886180
O O1 0.301597 0.198404 0.085132
O O2 0.288987 0.332405 0.127160
O O3 0.420467 0.308753 0.088250
O O4 0.318715 0.301850 0.000000
O O5 0.721758 0.560078 0.214310
O O6 0.621653 0.538855 0.307516
O O7 0.806920 0.193081 0.250000
O O8 0.825946 0.325946 0.295836
O O9 0.956670 0.907134 0.905883
#
# Coordination Sequence:
#
# PCOD9572146 Si02
#       4
#    32  16  32  32
#     4  10  21  37  53  71 103 145 185 223 261 312
#     4  12  18  33  54  79 104 144 176 222 268 325
#     4  10  19  33  53  75  99 133 180 222 261 316
#     4  11  21  32  49  78 113 143 171 210 268 328
#
# _framework density 17.209551000000001
#
# number of rings (size 3 to 8) (size 9 to 14) (size 15 to 20)
#    0.000    1.429    5.714    0.857    0.000    2.286 
#    0.000    1.429    0.000    0.429    0.000    0.000 
#    0.000    1.143    0.000   16.571    0.000    0.000 
#
# Total GULP energy -311781.206029 kJ/mol
# GULP energy per Si atom -5567.521536 kJ/mol
# Density = 1.717038 g / cm^3
# Si number density = 17.209551 Si / 1000 Ang^3
#
#
#
# Elastic Constant Matrix: (Units=GPa)
#
#
# Indices 1 2 3 4 5 6 
#
# 1 68.0806 46.8245 13.9012 0.0000 0.0000 0.0000
# 2 46.8245 68.0806 13.9014 0.0000 0.0000 0.0000
# 3 13.9012 13.9014 91.8760 0.0000 0.0000 0.0000
# 4 0.0000 0.0000 0.0000 21.7493 0.0000 0.0000
# 5 0.0000 0.0000 0.0000 0.0000 21.7478 0.0000
# 6 0.0000 0.0000 0.0000 0.0000 0.0000 40.0195
#
#
#
# Elastic Compliance Matrix: (Units=1/GPa)
#
#
# Indices 1 2 3 4 5 6 
#
# 1 0.028039 -0.019006 -0.001367 0.000000 0.000000 0.000000
# 2 -0.019006 0.028039 -0.001367 0.000000 0.000000 0.000000
# 3 -0.001367 -0.001367 0.011298 0.000000 0.000000 0.000000
# 4 0.000000 0.000000 0.000000 0.045979 0.000000 0.000000
# 5 0.000000 0.000000 0.000000 0.000000 0.045982 0.000000
# 6 0.000000 0.000000 0.000000 0.000000 0.000000 0.024988
#
#
# Mechanical properties :
#
#
# Convention : Reuss Voigt Hill
#
# Bulk Modulus (GPa) = 41.84511 41.92128 41.88319
# Shear Modulus (GPa) = 21.20712 26.93064 24.06888
#
# Velocity S-wave (km/s) = 3.51420 3.96013 3.74381
# Velocity P-wave (km/s) = 6.39015 6.73219 6.56340
#
# Compressibility (1/GPa) = 0.02389766
#
# Stress axis : x y z
#
# Youngs Moduli (GPa) = 35.66403 35.66400 88.51244
#
# Poissons Ratio (x) = 0.67783 0.12098
# Poissons Ratio (y) = 0.67783 0.12098
# Poissons Ratio (z) = 0.04874 0.04875
#
# Static dielectric constant tensor:
#      x y z
#    x 1.635750 0.000000 0.000000 
#    y 0.000000 1.635750 0.000000 
#    z 0.000000 0.000000 1.611910 
# 
# From -- ./inp_files/7938.got.cif
#   From: 2010.05.17/outbox.cif.g08.bks.cpg/sg140_4_cif.got.tgz:7938.got - 2010.06.21 00:45:31.
