data_PCOD9572890
_publ_section_title
;
Structure prediction by ZEFSAII (Michael W. Deem and Ramdas Pophale) SiO2 
 PCOD9572890
Probable space group: I 41/A M D
;
_chemical_formula_sum "Si O2"
_cell_formula_units_Z 160
_cell_length_a 28.313752
_cell_length_b 28.313752
_cell_length_c 10.392894
_cell_angle_alpha 90.000000
_cell_angle_beta 90.000000
_cell_angle_gamma 90.000000
_cell_volume 8331.656287
_symmetry_space_group_name_H-M "I 41/A M D"
_symmetry_group_IT_number 141
_space_group.IT_coordinate_system_code '2'
_symmetry_cell_setting 'tetragonal'
loop_
_space_group_symop_operation_xyz
x,y,z
1/4-y,3/4+x,1/4+z
-x,1/2-y,z
1/4+y,1/4-x,3/4+z
x,-y,-z
-x,1/2+y,-z
1/4+y,3/4+x,1/4-z
1/4-y,1/4-x,3/4-z
-x,-y,-z
3/4+y,1/4-x,3/4-z
x,1/2+y,-z
3/4-y,3/4+x,1/4-z
-x,y,z
x,1/2-y,z
3/4-y,1/4-x,3/4+z
3/4+y,3/4+x,1/4+z
1/2+x,1/2+y,1/2+z
3/4-y,1/4+x,3/4+z
1/2-x,-y,1/2+z
3/4+y,3/4-x,1/4+z
1/2+x,1/2-y,1/2-z
1/2-x,y,1/2-z
3/4+y,1/4+x,3/4-z
3/4-y,3/4-x,1/4-z
1/2-x,1/2-y,1/2-z
1/4+y,3/4-x,1/4-z
1/2+x,y,1/2-z
1/4-y,1/4+x,3/4-z
1/2-x,1/2+y,1/2+z
1/2+x,-y,1/2+z
1/4-y,3/4-x,1/4+z
1/4+y,1/4+x,3/4+z
loop_
_atom_site_type_symbol
_atom_site_label
_atom_site_fract_x
_atom_site_fract_y
_atom_site_fract_z
Si Si1 0.849348 0.546767 0.742967
Si Si2 0.148141 0.563270 0.257102
Si Si3 0.446492 0.541381 0.893478
Si Si4 0.850023 0.305036 0.114937
Si Si5 0.056100 0.801004 0.277915
O O1 0.821372 0.571372 0.625000
O O2 0.836942 0.491423 0.752486
O O3 0.904956 0.546471 0.707985
O O4 0.836341 0.574445 0.872424
O O5 0.160835 0.589166 0.125000
O O6 0.092176 0.567958 0.287799
O O7 0.500000 0.534060 0.844349
O O8 0.437309 0.500000 0.000000
O O9 0.445199 0.586726 0.986004
O O10 0.845993 0.250000 0.070187
O O11 0.903000 0.323846 0.097978
O O12 0.059411 0.809411 0.125000
O O13 0.077345 0.750000 0.309183
O O14 0.000000 0.798529 0.305574
#
# Coordination Sequence:
#
# PCOD9572890 Si02
#       5
#    32  32  32  32  32
#     4  12  23  43  65  89 121 166 213 257 314 382
#     4  12  26  41  62  94 127 159 206 268 323 376
#     4  10  19  37  65  92 117 159 216 259 304 373
#     4  10  19  35  61  88 118 162 209 248 303 376
#     4   8  14  26  47  78 118 162 200 236 291 364
#
# _framework density 19.203866000000001
#
# number of rings (size 3 to 8) (size 9 to 14) (size 15 to 20)
#    0.000    1.600    4.000    2.400    0.000    2.400 
#    0.000    2.000    0.000    3.600    0.000    0.000 
#    0.000    0.000    0.000    0.000    0.000    0.000 
#
# Total GULP energy -446127.259304 kJ/mol
# GULP energy per Si atom -5576.590741 kJ/mol
# Density = 1.916016 g / cm^3
# Si number density = 19.203866 Si / 1000 Ang^3
#
#
#
# Elastic Constant Matrix: (Units=GPa)
#
#
# Indices 1 2 3 4 5 6 
#
# 1 102.9323 25.2226 37.2483 0.0000 0.0000 0.0000
# 2 25.2226 102.9314 37.2469 0.0000 0.0000 0.0000
# 3 37.2483 37.2469 86.4825 0.0000 0.0000 0.0000
# 4 0.0000 0.0000 0.0000 3.2565 0.0000 0.0000
# 5 0.0000 0.0000 0.0000 0.0000 3.2461 0.0000
# 6 0.0000 0.0000 0.0000 0.0000 0.0000 24.3812
#
#
#
# Elastic Compliance Matrix: (Units=1/GPa)
#
#
# Indices 1 2 3 4 5 6 
#
# 1 0.011639 -0.001230 -0.004483 0.000000 0.000000 0.000000
# 2 -0.001230 0.011639 -0.004483 0.000000 0.000000 0.000000
# 3 -0.004483 -0.004483 0.015425 0.000000 0.000000 0.000000
# 4 0.000000 0.000000 0.000000 0.307078 0.000000 0.000000
# 5 0.000000 0.000000 0.000000 0.000000 0.308061 0.000000
# 6 0.000000 0.000000 0.000000 0.000000 0.000000 0.041015
#
#
# Mechanical properties :
#
#
# Convention : Reuss Voigt Hill
#
# Bulk Modulus (GPa) = 54.61382 54.64242 54.62812
# Shear Modulus (GPa) = 6.93143 19.01865 12.97504
#
# Velocity S-wave (km/s) = 1.90190 3.15041 2.60214
# Velocity P-wave (km/s) = 5.77267 6.46135 6.12669
#
# Compressibility (1/GPa) = 0.01831038
#
# Stress axis : x y z
#
# Youngs Moduli (GPa) = 85.91945 85.91968 64.83069
#
# Poissons Ratio (x) = 0.10565 0.29065
# Poissons Ratio (y) = 0.10565 0.29064
# Poissons Ratio (z) = 0.38520 0.38518
#
# Static dielectric constant tensor:
#      x y z
#    x 1.866860 0.000000 0.000000 
#    y 0.000000 1.866850 0.000000 
#    z 0.000000 0.000000 1.619370 
# 
# From -- ./inp_files/4849.got.cif
#   From: 2010.05.17/outbox.cif.g08.bks.cpg/sg141_3_cif.got.tgz:4849.got - 2010.05.20 13:30:51.
