data_PCOD9572389
_publ_section_title
;
Structure prediction by ZEFSAII (Michael W. Deem and Ramdas Pophale) SiO2 
 PCOD9572389
Probable space group: I 4/M C M
;
_chemical_formula_sum "Si O2"
_cell_formula_units_Z 176
_cell_length_a 16.879143
_cell_length_b 16.879143
_cell_length_c 31.474866
_cell_angle_alpha 90.000000
_cell_angle_beta 90.000000
_cell_angle_gamma 90.000000
_cell_volume 8967.361441
_symmetry_space_group_name_H-M "I 4/M C M"
_symmetry_group_IT_number 140
_symmetry_cell_setting 'tetragonal'
loop_
_space_group_symop_operation_xyz
x,y,z
-y,x,z
-x,-y,z
y,-x,z
x,-y,1/2-z
-x,y,1/2-z
y,x,1/2-z
-y,-x,1/2-z
-x,-y,-z
y,-x,-z
x,y,-z
-y,x,-z
-x,y,1/2+z
x,-y,1/2+z
-y,-x,1/2+z
y,x,1/2+z
1/2+x,1/2+y,1/2+z
1/2-y,1/2+x,1/2+z
1/2-x,1/2-y,1/2+z
1/2+y,1/2-x,1/2+z
1/2+x,1/2-y,-z
1/2-x,1/2+y,-z
1/2+y,1/2+x,-z
1/2-y,1/2-x,-z
1/2-x,1/2-y,1/2-z
1/2+y,1/2-x,1/2-z
1/2+x,1/2+y,1/2-z
1/2-y,1/2+x,1/2-z
1/2-x,1/2+y,z
1/2+x,1/2-y,z
1/2-y,1/2-x,z
1/2+y,1/2+x,z
loop_
_atom_site_type_symbol
_atom_site_label
_atom_site_fract_x
_atom_site_fract_y
_atom_site_fract_z
Si Si1 0.175293 0.203442 0.651052
Si Si2 0.096160 0.721096 0.591734
Si Si3 0.873167 0.977003 0.551201
Si Si4 0.000000 0.367062 0.250000
Si Si5 0.079498 0.906057 0.699751
Si Si6 0.673571 0.039497 0.344072
O O1 0.233796 0.266204 0.671133
O O2 0.219242 0.160318 0.612717
O O3 0.160400 0.135818 0.684509
O O4 0.096864 0.254198 0.642133
O O5 0.149862 0.649862 0.571896
O O6 0.043342 0.783725 0.565146
O O7 0.038585 0.680855 0.626960
O O8 0.874626 0.977407 0.500000
O O9 0.938162 0.910338 0.565403
O O10 0.074995 0.425006 0.241925
O O11 0.017773 0.320576 0.293768
O O12 0.083847 0.916154 0.750000
O O13 0.991504 0.893227 0.683253
O O14 0.592201 0.092201 0.348856
#
# Coordination Sequence:
#
# PCOD9572389 Si02
#       6
#    32  32  32  16  32  32
#     4  10  21  33  47  72 103 133 170 221 275 322
#     4  11  22  35  55  84 116 148 183 226 279 335
#     4   9  19  38  64  91 117 147 184 223 267 329
#     4   9  18  34  54  72  94 137 198 246 276 317
#     4   9  18  32  48  65  89 126 170 215 268 330
#     4  10  21  37  55  76 106 146 192 239 284 333
#
# _framework density 19.626732000000001
#
# number of rings (size 3 to 8) (size 9 to 14) (size 15 to 20)
#    0.000    2.273    0.000    3.818    0.000    4.727 
#    0.000    5.455    0.000    1.636    0.000    1.273 
#    0.000    0.000    0.000    0.000    0.000    0.000 
#
# Total GULP energy -490209.121610 kJ/mol
# GULP energy per Si atom -5570.558200 kJ/mol
# Density = 1.958206 g / cm^3
# Si number density = 19.626732 Si / 1000 Ang^3
#
#
#
# Elastic Constant Matrix: (Units=GPa)
#
#
# Indices 1 2 3 4 5 6 
#
# 1 59.9538 40.9587 19.3859 0.0000 0.0000 0.0000
# 2 40.9587 59.9521 19.3861 0.0000 0.0000 0.0000
# 3 19.3859 19.3861 28.4647 0.0000 0.0000 0.0000
# 4 0.0000 0.0000 0.0000 22.9634 0.0000 0.0000
# 5 0.0000 0.0000 0.0000 0.0000 22.9631 0.0000
# 6 0.0000 0.0000 0.0000 0.0000 0.0000 340.8225
#
#
#
# Elastic Compliance Matrix: (Units=1/GPa)
#
#
# Indices 1 2 3 4 5 6 
#
# 1 0.033034 -0.019613 -0.009140 0.000000 0.000000 0.000000
# 2 -0.019613 0.033035 -0.009142 0.000000 0.000000 0.000000
# 3 -0.009140 -0.009142 0.047582 0.000000 0.000000 0.000000
# 4 0.000000 0.000000 0.000000 0.043548 0.000000 0.000000
# 5 0.000000 0.000000 0.000000 0.000000 0.043548 0.000000
# 6 0.000000 0.000000 0.000000 0.000000 0.000000 0.002934
#
#
# Mechanical properties :
#
#
# Convention : Reuss Voigt Hill
#
# Bulk Modulus (GPa) = 26.41176 34.20355 30.30765
# Shear Modulus (GPa) = 17.11795 81.92580 49.52187
#
# Velocity S-wave (km/s) = 2.95647 6.46781 5.02858
# Velocity P-wave (km/s) = 5.01403 8.55813 7.01363
#
# Compressibility (1/GPa) = 0.03786192
#
# Stress axis : x y z
#
# Youngs Moduli (GPa) = 30.27193 30.27063 21.01632
#
# Poissons Ratio (x) = 0.59369 0.19209
# Poissons Ratio (y) = 0.59372 0.19212
# Poissons Ratio (z) = 0.27669 0.27672
#
# Static dielectric constant tensor:
#      x y z
#    x 1.641290 0.000000 0.000000 
#    y 0.000000 1.641300 0.000000 
#    z 0.000000 0.000000 1.676030 
# 
# From -- ./inp_files/10724.got.cif
#   From: 2010.05.17/outbox.cif.g08.bks.cpg/sg140_6_cif.got.tgz:10724.got - 2010.06.21 00:45:31.
