data_PCOD9572187
_publ_section_title
;
Structure prediction by ZEFSAII (Michael W. Deem and Ramdas Pophale) SiO2 
 PCOD9572187
Probable space group: I 4/M C M
;
_chemical_formula_sum "Si O2"
_cell_formula_units_Z 160
_cell_length_a 22.131067
_cell_length_b 22.131067
_cell_length_c 19.281936
_cell_angle_alpha 90.000000
_cell_angle_beta 90.000000
_cell_angle_gamma 90.000000
_cell_volume 9443.986182
_symmetry_space_group_name_H-M "I 4/M C M"
_symmetry_group_IT_number 140
_symmetry_cell_setting 'tetragonal'
loop_
_space_group_symop_operation_xyz
x,y,z
-y,x,z
-x,-y,z
y,-x,z
x,-y,1/2-z
-x,y,1/2-z
y,x,1/2-z
-y,-x,1/2-z
-x,-y,-z
y,-x,-z
x,y,-z
-y,x,-z
-x,y,1/2+z
x,-y,1/2+z
-y,-x,1/2+z
y,x,1/2+z
1/2+x,1/2+y,1/2+z
1/2-y,1/2+x,1/2+z
1/2-x,1/2-y,1/2+z
1/2+y,1/2-x,1/2+z
1/2+x,1/2-y,-z
1/2-x,1/2+y,-z
1/2+y,1/2+x,-z
1/2-y,1/2-x,-z
1/2-x,1/2-y,1/2-z
1/2+y,1/2-x,1/2-z
1/2+x,1/2+y,1/2-z
1/2-y,1/2+x,1/2-z
1/2-x,1/2+y,z
1/2+x,1/2-y,z
1/2-y,1/2-x,z
1/2+y,1/2+x,z
loop_
_atom_site_type_symbol
_atom_site_label
_atom_site_fract_x
_atom_site_fract_y
_atom_site_fract_z
Si Si1 0.656286 0.652211 0.919044
Si Si2 0.830053 0.566940 0.720774
Si Si3 0.609170 0.211060 0.578159
Si Si4 0.429082 0.427900 0.171079
Si Si5 0.259041 0.656886 0.295197
O O1 0.632042 0.720781 0.911372
O O2 0.606423 0.608481 0.886429
O O3 0.714457 0.643590 0.870656
O O4 0.667215 0.641094 0.000000
O O5 0.840411 0.500000 0.750000
O O6 0.888311 0.611689 0.728071
O O7 0.810991 0.566274 0.639786
O O8 0.773850 0.600228 0.759322
O O9 0.584238 0.205717 0.500000
O O10 0.667945 0.167945 0.582679
O O11 0.500636 0.417906 0.164548
O O12 0.411061 0.411061 0.250000
O O13 0.312823 0.687178 0.250000
O O14 0.208269 0.708269 0.300219
#
# Coordination Sequence:
#
# PCOD9572187 Si02
#       5
#    32  32  32  32  32
#     4  11  21  32  51  81 112 142 176 222 276 331
#     4  10  21  37  59  85 112 148 190 233 280 329
#     4   9  18  34  56  82 111 142 179 223 274 335
#     4   9  20  38  54  68  95 141 191 230 263 305
#     4  10  19  35  56  79 108 141 177 219 269 326
#
# _framework density 16.941998000000002
#
# number of rings (size 3 to 8) (size 9 to 14) (size 15 to 20)
#    0.000    2.200    2.000    1.800    0.000    3.800 
#    0.000    4.000    0.000    1.800    0.000    2.800 
#    0.000    0.000    0.000    0.000    0.000    0.000 
#
# Total GULP energy -446231.231201 kJ/mol
# GULP energy per Si atom -5577.890390 kJ/mol
# Density = 1.690344 g / cm^3
# Si number density = 16.941998 Si / 1000 Ang^3
#
#
#
# Elastic Constant Matrix: (Units=GPa)
#
#
# Indices 1 2 3 4 5 6 
#
# 1 17.8052 94.8879 58.4803 0.0000 0.0000 0.0000
# 2 94.8879 17.8048 58.4817 0.0000 0.0000 0.0000
# 3 58.4803 58.4817 156.3343 0.0000 0.0000 0.0000
# 4 0.0000 0.0000 0.0000 22.2384 0.0000 0.0000
# 5 0.0000 0.0000 0.0000 0.0000 22.2391 0.0000
# 6 0.0000 0.0000 0.0000 0.0000 0.0000 10.4110
#
#
#
# Elastic Compliance Matrix: (Units=1/GPa)
#
#
# Indices 1 2 3 4 5 6 
#
# 1 0.000766 0.013739 -0.005426 0.000000 0.000000 0.000000
# 2 0.013739 0.000766 -0.005426 0.000000 0.000000 0.000000
# 3 -0.005426 -0.005426 0.010456 0.000000 0.000000 0.000000
# 4 0.000000 0.000000 0.000000 0.044967 0.000000 0.000000
# 5 0.000000 0.000000 0.000000 0.000000 0.044966 0.000000
# 6 0.000000 0.000000 0.000000 0.000000 0.000000 0.096052
#
#
# Mechanical properties :
#
#
# Convention : Reuss Voigt Hill
#
# Bulk Modulus (GPa) = 56.29885 68.40490 62.35187
# Shear Modulus (GPa) = 25.23716 9.65066 17.44391
#
# Velocity S-wave (km/s) = 3.86375 2.38928 3.21226
# Velocity P-wave (km/s) = 7.29433 6.93362 7.11626
#
# Compressibility (1/GPa) = 0.01776235
#
# Stress axis : x y z
#
# Youngs Moduli (GPa) = 1304.98688 1305.46968 95.63793
#
# Poissons Ratio (x) = -17.93609 0.51895
# Poissons Ratio (y) = -17.92945 0.51893
# Poissons Ratio (z) = 7.08114 7.08347
#
# Static dielectric constant tensor:
#      x y z
#    x 1.559920 0.000000 0.000000 
#    y 0.000000 1.559920 0.000000 
#    z 0.000000 0.000000 1.590660 
# 
# From -- ./inp_files/6797.got.cif
#   From: 2010.05.17/outbox.cif.g08.bks.cpg/sg140_4_cif.got.tgz:6797.got - 2010.06.21 00:45:31.
