data_PCOD9572312
_publ_section_title
;
Structure prediction by ZEFSAII (Michael W. Deem and Ramdas Pophale) SiO2 
 PCOD9572312
Probable space group: I 4/M C M
;
_chemical_formula_sum "Si O2"
_cell_formula_units_Z 160
_cell_length_a 30.844070
_cell_length_b 30.844070
_cell_length_c 10.199178
_cell_angle_alpha 90.000000
_cell_angle_beta 90.000000
_cell_angle_gamma 90.000000
_cell_volume 9703.055857
_symmetry_space_group_name_H-M "I 4/M C M"
_symmetry_group_IT_number 140
_symmetry_cell_setting 'tetragonal'
loop_
_space_group_symop_operation_xyz
x,y,z
-y,x,z
-x,-y,z
y,-x,z
x,-y,1/2-z
-x,y,1/2-z
y,x,1/2-z
-y,-x,1/2-z
-x,-y,-z
y,-x,-z
x,y,-z
-y,x,-z
-x,y,1/2+z
x,-y,1/2+z
-y,-x,1/2+z
y,x,1/2+z
1/2+x,1/2+y,1/2+z
1/2-y,1/2+x,1/2+z
1/2-x,1/2-y,1/2+z
1/2+y,1/2-x,1/2+z
1/2+x,1/2-y,-z
1/2-x,1/2+y,-z
1/2+y,1/2+x,-z
1/2-y,1/2-x,-z
1/2-x,1/2-y,1/2-z
1/2+y,1/2-x,1/2-z
1/2+x,1/2+y,1/2-z
1/2-y,1/2+x,1/2-z
1/2-x,1/2+y,z
1/2+x,1/2-y,z
1/2-y,1/2-x,z
1/2+y,1/2+x,z
loop_
_atom_site_type_symbol
_atom_site_label
_atom_site_fract_x
_atom_site_fract_y
_atom_site_fract_z
Si Si1 0.659034 0.773715 0.843555
Si Si2 0.617165 0.953837 0.000000
Si Si3 0.536194 0.274269 0.348154
Si Si4 0.629820 0.055469 0.000000
Si Si5 0.181030 0.573239 0.766173
Si Si6 0.819956 0.128391 0.652217
O O1 0.705673 0.794328 0.821025
O O2 0.623105 0.803732 0.775228
O O3 0.654087 0.723827 0.807425
O O4 0.648998 0.776175 0.000000
O O5 0.645364 0.938568 0.875030
O O6 0.613040 0.005830 0.000000
O O7 0.571972 0.928029 0.000000
O O8 0.500000 0.290990 0.250000
O O9 0.522326 0.272118 0.500000
O O10 0.548371 0.225570 0.301578
O O11 0.578757 0.304192 0.340647
O O12 0.660004 0.062152 0.872677
O O13 0.590737 0.090737 0.000000
O O14 0.857634 0.142367 0.750000
O O15 0.830252 0.138218 0.500000
#
# Coordination Sequence:
#
# PCOD9572312 Si02
#       6
#    32  16  32  16  32  32
#     4   9  16  31  54  73  94 131 174 210 247 304
#     4  12  22  37  58  68  85 127 165 201 262 336
#     4  10  20  35  57  84 108 134 174 218 258 304
#     4  12  26  37  48  72  99 119 155 217 272 322
#     4  11  21  36  54  76  98 123 160 212 271 319
#     4   9  19  34  49  73 108 144 176 208 251 300
#
# _framework density 16.489650999999999
#
# number of rings (size 3 to 8) (size 9 to 14) (size 15 to 20)
#    0.000    1.800    2.000    4.800    1.400    1.400 
#    5.400    0.000    0.000    2.400    0.000    0.000 
#    0.000    0.400    0.000    4.400    0.000    3.200 
#
# Total GULP energy -446391.773217 kJ/mol
# GULP energy per Si atom -5579.897165 kJ/mol
# Density = 1.645212 g / cm^3
# Si number density = 16.489651 Si / 1000 Ang^3
#
#
#
# Elastic Constant Matrix: (Units=GPa)
#
#
# Indices 1 2 3 4 5 6 
#
# 1 47.1977 36.3359 43.9983 0.0000 0.0000 0.0000
# 2 36.3359 47.2056 44.0017 0.0000 0.0000 0.0000
# 3 43.9983 44.0017 125.4855 0.0000 0.0000 0.0000
# 4 0.0000 0.0000 0.0000 21.0243 0.0000 0.0000
# 5 0.0000 0.0000 0.0000 0.0000 21.0253 0.0000
# 6 0.0000 0.0000 0.0000 0.0000 0.0000 16.8361
#
#
#
# Elastic Compliance Matrix: (Units=1/GPa)
#
#
# Indices 1 2 3 4 5 6 
#
# 1 0.055512 -0.036525 -0.006656 0.000000 0.000000 0.000000
# 2 -0.036525 0.055503 -0.006655 0.000000 0.000000 0.000000
# 3 -0.006656 -0.006655 0.012637 0.000000 0.000000 0.000000
# 4 0.000000 0.000000 0.000000 0.047564 0.000000 0.000000
# 5 0.000000 0.000000 0.000000 0.000000 0.047562 0.000000
# 6 0.000000 0.000000 0.000000 0.000000 0.000000 0.059396
#
#
# Mechanical properties :
#
#
# Convention : Reuss Voigt Hill
#
# Bulk Modulus (GPa) = 41.70594 52.06227 46.88411
# Shear Modulus (GPa) = 12.95875 18.14733 15.55304
#
# Velocity S-wave (km/s) = 2.80638 3.32102 3.07449
# Velocity P-wave (km/s) = 5.98733 6.80785 6.41073
#
# Compressibility (1/GPa) = 0.02397740
#
# Stress axis : x y z
#
# Youngs Moduli (GPa) = 18.01404 18.01720 79.13507
#
# Poissons Ratio (x) = 0.65808 0.52675
# Poissons Ratio (y) = 0.65797 0.52667
# Poissons Ratio (z) = 0.11991 0.11991
#
# Static dielectric constant tensor:
#      x y z
#    x 1.558720 0.000000 0.000000 
#    y 0.000000 1.558720 0.000000 
#    z 0.000000 0.000000 1.553700 
# 
# From -- ./inp_files/1789.got.cif
#   From: 2010.05.17/outbox.cif.g08.bks.cpg/sg140_1_cif.got.tgz:1789.got - 2010.06.21 00:45:31.
