data_PCOD9572103
_publ_section_title
;
Structure prediction by ZEFSAII (Michael W. Deem and Ramdas Pophale) SiO2 
 PCOD9572103
Probable space group: I 4/M C M
;
_chemical_formula_sum "Si O2"
_cell_formula_units_Z 160
_cell_length_a 31.545093
_cell_length_b 31.545093
_cell_length_c 9.520912
_cell_angle_alpha 90.000000
_cell_angle_beta 90.000000
_cell_angle_gamma 90.000000
_cell_volume 9474.191860
_symmetry_space_group_name_H-M "I 4/M C M"
_symmetry_group_IT_number 140
_symmetry_cell_setting 'tetragonal'
loop_
_space_group_symop_operation_xyz
x,y,z
-y,x,z
-x,-y,z
y,-x,z
x,-y,1/2-z
-x,y,1/2-z
y,x,1/2-z
-y,-x,1/2-z
-x,-y,-z
y,-x,-z
x,y,-z
-y,x,-z
-x,y,1/2+z
x,-y,1/2+z
-y,-x,1/2+z
y,x,1/2+z
1/2+x,1/2+y,1/2+z
1/2-y,1/2+x,1/2+z
1/2-x,1/2-y,1/2+z
1/2+y,1/2-x,1/2+z
1/2+x,1/2-y,-z
1/2-x,1/2+y,-z
1/2+y,1/2+x,-z
1/2-y,1/2-x,-z
1/2-x,1/2-y,1/2-z
1/2+y,1/2-x,1/2-z
1/2+x,1/2+y,1/2-z
1/2-y,1/2+x,1/2-z
1/2-x,1/2+y,z
1/2+x,1/2-y,z
1/2-y,1/2-x,z
1/2+y,1/2+x,z
loop_
_atom_site_type_symbol
_atom_site_label
_atom_site_fract_x
_atom_site_fract_y
_atom_site_fract_z
Si Si1 0.175479 0.234015 0.837220
Si Si2 0.463882 0.561289 0.500000
Si Si3 0.305741 0.128808 0.164683
Si Si4 0.090457 0.909544 0.750000
Si Si5 0.586710 0.313046 0.841626
Si Si6 0.542903 0.759481 0.167486
O O1 0.213386 0.213386 0.750000
O O2 0.157170 0.275362 0.761256
O O3 0.135591 0.201686 0.833679
O O4 0.186379 0.241171 0.000000
O O5 0.444131 0.514058 0.500000
O O6 0.445950 0.584633 0.364736
O O7 0.353230 0.146771 0.183636
O O8 0.294235 0.080005 0.194324
O O9 0.294478 0.135562 0.000000
O O10 0.085366 0.862973 0.684825
O O11 0.561035 0.284766 0.730275
O O12 0.571360 0.303420 0.000000
O O13 0.500000 0.769627 0.250000
O O14 0.536329 0.756354 0.000000
#
# Coordination Sequence:
#
# PCOD9572103 Si02
#       6
#    32  16  32  16  32  32
#     4  10  19  31  50  72 104 137 171 213 263 307
#     4  11  26  44  56  70  92 120 157 206 270 330
#     4   9  19  36  55  76 103 141 184 219 256 306
#     4  12  22  39  62  76  95 124 162 216 266 328
#     4  10  21  36  53  79 105 132 167 213 261 320
#     4  10  21  36  57  82 113 144 173 217 265 312
#
# _framework density 16.887985
#
# number of rings (size 3 to 8) (size 9 to 14) (size 15 to 20)
#    0.000    1.900    2.000    1.800    1.400    4.800 
#    0.000    0.000    0.000    0.000    0.000    0.000 
#    0.000    0.400    0.000    5.000    0.000    0.000 
#
# Total GULP energy -446545.941574 kJ/mol
# GULP energy per Si atom -5581.824270 kJ/mol
# Density = 1.684955 g / cm^3
# Si number density = 16.887985 Si / 1000 Ang^3
#
#
#
# Elastic Constant Matrix: (Units=GPa)
#
#
# Indices 1 2 3 4 5 6 
#
# 1 52.4674 70.2712 41.7309 0.0000 0.0000 0.0000
# 2 70.2712 52.4570 41.7270 0.0000 0.0000 0.0000
# 3 41.7309 41.7270 103.3084 0.0000 0.0000 0.0000
# 4 0.0000 0.0000 0.0000 14.0618 0.0000 0.0000
# 5 0.0000 0.0000 0.0000 0.0000 14.0619 0.0000
# 6 0.0000 0.0000 0.0000 0.0000 0.0000 25.8887
#
#
#
# Elastic Compliance Matrix: (Units=1/GPa)
#
#
# Indices 1 2 3 4 5 6 
#
# 1 -0.022457 0.033692 -0.004537 0.000000 0.000000 0.000000
# 2 0.033692 -0.022461 -0.004537 0.000000 0.000000 0.000000
# 3 -0.004537 -0.004537 0.013345 0.000000 0.000000 0.000000
# 4 0.000000 0.000000 0.000000 0.071115 0.000000 0.000000
# 5 0.000000 0.000000 0.000000 0.000000 0.071114 0.000000
# 6 0.000000 0.000000 0.000000 0.000000 0.000000 0.038627
#
#
# Mechanical properties :
#
#
# Convention : Reuss Voigt Hill
#
# Bulk Modulus (GPa) = 56.61841 57.29898 56.95870
# Shear Modulus (GPa) = 47.19893 14.43607 30.81750
#
# Velocity S-wave (km/s) = 5.29234 2.92689 4.27642
# Velocity P-wave (km/s) = 8.42282 6.73979 7.62786
#
# Compressibility (1/GPa) = 0.01766210
#
# Stress axis : x y z
#
# Youngs Moduli (GPa) = -44.52972 -44.52065 74.93300
#
# Poissons Ratio (x) = 1.50000 0.33999
# Poissons Ratio (y) = 1.50031 0.34001
# Poissons Ratio (z) = -0.20204 -0.20201
#
# Static dielectric constant tensor:
#      x y z
#    x 1.565380 0.000000 0.000000 
#    y 0.000000 1.565380 0.000000 
#    z 0.000000 0.000000 1.569600 
# 
# From -- ./inp_files/1805.got.cif
#   From: 2010.05.17/outbox.cif.g08.bks.cpg/sg140_1_cif.got.tgz:1805.got - 2010.06.21 00:45:31.
