data_PCOD9572174
_publ_section_title
;
Structure prediction by ZEFSAII (Michael W. Deem and Ramdas Pophale) SiO2 
 PCOD9572174
Probable space group: I 4/M C M
;
_chemical_formula_sum "Si O2"
_cell_formula_units_Z 120
_cell_length_a 14.705374
_cell_length_b 14.705374
_cell_length_c 29.767413
_cell_angle_alpha 90.000000
_cell_angle_beta 90.000000
_cell_angle_gamma 90.000000
_cell_volume 6437.144255
_symmetry_space_group_name_H-M "I 4/M C M"
_symmetry_group_IT_number 140
_symmetry_cell_setting 'tetragonal'
loop_
_space_group_symop_operation_xyz
x,y,z
-y,x,z
-x,-y,z
y,-x,z
x,-y,1/2-z
-x,y,1/2-z
y,x,1/2-z
-y,-x,1/2-z
-x,-y,-z
y,-x,-z
x,y,-z
-y,x,-z
-x,y,1/2+z
x,-y,1/2+z
-y,-x,1/2+z
y,x,1/2+z
1/2+x,1/2+y,1/2+z
1/2-y,1/2+x,1/2+z
1/2-x,1/2-y,1/2+z
1/2+y,1/2-x,1/2+z
1/2+x,1/2-y,-z
1/2-x,1/2+y,-z
1/2+y,1/2+x,-z
1/2-y,1/2-x,-z
1/2-x,1/2-y,1/2-z
1/2+y,1/2-x,1/2-z
1/2+x,1/2+y,1/2-z
1/2-y,1/2+x,1/2-z
1/2-x,1/2+y,z
1/2+x,1/2-y,z
1/2-y,1/2-x,z
1/2+y,1/2+x,z
loop_
_atom_site_type_symbol
_atom_site_label
_atom_site_fract_x
_atom_site_fract_y
_atom_site_fract_z
Si Si1 0.142331 0.054116 0.411834
Si Si2 0.337864 0.837864 0.500000
Si Si3 0.700806 0.046935 0.152858
Si Si4 0.719210 0.362923 0.500000
Si Si5 0.346603 0.000000 0.250000
Si Si6 0.576712 0.923289 0.910156
O O1 0.203872 0.072725 0.368783
O O2 0.199477 0.080061 0.455820
O O3 0.050595 0.112612 0.412484
O O4 0.345191 0.727431 0.500000
O O5 0.381142 0.881142 0.544636
O O6 0.632237 0.132237 0.152867
O O7 0.707175 0.011985 0.203791
O O8 0.653032 0.972102 0.120602
O O9 0.819961 0.319961 0.500000
O O10 0.413688 0.913688 0.255199
O O11 0.500000 0.000000 0.920419
#
# Coordination Sequence:
#
# PCOD9572174 Si02
#       6
#    32   8  32  16  16  16
#     4  11  23  40  60  85 123 170 211 248 304 373
#     4  10  21  34  58  84 122 149 198 242 300 350
#     4  10  20  36  62  92 124 157 208 257 311 372
#     4  10  22  38  61  86 110 156 202 255 290 353
#     4   9  16  34  62  93 124 162 200 255 324 380
#     4  10  19  34  56  93 126 159 186 251 313 369
#
# _framework density 18.641808000000001
#
# number of rings (size 3 to 8) (size 9 to 14) (size 15 to 20)
#    0.400    1.467    1.333    3.400    0.000    2.133 
#    2.400    2.667    0.000    4.800    0.000    0.000 
#    0.000    0.000    0.000    0.000    0.000    0.000 
#
# Total GULP energy -335080.732219 kJ/mol
# GULP energy per Si atom -5584.678870 kJ/mol
# Density = 1.859938 g / cm^3
# Si number density = 18.641808 Si / 1000 Ang^3
#
#
#
# Elastic Constant Matrix: (Units=GPa)
#
#
# Indices 1 2 3 4 5 6 
#
# 1 84.1972 26.8348 63.4128 0.0000 0.0000 0.0000
# 2 26.8348 84.1972 63.4128 0.0000 0.0000 0.0000
# 3 63.4128 63.4128 190.2632 0.0000 0.0000 0.0000
# 4 0.0000 0.0000 0.0000 11.1108 0.0000 0.0000
# 5 0.0000 0.0000 0.0000 0.0000 11.1108 0.0000
# 6 0.0000 0.0000 0.0000 0.0000 0.0000 14.0519
#
#
#
# Elastic Compliance Matrix: (Units=1/GPa)
#
#
# Indices 1 2 3 4 5 6 
#
# 1 0.015988 -0.001445 -0.004847 0.000000 0.000000 0.000000
# 2 -0.001445 0.015988 -0.004847 0.000000 0.000000 0.000000
# 3 -0.004847 -0.004847 0.008487 0.000000 0.000000 0.000000
# 4 0.000000 0.000000 0.000000 0.090003 0.000000 0.000000
# 5 0.000000 0.000000 0.000000 0.000000 0.090003 0.000000
# 6 0.000000 0.000000 0.000000 0.000000 0.000000 0.071165
#
#
# Mechanical properties :
#
#
# Convention : Reuss Voigt Hill
#
# Bulk Modulus (GPa) = 54.99177 73.99761 64.49469
# Shear Modulus (GPa) = 15.62634 20.92117 18.27376
#
# Velocity S-wave (km/s) = 2.89838 3.35367 3.13430
# Velocity P-wave (km/s) = 6.38467 7.40113 6.91161
#
# Compressibility (1/GPa) = 0.01818454
#
# Stress axis : x y z
#
# Youngs Moduli (GPa) = 62.54717 62.54717 117.83025
#
# Poissons Ratio (x) = 0.09039 0.57112
# Poissons Ratio (y) = 0.09039 0.57112
# Poissons Ratio (z) = 0.30317 0.30317
#
# Static dielectric constant tensor:
#      x y z
#    x 1.654460 0.000000 0.000000 
#    y 0.000000 1.654460 0.000000 
#    z 0.000000 0.000000 1.617440 
# 
# From -- ./inp_files/11350.got.cif
#   From: 2010.05.17/outbox.cif.g08.bks.cpg/sg140_6_cif.got.tgz:11350.got - 2010.06.21 00:45:31.
