data_PCOD9572528
_publ_section_title
;
Structure prediction by ZEFSAII (Michael W. Deem and Ramdas Pophale) SiO2 
 PCOD9572528
Probable space group: I 4/M C M
;
_chemical_formula_sum "Si O2"
_cell_formula_units_Z 192
_cell_length_a 20.203878
_cell_length_b 20.203878
_cell_length_c 26.141782
_cell_angle_alpha 90.000000
_cell_angle_beta 90.000000
_cell_angle_gamma 90.000000
_cell_volume 10670.988785
_symmetry_space_group_name_H-M "I 4/M C M"
_symmetry_group_IT_number 140
_symmetry_cell_setting 'tetragonal'
loop_
_space_group_symop_operation_xyz
x,y,z
-y,x,z
-x,-y,z
y,-x,z
x,-y,1/2-z
-x,y,1/2-z
y,x,1/2-z
-y,-x,1/2-z
-x,-y,-z
y,-x,-z
x,y,-z
-y,x,-z
-x,y,1/2+z
x,-y,1/2+z
-y,-x,1/2+z
y,x,1/2+z
1/2+x,1/2+y,1/2+z
1/2-y,1/2+x,1/2+z
1/2-x,1/2-y,1/2+z
1/2+y,1/2-x,1/2+z
1/2+x,1/2-y,-z
1/2-x,1/2+y,-z
1/2+y,1/2+x,-z
1/2-y,1/2-x,-z
1/2-x,1/2-y,1/2-z
1/2+y,1/2-x,1/2-z
1/2+x,1/2+y,1/2-z
1/2-y,1/2+x,1/2-z
1/2-x,1/2+y,z
1/2+x,1/2-y,z
1/2-y,1/2-x,z
1/2+y,1/2+x,z
loop_
_atom_site_type_symbol
_atom_site_label
_atom_site_fract_x
_atom_site_fract_y
_atom_site_fract_z
Si Si1 0.327532 0.940872 0.500000
Si Si2 0.604894 0.527365 0.938825
Si Si3 0.659650 0.272698 0.795134
Si Si4 0.447723 0.164420 0.705515
Si Si5 0.048663 0.343073 0.088414
Si Si6 0.622785 0.708006 0.592429
Si Si7 0.782065 0.169400 0.500000
O O1 0.386993 0.886993 0.500000
O O2 0.258825 0.899258 0.500000
O O3 0.333227 0.989272 0.451122
O O4 0.545203 0.578073 0.926701
O O5 0.669109 0.553511 0.910988
O O6 0.615717 0.529325 0.000000
O O7 0.676836 0.323165 0.750000
O O8 0.717707 0.217707 0.795630
O O9 0.591631 0.233012 0.786803
O O10 0.654991 0.301095 0.852174
O O11 0.500000 0.155515 0.750000
O O12 0.393242 0.106759 0.708380
O O13 0.474656 0.161425 0.647477
O O14 0.088220 0.411781 0.080150
O O15 0.103144 0.284307 0.082986
O O16 0.671032 0.679552 0.549072
O O17 0.727554 0.227554 0.500000
#
# Coordination Sequence:
#
# PCOD9572528 Si02
#       7
#    16  32  32  32  32  32  16
#     4  11  26  40  53  81 121 154 187 228 276 337
#     4   9  19  34  52  80 114 147 179 217 270 332
#     4   9  19  37  56  77 106 144 183 221 274 334
#     4   9  19  36  57  83 109 137 183 236 276 323
#     4  10  22  39  59  81 110 154 197 226 274 343
#     4  11  20  34  61  81 111 141 183 231 279 323
#     4  11  23  35  52  85 115 136 177 232 283 320
#
# _framework density 17.992709999999999
#
# number of rings (size 3 to 8) (size 9 to 14) (size 15 to 20)
#    0.000    2.167    0.833    3.750    2.333    2.833 
#    3.000    5.000    0.000    0.000    0.000    1.167 
#    0.000    0.000    0.000    0.000    0.000    0.000 
#
# Total GULP energy -535669.506724 kJ/mol
# GULP energy per Si atom -5579.890695 kJ/mol
# Density = 1.795176 g / cm^3
# Si number density = 17.992710 Si / 1000 Ang^3
#
#
#
# Elastic Constant Matrix: (Units=GPa)
#
#
# Indices 1 2 3 4 5 6 
#
# 1 43.0091 21.8993 53.0255 0.0000 0.0000 0.0000
# 2 21.8993 43.0092 53.0260 0.0000 0.0000 0.0000
# 3 53.0255 53.0260 147.8544 0.0000 0.0000 0.0000
# 4 0.0000 0.0000 0.0000 22.1955 0.0000 0.0000
# 5 0.0000 0.0000 0.0000 0.0000 22.1953 0.0000
# 6 0.0000 0.0000 0.0000 0.0000 0.0000 19.6870
#
#
#
# Elastic Compliance Matrix: (Units=1/GPa)
#
#
# Indices 1 2 3 4 5 6 
#
# 1 0.042290 -0.005081 -0.013345 0.000000 0.000000 0.000000
# 2 -0.005081 0.042291 -0.013345 0.000000 0.000000 0.000000
# 3 -0.013345 -0.013345 0.016335 0.000000 0.000000 0.000000
# 4 0.000000 0.000000 0.000000 0.045054 0.000000 0.000000
# 5 0.000000 0.000000 0.000000 0.000000 0.045055 0.000000
# 6 0.000000 0.000000 0.000000 0.000000 0.000000 0.050795
#
#
# Mechanical properties :
#
#
# Convention : Reuss Voigt Hill
#
# Bulk Modulus (GPa) = 26.75525 54.41936 40.58730
# Shear Modulus (GPa) = 15.73224 19.87704 17.80464
#
# Velocity S-wave (km/s) = 2.96018 3.32735 3.14912
# Velocity P-wave (km/s) = 5.15615 6.71361 5.98575
#
# Compressibility (1/GPa) = 0.03737584
#
# Stress axis : x y z
#
# Youngs Moduli (GPa) = 23.64608 23.64586 61.21760
#
# Poissons Ratio (x) = 0.12014 0.81692
# Poissons Ratio (y) = 0.12014 0.81694
# Poissons Ratio (z) = 0.31555 0.31555
#
# Static dielectric constant tensor:
#      x y z
#    x 1.621510 0.000000 0.000000 
#    y 0.000000 1.621510 0.000000 
#    z 0.000000 0.000000 1.603800 
# 
# From -- ./inp_files/9844.got.cif
#   From: 2010.05.17/outbox.cif.g08.bks.cpg/sg140_5_cif.got.tgz:9844.got - 2010.06.21 00:45:31.
