data_PCOD9572842
_publ_section_title
;
Structure prediction by ZEFSAII (Michael W. Deem and Ramdas Pophale) SiO2 
 PCOD9572842
Probable space group: I 41/A M D
;
_chemical_formula_sum "Si O2"
_cell_formula_units_Z 160
_cell_length_a 20.226802
_cell_length_b 20.226802
_cell_length_c 17.340823
_cell_angle_alpha 90.000000
_cell_angle_beta 90.000000
_cell_angle_gamma 90.000000
_cell_volume 7094.538531
_symmetry_space_group_name_H-M "I 41/A M D"
_symmetry_group_IT_number 141
_space_group.IT_coordinate_system_code '2'
_symmetry_cell_setting 'tetragonal'
loop_
_space_group_symop_operation_xyz
x,y,z
1/4-y,3/4+x,1/4+z
-x,1/2-y,z
1/4+y,1/4-x,3/4+z
x,-y,-z
-x,1/2+y,-z
1/4+y,3/4+x,1/4-z
1/4-y,1/4-x,3/4-z
-x,-y,-z
3/4+y,1/4-x,3/4-z
x,1/2+y,-z
3/4-y,3/4+x,1/4-z
-x,y,z
x,1/2-y,z
3/4-y,1/4-x,3/4+z
3/4+y,3/4+x,1/4+z
1/2+x,1/2+y,1/2+z
3/4-y,1/4+x,3/4+z
1/2-x,-y,1/2+z
3/4+y,3/4-x,1/4+z
1/2+x,1/2-y,1/2-z
1/2-x,y,1/2-z
3/4+y,1/4+x,3/4-z
3/4-y,3/4-x,1/4-z
1/2-x,1/2-y,1/2-z
1/4+y,3/4-x,1/4-z
1/2+x,y,1/2-z
1/4-y,1/4+x,3/4-z
1/2-x,1/2+y,1/2+z
1/2+x,-y,1/2+z
1/4-y,3/4-x,1/4+z
1/4+y,1/4+x,3/4+z
loop_
_atom_site_type_symbol
_atom_site_label
_atom_site_fract_x
_atom_site_fract_y
_atom_site_fract_z
Si Si1 0.396709 0.399159 0.849244
Si Si2 0.255548 0.392477 0.625501
Si Si3 0.381572 0.175984 0.703441
Si Si4 0.079652 0.321790 0.258798
Si Si5 0.781175 0.827650 0.535170
O O1 0.317984 0.388940 0.843979
O O2 0.418156 0.366405 0.768948
O O3 0.423632 0.361757 0.923840
O O4 0.411603 0.477136 0.851533
O O5 0.283244 0.466757 0.625000
O O6 0.310367 0.352710 0.674409
O O7 0.248443 0.365902 0.538608
O O8 0.422936 0.172936 0.625000
O O9 0.372568 0.250000 0.732633
O O10 0.098779 0.250000 0.294587
O O11 0.097724 0.392407 0.296718
O O12 0.000000 0.321133 0.252833
O O13 0.781612 0.750000 0.516196
#
# Coordination Sequence:
#
# PCOD9572842 Si02
#       5
#    32  32  32  32  32
#     4  11  20  32  51  72  97 132 173 212 259 304
#     4  10  20  33  48  69  96 128 169 210 258 300
#     4  11  22  33  45  67 102 137 176 216 251 295
#     4   9  19  34  51  73 102 136 173 213 255 302
#     4  10  19  32  50  72  99 130 168 215 255 302
#
# _framework density 22.55256
#
# number of rings (size 3 to 8) (size 9 to 14) (size 15 to 20)
#    0.000    1.800    4.000    2.400    0.000    4.200 
#    0.000    0.000    0.000    0.000    0.000   12.600 
#    0.000    0.000    0.000    0.000    0.000    0.000 
#
# Total GULP energy -446581.876844 kJ/mol
# GULP energy per Si atom -5582.273461 kJ/mol
# Density = 2.250123 g / cm^3
# Si number density = 22.552560 Si / 1000 Ang^3
#
#
#
# Elastic Constant Matrix: (Units=GPa)
#
#
# Indices 1 2 3 4 5 6 
#
# 1 108.4578 1.3178 11.6776 0.0000 0.0000 0.0000
# 2 1.3178 108.4539 11.6776 0.0000 0.0000 0.0000
# 3 11.6776 11.6776 64.0746 0.0000 0.0000 0.0000
# 4 0.0000 0.0000 0.0000 -0.3804 0.0000 0.0000
# 5 0.0000 0.0000 0.0000 0.0000 -0.3783 0.0000
# 6 0.0000 0.0000 0.0000 0.0000 0.0000 24.5871
#
#
#
# Elastic Compliance Matrix: (Units=1/GPa)
#
#
# Indices 1 2 3 4 5 6 
#
# 1 0.009405 0.000072 -0.001727 0.000000 0.000000 0.000000
# 2 0.000072 0.009406 -0.001727 0.000000 0.000000 0.000000
# 3 -0.001727 -0.001727 0.016236 0.000000 0.000000 0.000000
# 4 0.000000 0.000000 0.000000 -2.628967 0.000000 0.000000
# 5 0.000000 0.000000 0.000000 0.000000 -2.643307 0.000000
# 6 0.000000 0.000000 0.000000 0.000000 0.000000 0.040672
#
#
# Mechanical properties :
#
#
# Convention : Reuss Voigt Hill
#
# Bulk Modulus (GPa) = 35.35841 36.70358 36.03099
# Shear Modulus (GPa) = -0.96518 21.85323 10.44402
#
# Velocity S-wave (km/s) = -0.65490 3.11624 2.15430
# Velocity P-wave (km/s) = 3.89107 5.40906 4.71160
#
# Compressibility (1/GPa) = 0.02828182
#
# Stress axis : x y z
#
# Youngs Moduli (GPa) = 106.32336 106.31945 61.59007
#
# Poissons Ratio (x) = -0.00762 0.10638
# Poissons Ratio (y) = -0.00762 0.10638
# Poissons Ratio (z) = 0.18364 0.18364
#
# Static dielectric constant tensor:
#      x y z
#    x 1.857980 0.000000 0.000000 
#    y 0.000000 1.857980 0.000000 
#    z 0.000000 0.000000 1.980440 
# 
# From -- ./inp_files/8609.got.cif
#   From: 2010.05.17/outbox.cif.g08.bks.cpg/sg141_5_cif.got.tgz:8609.got - 2010.05.20 13:30:51.
