data_PCOD9572090
_publ_section_title
;
Structure prediction by ZEFSAII (Michael W. Deem and Ramdas Pophale) SiO2 
 PCOD9572090
Probable space group: I 4/M C M
;
_chemical_formula_sum "Si O2"
_cell_formula_units_Z 160
_cell_length_a 32.044999
_cell_length_b 32.044999
_cell_length_c 9.086848
_cell_angle_alpha 90.000000
_cell_angle_beta 90.000000
_cell_angle_gamma 90.000000
_cell_volume 9331.120293
_symmetry_space_group_name_H-M "I 4/M C M"
_symmetry_group_IT_number 140
_symmetry_cell_setting 'tetragonal'
loop_
_space_group_symop_operation_xyz
x,y,z
-y,x,z
-x,-y,z
y,-x,z
x,-y,1/2-z
-x,y,1/2-z
y,x,1/2-z
-y,-x,1/2-z
-x,-y,-z
y,-x,-z
x,y,-z
-y,x,-z
-x,y,1/2+z
x,-y,1/2+z
-y,-x,1/2+z
y,x,1/2+z
1/2+x,1/2+y,1/2+z
1/2-y,1/2+x,1/2+z
1/2-x,1/2-y,1/2+z
1/2+y,1/2-x,1/2+z
1/2+x,1/2-y,-z
1/2-x,1/2+y,-z
1/2+y,1/2+x,-z
1/2-y,1/2-x,-z
1/2-x,1/2-y,1/2-z
1/2+y,1/2-x,1/2-z
1/2+x,1/2+y,1/2-z
1/2-y,1/2+x,1/2-z
1/2-x,1/2+y,z
1/2+x,1/2-y,z
1/2-y,1/2-x,z
1/2+y,1/2+x,z
loop_
_atom_site_type_symbol
_atom_site_label
_atom_site_fract_x
_atom_site_fract_y
_atom_site_fract_z
Si Si1 0.092616 0.812350 0.171890
Si Si2 0.060955 0.035178 0.500000
Si Si3 0.771168 0.828244 0.324693
Si Si4 0.408446 0.591555 0.250000
Si Si5 0.312959 0.123776 0.676765
Si Si6 0.760246 0.456016 0.321537
O O1 0.135485 0.799036 0.251073
O O2 0.087560 0.862076 0.183864
O O3 0.058390 0.784590 0.257035
O O4 0.093402 0.800683 0.000000
O O5 0.085315 0.053880 0.637202
O O6 0.014281 0.054823 0.500000
O O7 0.785758 0.785758 0.250000
O O8 0.777971 0.827074 0.500000
O O9 0.724101 0.842960 0.297573
O O10 0.317266 0.120067 0.500000
O O11 0.355740 0.144261 0.735040
O O12 0.293915 0.079524 0.724922
O O13 0.771172 0.500000 0.250000
O O14 0.758373 0.457479 0.500000
#
# Coordination Sequence:
#
# PCOD9572090 Si02
#       6
#    32  16  32  16  32  32
#     4  11  22  36  54  79 105 134 168 215 264 321
#     4  11  26  46  60  72  92 118 153 204 270 330
#     4  10  19  30  50  73 104 138 172 214 263 309
#     4  12  24  39  62  80  95 122 162 214 264 328
#     4   8  16  32  52  75 103 141 184 221 259 308
#     4  10  21  36  57  82 114 145 175 219 266 317
#
# _framework density 17.146923000000001
#
# number of rings (size 3 to 8) (size 9 to 14) (size 15 to 20)
#    0.000    1.900    2.000    3.600    2.800    2.800 
#    0.000    0.000    0.000   21.000    0.000    0.000 
#    0.000    0.400    0.000    5.000    0.000    0.000 
#
# Total GULP energy -446099.622031 kJ/mol
# GULP energy per Si atom -5576.245275 kJ/mol
# Density = 1.710790 g / cm^3
# Si number density = 17.146923 Si / 1000 Ang^3
#
#
#
# Elastic Constant Matrix: (Units=GPa)
#
#
# Indices 1 2 3 4 5 6 
#
# 1 -3.7027 142.9058 27.8644 0.0000 0.0000 0.0000
# 2 142.9058 -3.6935 27.8645 0.0000 0.0000 0.0000
# 3 27.8644 27.8645 81.4893 0.0000 0.0000 0.0000
# 4 0.0000 0.0000 0.0000 -2.8695 0.0000 0.0000
# 5 0.0000 0.0000 0.0000 0.0000 -2.8705 0.0000
# 6 0.0000 0.0000 0.0000 0.0000 0.0000 29.6475
#
#
#
# Elastic Compliance Matrix: (Units=1/GPa)
#
#
# Indices 1 2 3 4 5 6 
#
# 1 0.000751 0.007572 -0.002846 0.000000 0.000000 0.000000
# 2 0.007572 0.000751 -0.002846 0.000000 0.000000 0.000000
# 3 -0.002846 -0.002846 0.014218 0.000000 0.000000 0.000000
# 4 0.000000 0.000000 0.000000 -0.348493 0.000000 0.000000
# 5 0.000000 0.000000 0.000000 0.000000 -0.348371 0.000000
# 6 0.000000 0.000000 0.000000 0.000000 0.000000 0.033730
#
#
# Mechanical properties :
#
#
# Convention : Reuss Voigt Hill
#
# Bulk Modulus (GPa) = 51.33519 52.37361 51.85440
# Shear Modulus (GPa) = -7.75577 -3.52127 -5.63852
#
# Velocity S-wave (km/s) = -2.12907 -1.43459 -1.81535
# Velocity P-wave (km/s) = 4.89484 5.27885 5.09047
#
# Compressibility (1/GPa) = 0.01947982
#
# Stress axis : x y z
#
# Youngs Moduli (GPa) = 1332.28353 1331.35656 70.33439
#
# Poissons Ratio (x) = -10.08097 0.20016
# Poissons Ratio (y) = -10.08799 0.20017
# Poissons Ratio (z) = 3.79143 3.78902
#
# Static dielectric constant tensor:
#      x y z
#    x 1.593150 0.000000 0.000000 
#    y 0.000000 1.593150 0.000000 
#    z 0.000000 0.000000 1.542520 
# 
# From -- ./inp_files/1856.got.cif
#   From: 2010.05.17/outbox.cif.g08.bks.cpg/sg140_1_cif.got.tgz:1856.got - 2010.06.21 00:45:31.
