data_PCOD9572907
_publ_section_title
;
Structure prediction by ZEFSAII (Michael W. Deem and Ramdas Pophale) SiO2 
 PCOD9572907
Probable space group: I 41/A M D
;
_chemical_formula_sum "Si O2"
_cell_formula_units_Z 128
_cell_length_a 20.370489
_cell_length_b 20.370489
_cell_length_c 15.996079
_cell_angle_alpha 90.000000
_cell_angle_beta 90.000000
_cell_angle_gamma 90.000000
_cell_volume 6637.682108
_symmetry_space_group_name_H-M "I 41/A M D"
_symmetry_group_IT_number 141
_space_group.IT_coordinate_system_code '2'
_symmetry_cell_setting 'tetragonal'
loop_
_space_group_symop_operation_xyz
x,y,z
1/4-y,3/4+x,1/4+z
-x,1/2-y,z
1/4+y,1/4-x,3/4+z
x,-y,-z
-x,1/2+y,-z
1/4+y,3/4+x,1/4-z
1/4-y,1/4-x,3/4-z
-x,-y,-z
3/4+y,1/4-x,3/4-z
x,1/2+y,-z
3/4-y,3/4+x,1/4-z
-x,y,z
x,1/2-y,z
3/4-y,1/4-x,3/4+z
3/4+y,3/4+x,1/4+z
1/2+x,1/2+y,1/2+z
3/4-y,1/4+x,3/4+z
1/2-x,-y,1/2+z
3/4+y,3/4-x,1/4+z
1/2+x,1/2-y,1/2-z
1/2-x,y,1/2-z
3/4+y,1/4+x,3/4-z
3/4-y,3/4-x,1/4-z
1/2-x,1/2-y,1/2-z
1/4+y,3/4-x,1/4-z
1/2+x,y,1/2-z
1/4-y,1/4+x,3/4-z
1/2-x,1/2+y,1/2+z
1/2+x,-y,1/2+z
1/4-y,3/4-x,1/4+z
1/4+y,1/4+x,3/4+z
loop_
_atom_site_type_symbol
_atom_site_label
_atom_site_fract_x
_atom_site_fract_y
_atom_site_fract_z
Si Si1 0.000000 0.574522 0.523755
Si Si2 0.500000 0.073383 0.219577
Si Si3 0.637568 0.995611 0.400661
Si Si4 0.799954 0.750000 0.068141
Si Si5 0.075344 0.750000 0.960543
Si Si6 0.615013 0.363860 0.918657
O O1 0.000000 0.500000 0.500000
O O2 0.934575 0.600023 0.479840
O O3 0.000000 0.588759 0.622193
O O4 0.440362 0.103487 0.271190
O O5 0.500000 0.995071 0.234320
O O6 0.694817 0.944817 0.375000
O O7 0.566717 0.969622 0.366803
O O8 0.633900 0.000000 0.500000
O O9 0.649325 0.070351 0.368114
O O10 0.874368 0.750000 0.037339
O O11 0.088027 0.684015 0.904596
O O12 0.000000 0.750000 0.986663
#
# Coordination Sequence:
#
# PCOD9572907 Si02
#       6
#    16  16  32  16  16  32
#     4  11  23  37  58  91 131 172 210 269 328 391
#     4  10  19  39  63  92 124 171 213 266 336 386
#     4  11  24  45  69  95 130 177 222 274 333 394
#     4  10  23  42  65  96 135 169 221 273 326 398
#     4  11  20  40  69  97 133 175 217 278 340 390
#     4  10  22  39  64  94 129 167 219 274 325 395
#
# _framework density 19.283840999999999
#
# number of rings (size 3 to 8) (size 9 to 14) (size 15 to 20)
#    0.000    1.500    1.250    4.125    0.000    3.000 
#    6.750    1.250    0.000    0.000    0.000    0.000 
#    0.000    0.000    0.000    0.000    0.000    0.000 
#
# Total GULP energy -356994.451733 kJ/mol
# GULP energy per Si atom -5578.038308 kJ/mol
# Density = 1.923995 g / cm^3
# Si number density = 19.283841 Si / 1000 Ang^3
#
#
#
# Elastic Constant Matrix: (Units=GPa)
#
#
# Indices 1 2 3 4 5 6 
#
# 1 145.1454 58.0756 56.0816 0.0000 0.0000 0.0000
# 2 58.0756 145.1454 56.0816 0.0000 0.0000 0.0000
# 3 56.0816 56.0816 135.1639 0.0000 0.0000 0.0000
# 4 0.0000 0.0000 0.0000 7.1575 0.0000 0.0000
# 5 0.0000 0.0000 0.0000 0.0000 7.1575 0.0000
# 6 0.0000 0.0000 0.0000 0.0000 0.0000 29.3328
#
#
#
# Elastic Compliance Matrix: (Units=1/GPa)
#
#
# Indices 1 2 3 4 5 6 
#
# 1 0.008934 -0.002551 -0.002648 0.000000 0.000000 0.000000
# 2 -0.002551 0.008934 -0.002648 0.000000 0.000000 0.000000
# 3 -0.002648 -0.002648 0.009596 0.000000 0.000000 0.000000
# 4 0.000000 0.000000 0.000000 0.139714 0.000000 0.000000
# 5 0.000000 0.000000 0.000000 0.000000 0.139714 0.000000
# 6 0.000000 0.000000 0.000000 0.000000 0.000000 0.034092
#
#
# Mechanical properties :
#
#
# Convention : Reuss Voigt Hill
#
# Bulk Modulus (GPa) = 84.97572 85.10359 85.03966
# Shear Modulus (GPa) = 13.86574 25.74393 19.80483
#
# Velocity S-wave (km/s) = 2.68439 3.65773 3.20819
# Velocity P-wave (km/s) = 7.33276 7.87823 7.61038
#
# Compressibility (1/GPa) = 0.01176807
#
# Stress axis : x y z
#
# Youngs Moduli (GPa) = 111.93592 111.93592 104.21095
#
# Poissons Ratio (x) = 0.28559 0.27596
# Poissons Ratio (y) = 0.28559 0.27596
# Poissons Ratio (z) = 0.29642 0.29642
#
# Static dielectric constant tensor:
#      x y z
#    x 1.644840 0.000000 0.000000 
#    y 0.000000 1.644840 0.000000 
#    z 0.000000 0.000000 1.125710 
# 
# From -- ./inp_files/6316.got.cif
#   From: 2010.05.17/outbox.cif.g08.bks.cpg/sg141_4_cif.got.tgz:6316.got - 2010.05.20 13:30:51.
