data_PCOD9572585
_publ_section_title
;
Structure prediction by ZEFSAII (Michael W. Deem and Ramdas Pophale) SiO2 
 PCOD9572585
Probable space group: I 4/M C M
;
_chemical_formula_sum "Si O2"
_cell_formula_units_Z 176
_cell_length_a 19.046669
_cell_length_b 19.046669
_cell_length_c 26.361123
_cell_angle_alpha 90.000000
_cell_angle_beta 90.000000
_cell_angle_gamma 90.000000
_cell_volume 9563.172213
_symmetry_space_group_name_H-M "I 4/M C M"
_symmetry_group_IT_number 140
_symmetry_cell_setting 'tetragonal'
loop_
_space_group_symop_operation_xyz
x,y,z
-y,x,z
-x,-y,z
y,-x,z
x,-y,1/2-z
-x,y,1/2-z
y,x,1/2-z
-y,-x,1/2-z
-x,-y,-z
y,-x,-z
x,y,-z
-y,x,-z
-x,y,1/2+z
x,-y,1/2+z
-y,-x,1/2+z
y,x,1/2+z
1/2+x,1/2+y,1/2+z
1/2-y,1/2+x,1/2+z
1/2-x,1/2-y,1/2+z
1/2+y,1/2-x,1/2+z
1/2+x,1/2-y,-z
1/2-x,1/2+y,-z
1/2+y,1/2+x,-z
1/2-y,1/2-x,-z
1/2-x,1/2-y,1/2-z
1/2+y,1/2-x,1/2-z
1/2+x,1/2+y,1/2-z
1/2-y,1/2+x,1/2-z
1/2-x,1/2+y,z
1/2+x,1/2-y,z
1/2-y,1/2-x,z
1/2+y,1/2+x,z
loop_
_atom_site_type_symbol
_atom_site_label
_atom_site_fract_x
_atom_site_fract_y
_atom_site_fract_z
Si Si1 0.148539 0.768561 0.372137
Si Si2 0.508343 0.792882 0.598746
Si Si3 0.941924 0.673778 0.706720
Si Si4 0.057766 0.557766 0.559778
Si Si5 0.193867 0.083466 0.737431
Si Si6 0.754725 0.861893 0.941812
O O1 0.201384 0.701384 0.367443
O O2 0.080116 0.750252 0.405210
O O3 0.113490 0.788079 0.318298
O O4 0.192582 0.829201 0.400321
O O5 0.481678 0.800827 0.656619
O O6 0.529859 0.870030 0.581674
O O7 0.443126 0.761157 0.568330
O O8 0.892157 0.607844 0.696753
O O9 0.896482 0.739210 0.727713
O O10 0.000000 0.657202 0.750000
O O11 0.066174 0.566174 0.500000
O O12 0.000000 0.500000 0.570649
O O13 0.122092 0.122092 0.750000
O O14 0.187561 0.000000 0.750000
O O15 0.682443 0.817558 0.936351
O O16 0.779106 0.851098 0.000000
#
# Coordination Sequence:
#
# PCOD9572585 Si02
#       6
#    32  32  32  16  32  32
#     4  11  23  41  64  92 127 164 214 263 311 379
#     4  12  22  40  62  92 128 167 210 261 321 380
#     4  11  23  37  57  89 128 171 211 251 304 375
#     4  11  24  38  60  92 129 172 214 257 318 385
#     4  11  23  40  63  90 123 163 209 257 312 372
#     4  10  23  42  65  92 123 163 215 268 322 378
#
# _framework density 18.403935000000001
#
# number of rings (size 3 to 8) (size 9 to 14) (size 15 to 20)
#    0.000    1.000    4.545    3.818    1.273    6.182 
#    0.000    0.000    0.000    0.545    0.000    1.273 
#    0.000    0.000    0.000    0.000    0.000    0.000 
#
# Total GULP energy -491002.082437 kJ/mol
# GULP energy per Si atom -5579.569119 kJ/mol
# Density = 1.836205 g / cm^3
# Si number density = 18.403935 Si / 1000 Ang^3
#
#
#
# Elastic Constant Matrix: (Units=GPa)
#
#
# Indices 1 2 3 4 5 6 
#
# 1 105.4507 61.7630 29.4600 0.0000 0.0000 0.0000
# 2 61.7630 105.4507 29.4600 0.0000 0.0000 0.0000
# 3 29.4600 29.4600 97.5829 0.0000 0.0000 0.0000
# 4 0.0000 0.0000 0.0000 24.2570 0.0000 0.0000
# 5 0.0000 0.0000 0.0000 0.0000 24.2570 0.0000
# 6 0.0000 0.0000 0.0000 0.0000 0.0000 41.5562
#
#
#
# Elastic Compliance Matrix: (Units=1/GPa)
#
#
# Indices 1 2 3 4 5 6 
#
# 1 0.014791 -0.008099 -0.002020 0.000000 0.000000 0.000000
# 2 -0.008099 0.014791 -0.002020 0.000000 0.000000 0.000000
# 3 -0.002020 -0.002020 0.011468 0.000000 0.000000 0.000000
# 4 0.000000 0.000000 0.000000 0.041225 0.000000 0.000000
# 5 0.000000 0.000000 0.000000 0.000000 0.041225 0.000000
# 6 0.000000 0.000000 0.000000 0.000000 0.000000 0.024064
#
#
# Mechanical properties :
#
#
# Convention : Reuss Voigt Hill
#
# Bulk Modulus (GPa) = 59.62807 61.09449 60.36128
# Shear Modulus (GPa) = 28.17967 30.53414 29.35691
#
# Velocity S-wave (km/s) = 3.91727 4.07764 3.99826
# Velocity P-wave (km/s) = 7.27530 7.44567 7.36098
#
# Compressibility (1/GPa) = 0.01677062
#
# Stress axis : x y z
#
# Youngs Moduli (GPa) = 67.60866 67.60866 87.20224
#
# Poissons Ratio (x) = 0.54754 0.17618
# Poissons Ratio (y) = 0.54754 0.17618
# Poissons Ratio (z) = 0.13660 0.13660
#
# Static dielectric constant tensor:
#      x y z
#    x 1.606560 0.000000 0.000000 
#    y 0.000000 1.606560 0.000000 
#    z 0.000000 0.000000 1.205720 
# 
# From -- ./inp_files/10692.got.cif
#   From: 2010.05.17/outbox.cif.g08.bks.cpg/sg140_6_cif.got.tgz:10692.got - 2010.06.21 00:45:31.
