data_PCOD9572951
_publ_section_title
;
Structure prediction by ZEFSAII (Michael W. Deem and Ramdas Pophale) SiO2 
 PCOD9572951
Probable space group: I 41/A M D
;
_chemical_formula_sum "Si O2"
_cell_formula_units_Z 160
_cell_length_a 22.087024
_cell_length_b 22.087024
_cell_length_c 16.678312
_cell_angle_alpha 90.000000
_cell_angle_beta 90.000000
_cell_angle_gamma 90.000000
_cell_volume 8136.291506
_symmetry_space_group_name_H-M "I 41/A M D"
_symmetry_group_IT_number 141
_space_group.IT_coordinate_system_code '2'
_symmetry_cell_setting 'tetragonal'
loop_
_space_group_symop_operation_xyz
x,y,z
1/4-y,3/4+x,1/4+z
-x,1/2-y,z
1/4+y,1/4-x,3/4+z
x,-y,-z
-x,1/2+y,-z
1/4+y,3/4+x,1/4-z
1/4-y,1/4-x,3/4-z
-x,-y,-z
3/4+y,1/4-x,3/4-z
x,1/2+y,-z
3/4-y,3/4+x,1/4-z
-x,y,z
x,1/2-y,z
3/4-y,1/4-x,3/4+z
3/4+y,3/4+x,1/4+z
1/2+x,1/2+y,1/2+z
3/4-y,1/4+x,3/4+z
1/2-x,-y,1/2+z
3/4+y,3/4-x,1/4+z
1/2+x,1/2-y,1/2-z
1/2-x,y,1/2-z
3/4+y,1/4+x,3/4-z
3/4-y,3/4-x,1/4-z
1/2-x,1/2-y,1/2-z
1/4+y,3/4-x,1/4-z
1/2+x,y,1/2-z
1/4-y,1/4+x,3/4-z
1/2-x,1/2+y,1/2+z
1/2+x,-y,1/2+z
1/4-y,3/4-x,1/4+z
1/4+y,1/4+x,3/4+z
loop_
_atom_site_type_symbol
_atom_site_label
_atom_site_fract_x
_atom_site_fract_y
_atom_site_fract_z
Si Si1 0.236059 0.627702 0.436635
Si Si2 0.429787 0.409717 0.580683
Si Si3 0.346497 0.818647 0.931520
Si Si4 0.660015 0.416143 0.807990
Si Si5 0.776820 0.318086 0.169150
O O1 0.281805 0.672837 0.389515
O O2 0.177545 0.655468 0.482646
O O3 0.276864 0.593733 0.500608
O O4 0.215034 0.582442 0.368342
O O5 0.500000 0.398329 0.566720
O O6 0.395290 0.354711 0.625000
O O7 0.393085 0.416196 0.497367
O O8 0.390094 0.859907 0.875000
O O9 0.370773 0.750000 0.940290
O O10 0.282630 0.814347 0.885414
O O11 0.601754 0.423101 0.866258
O O12 0.797764 0.250000 0.190300
O O13 0.750000 0.348182 0.250000
#
# Coordination Sequence:
#
# PCOD9572951 Si02
#       5
#    32  32  32  32  32
#     4  10  21  39  57  81 115 154 193 234 287 345
#     4  10  22  40  61  85 115 150 189 233 283 342
#     4  10  20  34  55  82 110 144 187 234 287 344
#     4  10  21  37  58  85 114 149 194 240 286 336
#     4   9  18  35  57  79 109 149 190 233 282 339
#
# _framework density 19.664978999999999
#
# number of rings (size 3 to 8) (size 9 to 14) (size 15 to 20)
#    0.000    2.200    0.000    2.400    0.000    7.600 
#    0.000   36.000    0.000    0.000    0.000    5.600 
#    0.000    0.000    0.000    0.000    0.000    0.000 
#
# Total GULP energy -445507.856896 kJ/mol
# GULP energy per Si atom -5568.848211 kJ/mol
# Density = 1.962022 g / cm^3
# Si number density = 19.664979 Si / 1000 Ang^3
#
#
#
# Elastic Constant Matrix: (Units=GPa)
#
#
# Indices 1 2 3 4 5 6 
#
# 1 84.5723 59.1617 50.2775 0.0000 0.0000 0.0000
# 2 59.1617 84.5697 50.2770 0.0000 0.0000 0.0000
# 3 50.2775 50.2770 135.8350 0.0000 0.0000 0.0000
# 4 0.0000 0.0000 0.0000 8.2719 0.0000 0.0000
# 5 0.0000 0.0000 0.0000 0.0000 8.2733 0.0000
# 6 0.0000 0.0000 0.0000 0.0000 0.0000 6.8844
#
#
#
# Elastic Compliance Matrix: (Units=1/GPa)
#
#
# Indices 1 2 3 4 5 6 
#
# 1 0.024372 -0.014984 -0.003475 0.000000 0.000000 0.000000
# 2 -0.014984 0.024372 -0.003475 0.000000 0.000000 0.000000
# 3 -0.003475 -0.003475 0.009934 0.000000 0.000000 0.000000
# 4 0.000000 0.000000 0.000000 0.120891 0.000000 0.000000
# 5 0.000000 0.000000 0.000000 0.000000 0.120871 0.000000
# 6 0.000000 0.000000 0.000000 0.000000 0.000000 0.145255
#
#
# Mechanical properties :
#
#
# Convention : Reuss Voigt Hill
#
# Bulk Modulus (GPa) = 67.51633 69.37882 68.44757
# Shear Modulus (GPa) = 10.11122 14.36998 12.24060
#
# Velocity S-wave (km/s) = 2.27000 2.70615 2.49762
# Velocity P-wave (km/s) = 6.42482 6.71724 6.57266
#
# Compressibility (1/GPa) = 0.01481123
#
# Stress axis : x y z
#
# Youngs Moduli (GPa) = 41.03133 41.02999 100.66138
#
# Poissons Ratio (x) = 0.61478 0.34979
# Poissons Ratio (y) = 0.61480 0.34980
# Poissons Ratio (z) = 0.14258 0.14258
#
# Static dielectric constant tensor:
#      x y z
#    x 1.714110 0.000000 0.000000 
#    y 0.000000 1.714110 0.000000 
#    z 0.000000 0.000000 1.762640 
# 
# From -- ./inp_files/8580.got.cif
#   From: 2010.05.17/outbox.cif.g08.bks.cpg/sg141_5_cif.got.tgz:8580.got - 2010.05.20 13:30:51.
