data_PCOD9572942
_publ_section_title
;
Structure prediction by ZEFSAII (Michael W. Deem and Ramdas Pophale) SiO2 
 PCOD9572942
Probable space group: I 41/A M D
;
_chemical_formula_sum "Si O2"
_cell_formula_units_Z 128
_cell_length_a 16.549431
_cell_length_b 16.549431
_cell_length_c 23.348697
_cell_angle_alpha 90.000000
_cell_angle_beta 90.000000
_cell_angle_gamma 90.000000
_cell_volume 6394.826741
_symmetry_space_group_name_H-M "I 41/A M D"
_symmetry_group_IT_number 141
_space_group.IT_coordinate_system_code '2'
_symmetry_cell_setting 'tetragonal'
loop_
_space_group_symop_operation_xyz
x,y,z
1/4-y,3/4+x,1/4+z
-x,1/2-y,z
1/4+y,1/4-x,3/4+z
x,-y,-z
-x,1/2+y,-z
1/4+y,3/4+x,1/4-z
1/4-y,1/4-x,3/4-z
-x,-y,-z
3/4+y,1/4-x,3/4-z
x,1/2+y,-z
3/4-y,3/4+x,1/4-z
-x,y,z
x,1/2-y,z
3/4-y,1/4-x,3/4+z
3/4+y,3/4+x,1/4+z
1/2+x,1/2+y,1/2+z
3/4-y,1/4+x,3/4+z
1/2-x,-y,1/2+z
3/4+y,3/4-x,1/4+z
1/2+x,1/2-y,1/2-z
1/2-x,y,1/2-z
3/4+y,1/4+x,3/4-z
3/4-y,3/4-x,1/4-z
1/2-x,1/2-y,1/2-z
1/4+y,3/4-x,1/4-z
1/2+x,y,1/2-z
1/4-y,1/4+x,3/4-z
1/2-x,1/2+y,1/2+z
1/2+x,-y,1/2+z
1/4-y,3/4-x,1/4+z
1/4+y,1/4+x,3/4+z
loop_
_atom_site_type_symbol
_atom_site_label
_atom_site_fract_x
_atom_site_fract_y
_atom_site_fract_z
Si Si1 0.913798 0.599474 0.708553
Si Si2 0.233471 0.883083 0.427020
Si Si3 0.912273 0.546171 0.060014
Si Si4 0.743239 0.338459 0.160902
O O1 0.911304 0.550215 0.767390
O O2 0.909044 0.538693 0.654481
O O3 0.835698 0.654893 0.701043
O O4 0.000000 0.642774 0.703886
O O5 0.236733 0.841534 0.364936
O O6 0.327378 0.906193 0.437709
O O7 0.169646 0.956329 0.421131
O O8 0.000000 0.589901 0.063993
O O9 0.911519 0.500000 0.000000
O O10 0.782711 0.250000 0.169466
#
# Coordination Sequence:
#
# PCOD9572942 Si02
#       4
#    32  32  32  32
#     4  10  20  34  53  78 110 148 186 227 280 341
#     4  11  20  35  58  83 108 144 190 235 282 343
#     4  10  20  34  56  84 112 145 187 236 290 344
#     4  10  21  36  55  81 113 148 186 232 284 339
#
# _framework density 20.016179999999999
#
# number of rings (size 3 to 8) (size 9 to 14) (size 15 to 20)
#    0.000    1.750    0.000    7.500    0.000    2.500 
#    0.000    2.500    0.000   15.000    0.000   31.500 
#    0.000    0.000    0.000    0.000    0.000    0.000 
#
# Total GULP energy -356469.439880 kJ/mol
# GULP energy per Si atom -5569.834998 kJ/mol
# Density = 1.997062 g / cm^3
# Si number density = 20.016180 Si / 1000 Ang^3
#
#
#
# Elastic Constant Matrix: (Units=GPa)
#
#
# Indices 1 2 3 4 5 6 
#
# 1 105.9430 48.7153 18.3981 0.0000 0.0000 0.0000
# 2 48.7153 105.9430 18.3981 0.0000 0.0000 0.0000
# 3 18.3981 18.3981 150.2938 0.0000 0.0000 0.0000
# 4 0.0000 0.0000 0.0000 -2.5268 0.0000 0.0000
# 5 0.0000 0.0000 0.0000 0.0000 -2.5268 0.0000
# 6 0.0000 0.0000 0.0000 0.0000 0.0000 1.8294
#
#
#
# Elastic Compliance Matrix: (Units=1/GPa)
#
#
# Indices 1 2 3 4 5 6 
#
# 1 0.012067 -0.005407 -0.000815 0.000000 0.000000 0.000000
# 2 -0.005407 0.012067 -0.000815 0.000000 0.000000 0.000000
# 3 -0.000815 -0.000815 0.006853 0.000000 0.000000 0.000000
# 4 0.000000 0.000000 0.000000 -0.395760 0.000000 0.000000
# 5 0.000000 0.000000 0.000000 0.000000 -0.395760 0.000000
# 6 0.000000 0.000000 0.000000 0.000000 0.000000 0.546638
#
#
# Mechanical properties :
#
#
# Convention : Reuss Voigt Hill
#
# Bulk Modulus (GPa) = 59.13008 59.24475 59.18741
# Shear Modulus (GPa) = -25.74892 17.79972 -3.97460
#
# Velocity S-wave (km/s) = -3.59054 2.98529 -1.41068
# Velocity P-wave (km/s) = 3.52363 6.44557 5.19429
#
# Compressibility (1/GPa) = 0.01691187
#
# Stress axis : x y z
#
# Youngs Moduli (GPa) = 82.87112 82.87112 145.91649
#
# Poissons Ratio (x) = 0.44809 0.11896
# Poissons Ratio (y) = 0.44809 0.11896
# Poissons Ratio (z) = 0.06756 0.06756
#
# Static dielectric constant tensor:
#      x y z
#    x 1.737210 0.000000 0.000000 
#    y 0.000000 1.737210 0.000000 
#    z 0.000000 0.000000 1.732030 
# 
# From -- ./inp_files/11360.got.cif
#   From: 2010.05.17/outbox.cif.g08.bks.cpg/sg141_6_cif.got.tgz:11360.got - 2010.05.20 13:30:51.
