data_PCOD9572333
_publ_section_title
;
Structure prediction by ZEFSAII (Michael W. Deem and Ramdas Pophale) SiO2 
 PCOD9572333
Probable space group: I 4/M C M
;
_chemical_formula_sum "Si O2"
_cell_formula_units_Z 160
_cell_length_a 31.694780
_cell_length_b 31.694780
_cell_length_c 8.474230
_cell_angle_alpha 90.000000
_cell_angle_beta 90.000000
_cell_angle_gamma 90.000000
_cell_volume 8512.864686
_symmetry_space_group_name_H-M "I 4/M C M"
_symmetry_group_IT_number 140
_symmetry_cell_setting 'tetragonal'
loop_
_space_group_symop_operation_xyz
x,y,z
-y,x,z
-x,-y,z
y,-x,z
x,-y,1/2-z
-x,y,1/2-z
y,x,1/2-z
-y,-x,1/2-z
-x,-y,-z
y,-x,-z
x,y,-z
-y,x,-z
-x,y,1/2+z
x,-y,1/2+z
-y,-x,1/2+z
y,x,1/2+z
1/2+x,1/2+y,1/2+z
1/2-y,1/2+x,1/2+z
1/2-x,1/2-y,1/2+z
1/2+y,1/2-x,1/2+z
1/2+x,1/2-y,-z
1/2-x,1/2+y,-z
1/2+y,1/2+x,-z
1/2-y,1/2-x,-z
1/2-x,1/2-y,1/2-z
1/2+y,1/2-x,1/2-z
1/2+x,1/2+y,1/2-z
1/2-y,1/2+x,1/2-z
1/2-x,1/2+y,z
1/2+x,1/2-y,z
1/2-y,1/2-x,z
1/2+y,1/2+x,z
loop_
_atom_site_type_symbol
_atom_site_label
_atom_site_fract_x
_atom_site_fract_y
_atom_site_fract_z
Si Si1 0.548573 0.616465 0.689953
Si Si2 0.383996 0.883996 0.688850
Si Si3 0.254163 0.313787 0.189064
Si Si4 0.952949 0.452949 0.810343
Si Si5 0.289600 0.900190 0.809125
Si Si6 0.047204 0.210373 0.809832
O O1 0.500000 0.611252 0.750000
O O2 0.580040 0.580040 0.750000
O O3 0.547353 0.615056 0.500000
O O4 0.564752 0.663882 0.737729
O O5 0.383696 0.883696 0.500000
O O6 0.418546 0.918546 0.742257
O O7 0.337122 0.897222 0.745540
O O8 0.299462 0.299462 0.250000
O O9 0.220321 0.279680 0.248773
O O10 0.235474 0.357991 0.236837
O O11 0.254912 0.312501 0.000000
O O12 0.942551 0.500000 0.750000
O O13 0.953807 0.453807 0.000000
O O14 0.255591 0.934798 0.754879
O O15 0.293203 0.901692 0.000000
O O16 0.000000 0.208657 0.750000
O O17 0.049964 0.211393 0.000000
#
# Coordination Sequence:
#
# PCOD9572333 Si02
#       6
#    32  16  32  16  32  32
#     4  10  20  36  57  84 115 149 188 235 286 339
#     4  11  24  38  56  87 118 143 181 232 277 324
#     4   9  17  30  48  71  99 133 173 213 258 308
#     4  10  22  41  64  89 115 143 178 220 272 334
#     4  10  20  37  57  78 108 149 188 224 271 330
#     4   9  20  37  57  79 108 145 186 227 272 325
#
# _framework density 18.795083999999999
#
# number of rings (size 3 to 8) (size 9 to 14) (size 15 to 20)
#    0.000    2.300    1.000    1.500    0.000    5.800 
#    0.000    5.000    0.000    0.000    0.000    0.000 
#    0.000    0.000    0.000    0.000    0.000    0.000 
#
# Total GULP energy -445433.151331 kJ/mol
# GULP energy per Si atom -5567.914392 kJ/mol
# Density = 1.875231 g / cm^3
# Si number density = 18.795084 Si / 1000 Ang^3
#
#
#
# Elastic Constant Matrix: (Units=GPa)
#
#
# Indices 1 2 3 4 5 6 
#
# 1 101.8432 117.5830 27.2552 0.0000 0.0000 0.0000
# 2 117.5830 101.8432 27.2552 0.0000 0.0000 0.0000
# 3 27.2552 27.2552 24.1572 0.0000 0.0000 0.0000
# 4 0.0000 0.0000 0.0000 19.8497 0.0000 0.0000
# 5 0.0000 0.0000 0.0000 0.0000 19.8497 0.0000
# 6 0.0000 0.0000 0.0000 0.0000 0.0000 40.6946
#
#
#
# Elastic Compliance Matrix: (Units=1/GPa)
#
#
# Indices 1 2 3 4 5 6 
#
# 1 -0.028600 0.034933 -0.007144 0.000000 0.000000 0.000000
# 2 0.034933 -0.028600 -0.007144 0.000000 0.000000 0.000000
# 3 -0.007144 -0.007144 0.057516 0.000000 0.000000 0.000000
# 4 0.000000 0.000000 0.000000 0.050379 0.000000 0.000000
# 5 0.000000 0.000000 0.000000 0.000000 0.050379 0.000000
# 6 0.000000 0.000000 0.000000 0.000000 0.000000 0.024573
#
#
# Mechanical properties :
#
#
# Convention : Reuss Voigt Hill
#
# Bulk Modulus (GPa) = 24.03631 63.55894 43.79762
# Shear Modulus (GPa) = 50.90351 19.79547 35.34949
#
# Velocity S-wave (km/s) = 5.20982 3.24886 4.34151
# Velocity P-wave (km/s) = 7.00043 6.92558 6.96311
#
# Compressibility (1/GPa) = 0.04160373
#
# Stress axis : x y z
#
# Youngs Moduli (GPa) = -34.96445 -34.96445 17.38644
#
# Poissons Ratio (x) = 1.22140 0.12421
# Poissons Ratio (y) = 1.22140 0.12421
# Poissons Ratio (z) = -0.24979 -0.24979
#
# Static dielectric constant tensor:
#      x y z
#    x 1.715880 0.000000 0.000000 
#    y 0.000000 1.715880 0.000000 
#    z 0.000000 0.000000 1.637490 
# 
# From -- ./inp_files/1825.got.cif
#   From: 2010.05.17/outbox.cif.g08.bks.cpg/sg140_1_cif.got.tgz:1825.got - 2010.06.21 00:45:31.
