data_PCOD9572744
_publ_section_title
;
Structure prediction by ZEFSAII (Michael W. Deem and Ramdas Pophale) SiO2 
 PCOD9572744
Probable space group: I 41/A M D
;
_chemical_formula_sum "Si O2"
_cell_formula_units_Z 88
_cell_length_a 14.833739
_cell_length_b 14.833739
_cell_length_c 24.632909
_cell_angle_alpha 90.000000
_cell_angle_beta 90.000000
_cell_angle_gamma 90.000000
_cell_volume 5420.220683
_symmetry_space_group_name_H-M "I 41/A M D"
_symmetry_group_IT_number 141
_space_group.IT_coordinate_system_code '2'
_symmetry_cell_setting 'tetragonal'
loop_
_space_group_symop_operation_xyz
x,y,z
1/4-y,3/4+x,1/4+z
-x,1/2-y,z
1/4+y,1/4-x,3/4+z
x,-y,-z
-x,1/2+y,-z
1/4+y,3/4+x,1/4-z
1/4-y,1/4-x,3/4-z
-x,-y,-z
3/4+y,1/4-x,3/4-z
x,1/2+y,-z
3/4-y,3/4+x,1/4-z
-x,y,z
x,1/2-y,z
3/4-y,1/4-x,3/4+z
3/4+y,3/4+x,1/4+z
1/2+x,1/2+y,1/2+z
3/4-y,1/4+x,3/4+z
1/2-x,-y,1/2+z
3/4+y,3/4-x,1/4+z
1/2+x,1/2-y,1/2-z
1/2-x,y,1/2-z
3/4+y,1/4+x,3/4-z
3/4-y,3/4-x,1/4-z
1/2-x,1/2-y,1/2-z
1/4+y,3/4-x,1/4-z
1/2+x,y,1/2-z
1/4-y,1/4+x,3/4-z
1/2-x,1/2+y,1/2+z
1/2+x,-y,1/2+z
1/4-y,3/4-x,1/4+z
1/4+y,1/4+x,3/4+z
loop_
_atom_site_type_symbol
_atom_site_label
_atom_site_fract_x
_atom_site_fract_y
_atom_site_fract_z
Si Si1 0.897831 0.750000 0.447562
Si Si2 0.500000 0.750000 0.592261
Si Si3 0.289813 0.750000 0.811147
Si Si4 0.000000 0.051351 0.674461
Si Si5 0.318829 0.600502 0.979029
O O1 0.849459 0.838584 0.469856
O O2 0.000000 0.750000 0.470947
O O3 0.914632 0.750000 0.383543
O O4 0.406342 0.750000 0.561957
O O5 0.250000 0.750000 0.750000
O O6 0.217388 0.750000 0.859506
O O7 0.343107 0.843964 0.810596
O O8 0.089480 0.005272 0.698848
O O9 0.294790 0.500000 0.000000
#
# Coordination Sequence:
#
# PCOD9572744 Si02
#       5
#    16   8  16  16  32
#     4   9  17  30  50  63  98 140 149 180 240 292
#     4  10  18  34  46  68  97 128 169 194 244 294
#     4  10  17  30  48  71 104 125 144 193 244 298
#     4  11  22  30  49  72  93 134 170 201 238 291
#     4  10  19  32  48  72  99 129 163 197 237 286
#
# _framework density 16.235502
#
# number of rings (size 3 to 8) (size 9 to 14) (size 15 to 20)
#    0.545    1.455    1.818    5.455    0.000    0.000 
#    0.000    2.727    0.000    0.000    0.000    0.000 
#    0.000    0.000    0.000    0.000    0.000    0.000 
#
# Total GULP energy -245002.728075 kJ/mol
# GULP energy per Si atom -5568.243820 kJ/mol
# Density = 1.619855 g / cm^3
# Si number density = 16.235502 Si / 1000 Ang^3
#
#
#
# Elastic Constant Matrix: (Units=GPa)
#
#
# Indices 1 2 3 4 5 6 
#
# 1 131.0324 50.5233 29.6331 0.0000 0.0000 0.0000
# 2 50.5233 131.0324 29.6331 0.0000 0.0000 0.0000
# 3 29.6331 29.6331 45.2834 0.0000 0.0000 0.0000
# 4 0.0000 0.0000 0.0000 17.6969 0.0000 0.0000
# 5 0.0000 0.0000 0.0000 0.0000 17.6969 0.0000
# 6 0.0000 0.0000 0.0000 0.0000 0.0000 11.0301
#
#
#
# Elastic Compliance Matrix: (Units=1/GPa)
#
#
# Indices 1 2 3 4 5 6 
#
# 1 0.009713 -0.002708 -0.004583 0.000000 0.000000 0.000000
# 2 -0.002708 0.009713 -0.004583 0.000000 0.000000 0.000000
# 3 -0.004583 -0.004583 0.028082 0.000000 0.000000 0.000000
# 4 0.000000 0.000000 0.000000 0.056507 0.000000 0.000000
# 5 0.000000 0.000000 0.000000 0.000000 0.056507 0.000000
# 6 0.000000 0.000000 0.000000 0.000000 0.000000 0.090661
#
#
# Mechanical properties :
#
#
# Convention : Reuss Voigt Hill
#
# Bulk Modulus (GPa) = 42.09397 58.54748 50.32073
# Shear Modulus (GPa) = 17.67714 22.45538 20.06626
#
# Velocity S-wave (km/s) = 3.30327 3.72304 3.51942
# Velocity P-wave (km/s) = 6.36649 7.39061 6.89758
#
# Compressibility (1/GPa) = 0.02375637
#
# Stress axis : x y z
#
# Youngs Moduli (GPa) = 102.95953 102.95953 35.61012
#
# Poissons Ratio (x) = 0.27886 0.16322
# Poissons Ratio (y) = 0.27886 0.16322
# Poissons Ratio (z) = 0.47191 0.47191
#
# Static dielectric constant tensor:
#      x y z
#    x 1.575710 0.000000 0.000000 
#    y 0.000000 1.575710 0.000000 
#    z 0.000000 0.000000 1.563770 
# 
# From -- ./inp_files/10987.got.cif
#   From: 2010.05.17/outbox.cif.g08.bks.cpg/sg141_6_cif.got.tgz:10987.got - 2010.05.20 13:30:51.
