data_PCOD9572679
_publ_section_title
;
Structure prediction by ZEFSAII (Michael W. Deem and Ramdas Pophale) SiO2 
 PCOD9572679
Probable space group: I 4/M C M
;
_chemical_formula_sum "Si O2"
_cell_formula_units_Z 120
_cell_length_a 19.959281
_cell_length_b 19.959281
_cell_length_c 15.290427
_cell_angle_alpha 90.000000
_cell_angle_beta 90.000000
_cell_angle_gamma 90.000000
_cell_volume 6091.291716
_symmetry_space_group_name_H-M "I 4/M C M"
_symmetry_group_IT_number 140
_symmetry_cell_setting 'tetragonal'
loop_
_space_group_symop_operation_xyz
x,y,z
-y,x,z
-x,-y,z
y,-x,z
x,-y,1/2-z
-x,y,1/2-z
y,x,1/2-z
-y,-x,1/2-z
-x,-y,-z
y,-x,-z
x,y,-z
-y,x,-z
-x,y,1/2+z
x,-y,1/2+z
-y,-x,1/2+z
y,x,1/2+z
1/2+x,1/2+y,1/2+z
1/2-y,1/2+x,1/2+z
1/2-x,1/2-y,1/2+z
1/2+y,1/2-x,1/2+z
1/2+x,1/2-y,-z
1/2-x,1/2+y,-z
1/2+y,1/2+x,-z
1/2-y,1/2-x,-z
1/2-x,1/2-y,1/2-z
1/2+y,1/2-x,1/2-z
1/2+x,1/2+y,1/2-z
1/2-y,1/2+x,1/2-z
1/2-x,1/2+y,z
1/2+x,1/2-y,z
1/2-y,1/2-x,z
1/2+y,1/2+x,z
loop_
_atom_site_type_symbol
_atom_site_label
_atom_site_fract_x
_atom_site_fract_y
_atom_site_fract_z
Si Si1 0.062153 0.910749 0.394236
Si Si2 0.945671 0.664654 0.175895
Si Si3 0.744665 0.755336 0.500000
Si Si4 0.111626 0.502968 0.000000
Si Si5 0.209760 0.154060 0.338071
O O1 0.065264 0.905520 0.500000
O O2 0.104175 0.852025 0.352494
O O3 0.983878 0.909802 0.369869
O O4 0.903562 0.596439 0.193334
O O5 0.986077 0.654259 0.085640
O O6 0.891518 0.723615 0.168606
O O7 0.000000 0.677375 0.250000
O O8 0.782523 0.798976 0.422397
O O9 0.051870 0.448131 0.000000
O O10 0.075216 0.575216 0.000000
O O11 0.195347 0.195347 0.250000
#
# Coordination Sequence:
#
# PCOD9572679 Si02
#       5
#    32  32   8  16  32
#     4   9  20  41  70 103 136 175 223 279 341 402
#     4  11  24  41  66  97 137 176 228 290 345 408
#     4  12  24  50  66  88 135 190 225 280 330 404
#     4   9  19  39  69  96 121 172 227 274 348 406
#     4  12  26  43  70 100 135 185 232 275 344 420
#
# _framework density 19.700254999999999
#
# number of rings (size 3 to 8) (size 9 to 14) (size 15 to 20)
#    0.000    1.467    2.667    2.800    5.600    1.333 
#    0.000    2.667    2.933    0.000    0.000    0.000 
#    0.000    0.000    0.000    0.000    0.000    0.000 
#
# Total GULP energy -334263.925887 kJ/mol
# GULP energy per Si atom -5571.065431 kJ/mol
# Density = 1.965542 g / cm^3
# Si number density = 19.700255 Si / 1000 Ang^3
#
#
#
# Elastic Constant Matrix: (Units=GPa)
#
#
# Indices 1 2 3 4 5 6 
#
# 1 -296.6516 426.6695 45.5456 0.0000 0.0000 0.0000
# 2 426.6695 -296.6622 45.6243 0.0000 0.0000 0.0000
# 3 45.5456 45.6243 155.1916 0.0000 0.0000 0.0000
# 4 0.0000 0.0000 0.0000 6.5114 0.0000 0.0000
# 5 0.0000 0.0000 0.0000 0.0000 6.5110 0.0000
# 6 0.0000 0.0000 0.0000 0.0000 0.0000 42.7477
#
#
#
# Elastic Compliance Matrix: (Units=1/GPa)
#
#
# Indices 1 2 3 4 5 6 
#
# 1 0.004153 0.005535 -0.002846 0.000000 0.000000 0.000000
# 2 0.005535 0.004152 -0.002845 0.000000 0.000000 0.000000
# 3 -0.002846 -0.002845 0.008115 0.000000 0.000000 0.000000
# 4 0.000000 0.000000 0.000000 0.153576 0.000000 0.000000
# 5 0.000000 0.000000 0.000000 0.000000 0.153586 0.000000
# 6 0.000000 0.000000 0.000000 0.000000 0.000000 0.023393
#
#
# Mechanical properties :
#
#
# Convention : Reuss Voigt Hill
#
# Bulk Modulus (GPa) = 62.08299 66.39518 64.23908
# Shear Modulus (GPa) = 14.17814 -52.57675 -19.19930
#
# Velocity S-wave (km/s) = 2.68562 -5.17168 -3.12520
# Velocity P-wave (km/s) = 6.41864 1.37327 4.43357
#
# Compressibility (1/GPa) = 0.01610747
#
# Stress axis : x y z
#
# Youngs Moduli (GPa) = 240.81615 240.86025 123.22564
#
# Poissons Ratio (x) = -1.33308 0.35068
# Poissons Ratio (y) = -1.33284 0.35056
# Poissons Ratio (z) = 0.68532 0.68522
#
# Static dielectric constant tensor:
#      x y z
#    x 1.676950 0.000000 0.000000 
#    y 0.000000 1.676950 0.000000 
#    z 0.000000 0.000000 1.691310 
# 
# From -- ./inp_files/4323.got.cif
#   From: 2010.05.17/outbox.cif.g08.bks.cpg/sg140_3_cif.got.tgz:4323.got - 2010.06.21 00:45:31.
