data_PCOD9572044
_publ_section_title
;
Structure prediction by ZEFSAII (Michael W. Deem and Ramdas Pophale) SiO2 
 PCOD9572044
Probable space group: I 4/M C M
;
_chemical_formula_sum "Si O2"
_cell_formula_units_Z 192
_cell_length_a 19.295406
_cell_length_b 19.295406
_cell_length_c 28.910434
_cell_angle_alpha 90.000000
_cell_angle_beta 90.000000
_cell_angle_gamma 90.000000
_cell_volume 10763.721530
_symmetry_space_group_name_H-M "I 4/M C M"
_symmetry_group_IT_number 140
_symmetry_cell_setting 'tetragonal'
loop_
_space_group_symop_operation_xyz
x,y,z
-y,x,z
-x,-y,z
y,-x,z
x,-y,1/2-z
-x,y,1/2-z
y,x,1/2-z
-y,-x,1/2-z
-x,-y,-z
y,-x,-z
x,y,-z
-y,x,-z
-x,y,1/2+z
x,-y,1/2+z
-y,-x,1/2+z
y,x,1/2+z
1/2+x,1/2+y,1/2+z
1/2-y,1/2+x,1/2+z
1/2-x,1/2-y,1/2+z
1/2+y,1/2-x,1/2+z
1/2+x,1/2-y,-z
1/2-x,1/2+y,-z
1/2+y,1/2+x,-z
1/2-y,1/2-x,-z
1/2-x,1/2-y,1/2-z
1/2+y,1/2-x,1/2-z
1/2+x,1/2+y,1/2-z
1/2-y,1/2+x,1/2-z
1/2-x,1/2+y,z
1/2+x,1/2-y,z
1/2-y,1/2-x,z
1/2+y,1/2+x,z
loop_
_atom_site_type_symbol
_atom_site_label
_atom_site_fract_x
_atom_site_fract_y
_atom_site_fract_z
Si Si1 0.498717 0.883786 0.052468
Si Si2 0.611540 0.503536 0.385436
Si Si3 0.985481 0.269604 0.130370
Si Si4 0.868587 0.950738 0.215781
Si Si5 0.141023 0.749356 0.197065
Si Si6 0.066033 0.677899 0.281787
O O1 0.429522 0.929522 0.058154
O O2 0.505055 0.826770 0.091564
O O3 0.562259 0.937742 0.056103
O O4 0.499198 0.855427 0.000000
O O5 0.565129 0.569787 0.400699
O O6 0.693689 0.507099 0.393088
O O7 0.610774 0.507992 0.329485
O O8 0.910973 0.276047 0.156375
O O9 0.039680 0.282177 0.172498
O O10 0.927909 0.927909 0.250000
O O11 0.829801 0.880502 0.199600
O O12 0.823141 0.000000 0.250000
O O13 0.217270 0.717270 0.189821
O O14 0.114461 0.720910 0.246494
O O15 0.110283 0.610283 0.295643
O O16 0.000000 0.657692 0.250000
#
# Coordination Sequence:
#
# PCOD9572044 Si02
#       6
#    32  32  32  32  32  32
#     4   9  18  33  56  86 111 130 161 206 255 311
#     4  10  20  32  48  72  99 131 176 223 260 301
#     4  10  18  31  52  72 102 136 169 208 263 305
#     4  11  19  28  45  65  92 128 176 219 262 296
#     4   9  18  30  42  62  96 136 172 203 242 304
#     4   9  17  28  42  63  95 131 168 204 239 291
#
# _framework density 17.837696999999999
#
# number of rings (size 3 to 8) (size 9 to 14) (size 15 to 20)
#    0.000    2.333    1.667    4.000    0.000    1.333 
#    0.000    0.000    0.000    4.000    0.000    3.500 
#    0.000    0.000    0.000    0.000    0.000    0.000 
#
# Total GULP energy -534428.620660 kJ/mol
# GULP energy per Si atom -5566.964799 kJ/mol
# Density = 1.779710 g / cm^3
# Si number density = 17.837697 Si / 1000 Ang^3
#
#
#
# Elastic Constant Matrix: (Units=GPa)
#
#
# Indices 1 2 3 4 5 6 
#
# 1 74.6897 23.9127 25.0804 0.0000 0.0000 0.0000
# 2 23.9127 74.6897 25.0804 0.0000 0.0000 0.0000
# 3 25.0804 25.0804 78.9952 0.0000 0.0000 0.0000
# 4 0.0000 0.0000 0.0000 19.8398 0.0000 0.0000
# 5 0.0000 0.0000 0.0000 0.0000 19.8398 0.0000
# 6 0.0000 0.0000 0.0000 0.0000 0.0000 23.2159
#
#
#
# Elastic Compliance Matrix: (Units=1/GPa)
#
#
# Indices 1 2 3 4 5 6 
#
# 1 0.015895 -0.003799 -0.003840 0.000000 0.000000 0.000000
# 2 -0.003799 0.015895 -0.003840 0.000000 0.000000 0.000000
# 3 -0.003840 -0.003840 0.015097 0.000000 0.000000 0.000000
# 4 0.000000 0.000000 0.000000 0.050404 0.000000 0.000000
# 5 0.000000 0.000000 0.000000 0.000000 0.050404 0.000000
# 6 0.000000 0.000000 0.000000 0.000000 0.000000 0.043074
#
#
# Mechanical properties :
#
#
# Convention : Reuss Voigt Hill
#
# Bulk Modulus (GPa) = 41.79316 41.83575 41.81446
# Shear Modulus (GPa) = 22.55268 22.86585 22.70926
#
# Velocity S-wave (km/s) = 3.55960 3.58422 3.57193
# Velocity P-wave (km/s) = 6.35412 6.37443 6.36428
#
# Compressibility (1/GPa) = 0.02392736
#
# Stress axis : x y z
#
# Youngs Moduli (GPa) = 62.91431 62.91431 66.23626
#
# Poissons Ratio (x) = 0.23903 0.25436
# Poissons Ratio (y) = 0.23903 0.25436
# Poissons Ratio (z) = 0.24160 0.24160
#
# Static dielectric constant tensor:
#      x y z
#    x 1.702560 0.000000 0.000000 
#    y 0.000000 1.702560 0.000000 
#    z 0.000000 0.000000 1.584680 
# 
# From -- ./inp_files/10837.got.cif
#   From: 2010.05.17/outbox.cif.g08.bks.cpg/sg140_6_cif.got.tgz:10837.got - 2010.06.21 00:45:31.
