data_PCOD9572518
_publ_section_title
;
Structure prediction by ZEFSAII (Michael W. Deem and Ramdas Pophale) SiO2 
 PCOD9572518
Probable space group: I 4/M C M
;
_chemical_formula_sum "Si O2"
_cell_formula_units_Z 160
_cell_length_a 21.252536
_cell_length_b 21.252536
_cell_length_c 16.664323
_cell_angle_alpha 90.000000
_cell_angle_beta 90.000000
_cell_angle_gamma 90.000000
_cell_volume 7526.779543
_symmetry_space_group_name_H-M "I 4/M C M"
_symmetry_group_IT_number 140
_symmetry_cell_setting 'tetragonal'
loop_
_space_group_symop_operation_xyz
x,y,z
-y,x,z
-x,-y,z
y,-x,z
x,-y,1/2-z
-x,y,1/2-z
y,x,1/2-z
-y,-x,1/2-z
-x,-y,-z
y,-x,-z
x,y,-z
-y,x,-z
-x,y,1/2+z
x,-y,1/2+z
-y,-x,1/2+z
y,x,1/2+z
1/2+x,1/2+y,1/2+z
1/2-y,1/2+x,1/2+z
1/2-x,1/2-y,1/2+z
1/2+y,1/2-x,1/2+z
1/2+x,1/2-y,-z
1/2-x,1/2+y,-z
1/2+y,1/2+x,-z
1/2-y,1/2-x,-z
1/2-x,1/2-y,1/2-z
1/2+y,1/2-x,1/2-z
1/2+x,1/2+y,1/2-z
1/2-y,1/2+x,1/2-z
1/2-x,1/2+y,z
1/2+x,1/2-y,z
1/2-y,1/2-x,z
1/2+y,1/2+x,z
loop_
_atom_site_type_symbol
_atom_site_label
_atom_site_fract_x
_atom_site_fract_y
_atom_site_fract_z
Si Si1 0.399578 0.508640 0.154078
Si Si2 0.085232 0.691688 0.406493
Si Si3 0.052817 0.651841 0.097880
Si Si4 0.211802 0.084267 0.906451
Si Si5 0.819974 0.215210 0.659481
O O1 0.433938 0.444995 0.125586
O O2 0.401387 0.500000 0.250000
O O3 0.329879 0.528871 0.130989
O O4 0.078609 0.712638 0.500000
O O5 0.135805 0.635805 0.405641
O O6 0.115301 0.747431 0.354268
O O7 0.019125 0.663347 0.378243
O O8 0.091151 0.591151 0.127297
O O9 0.087269 0.716248 0.123123
O O10 0.052831 0.647969 0.000000
O O11 0.181883 0.152153 0.891879
O O12 0.214567 0.070725 0.000000
O O13 0.807182 0.192819 0.750000
O O14 0.763758 0.263758 0.636856
#
# Coordination Sequence:
#
# PCOD9572518 Si02
#       5
#    32  32  32  32  32
#     4   9  21  40  59  83 119 161 204 246 302 365
#     4   9  18  34  58  86 117 156 203 256 310 372
#     4   9  19  35  54  82 119 155 197 250 309 371
#     4  11  23  35  59  89 118 157 202 252 309 372
#     4  10  22  38  57  85 120 157 200 252 315 382
#
# _framework density 21.257432999999999
#
# number of rings (size 3 to 8) (size 9 to 14) (size 15 to 20)
#    0.000    2.400    0.000    1.800    5.600    3.200 
#    0.000    3.000    0.000    0.000    0.000    0.000 
#    0.000    4.800    0.000    0.200    0.000    0.200 
#
# Total GULP energy -446434.094682 kJ/mol
# GULP energy per Si atom -5580.426184 kJ/mol
# Density = 2.120905 g / cm^3
# Si number density = 21.257433 Si / 1000 Ang^3
#
#
#
# Elastic Constant Matrix: (Units=GPa)
#
#
# Indices 1 2 3 4 5 6 
#
# 1 133.1028 43.6311 32.9966 0.0000 0.0000 0.0000
# 2 43.6311 133.1021 32.9970 0.0000 0.0000 0.0000
# 3 32.9966 32.9970 21.1974 0.0000 0.0000 0.0000
# 4 0.0000 0.0000 0.0000 19.6786 0.0000 0.0000
# 5 0.0000 0.0000 0.0000 0.0000 19.6786 0.0000
# 6 0.0000 0.0000 0.0000 0.0000 0.0000 37.3054
#
#
#
# Elastic Compliance Matrix: (Units=1/GPa)
#
#
# Indices 1 2 3 4 5 6 
#
# 1 0.012345 0.001168 -0.021034 0.000000 0.000000 0.000000
# 2 0.001168 0.012345 -0.021035 0.000000 0.000000 0.000000
# 3 -0.021034 -0.021035 0.112661 0.000000 0.000000 0.000000
# 4 0.000000 0.000000 0.000000 0.050817 0.000000 0.000000
# 5 0.000000 0.000000 0.000000 0.000000 0.050817 0.000000
# 6 0.000000 0.000000 0.000000 0.000000 0.000000 0.026806
#
#
# Mechanical properties :
#
#
# Convention : Reuss Voigt Hill
#
# Bulk Modulus (GPa) = 18.00204 56.29463 37.14833
# Shear Modulus (GPa) = 13.65721 27.18436 20.42079
#
# Velocity S-wave (km/s) = 2.53744 3.57993 3.10279
# Velocity P-wave (km/s) = 4.13180 6.60513 5.50906
#
# Compressibility (1/GPa) = 0.05554927
#
# Stress axis : x y z
#
# Youngs Moduli (GPa) = 81.00769 81.00555 8.87618
#
# Poissons Ratio (x) = -0.09461 0.18670
# Poissons Ratio (y) = -0.09461 0.18671
# Poissons Ratio (z) = 1.70391 1.70392
#
# Static dielectric constant tensor:
#      x y z
#    x 1.779760 0.000000 0.000000 
#    y 0.000000 1.779760 0.000000 
#    z 0.000000 0.000000 1.770080 
# 
# From -- ./inp_files/6881.got.cif
#   From: 2010.05.17/outbox.cif.g08.bks.cpg/sg140_4_cif.got.tgz:6881.got - 2010.06.21 00:45:31.
