data_PCOD9572837
_publ_section_title
;
Structure prediction by ZEFSAII (Michael W. Deem and Ramdas Pophale) SiO2 
 PCOD9572837
Probable space group: I 41/A M D
;
_chemical_formula_sum "Si O2"
_cell_formula_units_Z 192
_cell_length_a 28.176743
_cell_length_b 28.176743
_cell_length_c 14.389889
_cell_angle_alpha 90.000000
_cell_angle_beta 90.000000
_cell_angle_gamma 90.000000
_cell_volume 11424.547969
_symmetry_space_group_name_H-M "I 41/A M D"
_symmetry_group_IT_number 141
_space_group.IT_coordinate_system_code '2'
_symmetry_cell_setting 'tetragonal'
loop_
_space_group_symop_operation_xyz
x,y,z
1/4-y,3/4+x,1/4+z
-x,1/2-y,z
1/4+y,1/4-x,3/4+z
x,-y,-z
-x,1/2+y,-z
1/4+y,3/4+x,1/4-z
1/4-y,1/4-x,3/4-z
-x,-y,-z
3/4+y,1/4-x,3/4-z
x,1/2+y,-z
3/4-y,3/4+x,1/4-z
-x,y,z
x,1/2-y,z
3/4-y,1/4-x,3/4+z
3/4+y,3/4+x,1/4+z
1/2+x,1/2+y,1/2+z
3/4-y,1/4+x,3/4+z
1/2-x,-y,1/2+z
3/4+y,3/4-x,1/4+z
1/2+x,1/2-y,1/2-z
1/2-x,y,1/2-z
3/4+y,1/4+x,3/4-z
3/4-y,3/4-x,1/4-z
1/2-x,1/2-y,1/2-z
1/4+y,3/4-x,1/4-z
1/2+x,y,1/2-z
1/4-y,1/4+x,3/4-z
1/2-x,1/2+y,1/2+z
1/2+x,-y,1/2+z
1/4-y,3/4-x,1/4+z
1/4+y,1/4+x,3/4+z
loop_
_atom_site_type_symbol
_atom_site_label
_atom_site_fract_x
_atom_site_fract_y
_atom_site_fract_z
Si Si1 0.802132 0.194706 0.853356
Si Si2 0.446849 0.391146 0.792369
Si Si3 0.444293 0.492377 0.894559
Si Si4 0.776914 0.860225 0.472464
Si Si5 0.113348 0.904622 0.932952
Si Si6 0.194224 0.458783 0.769741
O O1 0.789461 0.250000 0.838963
O O2 0.759146 0.165394 0.899477
O O3 0.820376 0.170168 0.759596
O O4 0.841389 0.193513 0.935319
O O5 0.500000 0.372398 0.808110
O O6 0.440844 0.438321 0.856541
O O7 0.401718 0.358729 0.810361
O O8 0.500000 0.504808 0.890996
O O9 0.416094 0.523266 0.819987
O O10 0.427729 0.500000 0.000000
O O11 0.826473 0.856317 0.420645
O O12 0.756285 0.913130 0.486782
O O13 0.167220 0.920866 0.958746
O O14 0.250000 0.465186 0.750000
O O15 0.190696 0.440696 0.875000
#
# Coordination Sequence:
#
# PCOD9572837 Si02
#       6
#    32  32  32  32  32  32
#     4  10  19  31  51  79 108 134 170 219 263 310
#     4   9  18  33  53  73  96 136 182 215 259 319
#     4   9  18  35  57  75 100 135 174 228 277 305
#     4  11  21  32  51  76 106 138 180 215 255 311
#     4  12  19  32  53  75 106 140 170 215 262 314
#     4  12  20  33  48  70 105 149 182 200 243 305
#
# _framework density 16.805916
#
# number of rings (size 3 to 8) (size 9 to 14) (size 15 to 20)
#    0.000    1.500    6.667    2.500    0.000    2.000 
#    0.000    4.167    0.000    0.500    0.000    2.333 
#    0.000    0.000    0.000    4.500    0.000    8.333 
#
# Total GULP energy -535447.837545 kJ/mol
# GULP energy per Si atom -5577.581641 kJ/mol
# Density = 1.676767 g / cm^3
# Si number density = 16.805916 Si / 1000 Ang^3
#
#
#
# Elastic Constant Matrix: (Units=GPa)
#
#
# Indices 1 2 3 4 5 6 
#
# 1 65.5970 23.0218 23.7726 0.0000 0.0000 0.0000
# 2 23.0218 65.5970 23.7726 0.0000 0.0000 0.0000
# 3 23.7726 23.7726 115.5495 0.0000 0.0000 0.0000
# 4 0.0000 0.0000 0.0000 12.8969 0.0000 0.0000
# 5 0.0000 0.0000 0.0000 0.0000 12.8969 0.0000
# 6 0.0000 0.0000 0.0000 0.0000 0.0000 -0.1372
#
#
#
# Elastic Compliance Matrix: (Units=1/GPa)
#
#
# Indices 1 2 3 4 5 6 
#
# 1 0.018086 -0.005402 -0.002610 0.000000 0.000000 0.000000
# 2 -0.005402 0.018086 -0.002610 0.000000 0.000000 0.000000
# 3 -0.002610 -0.002610 0.009728 0.000000 0.000000 0.000000
# 4 0.000000 0.000000 0.000000 0.077538 0.000000 0.000000
# 5 0.000000 0.000000 0.000000 0.000000 0.077538 0.000000
# 6 0.000000 0.000000 0.000000 0.000000 0.000000 -7.286228
#
#
# Mechanical properties :
#
#
# Convention : Reuss Voigt Hill
#
# Bulk Modulus (GPa) = 40.55421 43.09751 41.82586
# Shear Modulus (GPa) = -0.70864 16.87641 8.08389
#
# Velocity S-wave (km/s) = -0.65006 3.17234 2.19558
# Velocity P-wave (km/s) = 4.86003 6.25446 5.60081
#
# Compressibility (1/GPa) = 0.02465835
#
# Stress axis : x y z
#
# Youngs Moduli (GPa) = 55.29108 55.29108 102.79517
#
# Poissons Ratio (x) = 0.29867 0.26826
# Poissons Ratio (y) = 0.29867 0.26826
# Poissons Ratio (z) = 0.14429 0.14429
#
# Static dielectric constant tensor:
#      x y z
#    x 1.585110 0.000000 0.000000 
#    y 0.000000 1.585110 0.000000 
#    z 0.000000 0.000000 1.568040 
# 
# From -- ./inp_files/6953.got.cif
#   From: 2010.05.17/outbox.cif.g08.bks.cpg/sg141_4_cif.got.tgz:6953.got - 2010.05.20 13:30:51.
