data_PCOD9572139
_publ_section_title
;
Structure prediction by ZEFSAII (Michael W. Deem and Ramdas Pophale) SiO2 
 PCOD9572139
Probable space group: I 4/M C M
;
_chemical_formula_sum "Si O2"
_cell_formula_units_Z 208
_cell_length_a 22.197952
_cell_length_b 22.197952
_cell_length_c 27.463520
_cell_angle_alpha 90.000000
_cell_angle_beta 90.000000
_cell_angle_gamma 90.000000
_cell_volume 13532.624021
_symmetry_space_group_name_H-M "I 4/M C M"
_symmetry_group_IT_number 140
_symmetry_cell_setting 'tetragonal'
loop_
_space_group_symop_operation_xyz
x,y,z
-y,x,z
-x,-y,z
y,-x,z
x,-y,1/2-z
-x,y,1/2-z
y,x,1/2-z
-y,-x,1/2-z
-x,-y,-z
y,-x,-z
x,y,-z
-y,x,-z
-x,y,1/2+z
x,-y,1/2+z
-y,-x,1/2+z
y,x,1/2+z
1/2+x,1/2+y,1/2+z
1/2-y,1/2+x,1/2+z
1/2-x,1/2-y,1/2+z
1/2+y,1/2-x,1/2+z
1/2+x,1/2-y,-z
1/2-x,1/2+y,-z
1/2+y,1/2+x,-z
1/2-y,1/2-x,-z
1/2-x,1/2-y,1/2-z
1/2+y,1/2-x,1/2-z
1/2+x,1/2+y,1/2-z
1/2-y,1/2+x,1/2-z
1/2-x,1/2+y,z
1/2+x,1/2-y,z
1/2-y,1/2-x,z
1/2+y,1/2+x,z
loop_
_atom_site_type_symbol
_atom_site_label
_atom_site_fract_x
_atom_site_fract_y
_atom_site_fract_z
Si Si1 0.221974 0.378447 0.865817
Si Si2 0.335684 0.004056 0.885687
Si Si3 0.449012 0.050989 0.443716
Si Si4 0.752329 0.152222 0.244977
Si Si5 0.560874 0.160513 0.718347
Si Si6 0.810307 0.206644 0.555831
Si Si7 0.712911 0.114231 0.558506
O O1 0.162695 0.337306 0.874754
O O2 0.203942 0.447331 0.869904
O O3 0.243619 0.363105 0.811727
O O4 0.270374 0.359071 0.906184
O O5 0.351474 0.041061 0.837016
O O6 0.299177 0.049506 0.919748
O O7 0.392685 0.977318 0.914856
O O8 0.432992 0.067009 0.500000
O O9 0.500000 0.000000 0.445699
O O10 0.818784 0.181217 0.250000
O O11 0.706017 0.206017 0.258701
O O12 0.724731 0.095358 0.274501
O O13 0.500000 0.158895 0.750000
O O14 0.608589 0.108589 0.734197
O O15 0.831846 0.200990 0.500000
O O16 0.757575 0.257575 0.555255
O O17 0.775651 0.146235 0.571840
O O18 0.711249 0.112532 0.500000
O O19 0.658691 0.158691 0.574588
#
# Coordination Sequence:
#
# PCOD9572139 Si02
#       7
#    32  32  16  32  32  32  32
#     4  10  19  33  48  68  99 128 165 213 250 303
#     4  12  22  34  49  72 100 138 176 210 253 291
#     4  11  24  38  50  68  99 144 194 224 239 277
#     4   9  19  35  53  71  92 124 167 213 264 307
#     4  11  23  36  51  72 102 138 175 210 248 297
#     4   8  16  30  49  70  91 121 163 210 263 310
#     4   9  18  33  50  70  96 128 171 216 254 298
#
# _framework density 15.370264000000001
#
# number of rings (size 3 to 8) (size 9 to 14) (size 15 to 20)
#    0.000    2.077    2.308    2.769    3.231    2.615 
#    0.000    0.000    0.000    0.000    0.000    0.000 
#    0.000    0.923    1.231    3.385    0.308    0.000 
#
# Total GULP energy -579559.797047 kJ/mol
# GULP energy per Si atom -5572.690356 kJ/mol
# Density = 1.533528 g / cm^3
# Si number density = 15.370264 Si / 1000 Ang^3
#
#
#
# Elastic Constant Matrix: (Units=GPa)
#
#
# Indices 1 2 3 4 5 6 
#
# 1 53.6557 49.7204 21.6237 0.0000 0.0000 0.0000
# 2 49.7204 53.6572 21.6239 0.0000 0.0000 0.0000
# 3 21.6237 21.6239 47.1732 0.0000 0.0000 0.0000
# 4 0.0000 0.0000 0.0000 5.2358 0.0000 0.0000
# 5 0.0000 0.0000 0.0000 0.0000 5.2245 0.0000
# 6 0.0000 0.0000 0.0000 0.0000 0.0000 29.0605
#
#
#
# Elastic Compliance Matrix: (Units=1/GPa)
#
#
# Indices 1 2 3 4 5 6 
#
# 1 0.133019 -0.121049 -0.005487 0.000000 0.000000 0.000000
# 2 -0.121049 0.133015 -0.005486 0.000000 0.000000 0.000000
# 3 -0.005487 -0.005486 0.026228 0.000000 0.000000 0.000000
# 4 0.000000 0.000000 0.000000 0.190993 0.000000 0.000000
# 5 0.000000 0.000000 0.000000 0.000000 0.191405 0.000000
# 6 0.000000 0.000000 0.000000 0.000000 0.000000 0.034411
#
#
# Mechanical properties :
#
#
# Convention : Reuss Voigt Hill
#
# Bulk Modulus (GPa) = 35.43567 37.82468 36.63017
# Shear Modulus (GPa) = 5.08895 12.00537 8.54716
#
# Velocity S-wave (km/s) = 1.82156 2.79781 2.36070
# Velocity P-wave (km/s) = 5.24680 5.92447 5.59590
#
# Compressibility (1/GPa) = 0.02822016
#
# Stress axis : x y z
#
# Youngs Moduli (GPa) = 7.51771 7.51795 38.12691
#
# Poissons Ratio (x) = 0.91004 0.20919
# Poissons Ratio (y) = 0.91001 0.20915
# Poissons Ratio (z) = 0.04125 0.04124
#
# Static dielectric constant tensor:
#      x y z
#    x 1.505000 0.000000 0.000000 
#    y 0.000000 1.505000 0.000000 
#    z 0.000000 0.000000 1.537560 
# 
# From -- ./inp_files/11741.got.cif
#   From: 2010.05.17/outbox.cif.g08.bks.cpg/sg140_6_cif.got.tgz:11741.got - 2010.06.21 00:45:31.
