data_PCOD9572444
_publ_section_title
;
Structure prediction by ZEFSAII (Michael W. Deem and Ramdas Pophale) SiO2 
 PCOD9572444
Probable space group: I 4/M C M
;
_chemical_formula_sum "Si O2"
_cell_formula_units_Z 112
_cell_length_a 18.823326
_cell_length_b 18.823326
_cell_length_c 14.990768
_cell_angle_alpha 90.000000
_cell_angle_beta 90.000000
_cell_angle_gamma 90.000000
_cell_volume 5311.492965
_symmetry_space_group_name_H-M "I 4/M C M"
_symmetry_group_IT_number 140
_symmetry_cell_setting 'tetragonal'
loop_
_space_group_symop_operation_xyz
x,y,z
-y,x,z
-x,-y,z
y,-x,z
x,-y,1/2-z
-x,y,1/2-z
y,x,1/2-z
-y,-x,1/2-z
-x,-y,-z
y,-x,-z
x,y,-z
-y,x,-z
-x,y,1/2+z
x,-y,1/2+z
-y,-x,1/2+z
y,x,1/2+z
1/2+x,1/2+y,1/2+z
1/2-y,1/2+x,1/2+z
1/2-x,1/2-y,1/2+z
1/2+y,1/2-x,1/2+z
1/2+x,1/2-y,-z
1/2-x,1/2+y,-z
1/2+y,1/2+x,-z
1/2-y,1/2-x,-z
1/2-x,1/2-y,1/2-z
1/2+y,1/2-x,1/2-z
1/2+x,1/2+y,1/2-z
1/2-y,1/2+x,1/2-z
1/2-x,1/2+y,z
1/2+x,1/2-y,z
1/2-y,1/2-x,z
1/2+y,1/2+x,z
loop_
_atom_site_type_symbol
_atom_site_label
_atom_site_fract_x
_atom_site_fract_y
_atom_site_fract_z
Si Si1 0.884363 0.384363 0.608586
Si Si2 0.956400 0.339583 0.109110
Si Si3 0.233251 0.266750 0.853142
Si Si4 0.111449 0.191436 0.399775
Si Si5 0.416857 0.583144 0.750000
O O1 0.884129 0.384129 0.500000
O O2 0.862257 0.464250 0.636973
O O3 0.826798 0.326798 0.639712
O O4 0.897586 0.397586 0.137960
O O5 0.932167 0.260182 0.135870
O O6 0.955269 0.339498 0.000000
O O7 0.250000 0.250000 0.750000
O O8 0.211310 0.193858 0.899281
O O9 0.086428 0.176314 0.500000
O O10 0.108816 0.123909 0.336728
O O11 0.403617 0.500000 0.750000
#
# Coordination Sequence:
#
# PCOD9572444 Si02
#       5
#    16  32  16  32  16
#     4  10  21  36  62  99 134 170 223 276 330 405
#     4   9  18  35  63 100 137 174 212 267 339 409
#     4  12  24  41  63  96 134 181 230 281 331 396
#     4  11  23  42  70  99 134 178 225 278 340 411
#     4  11  28  49  68  96 130 171 230 295 352 408
#
# _framework density 21.086349999999999
#
# number of rings (size 3 to 8) (size 9 to 14) (size 15 to 20)
#    0.000    1.571    2.857    1.714    4.000    2.857 
#    0.000    1.429    0.000    0.000    3.714    0.000 
#    0.000    0.000    0.000    0.000    0.000    0.000 
#
# Total GULP energy -313066.501181 kJ/mol
# GULP energy per Si atom -5590.473235 kJ/mol
# Density = 2.103836 g / cm^3
# Si number density = 21.086350 Si / 1000 Ang^3
#
#
#
# Elastic Constant Matrix: (Units=GPa)
#
#
# Indices 1 2 3 4 5 6 
#
# 1 297.6897 -84.1963 38.3357 0.0000 0.0000 0.0000
# 2 -84.1963 297.6878 38.3353 0.0000 0.0000 0.0000
# 3 38.3357 38.3353 74.2858 0.0000 0.0000 0.0000
# 4 0.0000 0.0000 0.0000 31.7263 0.0000 0.0000
# 5 0.0000 0.0000 0.0000 0.0000 31.7280 0.0000
# 6 0.0000 0.0000 0.0000 0.0000 0.0000 35.5753
#
#
#
# Elastic Compliance Matrix: (Units=1/GPa)
#
#
# Indices 1 2 3 4 5 6 
#
# 1 0.004184 0.001565 -0.002967 0.000000 0.000000 0.000000
# 2 0.001565 0.004184 -0.002967 0.000000 0.000000 0.000000
# 3 -0.002967 -0.002967 0.016524 0.000000 0.000000 0.000000
# 4 0.000000 0.000000 0.000000 0.031520 0.000000 0.000000
# 5 0.000000 0.000000 0.000000 0.000000 0.031518 0.000000
# 6 0.000000 0.000000 0.000000 0.000000 0.000000 0.028109
#
#
# Mechanical properties :
#
#
# Convention : Reuss Voigt Hill
#
# Bulk Modulus (GPa) = 61.90161 72.73471 67.31816
# Shear Modulus (GPa) = 38.41393 64.95184 51.68289
#
# Velocity S-wave (km/s) = 4.27282 5.55605 4.95614
# Velocity P-wave (km/s) = 7.33230 8.70219 8.04645
#
# Compressibility (1/GPa) = 0.01615467
#
# Stress axis : x y z
#
# Youngs Moduli (GPa) = 239.00184 239.00052 60.51846
#
# Poissons Ratio (x) = -0.37415 0.17956
# Poissons Ratio (y) = -0.37416 0.17956
# Poissons Ratio (z) = 0.70914 0.70914
#
# Static dielectric constant tensor:
#      x y z
#    x 1.556340 0.000000 0.000000 
#    y 0.000000 1.556180 0.000000 
#    z 0.000000 0.000000 1.893040 
# 
# From -- ./inp_files/6144.got.cif
#   From: 2010.05.17/outbox.cif.g08.bks.cpg/sg140_4_cif.got.tgz:6144.got - 2010.06.21 00:45:31.
