data_PCOD9572157
_publ_section_title
;
Structure prediction by ZEFSAII (Michael W. Deem and Ramdas Pophale) SiO2 
 PCOD9572157
Probable space group: I 4/M C M
;
_chemical_formula_sum "Si O2"
_cell_formula_units_Z 164
_cell_length_a 20.525924
_cell_length_b 20.525924
_cell_length_c 22.348866
_cell_angle_alpha 90.000000
_cell_angle_beta 90.000000
_cell_angle_gamma 90.000000
_cell_volume 9415.880208
_symmetry_space_group_name_H-M "I 4/M C M"
_symmetry_group_IT_number 140
_symmetry_cell_setting 'tetragonal'
loop_
_space_group_symop_operation_xyz
x,y,z
-y,x,z
-x,-y,z
y,-x,z
x,-y,1/2-z
-x,y,1/2-z
y,x,1/2-z
-y,-x,1/2-z
-x,-y,-z
y,-x,-z
x,y,-z
-y,x,-z
-x,y,1/2+z
x,-y,1/2+z
-y,-x,1/2+z
y,x,1/2+z
1/2+x,1/2+y,1/2+z
1/2-y,1/2+x,1/2+z
1/2-x,1/2-y,1/2+z
1/2+y,1/2-x,1/2+z
1/2+x,1/2-y,-z
1/2-x,1/2+y,-z
1/2+y,1/2+x,-z
1/2-y,1/2-x,-z
1/2-x,1/2-y,1/2-z
1/2+y,1/2-x,1/2-z
1/2+x,1/2+y,1/2-z
1/2-y,1/2+x,1/2-z
1/2-x,1/2+y,z
1/2+x,1/2-y,z
1/2-y,1/2-x,z
1/2+y,1/2+x,z
loop_
_atom_site_type_symbol
_atom_site_label
_atom_site_fract_x
_atom_site_fract_y
_atom_site_fract_z
Si Si1 0.583862 0.916139 0.097964
Si Si2 0.804071 0.152453 0.657061
Si Si3 0.690252 0.190252 0.568554
Si Si4 0.633607 0.026041 0.815927
Si Si5 0.927689 0.079453 0.178913
Si Si6 0.231858 0.375230 0.225241
Si Si7 0.500000 0.000000 0.000000
O O1 0.634815 0.865186 0.070739
O O2 0.533378 0.875037 0.138925
O O3 0.541249 0.958752 0.051971
O O4 0.753445 0.165503 0.604825
O O5 0.868218 0.111947 0.641753
O O6 0.832235 0.219648 0.684894
O O7 0.767652 0.114771 0.711588
O O8 0.705678 0.205678 0.500000
O O9 0.581564 0.081564 0.833687
O O10 0.703801 0.061183 0.807829
O O11 0.616630 0.000000 0.750000
O O12 0.912140 0.087861 0.250000
O O13 0.004223 0.088462 0.168103
O O14 0.169120 0.330881 0.239541
#
# Coordination Sequence:
#
# PCOD9572157 Si02
#       7
#    16  32  16  32  32  32   4
#     4  12  24  43  61  82 118 158 198 253 291 357
#     4  11  19  37  60  82 120 156 189 239 292 351
#     4  12  26  41  59  80 112 161 211 246 282 340
#     4  11  21  33  56  87 118 151 187 238 299 357
#     4   9  18  32  54  89 125 150 177 224 294 367
#     4  10  19  33  55  85 116 147 190 231 300 356
#     4  12  24  44  66  72 108 164 208 238 312 330
#
# _framework density 17.417384999999999
#
# number of rings (size 3 to 8) (size 9 to 14) (size 15 to 20)
#    0.000    1.366    6.341    2.341    0.000    3.122 
#    0.000    0.000    4.293    1.171    0.000    1.366 
#    0.000    0.000    0.000    0.000    0.000    0.000 
#
# Total GULP energy -456917.140830 kJ/mol
# GULP energy per Si atom -5572.160254 kJ/mol
# Density = 1.737774 g / cm^3
# Si number density = 17.417385 Si / 1000 Ang^3
#
#
#
# Elastic Constant Matrix: (Units=GPa)
#
#
# Indices 1 2 3 4 5 6 
#
# 1 62.6996 74.9386 40.3898 0.0000 0.0000 0.0000
# 2 74.9386 62.6999 40.3899 0.0000 0.0000 0.0000
# 3 40.3898 40.3899 95.0543 0.0000 0.0000 0.0000
# 4 0.0000 0.0000 0.0000 7.9145 0.0000 0.0000
# 5 0.0000 0.0000 0.0000 0.0000 7.9146 0.0000
# 6 0.0000 0.0000 0.0000 0.0000 0.0000 34.9929
#
#
#
# Elastic Compliance Matrix: (Units=1/GPa)
#
#
# Indices 1 2 3 4 5 6 
#
# 1 -0.036014 0.045693 -0.004113 0.000000 0.000000 0.000000
# 2 0.045693 -0.036014 -0.004113 0.000000 0.000000 0.000000
# 3 -0.004113 -0.004113 0.014015 0.000000 0.000000 0.000000
# 4 0.000000 0.000000 0.000000 0.126350 0.000000 0.000000
# 5 0.000000 0.000000 0.000000 0.000000 0.126349 0.000000
# 6 0.000000 0.000000 0.000000 0.000000 0.000000 0.028577
#
#
# Mechanical properties :
#
#
# Convention : Reuss Voigt Hill
#
# Bulk Modulus (GPa) = 59.09250 59.09894 59.09572
# Shear Modulus (GPa) = 32.47386 14.48010 23.47698
#
# Velocity S-wave (km/s) = 4.32261 2.88646 3.67537
# Velocity P-wave (km/s) = 7.67556 6.71666 7.21207
#
# Compressibility (1/GPa) = 0.01692262
#
# Stress axis : x y z
#
# Youngs Moduli (GPa) = -27.76687 -27.76696 71.34958
#
# Poissons Ratio (x) = 1.26876 0.29345
# Poissons Ratio (y) = 1.26876 0.29345
# Poissons Ratio (z) = -0.11420 -0.11420
#
# Static dielectric constant tensor:
#      x y z
#    x 1.619130 0.000000 0.000000 
#    y 0.000000 1.619130 0.000000 
#    z 0.000000 0.000000 1.563270 
# 
# From -- ./inp_files/8477.got.cif
#   From: 2010.05.17/outbox.cif.g08.bks.cpg/sg140_5_cif.got.tgz:8477.got - 2010.06.21 00:45:31.
