data_PCOD9572091
_publ_section_title
;
Structure prediction by ZEFSAII (Michael W. Deem and Ramdas Pophale) SiO2 
 PCOD9572091
Probable space group: I 4/M C M
;
_chemical_formula_sum "Si O2"
_cell_formula_units_Z 160
_cell_length_a 22.292455
_cell_length_b 22.292455
_cell_length_c 14.539974
_cell_angle_alpha 90.000000
_cell_angle_beta 90.000000
_cell_angle_gamma 90.000000
_cell_volume 7225.691695
_symmetry_space_group_name_H-M "I 4/M C M"
_symmetry_group_IT_number 140
_symmetry_cell_setting 'tetragonal'
loop_
_space_group_symop_operation_xyz
x,y,z
-y,x,z
-x,-y,z
y,-x,z
x,-y,1/2-z
-x,y,1/2-z
y,x,1/2-z
-y,-x,1/2-z
-x,-y,-z
y,-x,-z
x,y,-z
-y,x,-z
-x,y,1/2+z
x,-y,1/2+z
-y,-x,1/2+z
y,x,1/2+z
1/2+x,1/2+y,1/2+z
1/2-y,1/2+x,1/2+z
1/2-x,1/2-y,1/2+z
1/2+y,1/2-x,1/2+z
1/2+x,1/2-y,-z
1/2-x,1/2+y,-z
1/2+y,1/2+x,-z
1/2-y,1/2-x,-z
1/2-x,1/2-y,1/2-z
1/2+y,1/2-x,1/2-z
1/2+x,1/2+y,1/2-z
1/2-y,1/2+x,1/2-z
1/2-x,1/2+y,z
1/2+x,1/2-y,z
1/2-y,1/2-x,z
1/2+y,1/2+x,z
loop_
_atom_site_type_symbol
_atom_site_label
_atom_site_fract_x
_atom_site_fract_y
_atom_site_fract_z
Si Si1 0.255764 0.969595 0.393296
Si Si2 0.774132 0.368667 0.249906
Si Si3 0.945553 0.355904 0.608504
Si Si4 0.695729 0.399598 0.397635
Si Si5 0.930172 0.065731 0.860784
O O1 0.245891 0.954743 0.500000
O O2 0.247876 0.913895 0.326055
O O3 0.325953 0.989548 0.379656
O O4 0.216746 0.030734 0.374654
O O5 0.812443 0.312443 0.214908
O O6 0.818792 0.406178 0.318394
O O7 0.721921 0.355083 0.322391
O O8 0.932344 0.342782 0.500000
O O9 0.924915 0.424915 0.621359
O O10 0.717804 0.387240 0.500000
O O11 0.624447 0.396451 0.396256
O O12 0.930819 0.069182 0.750000
O O13 0.997030 0.081320 0.889805
#
# Coordination Sequence:
#
# PCOD9572091 Si02
#       5
#    32  32  32  32  32
#     4   9  18  30  47  74 106 144 195 246 294 350
#     4  10  19  30  50  76 107 148 193 247 296 338
#     4   8  13  23  41  67  99 135 178 230 288 349
#     4  10  20  34  57  87 118 156 199 241 284 340
#     4   9  20  36  58  90 125 161 186 217 271 341
#
# _framework density 22.14321
#
# number of rings (size 3 to 8) (size 9 to 14) (size 15 to 20)
#    0.000    2.800    0.000    4.800    5.600    2.400 
#    0.000    1.000    0.000    1.200    0.000    8.400 
#    0.000    0.000    0.000    2.000    0.000    0.000 
#
# Total GULP energy -445568.488404 kJ/mol
# GULP energy per Si atom -5569.606105 kJ/mol
# Density = 2.209281 g / cm^3
# Si number density = 22.143210 Si / 1000 Ang^3
#
#
#
# Elastic Constant Matrix: (Units=GPa)
#
#
# Indices 1 2 3 4 5 6 
#
# 1 34.0423 17.8401 20.1151 0.0000 0.0000 0.0000
# 2 17.8401 34.0420 20.1151 0.0000 0.0000 0.0000
# 3 20.1151 20.1151 81.6070 0.0000 0.0000 0.0000
# 4 0.0000 0.0000 0.0000 13.3629 0.0000 0.0000
# 5 0.0000 0.0000 0.0000 0.0000 13.3634 0.0000
# 6 0.0000 0.0000 0.0000 0.0000 0.0000 -4.4833
#
#
#
# Elastic Compliance Matrix: (Units=1/GPa)
#
#
# Indices 1 2 3 4 5 6 
#
# 1 0.042774 -0.018946 -0.005873 0.000000 0.000000 0.000000
# 2 -0.018946 0.042775 -0.005874 0.000000 0.000000 0.000000
# 3 -0.005873 -0.005874 0.015149 0.000000 0.000000 0.000000
# 4 0.000000 0.000000 0.000000 0.074834 0.000000 0.000000
# 5 0.000000 0.000000 0.000000 0.000000 0.074831 0.000000
# 6 0.000000 0.000000 0.000000 0.000000 0.000000 -0.223050
#
#
# Mechanical properties :
#
#
# Convention : Reuss Voigt Hill
#
# Bulk Modulus (GPa) = 25.43689 29.53687 27.48688
# Shear Modulus (GPa) = 49.11388 10.55667 29.83528
#
# Velocity S-wave (km/s) = 4.71469 2.18582 3.67465
# Velocity P-wave (km/s) = 6.41483 4.44279 5.51763
#
# Compressibility (1/GPa) = 0.03931298
#
# Stress axis : x y z
#
# Youngs Moduli (GPa) = 23.37843 23.37818 66.00943
#
# Poissons Ratio (x) = 0.44292 0.38770
# Poissons Ratio (y) = 0.44292 0.38771
# Poissons Ratio (z) = 0.13731 0.13731
#
# Static dielectric constant tensor:
#      x y z
#    x 1.856260 0.000000 0.000000 
#    y 0.000000 1.856260 0.000000 
#    z 0.000000 0.000000 1.828430 
# 
# From -- ./inp_files/4714.got.cif
#   From: 2010.05.17/outbox.cif.g08.bks.cpg/sg140_3_cif.got.tgz:4714.got - 2010.06.21 00:45:31.
