data_PCOD9572208
_publ_section_title
;
Structure prediction by ZEFSAII (Michael W. Deem and Ramdas Pophale) SiO2 
 PCOD9572208
Probable space group: I 4/M C M
;
_chemical_formula_sum "Si O2"
_cell_formula_units_Z 112
_cell_length_a 18.269878
_cell_length_b 18.269878
_cell_length_c 16.638157
_cell_angle_alpha 90.000000
_cell_angle_beta 90.000000
_cell_angle_gamma 90.000000
_cell_volume 5553.624505
_symmetry_space_group_name_H-M "I 4/M C M"
_symmetry_group_IT_number 140
_symmetry_cell_setting 'tetragonal'
loop_
_space_group_symop_operation_xyz
x,y,z
-y,x,z
-x,-y,z
y,-x,z
x,-y,1/2-z
-x,y,1/2-z
y,x,1/2-z
-y,-x,1/2-z
-x,-y,-z
y,-x,-z
x,y,-z
-y,x,-z
-x,y,1/2+z
x,-y,1/2+z
-y,-x,1/2+z
y,x,1/2+z
1/2+x,1/2+y,1/2+z
1/2-y,1/2+x,1/2+z
1/2-x,1/2-y,1/2+z
1/2+y,1/2-x,1/2+z
1/2+x,1/2-y,-z
1/2-x,1/2+y,-z
1/2+y,1/2+x,-z
1/2-y,1/2-x,-z
1/2-x,1/2-y,1/2-z
1/2+y,1/2-x,1/2-z
1/2+x,1/2+y,1/2-z
1/2-y,1/2+x,1/2-z
1/2-x,1/2+y,z
1/2+x,1/2-y,z
1/2-y,1/2-x,z
1/2+y,1/2+x,z
loop_
_atom_site_type_symbol
_atom_site_label
_atom_site_fract_x
_atom_site_fract_y
_atom_site_fract_z
Si Si1 0.583293 0.916708 0.774177
Si Si2 0.425980 0.301267 0.902951
Si Si3 0.847698 0.652303 0.595794
Si Si4 0.092188 0.804379 0.402478
Si Si5 0.802395 0.302395 0.304774
O O1 0.500000 0.900291 0.750000
O O2 0.594606 0.905395 0.869115
O O3 0.641315 0.858686 0.738694
O O4 0.375504 0.232614 0.878733
O O5 0.508927 0.294802 0.874159
O O6 0.384315 0.375619 0.881625
O O7 0.429938 0.299567 0.000000
O O8 0.847319 0.652682 0.500000
O O9 0.095411 0.796051 0.500000
O O10 0.146416 0.747995 0.360372
O O11 0.750000 0.250000 0.250000
#
# Coordination Sequence:
#
# PCOD9572208 Si02
#       5
#    16  32  16  32  16
#     4  11  24  41  58  83 118 150 182 232 290 338
#     4   9  18  32  56  83 111 145 186 233 280 330
#     4  10  19  37  60  81 109 151 192 230 278 340
#     4  10  20  36  56  83 113 147 188 234 284 345
#     4  12  24  36  58  85 110 147 190 236 288 339
#
# _framework density 20.167009
#
# number of rings (size 3 to 8) (size 9 to 14) (size 15 to 20)
#    0.000    1.857    0.000    4.714    0.000    2.857 
#    0.000    5.714    0.000    0.000    0.000    6.000 
#    0.000    0.000    0.000    0.000    0.000    0.000 
#
# Total GULP energy -312498.947368 kJ/mol
# GULP energy per Si atom -5580.338346 kJ/mol
# Density = 2.012111 g / cm^3
# Si number density = 20.167009 Si / 1000 Ang^3
#
#
#
# Elastic Constant Matrix: (Units=GPa)
#
#
# Indices 1 2 3 4 5 6 
#
# 1 158.7028 101.6898 38.7296 0.0000 0.0000 0.0000
# 2 101.6898 158.7030 38.7293 0.0000 0.0000 0.0000
# 3 38.7296 38.7293 31.6312 0.0000 0.0000 0.0000
# 4 0.0000 0.0000 0.0000 21.9998 0.0000 0.0000
# 5 0.0000 0.0000 0.0000 0.0000 21.9999 0.0000
# 6 0.0000 0.0000 0.0000 0.0000 0.0000 33.1566
#
#
#
# Elastic Compliance Matrix: (Units=1/GPa)
#
#
# Indices 1 2 3 4 5 6 
#
# 1 0.011790 -0.005750 -0.007396 0.000000 0.000000 0.000000
# 2 -0.005750 0.011790 -0.007396 0.000000 0.000000 0.000000
# 3 -0.007396 -0.007396 0.049725 0.000000 0.000000 0.000000
# 4 0.000000 0.000000 0.000000 0.045455 0.000000 0.000000
# 5 0.000000 0.000000 0.000000 0.000000 0.045455 0.000000
# 6 0.000000 0.000000 0.000000 0.000000 0.000000 0.030160
#
#
# Mechanical properties :
#
#
# Convention : Reuss Voigt Hill
#
# Bulk Modulus (GPa) = 31.03404 78.59271 54.81337
# Shear Modulus (GPa) = 20.30875 26.75714 23.53294
#
# Velocity S-wave (km/s) = 3.17681 3.64645 3.41970
# Velocity P-wave (km/s) = 5.37384 7.53554 6.54456
#
# Compressibility (1/GPa) = 0.03222268
#
# Stress axis : x y z
#
# Youngs Moduli (GPa) = 84.81647 84.81723 20.11041
#
# Poissons Ratio (x) = 0.48767 0.14874
# Poissons Ratio (y) = 0.48767 0.14873
# Poissons Ratio (z) = 0.62731 0.62729
#
# Static dielectric constant tensor:
#      x y z
#    x 1.704150 0.000000 0.000000 
#    y 0.000000 1.704150 0.000000 
#    z 0.000000 0.000000 1.782710 
# 
# From -- ./inp_files/6150.got.cif
#   From: 2010.05.17/outbox.cif.g08.bks.cpg/sg140_4_cif.got.tgz:6150.got - 2010.06.21 00:45:31.
