data_PCOD9572693
_publ_section_title
;
Structure prediction by ZEFSAII (Michael W. Deem and Ramdas Pophale) SiO2 
 PCOD9572693
Probable space group: I 4/M C M
;
_chemical_formula_sum "Si O2"
_cell_formula_units_Z 160
_cell_length_a 22.389192
_cell_length_b 22.389192
_cell_length_c 18.480087
_cell_angle_alpha 90.000000
_cell_angle_beta 90.000000
_cell_angle_gamma 90.000000
_cell_volume 9263.622583
_symmetry_space_group_name_H-M "I 4/M C M"
_symmetry_group_IT_number 140
_symmetry_cell_setting 'tetragonal'
loop_
_space_group_symop_operation_xyz
x,y,z
-y,x,z
-x,-y,z
y,-x,z
x,-y,1/2-z
-x,y,1/2-z
y,x,1/2-z
-y,-x,1/2-z
-x,-y,-z
y,-x,-z
x,y,-z
-y,x,-z
-x,y,1/2+z
x,-y,1/2+z
-y,-x,1/2+z
y,x,1/2+z
1/2+x,1/2+y,1/2+z
1/2-y,1/2+x,1/2+z
1/2-x,1/2-y,1/2+z
1/2+y,1/2-x,1/2+z
1/2+x,1/2-y,-z
1/2-x,1/2+y,-z
1/2+y,1/2+x,-z
1/2-y,1/2-x,-z
1/2-x,1/2-y,1/2-z
1/2+y,1/2-x,1/2-z
1/2+x,1/2+y,1/2-z
1/2-y,1/2+x,1/2-z
1/2-x,1/2+y,z
1/2+x,1/2-y,z
1/2-y,1/2-x,z
1/2+y,1/2+x,z
loop_
_atom_site_type_symbol
_atom_site_label
_atom_site_fract_x
_atom_site_fract_y
_atom_site_fract_z
Si Si1 0.834064 0.432606 0.084046
Si Si2 0.066547 0.156385 0.720014
Si Si3 0.459406 0.864450 0.182268
Si Si4 0.779172 0.625711 0.724084
Si Si5 0.592126 0.461909 0.083902
O O1 0.897633 0.397633 0.086509
O O2 0.840766 0.497930 0.119186
O O3 0.794007 0.396842 0.142409
O O4 0.814554 0.432838 0.000000
O O5 0.095453 0.095453 0.750000
O O6 0.111228 0.210329 0.736900
O O7 0.059046 0.144681 0.635057
O O8 0.000000 0.167872 0.750000
O O9 0.500000 0.885343 0.250000
O O10 0.417894 0.917894 0.156140
O O11 0.416921 0.815066 0.219820
O O12 0.808749 0.691252 0.731790
O O13 0.574918 0.531068 0.097620
O O14 0.606780 0.455698 0.000000
#
# Coordination Sequence:
#
# PCOD9572693 Si02
#       5
#    32  32  32  32  32
#     4   9  17  29  46  70  99 129 169 224 277 322
#     4  12  22  33  56  86 113 137 175 229 273 320
#     4   9  16  28  45  64  94 133 172 215 267 325
#     4   9  20  37  52  69 100 145 188 219 257 308
#     4   9  18  34  53  77 115 150 168 198 264 341
#
# _framework density 17.271861000000001
#
# number of rings (size 3 to 8) (size 9 to 14) (size 15 to 20)
#    0.000    2.400    2.000    4.200    0.000    3.200 
#    0.000    1.000    0.000    0.000    0.000    0.000 
#    0.000    0.000    0.000    0.000    0.000    0.000 
#
# Total GULP energy -445537.349980 kJ/mol
# GULP energy per Si atom -5569.216875 kJ/mol
# Density = 1.723255 g / cm^3
# Si number density = 17.271861 Si / 1000 Ang^3
#
#
#
# Elastic Constant Matrix: (Units=GPa)
#
#
# Indices 1 2 3 4 5 6 
#
# 1 57.3084 28.2164 10.8958 0.0000 0.0000 0.0000
# 2 28.2164 57.3084 10.8958 0.0000 0.0000 0.0000
# 3 10.8958 10.8958 60.8242 0.0000 0.0000 0.0000
# 4 0.0000 0.0000 0.0000 15.1951 0.0000 0.0000
# 5 0.0000 0.0000 0.0000 0.0000 15.1951 0.0000
# 6 0.0000 0.0000 0.0000 0.0000 0.0000 19.0457
#
#
#
# Elastic Compliance Matrix: (Units=1/GPa)
#
#
# Indices 1 2 3 4 5 6 
#
# 1 0.023313 -0.011061 -0.002195 0.000000 0.000000 0.000000
# 2 -0.011061 0.023313 -0.002195 0.000000 0.000000 0.000000
# 3 -0.002195 -0.002195 0.017227 0.000000 0.000000 0.000000
# 4 0.000000 0.000000 0.000000 0.065811 0.000000 0.000000
# 5 0.000000 0.000000 0.000000 0.000000 0.065811 0.000000
# 6 0.000000 0.000000 0.000000 0.000000 0.000000 0.052505
#
#
# Mechanical properties :
#
#
# Convention : Reuss Voigt Hill
#
# Bulk Modulus (GPa) = 30.34747 30.60635 30.47691
# Shear Modulus (GPa) = 17.24946 18.24938 17.74942
#
# Velocity S-wave (km/s) = 3.16365 3.25406 3.20918
# Velocity P-wave (km/s) = 5.56359 5.64600 5.60495
#
# Compressibility (1/GPa) = 0.03295167
#
# Stress axis : x y z
#
# Youngs Moduli (GPa) = 42.89508 42.89508 58.04799
#
# Poissons Ratio (x) = 0.47446 0.12740
# Poissons Ratio (y) = 0.47446 0.12740
# Poissons Ratio (z) = 0.09414 0.09414
#
# Static dielectric constant tensor:
#      x y z
#    x 1.599410 0.000000 0.000000 
#    y 0.000000 1.599410 0.000000 
#    z 0.000000 0.000000 1.576920 
# 
# From -- ./inp_files/6873.got.cif
#   From: 2010.05.17/outbox.cif.g08.bks.cpg/sg140_4_cif.got.tgz:6873.got - 2010.06.21 00:45:31.
