data_PCOD9572536
_publ_section_title
;
Structure prediction by ZEFSAII (Michael W. Deem and Ramdas Pophale) SiO2 
 PCOD9572536
Probable space group: I 4/M C M
;
_chemical_formula_sum "Si O2"
_cell_formula_units_Z 176
_cell_length_a 19.030271
_cell_length_b 19.030271
_cell_length_c 23.761603
_cell_angle_alpha 90.000000
_cell_angle_beta 90.000000
_cell_angle_gamma 90.000000
_cell_volume 8605.293381
_symmetry_space_group_name_H-M "I 4/M C M"
_symmetry_group_IT_number 140
_symmetry_cell_setting 'tetragonal'
loop_
_space_group_symop_operation_xyz
x,y,z
-y,x,z
-x,-y,z
y,-x,z
x,-y,1/2-z
-x,y,1/2-z
y,x,1/2-z
-y,-x,1/2-z
-x,-y,-z
y,-x,-z
x,y,-z
-y,x,-z
-x,y,1/2+z
x,-y,1/2+z
-y,-x,1/2+z
y,x,1/2+z
1/2+x,1/2+y,1/2+z
1/2-y,1/2+x,1/2+z
1/2-x,1/2-y,1/2+z
1/2+y,1/2-x,1/2+z
1/2+x,1/2-y,-z
1/2-x,1/2+y,-z
1/2+y,1/2+x,-z
1/2-y,1/2-x,-z
1/2-x,1/2-y,1/2-z
1/2+y,1/2-x,1/2-z
1/2+x,1/2+y,1/2-z
1/2-y,1/2+x,1/2-z
1/2-x,1/2+y,z
1/2+x,1/2-y,z
1/2-y,1/2-x,z
1/2+y,1/2+x,z
loop_
_atom_site_type_symbol
_atom_site_label
_atom_site_fract_x
_atom_site_fract_y
_atom_site_fract_z
Si Si1 0.976743 0.679858 0.433456
Si Si2 0.201812 0.500000 0.750000
Si Si3 0.349756 0.376112 0.313629
Si Si4 0.523638 0.294884 0.855645
Si Si5 0.135157 0.364844 0.231333
Si Si6 0.754281 0.745720 0.827959
Si Si7 0.054812 0.445189 0.131924
Si Si8 0.311564 0.188437 0.067074
O O1 0.981652 0.670327 0.500000
O O2 0.018324 0.747086 0.410282
O O3 0.894939 0.696836 0.420322
O O4 0.010081 0.611234 0.404155
O O5 0.244529 0.469249 0.801749
O O6 0.164142 0.429158 0.731073
O O7 0.380005 0.380005 0.250000
O O8 0.408330 0.342481 0.353581
O O9 0.332398 0.451017 0.339841
O O10 0.283921 0.322137 0.309968
O O11 0.189943 0.310058 0.200689
O O12 0.096572 0.403429 0.179373
O O13 0.738107 0.761894 0.894476
O O14 0.000000 0.500000 0.157830
O O15 0.300439 0.199562 0.000000
#
# Coordination Sequence:
#
# PCOD9572536 Si02
#       8
#    32  16  32  32  16  16  16  16
#     4  11  23  42  64  94 132 173 223 278 329 402
#     4  12  24  41  62  91 138 168 214 270 332 400
#     4  12  23  40  66  96 132 171 218 272 334 401
#     4  12  24  43  64  96 129 173 221 276 337 392
#     4  12  26  39  62  97 138 173 219 266 330 408
#     4  12  21  42  67  95 128 175 224 269 332 398
#     4  12  23  38  63  94 130 178 219 261 337 413
#     4  10  22  39  67  98 125 168 226 276 329 387
#
# _framework density 20.452527
#
# number of rings (size 3 to 8) (size 9 to 14) (size 15 to 20)
#    0.000    0.364    8.182    0.545    1.273    2.182 
#    0.000    5.455    0.000    0.000    0.000    1.273 
#    0.000    0.000    0.000    0.000    0.000    0.000 
#
# Total GULP energy -491103.079986 kJ/mol
# GULP energy per Si atom -5580.716818 kJ/mol
# Density = 2.040598 g / cm^3
# Si number density = 20.452527 Si / 1000 Ang^3
#
#
#
# Elastic Constant Matrix: (Units=GPa)
#
#
# Indices 1 2 3 4 5 6 
#
# 1 72.5377 50.2372 -0.3130 0.0000 0.0000 0.0000
# 2 50.2372 72.5376 -0.3130 0.0000 0.0000 0.0000
# 3 -0.3130 -0.3130 50.5297 0.0000 0.0000 0.0000
# 4 0.0000 0.0000 0.0000 25.1193 0.0000 0.0000
# 5 0.0000 0.0000 0.0000 0.0000 25.1194 0.0000
# 6 0.0000 0.0000 0.0000 0.0000 0.0000 34.2926
#
#
#
# Elastic Compliance Matrix: (Units=1/GPa)
#
#
# Indices 1 2 3 4 5 6 
#
# 1 0.026494 -0.018349 0.000050 0.000000 0.000000 0.000000
# 2 -0.018349 0.026494 0.000050 0.000000 0.000000 0.000000
# 3 0.000050 0.000050 0.019791 0.000000 0.000000 0.000000
# 4 0.000000 0.000000 0.000000 0.039810 0.000000 0.000000
# 5 0.000000 0.000000 0.000000 0.000000 0.039810 0.000000
# 6 0.000000 0.000000 0.000000 0.000000 0.000000 0.029161
#
#
# Mechanical properties :
#
#
# Convention : Reuss Voigt Hill
#
# Bulk Modulus (GPa) = 27.56089 32.75860 30.15974
# Shear Modulus (GPa) = 21.72506 26.63915 24.18211
#
# Velocity S-wave (km/s) = 3.26271 3.61291 3.44227
# Velocity P-wave (km/s) = 5.26293 5.78410 5.52966
#
# Compressibility (1/GPa) = 0.03628330
#
# Stress axis : x y z
#
# Youngs Moduli (GPa) = 37.74477 37.74474 50.52807
#
# Poissons Ratio (x) = 0.69256 -0.00255
# Poissons Ratio (y) = 0.69256 -0.00255
# Poissons Ratio (z) = -0.00191 -0.00190
#
# Static dielectric constant tensor:
#      x y z
#    x 1.822750 0.000000 0.000000 
#    y 0.000000 1.822750 0.000000 
#    z 0.000000 0.000000 1.720530 
# 
# From -- ./inp_files/10799.got.cif
#   From: 2010.05.17/outbox.cif.g08.bks.cpg/sg140_6_cif.got.tgz:10799.got - 2010.06.21 00:45:31.
