data_PCOD9572007
_publ_section_title
;
Structure prediction by ZEFSAII (Michael W. Deem and Ramdas Pophale) SiO2 
 PCOD9572007
Probable space group: I 4/M C M
;
_chemical_formula_sum "Si O2"
_cell_formula_units_Z 160
_cell_length_a 19.618139
_cell_length_b 19.618139
_cell_length_c 18.602720
_cell_angle_alpha 90.000000
_cell_angle_beta 90.000000
_cell_angle_gamma 90.000000
_cell_volume 7159.654478
_symmetry_space_group_name_H-M "I 4/M C M"
_symmetry_group_IT_number 140
_symmetry_cell_setting 'tetragonal'
loop_
_space_group_symop_operation_xyz
x,y,z
-y,x,z
-x,-y,z
y,-x,z
x,-y,1/2-z
-x,y,1/2-z
y,x,1/2-z
-y,-x,1/2-z
-x,-y,-z
y,-x,-z
x,y,-z
-y,x,-z
-x,y,1/2+z
x,-y,1/2+z
-y,-x,1/2+z
y,x,1/2+z
1/2+x,1/2+y,1/2+z
1/2-y,1/2+x,1/2+z
1/2-x,1/2-y,1/2+z
1/2+y,1/2-x,1/2+z
1/2+x,1/2-y,-z
1/2-x,1/2+y,-z
1/2+y,1/2+x,-z
1/2-y,1/2-x,-z
1/2-x,1/2-y,1/2-z
1/2+y,1/2-x,1/2-z
1/2+x,1/2+y,1/2-z
1/2-y,1/2+x,1/2-z
1/2-x,1/2+y,z
1/2+x,1/2-y,z
1/2-y,1/2-x,z
1/2+y,1/2+x,z
loop_
_atom_site_type_symbol
_atom_site_label
_atom_site_fract_x
_atom_site_fract_y
_atom_site_fract_z
Si Si1 0.424711 0.585497 0.421279
Si Si2 0.602397 0.897604 0.914662
Si Si3 0.578208 0.806594 0.279087
Si Si4 0.717058 0.217058 0.585124
Si Si5 0.113410 0.796789 0.841280
Si Si6 0.292297 0.004535 0.585269
O O1 0.408110 0.506174 0.420348
O O2 0.400398 0.612601 0.500000
O O3 0.397906 0.623869 0.351534
O O4 0.659218 0.840783 0.896832
O O5 0.530126 0.866000 0.895161
O O6 0.600982 0.899019 0.000000
O O7 0.500000 0.817664 0.250000
O O8 0.628439 0.871562 0.269386
O O9 0.606511 0.742845 0.233201
O O10 0.568508 0.787287 0.362493
O O11 0.722873 0.222873 0.500000
O O12 0.781800 0.185963 0.623014
O O13 0.053303 0.762426 0.891282
O O14 0.287966 0.016630 0.500000
#
# Coordination Sequence:
#
# PCOD9572007 Si02
#       6
#    32  16  32  16  32  32
#     4   9  18  33  57  94 133 162 199 256 316 374
#     4   7  12  24  41  68 102 133 176 244 306 348
#     4  10  21  33  48  76 115 156 202 259 315 365
#     4   9  14  22  46  77 110 148 192 241 278 346
#     4  10  17  31  52  83 120 156 196 245 305 368
#     4   9  17  29  50  75 104 147 201 255 310 369
#
# _framework density 22.347448
#
# number of rings (size 3 to 8) (size 9 to 14) (size 15 to 20)
#    0.000    2.800    1.000    3.600    4.200    0.600 
#    0.000    0.000    0.000   12.600   10.400   18.200 
#    0.000    0.000    0.000    0.000    0.000    0.000 
#
# Total GULP energy -446079.741322 kJ/mol
# GULP energy per Si atom -5575.996767 kJ/mol
# Density = 2.229658 g / cm^3
# Si number density = 22.347448 Si / 1000 Ang^3
#
#
#
# Elastic Constant Matrix: (Units=GPa)
#
#
# Indices 1 2 3 4 5 6 
#
# 1 28.7264 21.4517 11.7368 0.0000 0.0000 0.0000
# 2 21.4517 28.7265 11.7367 0.0000 0.0000 0.0000
# 3 11.7368 11.7367 119.7157 0.0000 0.0000 0.0000
# 4 0.0000 0.0000 0.0000 19.4134 0.0000 0.0000
# 5 0.0000 0.0000 0.0000 0.0000 19.4133 0.0000
# 6 0.0000 0.0000 0.0000 0.0000 0.0000 -6.6198
#
#
#
# Elastic Compliance Matrix: (Units=1/GPa)
#
#
# Indices 1 2 3 4 5 6 
#
# 1 0.079175 -0.058288 -0.002048 0.000000 0.000000 0.000000
# 2 -0.058288 0.079175 -0.002048 0.000000 0.000000 0.000000
# 3 -0.002048 -0.002048 0.008755 0.000000 0.000000 0.000000
# 4 0.000000 0.000000 0.000000 0.051511 0.000000 0.000000
# 5 0.000000 0.000000 0.000000 0.000000 0.051511 0.000000
# 6 0.000000 0.000000 0.000000 0.000000 0.000000 -0.151062
#
#
# Mechanical properties :
#
#
# Convention : Reuss Voigt Hill
#
# Bulk Modulus (GPa) = 23.61966 29.66876 26.64421
# Shear Modulus (GPa) = 19.38404 15.25760 17.32082
#
# Velocity S-wave (km/s) = 2.94835 2.61577 2.78703
# Velocity P-wave (km/s) = 4.70984 4.73582 4.72285
#
# Compressibility (1/GPa) = 0.04233762
#
# Stress axis : x y z
#
# Youngs Moduli (GPa) = 12.63024 12.63029 114.22528
#
# Poissons Ratio (x) = 0.73619 0.23391
# Poissons Ratio (y) = 0.73619 0.23389
# Poissons Ratio (z) = 0.02586 0.02586
#
# Static dielectric constant tensor:
#      x y z
#    x 1.876900 0.000000 0.000000 
#    y 0.000000 1.876900 0.000000 
#    z 0.000000 0.000000 1.884160 
# 
# From -- ./inp_files/6908.got.cif
#   From: 2010.05.17/outbox.cif.g08.bks.cpg/sg140_4_cif.got.tgz:6908.got - 2010.06.21 00:45:31.
