data_PCOD9572711
_publ_section_title
;
Structure prediction by ZEFSAII (Michael W. Deem and Ramdas Pophale) SiO2 
 PCOD9572711
Probable space group: I 4/M C M
;
_chemical_formula_sum "Si O2"
_cell_formula_units_Z 80
_cell_length_a 21.000000
_cell_length_b 21.000000
_cell_length_c 18.000000
_cell_angle_alpha 90.000000
_cell_angle_beta 90.000000
_cell_angle_gamma 90.000000
_cell_volume 7938.000000
_symmetry_space_group_name_H-M "I 4/M C M"
_symmetry_group_IT_number 140
_symmetry_cell_setting 'tetragonal'
loop_
_space_group_symop_operation_xyz
x,y,z
-y,x,z
-x,-y,z
y,-x,z
x,-y,1/2-z
-x,y,1/2-z
y,x,1/2-z
-y,-x,1/2-z
-x,-y,-z
y,-x,-z
x,y,-z
-y,x,-z
-x,y,1/2+z
x,-y,1/2+z
-y,-x,1/2+z
y,x,1/2+z
1/2+x,1/2+y,1/2+z
1/2-y,1/2+x,1/2+z
1/2-x,1/2-y,1/2+z
1/2+y,1/2-x,1/2+z
1/2+x,1/2-y,-z
1/2-x,1/2+y,-z
1/2+y,1/2+x,-z
1/2-y,1/2-x,-z
1/2-x,1/2-y,1/2-z
1/2+y,1/2-x,1/2-z
1/2+x,1/2+y,1/2-z
1/2-y,1/2+x,1/2-z
1/2-x,1/2+y,z
1/2+x,1/2-y,z
1/2-y,1/2-x,z
1/2+y,1/2+x,z
loop_
_atom_site_type_symbol
_atom_site_label
_atom_site_fract_x
_atom_site_fract_y
_atom_site_fract_z
Si Si1 0.918858 0.937950 0.338599
Si Si2 0.934101 0.565900 0.086448
Si Si3 0.687855 0.645275 0.911068
Si Si4 0.672778 0.827223 0.587799
Si Si5 0.116235 0.724220 0.082147
Si Si6 0.961655 0.358861 0.822101
O O1 0.926215 0.926215 0.250000
O O2 0.858329 0.902580 0.370085
O O3 0.988522 0.914233 0.363278
O O4 0.880264 0.619737 0.092868
O O5 0.904207 0.504642 0.126053
O O6 0.946633 0.553368 0.000000
O O7 0.760025 0.648190 0.882102
O O8 0.657292 0.714682 0.898916
O O9 0.687790 0.632521 0.000000
O O10 0.685550 0.814451 0.500000
O O11 0.164617 0.664617 0.079788
O O12 0.060805 0.703966 0.136394
O O13 0.089215 0.733584 0.000000
O O14 0.900615 0.400615 0.799341
O O15 0.000000 0.342204 0.750000
#
# Coordination Sequence:
#
# PCOD9572711 Si02
#       6
#    32  16  32  16  32  32
#     4   9  20  40  59  81 118 157 191 234 289 350
#     4  11  23  38  58  84 115 155 191 240 302 350
#     4  10  19  37  64  88 114 150 190 239 290 345
#     4   9  20  39  60  84 116 147 182 232 295 353
#     4   9  18  35  59  84 112 152 198 237 283 347
#     4  11  22  38  57  81 119 156 199 244 287 333
#
# _framework density 10.078105000000001
#
# number of rings (size 3 to 8) (size 9 to 14) (size 15 to 20)
#    0.000    2.200    2.000    1.500    0.000    4.000 
#    7.200    5.500    0.000    0.000    0.000    0.000 
#    0.000    0.000    0.000    0.000    0.000    0.000 
#
# Total GULP energy -446117.763478 kJ/mol
# GULP energy per Si atom -5576.472043 kJ/mol
# Density = 1.005517 g / cm^3
# Si number density = 10.078105 Si / 1000 Ang^3
#
#
#
# Elastic Constant Matrix: (Units=GPa)
#
#
# Indices 1 2 3 4 5 6 
#
# 1 54.5747 56.4944 36.4789 0.0000 0.0000 0.0000
# 2 56.4944 54.5743 36.4785 0.0000 0.0000 0.0000
# 3 36.4789 36.4785 14.8340 0.0000 0.0000 0.0000
# 4 0.0000 0.0000 0.0000 41.5034 0.0000 0.0000
# 5 0.0000 0.0000 0.0000 0.0000 41.5029 0.0000
# 6 0.0000 0.0000 0.0000 0.0000 0.0000 14.4125
#
#
#
# Elastic Compliance Matrix: (Units=1/GPa)
#
#
# Indices 1 2 3 4 5 6 
#
# 1 -0.267745 0.253118 0.035976 0.000000 0.000000 0.000000
# 2 0.253118 -0.267756 0.035989 0.000000 0.000000 0.000000
# 3 0.035976 0.035989 -0.109557 0.000000 0.000000 0.000000
# 4 0.000000 0.000000 0.000000 0.024094 0.000000 0.000000
# 5 0.000000 0.000000 0.000000 0.000000 0.024095 0.000000
# 6 0.000000 0.000000 0.000000 0.000000 0.000000 0.069384
#
#
# Mechanical properties :
#
#
# Convention : Reuss Voigt Hill
#
# Bulk Modulus (GPa) = 195.79200 42.54297 119.16748
# Shear Modulus (GPa) = -4.25189 19.11917 7.43364
#
# Velocity S-wave (km/s) = -1.45398 3.08320 1.92250
# Velocity P-wave (km/s) = 9.72263 5.81612 8.01114
#
# Compressibility (1/GPa) = 0.00510746
#
# Stress axis : x y z
#
# Youngs Moduli (GPa) = -3.73490 -3.73475 -9.12763
#
# Poissons Ratio (x) = 0.94533 0.32837
# Poissons Ratio (y) = 0.94537 0.32849
# Poissons Ratio (z) = 0.13437 0.13441
#
# Static dielectric constant tensor:
#      x y z
#    x 1.677330 0.000000 0.000000 
#    y 0.000000 1.677330 0.000000 
#    z 0.000000 0.000000 1.724260 
# 
# From -- ./inp_files/6910.got.cif
#   From: 2010.05.17/outbox.ucp.g08.bks.cvg/sg140_4_cif.got.tgz:6910.got - 2010.06.11 11:42:50.
