data_PCOD9572121
_publ_section_title
;
Structure prediction by ZEFSAII (Michael W. Deem and Ramdas Pophale) SiO2 
 PCOD9572121
Probable space group: I 4/M C M
;
_chemical_formula_sum "Si O2"
_cell_formula_units_Z 192
_cell_length_a 22.887701
_cell_length_b 22.887701
_cell_length_c 24.644762
_cell_angle_alpha 90.000000
_cell_angle_beta 90.000000
_cell_angle_gamma 90.000000
_cell_volume 12910.081117
_symmetry_space_group_name_H-M "I 4/M C M"
_symmetry_group_IT_number 140
_symmetry_cell_setting 'tetragonal'
loop_
_space_group_symop_operation_xyz
x,y,z
-y,x,z
-x,-y,z
y,-x,z
x,-y,1/2-z
-x,y,1/2-z
y,x,1/2-z
-y,-x,1/2-z
-x,-y,-z
y,-x,-z
x,y,-z
-y,x,-z
-x,y,1/2+z
x,-y,1/2+z
-y,-x,1/2+z
y,x,1/2+z
1/2+x,1/2+y,1/2+z
1/2-y,1/2+x,1/2+z
1/2-x,1/2-y,1/2+z
1/2+y,1/2-x,1/2+z
1/2+x,1/2-y,-z
1/2-x,1/2+y,-z
1/2+y,1/2+x,-z
1/2-y,1/2-x,-z
1/2-x,1/2-y,1/2-z
1/2+y,1/2-x,1/2-z
1/2+x,1/2+y,1/2-z
1/2-y,1/2+x,1/2-z
1/2-x,1/2+y,z
1/2+x,1/2-y,z
1/2-y,1/2-x,z
1/2+y,1/2+x,z
loop_
_atom_site_type_symbol
_atom_site_label
_atom_site_fract_x
_atom_site_fract_y
_atom_site_fract_z
Si Si1 0.770761 0.629134 0.616408
Si Si2 0.744214 0.143938 0.000000
Si Si3 0.111155 0.711384 0.618406
Si Si4 0.016071 0.659462 0.860470
Si Si5 0.791356 0.808859 0.311435
Si Si6 0.500000 0.905691 0.750000
Si Si7 0.549810 0.049810 0.435381
Si Si8 0.338916 0.738767 0.500000
O O1 0.825870 0.674131 0.619234
O O2 0.792674 0.566566 0.634934
O O3 0.719801 0.658447 0.651706
O O4 0.749579 0.626204 0.554606
O O5 0.735016 0.110840 0.056558
O O6 0.694703 0.194703 0.000000
O O7 0.805910 0.177134 0.000000
O O8 0.158374 0.658374 0.620553
O O9 0.135705 0.761248 0.659251
O O10 0.047949 0.686594 0.632767
O O11 0.028574 0.608732 0.905086
O O12 0.020112 0.630970 0.801214
O O13 0.814407 0.814407 0.250000
O O14 0.739501 0.760500 0.309947
O O15 0.447588 0.947588 0.768800
O O16 0.559245 0.059245 0.500000
O O17 0.500000 0.000000 0.429133
O O18 0.287178 0.787178 0.500000
#
# Coordination Sequence:
#
# PCOD9572121 Si02
#       8
#    32  16  32  32  32  16  16  16
#     4  10  19  32  50  73  96 127 165 211 258 302
#     4   9  16  31  50  71  92 125 166 203 255 312
#     4  10  20  33  50  72  97 131 169 208 253 303
#     4  12  24  35  51  75 101 135 180 216 258 295
#     4   9  18  32  50  69  95 124 161 206 260 309
#     4  11  22  38  52  62  96 146 192 219 238 286
#     4  11  24  40  50  66 101 144 184 220 251 283
#     4   9  16  29  52  70  93 122 163 211 255 314
#
# _framework density 14.872097999999999
#
# number of rings (size 3 to 8) (size 9 to 14) (size 15 to 20)
#    0.000    1.833    3.333    1.500    4.667    0.000 
#    0.000    0.000    0.000    0.000    0.000    0.000 
#    0.000    0.667    0.000    3.000    0.000    0.000 
#
# Total GULP energy -535365.783237 kJ/mol
# GULP energy per Si atom -5576.726909 kJ/mol
# Density = 1.483825 g / cm^3
# Si number density = 14.872098 Si / 1000 Ang^3
#
#
#
# Elastic Constant Matrix: (Units=GPa)
#
#
# Indices 1 2 3 4 5 6 
#
# 1 62.5135 43.0156 32.5735 0.0000 0.0000 0.0000
# 2 43.0156 62.5135 32.5735 0.0000 0.0000 0.0000
# 3 32.5735 32.5735 106.5792 0.0000 0.0000 0.0000
# 4 0.0000 0.0000 0.0000 16.4039 0.0000 0.0000
# 5 0.0000 0.0000 0.0000 0.0000 16.4039 0.0000
# 6 0.0000 0.0000 0.0000 0.0000 0.0000 26.5639
#
#
#
# Elastic Compliance Matrix: (Units=1/GPa)
#
#
# Indices 1 2 3 4 5 6 
#
# 1 0.031484 -0.019804 -0.003570 0.000000 0.000000 0.000000
# 2 -0.019804 0.031484 -0.003570 0.000000 0.000000 0.000000
# 3 -0.003570 -0.003570 0.011565 0.000000 0.000000 0.000000
# 4 0.000000 0.000000 0.000000 0.060961 0.000000 0.000000
# 5 0.000000 0.000000 0.000000 0.000000 0.060961 0.000000
# 6 0.000000 0.000000 0.000000 0.000000 0.000000 0.037645
#
#
# Mechanical properties :
#
#
# Convention : Reuss Voigt Hill
#
# Bulk Modulus (GPa) = 48.43660 49.77015 49.10338
# Shear Modulus (GPa) = 16.95679 20.10393 18.53036
#
# Velocity S-wave (km/s) = 3.38031 3.68066 3.53368
# Velocity P-wave (km/s) = 6.91916 7.18339 7.05251
#
# Compressibility (1/GPa) = 0.02064554
#
# Stress axis : x y z
#
# Youngs Moduli (GPa) = 31.76260 31.76259 86.47045
#
# Poissons Ratio (x) = 0.62902 0.30867
# Poissons Ratio (y) = 0.62902 0.30867
# Poissons Ratio (z) = 0.11338 0.11338
#
# Static dielectric constant tensor:
#      x y z
#    x 1.487040 0.000000 0.000000 
#    y 0.000000 1.487040 0.000000 
#    z 0.000000 0.000000 1.516180 
# 
# From -- ./inp_files/9879.got.cif
#   From: 2010.05.17/outbox.cif.g08.bks.cpg/sg140_5_cif.got.tgz:9879.got - 2010.06.21 00:45:31.
