data_PCOD9572745
_publ_section_title
;
Structure prediction by ZEFSAII (Michael W. Deem and Ramdas Pophale) SiO2 
 PCOD9572745
Probable space group: I 41/A M D
;
_chemical_formula_sum "Si O2"
_cell_formula_units_Z 160
_cell_length_a 17.463261
_cell_length_b 17.463261
_cell_length_c 25.933642
_cell_angle_alpha 90.000000
_cell_angle_beta 90.000000
_cell_angle_gamma 90.000000
_cell_volume 7908.865704
_symmetry_space_group_name_H-M "I 41/A M D"
_symmetry_group_IT_number 141
_space_group.IT_coordinate_system_code '2'
_symmetry_cell_setting 'tetragonal'
loop_
_space_group_symop_operation_xyz
x,y,z
1/4-y,3/4+x,1/4+z
-x,1/2-y,z
1/4+y,1/4-x,3/4+z
x,-y,-z
-x,1/2+y,-z
1/4+y,3/4+x,1/4-z
1/4-y,1/4-x,3/4-z
-x,-y,-z
3/4+y,1/4-x,3/4-z
x,1/2+y,-z
3/4-y,3/4+x,1/4-z
-x,y,z
x,1/2-y,z
3/4-y,1/4-x,3/4+z
3/4+y,3/4+x,1/4+z
1/2+x,1/2+y,1/2+z
3/4-y,1/4+x,3/4+z
1/2-x,-y,1/2+z
3/4+y,3/4-x,1/4+z
1/2+x,1/2-y,1/2-z
1/2-x,y,1/2-z
3/4+y,1/4+x,3/4-z
3/4-y,3/4-x,1/4-z
1/2-x,1/2-y,1/2-z
1/4+y,3/4-x,1/4-z
1/2+x,y,1/2-z
1/4-y,1/4+x,3/4-z
1/2-x,1/2+y,1/2+z
1/2+x,-y,1/2+z
1/4-y,3/4-x,1/4+z
1/4+y,1/4+x,3/4+z
loop_
_atom_site_type_symbol
_atom_site_label
_atom_site_fract_x
_atom_site_fract_y
_atom_site_fract_z
Si Si1 0.591179 0.339454 0.923275
Si Si2 0.821591 0.336030 0.942592
Si Si3 0.823235 0.959583 0.347081
Si Si4 0.417110 0.029897 0.571029
Si Si5 0.186452 0.091490 0.493179
O O1 0.500000 0.340760 0.917063
O O2 0.617206 0.250000 0.913788
O O3 0.627340 0.405259 0.885362
O O4 0.614858 0.364248 0.981552
O O5 0.830572 0.250000 0.961431
O O6 0.796429 0.333509 0.882693
O O7 0.896377 0.386998 0.950380
O O8 0.753826 0.379471 0.970265
O O9 0.781307 0.898536 0.309980
O O10 0.754018 0.004018 0.375000
O O11 0.860003 0.028228 0.313277
O O12 0.500000 0.001427 0.556627
O O13 0.175132 0.000000 0.500000
#
# Coordination Sequence:
#
# PCOD9572745 Si02
#       5
#    32  32  32  32  32
#     4  11  25  45  68  95 131 174 216 266 333 397
#     4  10  19  33  54  83 119 160 207 257 310 370
#     4  12  21  39  63  95 123 162 214 268 313 382
#     4  10  17  31  56  81 117 165 207 249 304 371
#     4  12  21  37  65  93 123 161 218 268 315 383
#
# _framework density 20.230460999999998
#
# number of rings (size 3 to 8) (size 9 to 14) (size 15 to 20)
#    0.000    1.000    8.000    1.200    0.000    2.400 
#    0.000    5.000    0.000    0.000    0.000    1.400 
#    0.000    0.000    0.000    0.000    0.000    0.000 
#
# Total GULP energy -445797.167363 kJ/mol
# GULP energy per Si atom -5572.464592 kJ/mol
# Density = 2.018442 g / cm^3
# Si number density = 20.230461 Si / 1000 Ang^3
#
#
#
# Elastic Constant Matrix: (Units=GPa)
#
#
# Indices 1 2 3 4 5 6 
#
# 1 99.5675 36.6146 30.1758 0.0000 0.0000 0.0000
# 2 36.6146 99.5675 30.1758 0.0000 0.0000 0.0000
# 3 30.1758 30.1758 68.9357 0.0000 0.0000 0.0000
# 4 0.0000 0.0000 0.0000 20.9295 0.0000 0.0000
# 5 0.0000 0.0000 0.0000 0.0000 20.9295 0.0000
# 6 0.0000 0.0000 0.0000 0.0000 0.0000 28.1408
#
#
#
# Elastic Compliance Matrix: (Units=1/GPa)
#
#
# Indices 1 2 3 4 5 6 
#
# 1 0.012498 -0.003387 -0.003988 0.000000 0.000000 0.000000
# 2 -0.003387 0.012498 -0.003988 0.000000 0.000000 0.000000
# 3 -0.003988 -0.003988 0.017998 0.000000 0.000000 0.000000
# 4 0.000000 0.000000 0.000000 0.047779 0.000000 0.000000
# 5 0.000000 0.000000 0.000000 0.000000 0.047779 0.000000
# 6 0.000000 0.000000 0.000000 0.000000 0.000000 0.035536
#
#
# Mechanical properties :
#
#
# Convention : Reuss Voigt Hill
#
# Bulk Modulus (GPa) = 49.34225 51.33367 50.33796
# Shear Modulus (GPa) = 24.56163 25.40691 24.98427
#
# Velocity S-wave (km/s) = 3.48816 3.54768 3.51804
# Velocity P-wave (km/s) = 6.37699 6.49699 6.43727
#
# Compressibility (1/GPa) = 0.02026661
#
# Stress axis : x y z
#
# Youngs Moduli (GPa) = 80.01482 80.01482 55.56270
#
# Poissons Ratio (x) = 0.27103 0.22158
# Poissons Ratio (y) = 0.27103 0.22158
# Poissons Ratio (z) = 0.31910 0.31910
#
# Static dielectric constant tensor:
#      x y z
#    x 1.736870 0.000000 0.000000 
#    y 0.000000 1.736870 0.000000 
#    z 0.000000 0.000000 1.841040 
# 
# From -- ./inp_files/12720.got.cif
#   From: 2010.05.17/outbox.cif.g08.bks.cpg/sg141_7_cif.got.tgz:12720.got - 2010.05.20 13:30:51.
