data_PCOD9572969
_publ_section_title
;
Structure prediction by ZEFSAII (Michael W. Deem and Ramdas Pophale) SiO2 
 PCOD9572969
Probable space group: I 41/A M D
;
_chemical_formula_sum "Si O2"
_cell_formula_units_Z 192
_cell_length_a 20.986733
_cell_length_b 20.986733
_cell_length_c 21.223344
_cell_angle_alpha 90.000000
_cell_angle_beta 90.000000
_cell_angle_gamma 90.000000
_cell_volume 9347.672495
_symmetry_space_group_name_H-M "I 41/A M D"
_symmetry_group_IT_number 141
_space_group.IT_coordinate_system_code '2'
_symmetry_cell_setting 'tetragonal'
loop_
_space_group_symop_operation_xyz
x,y,z
1/4-y,3/4+x,1/4+z
-x,1/2-y,z
1/4+y,1/4-x,3/4+z
x,-y,-z
-x,1/2+y,-z
1/4+y,3/4+x,1/4-z
1/4-y,1/4-x,3/4-z
-x,-y,-z
3/4+y,1/4-x,3/4-z
x,1/2+y,-z
3/4-y,3/4+x,1/4-z
-x,y,z
x,1/2-y,z
3/4-y,1/4-x,3/4+z
3/4+y,3/4+x,1/4+z
1/2+x,1/2+y,1/2+z
3/4-y,1/4+x,3/4+z
1/2-x,-y,1/2+z
3/4+y,3/4-x,1/4+z
1/2+x,1/2-y,1/2-z
1/2-x,y,1/2-z
3/4+y,1/4+x,3/4-z
3/4-y,3/4-x,1/4-z
1/2-x,1/2-y,1/2-z
1/4+y,3/4-x,1/4-z
1/2+x,y,1/2-z
1/4-y,1/4+x,3/4-z
1/2-x,1/2+y,1/2+z
1/2+x,-y,1/2+z
1/4-y,3/4-x,1/4+z
1/4+y,1/4+x,3/4+z
loop_
_atom_site_type_symbol
_atom_site_label
_atom_site_fract_x
_atom_site_fract_y
_atom_site_fract_z
Si Si1 0.673362 0.576855 0.997347
Si Si2 0.070492 0.896784 0.217689
Si Si3 0.255397 0.178528 0.076379
Si Si4 0.843804 0.675156 0.308429
Si Si5 0.573640 0.109466 0.916200
Si Si6 0.138766 0.510354 0.133460
O O1 0.603978 0.603961 0.014956
O O2 0.713550 0.601784 0.057682
O O3 0.677199 0.500000 0.000000
O O4 0.701887 0.617018 0.939096
O O5 0.122601 0.848274 0.244563
O O6 0.090428 0.934453 0.155294
O O7 0.000000 0.868467 0.212970
O O8 0.068928 0.951826 0.271310
O O9 0.285271 0.250000 0.077442
O O10 0.212245 0.169249 0.137968
O O11 0.831637 0.750000 0.308383
O O12 0.890841 0.656005 0.366653
O O13 0.779920 0.636145 0.324797
O O14 0.500000 0.126116 0.916671
O O15 0.205984 0.544017 0.125000
#
# Coordination Sequence:
#
# PCOD9572969 Si02
#       6
#    32  32  32  32  32  32
#     4  10  21  29  51  79 104 139 183 233 281 336
#     4   9  18  34  54  76 105 141 179 227 278 326
#     4   8  16  33  51  69 102 141 176 215 280 342
#     4  10  20  35  57  82 104 141 188 233 276 328
#     4   9  19  34  51  76 108 142 177 225 280 339
#     4  10  22  34  52  76 113 144 183 231 285 332
#
# _framework density 20.539873
#
# number of rings (size 3 to 8) (size 9 to 14) (size 15 to 20)
#    0.000    2.667    0.000    2.000    9.333    5.667 
#    0.000    2.500    0.000    0.000    0.000    0.000 
#    0.000    1.333    0.000    0.000    0.000    0.000 
#
# Total GULP energy -535132.654712 kJ/mol
# GULP energy per Si atom -5574.298487 kJ/mol
# Density = 2.049312 g / cm^3
# Si number density = 20.539873 Si / 1000 Ang^3
#
#
#
# Elastic Constant Matrix: (Units=GPa)
#
#
# Indices 1 2 3 4 5 6 
#
# 1 95.6686 23.6871 15.6921 0.0000 0.0000 0.0000
# 2 23.6871 95.6695 15.6924 0.0000 0.0000 0.0000
# 3 15.6921 15.6924 18.6147 0.0000 0.0000 0.0000
# 4 0.0000 0.0000 0.0000 10.7521 0.0000 0.0000
# 5 0.0000 0.0000 0.0000 0.0000 10.7504 0.0000
# 6 0.0000 0.0000 0.0000 0.0000 0.0000 7.7708
#
#
#
# Elastic Compliance Matrix: (Units=1/GPa)
#
#
# Indices 1 2 3 4 5 6 
#
# 1 0.012328 -0.001564 -0.009074 0.000000 0.000000 0.000000
# 2 -0.001564 0.012328 -0.009075 0.000000 0.000000 0.000000
# 3 -0.009074 -0.009075 0.069021 0.000000 0.000000 0.000000
# 4 0.000000 0.000000 0.000000 0.093005 0.000000 0.000000
# 5 0.000000 0.000000 0.000000 0.000000 0.093020 0.000000
# 6 0.000000 0.000000 0.000000 0.000000 0.000000 0.128687
#
#
# Mechanical properties :
#
#
# Convention : Reuss Voigt Hill
#
# Bulk Modulus (GPa) = 18.43261 35.56622 26.99941
# Shear Modulus (GPa) = 10.73194 16.18007 13.45601
#
# Velocity S-wave (km/s) = 2.28829 2.80971 2.56230
# Velocity P-wave (km/s) = 3.99690 5.28008 4.68266
#
# Compressibility (1/GPa) = 0.05425168
#
# Stress axis : x y z
#
# Youngs Moduli (GPa) = 81.11346 81.11382 14.48843
#
# Poissons Ratio (x) = 0.12686 0.13147
# Poissons Ratio (y) = 0.12686 0.13148
# Poissons Ratio (z) = 0.73605 0.73607
#
# Static dielectric constant tensor:
#      x y z
#    x 1.764510 0.000000 0.000000 
#    y 0.000000 1.764510 0.000000 
#    z 0.000000 0.000000 1.767920 
# 
# From -- ./inp_files/13055.got.cif
#   From: 2010.05.17/outbox.cif.g08.bks.cpg/sg141_7_cif.got.tgz:13055.got - 2010.05.20 13:30:51.
