data_PCOD9572522
_publ_section_title
;
Structure prediction by ZEFSAII (Michael W. Deem and Ramdas Pophale) SiO2 
 PCOD9572522
Probable space group: I 4/M C M
;
_chemical_formula_sum "Si O2"
_cell_formula_units_Z 128
_cell_length_a 24.910426
_cell_length_b 24.910426
_cell_length_c 10.057534
_cell_angle_alpha 90.000000
_cell_angle_beta 90.000000
_cell_angle_gamma 90.000000
_cell_volume 6240.994769
_symmetry_space_group_name_H-M "I 4/M C M"
_symmetry_group_IT_number 140
_symmetry_cell_setting 'tetragonal'
loop_
_space_group_symop_operation_xyz
x,y,z
-y,x,z
-x,-y,z
y,-x,z
x,-y,1/2-z
-x,y,1/2-z
y,x,1/2-z
-y,-x,1/2-z
-x,-y,-z
y,-x,-z
x,y,-z
-y,x,-z
-x,y,1/2+z
x,-y,1/2+z
-y,-x,1/2+z
y,x,1/2+z
1/2+x,1/2+y,1/2+z
1/2-y,1/2+x,1/2+z
1/2-x,1/2-y,1/2+z
1/2+y,1/2-x,1/2+z
1/2+x,1/2-y,-z
1/2-x,1/2+y,-z
1/2+y,1/2+x,-z
1/2-y,1/2-x,-z
1/2-x,1/2-y,1/2-z
1/2+y,1/2-x,1/2-z
1/2+x,1/2+y,1/2-z
1/2-y,1/2+x,1/2-z
1/2-x,1/2+y,z
1/2+x,1/2-y,z
1/2-y,1/2-x,z
1/2+y,1/2+x,z
loop_
_atom_site_type_symbol
_atom_site_label
_atom_site_fract_x
_atom_site_fract_y
_atom_site_fract_z
Si Si1 0.136889 0.451043 0.148442
Si Si2 0.254446 0.563081 0.284667
Si Si3 0.171744 0.240394 0.350430
Si Si4 0.125979 0.053244 0.655592
O O1 0.133718 0.500000 0.250000
O O2 0.095558 0.404443 0.185037
O O3 0.197420 0.428264 0.146344
O O4 0.123949 0.470345 0.000000
O O5 0.253320 0.500000 0.250000
O O6 0.255196 0.608102 0.170272
O O7 0.311558 0.569165 0.354937
O O8 0.198513 0.198513 0.250000
O O9 0.183242 0.222689 0.500000
O O10 0.203098 0.296903 0.329495
O O11 0.096025 0.096025 0.750000
O O12 0.106324 0.047503 0.500000
O O13 0.122118 0.000000 0.750000
#
# Coordination Sequence:
#
# PCOD9572522 Si02
#       4
#    32  32  32  32
#     4  10  22  40  62  89 121 159 204 253 305 361
#     4  10  22  38  60  88 121 158 200 247 299 356
#     4  10  22  40  63  91 123 161 204 250 301 359
#     4  11  24  42  65  92 123 159 201 248 300 358
#
# _framework density 20.509550999999998
#
# number of rings (size 3 to 8) (size 9 to 14) (size 15 to 20)
#    0.000    1.750    0.000    3.000    0.000   14.000 
#    0.000    5.000    0.000    0.000    0.000    0.000 
#    0.000    0.000    0.000    0.000    0.000    0.000 
#
# Total GULP energy -356509.843417 kJ/mol
# GULP energy per Si atom -5570.466303 kJ/mol
# Density = 2.046287 g / cm^3
# Si number density = 20.509551 Si / 1000 Ang^3
#
#
#
# Elastic Constant Matrix: (Units=GPa)
#
#
# Indices 1 2 3 4 5 6 
#
# 1 116.5859 62.5040 65.3802 0.0000 0.0000 0.0000
# 2 62.5040 116.5859 65.3802 0.0000 0.0000 0.0000
# 3 65.3802 65.3802 155.4178 0.0000 0.0000 0.0000
# 4 0.0000 0.0000 0.0000 19.5807 0.0000 0.0000
# 5 0.0000 0.0000 0.0000 0.0000 19.5807 0.0000
# 6 0.0000 0.0000 0.0000 0.0000 0.0000 23.1454
#
#
#
# Elastic Compliance Matrix: (Units=1/GPa)
#
#
# Indices 1 2 3 4 5 6 
#
# 1 0.013275 -0.005216 -0.003390 0.000000 0.000000 0.000000
# 2 -0.005216 0.013275 -0.003390 0.000000 0.000000 0.000000
# 3 -0.003390 -0.003390 0.009287 0.000000 0.000000 0.000000
# 4 0.000000 0.000000 0.000000 0.051071 0.000000 0.000000
# 5 0.000000 0.000000 0.000000 0.000000 0.051071 0.000000
# 6 0.000000 0.000000 0.000000 0.000000 0.000000 0.043205
#
#
# Mechanical properties :
#
#
# Convention : Reuss Voigt Hill
#
# Bulk Modulus (GPa) = 84.43179 86.12427 85.27803
# Shear Modulus (GPa) = 23.90936 25.48305 24.69620
#
# Velocity S-wave (km/s) = 3.41804 3.52873 3.47382
# Velocity P-wave (km/s) = 7.53882 7.66068 7.59999
#
# Compressibility (1/GPa) = 0.01184388
#
# Stress axis : x y z
#
# Youngs Moduli (GPa) = 75.33058 75.33058 107.68120
#
# Poissons Ratio (x) = 0.39290 0.36507
# Poissons Ratio (y) = 0.39290 0.36507
# Poissons Ratio (z) = 0.25539 0.25539
#
# Static dielectric constant tensor:
#      x y z
#    x 1.759240 0.000000 0.000000 
#    y 0.000000 1.759240 0.000000 
#    z 0.000000 0.000000 1.764350 
# 
# From -- ./inp_files/2900.got.cif
#   From: 2010.05.17/outbox.cif.g08.bks.cpg/sg140_2_cif.got.tgz:2900.got - 2010.06.21 00:45:31.
