data_PCOD9572488
_publ_section_title
;
Structure prediction by ZEFSAII (Michael W. Deem and Ramdas Pophale) SiO2 
 PCOD9572488
Probable space group: I 4/M C M
;
_chemical_formula_sum "Si O2"
_cell_formula_units_Z 160
_cell_length_a 19.681934
_cell_length_b 19.681934
_cell_length_c 21.060374
_cell_angle_alpha 90.000000
_cell_angle_beta 90.000000
_cell_angle_gamma 90.000000
_cell_volume 8158.336637
_symmetry_space_group_name_H-M "I 4/M C M"
_symmetry_group_IT_number 140
_symmetry_cell_setting 'tetragonal'
loop_
_space_group_symop_operation_xyz
x,y,z
-y,x,z
-x,-y,z
y,-x,z
x,-y,1/2-z
-x,y,1/2-z
y,x,1/2-z
-y,-x,1/2-z
-x,-y,-z
y,-x,-z
x,y,-z
-y,x,-z
-x,y,1/2+z
x,-y,1/2+z
-y,-x,1/2+z
y,x,1/2+z
1/2+x,1/2+y,1/2+z
1/2-y,1/2+x,1/2+z
1/2-x,1/2-y,1/2+z
1/2+y,1/2-x,1/2+z
1/2+x,1/2-y,-z
1/2-x,1/2+y,-z
1/2+y,1/2+x,-z
1/2-y,1/2-x,-z
1/2-x,1/2-y,1/2-z
1/2+y,1/2-x,1/2-z
1/2+x,1/2+y,1/2-z
1/2-y,1/2+x,1/2-z
1/2-x,1/2+y,z
1/2+x,1/2-y,z
1/2-y,1/2-x,z
1/2+y,1/2+x,z
loop_
_atom_site_type_symbol
_atom_site_label
_atom_site_fract_x
_atom_site_fract_y
_atom_site_fract_z
Si Si1 0.364524 0.756331 0.626474
Si Si2 0.304384 0.077551 0.000000
Si Si3 0.420093 0.195844 0.746594
Si Si4 0.581790 0.804524 0.500000
Si Si5 0.571672 0.411816 0.180387
Si Si6 0.376545 0.282046 0.377042
O O1 0.329304 0.829304 0.627474
O O2 0.407823 0.758493 0.562278
O O3 0.405780 0.756235 0.691971
O O4 0.304109 0.701961 0.624429
O O5 0.323029 0.998074 0.000000
O O6 0.369209 0.130792 0.000000
O O7 0.500000 0.177786 0.750000
O O8 0.370076 0.129925 0.747018
O O9 0.400424 0.238679 0.683924
O O10 0.628704 0.871297 0.500000
O O11 0.601520 0.759625 0.438582
O O12 0.590520 0.490450 0.175969
O O13 0.603359 0.396642 0.250000
O O14 0.593766 0.357839 0.128934
#
# Coordination Sequence:
#
# PCOD9572488 Si02
#       6
#    32  16  32  16  32  32
#     4  10  21  39  63  93 124 159 202 256 321 384
#     4  10  23  44  69  94 126 165 210 263 327 396
#     4  11  24  40  63  95 127 164 216 267 322 387
#     4  12  27  44  63  91 127 170 223 270 324 385
#     4   9  20  37  60  94 131 166 204 251 315 390
#     4  12  24  39  66  91 128 167 212 266 321 375
#
# _framework density 19.611841999999999
#
# number of rings (size 3 to 8) (size 9 to 14) (size 15 to 20)
#    0.000    1.400    0.000    6.000    8.400    2.800 
#    0.000    0.000    0.000    7.200    0.000    0.000 
#    0.000    0.000    0.000    0.000    0.000    0.000 
#
# Total GULP energy -445835.088973 kJ/mol
# GULP energy per Si atom -5572.938612 kJ/mol
# Density = 1.956720 g / cm^3
# Si number density = 19.611842 Si / 1000 Ang^3
#
#
#
# Elastic Constant Matrix: (Units=GPa)
#
#
# Indices 1 2 3 4 5 6 
#
# 1 125.2278 22.0857 53.5915 0.0000 0.0000 0.0000
# 2 22.0857 125.2271 53.5899 0.0000 0.0000 0.0000
# 3 53.5915 53.5899 164.3825 0.0000 0.0000 0.0000
# 4 0.0000 0.0000 0.0000 -146.3595 -0.0001 0.0000
# 5 0.0000 0.0000 0.0000 -0.0001 -145.5766 0.0000
# 6 0.0000 0.0000 0.0000 0.0000 0.0000 37.5384
#
#
#
# Elastic Compliance Matrix: (Units=1/GPa)
#
#
# Indices 1 2 3 4 5 6 
#
# 1 0.009297 -0.000398 -0.002901 0.000000 0.000000 0.000000
# 2 -0.000398 0.009297 -0.002901 0.000000 0.000000 0.000000
# 3 -0.002901 -0.002901 0.007975 0.000000 0.000000 0.000000
# 4 0.000000 0.000000 0.000000 -0.006832 0.000000 0.000000
# 5 0.000000 0.000000 0.000000 0.000000 -0.006869 0.000000
# 6 0.000000 0.000000 0.000000 0.000000 0.000000 0.026639
#
#
# Mechanical properties :
#
#
# Convention : Reuss Voigt Hill
#
# Bulk Modulus (GPa) = 70.57965 74.81908 72.69937
# Shear Modulus (GPa) = 88.29062 -31.84152 28.22455
#
# Velocity S-wave (km/s) = 6.71690 -4.03375 3.79774
# Velocity P-wave (km/s) = 9.80929 4.06669 7.50866
#
# Compressibility (1/GPa) = 0.01416839
#
# Stress axis : x y z
#
# Youngs Moduli (GPa) = 107.55844 107.55883 125.39121
#
# Poissons Ratio (x) = 0.04282 0.36379
# Poissons Ratio (y) = 0.04282 0.36378
# Poissons Ratio (z) = 0.31206 0.31205
#
# Static dielectric constant tensor:
#      x y z
#    x 1.756140 0.000000 0.000000 
#    y 0.000000 1.756130 0.000000 
#    z 0.000000 0.000000 1.716450 
# 
# From -- ./inp_files/6931.got.cif
#   From: 2010.05.17/outbox.cif.g08.bks.cpg/sg140_4_cif.got.tgz:6931.got - 2010.06.21 00:45:31.
