data_PCOD9572285
_publ_section_title
;
Structure prediction by ZEFSAII (Michael W. Deem and Ramdas Pophale) SiO2 
 PCOD9572285
Probable space group: I 4/M C M
;
_chemical_formula_sum "Si O2"
_cell_formula_units_Z 160
_cell_length_a 32.333717
_cell_length_b 32.333717
_cell_length_c 9.479718
_cell_angle_alpha 90.000000
_cell_angle_beta 90.000000
_cell_angle_gamma 90.000000
_cell_volume 9910.753715
_symmetry_space_group_name_H-M "I 4/M C M"
_symmetry_group_IT_number 140
_symmetry_cell_setting 'tetragonal'
loop_
_space_group_symop_operation_xyz
x,y,z
-y,x,z
-x,-y,z
y,-x,z
x,-y,1/2-z
-x,y,1/2-z
y,x,1/2-z
-y,-x,1/2-z
-x,-y,-z
y,-x,-z
x,y,-z
-y,x,-z
-x,y,1/2+z
x,-y,1/2+z
-y,-x,1/2+z
y,x,1/2+z
1/2+x,1/2+y,1/2+z
1/2-y,1/2+x,1/2+z
1/2-x,1/2-y,1/2+z
1/2+y,1/2-x,1/2+z
1/2+x,1/2-y,-z
1/2-x,1/2+y,-z
1/2+y,1/2+x,-z
1/2-y,1/2-x,-z
1/2-x,1/2-y,1/2-z
1/2+y,1/2-x,1/2-z
1/2+x,1/2+y,1/2-z
1/2-y,1/2+x,1/2-z
1/2-x,1/2+y,z
1/2+x,1/2-y,z
1/2-y,1/2-x,z
1/2+y,1/2+x,z
loop_
_atom_site_type_symbol
_atom_site_label
_atom_site_fract_x
_atom_site_fract_y
_atom_site_fract_z
Si Si1 0.539694 0.717686 0.330660
Si Si2 0.500000 0.869405 0.750000
Si Si3 0.309414 0.631727 0.665827
Si Si4 0.500886 0.068270 0.500000
Si Si5 0.214668 0.647389 0.666835
Si Si6 0.566595 0.198894 0.669512
O O1 0.500000 0.699539 0.250000
O O2 0.533093 0.723005 0.500000
O O3 0.582300 0.692515 0.310971
O O4 0.548201 0.761505 0.253184
O O5 0.507900 0.901219 0.626673
O O6 0.462023 0.839875 0.707890
O O7 0.344190 0.655811 0.750000
O O8 0.315486 0.638764 0.500000
O O9 0.263352 0.648578 0.702075
O O10 0.546252 0.046252 0.500000
O O11 0.468740 0.031261 0.500000
O O12 0.211925 0.635082 0.500000
O O13 0.190082 0.690082 0.683012
O O14 0.194627 0.612397 0.765542
O O15 0.566927 0.205205 0.500000
#
# Coordination Sequence:
#
# PCOD9572285 Si02
#       6
#    32  16  32  16  32  32
#     4  10  20  34  56  80 111 143 174 217 263 307
#     4  12  24  39  60  80  96 122 162 212 267 328
#     4   9  19  34  52  77 108 144 186 222 261 312
#     4  11  26  46  60  70  90 122 160 206 266 332
#     4   9  20  37  54  74 106 142 176 221 269 315
#     4  11  22  35  53  80 105 129 164 210 263 327
#
# _framework density 16.144079999999999
#
# number of rings (size 3 to 8) (size 9 to 14) (size 15 to 20)
#    0.000    1.900    2.000    3.000    2.800    7.200 
#    0.000    0.000    0.000    0.000    0.000    0.000 
#    0.000    0.400    0.000    4.400    0.000    3.200 
#
# Total GULP energy -445935.101653 kJ/mol
# GULP energy per Si atom -5574.188771 kJ/mol
# Density = 1.610734 g / cm^3
# Si number density = 16.144080 Si / 1000 Ang^3
#
#
#
# Elastic Constant Matrix: (Units=GPa)
#
#
# Indices 1 2 3 4 5 6 
#
# 1 122.0457 20.8746 55.1641 0.0000 0.0000 0.0000
# 2 20.8746 122.1356 55.2100 0.0000 0.0000 0.0000
# 3 55.1641 55.2100 120.2206 0.0000 0.0000 0.0000
# 4 0.0000 0.0000 0.0000 33.6009 0.0000 0.0000
# 5 0.0000 0.0000 0.0000 0.0000 33.6010 0.0000
# 6 0.0000 0.0000 0.0000 0.0000 0.0000 28.2291
#
#
#
# Elastic Compliance Matrix: (Units=1/GPa)
#
#
# Indices 1 2 3 4 5 6 
#
# 1 0.010360 0.000477 -0.004973 0.000000 0.000000 0.000000
# 2 0.000477 0.010355 -0.004974 0.000000 0.000000 0.000000
# 3 -0.004973 -0.004974 0.012884 0.000000 0.000000 0.000000
# 4 0.000000 0.000000 0.000000 0.029761 0.000000 0.000000
# 5 0.000000 0.000000 0.000000 0.000000 0.029761 0.000000
# 6 0.000000 0.000000 0.000000 0.000000 0.000000 0.035424
#
#
# Mechanical properties :
#
#
# Convention : Reuss Voigt Hill
#
# Bulk Modulus (GPa) = 68.21756 69.65549 68.93652
# Shear Modulus (GPa) = 32.81465 34.62975 33.72220
#
# Velocity S-wave (km/s) = 4.51334 4.63649 4.57533
# Velocity P-wave (km/s) = 8.33712 8.47953 8.40863
#
# Compressibility (1/GPa) = 0.01465898
#
# Stress axis : x y z
#
# Youngs Moduli (GPa) = 96.52782 96.57553 77.61431
#
# Poissons Ratio (x) = -0.04609 0.38596
# Poissons Ratio (y) = -0.04607 0.38607
# Poissons Ratio (z) = 0.48002 0.48039
#
# Static dielectric constant tensor:
#      x y z
#    x 1.539430 0.000000 0.000000 
#    y 0.000000 1.539430 0.000000 
#    z 0.000000 0.000000 1.524000 
# 
# From -- ./inp_files/1871.got.cif
#   From: 2010.05.17/outbox.cif.g08.bks.cpg/sg140_1_cif.got.tgz:1871.got - 2010.06.21 00:45:31.
