data_PCOD9572456
_publ_section_title
;
Structure prediction by ZEFSAII (Michael W. Deem and Ramdas Pophale) SiO2 
 PCOD9572456
Probable space group: I 4/M C M
;
_chemical_formula_sum "Si O2"
_cell_formula_units_Z 96
_cell_length_a 16.747875
_cell_length_b 16.747875
_cell_length_c 19.105741
_cell_angle_alpha 90.000000
_cell_angle_beta 90.000000
_cell_angle_gamma 90.000000
_cell_volume 5358.994456
_symmetry_space_group_name_H-M "I 4/M C M"
_symmetry_group_IT_number 140
_symmetry_cell_setting 'tetragonal'
loop_
_space_group_symop_operation_xyz
x,y,z
-y,x,z
-x,-y,z
y,-x,z
x,-y,1/2-z
-x,y,1/2-z
y,x,1/2-z
-y,-x,1/2-z
-x,-y,-z
y,-x,-z
x,y,-z
-y,x,-z
-x,y,1/2+z
x,-y,1/2+z
-y,-x,1/2+z
y,x,1/2+z
1/2+x,1/2+y,1/2+z
1/2-y,1/2+x,1/2+z
1/2-x,1/2-y,1/2+z
1/2+y,1/2-x,1/2+z
1/2+x,1/2-y,-z
1/2-x,1/2+y,-z
1/2+y,1/2+x,-z
1/2-y,1/2-x,-z
1/2-x,1/2-y,1/2-z
1/2+y,1/2-x,1/2-z
1/2+x,1/2+y,1/2-z
1/2-y,1/2+x,1/2-z
1/2-x,1/2+y,z
1/2+x,1/2-y,z
1/2-y,1/2-x,z
1/2+y,1/2+x,z
loop_
_atom_site_type_symbol
_atom_site_label
_atom_site_fract_x
_atom_site_fract_y
_atom_site_fract_z
Si Si1 0.565033 0.934968 0.584113
Si Si2 0.492534 0.364238 0.500000
Si Si3 0.379109 0.245658 0.242810
Si Si4 0.494252 0.758302 0.129433
O O1 0.564949 0.935052 0.500000
O O2 0.535805 0.846492 0.606756
O O3 0.500000 0.000000 0.609416
O O4 0.572946 0.418671 0.500000
O O5 0.489996 0.305550 0.432890
O O6 0.310632 0.310632 0.250000
O O7 0.340580 0.159421 0.256159
O O8 0.419114 0.242355 0.166393
O O9 0.438917 0.265210 0.305304
#
# Coordination Sequence:
#
# PCOD9572456 Si02
#       4
#    16  16  32  32
#     4  11  22  38  61  86 122 155 196 245 299 361
#     4  11  24  41  62  87 117 156 203 253 299 356
#     4  10  21  37  58  87 120 155 196 242 291 351
#     4  11  21  39  61  87 118 159 196 244 299 357
#
# _framework density 17.913808
#
# number of rings (size 3 to 8) (size 9 to 14) (size 15 to 20)
#    0.000    1.333    3.333    3.000    0.000    0.000 
#    0.000    0.000    3.667    8.000    0.000    0.000 
#    0.000    0.000    0.000    0.000    0.000    0.000 
#
# Total GULP energy -267489.636083 kJ/mol
# GULP energy per Si atom -5572.700752 kJ/mol
# Density = 1.787304 g / cm^3
# Si number density = 17.913808 Si / 1000 Ang^3
#
#
#
# Elastic Constant Matrix: (Units=GPa)
#
#
# Indices 1 2 3 4 5 6 
#
# 1 380.6039 -197.5115 62.7836 0.0000 0.0000 0.0000
# 2 -197.5115 380.6067 62.7790 0.0000 0.0000 0.0000
# 3 62.7836 62.7790 133.8945 0.0000 0.0000 0.0000
# 4 0.0000 0.0000 0.0000 24.8378 0.0000 0.0000
# 5 0.0000 0.0000 0.0000 0.0000 24.8377 0.0000
# 6 0.0000 0.0000 0.0000 0.0000 0.0000 27.2285
#
#
#
# Elastic Compliance Matrix: (Units=1/GPa)
#
#
# Indices 1 2 3 4 5 6 
#
# 1 0.004890 0.003160 -0.003775 0.000000 0.000000 0.000000
# 2 0.003160 0.004890 -0.003775 0.000000 0.000000 0.000000
# 3 -0.003775 -0.003775 0.011008 0.000000 0.000000 0.000000
# 4 0.000000 0.000000 0.000000 0.040261 0.000000 0.000000
# 5 0.000000 0.000000 0.000000 0.000000 0.040261 0.000000
# 6 0.000000 0.000000 0.000000 0.000000 0.000000 0.036726
#
#
# Mechanical properties :
#
#
# Convention : Reuss Voigt Hill
#
# Bulk Modulus (GPa) = 83.26227 83.46749 83.36488
# Shear Modulus (GPa) = 33.15235 79.85106 56.50170
#
# Velocity S-wave (km/s) = 4.30660 6.68370 5.62222
# Velocity P-wave (km/s) = 8.44448 10.30813 9.42250
#
# Compressibility (1/GPa) = 0.01201024
#
# Stress axis : x y z
#
# Youngs Moduli (GPa) = 204.49602 204.50020 90.84013
#
# Poissons Ratio (x) = -0.64628 0.34290
# Poissons Ratio (y) = -0.64626 0.34289
# Poissons Ratio (z) = 0.77192 0.77191
#
# Static dielectric constant tensor:
#      x y z
#    x 1.629400 0.000000 0.000000 
#    y 0.000000 1.629400 0.000000 
#    z 0.000000 0.000000 1.590550 
# 
# From -- ./inp_files/5872.got.cif
#   From: 2010.05.17/outbox.cif.g08.bks.cpg/sg140_3_cif.got.tgz:5872.got - 2010.06.21 00:45:31.
