data_PCOD9572555
_publ_section_title
;
Structure prediction by ZEFSAII (Michael W. Deem and Ramdas Pophale) SiO2 
 PCOD9572555
Probable space group: I 4/M C M
;
_chemical_formula_sum "Si O2"
_cell_formula_units_Z 176
_cell_length_a 17.928696
_cell_length_b 17.928696
_cell_length_c 26.179995
_cell_angle_alpha 90.000000
_cell_angle_beta 90.000000
_cell_angle_gamma 90.000000
_cell_volume 8415.248905
_symmetry_space_group_name_H-M "I 4/M C M"
_symmetry_group_IT_number 140
_symmetry_cell_setting 'tetragonal'
loop_
_space_group_symop_operation_xyz
x,y,z
-y,x,z
-x,-y,z
y,-x,z
x,-y,1/2-z
-x,y,1/2-z
y,x,1/2-z
-y,-x,1/2-z
-x,-y,-z
y,-x,-z
x,y,-z
-y,x,-z
-x,y,1/2+z
x,-y,1/2+z
-y,-x,1/2+z
y,x,1/2+z
1/2+x,1/2+y,1/2+z
1/2-y,1/2+x,1/2+z
1/2-x,1/2-y,1/2+z
1/2+y,1/2-x,1/2+z
1/2+x,1/2-y,-z
1/2-x,1/2+y,-z
1/2+y,1/2+x,-z
1/2-y,1/2-x,-z
1/2-x,1/2-y,1/2-z
1/2+y,1/2-x,1/2-z
1/2+x,1/2+y,1/2-z
1/2-y,1/2+x,1/2-z
1/2-x,1/2+y,z
1/2+x,1/2-y,z
1/2-y,1/2-x,z
1/2+y,1/2+x,z
loop_
_atom_site_type_symbol
_atom_site_label
_atom_site_fract_x
_atom_site_fract_y
_atom_site_fract_z
Si Si1 0.108413 0.184571 0.296317
Si Si2 0.659847 0.039116 0.700134
Si Si3 0.328845 0.171156 0.556791
Si Si4 0.262256 0.762256 0.361259
Si Si5 0.122479 0.980309 0.387760
Si Si6 0.708318 0.006774 0.090043
Si Si7 0.144805 0.355196 0.443656
O O1 0.134172 0.134172 0.250000
O O2 0.077024 0.264365 0.279502
O O3 0.181600 0.209285 0.329212
O O4 0.044591 0.144684 0.330020
O O5 0.602103 0.102103 0.682626
O O6 0.627285 0.000000 0.750000
O O7 0.683838 0.992458 0.650138
O O8 0.305486 0.194515 0.500000
O O9 0.287038 0.212963 0.601889
O O10 0.310032 0.084680 0.564641
O O11 0.312367 0.812367 0.398717
O O12 0.059373 0.917667 0.398868
O O13 0.204030 0.984034 0.413432
O O14 0.662414 0.941470 0.063668
O O15 0.169247 0.330754 0.500000
#
# Coordination Sequence:
#
# PCOD9572555 Si02
#       7
#    32  32  16  16  32  32  16
#     4  11  23  37  66  99 138 186 232 280 351 414
#     4  11  24  41  62  96 134 182 232 275 342 422
#     4  12  29  46  73 109 133 174 242 298 354 425
#     4  12  22  46  66 101 144 183 237 298 350 421
#     4  10  22  41  65  97 140 185 228 280 342 413
#     4  11  24  47  71 101 142 177 228 294 360 419
#     4  12  23  46  75  96 133 187 233 294 362 421
#
# _framework density 20.914414000000001
#
# number of rings (size 3 to 8) (size 9 to 14) (size 15 to 20)
#    0.000    0.909    5.455    2.182    8.909    0.545 
#    0.000    1.818    0.000    0.000    0.000    6.364 
#    0.000    0.000    0.000    0.000    0.000    0.000 
#
# Total GULP energy -491314.494457 kJ/mol
# GULP energy per Si atom -5583.119255 kJ/mol
# Density = 2.086681 g / cm^3
# Si number density = 20.914414 Si / 1000 Ang^3
#
#
#
# Elastic Constant Matrix: (Units=GPa)
#
#
# Indices 1 2 3 4 5 6 
#
# 1 89.4092 55.3682 24.2905 0.0000 0.0000 0.0000
# 2 55.3682 89.4096 24.2911 0.0000 0.0000 0.0000
# 3 24.2905 24.2911 68.5473 0.0000 0.0000 0.0000
# 4 0.0000 0.0000 0.0000 15.1838 0.0000 0.0000
# 5 0.0000 0.0000 0.0000 0.0000 15.1842 0.0000
# 6 0.0000 0.0000 0.0000 0.0000 0.0000 31.8927
#
#
#
# Elastic Compliance Matrix: (Units=1/GPa)
#
#
# Indices 1 2 3 4 5 6 
#
# 1 0.018608 -0.010768 -0.002778 0.000000 0.000000 0.000000
# 2 -0.010768 0.018608 -0.002778 0.000000 0.000000 0.000000
# 3 -0.002778 -0.002778 0.016557 0.000000 0.000000 0.000000
# 4 0.000000 0.000000 0.000000 0.065860 0.000000 0.000000
# 5 0.000000 0.000000 0.000000 0.000000 0.065858 0.000000
# 6 0.000000 0.000000 0.000000 0.000000 0.000000 0.031355
#
#
# Mechanical properties :
#
#
# Convention : Reuss Voigt Hill
#
# Bulk Modulus (GPa) = 47.33949 50.58508 48.96228
# Shear Modulus (GPa) = 19.49048 22.01324 20.75186
#
# Velocity S-wave (km/s) = 3.05604 3.24781 3.15338
# Velocity P-wave (km/s) = 5.92761 6.18898 6.05971
#
# Compressibility (1/GPa) = 0.02112401
#
# Stress axis : x y z
#
# Youngs Moduli (GPa) = 53.74107 53.74104 60.39630
#
# Poissons Ratio (x) = 0.57871 0.16777
# Poissons Ratio (y) = 0.57871 0.16779
# Poissons Ratio (z) = 0.14929 0.14930
#
# Static dielectric constant tensor:
#      x y z
#    x 1.763020 0.000000 0.000000 
#    y 0.000000 1.763020 0.000000 
#    z 0.000000 0.000000 1.777510 
# 
# From -- ./inp_files/11573.got.cif
#   From: 2010.05.17/outbox.cif.g08.bks.cpg/sg140_6_cif.got.tgz:11573.got - 2010.06.21 00:45:31.
