data_PCOD9572145
_publ_section_title
;
Structure prediction by ZEFSAII (Michael W. Deem and Ramdas Pophale) SiO2 
 PCOD9572145
Probable space group: I 4/M C M
;
_chemical_formula_sum "Si O2"
_cell_formula_units_Z 144
_cell_length_a 21.631537
_cell_length_b 21.631537
_cell_length_c 16.892894
_cell_angle_alpha 90.000000
_cell_angle_beta 90.000000
_cell_angle_gamma 90.000000
_cell_volume 7904.580278
_symmetry_space_group_name_H-M "I 4/M C M"
_symmetry_group_IT_number 140
_symmetry_cell_setting 'tetragonal'
loop_
_space_group_symop_operation_xyz
x,y,z
-y,x,z
-x,-y,z
y,-x,z
x,-y,1/2-z
-x,y,1/2-z
y,x,1/2-z
-y,-x,1/2-z
-x,-y,-z
y,-x,-z
x,y,-z
-y,x,-z
-x,y,1/2+z
x,-y,1/2+z
-y,-x,1/2+z
y,x,1/2+z
1/2+x,1/2+y,1/2+z
1/2-y,1/2+x,1/2+z
1/2-x,1/2-y,1/2+z
1/2+y,1/2-x,1/2+z
1/2+x,1/2-y,-z
1/2-x,1/2+y,-z
1/2+y,1/2+x,-z
1/2-y,1/2-x,-z
1/2-x,1/2-y,1/2-z
1/2+y,1/2-x,1/2-z
1/2+x,1/2+y,1/2-z
1/2-y,1/2+x,1/2-z
1/2-x,1/2+y,z
1/2+x,1/2-y,z
1/2-y,1/2-x,z
1/2+y,1/2+x,z
loop_
_atom_site_type_symbol
_atom_site_label
_atom_site_fract_x
_atom_site_fract_y
_atom_site_fract_z
Si Si1 0.951171 0.653212 0.677555
Si Si2 0.441132 0.165137 0.000000
Si Si3 0.951940 0.907815 0.000000
Si Si4 0.765702 0.162069 0.500000
Si Si5 0.572231 0.714415 0.232493
Si Si6 0.131003 0.848565 0.371972
O O1 0.902778 0.597223 0.681097
O O2 0.974823 0.657821 0.585612
O O3 0.917583 0.718750 0.693727
O O4 0.000000 0.646281 0.750000
O O5 0.388471 0.111530 0.000000
O O6 0.404089 0.230405 0.000000
O O7 0.926415 0.870722 0.924593
O O8 0.024871 0.919161 0.000000
O O9 0.713058 0.213058 0.500000
O O10 0.811554 0.169413 0.426460
O O11 0.500000 0.709645 0.250000
O O12 0.594331 0.658304 0.177865
O O13 0.610038 0.705142 0.313169
#
# Coordination Sequence:
#
# PCOD9572145 Si02
#       6
#    32  16  16  16  32  32
#     4  10  21  38  61  88 117 152 193 237 287 345
#     4   9  17  35  59  83 112 149 188 223 275 343
#     4  10  20  34  51  72 102 143 190 237 282 331
#     4  10  19  33  52  79 109 141 184 230 276 338
#     4  10  20  34  52  77 109 142 181 233 289 341
#     4  10  20  33  52  77 104 142 186 231 285 342
#
# _framework density 18.217286999999999
#
# number of rings (size 3 to 8) (size 9 to 14) (size 15 to 20)
#    0.000    2.111    2.222    1.333    0.000    1.111 
#    0.000    7.222    0.000    7.333    0.000    0.000 
#    0.000    0.000    0.000    0.000    0.000    0.000 
#
# Total GULP energy -401116.454009 kJ/mol
# GULP energy per Si atom -5571.061861 kJ/mol
# Density = 1.817582 g / cm^3
# Si number density = 18.217287 Si / 1000 Ang^3
#
#
#
# Elastic Constant Matrix: (Units=GPa)
#
#
# Indices 1 2 3 4 5 6 
#
# 1 37.6245 4.0777 29.7432 0.0000 0.0000 0.0000
# 2 4.0777 37.6242 29.7426 0.0000 0.0000 0.0000
# 3 29.7432 29.7426 145.6307 0.0000 0.0000 0.0000
# 4 0.0000 0.0000 0.0000 22.9425 0.0000 0.0000
# 5 0.0000 0.0000 0.0000 0.0000 22.9428 0.0000
# 6 0.0000 0.0000 0.0000 0.0000 0.0000 15.1030
#
#
#
# Elastic Compliance Matrix: (Units=1/GPa)
#
#
# Indices 1 2 3 4 5 6 
#
# 1 0.031823 0.002014 -0.006911 0.000000 0.000000 0.000000
# 2 0.002014 0.031823 -0.006911 0.000000 0.000000 0.000000
# 3 -0.006911 -0.006911 0.009690 0.000000 0.000000 0.000000
# 4 0.000000 0.000000 0.000000 0.043587 0.000000 0.000000
# 5 0.000000 0.000000 0.000000 0.000000 0.043587 0.000000
# 6 0.000000 0.000000 0.000000 0.000000 0.000000 0.066212
#
#
# Mechanical properties :
#
#
# Convention : Reuss Voigt Hill
#
# Bulk Modulus (GPa) = 20.11204 38.66738 29.38971
# Shear Modulus (GPa) = 18.73284 22.68539 20.70912
#
# Velocity S-wave (km/s) = 3.21019 3.53266 3.37528
# Velocity P-wave (km/s) = 4.98041 6.15722 5.59981
#
# Compressibility (1/GPa) = 0.04972146
#
# Stress axis : x y z
#
# Youngs Moduli (GPa) = 31.42339 31.42342 103.20394
#
# Poissons Ratio (x) = -0.06329 0.71323
# Poissons Ratio (y) = -0.06329 0.71322
# Poissons Ratio (z) = 0.21716 0.21716
#
# Static dielectric constant tensor:
#      x y z
#    x 1.596410 0.000000 0.000000 
#    y 0.000000 1.596410 0.000000 
#    z 0.000000 0.000000 1.699860 
# 
# From -- ./inp_files/6728.got.cif
#   From: 2010.05.17/outbox.cif.g08.bks.cpg/sg140_4_cif.got.tgz:6728.got - 2010.06.21 00:45:31.
