data_PCOD9572032
_publ_section_title
;
Structure prediction by ZEFSAII (Michael W. Deem and Ramdas Pophale) SiO2 
 PCOD9572032
Probable space group: I 4/M C M
;
_chemical_formula_sum "Si O2"
_cell_formula_units_Z 112
_cell_length_a 29.250720
_cell_length_b 29.250720
_cell_length_c 8.897772
_cell_angle_alpha 90.000000
_cell_angle_beta 90.000000
_cell_angle_gamma 90.000000
_cell_volume 7612.974836
_symmetry_space_group_name_H-M "I 4/M C M"
_symmetry_group_IT_number 140
_symmetry_cell_setting 'tetragonal'
loop_
_space_group_symop_operation_xyz
x,y,z
-y,x,z
-x,-y,z
y,-x,z
x,-y,1/2-z
-x,y,1/2-z
y,x,1/2-z
-y,-x,1/2-z
-x,-y,-z
y,-x,-z
x,y,-z
-y,x,-z
-x,y,1/2+z
x,-y,1/2+z
-y,-x,1/2+z
y,x,1/2+z
1/2+x,1/2+y,1/2+z
1/2-y,1/2+x,1/2+z
1/2-x,1/2-y,1/2+z
1/2+y,1/2-x,1/2+z
1/2+x,1/2-y,-z
1/2-x,1/2+y,-z
1/2+y,1/2+x,-z
1/2-y,1/2-x,-z
1/2-x,1/2-y,1/2-z
1/2+y,1/2-x,1/2-z
1/2+x,1/2+y,1/2-z
1/2-y,1/2+x,1/2-z
1/2-x,1/2+y,z
1/2+x,1/2-y,z
1/2-y,1/2-x,z
1/2+y,1/2+x,z
loop_
_atom_site_type_symbol
_atom_site_label
_atom_site_fract_x
_atom_site_fract_y
_atom_site_fract_z
Si Si1 0.546762 0.713590 0.671641
Si Si2 0.713921 0.213921 0.818122
Si Si3 0.455567 0.395503 0.665748
Si Si4 0.781125 0.854013 0.818612
O O1 0.500000 0.731032 0.750000
O O2 0.551756 0.731021 0.500000
O O3 0.541017 0.658825 0.659718
O O4 0.593263 0.718693 0.766662
O O5 0.750000 0.250000 0.750000
O O6 0.734558 0.167473 0.750810
O O7 0.713952 0.213952 0.000000
O O8 0.500000 0.413482 0.750000
O O9 0.410215 0.410215 0.750000
O O10 0.453676 0.414644 0.500000
O O11 0.823506 0.823506 0.750000
O O12 0.782569 0.849794 0.000000
#
# Coordination Sequence:
#
# PCOD9572032 Si02
#       4
#    32  16  32  32
#     4  10  20  33  47  64  84 109 139 173 211 254
#     4  10  18  30  46  66  90 114 142 177 216 261
#     4  10  20  32  45  58  74  94 123 161 204 250
#     4  11  20  31  47  67  90 116 145 180 220 263
#
# _framework density 14.711724999999999
#
# number of rings (size 3 to 8) (size 9 to 14) (size 15 to 20)
#    0.000    1.714    0.000    8.143    0.000    6.000 
#    0.000    1.429    0.000    0.000    0.000    0.000 
#    0.000    0.000    0.000    0.000    0.000    0.714 
#
# Total GULP energy -311927.805573 kJ/mol
# GULP energy per Si atom -5570.139385 kJ/mol
# Density = 1.467824 g / cm^3
# Si number density = 14.711725 Si / 1000 Ang^3
#
#
#
# Elastic Constant Matrix: (Units=GPa)
#
#
# Indices 1 2 3 4 5 6 
#
# 1 53.3333 31.5749 41.2261 0.0000 0.0000 0.0000
# 2 31.5749 53.3333 41.2261 0.0000 0.0000 0.0000
# 3 41.2261 41.2261 162.5870 0.0000 0.0000 0.0000
# 4 0.0000 0.0000 0.0000 1.4908 0.0000 0.0000
# 5 0.0000 0.0000 0.0000 0.0000 1.4908 0.0000
# 6 0.0000 0.0000 0.0000 0.0000 0.0000 20.1571
#
#
#
# Elastic Compliance Matrix: (Units=1/GPa)
#
#
# Indices 1 2 3 4 5 6 
#
# 1 0.030792 -0.015167 -0.003962 0.000000 0.000000 0.000000
# 2 -0.015167 0.030792 -0.003962 0.000000 0.000000 0.000000
# 3 -0.003962 -0.003962 0.008160 0.000000 0.000000 0.000000
# 4 0.000000 0.000000 0.000000 0.670761 0.000000 0.000000
# 5 0.000000 0.000000 0.000000 0.000000 0.670761 0.000000
# 6 0.000000 0.000000 0.000000 0.000000 0.000000 0.049610
#
#
# Mechanical properties :
#
#
# Convention : Reuss Voigt Hill
#
# Bulk Modulus (GPa) = 42.44177 55.25642 48.84910
# Shear Modulus (GPa) = 3.30052 14.97618 9.13835
#
# Velocity S-wave (km/s) = 1.49944 3.19403 2.49501
# Velocity P-wave (km/s) = 5.64884 7.15845 6.44798
#
# Compressibility (1/GPa) = 0.02356170
#
# Stress axis : x y z
#
# Youngs Moduli (GPa) = 32.47600 32.47600 122.55328
#
# Poissons Ratio (x) = 0.49257 0.48554
# Poissons Ratio (y) = 0.49257 0.48554
# Poissons Ratio (z) = 0.12867 0.12867
#
# Static dielectric constant tensor:
#      x y z
#    x 1.508390 0.000000 0.000000 
#    y 0.000000 1.508390 0.000000 
#    z 0.000000 0.000000 1.525240 
# 
# From -- ./inp_files/1352.got.cif
#   From: 2010.05.17/outbox.cif.g08.bks.cpg/sg140_1_cif.got.tgz:1352.got - 2010.06.21 00:45:31.
