data_PCOD9572327
_publ_section_title
;
Structure prediction by ZEFSAII (Michael W. Deem and Ramdas Pophale) SiO2 
 PCOD9572327
Probable space group: I 4/M C M
;
_chemical_formula_sum "Si O2"
_cell_formula_units_Z 240
_cell_length_a 22.100988
_cell_length_b 22.100988
_cell_length_c 26.139347
_cell_angle_alpha 90.000000
_cell_angle_beta 90.000000
_cell_angle_gamma 90.000000
_cell_volume 12767.859989
_symmetry_space_group_name_H-M "I 4/M C M"
_symmetry_group_IT_number 140
_symmetry_cell_setting 'tetragonal'
loop_
_space_group_symop_operation_xyz
x,y,z
-y,x,z
-x,-y,z
y,-x,z
x,-y,1/2-z
-x,y,1/2-z
y,x,1/2-z
-y,-x,1/2-z
-x,-y,-z
y,-x,-z
x,y,-z
-y,x,-z
-x,y,1/2+z
x,-y,1/2+z
-y,-x,1/2+z
y,x,1/2+z
1/2+x,1/2+y,1/2+z
1/2-y,1/2+x,1/2+z
1/2-x,1/2-y,1/2+z
1/2+y,1/2-x,1/2+z
1/2+x,1/2-y,-z
1/2-x,1/2+y,-z
1/2+y,1/2+x,-z
1/2-y,1/2-x,-z
1/2-x,1/2-y,1/2-z
1/2+y,1/2-x,1/2-z
1/2+x,1/2+y,1/2-z
1/2-y,1/2+x,1/2-z
1/2-x,1/2+y,z
1/2+x,1/2-y,z
1/2-y,1/2-x,z
1/2+y,1/2+x,z
loop_
_atom_site_type_symbol
_atom_site_label
_atom_site_fract_x
_atom_site_fract_y
_atom_site_fract_z
Si Si1 0.542288 0.863110 0.202738
Si Si2 0.517217 0.815511 0.601202
Si Si3 0.864385 0.733891 0.252087
Si Si4 0.560945 0.581280 0.690146
Si Si5 0.674426 0.275613 0.644706
Si Si6 0.902893 0.789490 0.853630
Si Si7 0.710779 0.109235 0.442683
Si Si8 0.551451 0.051451 0.938547
O O1 0.500000 0.880488 0.250000
O O2 0.579025 0.920976 0.183160
O O3 0.506357 0.831785 0.157770
O O4 0.590987 0.815029 0.223045
O O5 0.557819 0.755394 0.610898
O O6 0.460875 0.801629 0.564713
O O7 0.540568 0.879983 0.580710
O O8 0.802932 0.697069 0.237548
O O9 0.850941 0.781374 0.297570
O O10 0.897085 0.760496 0.202932
O O11 0.488195 0.581060 0.680340
O O12 0.583325 0.583325 0.750000
O O13 0.581707 0.639603 0.657327
O O14 0.719833 0.219833 0.648653
O O15 0.708848 0.334508 0.626537
O O16 0.626370 0.256513 0.602444
O O17 0.732877 0.122651 0.500000
O O18 0.649865 0.149865 0.435465
O O19 0.500000 0.000000 0.922309
O O20 0.550190 0.050190 0.000000
#
# Coordination Sequence:
#
# PCOD9572327 Si02
#       8
#    32  32  32  32  32  32  32  16
#     4  11  22  36  54  83 124 165 203 245 294 365
#     4  12  25  39  63  94 124 163 214 269 320 384
#     4  10  20  36  54  83 124 166 201 239 297 376
#     4   9  20  37  56  83 122 168 214 257 303 364
#     4  10  21  37  60  88 121 159 201 247 309 376
#     4  12  24  34  60  90 131 167 201 255 314 385
#     4  10  21  42  69  90 112 149 204 268 323 377
#     4  11  26  48  72  94 123 172 228 284 343 397
#
# _framework density 18.7972
#
# number of rings (size 3 to 8) (size 9 to 14) (size 15 to 20)
#    0.000    1.400    2.667    3.600    4.667    4.400 
#    0.000    1.333    0.000    0.000    0.000    0.000 
#    0.000    1.067    0.000    0.000    0.000    0.000 
#
# Total GULP energy -668607.140994 kJ/mol
# GULP energy per Si atom -5571.726175 kJ/mol
# Density = 1.875442 g / cm^3
# Si number density = 18.797200 Si / 1000 Ang^3
#
#
#
# Elastic Constant Matrix: (Units=GPa)
#
#
# Indices 1 2 3 4 5 6 
#
# 1 53.9888 17.8601 18.7591 0.0000 0.0000 0.0000
# 2 17.8601 53.9888 18.7591 0.0000 0.0000 0.0000
# 3 18.7591 18.7591 52.0785 0.0000 0.0000 0.0000
# 4 0.0000 0.0000 0.0000 13.1964 0.0000 0.0000
# 5 0.0000 0.0000 0.0000 0.0000 13.1964 0.0000
# 6 0.0000 0.0000 0.0000 0.0000 0.0000 22.7354
#
#
#
# Elastic Compliance Matrix: (Units=1/GPa)
#
#
# Indices 1 2 3 4 5 6 
#
# 1 0.022411 -0.005268 -0.006175 0.000000 0.000000 0.000000
# 2 -0.005268 0.022411 -0.006175 0.000000 0.000000 0.000000
# 3 -0.006175 -0.006175 0.023650 0.000000 0.000000 0.000000
# 4 0.000000 0.000000 0.000000 0.075778 0.000000 0.000000
# 5 0.000000 0.000000 0.000000 0.000000 0.075778 0.000000
# 6 0.000000 0.000000 0.000000 0.000000 0.000000 0.043984
#
#
# Mechanical properties :
#
#
# Convention : Reuss Voigt Hill
#
# Bulk Modulus (GPa) = 30.08806 30.09031 30.08919
# Shear Modulus (GPa) = 16.11203 16.80415 16.45809
#
# Velocity S-wave (km/s) = 2.93089 2.99318 2.96220
# Velocity P-wave (km/s) = 5.24356 5.29038 5.26702
#
# Compressibility (1/GPa) = 0.03323578
#
# Stress axis : x y z
#
# Youngs Moduli (GPa) = 44.62162 44.62162 42.28277
#
# Poissons Ratio (x) = 0.23507 0.26109
# Poissons Ratio (y) = 0.23507 0.26109
# Poissons Ratio (z) = 0.27553 0.27553
#
# Static dielectric constant tensor:
#      x y z
#    x 1.695280 0.000000 0.000000 
#    y 0.000000 1.695280 0.000000 
#    z 0.000000 0.000000 1.665960 
# 
# From -- ./inp_files/10971.got.cif
#   From: 2010.05.17/outbox.cif.g08.bks.cpg/sg140_6_cif.got.tgz:10971.got - 2010.06.21 00:45:31.
