data_PCOD9572038
_publ_section_title
;
Structure prediction by ZEFSAII (Michael W. Deem and Ramdas Pophale) SiO2 
 PCOD9572038
Probable space group: I 4/M C M
;
_chemical_formula_sum "Si O2"
_cell_formula_units_Z 112
_cell_length_a 19.517979
_cell_length_b 19.517979
_cell_length_c 16.042910
_cell_angle_alpha 90.000000
_cell_angle_beta 90.000000
_cell_angle_gamma 90.000000
_cell_volume 6111.570697
_symmetry_space_group_name_H-M "I 4/M C M"
_symmetry_group_IT_number 140
_symmetry_cell_setting 'tetragonal'
loop_
_space_group_symop_operation_xyz
x,y,z
-y,x,z
-x,-y,z
y,-x,z
x,-y,1/2-z
-x,y,1/2-z
y,x,1/2-z
-y,-x,1/2-z
-x,-y,-z
y,-x,-z
x,y,-z
-y,x,-z
-x,y,1/2+z
x,-y,1/2+z
-y,-x,1/2+z
y,x,1/2+z
1/2+x,1/2+y,1/2+z
1/2-y,1/2+x,1/2+z
1/2-x,1/2-y,1/2+z
1/2+y,1/2-x,1/2+z
1/2+x,1/2-y,-z
1/2-x,1/2+y,-z
1/2+y,1/2+x,-z
1/2-y,1/2-x,-z
1/2-x,1/2-y,1/2-z
1/2+y,1/2-x,1/2-z
1/2+x,1/2+y,1/2-z
1/2-y,1/2+x,1/2-z
1/2-x,1/2+y,z
1/2+x,1/2-y,z
1/2-y,1/2-x,z
1/2+y,1/2+x,z
loop_
_atom_site_type_symbol
_atom_site_label
_atom_site_fract_x
_atom_site_fract_y
_atom_site_fract_z
Si Si1 0.555753 0.944248 0.898866
Si Si2 0.785728 0.531033 0.398421
Si Si3 0.728309 0.120720 0.903749
Si Si4 0.666953 0.718423 0.162417
O O1 0.539312 0.865943 0.875879
O O2 0.500000 0.000000 0.868491
O O3 0.553222 0.946779 0.000000
O O4 0.780163 0.537570 0.500000
O O5 0.764448 0.455166 0.369046
O O6 0.739959 0.590523 0.358681
O O7 0.667949 0.167949 0.864748
O O8 0.796572 0.165871 0.900397
O O9 0.709324 0.109911 0.000000
O O10 0.681298 0.681298 0.250000
O O11 0.712482 0.787519 0.160755
#
# Coordination Sequence:
#
# PCOD9572038 Si02
#       4
#    16  32  32  32
#     4   9  16  26  45  76 108 132 164 208 260 317
#     4  10  18  30  51  76 102 136 173 218 268 314
#     4   9  18  32  51  76 105 133 167 215 268 320
#     4  10  20  33  49  72 100 140 182 217 255 309
#
# _framework density 18.325894999999999
#
# number of rings (size 3 to 8) (size 9 to 14) (size 15 to 20)
#    0.000    2.429    1.429    1.714    0.000    5.714 
#    0.000    0.000    0.000    0.857    0.000    6.000 
#    0.000    0.000    0.000    0.000    0.000    0.286 
#
# Total GULP energy -312141.213599 kJ/mol
# GULP energy per Si atom -5573.950243 kJ/mol
# Density = 1.828418 g / cm^3
# Si number density = 18.325895 Si / 1000 Ang^3
#
#
#
# Elastic Constant Matrix: (Units=GPa)
#
#
# Indices 1 2 3 4 5 6 
#
# 1 136.8335 106.0195 22.3008 0.0000 0.0000 0.0000
# 2 106.0195 136.8335 22.3007 0.0000 0.0000 0.0000
# 3 22.3008 22.3007 22.8859 0.0000 0.0000 0.0000
# 4 0.0000 0.0000 0.0000 14.1102 0.0000 0.0000
# 5 0.0000 0.0000 0.0000 0.0000 14.1102 0.0000
# 6 0.0000 0.0000 0.0000 0.0000 0.0000 23.4769
#
#
#
# Elastic Compliance Matrix: (Units=1/GPa)
#
#
# Indices 1 2 3 4 5 6 
#
# 1 0.018734 -0.013719 -0.004887 0.000000 0.000000 0.000000
# 2 -0.013719 0.018734 -0.004887 0.000000 0.000000 0.000000
# 3 -0.004887 -0.004887 0.053219 0.000000 0.000000 0.000000
# 4 0.000000 0.000000 0.000000 0.070871 0.000000 0.000000
# 5 0.000000 0.000000 0.000000 0.000000 0.070871 0.000000
# 6 0.000000 0.000000 0.000000 0.000000 0.000000 0.042595
#
#
# Mechanical properties :
#
#
# Convention : Reuss Voigt Hill
#
# Bulk Modulus (GPa) = 22.88249 66.42166 44.65207
# Shear Modulus (GPa) = 14.85544 20.06822 17.46183
#
# Velocity S-wave (km/s) = 2.85024 3.31278 3.09018
# Velocity P-wave (km/s) = 4.83170 7.13835 6.09514
#
# Compressibility (1/GPa) = 0.04370154
#
# Stress axis : x y z
#
# Youngs Moduli (GPa) = 53.37874 53.37888 18.79024
#
# Poissons Ratio (x) = 0.73229 0.09183
# Poissons Ratio (y) = 0.73229 0.09183
# Poissons Ratio (z) = 0.26087 0.26086
#
# Static dielectric constant tensor:
#      x y z
#    x 1.619510 0.000000 0.000000 
#    y 0.000000 1.619510 0.000000 
#    z 0.000000 0.000000 1.760280 
# 
# From -- ./inp_files/6072.got.cif
#   From: 2010.05.17/outbox.cif.g08.bks.cpg/sg140_4_cif.got.tgz:6072.got - 2010.06.21 00:45:31.
