data_PCOD9572682
_publ_section_title
;
Structure prediction by ZEFSAII (Michael W. Deem and Ramdas Pophale) SiO2 
 PCOD9572682
Probable space group: I 4/M C M
;
_chemical_formula_sum "Si O2"
_cell_formula_units_Z 96
_cell_length_a 14.491223
_cell_length_b 14.491223
_cell_length_c 19.928594
_cell_angle_alpha 90.000000
_cell_angle_beta 90.000000
_cell_angle_gamma 90.000000
_cell_volume 4184.915939
_symmetry_space_group_name_H-M "I 4/M C M"
_symmetry_group_IT_number 140
_symmetry_cell_setting 'tetragonal'
loop_
_space_group_symop_operation_xyz
x,y,z
-y,x,z
-x,-y,z
y,-x,z
x,-y,1/2-z
-x,y,1/2-z
y,x,1/2-z
-y,-x,1/2-z
-x,-y,-z
y,-x,-z
x,y,-z
-y,x,-z
-x,y,1/2+z
x,-y,1/2+z
-y,-x,1/2+z
y,x,1/2+z
1/2+x,1/2+y,1/2+z
1/2-y,1/2+x,1/2+z
1/2-x,1/2-y,1/2+z
1/2+y,1/2-x,1/2+z
1/2+x,1/2-y,-z
1/2-x,1/2+y,-z
1/2+y,1/2+x,-z
1/2-y,1/2-x,-z
1/2-x,1/2-y,1/2-z
1/2+y,1/2-x,1/2-z
1/2+x,1/2+y,1/2-z
1/2-y,1/2+x,1/2-z
1/2-x,1/2+y,z
1/2+x,1/2-y,z
1/2-y,1/2-x,z
1/2+y,1/2+x,z
loop_
_atom_site_type_symbol
_atom_site_label
_atom_site_fract_x
_atom_site_fract_y
_atom_site_fract_z
Si Si1 0.827913 0.327913 0.763794
Si Si2 0.928101 0.571900 0.140565
Si Si3 0.646668 0.697941 0.575532
Si Si4 0.531069 0.756781 0.126286
O O1 0.750000 0.250000 0.750000
O O2 0.874326 0.374326 0.699231
O O3 0.782446 0.410778 0.807317
O O4 0.853086 0.512361 0.100740
O O5 0.000000 0.500000 0.170843
O O6 0.609327 0.706117 0.500000
O O7 0.717047 0.782954 0.587102
O O8 0.562172 0.696169 0.627883
O O9 0.706703 0.606092 0.581323
#
# Coordination Sequence:
#
# PCOD9572682 Si02
#       4
#    16  16  32  32
#     4  12  26  44  70 108 147 193 237 297 372 437
#     4  12  24  40  70 108 139 191 240 302 363 439
#     4  11  24  45  70 104 143 188 239 304 368 428
#     4  12  24  44  71 102 146 187 244 297 368 433
#
# _framework density 22.939530000000001
#
# number of rings (size 3 to 8) (size 9 to 14) (size 15 to 20)
#    0.000    0.333    5.000    4.000    2.333    0.667 
#    0.000    1.667    0.000    8.000    0.000    0.000 
#    0.000    0.000    0.000    0.000    0.000    0.000 
#
# Total GULP energy -268207.040491 kJ/mol
# GULP energy per Si atom -5587.646677 kJ/mol
# Density = 2.288732 g / cm^3
# Si number density = 22.939530 Si / 1000 Ang^3
#
#
#
# Elastic Constant Matrix: (Units=GPa)
#
#
# Indices 1 2 3 4 5 6 
#
# 1 151.1334 82.6754 49.0122 0.0000 0.0000 0.0000
# 2 82.6754 151.1334 49.0122 0.0000 0.0000 0.0000
# 3 49.0122 49.0122 68.8870 0.0000 0.0000 0.0000
# 4 0.0000 0.0000 0.0000 30.5730 0.0000 0.0000
# 5 0.0000 0.0000 0.0000 0.0000 30.5730 0.0000
# 6 0.0000 0.0000 0.0000 0.0000 0.0000 67.7518
#
#
#
# Elastic Compliance Matrix: (Units=1/GPa)
#
#
# Indices 1 2 3 4 5 6 
#
# 1 0.010351 -0.004256 -0.004337 0.000000 0.000000 0.000000
# 2 -0.004256 0.010351 -0.004337 0.000000 0.000000 0.000000
# 3 -0.004337 -0.004337 0.020687 0.000000 0.000000 0.000000
# 4 0.000000 0.000000 0.000000 0.032709 0.000000 0.000000
# 5 0.000000 0.000000 0.000000 0.000000 0.032709 0.000000
# 6 0.000000 0.000000 0.000000 0.000000 0.000000 0.014760
#
#
# Mechanical properties :
#
#
# Convention : Reuss Voigt Hill
#
# Bulk Modulus (GPa) = 64.38637 81.39483 72.89060
# Shear Modulus (GPa) = 32.76480 38.47649 35.62065
#
# Velocity S-wave (km/s) = 3.78340 4.09993 3.94484
# Velocity P-wave (km/s) = 6.87127 7.61393 7.25211
#
# Compressibility (1/GPa) = 0.01553124
#
# Stress axis : x y z
#
# Youngs Moduli (GPa) = 96.60623 96.60623 48.33861
#
# Poissons Ratio (x) = 0.41117 0.20963
# Poissons Ratio (y) = 0.41117 0.20963
# Poissons Ratio (z) = 0.41894 0.41894
#
# Static dielectric constant tensor:
#      x y z
#    x 1.898090 0.000000 0.000000 
#    y 0.000000 1.898090 0.000000 
#    z 0.000000 0.000000 1.880000 
# 
# From -- ./inp_files/7690.got.cif
#   From: 2010.05.17/outbox.cif.g08.bks.cpg/sg140_4_cif.got.tgz:7690.got - 2010.06.21 00:45:31.
