data_PCOD9572788
_publ_section_title
;
Structure prediction by ZEFSAII (Michael W. Deem and Ramdas Pophale) SiO2 
 PCOD9572788
Probable space group: I 41/A M D
;
_chemical_formula_sum "Si O2"
_cell_formula_units_Z 176
_cell_length_a 17.971244
_cell_length_b 17.971244
_cell_length_c 32.993269
_cell_angle_alpha 90.000000
_cell_angle_beta 90.000000
_cell_angle_gamma 90.000000
_cell_volume 10655.691278
_symmetry_space_group_name_H-M "I 41/A M D"
_symmetry_group_IT_number 141
_space_group.IT_coordinate_system_code '2'
_symmetry_cell_setting 'tetragonal'
loop_
_space_group_symop_operation_xyz
x,y,z
1/4-y,3/4+x,1/4+z
-x,1/2-y,z
1/4+y,1/4-x,3/4+z
x,-y,-z
-x,1/2+y,-z
1/4+y,3/4+x,1/4-z
1/4-y,1/4-x,3/4-z
-x,-y,-z
3/4+y,1/4-x,3/4-z
x,1/2+y,-z
3/4-y,3/4+x,1/4-z
-x,y,z
x,1/2-y,z
3/4-y,1/4-x,3/4+z
3/4+y,3/4+x,1/4+z
1/2+x,1/2+y,1/2+z
3/4-y,1/4+x,3/4+z
1/2-x,-y,1/2+z
3/4+y,3/4-x,1/4+z
1/2+x,1/2-y,1/2-z
1/2-x,y,1/2-z
3/4+y,1/4+x,3/4-z
3/4-y,3/4-x,1/4-z
1/2-x,1/2-y,1/2-z
1/4+y,3/4-x,1/4-z
1/2+x,y,1/2-z
1/4-y,1/4+x,3/4-z
1/2-x,1/2+y,1/2+z
1/2+x,-y,1/2+z
1/4-y,3/4-x,1/4+z
1/4+y,1/4+x,3/4+z
loop_
_atom_site_type_symbol
_atom_site_label
_atom_site_fract_x
_atom_site_fract_y
_atom_site_fract_z
Si Si1 0.362738 0.948017 0.809912
Si Si2 0.088638 0.023803 0.767535
Si Si3 0.271748 0.051703 0.913859
Si Si4 0.834813 0.335827 0.113392
Si Si5 0.412240 0.662240 0.875000
Si Si6 0.581997 0.340020 0.466316
O O1 0.275543 0.967461 0.811901
O O2 0.375438 0.872582 0.834749
O O3 0.392941 0.958270 0.764745
O O4 0.406378 0.008943 0.837256
O O5 0.113554 0.100206 0.745048
O O6 0.000000 0.026345 0.774320
O O7 0.135609 0.012832 0.807922
O O8 0.352198 0.078487 0.897709
O O9 0.221912 0.028089 0.875000
O O10 0.844015 0.250000 0.126307
O O11 0.897642 0.356672 0.080326
O O12 0.398674 0.750000 0.876941
O O13 0.500000 0.367850 0.477245
O O14 0.581417 0.250000 0.468653
#
# Coordination Sequence:
#
# PCOD9572788 Si02
#       6
#    32  32  32  32  16  32
#     4  10  18  33  53  72 100 140 174 212 256 319
#     4  10  20  34  53  74 103 138 176 220 270 323
#     4  10  20  33  51  75 101 138 175 216 260 329
#     4   9  16  29  51  74  96 126 168 213 258 306
#     4  11  20  30  52  84 110 134 176 227 266 304
#     4   8  15  29  51  76  97 124 166 215 264 317
#
# _framework density 16.516995000000001
#
# number of rings (size 3 to 8) (size 9 to 14) (size 15 to 20)
#    0.000    2.455    2.727    3.273    0.000    0.727 
#    0.000    1.818    0.000   17.455    0.000    0.000 
#    0.000    0.000    0.000    0.000    0.000    0.000 
#
# Total GULP energy -490213.938714 kJ/mol
# GULP energy per Si atom -5570.612940 kJ/mol
# Density = 1.647940 g / cm^3
# Si number density = 16.516995 Si / 1000 Ang^3
#
#
#
# Elastic Constant Matrix: (Units=GPa)
#
#
# Indices 1 2 3 4 5 6 
#
# 1 75.8350 34.3546 39.1167 0.0000 0.0000 0.0000
# 2 34.3546 75.8337 39.1154 0.0000 0.0000 0.0000
# 3 39.1167 39.1154 52.6280 0.0000 0.0000 0.0000
# 4 0.0000 0.0000 0.0000 16.8544 0.0000 0.0000
# 5 0.0000 0.0000 0.0000 0.0000 16.8540 0.0000
# 6 0.0000 0.0000 0.0000 0.0000 0.0000 14.8702
#
#
#
# Elastic Compliance Matrix: (Units=1/GPa)
#
#
# Indices 1 2 3 4 5 6 
#
# 1 0.021662 -0.002447 -0.014282 0.000000 0.000000 0.000000
# 2 -0.002447 0.021661 -0.014281 0.000000 0.000000 0.000000
# 3 -0.014282 -0.014281 0.040231 0.000000 0.000000 0.000000
# 4 0.000000 0.000000 0.000000 0.059332 0.000000 0.000000
# 5 0.000000 0.000000 0.000000 0.000000 0.059333 0.000000
# 6 0.000000 0.000000 0.000000 0.000000 0.000000 0.067249
#
#
# Mechanical properties :
#
#
# Convention : Reuss Voigt Hill
#
# Bulk Modulus (GPa) = 46.43709 47.71892 47.07800
# Shear Modulus (GPa) = 14.76380 15.82971 15.29675
#
# Velocity S-wave (km/s) = 2.99298 3.09914 3.04653
# Velocity P-wave (km/s) = 6.33401 6.46218 6.39842
#
# Compressibility (1/GPa) = 0.02153451
#
# Stress axis : x y z
#
# Youngs Moduli (GPa) = 46.16430 46.16492 24.85630
#
# Poissons Ratio (x) = 0.11294 0.35500
# Poissons Ratio (y) = 0.11294 0.35498
# Poissons Ratio (z) = 0.65932 0.65930
#
# Static dielectric constant tensor:
#      x y z
#    x 1.575030 0.000000 0.000000 
#    y 0.000000 1.575030 0.000000 
#    z 0.000000 0.000000 1.552700 
# 
# From -- ./inp_files/14343.got.cif
#   From: 2010.05.17/outbox.cif.g08.bks.cpg/sg141_8_cif.got.tgz:14343.got - 2010.05.20 13:30:51.
