data_PCOD9572247
_publ_section_title
;
Structure prediction by ZEFSAII (Michael W. Deem and Ramdas Pophale) SiO2 
 PCOD9572247
Probable space group: I 4/M C M
;
_chemical_formula_sum "Si O2"
_cell_formula_units_Z 176
_cell_length_a 19.517995
_cell_length_b 19.517995
_cell_length_c 26.107525
_cell_angle_alpha 90.000000
_cell_angle_beta 90.000000
_cell_angle_gamma 90.000000
_cell_volume 9945.717227
_symmetry_space_group_name_H-M "I 4/M C M"
_symmetry_group_IT_number 140
_symmetry_cell_setting 'tetragonal'
loop_
_space_group_symop_operation_xyz
x,y,z
-y,x,z
-x,-y,z
y,-x,z
x,-y,1/2-z
-x,y,1/2-z
y,x,1/2-z
-y,-x,1/2-z
-x,-y,-z
y,-x,-z
x,y,-z
-y,x,-z
-x,y,1/2+z
x,-y,1/2+z
-y,-x,1/2+z
y,x,1/2+z
1/2+x,1/2+y,1/2+z
1/2-y,1/2+x,1/2+z
1/2-x,1/2-y,1/2+z
1/2+y,1/2-x,1/2+z
1/2+x,1/2-y,-z
1/2-x,1/2+y,-z
1/2+y,1/2+x,-z
1/2-y,1/2-x,-z
1/2-x,1/2-y,1/2-z
1/2+y,1/2-x,1/2-z
1/2+x,1/2+y,1/2-z
1/2-y,1/2+x,1/2-z
1/2-x,1/2+y,z
1/2+x,1/2-y,z
1/2-y,1/2-x,z
1/2+y,1/2+x,z
loop_
_atom_site_type_symbol
_atom_site_label
_atom_site_fract_x
_atom_site_fract_y
_atom_site_fract_z
Si Si1 0.858443 0.243041 0.779638
Si Si2 0.290152 0.097073 0.409269
Si Si3 0.300372 0.539741 0.500000
Si Si4 0.500000 0.202018 0.250000
Si Si5 0.496465 0.888273 0.650052
Si Si6 0.318176 0.295879 0.888743
Si Si7 0.666739 0.381984 0.000000
O O1 0.812152 0.187849 0.750000
O O2 0.813544 0.313544 0.779306
O O3 0.930363 0.254067 0.750912
O O4 0.865701 0.218184 0.839113
O O5 0.345528 0.154473 0.426933
O O6 0.244867 0.063681 0.452636
O O7 0.333800 0.035452 0.385452
O O8 0.234594 0.141098 0.376707
O O9 0.314367 0.460533 0.500000
O O10 0.368403 0.585548 0.500000
O O11 0.512175 0.152270 0.297754
O O12 0.551658 0.948342 0.657779
O O13 0.426293 0.926293 0.633079
O O14 0.270573 0.229428 0.892965
O O15 0.349931 0.307504 0.945520
#
# Coordination Sequence:
#
# PCOD9572247 Si02
#       7
#    32  32  16  16  32  32  16
#     4  10  21  37  57  84 114 150 196 243 289 345
#     4   9  18  35  58  80 107 145 183 226 280 341
#     4  10  21  36  57  80 109 141 186 228 283 341
#     4  12  22  33  54  79 110 148 188 232 288 334
#     4  10  20  33  50  77 112 148 184 221 271 341
#     4   9  18  35  58  82 111 144 192 245 288 335
#     4  10  21  36  55  85 111 145 184 238 295 347
#
# _framework density 17.696059000000002
#
# number of rings (size 3 to 8) (size 9 to 14) (size 15 to 20)
#    0.000    2.182    0.000    3.273    2.545    6.000 
#    0.000    1.364    0.000    2.455    0.000    0.000 
#    0.000    0.000    0.000    0.000    0.000    0.000 
#
# Total GULP energy -489927.465820 kJ/mol
# GULP energy per Si atom -5567.357566 kJ/mol
# Density = 1.765578 g / cm^3
# Si number density = 17.696059 Si / 1000 Ang^3
#
#
#
# Elastic Constant Matrix: (Units=GPa)
#
#
# Indices 1 2 3 4 5 6 
#
# 1 -880.9833 -937.6038 156.5832 0.0000 0.0000 0.0000
# 2 -937.6038 -880.7863 156.5705 0.0000 0.0000 0.0000
# 3 156.5832 156.5705 22.9536 0.0000 0.0000 0.0000
# 4 0.0000 0.0000 0.0000 27.2282 0.0000 0.0000
# 5 0.0000 0.0000 0.0000 0.0000 27.2283 0.0000
# 6 0.0000 0.0000 0.0000 0.0000 0.0000 22.5545
#
#
#
# Elastic Compliance Matrix: (Units=1/GPa)
#
#
# Indices 1 2 3 4 5 6 
#
# 1 0.008688 -0.008942 0.001726 0.000000 0.000000 0.000000
# 2 -0.008942 0.008690 0.001724 0.000000 0.000000 0.000000
# 3 0.001726 0.001724 0.020033 0.000000 0.000000 0.000000
# 4 0.000000 0.000000 0.000000 0.036727 0.000000 0.000000
# 5 0.000000 0.000000 0.000000 0.000000 0.036726 0.000000
# 6 0.000000 0.000000 0.000000 0.000000 0.000000 0.044337
#
#
# Mechanical properties :
#
#
# Convention : Reuss Voigt Hill
#
# Bulk Modulus (GPa) = 37.83981 -331.96846 -147.06432
# Shear Modulus (GPa) = 28.57233 -58.88887 -15.15827
#
# Velocity S-wave (km/s) = 4.02259 -5.77496 -2.92993
# Velocity P-wave (km/s) = 6.55779 15.24693 9.73304
#
# Compressibility (1/GPa) = 0.02642719
#
# Stress axis : x y z
#
# Youngs Moduli (GPa) = 115.09940 115.07758 49.91700
#
# Poissons Ratio (x) = 1.02900 -0.08614
# Poissons Ratio (y) = 1.02920 -0.08606
# Poissons Ratio (z) = -0.19862 -0.19841
#
# Static dielectric constant tensor:
#      x y z
#    x 1.601390 0.000000 0.000000 
#    y 0.000000 1.601390 0.000000 
#    z 0.000000 0.000000 1.655380 
# 
# From -- ./inp_files/11585.got.cif
#   From: 2010.05.17/outbox.cif.g08.bks.cpg/sg140_6_cif.got.tgz:11585.got - 2010.06.21 00:45:31.
