data_PCOD9572391
_publ_section_title
;
Structure prediction by ZEFSAII (Michael W. Deem and Ramdas Pophale) SiO2 
 PCOD9572391
Probable space group: I 4/M C M
;
_chemical_formula_sum "Si O2"
_cell_formula_units_Z 176
_cell_length_a 29.125482
_cell_length_b 29.125482
_cell_length_c 13.853564
_cell_angle_alpha 90.000000
_cell_angle_beta 90.000000
_cell_angle_gamma 90.000000
_cell_volume 11751.891088
_symmetry_space_group_name_H-M "I 4/M C M"
_symmetry_group_IT_number 140
_symmetry_cell_setting 'tetragonal'
loop_
_space_group_symop_operation_xyz
x,y,z
-y,x,z
-x,-y,z
y,-x,z
x,-y,1/2-z
-x,y,1/2-z
y,x,1/2-z
-y,-x,1/2-z
-x,-y,-z
y,-x,-z
x,y,-z
-y,x,-z
-x,y,1/2+z
x,-y,1/2+z
-y,-x,1/2+z
y,x,1/2+z
1/2+x,1/2+y,1/2+z
1/2-y,1/2+x,1/2+z
1/2-x,1/2-y,1/2+z
1/2+y,1/2-x,1/2+z
1/2+x,1/2-y,-z
1/2-x,1/2+y,-z
1/2+y,1/2+x,-z
1/2-y,1/2-x,-z
1/2-x,1/2-y,1/2-z
1/2+y,1/2-x,1/2-z
1/2+x,1/2+y,1/2-z
1/2-y,1/2+x,1/2-z
1/2-x,1/2+y,z
1/2+x,1/2-y,z
1/2-y,1/2-x,z
1/2+y,1/2+x,z
loop_
_atom_site_type_symbol
_atom_site_label
_atom_site_fract_x
_atom_site_fract_y
_atom_site_fract_z
Si Si1 0.807465 0.500000 0.750000
Si Si2 0.285200 0.348426 0.211026
Si Si3 0.273403 0.773403 0.891423
Si Si4 0.722017 0.147155 0.607123
Si Si5 0.569683 0.142992 0.388714
Si Si6 0.078302 0.275312 0.116274
Si Si7 0.851620 0.648381 0.108041
O O1 0.839814 0.529974 0.680410
O O2 0.777055 0.467301 0.680576
O O3 0.335971 0.335971 0.250000
O O4 0.267032 0.300974 0.161312
O O5 0.256366 0.359543 0.306594
O O6 0.268614 0.389207 0.140051
O O7 0.312601 0.812601 0.897298
O O8 0.260497 0.760497 0.000000
O O9 0.742748 0.147006 0.500000
O O10 0.694851 0.194851 0.622041
O O11 0.683344 0.107884 0.609702
O O12 0.554173 0.137112 0.500000
O O13 0.597070 0.097070 0.358570
O O14 0.106048 0.322205 0.148522
O O15 0.071355 0.277643 0.000000
O O16 0.865462 0.634539 0.000000
#
# Coordination Sequence:
#
# PCOD9572391 Si02
#       7
#    16  32  16  32  32  32  16
#     4  12  20  30  58  71  86 120 154 191 246 296
#     4  11  19  29  42  61  89 124 154 186 224 270
#     4   9  17  27  40  60  89 122 152 185 222 265
#     4   9  17  29  43  60  86 116 146 184 226 268
#     4   9  19  34  49  69  93 113 141 190 243 289
#     4  10  21  34  48  70  95 118 154 198 237 283
#     4   7  14  29  45  60  89 119 142 182 234 279
#
# _framework density 14.976312999999999
#
# number of rings (size 3 to 8) (size 9 to 14) (size 15 to 20)
#    0.000    2.364    2.727    3.545    1.273    1.455 
#    0.000    0.000    0.000    0.273    0.000    1.273 
#    0.000    0.000    0.000    0.000    0.000    0.455 
#
# Total GULP energy -489978.072074 kJ/mol
# GULP energy per Si atom -5567.932637 kJ/mol
# Density = 1.494223 g / cm^3
# Si number density = 14.976313 Si / 1000 Ang^3
#
#
#
# Elastic Constant Matrix: (Units=GPa)
#
#
# Indices 1 2 3 4 5 6 
#
# 1 36.5717 35.4797 27.8171 0.0000 0.0000 0.0000
# 2 35.4797 36.5718 27.8171 0.0000 0.0000 0.0000
# 3 27.8171 27.8171 88.6253 0.0000 0.0000 0.0000
# 4 0.0000 0.0000 0.0000 22.5640 0.0000 0.0000
# 5 0.0000 0.0000 0.0000 0.0000 22.5640 0.0000
# 6 0.0000 0.0000 0.0000 0.0000 0.0000 12.7041
#
#
#
# Elastic Compliance Matrix: (Units=1/GPa)
#
#
# Indices 1 2 3 4 5 6 
#
# 1 0.466990 -0.448670 -0.005750 0.000000 0.000000 0.000000
# 2 -0.448670 0.466988 -0.005750 0.000000 0.000000 0.000000
# 3 -0.005750 -0.005750 0.014893 0.000000 0.000000 0.000000
# 4 0.000000 0.000000 0.000000 0.044318 0.000000 0.000000
# 5 0.000000 0.000000 0.000000 0.000000 0.044318 0.000000
# 6 0.000000 0.000000 0.000000 0.000000 0.000000 0.078715
#
#
# Mechanical properties :
#
#
# Convention : Reuss Voigt Hill
#
# Bulk Modulus (GPa) = 35.04941 38.22183 36.63562
# Shear Modulus (GPa) = 2.44371 16.27674 9.36022
#
# Velocity S-wave (km/s) = 1.27877 3.30029 2.50272
# Velocity P-wave (km/s) = 5.06304 6.33242 5.73297
#
# Compressibility (1/GPa) = 0.02853115
#
# Stress axis : x y z
#
# Youngs Moduli (GPa) = 2.14137 2.14138 67.14651
#
# Poissons Ratio (x) = 0.96077 0.38608
# Poissons Ratio (y) = 0.96077 0.38606
# Poissons Ratio (z) = 0.01231 0.01231
#
# Static dielectric constant tensor:
#      x y z
#    x 1.515540 0.000000 0.000000 
#    y 0.000000 1.515540 0.000000 
#    z 0.000000 0.000000 1.561050 
# 
# From -- ./inp_files/5170.got.cif
#   From: 2010.05.17/outbox.cif.g08.bks.cpg/sg140_3_cif.got.tgz:5170.got - 2010.06.21 00:45:31.
