data_PCOD9572064
_publ_section_title
;
Structure prediction by ZEFSAII (Michael W. Deem and Ramdas Pophale) SiO2 
 PCOD9572064
Probable space group: I 4/M C M
;
_chemical_formula_sum "Si O2"
_cell_formula_units_Z 112
_cell_length_a 13.256796
_cell_length_b 13.256796
_cell_length_c 32.326101
_cell_angle_alpha 90.000000
_cell_angle_beta 90.000000
_cell_angle_gamma 90.000000
_cell_volume 5681.074337
_symmetry_space_group_name_H-M "I 4/M C M"
_symmetry_group_IT_number 140
_symmetry_cell_setting 'tetragonal'
loop_
_space_group_symop_operation_xyz
x,y,z
-y,x,z
-x,-y,z
y,-x,z
x,-y,1/2-z
-x,y,1/2-z
y,x,1/2-z
-y,-x,1/2-z
-x,-y,-z
y,-x,-z
x,y,-z
-y,x,-z
-x,y,1/2+z
x,-y,1/2+z
-y,-x,1/2+z
y,x,1/2+z
1/2+x,1/2+y,1/2+z
1/2-y,1/2+x,1/2+z
1/2-x,1/2-y,1/2+z
1/2+y,1/2-x,1/2+z
1/2+x,1/2-y,-z
1/2-x,1/2+y,-z
1/2+y,1/2+x,-z
1/2-y,1/2-x,-z
1/2-x,1/2-y,1/2-z
1/2+y,1/2-x,1/2-z
1/2+x,1/2+y,1/2-z
1/2-y,1/2+x,1/2-z
1/2-x,1/2+y,z
1/2+x,1/2-y,z
1/2-y,1/2-x,z
1/2+y,1/2+x,z
loop_
_atom_site_type_symbol
_atom_site_label
_atom_site_fract_x
_atom_site_fract_y
_atom_site_fract_z
Si Si1 0.227888 0.558632 0.162475
Si Si2 0.500000 0.828525 0.250000
Si Si3 0.415591 0.915591 0.107153
Si Si4 0.907042 0.135502 0.090580
Si Si5 0.276415 0.776415 0.951533
O O1 0.154661 0.654661 0.164981
O O2 0.236011 0.516229 0.208669
O O3 0.165827 0.476770 0.134971
O O4 0.326927 0.594735 0.138092
O O5 0.595638 0.904363 0.255522
O O6 0.352165 0.852165 0.073269
O O7 0.500000 0.000000 0.093524
O O8 0.837827 0.204800 0.062875
O O9 0.024694 0.133823 0.081747
O O10 0.289747 0.789747 0.000000
#
# Coordination Sequence:
#
# PCOD9572064 Si02
#       5
#    32  16  16  32  16
#     4  10  18  35  64  95 134 175 217 267 325 380
#     4   9  16  28  56 103 138 170 220 273 311 382
#     4  10  20  39  67  97 128 166 217 275 326 374
#     4  11  24  43  66  91 128 176 213 262 331 398
#     4  12  26  45  69  96 125 165 222 276 331 402
#
# _framework density 19.714580999999999
#
# number of rings (size 3 to 8) (size 9 to 14) (size 15 to 20)
#    0.000    1.571    5.714    0.000    0.000    1.429 
#    0.000    2.857    0.000    6.857    0.000    0.000 
#    0.000    0.000    0.000    0.000    0.000    0.000 
#
# Total GULP energy -312311.263044 kJ/mol
# GULP energy per Si atom -5576.986840 kJ/mol
# Density = 1.966971 g / cm^3
# Si number density = 19.714581 Si / 1000 Ang^3
#
#
#
# Elastic Constant Matrix: (Units=GPa)
#
#
# Indices 1 2 3 4 5 6 
#
# 1 87.6631 34.6837 41.4771 0.0000 0.0000 0.0000
# 2 34.6837 87.6631 41.4771 0.0000 0.0000 0.0000
# 3 41.4771 41.4771 124.0962 0.0000 0.0000 0.0000
# 4 0.0000 0.0000 0.0000 28.2760 0.0000 0.0000
# 5 0.0000 0.0000 0.0000 0.0000 28.2760 0.0000
# 6 0.0000 0.0000 0.0000 0.0000 0.0000 5.0859
#
#
#
# Elastic Compliance Matrix: (Units=1/GPa)
#
#
# Indices 1 2 3 4 5 6 
#
# 1 0.014722 -0.004153 -0.003532 0.000000 0.000000 0.000000
# 2 -0.004153 0.014722 -0.003532 0.000000 0.000000 0.000000
# 3 -0.003532 -0.003532 0.010420 0.000000 0.000000 0.000000
# 4 0.000000 0.000000 0.000000 0.035366 0.000000 0.000000
# 5 0.000000 0.000000 0.000000 0.000000 0.035366 0.000000
# 6 0.000000 0.000000 0.000000 0.000000 0.000000 0.196624
#
#
# Mechanical properties :
#
#
# Convention : Reuss Voigt Hill
#
# Bulk Modulus (GPa) = 57.38178 59.41094 58.39636
# Shear Modulus (GPa) = 14.90476 24.44656 19.67566
#
# Velocity S-wave (km/s) = 2.75258 3.52522 3.16258
# Velocity P-wave (km/s) = 6.26671 6.83890 6.55905
#
# Compressibility (1/GPa) = 0.01742714
#
# Stress axis : x y z
#
# Youngs Moduli (GPa) = 67.92611 67.92611 95.97368
#
# Poissons Ratio (x) = 0.28212 0.33901
# Poissons Ratio (y) = 0.28212 0.33901
# Poissons Ratio (z) = 0.23994 0.23994
#
# Static dielectric constant tensor:
#      x y z
#    x 1.714240 0.000000 0.000000 
#    y 0.000000 1.714240 0.000000 
#    z 0.000000 0.000000 1.681660 
# 
# From -- ./inp_files/10321.got.cif
#   From: 2010.05.17/outbox.cif.g08.bks.cpg/sg140_6_cif.got.tgz:10321.got - 2010.06.21 00:45:31.
