data_PCOD9572218
_publ_section_title
;
Structure prediction by ZEFSAII (Michael W. Deem and Ramdas Pophale) SiO2 
 PCOD9572218
Probable space group: I 4/M C M
;
_chemical_formula_sum "Si O2"
_cell_formula_units_Z 160
_cell_length_a 19.354272
_cell_length_b 19.354272
_cell_length_c 25.924544
_cell_angle_alpha 90.000000
_cell_angle_beta 90.000000
_cell_angle_gamma 90.000000
_cell_volume 9711.019060
_symmetry_space_group_name_H-M "I 4/M C M"
_symmetry_group_IT_number 140
_symmetry_cell_setting 'tetragonal'
loop_
_space_group_symop_operation_xyz
x,y,z
-y,x,z
-x,-y,z
y,-x,z
x,-y,1/2-z
-x,y,1/2-z
y,x,1/2-z
-y,-x,1/2-z
-x,-y,-z
y,-x,-z
x,y,-z
-y,x,-z
-x,y,1/2+z
x,-y,1/2+z
-y,-x,1/2+z
y,x,1/2+z
1/2+x,1/2+y,1/2+z
1/2-y,1/2+x,1/2+z
1/2-x,1/2-y,1/2+z
1/2+y,1/2-x,1/2+z
1/2+x,1/2-y,-z
1/2-x,1/2+y,-z
1/2+y,1/2+x,-z
1/2-y,1/2-x,-z
1/2-x,1/2-y,1/2-z
1/2+y,1/2-x,1/2-z
1/2+x,1/2+y,1/2-z
1/2-y,1/2+x,1/2-z
1/2-x,1/2+y,z
1/2+x,1/2-y,z
1/2-y,1/2-x,z
1/2+y,1/2+x,z
loop_
_atom_site_type_symbol
_atom_site_label
_atom_site_fract_x
_atom_site_fract_y
_atom_site_fract_z
Si Si1 0.986446 0.700937 0.306249
Si Si2 0.450969 0.399074 0.437895
Si Si3 0.826421 0.326421 0.793086
Si Si4 0.584125 0.254206 0.109390
Si Si5 0.285927 0.785927 0.177557
Si Si6 0.942469 0.442469 0.332736
Si Si7 0.390191 0.890191 0.058676
O O1 0.904866 0.688889 0.309335
O O2 0.000000 0.733293 0.250000
O O3 0.017345 0.742278 0.354378
O O4 0.029041 0.628391 0.308462
O O5 0.531146 0.410559 0.422479
O O6 0.449414 0.396023 0.500000
O O7 0.420509 0.328861 0.415790
O O8 0.772125 0.272125 0.816175
O O9 0.814830 0.314830 0.731800
O O10 0.649877 0.245227 0.146504
O O11 0.592895 0.190749 0.069148
O O12 0.928321 0.428321 0.393575
O O13 0.000000 0.500000 0.325772
O O14 0.408815 0.908815 0.000000
#
# Coordination Sequence:
#
# PCOD9572218 Si02
#       7
#    32  32  16  32  16  16  16
#     4  11  20  33  52  77 105 138 176 218 257 303
#     4   9  19  36  58  81 102 128 170 225 275 315
#     4  11  21  35  52  72 113 146 174 214 264 307
#     4  10  20  34  54  80 103 134 182 212 258 321
#     4  10  22  36  49  77 112 143 176 210 258 320
#     4  10  20  30  49  78 100 130 176 218 251 302
#     4   9  19  34  51  72 103 138 167 208 263 316
#
# _framework density 16.476129
#
# number of rings (size 3 to 8) (size 9 to 14) (size 15 to 20)
#    0.000    2.000    3.000    2.400    2.800    0.200 
#    0.000    0.000    0.000    0.000    0.000    1.400 
#    0.000    0.000    0.000    0.000    0.000    0.000 
#
# Total GULP energy -446132.331679 kJ/mol
# GULP energy per Si atom -5576.654146 kJ/mol
# Density = 1.643863 g / cm^3
# Si number density = 16.476129 Si / 1000 Ang^3
#
#
#
# Elastic Constant Matrix: (Units=GPa)
#
#
# Indices 1 2 3 4 5 6 
#
# 1 84.1630 28.5960 16.8068 0.0000 0.0000 0.0000
# 2 28.5960 84.1630 16.8068 0.0000 0.0000 0.0000
# 3 16.8068 16.8068 63.6191 0.0000 0.0000 0.0000
# 4 0.0000 0.0000 0.0000 20.1326 0.0000 0.0000
# 5 0.0000 0.0000 0.0000 0.0000 20.1326 0.0000
# 6 0.0000 0.0000 0.0000 0.0000 0.0000 23.2497
#
#
#
# Elastic Compliance Matrix: (Units=1/GPa)
#
#
# Indices 1 2 3 4 5 6 
#
# 1 0.013811 -0.004185 -0.002543 0.000000 0.000000 0.000000
# 2 -0.004185 0.013811 -0.002543 0.000000 0.000000 0.000000
# 3 -0.002543 -0.002543 0.017062 0.000000 0.000000 0.000000
# 4 0.000000 0.000000 0.000000 0.049671 0.000000 0.000000
# 5 0.000000 0.000000 0.000000 0.000000 0.049671 0.000000
# 6 0.000000 0.000000 0.000000 0.000000 0.000000 0.043011
#
#
# Mechanical properties :
#
#
# Convention : Reuss Voigt Hill
#
# Bulk Modulus (GPa) = 38.25136 39.59601 38.92369
# Shear Modulus (GPa) = 23.33239 24.01867 23.67553
#
# Velocity S-wave (km/s) = 3.76724 3.82224 3.79484
# Velocity P-wave (km/s) = 6.49534 6.60029 6.54802
#
# Compressibility (1/GPa) = 0.02614286
#
# Stress axis : x y z
#
# Youngs Moduli (GPa) = 72.40373 72.40373 58.60896
#
# Poissons Ratio (x) = 0.30300 0.14905
# Poissons Ratio (y) = 0.30300 0.14905
# Poissons Ratio (z) = 0.18413 0.18413
#
# Static dielectric constant tensor:
#      x y z
#    x 1.542260 0.000000 0.000000 
#    y 0.000000 1.542260 0.000000 
#    z 0.000000 0.000000 1.550170 
# 
# From -- ./inp_files/10648.got.cif
#   From: 2010.05.17/outbox.cif.g08.bks.cpg/sg140_6_cif.got.tgz:10648.got - 2010.06.21 00:45:31.
