data_PCOD9572458
_publ_section_title
;
Structure prediction by ZEFSAII (Michael W. Deem and Ramdas Pophale) SiO2 
 PCOD9572458
Probable space group: I 4/M C M
;
_chemical_formula_sum "Si O2"
_cell_formula_units_Z 160
_cell_length_a 24.448068
_cell_length_b 24.448068
_cell_length_c 13.891345
_cell_angle_alpha 90.000000
_cell_angle_beta 90.000000
_cell_angle_gamma 90.000000
_cell_volume 8302.968439
_symmetry_space_group_name_H-M "I 4/M C M"
_symmetry_group_IT_number 140
_symmetry_cell_setting 'tetragonal'
loop_
_space_group_symop_operation_xyz
x,y,z
-y,x,z
-x,-y,z
y,-x,z
x,-y,1/2-z
-x,y,1/2-z
y,x,1/2-z
-y,-x,1/2-z
-x,-y,-z
y,-x,-z
x,y,-z
-y,x,-z
-x,y,1/2+z
x,-y,1/2+z
-y,-x,1/2+z
y,x,1/2+z
1/2+x,1/2+y,1/2+z
1/2-y,1/2+x,1/2+z
1/2-x,1/2-y,1/2+z
1/2+y,1/2-x,1/2+z
1/2+x,1/2-y,-z
1/2-x,1/2+y,-z
1/2+y,1/2+x,-z
1/2-y,1/2-x,-z
1/2-x,1/2-y,1/2-z
1/2+y,1/2-x,1/2-z
1/2+x,1/2+y,1/2-z
1/2-y,1/2+x,1/2-z
1/2-x,1/2+y,z
1/2+x,1/2-y,z
1/2-y,1/2-x,z
1/2+y,1/2+x,z
loop_
_atom_site_type_symbol
_atom_site_label
_atom_site_fract_x
_atom_site_fract_y
_atom_site_fract_z
Si Si1 0.922146 0.336017 0.816659
Si Si2 0.646525 0.353476 0.250000
Si Si3 0.041617 0.695948 0.391581
Si Si4 0.999922 0.092624 0.000000
Si Si5 0.534441 0.678074 0.344866
Si Si6 0.748144 0.664657 0.612284
O O1 0.895696 0.395696 0.830560
O O2 0.923958 0.322841 0.701973
O O3 0.881622 0.292983 0.866335
O O4 0.981089 0.326131 0.864170
O O5 0.652229 0.408520 0.311090
O O6 0.651552 0.303273 0.322956
O O7 0.057089 0.677838 0.500000
O O8 0.042099 0.762273 0.391486
O O9 0.003530 0.133722 0.909977
O O10 0.947472 0.052961 0.000000
O O11 0.500000 0.689539 0.250000
O O12 0.733842 0.664505 0.500000
O O13 0.777739 0.722262 0.635136
#
# Coordination Sequence:
#
# PCOD9572458 Si02
#       6
#    32  16  32  16  32  32
#     4  10  21  40  63  92 129 165 204 255 314 377
#     4  12  23  38  62  89 124 162 212 264 316 379
#     4  11  21  38  64  94 126 161 210 260 308 375
#     4  11  26  44  62  86 122 164 214 275 330 374
#     4  12  23  41  61  92 118 161 213 263 317 370
#     4  10  21  37  58  87 125 166 206 252 315 387
#
# _framework density 19.270216999999999
#
# number of rings (size 3 to 8) (size 9 to 14) (size 15 to 20)
#    0.000    1.100    5.000    2.100    1.400    1.600 
#    1.800    1.000    0.000    4.800    0.000    5.600 
#    0.000    0.000    0.000    0.000    0.000    0.000 
#
# Total GULP energy -446798.040411 kJ/mol
# GULP energy per Si atom -5584.975505 kJ/mol
# Density = 1.922636 g / cm^3
# Si number density = 19.270217 Si / 1000 Ang^3
#
#
#
# Elastic Constant Matrix: (Units=GPa)
#
#
# Indices 1 2 3 4 5 6 
#
# 1 25.9650 11.6073 -9.9078 0.0000 0.0000 0.0000
# 2 11.6073 25.9650 -9.9098 0.0000 0.0000 0.0000
# 3 -9.9078 -9.9098 75.2156 0.0000 0.0000 0.0000
# 4 0.0000 0.0000 0.0000 34.2284 0.0000 0.0000
# 5 0.0000 0.0000 0.0000 0.0000 34.2203 0.0000
# 6 0.0000 0.0000 0.0000 0.0000 0.0000 -253.7060
#
#
#
# Elastic Compliance Matrix: (Units=1/GPa)
#
#
# Indices 1 2 3 4 5 6 
#
# 1 0.049125 -0.020523 0.003767 0.000000 0.000000 0.000000
# 2 -0.020523 0.049126 0.003769 0.000000 0.000000 0.000000
# 3 0.003767 0.003769 0.014288 0.000000 0.000000 0.000000
# 4 0.000000 0.000000 0.000000 0.029216 0.000000 0.000000
# 5 0.000000 0.000000 0.000000 0.000000 0.029222 0.000000
# 6 0.000000 0.000000 0.000000 0.000000 0.000000 -0.003942
#
#
# Mechanical properties :
#
#
# Convention : Reuss Voigt Hill
#
# Bulk Modulus (GPa) = 11.55186 12.30276 11.92731
# Shear Modulus (GPa) = 22.53624 -28.02772 -2.74574
#
# Velocity S-wave (km/s) = 3.42348 -3.81787 -1.19497
# Velocity P-wave (km/s) = 4.65131 3.61063 2.07340
#
# Compressibility (1/GPa) = 0.08656615
#
# Stress axis : x y z
#
# Youngs Moduli (GPa) = 20.35607 20.35568 69.98918
#
# Poissons Ratio (x) = 0.41776 -0.26366
# Poissons Ratio (y) = 0.41777 -0.26379
# Poissons Ratio (z) = -0.07668 -0.07672
#
# Static dielectric constant tensor:
#      x y z
#    x 1.679460 0.000000 0.000000 
#    y 0.000000 1.679460 0.000000 
#    z 0.000000 0.000000 1.656350 
# 
# From -- ./inp_files/4838.got.cif
#   From: 2010.05.17/outbox.cif.g08.bks.cpg/sg140_3_cif.got.tgz:4838.got - 2010.06.21 00:45:31.
