data_PCOD9572048
_publ_section_title
;
Structure prediction by ZEFSAII (Michael W. Deem and Ramdas Pophale) SiO2 
 PCOD9572048
Probable space group: I 4/M C M
;
_chemical_formula_sum "Si O2"
_cell_formula_units_Z 152
_cell_length_a 24.522529
_cell_length_b 24.522529
_cell_length_c 15.444855
_cell_angle_alpha 90.000000
_cell_angle_beta 90.000000
_cell_angle_gamma 90.000000
_cell_volume 9287.831953
_symmetry_space_group_name_H-M "I 4/M C M"
_symmetry_group_IT_number 140
_symmetry_cell_setting 'tetragonal'
loop_
_space_group_symop_operation_xyz
x,y,z
-y,x,z
-x,-y,z
y,-x,z
x,-y,1/2-z
-x,y,1/2-z
y,x,1/2-z
-y,-x,1/2-z
-x,-y,-z
y,-x,-z
x,y,-z
-y,x,-z
-x,y,1/2+z
x,-y,1/2+z
-y,-x,1/2+z
y,x,1/2+z
1/2+x,1/2+y,1/2+z
1/2-y,1/2+x,1/2+z
1/2-x,1/2-y,1/2+z
1/2+y,1/2-x,1/2+z
1/2+x,1/2-y,-z
1/2-x,1/2+y,-z
1/2+y,1/2+x,-z
1/2-y,1/2-x,-z
1/2-x,1/2-y,1/2-z
1/2+y,1/2-x,1/2-z
1/2+x,1/2+y,1/2-z
1/2-y,1/2+x,1/2-z
1/2-x,1/2+y,z
1/2+x,1/2-y,z
1/2-y,1/2-x,z
1/2+y,1/2+x,z
loop_
_atom_site_type_symbol
_atom_site_label
_atom_site_fract_x
_atom_site_fract_y
_atom_site_fract_z
Si Si1 0.682699 0.006384 0.599256
Si Si2 0.651969 0.151969 0.000000
Si Si3 0.290473 0.299620 0.895846
Si Si4 0.592600 0.000000 0.750000
Si Si5 0.876160 0.287143 0.846663
Si Si6 0.399756 0.771688 0.148807
O O1 0.666232 0.995166 0.500000
O O2 0.705580 0.067245 0.605197
O O3 0.631831 0.000494 0.665678
O O4 0.728978 0.964060 0.631234
O O5 0.621107 0.187013 0.924127
O O6 0.238441 0.261560 0.868257
O O7 0.344041 0.268971 0.863488
O O8 0.280495 0.360612 0.862996
O O9 0.289778 0.299942 0.000000
O O10 0.552953 0.947048 0.749786
O O11 0.834373 0.334373 0.874237
O O12 0.889036 0.292721 0.745195
#
# Coordination Sequence:
#
# PCOD9572048 Si02
#       6
#    32   8  32  16  32  32
#     4  12  25  38  57  77 106 140 180 227 276 321
#     4  12  20  32  58  76 103 132 190 222 259 320
#     4  10  18  32  52  79 107 132 170 212 266 328
#     4  11  26  42  56  72  98 136 186 235 272 316
#     4  11  22  35  54  77 108 140 171 219 276 328
#     4  12  20  35  54  79 102 136 179 221 263 325
#
# _framework density 16.365499
#
# number of rings (size 3 to 8) (size 9 to 14) (size 15 to 20)
#    0.000    0.737    6.316    1.895    1.474    4.632 
#    0.000    1.053    0.000    0.000    0.000    0.000 
#    0.000    0.842    0.000    8.421    0.000    5.053 
#
# Total GULP energy -423179.299669 kJ/mol
# GULP energy per Si atom -5568.148680 kJ/mol
# Density = 1.632825 g / cm^3
# Si number density = 16.365499 Si / 1000 Ang^3
#
#
#
# Elastic Constant Matrix: (Units=GPa)
#
#
# Indices 1 2 3 4 5 6 
#
# 1 85.0361 67.5925 27.9575 0.0000 0.0000 0.0000
# 2 67.5925 85.0361 27.9575 0.0000 0.0000 0.0000
# 3 27.9575 27.9575 84.1235 0.0000 0.0000 0.0000
# 4 0.0000 0.0000 0.0000 22.7857 0.0000 0.0000
# 5 0.0000 0.0000 0.0000 0.0000 22.7857 0.0000
# 6 0.0000 0.0000 0.0000 0.0000 0.0000 20.4834
#
#
#
# Elastic Compliance Matrix: (Units=1/GPa)
#
#
# Indices 1 2 3 4 5 6 
#
# 1 0.032394 -0.024934 -0.002479 0.000000 0.000000 0.000000
# 2 -0.024934 0.032394 -0.002479 0.000000 0.000000 0.000000
# 3 -0.002479 -0.002479 0.013535 0.000000 0.000000 0.000000
# 4 0.000000 0.000000 0.000000 0.043887 0.000000 0.000000
# 5 0.000000 0.000000 0.000000 0.000000 0.043887 0.000000
# 6 0.000000 0.000000 0.000000 0.000000 0.000000 0.048820
#
#
# Mechanical properties :
#
#
# Convention : Reuss Voigt Hill
#
# Bulk Modulus (GPa) = 53.94236 55.69010 54.81623
# Shear Modulus (GPa) = 17.80110 21.92349 19.86230
#
# Velocity S-wave (km/s) = 3.30164 3.66405 3.48755
# Velocity P-wave (km/s) = 6.89688 7.21132 7.05586
#
# Compressibility (1/GPa) = 0.01853831
#
# Stress axis : x y z
#
# Youngs Moduli (GPa) = 30.87006 30.87006 73.88136
#
# Poissons Ratio (x) = 0.76971 0.18317
# Poissons Ratio (y) = 0.76971 0.18317
# Poissons Ratio (z) = 0.07654 0.07654
#
# Static dielectric constant tensor:
#      x y z
#    x 1.574050 0.000000 0.000000 
#    y 0.000000 1.574050 0.000000 
#    z 0.000000 0.000000 1.573400 
# 
# From -- ./inp_files/4843.got.cif
#   From: 2010.05.17/outbox.cif.g08.bks.cpg/sg140_3_cif.got.tgz:4843.got - 2010.06.21 00:45:31.
