data_PCOD9572341
_publ_section_title
;
Structure prediction by ZEFSAII (Michael W. Deem and Ramdas Pophale) SiO2 
 PCOD9572341
Probable space group: I 4/M C M
;
_chemical_formula_sum "Si O2"
_cell_formula_units_Z 160
_cell_length_a 29.478838
_cell_length_b 29.478838
_cell_length_c 9.733942
_cell_angle_alpha 90.000000
_cell_angle_beta 90.000000
_cell_angle_gamma 90.000000
_cell_volume 8458.813993
_symmetry_space_group_name_H-M "I 4/M C M"
_symmetry_group_IT_number 140
_symmetry_cell_setting 'tetragonal'
loop_
_space_group_symop_operation_xyz
x,y,z
-y,x,z
-x,-y,z
y,-x,z
x,-y,1/2-z
-x,y,1/2-z
y,x,1/2-z
-y,-x,1/2-z
-x,-y,-z
y,-x,-z
x,y,-z
-y,x,-z
-x,y,1/2+z
x,-y,1/2+z
-y,-x,1/2+z
y,x,1/2+z
1/2+x,1/2+y,1/2+z
1/2-y,1/2+x,1/2+z
1/2-x,1/2-y,1/2+z
1/2+y,1/2-x,1/2+z
1/2+x,1/2-y,-z
1/2-x,1/2+y,-z
1/2+y,1/2+x,-z
1/2-y,1/2-x,-z
1/2-x,1/2-y,1/2-z
1/2+y,1/2-x,1/2-z
1/2+x,1/2+y,1/2-z
1/2-y,1/2+x,1/2-z
1/2-x,1/2+y,z
1/2+x,1/2-y,z
1/2-y,1/2-x,z
1/2+y,1/2+x,z
loop_
_atom_site_type_symbol
_atom_site_label
_atom_site_fract_x
_atom_site_fract_y
_atom_site_fract_z
Si Si1 0.558542 0.780637 0.148964
Si Si2 0.000000 0.203630 0.250000
Si Si3 0.387080 0.040935 0.157133
Si Si4 0.716863 0.216863 0.333241
Si Si5 0.408904 0.652184 0.840862
Si Si6 0.249341 0.866550 0.159800
O O1 0.521466 0.740510 0.145638
O O2 0.543229 0.832468 0.162367
O O3 0.586817 0.770549 0.285972
O O4 0.583243 0.777783 0.000000
O O5 0.041785 0.171991 0.201907
O O6 0.411701 0.088300 0.194223
O O7 0.403460 0.000000 0.250000
O O8 0.398632 0.031029 0.000000
O O9 0.750000 0.250000 0.250000
O O10 0.719414 0.219414 0.500000
O O11 0.731556 0.168852 0.269833
O O12 0.388145 0.611856 0.750000
O O13 0.374728 0.695370 0.829453
O O14 0.410615 0.638690 0.000000
O O15 0.259946 0.855907 0.000000
#
# Coordination Sequence:
#
# PCOD9572341 Si02
#       6
#    32  16  32  16  32  32
#     4  10  20  36  60  87 117 154 197 250 307 360
#     4  10  20  38  64  91 121 160 204 248 296 360
#     4  10  22  39  59  85 117 153 198 250 309 374
#     4  12  24  38  56  78 112 158 205 248 297 356
#     4  10  22  38  60  90 123 158 200 248 300 361
#     4  10  22  38  56  83 118 156 201 248 300 364
#
# _framework density 18.915182000000001
#
# number of rings (size 3 to 8) (size 9 to 14) (size 15 to 20)
#    0.000    1.800    1.000    2.700    1.400    8.600 
#    0.000    1.000    0.000    0.300    0.000    1.400 
#    0.000    0.000    0.000    0.000    0.000    0.000 
#
# Total GULP energy -445364.777472 kJ/mol
# GULP energy per Si atom -5567.059718 kJ/mol
# Density = 1.887213 g / cm^3
# Si number density = 18.915182 Si / 1000 Ang^3
#
#
#
# Elastic Constant Matrix: (Units=GPa)
#
#
# Indices 1 2 3 4 5 6 
#
# 1 90.1205 58.7886 64.3822 0.0000 0.0000 0.0000
# 2 58.7886 90.1209 64.3860 0.0000 0.0000 0.0000
# 3 64.3822 64.3860 150.3649 0.0000 0.0000 0.0000
# 4 0.0000 0.0000 0.0000 16.8215 0.0000 0.0000
# 5 0.0000 0.0000 0.0000 0.0000 16.8210 0.0000
# 6 0.0000 0.0000 0.0000 0.0000 0.0000 25.3895
#
#
#
# Elastic Compliance Matrix: (Units=1/GPa)
#
#
# Indices 1 2 3 4 5 6 
#
# 1 0.021290 -0.010626 -0.004566 0.000000 0.000000 0.000000
# 2 -0.010626 0.021291 -0.004567 0.000000 0.000000 0.000000
# 3 -0.004566 -0.004567 0.010561 0.000000 0.000000 0.000000
# 4 0.000000 0.000000 0.000000 0.059448 0.000000 0.000000
# 5 0.000000 0.000000 0.000000 0.000000 0.059449 0.000000
# 6 0.000000 0.000000 0.000000 0.000000 0.000000 0.039386
#
#
# Mechanical properties :
#
#
# Convention : Reuss Voigt Hill
#
# Bulk Modulus (GPa) = 73.39880 78.41333 75.90606
# Shear Modulus (GPa) = 19.57077 21.34303 20.45690
#
# Velocity S-wave (km/s) = 3.22010 3.36274 3.29220
# Velocity P-wave (km/s) = 7.26043 7.52480 7.39380
#
# Compressibility (1/GPa) = 0.01362420
#
# Stress axis : x y z
#
# Youngs Moduli (GPa) = 46.97119 46.96909 94.68925
#
# Poissons Ratio (x) = 0.49909 0.43231
# Poissons Ratio (y) = 0.49912 0.43243
# Poissons Ratio (z) = 0.21445 0.21450
#
# Static dielectric constant tensor:
#      x y z
#    x 1.698740 0.000000 0.000000 
#    y 0.000000 1.698740 0.000000 
#    z 0.000000 0.000000 1.669080 
# 
# From -- ./inp_files/1854.got.cif
#   From: 2010.05.17/outbox.cif.g08.bks.cpg/sg140_1_cif.got.tgz:1854.got - 2010.06.21 00:45:31.
