data_PCOD9572110
_publ_section_title
;
Structure prediction by ZEFSAII (Michael W. Deem and Ramdas Pophale) SiO2 
 PCOD9572110
Probable space group: I 4/M C M
;
_chemical_formula_sum "Si O2"
_cell_formula_units_Z 160
_cell_length_a 29.774879
_cell_length_b 29.774879
_cell_length_c 10.339844
_cell_angle_alpha 90.000000
_cell_angle_beta 90.000000
_cell_angle_gamma 90.000000
_cell_volume 9166.720656
_symmetry_space_group_name_H-M "I 4/M C M"
_symmetry_group_IT_number 140
_symmetry_cell_setting 'tetragonal'
loop_
_space_group_symop_operation_xyz
x,y,z
-y,x,z
-x,-y,z
y,-x,z
x,-y,1/2-z
-x,y,1/2-z
y,x,1/2-z
-y,-x,1/2-z
-x,-y,-z
y,-x,-z
x,y,-z
-y,x,-z
-x,y,1/2+z
x,-y,1/2+z
-y,-x,1/2+z
y,x,1/2+z
1/2+x,1/2+y,1/2+z
1/2-y,1/2+x,1/2+z
1/2-x,1/2-y,1/2+z
1/2+y,1/2-x,1/2+z
1/2+x,1/2-y,-z
1/2-x,1/2+y,-z
1/2+y,1/2+x,-z
1/2-y,1/2-x,-z
1/2-x,1/2-y,1/2-z
1/2+y,1/2-x,1/2-z
1/2+x,1/2+y,1/2-z
1/2-y,1/2+x,1/2-z
1/2-x,1/2+y,z
1/2+x,1/2-y,z
1/2-y,1/2-x,z
1/2+y,1/2+x,z
loop_
_atom_site_type_symbol
_atom_site_label
_atom_site_fract_x
_atom_site_fract_y
_atom_site_fract_z
Si Si1 0.296468 0.448969 0.252764
Si Si2 0.663880 0.743775 0.500000
Si Si3 0.589553 0.664077 0.500000
Si Si4 0.626451 0.219571 0.258834
Si Si5 0.763604 0.829582 0.000000
Si Si6 0.044521 0.544521 0.163639
Si Si7 0.338511 0.591335 0.000000
Si Si8 0.620494 0.879507 0.845214
O O1 0.280896 0.500000 0.250000
O O2 0.254182 0.415224 0.257562
O O3 0.327370 0.437655 0.374959
O O4 0.325766 0.438659 0.126818
O O5 0.628194 0.702575 0.500000
O O6 0.653016 0.772649 0.373843
O O7 0.711242 0.717943 0.500000
O O8 0.613900 0.616191 0.500000
O O9 0.659579 0.234549 0.374046
O O10 0.609696 0.169304 0.285021
O O11 0.802528 0.867666 0.000000
O O12 0.058099 0.500000 0.250000
O O13 0.082651 0.582651 0.176161
O O14 0.038102 0.538102 0.000000
O O15 0.625497 0.874504 0.000000
#
# Coordination Sequence:
#
# PCOD9572110 Si02
#       8
#    32  16  16  32  16  16  16  16
#     4  10  19  31  51  77 108 139 176 226 274 326
#     4   9  18  32  51  79 102 146 195 242 271 295
#     4   9  17  31  48  72 108 136 180 225 269 320
#     4  10  20  35  52  76 112 148 190 230 277 330
#     4   9  16  32  55  71 104 150 197 230 267 319
#     4  10  22  45  74  99 116 137 181 232 281 339
#     4   9  17  29  50  74 100 146 176 217 273 318
#     4  11  23  41  61  83 119 155 182 217 273 342
#
# _framework density 17.454443000000001
#
# number of rings (size 3 to 8) (size 9 to 14) (size 15 to 20)
#    0.000    2.300    1.000    2.400    0.000    6.000 
#    3.600    3.000    0.000    0.000    0.000    0.000 
#    0.000   28.000    0.000    0.000    0.000    0.000 
#
# Total GULP energy -445818.693632 kJ/mol
# GULP energy per Si atom -5572.733670 kJ/mol
# Density = 1.741472 g / cm^3
# Si number density = 17.454443 Si / 1000 Ang^3
#
#
#
# Elastic Constant Matrix: (Units=GPa)
#
#
# Indices 1 2 3 4 5 6 
#
# 1 -2396.0046 2563.0675 60.6423 0.0000 0.0000 0.0000
# 2 2563.0675-2395.9494 60.6576 0.0000 0.0000 0.0000
# 3 60.6423 60.6576 177.2294 0.0000 0.0000 0.0000
# 4 0.0000 0.0000 0.0000 -4.2832 0.0000 0.0000
# 5 0.0000 0.0000 0.0000 0.0000 -4.2831 0.0000
# 6 0.0000 0.0000 0.0000 0.0000 0.0000 36.7004
#
#
#
# Elastic Compliance Matrix: (Units=1/GPa)
#
#
# Indices 1 2 3 4 5 6 
#
# 1 0.003881 0.004082 -0.002725 0.000000 0.000000 0.000000
# 2 0.004082 0.003881 -0.002725 0.000000 0.000000 0.000000
# 3 -0.002725 -0.002725 0.007507 0.000000 0.000000 0.000000
# 4 0.000000 0.000000 0.000000 -0.233471 0.000000 0.000000
# 5 0.000000 0.000000 0.000000 0.000000 -0.233476 0.000000
# 6 0.000000 0.000000 0.000000 0.000000 0.000000 0.027248
#
#
# Mechanical properties :
#
#
# Convention : Reuss Voigt Hill
#
# Bulk Modulus (GPa) = 79.78691 83.77891 81.78291
# Shear Modulus (GPa) = -11.97557 -480.97932 -246.47745
#
# Velocity S-wave (km/s) = -2.62220 -16.61809 -11.89615
# Velocity P-wave (km/s) = 6.05333 17.89167 11.90523
#
# Compressibility (1/GPa) = 0.01253338
#
# Stress axis : x y z
#
# Youngs Moduli (GPa) = 257.68845 257.68367 133.20036
#
# Poissons Ratio (x) = -1.05195 0.36298
# Poissons Ratio (y) = -1.05197 0.36298
# Poissons Ratio (z) = 0.70221 0.70220
#
# Static dielectric constant tensor:
#      x y z
#    x 1.586520 0.000000 0.000000 
#    y 0.000000 1.586520 0.000000 
#    z 0.000000 0.000000 1.598780 
# 
# From -- ./inp_files/1935.got.cif
#   From: 2010.05.17/outbox.cif.g08.bks.cpg/sg140_1_cif.got.tgz:1935.got - 2010.06.21 00:45:31.
