data_PCOD9572050
_publ_section_title
;
Structure prediction by ZEFSAII (Michael W. Deem and Ramdas Pophale) SiO2 
 PCOD9572050
Probable space group: I 4/M C M
;
_chemical_formula_sum "Si O2"
_cell_formula_units_Z 144
_cell_length_a 20.665082
_cell_length_b 20.665082
_cell_length_c 14.830126
_cell_angle_alpha 90.000000
_cell_angle_beta 90.000000
_cell_angle_gamma 90.000000
_cell_volume 6333.140264
_symmetry_space_group_name_H-M "I 4/M C M"
_symmetry_group_IT_number 140
_symmetry_cell_setting 'tetragonal'
loop_
_space_group_symop_operation_xyz
x,y,z
-y,x,z
-x,-y,z
y,-x,z
x,-y,1/2-z
-x,y,1/2-z
y,x,1/2-z
-y,-x,1/2-z
-x,-y,-z
y,-x,-z
x,y,-z
-y,x,-z
-x,y,1/2+z
x,-y,1/2+z
-y,-x,1/2+z
y,x,1/2+z
1/2+x,1/2+y,1/2+z
1/2-y,1/2+x,1/2+z
1/2-x,1/2-y,1/2+z
1/2+y,1/2-x,1/2+z
1/2+x,1/2-y,-z
1/2-x,1/2+y,-z
1/2+y,1/2+x,-z
1/2-y,1/2-x,-z
1/2-x,1/2-y,1/2-z
1/2+y,1/2-x,1/2-z
1/2+x,1/2+y,1/2-z
1/2-y,1/2+x,1/2-z
1/2-x,1/2+y,z
1/2+x,1/2-y,z
1/2-y,1/2-x,z
1/2+y,1/2+x,z
loop_
_atom_site_type_symbol
_atom_site_label
_atom_site_fract_x
_atom_site_fract_y
_atom_site_fract_z
Si Si1 0.151133 0.651133 0.890273
Si Si2 0.752015 0.747986 0.106996
Si Si3 0.499660 0.672044 0.351432
Si Si4 0.552920 0.052920 0.110257
Si Si5 0.855154 0.860219 0.641658
Si Si6 0.685567 0.005436 0.390654
O O1 0.201397 0.701397 0.849925
O O2 0.169527 0.578966 0.866253
O O3 0.154559 0.654559 0.000000
O O4 0.820136 0.787933 0.123976
O O5 0.751135 0.748866 0.000000
O O6 0.500000 0.644533 0.250000
O O7 0.425972 0.667634 0.389134
O O8 0.565771 0.645009 0.394043
O O9 0.515223 0.747915 0.348462
O O10 0.624356 0.035448 0.139016
O O11 0.500000 0.000000 0.139188
O O12 0.551391 0.051391 0.000000
O O13 0.859354 0.859354 0.750000
O O14 0.691206 0.001537 0.500000
#
# Coordination Sequence:
#
# PCOD9572050 Si02
#       6
#    16  16  32  16  32  32
#     4   9  16  28  53  81 104 141 186 223 265 328
#     4  11  21  36  61  91 116 149 195 237 282 344
#     4  10  22  39  58  81 110 147 191 239 292 341
#     4   9  16  27  49  79 108 141 181 222 268 328
#     4  10  22  40  61  86 116 152 193 240 291 344
#     4  10  18  32  54  80 109 144 188 231 275 336
#
# _framework density 22.737535000000001
#
# number of rings (size 3 to 8) (size 9 to 14) (size 15 to 20)
#    0.000    2.111    3.333    0.333    0.000    2.222 
#    0.000    5.556    0.000    0.000    0.000    3.111 
#    0.000    0.000    0.000    0.000    0.000    0.000 
#
# Total GULP energy -400891.021837 kJ/mol
# GULP energy per Si atom -5567.930859 kJ/mol
# Density = 2.268578 g / cm^3
# Si number density = 22.737535 Si / 1000 Ang^3
#
#
#
# Elastic Constant Matrix: (Units=GPa)
#
#
# Indices 1 2 3 4 5 6 
#
# 1 -156.9780 324.6754 0.5630 0.0000 0.0000 0.0000
# 2 324.6754 -156.9797 0.5566 0.0000 0.0000 0.0000
# 3 0.5630 0.5566 58.8277 0.0000 0.0000 0.0000
# 4 0.0000 0.0000 0.0000 13.1555 0.0000 0.0000
# 5 0.0000 0.0000 0.0000 0.0000 13.1555 0.0000
# 6 0.0000 0.0000 0.0000 0.0000 0.0000 35.4578
#
#
#
# Elastic Compliance Matrix: (Units=1/GPa)
#
#
# Indices 1 2 3 4 5 6 
#
# 1 0.001944 0.004020 -0.000057 0.000000 0.000000 0.000000
# 2 0.004020 0.001944 -0.000057 0.000000 0.000000 0.000000
# 3 -0.000057 -0.000057 0.017000 0.000000 0.000000 0.000000
# 4 0.000000 0.000000 0.000000 0.076014 0.000000 0.000000
# 5 0.000000 0.000000 0.000000 0.000000 0.076014 0.000000
# 6 0.000000 0.000000 0.000000 0.000000 0.000000 0.028203
#
#
# Mechanical properties :
#
#
# Convention : Reuss Voigt Hill
#
# Bulk Modulus (GPa) = 34.84328 44.05111 39.44719
# Shear Modulus (GPa) = 24.64616 -26.37457 -0.86421
#
# Velocity S-wave (km/s) = 3.29590 -3.40951 -0.61718
# Velocity P-wave (km/s) = 5.46272 1.97892 4.10837
#
# Compressibility (1/GPa) = 0.02869994
#
# Stress axis : x y z
#
# Youngs Moduli (GPa) = 514.48642 514.49166 58.82400
#
# Poissons Ratio (x) = -2.06818 0.00333
# Poissons Ratio (y) = -2.06816 0.00334
# Poissons Ratio (z) = 0.02914 0.02925
#
# Static dielectric constant tensor:
#      x y z
#    x 1.886750 0.000000 0.000000 
#    y 0.000000 1.886750 0.000000 
#    z 0.000000 0.000000 1.875800 
# 
# From -- ./inp_files/8405.got.cif
#   From: 2010.05.17/outbox.cif.g08.bks.cpg/sg140_5_cif.got.tgz:8405.got - 2010.06.21 00:45:31.
