data_PCOD9572435
_publ_section_title
;
Structure prediction by ZEFSAII (Michael W. Deem and Ramdas Pophale) SiO2 
 PCOD9572435
Probable space group: I 4/M C M
;
_chemical_formula_sum "Si O2"
_cell_formula_units_Z 160
_cell_length_a 22.076080
_cell_length_b 22.076080
_cell_length_c 15.956444
_cell_angle_alpha 90.000000
_cell_angle_beta 90.000000
_cell_angle_gamma 90.000000
_cell_volume 7776.425770
_symmetry_space_group_name_H-M "I 4/M C M"
_symmetry_group_IT_number 140
_symmetry_cell_setting 'tetragonal'
loop_
_space_group_symop_operation_xyz
x,y,z
-y,x,z
-x,-y,z
y,-x,z
x,-y,1/2-z
-x,y,1/2-z
y,x,1/2-z
-y,-x,1/2-z
-x,-y,-z
y,-x,-z
x,y,-z
-y,x,-z
-x,y,1/2+z
x,-y,1/2+z
-y,-x,1/2+z
y,x,1/2+z
1/2+x,1/2+y,1/2+z
1/2-y,1/2+x,1/2+z
1/2-x,1/2-y,1/2+z
1/2+y,1/2-x,1/2+z
1/2+x,1/2-y,-z
1/2-x,1/2+y,-z
1/2+y,1/2+x,-z
1/2-y,1/2-x,-z
1/2-x,1/2-y,1/2-z
1/2+y,1/2-x,1/2-z
1/2+x,1/2+y,1/2-z
1/2-y,1/2+x,1/2-z
1/2-x,1/2+y,z
1/2+x,1/2-y,z
1/2-y,1/2-x,z
1/2+y,1/2+x,z
loop_
_atom_site_type_symbol
_atom_site_label
_atom_site_fract_x
_atom_site_fract_y
_atom_site_fract_z
Si Si1 0.257496 0.654864 0.161597
Si Si2 0.591277 0.460567 0.398730
Si Si3 0.159607 0.436690 0.600512
Si Si4 0.427734 0.168307 0.599229
Si Si5 0.117195 0.202481 0.152567
O O1 0.211694 0.711694 0.169839
O O2 0.220192 0.601243 0.118800
O O3 0.278073 0.630908 0.252197
O O4 0.319021 0.676950 0.117486
O O5 0.577136 0.530442 0.377280
O O6 0.598729 0.457562 0.500000
O O7 0.649746 0.432100 0.355914
O O8 0.153878 0.439969 0.500000
O O9 0.103476 0.396525 0.632765
O O10 0.161622 0.504655 0.634749
O O11 0.431927 0.156576 0.500000
O O12 0.379042 0.120959 0.635557
O O13 0.404728 0.236440 0.609414
#
# Coordination Sequence:
#
# PCOD9572435 Si02
#       5
#    32  32  32  32  32
#     4  10  22  40  58  82 117 156 197 240 295 353
#     4   9  20  39  60  85 120 158 195 238 288 344
#     4   9  20  39  61  85 114 153 199 244 294 355
#     4  10  21  36  57  88 120 150 191 242 296 355
#     4  11  21  36  59  85 116 152 192 238 292 348
#
# _framework density 20.575005000000001
#
# number of rings (size 3 to 8) (size 9 to 14) (size 15 to 20)
#    0.000    2.200    0.000    3.600    2.800    2.800 
#    3.600    4.000    0.000    4.800    0.000    2.800 
#    0.000    0.000    0.000    0.000    0.000    0.000 
#
# Total GULP energy -446768.216215 kJ/mol
# GULP energy per Si atom -5584.602703 kJ/mol
# Density = 2.052817 g / cm^3
# Si number density = 20.575005 Si / 1000 Ang^3
#
#
#
# Elastic Constant Matrix: (Units=GPa)
#
#
# Indices 1 2 3 4 5 6 
#
# 1 162.2725 82.0714 10.2267 0.0000 0.0000 0.0000
# 2 82.0714 162.2725 10.2267 0.0000 0.0000 0.0000
# 3 10.2267 10.2267 14.2438 0.0000 0.0000 0.0000
# 4 0.0000 0.0000 0.0000 28.9827 0.0000 0.0000
# 5 0.0000 0.0000 0.0000 0.0000 28.9827 0.0000
# 6 0.0000 0.0000 0.0000 0.0000 0.0000 30.1590
#
#
#
# Elastic Compliance Matrix: (Units=1/GPa)
#
#
# Indices 1 2 3 4 5 6 
#
# 1 0.008411 -0.004057 -0.003126 0.000000 0.000000 0.000000
# 2 -0.004057 0.008411 -0.003126 0.000000 0.000000 0.000000
# 3 -0.003126 -0.003126 0.074695 0.000000 0.000000 0.000000
# 4 0.000000 0.000000 0.000000 0.034503 0.000000 0.000000
# 5 0.000000 0.000000 0.000000 0.000000 0.034503 0.000000
# 6 0.000000 0.000000 0.000000 0.000000 0.000000 0.033158
#
#
# Mechanical properties :
#
#
# Convention : Reuss Voigt Hill
#
# Bulk Modulus (GPa) = 14.10466 60.42648 37.26557
# Shear Modulus (GPa) = 21.01418 33.37581 27.19500
#
# Velocity S-wave (km/s) = 3.19932 4.03197 3.63953
# Velocity P-wave (km/s) = 4.52964 7.14901 5.98439
#
# Compressibility (1/GPa) = 0.07089855
#
# Stress axis : x y z
#
# Youngs Moduli (GPa) = 118.88531 118.88531 13.38778
#
# Poissons Ratio (x) = 0.48234 0.04185
# Poissons Ratio (y) = 0.48234 0.04185
# Poissons Ratio (z) = 0.37167 0.37167
#
# Static dielectric constant tensor:
#      x y z
#    x 1.730840 0.000000 0.000000 
#    y 0.000000 1.730840 0.000000 
#    z 0.000000 0.000000 1.801940 
# 
# From -- ./inp_files/6801.got.cif
#   From: 2010.05.17/outbox.cif.g08.bks.cpg/sg140_4_cif.got.tgz:6801.got - 2010.06.21 00:45:31.
