data_PCOD9572720
_publ_section_title
;
Structure prediction by ZEFSAII (Michael W. Deem and Ramdas Pophale) SiO2 
 PCOD9572720
Probable space group: I 4/M C M
;
_chemical_formula_sum "Si O2"
_cell_formula_units_Z 96
_cell_length_a 21.000000
_cell_length_b 21.000000
_cell_length_c 24.000000
_cell_angle_alpha 90.000000
_cell_angle_beta 90.000000
_cell_angle_gamma 90.000000
_cell_volume 10584.000000
_symmetry_space_group_name_H-M "I 4/M C M"
_symmetry_group_IT_number 140
_symmetry_cell_setting 'tetragonal'
loop_
_space_group_symop_operation_xyz
x,y,z
-y,x,z
-x,-y,z
y,-x,z
x,-y,1/2-z
-x,y,1/2-z
y,x,1/2-z
-y,-x,1/2-z
-x,-y,-z
y,-x,-z
x,y,-z
-y,x,-z
-x,y,1/2+z
x,-y,1/2+z
-y,-x,1/2+z
y,x,1/2+z
1/2+x,1/2+y,1/2+z
1/2-y,1/2+x,1/2+z
1/2-x,1/2-y,1/2+z
1/2+y,1/2-x,1/2+z
1/2+x,1/2-y,-z
1/2-x,1/2+y,-z
1/2+y,1/2+x,-z
1/2-y,1/2-x,-z
1/2-x,1/2-y,1/2-z
1/2+y,1/2-x,1/2-z
1/2+x,1/2+y,1/2-z
1/2-y,1/2+x,1/2-z
1/2-x,1/2+y,z
1/2+x,1/2-y,z
1/2-y,1/2-x,z
1/2+y,1/2+x,z
loop_
_atom_site_type_symbol
_atom_site_label
_atom_site_fract_x
_atom_site_fract_y
_atom_site_fract_z
Si Si1 0.927271 0.672865 0.066960
Si Si2 0.441289 0.587163 0.933308
Si Si3 0.252166 0.146781 0.840836
Si Si4 0.322388 0.926617 0.435436
Si Si5 0.294411 0.621656 0.628734
Si Si6 0.926601 0.819995 0.753458
O O1 0.889807 0.610194 0.085254
O O2 0.892211 0.734240 0.090865
O O3 0.000876 0.672274 0.083258
O O4 0.925704 0.675533 0.000000
O O5 0.414421 0.516781 0.920142
O O6 0.405763 0.642316 0.900701
O O7 0.435366 0.596244 0.000000
O O8 0.311151 0.188850 0.819467
O O9 0.274265 0.110331 0.895926
O O10 0.194981 0.193570 0.857328
O O11 0.225512 0.097835 0.795657
O O12 0.301470 0.924793 0.500000
O O13 0.389259 0.889259 0.432298
O O14 0.287188 0.586543 0.687550
O O15 0.882476 0.882476 0.750000
O O16 0.000000 0.836488 0.750000
#
# Coordination Sequence:
#
# PCOD9572720 Si02
#       6
#    32  32  32  32  32  32
#     4  10  21  35  53  82 115 142 177 227 280 333
#     4   9  20  36  53  79 114 153 193 230 276 332
#     4  10  22  40  57  79 112 146 184 233 282 339
#     4   9  19  36  59  83 107 142 183 224 278 341
#     4  11  22  34  57  80 108 147 189 227 275 333
#     4  10  23  38  55  80 108 144 187 230 279 330
#
# _framework density 9.0702949999999998
#
# number of rings (size 3 to 8) (size 9 to 14) (size 15 to 20)
#    0.000    2.167    0.000    2.500    7.000    5.500 
#    0.000    3.333    0.000    0.000    0.000    0.000 
#    0.000    4.000    0.000    0.000    0.000    0.000 
#
# Total GULP energy -535796.617256 kJ/mol
# GULP energy per Si atom -5581.214763 kJ/mol
# Density = 0.904965 g / cm^3
# Si number density = 9.070295 Si / 1000 Ang^3
#
#
#
# Elastic Constant Matrix: (Units=GPa)
#
#
# Indices 1 2 3 4 5 6 
#
# 1 38.7517 11.6873 19.8506 0.0000 0.0000 0.0000
# 2 11.6873 38.7517 19.8506 0.0000 0.0000 0.0000
# 3 19.8506 19.8506 21.0895 0.0000 0.0000 0.0000
# 4 0.0000 0.0000 0.0000 -2.3681 0.0000 0.0000
# 5 0.0000 0.0000 0.0000 0.0000 -2.3681 0.0000
# 6 0.0000 0.0000 0.0000 0.0000 0.0000 7.6029
#
#
#
# Elastic Compliance Matrix: (Units=1/GPa)
#
#
# Indices 1 2 3 4 5 6 
#
# 1 0.056730 0.019781 -0.072017 0.000000 0.000000 0.000000
# 2 0.019781 0.056730 -0.072017 0.000000 0.000000 0.000000
# 3 -0.072017 -0.072017 0.182990 0.000000 0.000000 0.000000
# 4 0.000000 0.000000 0.000000 -0.422275 -0.000001 0.000000
# 5 0.000000 0.000000 0.000000 -0.000001 -0.422273 0.000000
# 6 0.000000 0.000000 0.000000 0.000000 0.000000 0.131530
#
#
# Mechanical properties :
#
#
# Convention : Reuss Voigt Hill
#
# Bulk Modulus (GPa) = 20.85720 22.37442 21.61581
# Shear Modulus (GPa) = -32.87737 3.72028 -14.57855
#
# Velocity S-wave (km/s) = -4.26181 1.43362 -2.83793
# Velocity P-wave (km/s) = 3.56298 3.88600 1.09685
#
# Compressibility (1/GPa) = 0.04794507
#
# Stress axis : x y z
#
# Youngs Moduli (GPa) = 17.62727 17.62727 5.46477
#
# Poissons Ratio (x) = -0.34869 0.39356
# Poissons Ratio (y) = -0.34869 0.39356
# Poissons Ratio (z) = 1.26947 1.26947
#
# Static dielectric constant tensor:
#      x y z
#    x 1.614440 0.000000 0.000000 
#    y 0.000000 1.614440 0.000000 
#    z 0.000000 0.000000 1.615230 
# 
# From -- ./inp_files/9737.got.cif
#   From: 2010.05.17/outbox.ucp.g08.bks.cvg/sg140_5_cif.got.tgz:9737.got - 2010.06.11 11:42:50.
