data_PCOD9572569
_publ_section_title
;
Structure prediction by ZEFSAII (Michael W. Deem and Ramdas Pophale) SiO2 
 PCOD9572569
Probable space group: I 4/M C M
;
_chemical_formula_sum "Si O2"
_cell_formula_units_Z 96
_cell_length_a 13.057811
_cell_length_b 13.057811
_cell_length_c 26.655603
_cell_angle_alpha 90.000000
_cell_angle_beta 90.000000
_cell_angle_gamma 90.000000
_cell_volume 4544.951657
_symmetry_space_group_name_H-M "I 4/M C M"
_symmetry_group_IT_number 140
_symmetry_cell_setting 'tetragonal'
loop_
_space_group_symop_operation_xyz
x,y,z
-y,x,z
-x,-y,z
y,-x,z
x,-y,1/2-z
-x,y,1/2-z
y,x,1/2-z
-y,-x,1/2-z
-x,-y,-z
y,-x,-z
x,y,-z
-y,x,-z
-x,y,1/2+z
x,-y,1/2+z
-y,-x,1/2+z
y,x,1/2+z
1/2+x,1/2+y,1/2+z
1/2-y,1/2+x,1/2+z
1/2-x,1/2-y,1/2+z
1/2+y,1/2-x,1/2+z
1/2+x,1/2-y,-z
1/2-x,1/2+y,-z
1/2+y,1/2+x,-z
1/2-y,1/2-x,-z
1/2-x,1/2-y,1/2-z
1/2+y,1/2-x,1/2-z
1/2+x,1/2+y,1/2-z
1/2-y,1/2+x,1/2-z
1/2-x,1/2+y,z
1/2+x,1/2-y,z
1/2-y,1/2-x,z
1/2+y,1/2+x,z
loop_
_atom_site_type_symbol
_atom_site_label
_atom_site_fract_x
_atom_site_fract_y
_atom_site_fract_z
Si Si1 0.781434 0.718567 0.557982
Si Si2 0.417021 0.082980 0.134514
Si Si3 0.362795 0.399476 0.114133
Si Si4 0.938053 0.272445 0.296844
O O1 0.800967 0.699034 0.500000
O O2 0.853008 0.646993 0.593466
O O3 0.664242 0.698037 0.573189
O O4 0.483181 0.161626 0.168576
O O5 0.500000 0.000000 0.114041
O O6 0.478967 0.363476 0.109098
O O7 0.311423 0.383086 0.168398
O O8 0.853434 0.353434 0.278480
O O9 0.000000 0.228644 0.250000
#
# Coordination Sequence:
#
# PCOD9572569 Si02
#       4
#    16  16  32  32
#     4  12  26  48  75 100 135 189 242 304 368 413
#     4  10  22  42  69 105 142 180 241 299 334 424
#     4  11  25  46  68 100 145 183 235 295 349 431
#     4  11  21  39  72 107 146 191 233 284 358 422
#
# _framework density 21.122337000000002
#
# number of rings (size 3 to 8) (size 9 to 14) (size 15 to 20)
#    0.000    1.000    6.667    0.000    0.000    3.000 
#    0.000    6.667    0.000    0.000    0.000    0.000 
#    0.000    0.000    0.000    0.000    0.000    0.000 
#
# Total GULP energy -268279.376908 kJ/mol
# GULP energy per Si atom -5589.153686 kJ/mol
# Density = 2.107426 g / cm^3
# Si number density = 21.122337 Si / 1000 Ang^3
#
#
#
# Elastic Constant Matrix: (Units=GPa)
#
#
# Indices 1 2 3 4 5 6 
#
# 1 92.5132 24.4293 27.5544 0.0000 0.0000 0.0000
# 2 24.4293 92.5134 27.5546 0.0000 0.0000 0.0000
# 3 27.5544 27.5546 100.8884 0.0000 0.0000 0.0000
# 4 0.0000 0.0000 0.0000 29.6068 0.0000 0.0000
# 5 0.0000 0.0000 0.0000 0.0000 29.6063 0.0000
# 6 0.0000 0.0000 0.0000 0.0000 0.0000 13.1397
#
#
#
# Elastic Compliance Matrix: (Units=1/GPa)
#
#
# Indices 1 2 3 4 5 6 
#
# 1 0.012251 -0.002437 -0.002680 0.000000 0.000000 0.000000
# 2 -0.002437 0.012251 -0.002680 0.000000 0.000000 0.000000
# 3 -0.002680 -0.002680 0.011376 0.000000 0.000000 0.000000
# 4 0.000000 0.000000 0.000000 0.033776 0.000000 0.000000
# 5 0.000000 0.000000 0.000000 0.000000 0.033777 0.000000
# 6 0.000000 0.000000 0.000000 0.000000 0.000000 0.076105
#
#
# Mechanical properties :
#
#
# Convention : Reuss Voigt Hill
#
# Bulk Modulus (GPa) = 49.30253 49.44350 49.37302
# Shear Modulus (GPa) = 24.76569 28.22902 26.49736
#
# Velocity S-wave (km/s) = 3.42788 3.65972 3.54569
# Velocity P-wave (km/s) = 6.24974 6.42783 6.33941
#
# Compressibility (1/GPa) = 0.02028293
#
# Stress axis : x y z
#
# Youngs Moduli (GPa) = 81.62557 81.62570 87.90345
#
# Poissons Ratio (x) = 0.19890 0.23562
# Poissons Ratio (y) = 0.19889 0.23563
# Poissons Ratio (z) = 0.21880 0.21880
#
# Static dielectric constant tensor:
#      x y z
#    x 1.805240 0.000000 0.000000 
#    y 0.000000 1.805240 0.000000 
#    z 0.000000 0.000000 1.719080 
# 
# From -- ./inp_files/7712.got.cif
#   From: 2010.05.17/outbox.cif.g08.bks.cpg/sg140_4_cif.got.tgz:7712.got - 2010.06.21 00:45:31.
