data_PCOD9572020
_publ_section_title
;
Structure prediction by ZEFSAII (Michael W. Deem and Ramdas Pophale) SiO2 
 PCOD9572020
Probable space group: I 4/M C M
;
_chemical_formula_sum "Si O2"
_cell_formula_units_Z 144
_cell_length_a 20.549594
_cell_length_b 20.549594
_cell_length_c 14.313259
_cell_angle_alpha 90.000000
_cell_angle_beta 90.000000
_cell_angle_gamma 90.000000
_cell_volume 6044.286222
_symmetry_space_group_name_H-M "I 4/M C M"
_symmetry_group_IT_number 140
_symmetry_cell_setting 'tetragonal'
loop_
_space_group_symop_operation_xyz
x,y,z
-y,x,z
-x,-y,z
y,-x,z
x,-y,1/2-z
-x,y,1/2-z
y,x,1/2-z
-y,-x,1/2-z
-x,-y,-z
y,-x,-z
x,y,-z
-y,x,-z
-x,y,1/2+z
x,-y,1/2+z
-y,-x,1/2+z
y,x,1/2+z
1/2+x,1/2+y,1/2+z
1/2-y,1/2+x,1/2+z
1/2-x,1/2-y,1/2+z
1/2+y,1/2-x,1/2+z
1/2+x,1/2-y,-z
1/2-x,1/2+y,-z
1/2+y,1/2+x,-z
1/2-y,1/2-x,-z
1/2-x,1/2-y,1/2-z
1/2+y,1/2-x,1/2-z
1/2+x,1/2+y,1/2-z
1/2-y,1/2+x,1/2-z
1/2-x,1/2+y,z
1/2+x,1/2-y,z
1/2-y,1/2-x,z
1/2+y,1/2+x,z
loop_
_atom_site_type_symbol
_atom_site_label
_atom_site_fract_x
_atom_site_fract_y
_atom_site_fract_z
Si Si1 0.076250 0.928323 0.137547
Si Si2 0.142083 0.794904 0.396466
Si Si3 0.892849 0.501776 0.500000
Si Si4 0.988203 0.266912 0.393553
Si Si5 0.765735 0.633577 0.614927
O O1 0.077853 0.922148 0.250000
O O2 0.132388 0.885877 0.096689
O O3 0.003061 0.911483 0.111290
O O4 0.153515 0.766195 0.500000
O O5 0.211707 0.813661 0.354567
O O6 0.081500 0.754956 0.352695
O O7 0.929127 0.570874 0.500000
O O8 0.844265 0.492329 0.587421
O O9 0.946948 0.446948 0.500000
O O10 0.986691 0.238667 0.500000
O O11 0.059451 0.250511 0.353443
O O12 0.764476 0.630947 0.500000
O O13 0.835493 0.664508 0.641533
#
# Coordination Sequence:
#
# PCOD9572020 Si02
#       5
#    32  32  16  32  32
#     4   9  18  31  45  61  86 122 157 186 227 284
#     4  10  18  28  43  69  91 114 151 202 235 269
#     4   9  16  26  40  58  86 125 160 190 234 293
#     4   8  16  26  38  59  87 118 150 190 231 279
#     4   9  16  26  41  59  86 120 148 178 228 283
#
# _framework density 23.824152999999999
#
# number of rings (size 3 to 8) (size 9 to 14) (size 15 to 20)
#    0.667    2.333    0.000    2.667    0.000    3.556 
#    0.000    1.111    0.000    0.667    0.000    0.000 
#    0.000    0.000    0.000    0.000    0.000   54.444 
#
# Total GULP energy -401135.666287 kJ/mol
# GULP energy per Si atom -5571.328698 kJ/mol
# Density = 2.376993 g / cm^3
# Si number density = 23.824153 Si / 1000 Ang^3
#
#
#
# Elastic Constant Matrix: (Units=GPa)
#
#
# Indices 1 2 3 4 5 6 
#
# 1 81.3264 86.7326 -19.8839 0.0000 0.0000 0.0000
# 2 86.7326 81.3223 -19.8828 0.0000 0.0000 0.0000
# 3 -19.8839 -19.8828 51.3773 0.0000 0.0000 0.0000
# 4 0.0000 0.0000 0.0000 11.6723 0.0000 0.0000
# 5 0.0000 0.0000 0.0000 0.0000 11.6737 0.0000
# 6 0.0000 0.0000 0.0000 0.0000 0.0000 44.9330
#
#
#
# Elastic Compliance Matrix: (Units=1/GPa)
#
#
# Indices 1 2 3 4 5 6 
#
# 1 -0.089174 0.095727 0.002534 0.000000 0.000000 0.000000
# 2 0.095727 -0.089178 0.002536 0.000000 0.000000 0.000000
# 3 0.002534 0.002536 0.021426 0.000000 0.000000 0.000000
# 4 0.000000 0.000000 0.000000 0.085673 0.000000 0.000000
# 5 0.000000 0.000000 0.000000 0.000000 0.085663 0.000000
# 6 0.000000 0.000000 0.000000 0.000000 0.000000 0.022255
#
#
# Mechanical properties :
#
#
# Convention : Reuss Voigt Hill
#
# Bulk Modulus (GPa) = 22.38826 34.21753 28.30289
# Shear Modulus (GPa) = -33.32451 24.79313 -4.26569
#
# Velocity S-wave (km/s) = -3.74407 3.22944 -1.33954
# Velocity P-wave (km/s) = 3.04517 5.31972 3.08435
#
# Compressibility (1/GPa) = 0.04466627
#
# Stress axis : x y z
#
# Youngs Moduli (GPa) = -11.21399 -11.21348 46.67234
#
# Poissons Ratio (x) = 1.07343 -0.11826
# Poissons Ratio (y) = 1.07348 -0.11837
# Poissons Ratio (z) = 0.02841 0.02844
#
# Static dielectric constant tensor:
#      x y z
#    x 1.914310 0.000000 0.000000 
#    y 0.000000 1.914320 0.000000 
#    z 0.000000 0.000000 1.868520 
# 
# From -- ./inp_files/8319.got.cif
#   From: 2010.05.17/outbox.cif.g08.bks.cpg/sg140_5_cif.got.tgz:8319.got - 2010.06.21 00:45:31.
