data_PCOD9572412
_publ_section_title
;
Structure prediction by ZEFSAII (Michael W. Deem and Ramdas Pophale) SiO2 
 PCOD9572412
Probable space group: I 4/M C M
;
_chemical_formula_sum "Si O2"
_cell_formula_units_Z 160
_cell_length_a 16.979376
_cell_length_b 16.979376
_cell_length_c 27.445315
_cell_angle_alpha 90.000000
_cell_angle_beta 90.000000
_cell_angle_gamma 90.000000
_cell_volume 7912.462615
_symmetry_space_group_name_H-M "I 4/M C M"
_symmetry_group_IT_number 140
_symmetry_cell_setting 'tetragonal'
loop_
_space_group_symop_operation_xyz
x,y,z
-y,x,z
-x,-y,z
y,-x,z
x,-y,1/2-z
-x,y,1/2-z
y,x,1/2-z
-y,-x,1/2-z
-x,-y,-z
y,-x,-z
x,y,-z
-y,x,-z
-x,y,1/2+z
x,-y,1/2+z
-y,-x,1/2+z
y,x,1/2+z
1/2+x,1/2+y,1/2+z
1/2-y,1/2+x,1/2+z
1/2-x,1/2-y,1/2+z
1/2+y,1/2-x,1/2+z
1/2+x,1/2-y,-z
1/2-x,1/2+y,-z
1/2+y,1/2+x,-z
1/2-y,1/2-x,-z
1/2-x,1/2-y,1/2-z
1/2+y,1/2-x,1/2-z
1/2+x,1/2+y,1/2-z
1/2-y,1/2+x,1/2-z
1/2-x,1/2+y,z
1/2+x,1/2-y,z
1/2-y,1/2-x,z
1/2+y,1/2+x,z
loop_
_atom_site_type_symbol
_atom_site_label
_atom_site_fract_x
_atom_site_fract_y
_atom_site_fract_z
Si Si1 0.854890 0.929121 0.787290
Si Si2 0.253203 0.115720 0.557466
Si Si3 0.673746 0.953023 0.799705
Si Si4 0.504173 0.126665 0.406442
Si Si5 0.418677 0.597222 0.892408
O O1 0.855962 0.855962 0.750000
O O2 0.767455 0.946913 0.805341
O O3 0.907881 0.908617 0.833924
O O4 0.878734 0.000000 0.750000
O O5 0.238256 0.119397 0.500000
O O6 0.315888 0.184113 0.570378
O O7 0.295229 0.032052 0.569771
O O8 0.172232 0.125461 0.586611
O O9 0.631001 0.869000 0.796367
O O10 0.657036 0.000000 0.750000
O O11 0.640277 0.993593 0.848280
O O12 0.440776 0.059224 0.418282
O O13 0.589302 0.089302 0.420400
O O14 0.393197 0.509818 0.907821
#
# Coordination Sequence:
#
# PCOD9572412 Si02
#       5
#    32  32  32  32  32
#     4  11  22  37  58  85 118 156 204 255 306 367
#     4  10  23  43  66  94 128 164 209 269 328 378
#     4  10  21  35  54  85 125 164 204 248 305 376
#     4   9  18  35  60  87 118 159 205 254 309 371
#     4  11  23  40  65  92 123 164 208 259 313 378
#
# _framework density 20.221266
#
# number of rings (size 3 to 8) (size 9 to 14) (size 15 to 20)
#    0.000    1.800    2.000    1.800    2.800    3.600 
#    0.000    4.000    0.000    0.000    0.000    0.000 
#    0.000    0.000    0.000    0.000    0.000    0.000 
#
# Total GULP energy -445943.799212 kJ/mol
# GULP energy per Si atom -5574.297490 kJ/mol
# Density = 2.017524 g / cm^3
# Si number density = 20.221266 Si / 1000 Ang^3
#
#
#
# Elastic Constant Matrix: (Units=GPa)
#
#
# Indices 1 2 3 4 5 6 
#
# 1 86.9760 36.8155 34.4248 0.0000 0.0000 0.0000
# 2 36.8155 86.9760 34.4248 0.0000 0.0000 0.0000
# 3 34.4248 34.4248 60.4850 0.0000 0.0000 0.0000
# 4 0.0000 0.0000 0.0000 25.5279 0.0000 0.0000
# 5 0.0000 0.0000 0.0000 0.0000 25.5279 0.0000
# 6 0.0000 0.0000 0.0000 0.0000 0.0000 11.3392
#
#
#
# Elastic Compliance Matrix: (Units=1/GPa)
#
#
# Indices 1 2 3 4 5 6 
#
# 1 0.015878 -0.004058 -0.006727 0.000000 0.000000 0.000000
# 2 -0.004058 0.015878 -0.006727 0.000000 0.000000 0.000000
# 3 -0.006727 -0.006727 0.024190 0.000000 0.000000 0.000000
# 4 0.000000 0.000000 0.000000 0.039173 0.000000 0.000000
# 5 0.000000 0.000000 0.000000 0.000000 0.039173 0.000000
# 6 0.000000 0.000000 0.000000 0.000000 0.000000 0.088190
#
#
# Mechanical properties :
#
#
# Convention : Reuss Voigt Hill
#
# Bulk Modulus (GPa) = 47.79828 49.52967 48.66398
# Shear Modulus (GPa) = 18.90505 21.06380 19.98442
#
# Velocity S-wave (km/s) = 3.06095 3.23099 3.14711
# Velocity P-wave (km/s) = 6.01510 6.20210 6.10932
#
# Compressibility (1/GPa) = 0.02092125
#
# Stress axis : x y z
#
# Youngs Moduli (GPa) = 62.98122 62.98122 41.33888
#
# Poissons Ratio (x) = 0.25559 0.27809
# Poissons Ratio (y) = 0.25559 0.27809
# Poissons Ratio (z) = 0.42367 0.42367
#
# Static dielectric constant tensor:
#      x y z
#    x 1.753750 0.000000 0.000000 
#    y 0.000000 1.753750 0.000000 
#    z 0.000000 0.000000 1.713060 
# 
# From -- ./inp_files/10514.got.cif
#   From: 2010.05.17/outbox.cif.g08.bks.cpg/sg140_6_cif.got.tgz:10514.got - 2010.06.21 00:45:31.
