data_PCOD9572797
_publ_section_title
;
Structure prediction by ZEFSAII (Michael W. Deem and Ramdas Pophale) SiO2 
 PCOD9572797
Probable space group: I 41/A M D
;
_chemical_formula_sum "Si O2"
_cell_formula_units_Z 128
_cell_length_a 21.559700
_cell_length_b 21.559700
_cell_length_c 14.316715
_cell_angle_alpha 90.000000
_cell_angle_beta 90.000000
_cell_angle_gamma 90.000000
_cell_volume 6654.704974
_symmetry_space_group_name_H-M "I 41/A M D"
_symmetry_group_IT_number 141
_space_group.IT_coordinate_system_code '2'
_symmetry_cell_setting 'tetragonal'
loop_
_space_group_symop_operation_xyz
x,y,z
1/4-y,3/4+x,1/4+z
-x,1/2-y,z
1/4+y,1/4-x,3/4+z
x,-y,-z
-x,1/2+y,-z
1/4+y,3/4+x,1/4-z
1/4-y,1/4-x,3/4-z
-x,-y,-z
3/4+y,1/4-x,3/4-z
x,1/2+y,-z
3/4-y,3/4+x,1/4-z
-x,y,z
x,1/2-y,z
3/4-y,1/4-x,3/4+z
3/4+y,3/4+x,1/4+z
1/2+x,1/2+y,1/2+z
3/4-y,1/4+x,3/4+z
1/2-x,-y,1/2+z
3/4+y,3/4-x,1/4+z
1/2+x,1/2-y,1/2-z
1/2-x,y,1/2-z
3/4+y,1/4+x,3/4-z
3/4-y,3/4-x,1/4-z
1/2-x,1/2-y,1/2-z
1/4+y,3/4-x,1/4-z
1/2+x,y,1/2-z
1/4-y,1/4+x,3/4-z
1/2-x,1/2+y,1/2+z
1/2+x,-y,1/2+z
1/4-y,3/4-x,1/4+z
1/4+y,1/4+x,3/4+z
loop_
_atom_site_type_symbol
_atom_site_label
_atom_site_fract_x
_atom_site_fract_y
_atom_site_fract_z
Si Si1 0.074526 0.935168 0.045646
Si Si2 0.573466 0.483527 0.742567
Si Si3 0.128172 0.175669 0.470279
Si Si4 0.614086 0.677986 0.587201
O O1 0.096077 0.944447 0.152721
O O2 0.000000 0.935982 0.047435
O O3 0.088937 0.874517 0.983842
O O4 0.095946 0.000000 0.000000
O O5 0.500000 0.492423 0.726811
O O6 0.598412 0.552396 0.755630
O O7 0.579986 0.438484 0.830721
O O8 0.103806 0.146195 0.375000
O O9 0.129779 0.250000 0.458396
O O10 0.085947 0.160471 0.559848
O O11 0.600278 0.750000 0.559863
#
# Coordination Sequence:
#
# PCOD9572797 Si02
#       4
#    32  32  32  32
#     4  10  18  34  61  89 123 167 203 240 306 387
#     4   9  20  38  59  85 118 165 208 243 312 393
#     4  11  23  40  62  86 121 165 210 262 321 381
#     4  11  22  36  61  93 123 157 208 268 310 363
#
# _framework density 19.23451
#
# number of rings (size 3 to 8) (size 9 to 14) (size 15 to 20)
#    0.000    1.750    2.500    2.250    0.000    4.250 
#    0.000    5.000    5.500    9.000    0.000    0.000 
#    0.000    0.000    0.000    0.000    0.000    0.000 
#
# Total GULP energy -356425.619944 kJ/mol
# GULP energy per Si atom -5569.150312 kJ/mol
# Density = 1.919073 g / cm^3
# Si number density = 19.234510 Si / 1000 Ang^3
#
#
#
# Elastic Constant Matrix: (Units=GPa)
#
#
# Indices 1 2 3 4 5 6 
#
# 1 98.8021 29.1784 50.4225 0.0000 0.0000 0.0000
# 2 29.1784 98.8055 50.4215 0.0000 0.0000 0.0000
# 3 50.4225 50.4215 127.2180 0.0000 0.0000 0.0000
# 4 0.0000 0.0000 0.0000 22.1499 0.0000 0.0000
# 5 0.0000 0.0000 0.0000 0.0000 22.1445 0.0000
# 6 0.0000 0.0000 0.0000 0.0000 0.0000 -59.4225
#
#
#
# Elastic Compliance Matrix: (Units=1/GPa)
#
#
# Indices 1 2 3 4 5 6 
#
# 1 0.012863 -0.001500 -0.004503 0.000000 0.000000 0.000000
# 2 -0.001500 0.012862 -0.004503 0.000000 0.000000 0.000000
# 3 -0.004503 -0.004503 0.011430 0.000000 0.000000 0.000000
# 4 0.000000 0.000000 0.000000 0.045147 0.000000 0.000000
# 5 0.000000 0.000000 0.000000 0.000000 0.045158 0.000000
# 6 0.000000 0.000000 0.000000 0.000000 0.000000 -0.016829
#
#
# Mechanical properties :
#
#
# Convention : Reuss Voigt Hill
#
# Bulk Modulus (GPa) = 61.95360 64.98561 63.46961
# Shear Modulus (GPa) = 36.48975 9.96126 23.22550
#
# Velocity S-wave (km/s) = 4.36029 2.27818 3.47867
# Velocity P-wave (km/s) = 7.59138 6.38588 7.01457
#
# Compressibility (1/GPa) = 0.01614111
#
# Stress axis : x y z
#
# Youngs Moduli (GPa) = 77.74487 77.74903 87.48780
#
# Poissons Ratio (x) = 0.11665 0.39399
# Poissons Ratio (y) = 0.11664 0.39396
# Poissons Ratio (z) = 0.35012 0.35011
#
# Static dielectric constant tensor:
#      x y z
#    x 1.699900 0.000000 0.000000 
#    y 0.000000 1.699900 0.000000 
#    z 0.000000 0.000000 1.704450 
# 
# From -- ./inp_files/4597.got.cif
#   From: 2010.05.17/outbox.cif.g08.bks.cpg/sg141_3_cif.got.tgz:4597.got - 2010.05.20 13:30:51.
