data_PCOD9572706
_publ_section_title
;
Structure prediction by ZEFSAII (Michael W. Deem and Ramdas Pophale) SiO2 
 PCOD9572706
Probable space group: I 4/M C M
;
_chemical_formula_sum "Si O2"
_cell_formula_units_Z 160
_cell_length_a 26.807460
_cell_length_b 26.807460
_cell_length_c 11.119683
_cell_angle_alpha 90.000000
_cell_angle_beta 90.000000
_cell_angle_gamma 90.000000
_cell_volume 7991.048009
_symmetry_space_group_name_H-M "I 4/M C M"
_symmetry_group_IT_number 140
_symmetry_cell_setting 'tetragonal'
loop_
_space_group_symop_operation_xyz
x,y,z
-y,x,z
-x,-y,z
y,-x,z
x,-y,1/2-z
-x,y,1/2-z
y,x,1/2-z
-y,-x,1/2-z
-x,-y,-z
y,-x,-z
x,y,-z
-y,x,-z
-x,y,1/2+z
x,-y,1/2+z
-y,-x,1/2+z
y,x,1/2+z
1/2+x,1/2+y,1/2+z
1/2-y,1/2+x,1/2+z
1/2-x,1/2-y,1/2+z
1/2+y,1/2-x,1/2+z
1/2+x,1/2-y,-z
1/2-x,1/2+y,-z
1/2+y,1/2+x,-z
1/2-y,1/2-x,-z
1/2-x,1/2-y,1/2-z
1/2+y,1/2-x,1/2-z
1/2+x,1/2+y,1/2-z
1/2-y,1/2+x,1/2-z
1/2-x,1/2+y,z
1/2+x,1/2-y,z
1/2-y,1/2-x,z
1/2+y,1/2+x,z
loop_
_atom_site_type_symbol
_atom_site_label
_atom_site_fract_x
_atom_site_fract_y
_atom_site_fract_z
Si Si1 0.324273 0.500000 0.750000
Si Si2 0.569552 0.395202 0.371572
Si Si3 0.036789 0.618427 0.500000
Si Si4 0.418442 0.243180 0.262169
Si Si5 0.191071 0.153082 0.130493
Si Si6 0.657993 0.000000 0.250000
Si Si7 0.123388 0.703600 0.500000
O O1 0.358717 0.477373 0.646694
O O2 0.288217 0.543885 0.706668
O O3 0.573195 0.426806 0.250000
O O4 0.567639 0.421540 0.500000
O O5 0.617811 0.358391 0.372639
O O6 0.066118 0.566118 0.500000
O O7 0.007574 0.627315 0.374074
O O8 0.079284 0.661695 0.500000
O O9 0.384487 0.262856 0.154021
O O10 0.452289 0.194901 0.235310
O O11 0.385260 0.233682 0.378745
O O12 0.186018 0.186018 0.250000
O O13 0.195314 0.177774 0.000000
O O14 0.175075 0.675075 0.500000
#
# Coordination Sequence:
#
# PCOD9572706 Si02
#       7
#    16  32  16  32  32  16  16
#     4   9  18  30  48  79 102 132 174 229 266 310
#     4   9  18  31  45  68 103 140 171 214 264 321
#     4   9  18  34  55  81 113 146 178 217 271 329
#     4   9  18  30  51  80 105 138 177 229 273 313
#     4   9  18  30  46  72 106 139 176 220 271 322
#     4   9  18  32  54  81 110 140 182 229 272 320
#     4   9  18  32  52  78 110 143 176 214 269 331
#
# _framework density 20.022404999999999
#
# number of rings (size 3 to 8) (size 9 to 14) (size 15 to 20)
#    0.000    3.000    0.000    0.000    4.200    0.800 
#    3.600    0.500    0.000    2.400    0.000    1.400 
#    0.000    0.000    0.000    0.000    0.000    0.000 
#
# Total GULP energy -445790.218283 kJ/mol
# GULP energy per Si atom -5572.377729 kJ/mol
# Density = 1.997683 g / cm^3
# Si number density = 20.022405 Si / 1000 Ang^3
#
#
#
# Elastic Constant Matrix: (Units=GPa)
#
#
# Indices 1 2 3 4 5 6 
#
# 1 41.3425 30.9648 52.3904 0.0000 0.0000 0.0000
# 2 30.9648 41.3424 52.3896 0.0000 0.0000 0.0000
# 3 52.3904 52.3896 206.1787 0.0000 0.0000 0.0000
# 4 0.0000 0.0000 0.0000 11.9333 0.0000 0.0000
# 5 0.0000 0.0000 0.0000 0.0000 11.9343 0.0000
# 6 0.0000 0.0000 0.0000 0.0000 0.0000 6.5491
#
#
#
# Elastic Compliance Matrix: (Units=1/GPa)
#
#
# Indices 1 2 3 4 5 6 
#
# 1 0.059126 -0.037235 -0.005563 0.000000 0.000000 0.000000
# 2 -0.037235 0.059125 -0.005562 0.000000 0.000000 0.000000
# 3 -0.005563 -0.005562 0.007677 0.000000 0.000000 0.000000
# 4 0.000000 0.000000 0.000000 0.083799 0.000000 0.000000
# 5 0.000000 0.000000 0.000000 0.000000 0.083792 0.000000
# 6 0.000000 0.000000 0.000000 0.000000 0.000000 0.152693
#
#
# Mechanical properties :
#
#
# Convention : Reuss Voigt Hill
#
# Bulk Modulus (GPa) = 34.23711 62.26146 48.24928
# Shear Modulus (GPa) = 9.04704 16.29127 12.66916
#
# Velocity S-wave (km/s) = 2.12797 2.85555 2.51818
# Velocity P-wave (km/s) = 4.81396 6.48349 5.71007
#
# Compressibility (1/GPa) = 0.02920807
#
# Stress axis : x y z
#
# Youngs Moduli (GPa) = 16.91312 16.91333 130.26070
#
# Poissons Ratio (x) = 0.62977 0.72458
# Poissons Ratio (y) = 0.62976 0.72451
# Poissons Ratio (z) = 0.09408 0.09407
#
# Static dielectric constant tensor:
#      x y z
#    x 1.710650 0.000000 0.000000 
#    y 0.000000 1.710650 0.000000 
#    z 0.000000 0.000000 1.695920 
# 
# From -- ./inp_files/3219.got.cif
#   From: 2010.05.17/outbox.cif.g08.bks.cpg/sg140_2_cif.got.tgz:3219.got - 2010.06.21 00:45:31.
