data_PCOD9572947
_publ_section_title
;
Structure prediction by ZEFSAII (Michael W. Deem and Ramdas Pophale) SiO2 
 PCOD9572947
Probable space group: I 41/A M D
;
_chemical_formula_sum "Si O2"
_cell_formula_units_Z 160
_cell_length_a 20.982582
_cell_length_b 20.982582
_cell_length_c 17.913835
_cell_angle_alpha 90.000000
_cell_angle_beta 90.000000
_cell_angle_gamma 90.000000
_cell_volume 7886.901696
_symmetry_space_group_name_H-M "I 41/A M D"
_symmetry_group_IT_number 141
_space_group.IT_coordinate_system_code '2'
_symmetry_cell_setting 'tetragonal'
loop_
_space_group_symop_operation_xyz
x,y,z
1/4-y,3/4+x,1/4+z
-x,1/2-y,z
1/4+y,1/4-x,3/4+z
x,-y,-z
-x,1/2+y,-z
1/4+y,3/4+x,1/4-z
1/4-y,1/4-x,3/4-z
-x,-y,-z
3/4+y,1/4-x,3/4-z
x,1/2+y,-z
3/4-y,3/4+x,1/4-z
-x,y,z
x,1/2-y,z
3/4-y,1/4-x,3/4+z
3/4+y,3/4+x,1/4+z
1/2+x,1/2+y,1/2+z
3/4-y,1/4+x,3/4+z
1/2-x,-y,1/2+z
3/4+y,3/4-x,1/4+z
1/2+x,1/2-y,1/2-z
1/2-x,y,1/2-z
3/4+y,1/4+x,3/4-z
3/4-y,3/4-x,1/4-z
1/2-x,1/2-y,1/2-z
1/4+y,3/4-x,1/4-z
1/2+x,y,1/2-z
1/4-y,1/4+x,3/4-z
1/2-x,1/2+y,1/2+z
1/2+x,-y,1/2+z
1/4-y,3/4-x,1/4+z
1/4+y,1/4+x,3/4+z
loop_
_atom_site_type_symbol
_atom_site_label
_atom_site_fract_x
_atom_site_fract_y
_atom_site_fract_z
Si Si1 0.573946 0.927885 0.140990
Si Si2 0.927813 0.442221 0.308355
Si Si3 0.177624 0.822743 0.332565
Si Si4 0.074378 0.071458 0.902117
Si Si5 0.930046 0.102813 0.479890
O O1 0.500000 0.915924 0.162005
O O2 0.619757 0.868428 0.148187
O O3 0.599655 0.986535 0.190360
O O4 0.572813 0.942177 0.052125
O O5 0.894312 0.383944 0.268337
O O6 0.929519 0.425263 0.396754
O O7 0.000000 0.446715 0.281914
O O8 0.165592 0.750000 0.355021
O O9 0.179470 0.823839 0.242279
O O10 0.247234 0.841176 0.365975
O O11 0.125274 0.124727 0.875000
O O12 0.000000 0.083473 0.878121
O O13 0.000000 0.136172 0.486695
#
# Coordination Sequence:
#
# PCOD9572947 Si02
#       5
#    32  32  32  32  32
#     4  10  20  34  54  79 109 146 183 222 272 323
#     4   9  18  33  52  75 104 141 184 226 266 315
#     4   9  20  38  56  78 112 145 175 221 275 323
#     4   9  19  38  61  82 107 142 180 220 270 326
#     4   9  18  33  52  74 104 143 183 224 270 318
#
# _framework density 20.286799999999999
#
# number of rings (size 3 to 8) (size 9 to 14) (size 15 to 20)
#    0.000    2.800    0.000    1.800    0.000    6.600 
#    3.600   10.000    0.000    0.000    0.000    0.000 
#    0.000    0.000    0.000    0.000    0.000    0.000 
#
# Total GULP energy -445389.290038 kJ/mol
# GULP energy per Si atom -5567.366125 kJ/mol
# Density = 2.024063 g / cm^3
# Si number density = 20.286800 Si / 1000 Ang^3
#
#
#
# Elastic Constant Matrix: (Units=GPa)
#
#
# Indices 1 2 3 4 5 6 
#
# 1 133.9773 109.5452 21.8553 0.0000 0.0000 0.0000
# 2 109.5452 133.9756 21.8554 0.0000 0.0000 0.0000
# 3 21.8553 21.8554 51.6707 0.0000 0.0000 0.0000
# 4 0.0000 0.0000 0.0000 26.9975 0.0000 0.0000
# 5 0.0000 0.0000 0.0000 0.0000 26.9974 0.0000
# 6 0.0000 0.0000 0.0000 0.0000 0.0000 39.6135
#
#
#
# Elastic Compliance Matrix: (Units=1/GPa)
#
#
# Indices 1 2 3 4 5 6 
#
# 1 0.022687 -0.018244 -0.001879 0.000000 0.000000 0.000000
# 2 -0.018244 0.022688 -0.001880 0.000000 0.000000 0.000000
# 3 -0.001879 -0.001880 0.020943 0.000000 0.000000 0.000000
# 4 0.000000 0.000000 0.000000 0.037041 0.000000 0.000000
# 5 0.000000 0.000000 0.000000 0.000000 0.037041 0.000000
# 6 0.000000 0.000000 0.000000 0.000000 0.000000 0.025244
#
#
# Mechanical properties :
#
#
# Convention : Reuss Voigt Hill
#
# Bulk Modulus (GPa) = 44.81789 69.57062 57.19426
# Shear Modulus (GPa) = 23.03226 29.81284 26.42255
#
# Velocity S-wave (km/s) = 3.37312 3.83765 3.61286
# Velocity P-wave (km/s) = 6.10825 7.34879 6.75705
#
# Compressibility (1/GPa) = 0.02231252
#
# Stress axis : x y z
#
# Youngs Moduli (GPa) = 44.07742 44.07680 47.74779
#
# Poissons Ratio (x) = 0.80412 0.08974
# Poissons Ratio (y) = 0.80414 0.08975
# Poissons Ratio (z) = 0.08284 0.08285
#
# Static dielectric constant tensor:
#      x y z
#    x 1.722030 0.000000 0.000000 
#    y 0.000000 1.722030 0.000000 
#    z 0.000000 0.000000 1.797680 
# 
# From -- ./inp_files/8547.got.cif
#   From: 2010.05.17/outbox.cif.g08.bks.cpg/sg141_5_cif.got.tgz:8547.got - 2010.05.20 13:30:51.
