data_PCOD9572414
_publ_section_title
;
Structure prediction by ZEFSAII (Michael W. Deem and Ramdas Pophale) SiO2 
 PCOD9572414
Probable space group: I 4/M C M
;
_chemical_formula_sum "Si O2"
_cell_formula_units_Z 160
_cell_length_a 21.987132
_cell_length_b 21.987132
_cell_length_c 14.936456
_cell_angle_alpha 90.000000
_cell_angle_beta 90.000000
_cell_angle_gamma 90.000000
_cell_volume 7220.790275
_symmetry_space_group_name_H-M "I 4/M C M"
_symmetry_group_IT_number 140
_symmetry_cell_setting 'tetragonal'
loop_
_space_group_symop_operation_xyz
x,y,z
-y,x,z
-x,-y,z
y,-x,z
x,-y,1/2-z
-x,y,1/2-z
y,x,1/2-z
-y,-x,1/2-z
-x,-y,-z
y,-x,-z
x,y,-z
-y,x,-z
-x,y,1/2+z
x,-y,1/2+z
-y,-x,1/2+z
y,x,1/2+z
1/2+x,1/2+y,1/2+z
1/2-y,1/2+x,1/2+z
1/2-x,1/2-y,1/2+z
1/2+y,1/2-x,1/2+z
1/2+x,1/2-y,-z
1/2-x,1/2+y,-z
1/2+y,1/2+x,-z
1/2-y,1/2-x,-z
1/2-x,1/2-y,1/2-z
1/2+y,1/2-x,1/2-z
1/2+x,1/2+y,1/2-z
1/2-y,1/2+x,1/2-z
1/2-x,1/2+y,z
1/2+x,1/2-y,z
1/2-y,1/2-x,z
1/2+y,1/2+x,z
loop_
_atom_site_type_symbol
_atom_site_label
_atom_site_fract_x
_atom_site_fract_y
_atom_site_fract_z
Si Si1 0.649713 0.752006 0.235695
Si Si2 0.498402 0.097659 0.358953
Si Si3 0.265707 0.026475 0.148979
Si Si4 0.943065 0.079113 0.609245
Si Si5 0.293090 0.411132 0.099428
O O1 0.697645 0.697645 0.250000
O O2 0.687617 0.812384 0.216488
O O3 0.596582 0.747062 0.161815
O O4 0.617870 0.754523 0.332865
O O5 0.500000 0.098402 0.250000
O O6 0.551169 0.051169 0.387926
O O7 0.514238 0.166125 0.386876
O O8 0.434165 0.065836 0.384526
O O9 0.264432 0.000000 0.250000
O O10 0.220092 0.983198 0.096468
O O11 0.942855 0.079941 0.500000
O O12 0.918394 0.013689 0.638110
O O13 0.906648 0.138544 0.637653
O O14 0.289626 0.385236 0.000000
#
# Coordination Sequence:
#
# PCOD9572414 Si02
#       5
#    32  32  32  32  32
#     4  10  22  39  57  78 113 163 209 245 284 345
#     4   8  13  23  44  72  96 123 166 219 275 334
#     4   9  18  32  51  77 108 144 186 234 286 349
#     4   8  15  29  50  77 107 138 173 219 284 355
#     4  10  21  35  57  87 113 146 190 248 308 351
#
# _framework density 22.158238999999998
#
# number of rings (size 3 to 8) (size 9 to 14) (size 15 to 20)
#    0.000    3.000    0.000    1.800    2.800    5.200 
#    0.000    0.000    0.000    3.600    0.000    1.400 
#    0.000    0.000    0.000    0.000    0.000    0.000 
#
# Total GULP energy -446090.852876 kJ/mol
# GULP energy per Si atom -5576.135661 kJ/mol
# Density = 2.210781 g / cm^3
# Si number density = 22.158239 Si / 1000 Ang^3
#
#
#
# Elastic Constant Matrix: (Units=GPa)
#
#
# Indices 1 2 3 4 5 6 
#
# 1 70.0311 15.1122 1.0647 0.0000 0.0000 0.0000
# 2 15.1122 70.0311 1.0647 0.0000 0.0000 0.0000
# 3 1.0647 1.0647 45.9341 0.0000 0.0000 0.0000
# 4 0.0000 0.0000 0.0000 6.0173 0.0000 0.0000
# 5 0.0000 0.0000 0.0000 0.0000 6.0173 0.0000
# 6 0.0000 0.0000 0.0000 0.0000 0.0000 22.8816
#
#
#
# Elastic Compliance Matrix: (Units=1/GPa)
#
#
# Indices 1 2 3 4 5 6 
#
# 1 0.014980 -0.003228 -0.000272 0.000000 0.000000 0.000000
# 2 -0.003228 0.014980 -0.000272 0.000000 0.000000 0.000000
# 3 -0.000272 -0.000272 0.021783 0.000000 0.000000 0.000000
# 4 0.000000 0.000000 0.000000 0.166187 0.000000 0.000000
# 5 0.000000 0.000000 0.000000 0.000000 0.166187 0.000000
# 6 0.000000 0.000000 0.000000 0.000000 0.000000 0.043703
#
#
# Mechanical properties :
#
#
# Convention : Reuss Voigt Hill
#
# Bulk Modulus (GPa) = 22.62608 24.49773 23.56190
# Shear Modulus (GPa) = 11.10867 18.23356 14.67111
#
# Velocity S-wave (km/s) = 2.24148 2.87170 2.57593
# Velocity P-wave (km/s) = 4.11488 4.69844 4.41631
#
# Compressibility (1/GPa) = 0.04419679
#
# Stress axis : x y z
#
# Youngs Moduli (GPa) = 66.75476 66.75476 45.90750
#
# Poissons Ratio (x) = 0.21552 0.01251
# Poissons Ratio (y) = 0.21552 0.01251
# Poissons Ratio (z) = 0.01818 0.01818
#
# Static dielectric constant tensor:
#      x y z
#    x 1.842750 0.000000 0.000000 
#    y 0.000000 1.842750 0.000000 
#    z 0.000000 0.000000 1.817280 
# 
# From -- ./inp_files/6871.got.cif
#   From: 2010.05.17/outbox.cif.g08.bks.cpg/sg140_4_cif.got.tgz:6871.got - 2010.06.21 00:45:31.
