data_PCOD9572378
_publ_section_title
;
Structure prediction by ZEFSAII (Michael W. Deem and Ramdas Pophale) SiO2 
 PCOD9572378
Probable space group: I 4/M C M
;
_chemical_formula_sum "Si O2"
_cell_formula_units_Z 84
_cell_length_a 21.876846
_cell_length_b 21.876846
_cell_length_c 10.427272
_cell_angle_alpha 90.000000
_cell_angle_beta 90.000000
_cell_angle_gamma 90.000000
_cell_volume 4990.454746
_symmetry_space_group_name_H-M "I 4/M C M"
_symmetry_group_IT_number 140
_symmetry_cell_setting 'tetragonal'
loop_
_space_group_symop_operation_xyz
x,y,z
-y,x,z
-x,-y,z
y,-x,z
x,-y,1/2-z
-x,y,1/2-z
y,x,1/2-z
-y,-x,1/2-z
-x,-y,-z
y,-x,-z
x,y,-z
-y,x,-z
-x,y,1/2+z
x,-y,1/2+z
-y,-x,1/2+z
y,x,1/2+z
1/2+x,1/2+y,1/2+z
1/2-y,1/2+x,1/2+z
1/2-x,1/2-y,1/2+z
1/2+y,1/2-x,1/2+z
1/2+x,1/2-y,-z
1/2-x,1/2+y,-z
1/2+y,1/2+x,-z
1/2-y,1/2-x,-z
1/2-x,1/2-y,1/2-z
1/2+y,1/2-x,1/2-z
1/2+x,1/2+y,1/2-z
1/2-y,1/2+x,1/2-z
1/2-x,1/2+y,z
1/2+x,1/2-y,z
1/2-y,1/2-x,z
1/2+y,1/2+x,z
loop_
_atom_site_type_symbol
_atom_site_label
_atom_site_fract_x
_atom_site_fract_y
_atom_site_fract_z
Si Si1 0.589548 0.089548 0.144473
Si Si2 0.743481 0.348581 0.500000
Si Si3 0.143719 0.252440 0.500000
Si Si4 0.723169 0.930489 0.257723
Si Si5 0.000000 0.500000 0.500000
O O1 0.649974 0.067466 0.217202
O O2 0.609463 0.109463 0.000000
O O3 0.538941 0.038941 0.110493
O O4 0.796308 0.296308 0.500000
O O5 0.680156 0.311268 0.500000
O O6 0.750371 0.390849 0.625099
O O7 0.194624 0.305377 0.500000
O O8 0.103397 0.261714 0.373862
O O9 0.745550 0.000000 0.250000
#
# Coordination Sequence:
#
# PCOD9572378 Si02
#       5
#    16  16  16  32   4
#     4  10  20  40  53  76 114 162 213 237 285 324
#     4  11  20  42  59  80 115 155 198 246 308 356
#     4  11  23  36  62  86 110 150 203 246 310 354
#     4  12  22  37  58  84 119 150 197 254 288 348
#     4   8  20  36  54  70  96 172 206 238 272 320
#
# _framework density 16.832134
#
# number of rings (size 3 to 8) (size 9 to 14) (size 15 to 20)
#    0.571    0.381    5.714    2.286    0.000    4.571 
#    3.429    0.000    0.000    1.143    0.000    0.000 
#    0.000   53.333    0.000    0.000    0.000    0.000 
#
# Total GULP energy -233912.844143 kJ/mol
# GULP energy per Si atom -5569.353432 kJ/mol
# Density = 1.679382 g / cm^3
# Si number density = 16.832134 Si / 1000 Ang^3
#
#
#
# Elastic Constant Matrix: (Units=GPa)
#
#
# Indices 1 2 3 4 5 6 
#
# 1 123.6817 70.8077 79.8308 0.0000 0.0000 0.0000
# 2 70.8077 123.6814 79.8307 0.0000 0.0000 0.0000
# 3 79.8308 79.8307 185.0337 0.0000 0.0000 0.0000
# 4 0.0000 0.0000 0.0000 12.3812 0.0000 0.0000
# 5 0.0000 0.0000 0.0000 0.0000 12.3819 0.0000
# 6 0.0000 0.0000 0.0000 0.0000 0.0000 38.2350
#
#
#
# Elastic Compliance Matrix: (Units=1/GPa)
#
#
# Indices 1 2 3 4 5 6 
#
# 1 0.013437 -0.005476 -0.003435 0.000000 0.000000 0.000000
# 2 -0.005476 0.013437 -0.003435 0.000000 0.000000 0.000000
# 3 -0.003435 -0.003435 0.008368 0.000000 0.000000 0.000000
# 4 0.000000 0.000000 0.000000 0.080768 0.000000 0.000000
# 5 0.000000 0.000000 0.000000 0.000000 0.080763 0.000000
# 6 0.000000 0.000000 0.000000 0.000000 0.000000 0.026154
#
#
# Mechanical properties :
#
#
# Convention : Reuss Voigt Hill
#
# Bulk Modulus (GPa) = 94.77155 99.25947 97.01551
# Shear Modulus (GPa) = 19.90957 26.06146 22.98551
#
# Velocity S-wave (km/s) = 3.44296 3.93913 3.69938
# Velocity P-wave (km/s) = 8.49891 8.93237 8.71834
#
# Compressibility (1/GPa) = 0.01055169
#
# Stress axis : x y z
#
# Youngs Moduli (GPa) = 74.42033 74.42016 119.49856
#
# Poissons Ratio (x) = 0.40751 0.41046
# Poissons Ratio (y) = 0.40751 0.41046
# Poissons Ratio (z) = 0.25562 0.25562
#
# Static dielectric constant tensor:
#      x y z
#    x 1.569950 0.000000 0.000000 
#    y 0.000000 1.569960 0.000000 
#    z 0.000000 0.000000 1.571070 
# 
# From -- ./inp_files/2528.got.cif
#   From: 2010.05.17/outbox.cif.g08.bks.cpg/sg140_2_cif.got.tgz:2528.got - 2010.06.21 00:45:31.
