data_PCOD9572353
_publ_section_title
;
Structure prediction by ZEFSAII (Michael W. Deem and Ramdas Pophale) SiO2 
 PCOD9572353
Probable space group: I 4/M C M
;
_chemical_formula_sum "Si O2"
_cell_formula_units_Z 176
_cell_length_a 18.779857
_cell_length_b 18.779857
_cell_length_c 29.000872
_cell_angle_alpha 90.000000
_cell_angle_beta 90.000000
_cell_angle_gamma 90.000000
_cell_volume 10228.115379
_symmetry_space_group_name_H-M "I 4/M C M"
_symmetry_group_IT_number 140
_symmetry_cell_setting 'tetragonal'
loop_
_space_group_symop_operation_xyz
x,y,z
-y,x,z
-x,-y,z
y,-x,z
x,-y,1/2-z
-x,y,1/2-z
y,x,1/2-z
-y,-x,1/2-z
-x,-y,-z
y,-x,-z
x,y,-z
-y,x,-z
-x,y,1/2+z
x,-y,1/2+z
-y,-x,1/2+z
y,x,1/2+z
1/2+x,1/2+y,1/2+z
1/2-y,1/2+x,1/2+z
1/2-x,1/2-y,1/2+z
1/2+y,1/2-x,1/2+z
1/2+x,1/2-y,-z
1/2-x,1/2+y,-z
1/2+y,1/2+x,-z
1/2-y,1/2-x,-z
1/2-x,1/2-y,1/2-z
1/2+y,1/2-x,1/2-z
1/2+x,1/2+y,1/2-z
1/2-y,1/2+x,1/2-z
1/2-x,1/2+y,z
1/2+x,1/2-y,z
1/2-y,1/2-x,z
1/2+y,1/2+x,z
loop_
_atom_site_type_symbol
_atom_site_label
_atom_site_fract_x
_atom_site_fract_y
_atom_site_fract_z
Si Si1 0.326011 0.052991 0.293304
Si Si2 0.266405 0.645651 0.890001
Si Si3 0.743001 0.636367 0.053735
Si Si4 0.559472 0.940529 0.448932
Si Si5 0.207317 0.829293 0.799760
Si Si6 0.006958 0.696071 0.605949
O O1 0.391714 0.108286 0.287713
O O2 0.254953 0.100041 0.300708
O O3 0.330829 0.011810 0.341466
O O4 0.322218 0.000000 0.250000
O O5 0.199219 0.699219 0.886590
O O6 0.316486 0.676090 0.930392
O O7 0.311316 0.655602 0.842416
O O8 0.235999 0.567694 0.899251
O O9 0.811741 0.688260 0.060090
O O10 0.752777 0.570754 0.088521
O O11 0.738807 0.615866 0.000000
O O12 0.582363 0.917638 0.500000
O O13 0.626305 0.976534 0.424134
O O14 0.500000 0.000000 0.451967
O O15 0.170985 0.829016 0.750000
O O16 0.264954 0.764954 0.800682
#
# Coordination Sequence:
#
# PCOD9572353 Si02
#       6
#    32  32  32  16  32  32
#     4  11  22  36  55  84 121 160 198 236 294 363
#     4  10  21  36  58  86 116 154 202 253 294 345
#     4  10  20  37  60  84 115 157 202 247 297 352
#     4  11  24  38  56  84 123 168 200 231 296 375
#     4   9  17  33  54  78 111 149 193 243 287 335
#     4  12  21  38  60  86 121 159 198 245 303 358
#
# _framework density 17.207471000000002
#
# number of rings (size 3 to 8) (size 9 to 14) (size 15 to 20)
#    0.000    1.545    3.636    2.182    0.000    4.545 
#    0.000    1.818    0.000    0.545    0.000    1.273 
#    0.000    0.000    0.000    0.000    0.000    0.000 
#
# Total GULP energy -490703.704282 kJ/mol
# GULP energy per Si atom -5576.178458 kJ/mol
# Density = 1.716831 g / cm^3
# Si number density = 17.207471 Si / 1000 Ang^3
#
#
#
# Elastic Constant Matrix: (Units=GPa)
#
#
# Indices 1 2 3 4 5 6 
#
# 1 86.7696 62.2852 47.8059 0.0000 0.0000 0.0000
# 2 62.2852 86.7700 47.8056 0.0000 0.0000 0.0000
# 3 47.8059 47.8056 135.6639 0.0000 0.0000 0.0000
# 4 0.0000 0.0000 0.0000 22.3817 0.0000 0.0000
# 5 0.0000 0.0000 0.0000 0.0000 22.3817 0.0000
# 6 0.0000 0.0000 0.0000 0.0000 0.0000 24.1026
#
#
#
# Elastic Compliance Matrix: (Units=1/GPa)
#
#
# Indices 1 2 3 4 5 6 
#
# 1 0.024755 -0.016087 -0.003055 0.000000 0.000000 0.000000
# 2 -0.016087 0.024755 -0.003054 0.000000 0.000000 0.000000
# 3 -0.003055 -0.003054 0.009524 0.000000 0.000000 0.000000
# 4 0.000000 0.000000 0.000000 0.044679 0.000000 0.000000
# 5 0.000000 0.000000 0.000000 0.000000 0.044679 0.000000
# 6 0.000000 0.000000 0.000000 0.000000 0.000000 0.041489
#
#
# Mechanical properties :
#
#
# Convention : Reuss Voigt Hill
#
# Bulk Modulus (GPa) = 68.29560 69.44410 68.86985
# Shear Modulus (GPa) = 20.90695 23.86033 22.38364
#
# Velocity S-wave (km/s) = 3.48946 3.72778 3.61059
# Velocity P-wave (km/s) = 7.48403 7.67939 7.58234
#
# Compressibility (1/GPa) = 0.01464223
#
# Stress axis : x y z
#
# Youngs Moduli (GPa) = 40.39546 40.39582 104.99883
#
# Poissons Ratio (x) = 0.64984 0.32073
# Poissons Ratio (y) = 0.64984 0.32072
# Poissons Ratio (z) = 0.12339 0.12339
#
# Static dielectric constant tensor:
#      x y z
#    x 1.584760 0.000000 0.000000 
#    y 0.000000 1.584760 0.000000 
#    z 0.000000 0.000000 1.612880 
# 
# From -- ./inp_files/10708.got.cif
#   From: 2010.05.17/outbox.cif.g08.bks.cpg/sg140_6_cif.got.tgz:10708.got - 2010.06.21 00:45:31.
