data_PCOD9572029
_publ_section_title
;
Structure prediction by ZEFSAII (Michael W. Deem and Ramdas Pophale) SiO2 
 PCOD9572029
Probable space group: I 4/M C M
;
_chemical_formula_sum "Si O2"
_cell_formula_units_Z 112
_cell_length_a 17.193278
_cell_length_b 17.193278
_cell_length_c 18.575885
_cell_angle_alpha 90.000000
_cell_angle_beta 90.000000
_cell_angle_gamma 90.000000
_cell_volume 5491.195230
_symmetry_space_group_name_H-M "I 4/M C M"
_symmetry_group_IT_number 140
_symmetry_cell_setting 'tetragonal'
loop_
_space_group_symop_operation_xyz
x,y,z
-y,x,z
-x,-y,z
y,-x,z
x,-y,1/2-z
-x,y,1/2-z
y,x,1/2-z
-y,-x,1/2-z
-x,-y,-z
y,-x,-z
x,y,-z
-y,x,-z
-x,y,1/2+z
x,-y,1/2+z
-y,-x,1/2+z
y,x,1/2+z
1/2+x,1/2+y,1/2+z
1/2-y,1/2+x,1/2+z
1/2-x,1/2-y,1/2+z
1/2+y,1/2-x,1/2+z
1/2+x,1/2-y,-z
1/2-x,1/2+y,-z
1/2+y,1/2+x,-z
1/2-y,1/2-x,-z
1/2-x,1/2-y,1/2-z
1/2+y,1/2-x,1/2-z
1/2+x,1/2+y,1/2-z
1/2-y,1/2+x,1/2-z
1/2-x,1/2+y,z
1/2+x,1/2-y,z
1/2-y,1/2-x,z
1/2+y,1/2+x,z
loop_
_atom_site_type_symbol
_atom_site_label
_atom_site_fract_x
_atom_site_fract_y
_atom_site_fract_z
Si Si1 0.596470 0.412984 0.332960
Si Si2 0.847456 0.222311 0.084086
Si Si3 0.960729 0.330435 0.177107
Si Si4 0.566909 0.933092 0.581651
O O1 0.605122 0.504956 0.343830
O O2 0.610470 0.389531 0.250000
O O3 0.649218 0.364505 0.386643
O O4 0.765043 0.265043 0.092810
O O5 0.908466 0.270044 0.133099
O O6 0.868764 0.227304 0.000000
O O7 0.903486 0.403486 0.195959
O O8 0.000000 0.299855 0.250000
O O9 0.027784 0.363371 0.125319
O O10 0.587691 0.912310 0.500000
O O11 0.500000 0.000000 0.578201
#
# Coordination Sequence:
#
# PCOD9572029 Si02
#       4
#    32  32  32  16
#     4   9  20  40  67  96 121 152 205 262 306 356
#     4  10  22  38  58  88 127 164 199 245 311 378
#     4  10  18  29  48  76 111 156 208 253 299 364
#     4   9  16  26  44  68 104 151 202 258 305 349
#
# _framework density 20.396287000000001
#
# number of rings (size 3 to 8) (size 9 to 14) (size 15 to 20)
#    0.000    2.429    1.429    1.714    4.000    5.143 
#    0.000    1.429    3.143    0.000    0.000    0.000 
#    0.000    0.000    0.000    0.000    0.000    0.000 
#
# Total GULP energy -312829.386863 kJ/mol
# GULP energy per Si atom -5586.239051 kJ/mol
# Density = 2.034986 g / cm^3
# Si number density = 20.396287 Si / 1000 Ang^3
#
#
#
# Elastic Constant Matrix: (Units=GPa)
#
#
# Indices 1 2 3 4 5 6 
#
# 1 49.8387 18.8207 44.2972 0.0000 0.0000 0.0000
# 2 18.8207 49.8376 44.2970 0.0000 0.0000 0.0000
# 3 44.2972 44.2970 130.9192 0.0000 0.0000 0.0000
# 4 0.0000 0.0000 0.0000 27.7127 0.0000 0.0000
# 5 0.0000 0.0000 0.0000 0.0000 27.7126 0.0000
# 6 0.0000 0.0000 0.0000 0.0000 0.0000 2.8930
#
#
#
# Elastic Compliance Matrix: (Units=1/GPa)
#
#
# Indices 1 2 3 4 5 6 
#
# 1 0.029045 -0.003194 -0.008747 0.000000 0.000000 0.000000
# 2 -0.003194 0.029046 -0.008747 0.000000 0.000000 0.000000
# 3 -0.008747 -0.008747 0.013557 0.000000 0.000000 0.000000
# 4 0.000000 0.000000 0.000000 0.036085 0.000000 0.000000
# 5 0.000000 0.000000 0.000000 0.000000 0.036085 0.000000
# 6 0.000000 0.000000 0.000000 0.000000 0.000000 0.345662
#
#
# Mechanical properties :
#
#
# Convention : Reuss Voigt Hill
#
# Bulk Modulus (GPa) = 33.03329 49.49172 41.26251
# Shear Modulus (GPa) = 9.24305 19.87569 14.55937
#
# Velocity S-wave (km/s) = 2.13110 3.12505 2.67465
# Velocity P-wave (km/s) = 4.72084 6.11056 5.46010
#
# Compressibility (1/GPa) = 0.03027249
#
# Stress axis : x y z
#
# Youngs Moduli (GPa) = 34.42901 34.42801 73.76025
#
# Poissons Ratio (x) = 0.10997 0.64517
# Poissons Ratio (y) = 0.10998 0.64519
# Poissons Ratio (z) = 0.30114 0.30114
#
# Static dielectric constant tensor:
#      x y z
#    x 1.727760 0.000000 0.000000 
#    y 0.000000 1.727760 0.000000 
#    z 0.000000 0.000000 1.697070 
# 
# From -- ./inp_files/6066.got.cif
#   From: 2010.05.17/outbox.cif.g08.bks.cpg/sg140_4_cif.got.tgz:6066.got - 2010.06.21 00:45:31.
