data_PCOD9572028
_publ_section_title
;
Structure prediction by ZEFSAII (Michael W. Deem and Ramdas Pophale) SiO2 
 PCOD9572028
Probable space group: I 4/M C M
;
_chemical_formula_sum "Si O2"
_cell_formula_units_Z 192
_cell_length_a 29.066218
_cell_length_b 29.066218
_cell_length_c 15.302516
_cell_angle_alpha 90.000000
_cell_angle_beta 90.000000
_cell_angle_gamma 90.000000
_cell_volume 12928.254571
_symmetry_space_group_name_H-M "I 4/M C M"
_symmetry_group_IT_number 140
_symmetry_cell_setting 'tetragonal'
loop_
_space_group_symop_operation_xyz
x,y,z
-y,x,z
-x,-y,z
y,-x,z
x,-y,1/2-z
-x,y,1/2-z
y,x,1/2-z
-y,-x,1/2-z
-x,-y,-z
y,-x,-z
x,y,-z
-y,x,-z
-x,y,1/2+z
x,-y,1/2+z
-y,-x,1/2+z
y,x,1/2+z
1/2+x,1/2+y,1/2+z
1/2-y,1/2+x,1/2+z
1/2-x,1/2-y,1/2+z
1/2+y,1/2-x,1/2+z
1/2+x,1/2-y,-z
1/2-x,1/2+y,-z
1/2+y,1/2+x,-z
1/2-y,1/2-x,-z
1/2-x,1/2-y,1/2-z
1/2+y,1/2-x,1/2-z
1/2+x,1/2+y,1/2-z
1/2-y,1/2+x,1/2-z
1/2-x,1/2+y,z
1/2+x,1/2-y,z
1/2-y,1/2-x,z
1/2+y,1/2+x,z
loop_
_atom_site_type_symbol
_atom_site_label
_atom_site_fract_x
_atom_site_fract_y
_atom_site_fract_z
Si Si1 0.392255 0.037803 0.815110
Si Si2 0.417116 0.158378 0.500000
Si Si3 0.204523 0.372980 0.170589
Si Si4 0.279577 0.298966 0.845327
Si Si5 0.217606 0.455207 0.303837
Si Si6 0.568935 0.781441 0.000000
Si Si7 0.673057 0.251879 0.500000
Si Si8 0.519769 0.875060 0.000000
O O1 0.412914 0.087087 0.793263
O O2 0.337414 0.037951 0.810626
O O3 0.403757 0.023682 0.912903
O O4 0.410887 0.000000 0.750000
O O5 0.390308 0.109693 0.500000
O O6 0.400978 0.184173 0.411851
O O7 0.471481 0.151761 0.500000
O O8 0.164955 0.335046 0.197340
O O9 0.248463 0.343627 0.138565
O O10 0.220197 0.408038 0.247011
O O11 0.301510 0.301510 0.750000
O O12 0.242827 0.257174 0.844631
O O13 0.316245 0.283955 0.916928
O O14 0.235441 0.500000 0.250000
O O15 0.234519 0.451072 0.404896
O O16 0.560018 0.836534 0.000000
O O17 0.622367 0.768590 0.000000
O O18 0.709902 0.209902 0.500000
#
# Coordination Sequence:
#
# PCOD9572028 Si02
#       8
#    32  16  32  32  32  16  16  16
#     4  10  20  33  46  59  76  97 124 163 211 265
#     4  10  19  31  48  65  81 105 141 184 226 264
#     4  10  18  29  46  65  85 114 148 179 221 273
#     4   9  17  28  41  60  87 114 140 172 211 260
#     4  10  20  32  47  65  85 108 139 182 225 263
#     4  10  20  31  45  64  84 109 137 169 222 273
#     4  10  19  30  44  65  92 117 143 180 225 272
#     4  10  21  34  47  64  82 101 131 173 218 264
#
# _framework density 14.851193
#
# number of rings (size 3 to 8) (size 9 to 14) (size 15 to 20)
#    0.000    2.167    0.000    5.250    0.000    8.833 
#    0.000    0.000    0.000    1.500    0.000    0.000 
#    0.000    0.000    0.000    0.000    0.000    0.000 
#
# Total GULP energy -534696.008796 kJ/mol
# GULP energy per Si atom -5569.750092 kJ/mol
# Density = 1.481739 g / cm^3
# Si number density = 14.851193 Si / 1000 Ang^3
#
#
#
# Elastic Constant Matrix: (Units=GPa)
#
#
# Indices 1 2 3 4 5 6 
#
# 1 43.6942 43.0074 35.8006 0.0000 0.0000 0.0000
# 2 43.0074 43.6944 35.7991 0.0000 0.0000 0.0000
# 3 35.8006 35.7991 111.7244 0.0000 0.0000 0.0000
# 4 0.0000 0.0000 0.0000 48.7553 0.0000 0.0000
# 5 0.0000 0.0000 0.0000 0.0000 48.7581 0.0000
# 6 0.0000 0.0000 0.0000 0.0000 0.0000 16.9449
#
#
#
# Elastic Compliance Matrix: (Units=1/GPa)
#
#
# Indices 1 2 3 4 5 6 
#
# 1 0.735766 -0.720068 -0.005040 0.000000 0.000000 0.000000
# 2 -0.720068 0.735738 -0.005011 0.000000 0.000000 0.000000
# 3 -0.005040 -0.005011 0.012171 0.000000 0.000000 0.000000
# 4 0.000000 0.000000 0.000000 0.020511 0.000000 0.000000
# 5 0.000000 0.000000 0.000000 0.000000 0.020509 0.000000
# 6 0.000000 0.000000 0.000000 0.000000 0.000000 0.059015
#
#
# Mechanical properties :
#
#
# Convention : Reuss Voigt Hill
#
# Bulk Modulus (GPa) = 42.66781 47.59193 45.12987
# Shear Modulus (GPa) = 1.63840 28.52539 15.08190
#
# Velocity S-wave (km/s) = 1.05148 4.38739 3.19020
# Velocity P-wave (km/s) = 5.50152 7.60138 6.63505
#
# Compressibility (1/GPa) = 0.02343687
#
# Stress axis : x y z
#
# Youngs Moduli (GPa) = 1.35913 1.35918 82.16026
#
# Poissons Ratio (x) = 0.97870 0.41409
# Poissons Ratio (y) = 0.97866 0.41173
# Poissons Ratio (z) = 0.00685 0.00681
#
# Static dielectric constant tensor:
#      x y z
#    x 1.481140 0.000000 0.000000 
#    y 0.000000 1.481140 0.000000 
#    z 0.000000 0.000000 1.544030 
# 
# From -- ./inp_files/5242.got.cif
#   From: 2010.05.17/outbox.cif.g08.bks.cpg/sg140_3_cif.got.tgz:5242.got - 2010.06.21 00:45:31.
