data_PCOD9572429
_publ_section_title
;
Structure prediction by ZEFSAII (Michael W. Deem and Ramdas Pophale) SiO2 
 PCOD9572429
Probable space group: I 4/M C M
;
_chemical_formula_sum "Si O2"
_cell_formula_units_Z 80
_cell_length_a 13.969729
_cell_length_b 13.969729
_cell_length_c 21.505360
_cell_angle_alpha 90.000000
_cell_angle_beta 90.000000
_cell_angle_gamma 90.000000
_cell_volume 4196.842581
_symmetry_space_group_name_H-M "I 4/M C M"
_symmetry_group_IT_number 140
_symmetry_cell_setting 'tetragonal'
loop_
_space_group_symop_operation_xyz
x,y,z
-y,x,z
-x,-y,z
y,-x,z
x,-y,1/2-z
-x,y,1/2-z
y,x,1/2-z
-y,-x,1/2-z
-x,-y,-z
y,-x,-z
x,y,-z
-y,x,-z
-x,y,1/2+z
x,-y,1/2+z
-y,-x,1/2+z
y,x,1/2+z
1/2+x,1/2+y,1/2+z
1/2-y,1/2+x,1/2+z
1/2-x,1/2-y,1/2+z
1/2+y,1/2-x,1/2+z
1/2+x,1/2-y,-z
1/2-x,1/2+y,-z
1/2+y,1/2+x,-z
1/2-y,1/2-x,-z
1/2-x,1/2-y,1/2-z
1/2+y,1/2-x,1/2-z
1/2+x,1/2+y,1/2-z
1/2-y,1/2+x,1/2-z
1/2-x,1/2+y,z
1/2+x,1/2-y,z
1/2-y,1/2-x,z
1/2+y,1/2+x,z
loop_
_atom_site_type_symbol
_atom_site_label
_atom_site_fract_x
_atom_site_fract_y
_atom_site_fract_z
Si Si1 0.616988 0.275369 0.070586
Si Si2 0.757293 0.415299 0.126625
Si Si3 0.000000 0.656016 0.750000
O O1 0.679055 0.179055 0.076667
O O2 0.662723 0.351096 0.118404
O O3 0.507391 0.253709 0.083680
O O4 0.630703 0.311447 0.000000
O O5 0.845348 0.345348 0.108779
O O6 0.781339 0.455361 0.194995
O O7 0.915393 0.584608 0.773388
#
# Coordination Sequence:
#
# PCOD9572429 Si02
#       3
#    32  32  16
#     4  10  21  36  56  82 111 149 191 228 279 336
#     4  10  21  37  56  81 114 146 185 235 277 328
#     4   9  18  34  58  85 112 148 188 225 278 337
#
# _framework density 19.061948999999998
#
# number of rings (size 3 to 8) (size 9 to 14) (size 15 to 20)
#    0.000    2.200    0.000    2.400    0.000    7.200 
#    0.000   10.000    0.000    2.400    0.000    0.000 
#    0.000    0.000    0.000    0.000    0.000    0.000 
#
# Total GULP energy -223169.418728 kJ/mol
# GULP energy per Si atom -5579.235468 kJ/mol
# Density = 1.901856 g / cm^3
# Si number density = 19.061949 Si / 1000 Ang^3
#
#
#
# Elastic Constant Matrix: (Units=GPa)
#
#
# Indices 1 2 3 4 5 6 
#
# 1 96.7161 41.0739 35.3355 0.0000 0.0000 0.0000
# 2 41.0739 96.7161 35.3355 0.0000 0.0000 0.0000
# 3 35.3355 35.3355 52.8882 0.0000 0.0000 0.0000
# 4 0.0000 0.0000 0.0000 37.5045 0.0000 0.0000
# 5 0.0000 0.0000 0.0000 0.0000 37.5045 0.0000
# 6 0.0000 0.0000 0.0000 0.0000 0.0000 9.2971
#
#
#
# Elastic Compliance Matrix: (Units=1/GPa)
#
#
# Indices 1 2 3 4 5 6 
#
# 1 0.014506 -0.003466 -0.007377 0.000000 0.000000 0.000000
# 2 -0.003466 0.014506 -0.007377 0.000000 0.000000 0.000000
# 3 -0.007377 -0.007377 0.028765 0.000000 0.000000 0.000000
# 4 0.000000 0.000000 0.000000 0.026663 0.000000 0.000000
# 5 0.000000 0.000000 0.000000 0.000000 0.026663 0.000000
# 6 0.000000 0.000000 0.000000 0.000000 0.000000 0.107560
#
#
# Mechanical properties :
#
#
# Convention : Reuss Voigt Hill
#
# Bulk Modulus (GPa) = 46.86034 52.20115 49.53075
# Shear Modulus (GPa) = 19.06831 25.83293 22.45062
#
# Velocity S-wave (km/s) = 3.16624 3.68531 3.43559
# Velocity P-wave (km/s) = 6.16468 6.74931 6.46361
#
# Compressibility (1/GPa) = 0.02134001
#
# Stress axis : x y z
#
# Youngs Moduli (GPa) = 68.93523 68.93523 34.76496
#
# Poissons Ratio (x) = 0.23890 0.25644
# Poissons Ratio (y) = 0.23890 0.25644
# Poissons Ratio (z) = 0.50850 0.50850
#
# Static dielectric constant tensor:
#      x y z
#    x 1.647280 0.000000 0.000000 
#    y 0.000000 1.647280 0.000000 
#    z 0.000000 0.000000 1.662150 
# 
# From -- ./inp_files/7486.got.cif
#   From: 2010.05.17/outbox.cif.g08.bks.cpg/sg140_4_cif.got.tgz:7486.got - 2010.06.21 00:45:31.
