data_PCOD9572423
_publ_section_title
;
Structure prediction by ZEFSAII (Michael W. Deem and Ramdas Pophale) SiO2 
 PCOD9572423
Probable space group: I 4/M C M
;
_chemical_formula_sum "Si O2"
_cell_formula_units_Z 160
_cell_length_a 20.944231
_cell_length_b 20.944231
_cell_length_c 18.763108
_cell_angle_alpha 90.000000
_cell_angle_beta 90.000000
_cell_angle_gamma 90.000000
_cell_volume 8230.640194
_symmetry_space_group_name_H-M "I 4/M C M"
_symmetry_group_IT_number 140
_symmetry_cell_setting 'tetragonal'
loop_
_space_group_symop_operation_xyz
x,y,z
-y,x,z
-x,-y,z
y,-x,z
x,-y,1/2-z
-x,y,1/2-z
y,x,1/2-z
-y,-x,1/2-z
-x,-y,-z
y,-x,-z
x,y,-z
-y,x,-z
-x,y,1/2+z
x,-y,1/2+z
-y,-x,1/2+z
y,x,1/2+z
1/2+x,1/2+y,1/2+z
1/2-y,1/2+x,1/2+z
1/2-x,1/2-y,1/2+z
1/2+y,1/2-x,1/2+z
1/2+x,1/2-y,-z
1/2-x,1/2+y,-z
1/2+y,1/2+x,-z
1/2-y,1/2-x,-z
1/2-x,1/2-y,1/2-z
1/2+y,1/2-x,1/2-z
1/2+x,1/2+y,1/2-z
1/2-y,1/2+x,1/2-z
1/2-x,1/2+y,z
1/2+x,1/2-y,z
1/2-y,1/2-x,z
1/2+y,1/2+x,z
loop_
_atom_site_type_symbol
_atom_site_label
_atom_site_fract_x
_atom_site_fract_y
_atom_site_fract_z
Si Si1 0.647181 0.251058 0.310459
Si Si2 0.460714 0.856529 0.323902
Si Si3 0.656597 0.567063 0.783920
Si Si4 0.133767 0.178846 0.083585
Si Si5 0.579977 0.820727 0.583760
O O1 0.712130 0.212130 0.297986
O O2 0.593930 0.197310 0.323166
O O3 0.617600 0.290406 0.244288
O O4 0.657844 0.301360 0.375422
O O5 0.500000 0.862070 0.250000
O O6 0.423286 0.923286 0.339080
O O7 0.512526 0.829483 0.379075
O O8 0.674705 0.500000 0.750000
O O9 0.590679 0.590679 0.750000
O O10 0.650927 0.575790 0.868397
O O11 0.117927 0.254174 0.088776
O O12 0.135126 0.161685 0.000000
O O13 0.570968 0.831779 0.500000
O O14 0.625539 0.874462 0.616173
#
# Coordination Sequence:
#
# PCOD9572423 Si02
#       5
#    32  32  32  32  32
#     4  10  21  36  57  85 116 151 194 246 303 363
#     4  11  23  38  58  84 115 154 200 250 300 352
#     4  10  21  38  60  85 114 152 197 241 292 356
#     4  10  21  37  59  87 118 150 190 245 307 366
#     4  10  21  36  54  77 109 151 194 236 289 356
#
# _framework density 19.439557000000001
#
# number of rings (size 3 to 8) (size 9 to 14) (size 15 to 20)
#    0.000    1.800    0.000    4.200    0.000   10.000 
#    0.000    9.000    0.000    0.000    0.000    5.600 
#    0.000    0.000    0.000    0.000    0.000    0.000 
#
# Total GULP energy -445833.842306 kJ/mol
# GULP energy per Si atom -5572.923029 kJ/mol
# Density = 1.939531 g / cm^3
# Si number density = 19.439557 Si / 1000 Ang^3
#
#
#
# Elastic Constant Matrix: (Units=GPa)
#
#
# Indices 1 2 3 4 5 6 
#
# 1 128.1072 -36.6051 39.3594 0.0000 0.0000 0.0000
# 2 -36.6051 128.1072 39.3594 0.0000 0.0000 0.0000
# 3 39.3594 39.3594 119.2340 0.0000 0.0000 0.0000
# 4 0.0000 0.0000 0.0000 22.2479 0.0000 0.0000
# 5 0.0000 0.0000 0.0000 0.0000 22.2479 0.0000
# 6 0.0000 0.0000 0.0000 0.0000 0.0000 23.7666
#
#
#
# Elastic Compliance Matrix: (Units=1/GPa)
#
#
# Indices 1 2 3 4 5 6 
#
# 1 0.010667 0.004596 -0.005038 0.000000 0.000000 0.000000
# 2 0.004596 0.010667 -0.005038 0.000000 0.000000 0.000000
# 3 -0.005038 -0.005038 0.011713 0.000000 0.000000 0.000000
# 4 0.000000 0.000000 0.000000 0.044948 0.000000 0.000000
# 5 0.000000 0.000000 0.000000 0.000000 0.044948 0.000000
# 6 0.000000 0.000000 0.000000 0.000000 0.000000 0.042076
#
#
# Mechanical properties :
#
#
# Convention : Reuss Voigt Hill
#
# Bulk Modulus (GPa) = 45.27748 51.07509 48.17628
# Shear Modulus (GPa) = 27.27122 35.87479 31.57300
#
# Velocity S-wave (km/s) = 3.74956 4.30053 4.03446
# Velocity P-wave (km/s) = 6.48749 7.14075 6.82194
#
# Compressibility (1/GPa) = 0.02208604
#
# Stress axis : x y z
#
# Youngs Moduli (GPa) = 93.74514 93.74514 85.37331
#
# Poissons Ratio (x) = -0.43086 0.43015
# Poissons Ratio (y) = -0.43086 0.43015
# Poissons Ratio (z) = 0.47233 0.47233
#
# Static dielectric constant tensor:
#      x y z
#    x 1.758510 0.000000 0.000000 
#    y 0.000000 1.758510 0.000000 
#    z 0.000000 0.000000 1.712540 
# 
# From -- ./inp_files/6812.got.cif
#   From: 2010.05.17/outbox.cif.g08.bks.cpg/sg140_4_cif.got.tgz:6812.got - 2010.06.21 00:45:31.
