data_PCOD9572634
_publ_section_title
;
Structure prediction by ZEFSAII (Michael W. Deem and Ramdas Pophale) SiO2 
 PCOD9572634
Probable space group: I 4/M C M
;
_chemical_formula_sum "Si O2"
_cell_formula_units_Z 176
_cell_length_a 24.119438
_cell_length_b 24.119438
_cell_length_c 15.355582
_cell_angle_alpha 90.000000
_cell_angle_beta 90.000000
_cell_angle_gamma 90.000000
_cell_volume 8933.068206
_symmetry_space_group_name_H-M "I 4/M C M"
_symmetry_group_IT_number 140
_symmetry_cell_setting 'tetragonal'
loop_
_space_group_symop_operation_xyz
x,y,z
-y,x,z
-x,-y,z
y,-x,z
x,-y,1/2-z
-x,y,1/2-z
y,x,1/2-z
-y,-x,1/2-z
-x,-y,-z
y,-x,-z
x,y,-z
-y,x,-z
-x,y,1/2+z
x,-y,1/2+z
-y,-x,1/2+z
y,x,1/2+z
1/2+x,1/2+y,1/2+z
1/2-y,1/2+x,1/2+z
1/2-x,1/2-y,1/2+z
1/2+y,1/2-x,1/2+z
1/2+x,1/2-y,-z
1/2-x,1/2+y,-z
1/2+y,1/2+x,-z
1/2-y,1/2-x,-z
1/2-x,1/2-y,1/2-z
1/2+y,1/2-x,1/2-z
1/2+x,1/2+y,1/2-z
1/2-y,1/2+x,1/2-z
1/2-x,1/2+y,z
1/2+x,1/2-y,z
1/2-y,1/2-x,z
1/2+y,1/2+x,z
loop_
_atom_site_type_symbol
_atom_site_label
_atom_site_fract_x
_atom_site_fract_y
_atom_site_fract_z
Si Si1 0.720139 0.305661 0.895516
Si Si2 0.566193 0.734647 0.099110
Si Si3 0.326591 0.980886 0.150774
Si Si4 0.545336 0.045336 0.896094
Si Si5 0.648944 0.557149 0.242743
Si Si6 0.597580 0.270281 0.895488
O O1 0.764788 0.264788 0.856697
O O2 0.740912 0.368130 0.885449
O O3 0.659461 0.286560 0.865430
O O4 0.717007 0.298028 0.000000
O O5 0.529712 0.790747 0.103974
O O6 0.553304 0.692816 0.177928
O O7 0.558986 0.712215 0.000000
O O8 0.324405 0.000000 0.250000
O O9 0.391068 0.970599 0.128161
O O10 0.289671 0.925793 0.133031
O O11 0.500000 0.000000 0.862430
O O12 0.543067 0.043067 0.000000
O O13 0.615837 0.500000 0.250000
O O14 0.609656 0.609656 0.250000
O O15 0.683652 0.561637 0.153740
O O16 0.593500 0.273700 0.000000
#
# Coordination Sequence:
#
# PCOD9572634 Si02
#       6
#    32  32  32  16  32  32
#     4   9  20  36  59  94 131 164 202 261 339 405
#     4  11  21  40  67  94 128 171 220 274 331 405
#     4  12  25  43  70 100 131 173 229 283 342 400
#     4  11  28  50  70  96 135 188 240 292 346 399
#     4  12  24  41  63  95 132 171 224 270 331 410
#     4  11  21  39  66  96 130 170 216 276 338 406
#
# _framework density 19.702076999999999
#
# number of rings (size 3 to 8) (size 9 to 14) (size 15 to 20)
#    0.000    1.000    5.455    1.636    2.545    0.909 
#    0.000    3.636    0.000    0.000    0.000    2.545 
#    0.000    0.000    0.000    0.000    0.000    0.000 
#
# Total GULP energy -490434.048212 kJ/mol
# GULP energy per Si atom -5573.114184 kJ/mol
# Density = 1.965723 g / cm^3
# Si number density = 19.702077 Si / 1000 Ang^3
#
#
#
# Elastic Constant Matrix: (Units=GPa)
#
#
# Indices 1 2 3 4 5 6 
#
# 1 123.8423 82.3895 13.9368 0.0000 0.0000 0.0000
# 2 82.3895 123.8423 13.9368 0.0000 0.0000 0.0000
# 3 13.9368 13.9368 85.7376 0.0000 0.0000 0.0000
# 4 0.0000 0.0000 0.0000 24.3935 0.0000 0.0000
# 5 0.0000 0.0000 0.0000 0.0000 24.3935 0.0000
# 6 0.0000 0.0000 0.0000 0.0000 0.0000 39.6467
#
#
#
# Elastic Compliance Matrix: (Units=1/GPa)
#
#
# Indices 1 2 3 4 5 6 
#
# 1 0.014541 -0.009583 -0.000806 0.000000 0.000000 0.000000
# 2 -0.009583 0.014541 -0.000806 0.000000 0.000000 0.000000
# 3 -0.000806 -0.000806 0.011925 0.000000 0.000000 0.000000
# 4 0.000000 0.000000 0.000000 0.040994 0.000000 0.000000
# 5 0.000000 0.000000 0.000000 0.000000 0.040994 0.000000
# 6 0.000000 0.000000 0.000000 0.000000 0.000000 0.025223
#
#
# Mechanical properties :
#
#
# Convention : Reuss Voigt Hill
#
# Bulk Modulus (GPa) = 53.71276 61.54981 57.63129
# Shear Modulus (GPa) = 28.27824 32.56402 30.42113
#
# Velocity S-wave (km/s) = 3.79264 4.06990 3.93371
# Velocity P-wave (km/s) = 6.81912 7.30709 7.06732
#
# Compressibility (1/GPa) = 0.01861755
#
# Stress axis : x y z
#
# Youngs Moduli (GPa) = 68.77185 68.77185 83.85399
#
# Poissons Ratio (x) = 0.65904 0.06758
# Poissons Ratio (y) = 0.65904 0.06758
# Poissons Ratio (z) = 0.05542 0.05542
#
# Static dielectric constant tensor:
#      x y z
#    x 1.743360 0.000000 0.000000 
#    y 0.000000 1.743360 0.000000 
#    z 0.000000 0.000000 1.716150 
# 
# From -- ./inp_files/4885.got.cif
#   From: 2010.05.17/outbox.cif.g08.bks.cpg/sg140_3_cif.got.tgz:4885.got - 2010.06.21 00:45:31.
