data_PCOD9572680
_publ_section_title
;
Structure prediction by ZEFSAII (Michael W. Deem and Ramdas Pophale) SiO2 
 PCOD9572680
Probable space group: I 4/M C M
;
_chemical_formula_sum "Si O2"
_cell_formula_units_Z 160
_cell_length_a 28.823746
_cell_length_b 28.823746
_cell_length_c 10.618184
_cell_angle_alpha 90.000000
_cell_angle_beta 90.000000
_cell_angle_gamma 90.000000
_cell_volume 8821.675754
_symmetry_space_group_name_H-M "I 4/M C M"
_symmetry_group_IT_number 140
_symmetry_cell_setting 'tetragonal'
loop_
_space_group_symop_operation_xyz
x,y,z
-y,x,z
-x,-y,z
y,-x,z
x,-y,1/2-z
-x,y,1/2-z
y,x,1/2-z
-y,-x,1/2-z
-x,-y,-z
y,-x,-z
x,y,-z
-y,x,-z
-x,y,1/2+z
x,-y,1/2+z
-y,-x,1/2+z
y,x,1/2+z
1/2+x,1/2+y,1/2+z
1/2-y,1/2+x,1/2+z
1/2-x,1/2-y,1/2+z
1/2+y,1/2-x,1/2+z
1/2+x,1/2-y,-z
1/2-x,1/2+y,-z
1/2+y,1/2+x,-z
1/2-y,1/2-x,-z
1/2-x,1/2-y,1/2-z
1/2+y,1/2-x,1/2-z
1/2+x,1/2+y,1/2-z
1/2-y,1/2+x,1/2-z
1/2-x,1/2+y,z
1/2+x,1/2-y,z
1/2-y,1/2-x,z
1/2+y,1/2+x,z
loop_
_atom_site_type_symbol
_atom_site_label
_atom_site_fract_x
_atom_site_fract_y
_atom_site_fract_z
Si Si1 0.195828 0.089709 0.000000
Si Si2 0.909993 0.901481 0.500000
Si Si3 0.822377 0.602946 0.652513
Si Si4 0.725857 0.351591 0.239227
Si Si5 0.506862 0.255361 0.000000
Si Si6 0.802457 0.500000 0.250000
Si Si7 0.697789 0.398385 0.500000
Si Si8 0.445708 0.554293 0.750000
O O1 0.200721 0.120711 0.125256
O O2 0.146992 0.063807 0.000000
O O3 0.230873 0.046982 0.000000
O O4 0.856396 0.889381 0.500000
O O5 0.922344 0.927429 0.374593
O O6 0.817852 0.600918 0.500000
O O7 0.869354 0.630647 0.682596
O O8 0.779643 0.635814 0.703120
O O9 0.824161 0.550120 0.706967
O O10 0.699489 0.300512 0.250000
O O11 0.718214 0.375547 0.374085
O O12 0.514129 0.227040 0.127794
O O13 0.546367 0.294348 0.000000
O O14 0.437243 0.500000 0.750000
#
# Coordination Sequence:
#
# PCOD9572680 Si02
#       8
#    16  16  32  32  16  16  16  16
#     4  12  22  39  57  89 119 164 208 255 328 391
#     4  12  24  41  58  84 111 152 204 266 328 396
#     4  11  24  43  69  99 134 179 221 259 320 391
#     4  12  21  40  61  88 131 171 209 259 314 377
#     4  12  22  36  64  92 119 165 214 266 330 384
#     4  12  20  42  66  97 130 166 213 268 316 376
#     4  12  24  35  57  93 121 154 202 271 328 373
#     4  11  26  44  56  70 102 148 203 270 336 400
#
# _framework density 18.137142999999998
#
# number of rings (size 3 to 8) (size 9 to 14) (size 15 to 20)
#    0.000    0.300    8.000    1.800    2.800    1.200 
#    0.000    2.000    0.000    0.300    0.000    1.400 
#    0.000    0.000    0.000    0.000    0.000    0.000 
#
# Total GULP energy -445631.182963 kJ/mol
# GULP energy per Si atom -5570.389787 kJ/mol
# Density = 1.809586 g / cm^3
# Si number density = 18.137143 Si / 1000 Ang^3
#
#
#
# Elastic Constant Matrix: (Units=GPa)
#
#
# Indices 1 2 3 4 5 6 
#
# 1 93.6156 47.4528 33.3377 0.0000 0.0000 0.0000
# 2 47.4528 93.6155 33.3381 0.0000 0.0000 0.0000
# 3 33.3377 33.3381 155.1092 0.0000 0.0000 0.0000
# 4 0.0000 0.0000 0.0000 19.3460 0.0000 0.0000
# 5 0.0000 0.0000 0.0000 0.0000 19.3414 0.0000
# 6 0.0000 0.0000 0.0000 0.0000 0.0000 39.4158
#
#
#
# Elastic Compliance Matrix: (Units=1/GPa)
#
#
# Indices 1 2 3 4 5 6 
#
# 1 0.014776 -0.006886 -0.001696 0.000000 0.000000 0.000000
# 2 -0.006886 0.014776 -0.001696 0.000000 0.000000 0.000000
# 3 -0.001696 -0.001696 0.007176 0.000000 0.000000 0.000000
# 4 0.000000 0.000000 0.000000 0.051690 0.000000 0.000000
# 5 0.000000 0.000000 0.000000 0.000000 0.051702 0.000000
# 6 0.000000 0.000000 0.000000 0.000000 0.000000 0.025371
#
#
# Mechanical properties :
#
#
# Convention : Reuss Voigt Hill
#
# Bulk Modulus (GPa) = 61.83076 63.39973 62.61525
# Shear Modulus (GPa) = 26.11801 30.83476 28.47639
#
# Velocity S-wave (km/s) = 3.79889 4.12769 3.96670
# Velocity P-wave (km/s) = 7.30799 7.59926 7.45505
#
# Compressibility (1/GPa) = 0.01617318
#
# Stress axis : x y z
#
# Youngs Moduli (GPa) = 67.67552 67.67539 139.35208
#
# Poissons Ratio (x) = 0.46602 0.23632
# Poissons Ratio (y) = 0.46602 0.23633
# Poissons Ratio (z) = 0.11477 0.11477
#
# Static dielectric constant tensor:
#      x y z
#    x 1.639440 0.000000 0.000000 
#    y 0.000000 1.639440 0.000000 
#    z 0.000000 0.000000 1.583650 
# 
# From -- ./inp_files/1920.got.cif
#   From: 2010.05.17/outbox.cif.g08.bks.cpg/sg140_1_cif.got.tgz:1920.got - 2010.06.21 00:45:31.
