data_PCOD9572545
_publ_section_title
;
Structure prediction by ZEFSAII (Michael W. Deem and Ramdas Pophale) SiO2 
 PCOD9572545
Probable space group: I 4/M C M
;
_chemical_formula_sum "Si O2"
_cell_formula_units_Z 160
_cell_length_a 30.015861
_cell_length_b 30.015861
_cell_length_c 8.900307
_cell_angle_alpha 90.000000
_cell_angle_beta 90.000000
_cell_angle_gamma 90.000000
_cell_volume 8018.748605
_symmetry_space_group_name_H-M "I 4/M C M"
_symmetry_group_IT_number 140
_symmetry_cell_setting 'tetragonal'
loop_
_space_group_symop_operation_xyz
x,y,z
-y,x,z
-x,-y,z
y,-x,z
x,-y,1/2-z
-x,y,1/2-z
y,x,1/2-z
-y,-x,1/2-z
-x,-y,-z
y,-x,-z
x,y,-z
-y,x,-z
-x,y,1/2+z
x,-y,1/2+z
-y,-x,1/2+z
y,x,1/2+z
1/2+x,1/2+y,1/2+z
1/2-y,1/2+x,1/2+z
1/2-x,1/2-y,1/2+z
1/2+y,1/2-x,1/2+z
1/2+x,1/2-y,-z
1/2-x,1/2+y,-z
1/2+y,1/2+x,-z
1/2-y,1/2-x,-z
1/2-x,1/2-y,1/2-z
1/2+y,1/2-x,1/2-z
1/2+x,1/2+y,1/2-z
1/2-y,1/2+x,1/2-z
1/2-x,1/2+y,z
1/2+x,1/2-y,z
1/2-y,1/2-x,z
1/2+y,1/2+x,z
loop_
_atom_site_type_symbol
_atom_site_label
_atom_site_fract_x
_atom_site_fract_y
_atom_site_fract_z
Si Si1 0.572374 0.721309 0.326274
Si Si2 0.699449 0.199449 0.824647
Si Si3 0.839439 0.216969 0.173179
Si Si4 0.867668 0.632333 0.322470
Si Si5 0.322838 0.045612 0.675196
Si Si6 0.617753 0.452140 0.679010
O O1 0.590181 0.720451 0.500000
O O2 0.609569 0.727348 0.199813
O O3 0.546882 0.768443 0.316199
O O4 0.552500 0.671900 0.300541
O O5 0.749059 0.187099 0.779072
O O6 0.669082 0.169082 0.719777
O O7 0.691139 0.191139 0.000000
O O8 0.830476 0.169524 0.250000
O O9 0.826904 0.219670 0.000000
O O10 0.872395 0.627606 0.500000
O O11 0.912786 0.652608 0.252746
O O12 0.333854 0.047167 0.500000
O O13 0.337947 0.000000 0.750000
O O14 0.604949 0.500000 0.750000
O O15 0.587968 0.412033 0.750000
O O16 0.610045 0.452244 0.500000
#
# Coordination Sequence:
#
# PCOD9572545 Si02
#       6
#    32  16  32  16  32  32
#     4  10  22  40  63  92 128 166 207 257 315 374
#     4  12  23  39  58  82 120 163 211 264 315 367
#     4  12  24  37  56  83 120 167 216 261 311 370
#     4  12  24  41  65  97 131 170 218 264 319 380
#     4  11  23  41  67  98 134 174 214 262 315 372
#     4  11  24  43  66  93 123 161 206 261 322 386
#
# _framework density 19.953237999999999
#
# number of rings (size 3 to 8) (size 9 to 14) (size 15 to 20)
#    0.000    0.800    2.000    6.300    0.000    4.200 
#    0.000    1.000    0.000    0.300    0.000    2.100 
#    0.000    0.000    0.000    0.000    0.000    0.000 
#
# Total GULP energy -446418.724857 kJ/mol
# GULP energy per Si atom -5580.234061 kJ/mol
# Density = 1.990782 g / cm^3
# Si number density = 19.953238 Si / 1000 Ang^3
#
#
#
# Elastic Constant Matrix: (Units=GPa)
#
#
# Indices 1 2 3 4 5 6 
#
# 1 92.9241 46.0264 47.4075 0.0000 0.0000 0.0000
# 2 46.0264 92.9357 47.4066 0.0000 0.0000 0.0000
# 3 47.4075 47.4066 134.4436 0.0000 0.0000 0.0000
# 4 0.0000 0.0000 0.0000 27.7408 0.0000 0.0000
# 5 0.0000 0.0000 0.0000 0.0000 27.7391 0.0000
# 6 0.0000 0.0000 0.0000 0.0000 0.0000 15.0011
#
#
#
# Elastic Compliance Matrix: (Units=1/GPa)
#
#
# Indices 1 2 3 4 5 6 
#
# 1 0.015400 -0.005922 -0.003342 0.000000 0.000000 0.000000
# 2 -0.005922 0.015397 -0.003341 0.000000 0.000000 0.000000
# 3 -0.003342 -0.003341 0.009795 0.000000 0.000000 0.000000
# 4 0.000000 0.000000 0.000000 0.036048 0.000000 0.000000
# 5 0.000000 0.000000 0.000000 0.000000 0.036050 0.000000
# 6 0.000000 0.000000 0.000000 0.000000 0.000000 0.066662
#
#
# Mechanical properties :
#
#
# Convention : Reuss Voigt Hill
#
# Bulk Modulus (GPa) = 65.01343 66.88714 65.95028
# Shear Modulus (GPa) = 23.84487 26.06041 24.95264
#
# Velocity S-wave (km/s) = 3.46068 3.61789 3.54016
# Velocity P-wave (km/s) = 6.97295 7.14471 7.05935
#
# Compressibility (1/GPa) = 0.01538144
#
# Stress axis : x y z
#
# Youngs Moduli (GPa) = 64.93631 64.94671 102.09629
#
# Poissons Ratio (x) = 0.38461 0.34122
# Poissons Ratio (y) = 0.38455 0.34111
# Poissons Ratio (z) = 0.21702 0.21699
#
# Static dielectric constant tensor:
#      x y z
#    x 1.744730 0.000000 0.000000 
#    y 0.000000 1.744730 0.000000 
#    z 0.000000 0.000000 1.654200 
# 
# From -- ./inp_files/1852.got.cif
#   From: 2010.05.17/outbox.cif.g08.bks.cpg/sg140_1_cif.got.tgz:1852.got - 2010.06.21 00:45:31.
