data_PCOD9572699
_publ_section_title
;
Structure prediction by ZEFSAII (Michael W. Deem and Ramdas Pophale) SiO2 
 PCOD9572699
Probable space group: I 4/M C M
;
_chemical_formula_sum "Si O2"
_cell_formula_units_Z 112
_cell_length_a 18.184332
_cell_length_b 18.184332
_cell_length_c 14.343991
_cell_angle_alpha 90.000000
_cell_angle_beta 90.000000
_cell_angle_gamma 90.000000
_cell_volume 4743.126504
_symmetry_space_group_name_H-M "I 4/M C M"
_symmetry_group_IT_number 140
_symmetry_cell_setting 'tetragonal'
loop_
_space_group_symop_operation_xyz
x,y,z
-y,x,z
-x,-y,z
y,-x,z
x,-y,1/2-z
-x,y,1/2-z
y,x,1/2-z
-y,-x,1/2-z
-x,-y,-z
y,-x,-z
x,y,-z
-y,x,-z
-x,y,1/2+z
x,-y,1/2+z
-y,-x,1/2+z
y,x,1/2+z
1/2+x,1/2+y,1/2+z
1/2-y,1/2+x,1/2+z
1/2-x,1/2-y,1/2+z
1/2+y,1/2-x,1/2+z
1/2+x,1/2-y,-z
1/2-x,1/2+y,-z
1/2+y,1/2+x,-z
1/2-y,1/2-x,-z
1/2-x,1/2-y,1/2-z
1/2+y,1/2-x,1/2-z
1/2+x,1/2+y,1/2-z
1/2-y,1/2+x,1/2-z
1/2-x,1/2+y,z
1/2+x,1/2-y,z
1/2-y,1/2-x,z
1/2+y,1/2+x,z
loop_
_atom_site_type_symbol
_atom_site_label
_atom_site_fract_x
_atom_site_fract_y
_atom_site_fract_z
Si Si1 0.952475 0.673608 0.609064
Si Si2 0.217219 0.833204 0.350672
Si Si3 0.418858 0.586250 0.136419
Si Si4 0.060821 0.439180 0.113813
O O1 0.960953 0.693842 0.500000
O O2 0.894540 0.605460 0.611368
O O3 0.910490 0.739324 0.658376
O O4 0.029415 0.639472 0.644443
O O5 0.197013 0.802988 0.250000
O O6 0.273720 0.773720 0.393903
O O7 0.140216 0.854507 0.396823
O O8 0.399512 0.502754 0.108583
O O9 0.415014 0.584987 0.250000
O O10 0.000000 0.500000 0.141243
O O11 0.061586 0.438415 0.000000
#
# Coordination Sequence:
#
# PCOD9572699 Si02
#       4
#    32  32  32  16
#     4   8  13  22  38  61  90 126 164 195 229 283
#     4   9  16  25  41  68  95 117 148 198 255 300
#     4   8  14  26  45  65  83 112 157 200 232 279
#     4   7  10  18  34  56  82 118 164 201 221 261
#
# _framework density 23.613116000000002
#
# number of rings (size 3 to 8) (size 9 to 14) (size 15 to 20)
#    0.000    3.857    0.000    2.571    0.000    0.000 
#    0.000    0.000    3.143    1.714   11.143    2.000 
#    0.000    0.000    0.000    1.286    0.857   41.143 
#
# Total GULP energy -312170.640076 kJ/mol
# GULP energy per Si atom -5574.475716 kJ/mol
# Density = 2.355937 g / cm^3
# Si number density = 23.613116 Si / 1000 Ang^3
#
#
#
# Elastic Constant Matrix: (Units=GPa)
#
#
# Indices 1 2 3 4 5 6 
#
# 1 87.0360 96.9167 22.4367 0.0000 0.0000 0.0000
# 2 96.9167 87.0321 22.4379 0.0000 0.0000 0.0000
# 3 22.4367 22.4379 92.0478 0.0000 0.0000 0.0000
# 4 0.0000 0.0000 0.0000 -12.6040 0.0000 0.0000
# 5 0.0000 0.0000 0.0000 0.0000 -12.6086 0.0000
# 6 0.0000 0.0000 0.0000 0.0000 0.0000 64.0806
#
#
#
# Elastic Compliance Matrix: (Units=1/GPa)
#
#
# Indices 1 2 3 4 5 6 
#
# 1 -0.047702 0.053483 -0.001410 0.000000 0.000000 0.000000
# 2 0.053483 -0.047705 -0.001408 0.000000 0.000000 0.000000
# 3 -0.001410 -0.001408 0.011551 0.000000 0.000000 0.000000
# 4 0.000000 0.000000 0.000000 -0.079340 0.000000 0.000000
# 5 0.000000 0.000000 0.000000 0.000000 -0.079311 0.000000
# 6 0.000000 0.000000 0.000000 0.000000 0.000000 0.015605
#
#
# Mechanical properties :
#
#
# Convention : Reuss Voigt Hill
#
# Bulk Modulus (GPa) = 57.22445 61.07763 59.15104
# Shear Modulus (GPa) = -15.50830 16.06191 0.27680
#
# Velocity S-wave (km/s) = -2.56553 2.61092 0.34275
# Velocity P-wave (km/s) = 3.93839 5.91703 5.02604
#
# Compressibility (1/GPa) = 0.01747505
#
# Stress axis : x y z
#
# Youngs Moduli (GPa) = -20.96340 -20.96226 86.57428
#
# Poissons Ratio (x) = 1.12113 0.12205
# Poissons Ratio (y) = 1.12119 0.12189
# Poissons Ratio (z) = -0.02955 -0.02951
#
# Static dielectric constant tensor:
#      x y z
#    x 1.916780 0.000000 0.000000 
#    y 0.000000 1.916780 0.000000 
#    z 0.000000 0.000000 1.894320 
# 
# From -- ./inp_files/6132.got.cif
#   From: 2010.05.17/outbox.cif.g08.bks.cpg/sg140_4_cif.got.tgz:6132.got - 2010.06.21 00:45:31.
