data_PCOD9572685
_publ_section_title
;
Structure prediction by ZEFSAII (Michael W. Deem and Ramdas Pophale) SiO2 
 PCOD9572685
Probable space group: I 4/M C M
;
_chemical_formula_sum "Si O2"
_cell_formula_units_Z 112
_cell_length_a 17.529085
_cell_length_b 17.529085
_cell_length_c 16.829338
_cell_angle_alpha 90.000000
_cell_angle_beta 90.000000
_cell_angle_gamma 90.000000
_cell_volume 5171.130844
_symmetry_space_group_name_H-M "I 4/M C M"
_symmetry_group_IT_number 140
_symmetry_cell_setting 'tetragonal'
loop_
_space_group_symop_operation_xyz
x,y,z
-y,x,z
-x,-y,z
y,-x,z
x,-y,1/2-z
-x,y,1/2-z
y,x,1/2-z
-y,-x,1/2-z
-x,-y,-z
y,-x,-z
x,y,-z
-y,x,-z
-x,y,1/2+z
x,-y,1/2+z
-y,-x,1/2+z
y,x,1/2+z
1/2+x,1/2+y,1/2+z
1/2-y,1/2+x,1/2+z
1/2-x,1/2-y,1/2+z
1/2+y,1/2-x,1/2+z
1/2+x,1/2-y,-z
1/2-x,1/2+y,-z
1/2+y,1/2+x,-z
1/2-y,1/2-x,-z
1/2-x,1/2-y,1/2-z
1/2+y,1/2-x,1/2-z
1/2+x,1/2+y,1/2-z
1/2-y,1/2+x,1/2-z
1/2-x,1/2+y,z
1/2+x,1/2-y,z
1/2-y,1/2-x,z
1/2+y,1/2+x,z
loop_
_atom_site_type_symbol
_atom_site_label
_atom_site_fract_x
_atom_site_fract_y
_atom_site_fract_z
Si Si1 0.182080 0.557172 0.325272
Si Si2 0.365617 0.659646 0.165431
Si Si3 0.592625 0.785807 0.091958
Si Si4 0.609115 0.564277 0.000000
O O1 0.178702 0.500000 0.250000
O O2 0.104753 0.604753 0.335588
O O3 0.251476 0.617309 0.318426
O O4 0.202817 0.496839 0.393928
O O5 0.382403 0.617598 0.250000
O O6 0.281060 0.632016 0.142182
O O7 0.412336 0.643328 0.085002
O O8 0.635858 0.864143 0.112072
O O9 0.607136 0.767808 0.000000
O O10 0.525861 0.601356 0.000000
#
# Coordination Sequence:
#
# PCOD9572685 Si02
#       4
#    32  32  32  16
#     4  12  27  45  72 107 146 194 250 308 372 443
#     4  12  25  45  75 104 142 191 246 301 365 441
#     4  11  25  46  70 103 146 190 243 307 369 434
#     4  11  26  44  69 108 150 190 239 303 372 444
#
# _framework density 21.658705999999999
#
# number of rings (size 3 to 8) (size 9 to 14) (size 15 to 20)
#    0.000    0.429    4.286    3.429    2.000    3.714 
#    0.000    2.857    0.000    0.000    0.000    0.000 
#    0.000    0.000    0.000    0.000    0.000    0.000 
#
# Total GULP energy -312668.582388 kJ/mol
# GULP energy per Si atom -5583.367543 kJ/mol
# Density = 2.160941 g / cm^3
# Si number density = 21.658706 Si / 1000 Ang^3
#
#
#
# Elastic Constant Matrix: (Units=GPa)
#
#
# Indices 1 2 3 4 5 6 
#
# 1 110.2369 76.9290 43.0155 0.0000 0.0000 0.0000
# 2 76.9290 110.2380 43.0158 0.0000 0.0000 0.0000
# 3 43.0155 43.0158 155.3367 0.0000 0.0000 0.0000
# 4 0.0000 0.0000 0.0000 15.5263 0.0000 0.0000
# 5 0.0000 0.0000 0.0000 0.0000 15.5259 0.0000
# 6 0.0000 0.0000 0.0000 0.0000 0.0000 50.2371
#
#
#
# Elastic Compliance Matrix: (Units=1/GPa)
#
#
# Indices 1 2 3 4 5 6 
#
# 1 0.018072 -0.011950 -0.001695 0.000000 0.000000 0.000000
# 2 -0.011950 0.018072 -0.001695 0.000000 0.000000 0.000000
# 3 -0.001695 -0.001695 0.007377 0.000000 0.000000 0.000000
# 4 0.000000 0.000000 0.000000 0.064407 0.000000 0.000000
# 5 0.000000 0.000000 0.000000 0.000000 0.064409 0.000000
# 6 0.000000 0.000000 0.000000 0.000000 0.000000 0.019906
#
#
# Mechanical properties :
#
#
# Convention : Reuss Voigt Hill
#
# Bulk Modulus (GPa) = 77.88490 77.97025 77.92758
# Shear Modulus (GPa) = 22.00670 30.44793 26.22732
#
# Velocity S-wave (km/s) = 3.19104 3.75348 3.48363
# Velocity P-wave (km/s) = 7.04380 7.40692 7.22764
#
# Compressibility (1/GPa) = 0.01283946
#
# Stress axis : x y z
#
# Youngs Moduli (GPa) = 55.33320 55.33373 135.56449
#
# Poissons Ratio (x) = 0.66125 0.22983
# Poissons Ratio (y) = 0.66124 0.22983
# Poissons Ratio (z) = 0.09381 0.09381
#
# Static dielectric constant tensor:
#      x y z
#    x 1.789380 0.000000 0.000000 
#    y 0.000000 1.789380 0.000000 
#    z 0.000000 0.000000 2.088890 
# 
# From -- ./inp_files/6092.got.cif
#   From: 2010.05.17/outbox.cif.g08.bks.cpg/sg140_4_cif.got.tgz:6092.got - 2010.06.21 00:45:31.
