data_PCOD9572405
_publ_section_title
;
Structure prediction by ZEFSAII (Michael W. Deem and Ramdas Pophale) SiO2 
 PCOD9572405
Probable space group: I 4/M C M
;
_chemical_formula_sum "Si O2"
_cell_formula_units_Z 192
_cell_length_a 20.341489
_cell_length_b 20.341489
_cell_length_c 26.736236
_cell_angle_alpha 90.000000
_cell_angle_beta 90.000000
_cell_angle_gamma 90.000000
_cell_volume 11062.817459
_symmetry_space_group_name_H-M "I 4/M C M"
_symmetry_group_IT_number 140
_symmetry_cell_setting 'tetragonal'
loop_
_space_group_symop_operation_xyz
x,y,z
-y,x,z
-x,-y,z
y,-x,z
x,-y,1/2-z
-x,y,1/2-z
y,x,1/2-z
-y,-x,1/2-z
-x,-y,-z
y,-x,-z
x,y,-z
-y,x,-z
-x,y,1/2+z
x,-y,1/2+z
-y,-x,1/2+z
y,x,1/2+z
1/2+x,1/2+y,1/2+z
1/2-y,1/2+x,1/2+z
1/2-x,1/2-y,1/2+z
1/2+y,1/2-x,1/2+z
1/2+x,1/2-y,-z
1/2-x,1/2+y,-z
1/2+y,1/2+x,-z
1/2-y,1/2-x,-z
1/2-x,1/2-y,1/2-z
1/2+y,1/2-x,1/2-z
1/2+x,1/2+y,1/2-z
1/2-y,1/2+x,1/2-z
1/2-x,1/2+y,z
1/2+x,1/2-y,z
1/2-y,1/2-x,z
1/2+y,1/2+x,z
loop_
_atom_site_type_symbol
_atom_site_label
_atom_site_fract_x
_atom_site_fract_y
_atom_site_fract_z
Si Si1 0.646875 0.741665 0.500000
Si Si2 0.085878 0.696566 0.596852
Si Si3 0.249710 0.862541 0.307559
Si Si4 0.547033 0.249560 0.596510
Si Si5 0.890547 0.992984 0.940151
Si Si6 0.754265 0.857636 0.696153
Si Si7 0.748803 0.862401 0.000000
O O1 0.707195 0.792806 0.500000
O O2 0.607977 0.758696 0.449961
O O3 0.678869 0.670419 0.500000
O O4 0.130541 0.630541 0.595389
O O5 0.100197 0.733807 0.648757
O O6 0.007927 0.692945 0.593207
O O7 0.309561 0.809561 0.311859
O O8 0.254432 0.914817 0.351375
O O9 0.181766 0.821638 0.312600
O O10 0.248217 0.890115 0.250858
O O11 0.515041 0.322183 0.588949
O O12 0.595973 0.241883 0.550079
O O13 0.940600 0.932232 0.929714
O O14 0.876598 0.992925 0.000000
O O15 0.700063 0.799938 0.699078
O O16 0.694417 0.805584 0.000000
#
# Coordination Sequence:
#
# PCOD9572405 Si02
#       7
#    16  32  32  32  32  32  16
#     4   9  19  34  54  76 103 133 166 221 275 314
#     4  10  21  35  52  77 108 138 173 219 269 316
#     4   9  18  33  53  79 104 134 178 223 273 320
#     4  12  22  30  55  80 104 146 177 221 260 318
#     4   9  20  36  50  71 109 150 185 216 248 307
#     4   8  16  34  56  74 103 137 168 223 282 315
#     4  11  23  36  51  78 110 134 170 220 272 313
#
# _framework density 17.355433999999999
#
# number of rings (size 3 to 8) (size 9 to 14) (size 15 to 20)
#    0.000    2.333    0.833    3.500    4.667    3.333 
#    0.000    0.000    0.000    2.500    0.000    0.000 
#    0.000    8.000    0.000    0.000    0.000    0.000 
#
# Total GULP energy -535312.322467 kJ/mol
# GULP energy per Si atom -5576.170026 kJ/mol
# Density = 1.731593 g / cm^3
# Si number density = 17.355434 Si / 1000 Ang^3
#
#
#
# Elastic Constant Matrix: (Units=GPa)
#
#
# Indices 1 2 3 4 5 6 
#
# 1 68.5449 25.3347 41.3047 0.0000 0.0000 0.0000
# 2 25.3347 68.5461 41.3056 0.0000 0.0000 0.0000
# 3 41.3047 41.3056 125.9640 0.0000 0.0000 0.0000
# 4 0.0000 0.0000 0.0000 0.8291 0.0000 0.0000
# 5 0.0000 0.0000 0.0000 0.0000 0.8233 0.0000
# 6 0.0000 0.0000 0.0000 0.0000 0.0000 13.9278
#
#
#
# Elastic Compliance Matrix: (Units=1/GPa)
#
#
# Indices 1 2 3 4 5 6 
#
# 1 0.019057 -0.004085 -0.004909 0.000000 0.000000 0.000000
# 2 -0.004085 0.019057 -0.004910 0.000000 0.000000 0.000000
# 3 -0.004909 -0.004910 0.011159 0.000000 0.000000 0.000000
# 4 0.000000 0.000000 0.000000 1.206114 -0.000001 0.000000
# 5 0.000000 0.000000 0.000000 -0.000001 1.214645 0.000000
# 6 0.000000 0.000000 0.000000 0.000000 0.000000 0.071799
#
#
# Mechanical properties :
#
#
# Convention : Reuss Voigt Hill
#
# Bulk Modulus (GPa) = 46.58841 53.21611 49.90226
# Shear Modulus (GPa) = 1.94040 13.45671 7.69855
#
# Velocity S-wave (km/s) = 1.05852 2.78755 2.10842
# Velocity P-wave (km/s) = 5.32878 6.41012 5.89430
#
# Compressibility (1/GPa) = 0.02146456
#
# Stress axis : x y z
#
# Youngs Moduli (GPa) = 52.47332 52.47389 89.61731
#
# Poissons Ratio (x) = 0.21436 0.43997
# Poissons Ratio (y) = 0.21436 0.43998
# Poissons Ratio (z) = 0.25762 0.25762
#
# Static dielectric constant tensor:
#      x y z
#    x 1.607120 0.000000 0.000000 
#    y 0.000000 1.607120 0.000000 
#    z 0.000000 0.000000 1.600110 
# 
# From -- ./inp_files/9855.got.cif
#   From: 2010.05.17/outbox.cif.g08.bks.cpg/sg140_5_cif.got.tgz:9855.got - 2010.06.21 00:45:31.
