data_PCOD9572705
_publ_section_title
;
Structure prediction by ZEFSAII (Michael W. Deem and Ramdas Pophale) SiO2 
 PCOD9572705
Probable space group: I 4/M C M
;
_chemical_formula_sum "Si O2"
_cell_formula_units_Z 144
_cell_length_a 23.953050
_cell_length_b 23.953050
_cell_length_c 15.332367
_cell_angle_alpha 90.000000
_cell_angle_beta 90.000000
_cell_angle_gamma 90.000000
_cell_volume 8796.924167
_symmetry_space_group_name_H-M "I 4/M C M"
_symmetry_group_IT_number 140
_symmetry_cell_setting 'tetragonal'
loop_
_space_group_symop_operation_xyz
x,y,z
-y,x,z
-x,-y,z
y,-x,z
x,-y,1/2-z
-x,y,1/2-z
y,x,1/2-z
-y,-x,1/2-z
-x,-y,-z
y,-x,-z
x,y,-z
-y,x,-z
-x,y,1/2+z
x,-y,1/2+z
-y,-x,1/2+z
y,x,1/2+z
1/2+x,1/2+y,1/2+z
1/2-y,1/2+x,1/2+z
1/2-x,1/2-y,1/2+z
1/2+y,1/2-x,1/2+z
1/2+x,1/2-y,-z
1/2-x,1/2+y,-z
1/2+y,1/2+x,-z
1/2-y,1/2-x,-z
1/2-x,1/2-y,1/2-z
1/2+y,1/2-x,1/2-z
1/2+x,1/2+y,1/2-z
1/2-y,1/2+x,1/2-z
1/2-x,1/2+y,z
1/2+x,1/2-y,z
1/2-y,1/2-x,z
1/2+y,1/2+x,z
loop_
_atom_site_type_symbol
_atom_site_label
_atom_site_fract_x
_atom_site_fract_y
_atom_site_fract_z
Si Si1 0.045255 0.545255 0.893575
Si Si2 0.281094 0.128744 0.897349
Si Si3 0.286764 0.696916 0.352189
Si Si4 0.200800 0.390532 0.894628
Si Si5 0.514337 0.828964 0.893098
O O1 0.107506 0.528128 0.866908
O O2 0.000000 0.500000 0.864685
O O3 0.045267 0.545267 0.000000
O O4 0.326490 0.173511 0.860089
O O5 0.219721 0.154979 0.888389
O O6 0.291624 0.066748 0.863003
O O7 0.292738 0.125486 0.000000
O O8 0.292937 0.707064 0.250000
O O9 0.239944 0.739944 0.388763
O O10 0.260016 0.636880 0.369006
O O11 0.151308 0.348693 0.864251
O O12 0.190383 0.453364 0.863259
O O13 0.198653 0.390934 0.000000
O O14 0.512398 0.828106 0.000000
#
# Coordination Sequence:
#
# PCOD9572705 Si02
#       5
#    16  32  32  32  32
#     4   9  14  20  32  54  85 116 140 168 202 234
#     4   9  15  25  41  59  80 106 137 170 204 242
#     4   9  17  28  41  56  76 101 138 177 216 251
#     4   9  16  26  40  59  83 110 137 170 211 249
#     4   9  15  23  36  58  85 110 139 170 201 243
#
# _framework density 16.369358999999999
#
# number of rings (size 3 to 8) (size 9 to 14) (size 15 to 20)
#    0.000    3.000    1.111    1.333    0.000    5.333 
#    0.000    1.111    0.000    0.000    0.000    0.000 
#    0.000    0.889    0.000   10.222    0.000    4.000 
#
# Total GULP energy -400927.055265 kJ/mol
# GULP energy per Si atom -5568.431323 kJ/mol
# Density = 1.633210 g / cm^3
# Si number density = 16.369359 Si / 1000 Ang^3
#
#
#
# Elastic Constant Matrix: (Units=GPa)
#
#
# Indices 1 2 3 4 5 6 
#
# 1 135.4810 77.4072 5.4504 0.0000 0.0000 0.0000
# 2 77.4072 135.4837 5.4505 0.0000 0.0000 0.0000
# 3 5.4504 5.4505 21.6047 0.0000 0.0000 0.0000
# 4 0.0000 0.0000 0.0000 -1.8021 0.0000 0.0000
# 5 0.0000 0.0000 0.0000 0.0000 -1.8020 0.0000
# 6 0.0000 0.0000 0.0000 0.0000 0.0000 31.2288
#
#
#
# Elastic Compliance Matrix: (Units=1/GPa)
#
#
# Indices 1 2 3 4 5 6 
#
# 1 0.010989 -0.006230 -0.001201 0.000000 0.000000 0.000000
# 2 -0.006230 0.010989 -0.001201 0.000000 0.000000 0.000000
# 3 -0.001201 -0.001201 0.046892 0.000000 0.000000 0.000000
# 4 0.000000 0.000000 0.000000 -0.554901 0.000000 0.000000
# 5 0.000000 0.000000 0.000000 0.000000 -0.554941 0.000000
# 6 0.000000 0.000000 0.000000 0.000000 0.000000 0.032022
#
#
# Mechanical properties :
#
#
# Convention : Reuss Voigt Hill
#
# Bulk Modulus (GPa) = 19.37707 52.13170 35.75439
# Shear Modulus (GPa) = -5.13092 19.14234 7.00571
#
# Velocity S-wave (km/s) = -1.77236 3.42336 2.07101
# Velocity P-wave (km/s) = 2.77033 6.89508 5.25437
#
# Compressibility (1/GPa) = 0.05160738
#
# Stress axis : x y z
#
# Youngs Moduli (GPa) = 90.99994 91.00174 21.32558
#
# Poissons Ratio (x) = 0.56696 0.02560
# Poissons Ratio (y) = 0.56694 0.02560
# Poissons Ratio (z) = 0.10925 0.10925
#
# Static dielectric constant tensor:
#      x y z
#    x 1.563330 0.000000 0.000000 
#    y 0.000000 1.563320 0.000000 
#    z 0.000000 0.000000 1.629760 
# 
# From -- ./inp_files/7030.got.cif
#   From: 2010.05.17/outbox.cif.g08.bks.cpg/sg140_4_cif.got.tgz:7030.got - 2010.06.21 00:45:31.
