data_PCOD9572191
_publ_section_title
;
Structure prediction by ZEFSAII (Michael W. Deem and Ramdas Pophale) SiO2 
 PCOD9572191
Probable space group: I 4/M C M
;
_chemical_formula_sum "Si O2"
_cell_formula_units_Z 176
_cell_length_a 17.225374
_cell_length_b 17.225374
_cell_length_c 27.848304
_cell_angle_alpha 90.000000
_cell_angle_beta 90.000000
_cell_angle_gamma 90.000000
_cell_volume 8262.968012
_symmetry_space_group_name_H-M "I 4/M C M"
_symmetry_group_IT_number 140
_symmetry_cell_setting 'tetragonal'
loop_
_space_group_symop_operation_xyz
x,y,z
-y,x,z
-x,-y,z
y,-x,z
x,-y,1/2-z
-x,y,1/2-z
y,x,1/2-z
-y,-x,1/2-z
-x,-y,-z
y,-x,-z
x,y,-z
-y,x,-z
-x,y,1/2+z
x,-y,1/2+z
-y,-x,1/2+z
y,x,1/2+z
1/2+x,1/2+y,1/2+z
1/2-y,1/2+x,1/2+z
1/2-x,1/2-y,1/2+z
1/2+y,1/2-x,1/2+z
1/2+x,1/2-y,-z
1/2-x,1/2+y,-z
1/2+y,1/2+x,-z
1/2-y,1/2-x,-z
1/2-x,1/2-y,1/2-z
1/2+y,1/2-x,1/2-z
1/2+x,1/2+y,1/2-z
1/2-y,1/2+x,1/2-z
1/2-x,1/2+y,z
1/2+x,1/2-y,z
1/2-y,1/2-x,z
1/2+y,1/2+x,z
loop_
_atom_site_type_symbol
_atom_site_label
_atom_site_fract_x
_atom_site_fract_y
_atom_site_fract_z
Si Si1 0.204407 0.166661 0.057378
Si Si2 0.107945 0.930893 0.114094
Si Si3 0.965774 0.344409 0.302211
Si Si4 0.932889 0.567112 0.055946
Si Si5 0.822193 0.452558 0.102832
Si Si6 0.319159 0.579355 0.281492
O O1 0.258082 0.241919 0.068040
O O2 0.120850 0.166400 0.082834
O O3 0.251070 0.091774 0.078269
O O4 0.197588 0.160011 0.000000
O O5 0.131416 0.924747 0.169835
O O6 0.022094 0.897630 0.104182
O O7 0.919416 0.419416 0.320409
O O8 0.910992 0.270599 0.294507
O O9 0.000000 0.363266 0.250000
O O10 0.028330 0.314668 0.340791
O O11 0.854908 0.530989 0.078634
O O12 0.000000 0.500000 0.060131
O O13 0.919502 0.580499 0.000000
O O14 0.891101 0.391101 0.098057
O O15 0.326377 0.500000 0.250000
O O16 0.351529 0.648472 0.250000
#
# Coordination Sequence:
#
# PCOD9572191 Si02
#       6
#    32  32  32  16  32  32
#     4  10  23  43  67  97 137 180 221 275 345 414
#     4  11  23  41  70 102 132 170 221 286 343 403
#     4  11  24  39  58  90 134 177 222 270 332 405
#     4   9  16  28  54  86 113 152 214 268 309 364
#     4  10  19  35  58  86 126 171 219 268 323 390
#     4  11  23  41  65  93 124 162 213 272 337 403
#
# _framework density 21.299851
#
# number of rings (size 3 to 8) (size 9 to 14) (size 15 to 20)
#    0.000    1.545    2.727    2.182    2.545    5.091 
#    0.000    0.909    0.000    0.000    0.000    0.000 
#    0.000    0.000    0.000    0.000    0.000    0.000 
#
# Total GULP energy -491473.213562 kJ/mol
# GULP energy per Si atom -5584.922881 kJ/mol
# Density = 2.125137 g / cm^3
# Si number density = 21.299851 Si / 1000 Ang^3
#
#
#
# Elastic Constant Matrix: (Units=GPa)
#
#
# Indices 1 2 3 4 5 6 
#
# 1 68.7816 29.8174 25.4573 0.0000 0.0000 0.0000
# 2 29.8174 68.7814 25.4576 0.0000 0.0000 0.0000
# 3 25.4573 25.4576 94.2811 0.0000 0.0000 0.0000
# 4 0.0000 0.0000 0.0000 25.7762 0.0000 0.0000
# 5 0.0000 0.0000 0.0000 0.0000 25.7772 0.0000
# 6 0.0000 0.0000 0.0000 0.0000 0.0000 -2.6364
#
#
#
# Elastic Compliance Matrix: (Units=1/GPa)
#
#
# Indices 1 2 3 4 5 6 
#
# 1 0.018725 -0.006940 -0.003182 0.000000 0.000000 0.000000
# 2 -0.006940 0.018725 -0.003182 0.000000 0.000000 0.000000
# 3 -0.003182 -0.003182 0.012325 0.000000 0.000000 0.000000
# 4 0.000000 0.000000 0.000000 0.038795 0.000000 0.000000
# 5 0.000000 0.000000 0.000000 0.000000 0.038794 0.000000
# 6 0.000000 0.000000 0.000000 0.000000 0.000000 -0.379311
#
#
# Mechanical properties :
#
#
# Convention : Reuss Voigt Hill
#
# Bulk Modulus (GPa) = 43.16513 43.70097 43.43305
# Shear Modulus (GPa) = -22.97621 19.85754 -1.55933
#
# Velocity S-wave (km/s) = -3.28792 3.05665 -0.85655
# Velocity P-wave (km/s) = 2.42807 5.74622 4.41104
#
# Compressibility (1/GPa) = 0.02316685
#
# Stress axis : x y z
#
# Youngs Moduli (GPa) = 53.40464 53.40441 81.13528
#
# Poissons Ratio (x) = 0.37061 0.25819
# Poissons Ratio (y) = 0.37061 0.25820
# Poissons Ratio (z) = 0.16994 0.16995
#
# Static dielectric constant tensor:
#      x y z
#    x 1.766730 0.000000 0.000000 
#    y 0.000000 1.766730 0.000000 
#    z 0.000000 0.000000 1.814550 
# 
# From -- ./inp_files/10713.got.cif
#   From: 2010.05.17/outbox.cif.g08.bks.cpg/sg140_6_cif.got.tgz:10713.got - 2010.06.21 00:45:31.
