data_PCOD9572334
_publ_section_title
;
Structure prediction by ZEFSAII (Michael W. Deem and Ramdas Pophale) SiO2 
 PCOD9572334
Probable space group: I 4/M C M
;
_chemical_formula_sum "Si O2"
_cell_formula_units_Z 160
_cell_length_a 31.581175
_cell_length_b 31.581175
_cell_length_c 8.569660
_cell_angle_alpha 90.000000
_cell_angle_beta 90.000000
_cell_angle_gamma 90.000000
_cell_volume 8547.127059
_symmetry_space_group_name_H-M "I 4/M C M"
_symmetry_group_IT_number 140
_symmetry_cell_setting 'tetragonal'
loop_
_space_group_symop_operation_xyz
x,y,z
-y,x,z
-x,-y,z
y,-x,z
x,-y,1/2-z
-x,y,1/2-z
y,x,1/2-z
-y,-x,1/2-z
-x,-y,-z
y,-x,-z
x,y,-z
-y,x,-z
-x,y,1/2+z
x,-y,1/2+z
-y,-x,1/2+z
y,x,1/2+z
1/2+x,1/2+y,1/2+z
1/2-y,1/2+x,1/2+z
1/2-x,1/2-y,1/2+z
1/2+y,1/2-x,1/2+z
1/2+x,1/2-y,-z
1/2-x,1/2+y,-z
1/2+y,1/2+x,-z
1/2-y,1/2-x,-z
1/2-x,1/2-y,1/2-z
1/2+y,1/2-x,1/2-z
1/2+x,1/2+y,1/2-z
1/2-y,1/2+x,1/2-z
1/2-x,1/2+y,z
1/2+x,1/2-y,z
1/2-y,1/2-x,z
1/2+y,1/2+x,z
loop_
_atom_site_type_symbol
_atom_site_label
_atom_site_fract_x
_atom_site_fract_y
_atom_site_fract_z
Si Si1 0.548593 0.616473 0.688192
Si Si2 0.385548 0.885548 0.686391
Si Si3 0.315295 0.255171 0.315169
Si Si4 0.952992 0.547009 0.813150
Si Si5 0.290848 0.899509 0.810028
Si Si6 0.047056 0.210841 0.812328
O O1 0.500000 0.611492 0.750000
O O2 0.580169 0.580169 0.750000
O O3 0.547174 0.614466 0.500000
O O4 0.564900 0.664182 0.733813
O O5 0.386627 0.886627 0.500000
O O6 0.419027 0.919027 0.754576
O O7 0.338197 0.898054 0.743530
O O8 0.299604 0.299604 0.250000
O O9 0.319220 0.259505 0.500000
O O10 0.279296 0.220705 0.281212
O O11 0.357603 0.234009 0.256262
O O12 0.942545 0.500000 0.750000
O O13 0.953965 0.546036 0.000000
O O14 0.256349 0.934472 0.761988
O O15 0.294807 0.899268 0.000000
O O16 0.000000 0.209334 0.750000
O O17 0.048980 0.211507 0.000000
#
# Coordination Sequence:
#
# PCOD9572334 Si02
#       6
#    32  16  32  16  32  32
#     4  10  20  36  57  85 116 151 191 239 292 350
#     4  12  25  39  59  91 123 155 197 243 290 343
#     4   9  17  30  49  72 101 137 178 221 274 329
#     4  11  23  44  71  97 125 155 188 231 284 347
#     4  10  20  38  58  79 111 154 194 237 290 345
#     4   9  20  37  58  80 109 147 189 231 281 337
#
# _framework density 18.719740999999999
#
# number of rings (size 3 to 8) (size 9 to 14) (size 15 to 20)
#    0.000    2.100    1.000    2.700    0.000    4.200 
#    0.000    3.000    0.000    0.000    0.000    0.000 
#    0.000    0.000    0.000    0.000    0.000    0.000 
#
# Total GULP energy -445560.202367 kJ/mol
# GULP energy per Si atom -5569.502530 kJ/mol
# Density = 1.867713 g / cm^3
# Si number density = 18.719741 Si / 1000 Ang^3
#
#
#
# Elastic Constant Matrix: (Units=GPa)
#
#
# Indices 1 2 3 4 5 6 
#
# 1 94.1597 128.4999 43.3491 0.0000 0.0000 0.0000
# 2 128.4999 94.1599 43.3491 0.0000 0.0000 0.0000
# 3 43.3491 43.3491 69.4337 0.0000 0.0000 0.0000
# 4 0.0000 0.0000 0.0000 14.7550 0.0000 0.0000
# 5 0.0000 0.0000 0.0000 0.0000 14.7556 0.0000
# 6 0.0000 0.0000 0.0000 0.0000 0.0000 44.7055
#
#
#
# Elastic Compliance Matrix: (Units=1/GPa)
#
#
# Indices 1 2 3 4 5 6 
#
# 1 -0.011593 0.017527 -0.003704 0.000000 0.000000 0.000000
# 2 0.017527 -0.011593 -0.003704 0.000000 0.000000 0.000000
# 3 -0.003704 -0.003704 0.019028 0.000000 0.000000 0.000000
# 4 0.000000 0.000000 0.000000 0.067774 0.000000 0.000000
# 5 0.000000 0.000000 0.000000 0.000000 0.067771 0.000000
# 6 0.000000 0.000000 0.000000 0.000000 0.000000 0.022369
#
#
# Mechanical properties :
#
#
# Convention : Reuss Voigt Hill
#
# Bulk Modulus (GPa) = 62.20036 76.46106 69.33071
# Shear Modulus (GPa) = 36.00311 17.68024 26.84167
#
# Velocity S-wave (km/s) = 4.39027 3.07656 3.79076
# Velocity P-wave (km/s) = 7.68105 7.31807 7.50175
#
# Compressibility (1/GPa) = 0.01607708
#
# Stress axis : x y z
#
# Youngs Moduli (GPa) = -86.25575 -86.25599 52.55458
#
# Poissons Ratio (x) = 1.51181 0.19469
# Poissons Ratio (y) = 1.51181 0.19469
# Poissons Ratio (z) = -0.31953 -0.31953
#
# Static dielectric constant tensor:
#      x y z
#    x 1.711760 0.000000 0.000000 
#    y 0.000000 1.711760 0.000000 
#    z 0.000000 0.000000 1.637880 
# 
# From -- ./inp_files/1827.got.cif
#   From: 2010.05.17/outbox.cif.g08.bks.cpg/sg140_1_cif.got.tgz:1827.got - 2010.06.21 00:45:31.
