data_PCOD9572175
_publ_section_title
;
Structure prediction by ZEFSAII (Michael W. Deem and Ramdas Pophale) SiO2 
 PCOD9572175
Probable space group: I 4/M C M
;
_chemical_formula_sum "Si O2"
_cell_formula_units_Z 144
_cell_length_a 19.178104
_cell_length_b 19.178104
_cell_length_c 23.826294
_cell_angle_alpha 90.000000
_cell_angle_beta 90.000000
_cell_angle_gamma 90.000000
_cell_volume 8763.303143
_symmetry_space_group_name_H-M "I 4/M C M"
_symmetry_group_IT_number 140
_symmetry_cell_setting 'tetragonal'
loop_
_space_group_symop_operation_xyz
x,y,z
-y,x,z
-x,-y,z
y,-x,z
x,-y,1/2-z
-x,y,1/2-z
y,x,1/2-z
-y,-x,1/2-z
-x,-y,-z
y,-x,-z
x,y,-z
-y,x,-z
-x,y,1/2+z
x,-y,1/2+z
-y,-x,1/2+z
y,x,1/2+z
1/2+x,1/2+y,1/2+z
1/2-y,1/2+x,1/2+z
1/2-x,1/2-y,1/2+z
1/2+y,1/2-x,1/2+z
1/2+x,1/2-y,-z
1/2-x,1/2+y,-z
1/2+y,1/2+x,-z
1/2-y,1/2-x,-z
1/2-x,1/2-y,1/2-z
1/2+y,1/2-x,1/2-z
1/2+x,1/2+y,1/2-z
1/2-y,1/2+x,1/2-z
1/2-x,1/2+y,z
1/2+x,1/2-y,z
1/2-y,1/2-x,z
1/2+y,1/2+x,z
loop_
_atom_site_type_symbol
_atom_site_label
_atom_site_fract_x
_atom_site_fract_y
_atom_site_fract_z
Si Si1 0.759073 0.625152 0.363820
Si Si2 0.142986 0.760295 0.373391
Si Si3 0.443836 0.943836 0.931866
Si Si4 0.287949 0.987319 0.933500
Si Si5 0.417118 0.698033 0.753914
O O1 0.828656 0.671345 0.369739
O O2 0.694527 0.674381 0.381694
O O3 0.763963 0.555328 0.400036
O O4 0.744612 0.606739 0.298885
O O5 0.192003 0.692003 0.376184
O O6 0.080693 0.756646 0.417759
O O7 0.107524 0.767425 0.312163
O O8 0.366579 0.966817 0.915056
O O9 0.500000 0.000000 0.912242
O O10 0.443789 0.943789 0.000000
O O11 0.287551 0.000313 0.000000
O O12 0.500000 0.688573 0.750000
O O13 0.374701 0.625300 0.750000
#
# Coordination Sequence:
#
# PCOD9572175 Si02
#       5
#    32  32  16  32  32
#     4  10  21  36  56  81 109 141 180 225 270 321
#     4  10  20  36  57  80 107 142 182 223 269 321
#     4   9  18  32  50  74 105 138 176 219 263 314
#     4  11  21  34  54  79 108 146 185 221 264 317
#     4  10  19  34  57  82 106 135 174 222 274 324
#
# _framework density 16.432161000000001
#
# number of rings (size 3 to 8) (size 9 to 14) (size 15 to 20)
#    0.000    1.889    3.333    1.333    0.000    5.111 
#    0.000    2.222    0.000    0.667    0.000    3.111 
#    0.000    0.000    0.000    0.000    0.000    0.000 
#
# Total GULP energy -401605.396757 kJ/mol
# GULP energy per Si atom -5577.852733 kJ/mol
# Density = 1.639476 g / cm^3
# Si number density = 16.432161 Si / 1000 Ang^3
#
#
#
# Elastic Constant Matrix: (Units=GPa)
#
#
# Indices 1 2 3 4 5 6 
#
# 1 97.2154 38.0437 30.7310 0.0000 0.0000 0.0000
# 2 38.0437 97.2144 30.7321 0.0000 0.0000 0.0000
# 3 30.7310 30.7321 55.0000 0.0000 0.0000 0.0000
# 4 0.0000 0.0000 0.0000 21.9282 0.0000 0.0000
# 5 0.0000 0.0000 0.0000 0.0000 21.9280 0.0000
# 6 0.0000 0.0000 0.0000 0.0000 0.0000 16.8979
#
#
#
# Elastic Compliance Matrix: (Units=1/GPa)
#
#
# Indices 1 2 3 4 5 6 
#
# 1 0.013404 -0.003495 -0.005537 0.000000 0.000000 0.000000
# 2 -0.003495 0.013405 -0.005537 0.000000 0.000000 0.000000
# 3 -0.005537 -0.005537 0.024369 0.000000 0.000000 0.000000
# 4 0.000000 0.000000 0.000000 0.045603 0.000000 0.000000
# 5 0.000000 0.000000 0.000000 0.000000 0.045604 0.000000
# 6 0.000000 0.000000 0.000000 0.000000 0.000000 0.059179
#
#
# Mechanical properties :
#
#
# Convention : Reuss Voigt Hill
#
# Bulk Modulus (GPa) = 45.37119 49.82704 47.59911
# Shear Modulus (GPa) = 21.00401 22.14569 21.57485
#
# Velocity S-wave (km/s) = 3.57911 3.67509 3.62742
# Velocity P-wave (km/s) = 6.68963 6.95680 6.82452
#
# Compressibility (1/GPa) = 0.02204042
#
# Stress axis : x y z
#
# Youngs Moduli (GPa) = 74.60191 74.59980 41.03524
#
# Poissons Ratio (x) = 0.26076 0.22719
# Poissons Ratio (y) = 0.26076 0.22722
# Poissons Ratio (z) = 0.41304 0.41307
#
# Static dielectric constant tensor:
#      x y z
#    x 1.540660 0.000000 0.000000 
#    y 0.000000 1.540660 0.000000 
#    z 0.000000 0.000000 1.537030 
# 
# From -- ./inp_files/9405.got.cif
#   From: 2010.05.17/outbox.cif.g08.bks.cpg/sg140_5_cif.got.tgz:9405.got - 2010.06.21 00:45:31.
