data_PCOD9572579
_publ_section_title
;
Structure prediction by ZEFSAII (Michael W. Deem and Ramdas Pophale) SiO2 
 PCOD9572579
Probable space group: I 4/M C M
;
_chemical_formula_sum "Si O2"
_cell_formula_units_Z 144
_cell_length_a 29.133115
_cell_length_b 29.133115
_cell_length_c 8.994247
_cell_angle_alpha 90.000000
_cell_angle_beta 90.000000
_cell_angle_gamma 90.000000
_cell_volume 7633.762714
_symmetry_space_group_name_H-M "I 4/M C M"
_symmetry_group_IT_number 140
_symmetry_cell_setting 'tetragonal'
loop_
_space_group_symop_operation_xyz
x,y,z
-y,x,z
-x,-y,z
y,-x,z
x,-y,1/2-z
-x,y,1/2-z
y,x,1/2-z
-y,-x,1/2-z
-x,-y,-z
y,-x,-z
x,y,-z
-y,x,-z
-x,y,1/2+z
x,-y,1/2+z
-y,-x,1/2+z
y,x,1/2+z
1/2+x,1/2+y,1/2+z
1/2-y,1/2+x,1/2+z
1/2-x,1/2-y,1/2+z
1/2+y,1/2-x,1/2+z
1/2+x,1/2-y,-z
1/2-x,1/2+y,-z
1/2+y,1/2+x,-z
1/2-y,1/2-x,-z
1/2-x,1/2-y,1/2-z
1/2+y,1/2-x,1/2-z
1/2+x,1/2+y,1/2-z
1/2-y,1/2+x,1/2-z
1/2-x,1/2+y,z
1/2+x,1/2-y,z
1/2-y,1/2-x,z
1/2+y,1/2+x,z
loop_
_atom_site_type_symbol
_atom_site_label
_atom_site_fract_x
_atom_site_fract_y
_atom_site_fract_z
Si Si1 0.967060 0.930426 0.000000
Si Si2 0.049838 0.375249 0.178973
Si Si3 0.157763 0.046836 0.331528
Si Si4 0.701455 0.633975 0.676648
Si Si5 0.799309 0.623480 0.176104
O O1 0.955119 0.896911 0.862943
O O2 0.021339 0.941256 0.000000
O O3 0.081327 0.418674 0.224325
O O4 0.078874 0.329570 0.216727
O O5 0.000000 0.376021 0.250000
O O6 0.046246 0.376436 0.000000
O O7 0.177597 0.049103 0.500000
O O8 0.173358 0.090324 0.238551
O O9 0.171336 0.000000 0.250000
O O10 0.678630 0.678630 0.750000
O O11 0.697635 0.636313 0.500000
O O12 0.753601 0.628241 0.729411
O O13 0.833110 0.666891 0.195841
O O14 0.788088 0.620711 0.000000
#
# Coordination Sequence:
#
# PCOD9572579 Si02
#       5
#    16  32  32  32  32
#     4   9  22  40  62  92 121 158 206 256 309 367
#     4   9  19  36  60  90 127 166 206 249 294 350
#     4  10  23  38  62  86 121 160 199 253 303 372
#     4  12  26  42  64  89 121 158 202 256 313 375
#     4   9  20  42  67  91 121 159 203 253 308 369
#
# _framework density 18.863565999999999
#
# number of rings (size 3 to 8) (size 9 to 14) (size 15 to 20)
#    0.667    1.444    0.000    4.000    3.111    3.333 
#    0.000    6.667    0.000    0.000    0.000    0.000 
#    0.000    0.000    0.000    0.000    0.000    0.000 
#
# Total GULP energy -401996.877306 kJ/mol
# GULP energy per Si atom -5583.289963 kJ/mol
# Density = 1.882063 g / cm^3
# Si number density = 18.863566 Si / 1000 Ang^3
#
#
#
# Elastic Constant Matrix: (Units=GPa)
#
#
# Indices 1 2 3 4 5 6 
#
# 1 134.9293 68.7723 70.3998 0.0000 0.0000 0.0000
# 2 68.7723 134.9293 70.3998 0.0000 0.0000 0.0000
# 3 70.3998 70.3998 124.1326 0.0000 0.0000 0.0000
# 4 0.0000 0.0000 0.0000 31.3299 0.0000 0.0000
# 5 0.0000 0.0000 0.0000 0.0000 31.3299 0.0000
# 6 0.0000 0.0000 0.0000 0.0000 0.0000 7.8842
#
#
#
# Elastic Compliance Matrix: (Units=1/GPa)
#
#
# Indices 1 2 3 4 5 6 
#
# 1 0.011595 -0.003521 -0.004579 0.000000 0.000000 0.000000
# 2 -0.003521 0.011595 -0.004579 0.000000 0.000000 0.000000
# 3 -0.004579 -0.004579 0.013250 0.000000 0.000000 0.000000
# 4 0.000000 0.000000 0.000000 0.031918 0.000000 0.000000
# 5 0.000000 0.000000 0.000000 0.000000 0.031918 0.000000
# 6 0.000000 0.000000 0.000000 0.000000 0.000000 0.126836
#
#
# Mechanical properties :
#
#
# Convention : Reuss Voigt Hill
#
# Bulk Modulus (GPa) = 90.23868 90.34834 90.29351
# Shear Modulus (GPa) = 19.51871 26.40344 22.96107
#
# Velocity S-wave (km/s) = 3.22021 3.74532 3.49265
# Velocity P-wave (km/s) = 7.85925 8.16719 8.01470
#
# Compressibility (1/GPa) = 0.01108172
#
# Stress axis : x y z
#
# Youngs Moduli (GPa) = 86.24455 86.24455 75.47198
#
# Poissons Ratio (x) = 0.30363 0.34560
# Poissons Ratio (y) = 0.30363 0.34560
# Poissons Ratio (z) = 0.39493 0.39493
#
# Static dielectric constant tensor:
#      x y z
#    x 1.635030 0.000000 0.000000 
#    y 0.000000 1.635030 0.000000 
#    z 0.000000 0.000000 1.655280 
# 
# From -- ./inp_files/1681.got.cif
#   From: 2010.05.17/outbox.cif.g08.bks.cpg/sg140_1_cif.got.tgz:1681.got - 2010.06.21 00:45:31.
