data_PCOD9572311
_publ_section_title
;
Structure prediction by ZEFSAII (Michael W. Deem and Ramdas Pophale) SiO2 
 PCOD9572311
Probable space group: I 4/M C M
;
_chemical_formula_sum "Si O2"
_cell_formula_units_Z 160
_cell_length_a 15.835767
_cell_length_b 15.835767
_cell_length_c 29.068956
_cell_angle_alpha 90.000000
_cell_angle_beta 90.000000
_cell_angle_gamma 90.000000
_cell_volume 7289.666179
_symmetry_space_group_name_H-M "I 4/M C M"
_symmetry_group_IT_number 140
_symmetry_cell_setting 'tetragonal'
loop_
_space_group_symop_operation_xyz
x,y,z
-y,x,z
-x,-y,z
y,-x,z
x,-y,1/2-z
-x,y,1/2-z
y,x,1/2-z
-y,-x,1/2-z
-x,-y,-z
y,-x,-z
x,y,-z
-y,x,-z
-x,y,1/2+z
x,-y,1/2+z
-y,-x,1/2+z
y,x,1/2+z
1/2+x,1/2+y,1/2+z
1/2-y,1/2+x,1/2+z
1/2-x,1/2-y,1/2+z
1/2+y,1/2-x,1/2+z
1/2+x,1/2-y,-z
1/2-x,1/2+y,-z
1/2+y,1/2+x,-z
1/2-y,1/2-x,-z
1/2-x,1/2-y,1/2-z
1/2+y,1/2-x,1/2-z
1/2+x,1/2+y,1/2-z
1/2-y,1/2+x,1/2-z
1/2-x,1/2+y,z
1/2+x,1/2-y,z
1/2-y,1/2-x,z
1/2+y,1/2+x,z
loop_
_atom_site_type_symbol
_atom_site_label
_atom_site_fract_x
_atom_site_fract_y
_atom_site_fract_z
Si Si1 0.817699 0.174107 0.643554
Si Si2 0.048784 0.309416 0.143584
Si Si3 0.003756 0.641385 0.049597
Si Si4 0.585614 0.385351 0.447759
Si Si5 0.287148 0.922581 0.283705
O O1 0.742667 0.242667 0.636229
O O2 0.902134 0.224983 0.656903
O O3 0.836127 0.126364 0.595538
O O4 0.788897 0.119235 0.687527
O O5 0.116947 0.383054 0.144419
O O6 0.015520 0.300573 0.092057
O O7 0.972520 0.334983 0.175832
O O8 0.931457 0.568544 0.049359
O O9 0.091231 0.591231 0.055004
O O10 0.001350 0.683719 0.000000
O O11 0.613002 0.483857 0.444437
O O12 0.609373 0.356437 0.500000
O O13 0.348829 0.848829 0.264147
O O14 0.265288 0.000000 0.250000
#
# Coordination Sequence:
#
# PCOD9572311 Si02
#       5
#    32  32  32  32  32
#     4  10  22  38  57  86 122 158 195 241 304 368
#     4  10  20  35  57  83 114 154 197 244 299 358
#     4   8  14  26  47  77 111 147 190 237 283 337
#     4   9  18  35  61  89 117 156 204 246 282 330
#     4  11  24  41  61  85 114 149 193 247 305 364
#
# _framework density 21.948879999999999
#
# number of rings (size 3 to 8) (size 9 to 14) (size 15 to 20)
#    0.000    2.400    0.000    3.600    0.000    4.200 
#    0.000    6.000    0.000    1.200    0.000    1.400 
#    0.000    0.000    0.000    0.000    0.000    0.000 
#
# Total GULP energy -446553.495158 kJ/mol
# GULP energy per Si atom -5581.918689 kJ/mol
# Density = 2.189892 g / cm^3
# Si number density = 21.948880 Si / 1000 Ang^3
#
#
#
# Elastic Constant Matrix: (Units=GPa)
#
#
# Indices 1 2 3 4 5 6 
#
# 1 72.9370 31.7293 42.4366 0.0000 0.0000 0.0000
# 2 31.7293 72.9370 42.4366 0.0000 0.0000 0.0000
# 3 42.4366 42.4366 113.7160 0.0000 0.0000 0.0000
# 4 0.0000 0.0000 0.0000 39.1790 0.0000 0.0000
# 5 0.0000 0.0000 0.0000 0.0000 39.1790 0.0000
# 6 0.0000 0.0000 0.0000 0.0000 0.0000 15.5286
#
#
#
# Elastic Compliance Matrix: (Units=1/GPa)
#
#
# Indices 1 2 3 4 5 6 
#
# 1 0.018984 -0.005284 -0.005113 0.000000 0.000000 0.000000
# 2 -0.005284 0.018984 -0.005113 0.000000 0.000000 0.000000
# 3 -0.005113 -0.005113 0.012610 0.000000 0.000000 0.000000
# 4 0.000000 0.000000 0.000000 0.025524 0.000000 0.000000
# 5 0.000000 0.000000 0.000000 0.000000 0.025524 0.000000
# 6 0.000000 0.000000 0.000000 0.000000 0.000000 0.064397
#
#
# Mechanical properties :
#
#
# Convention : Reuss Voigt Hill
#
# Bulk Modulus (GPa) = 51.12660 54.75499 52.94079
# Shear Modulus (GPa) = 24.56289 28.30983 26.43636
#
# Velocity S-wave (km/s) = 3.34892 3.59529 3.47429
# Velocity P-wave (km/s) = 6.18852 6.49889 6.34560
#
# Compressibility (1/GPa) = 0.01955929
#
# Stress axis : x y z
#
# Youngs Moduli (GPa) = 52.67708 52.67708 79.30444
#
# Poissons Ratio (x) = 0.27833 0.40545
# Poissons Ratio (y) = 0.27833 0.40545
# Poissons Ratio (z) = 0.26931 0.26931
#
# Static dielectric constant tensor:
#      x y z
#    x 1.829610 0.000000 0.000000 
#    y 0.000000 1.829610 0.000000 
#    z 0.000000 0.000000 1.839780 
# 
# From -- ./inp_files/10525.got.cif
#   From: 2010.05.17/outbox.cif.g08.bks.cpg/sg140_6_cif.got.tgz:10525.got - 2010.06.21 00:45:31.
