data_PCOD9572736
_publ_section_title
;
Structure prediction by ZEFSAII (Michael W. Deem and Ramdas Pophale) SiO2 
 PCOD9572736
Probable space group: I 41/A M D
;
_chemical_formula_sum "Si O2"
_cell_formula_units_Z 128
_cell_length_a 20.207743
_cell_length_b 20.207743
_cell_length_c 20.970774
_cell_angle_alpha 90.000000
_cell_angle_beta 90.000000
_cell_angle_gamma 90.000000
_cell_volume 8563.475899
_symmetry_space_group_name_H-M "I 41/A M D"
_symmetry_group_IT_number 141
_space_group.IT_coordinate_system_code '2'
_symmetry_cell_setting 'tetragonal'
loop_
_space_group_symop_operation_xyz
x,y,z
1/4-y,3/4+x,1/4+z
-x,1/2-y,z
1/4+y,1/4-x,3/4+z
x,-y,-z
-x,1/2+y,-z
1/4+y,3/4+x,1/4-z
1/4-y,1/4-x,3/4-z
-x,-y,-z
3/4+y,1/4-x,3/4-z
x,1/2+y,-z
3/4-y,3/4+x,1/4-z
-x,y,z
x,1/2-y,z
3/4-y,1/4-x,3/4+z
3/4+y,3/4+x,1/4+z
1/2+x,1/2+y,1/2+z
3/4-y,1/4+x,3/4+z
1/2-x,-y,1/2+z
3/4+y,3/4-x,1/4+z
1/2+x,1/2-y,1/2-z
1/2-x,y,1/2-z
3/4+y,1/4+x,3/4-z
3/4-y,3/4-x,1/4-z
1/2-x,1/2-y,1/2-z
1/4+y,3/4-x,1/4-z
1/2+x,y,1/2-z
1/4-y,1/4+x,3/4-z
1/2-x,1/2+y,1/2+z
1/2+x,-y,1/2+z
1/4-y,3/4-x,1/4+z
1/4+y,1/4+x,3/4+z
loop_
_atom_site_type_symbol
_atom_site_label
_atom_site_fract_x
_atom_site_fract_y
_atom_site_fract_z
Si Si1 0.757652 0.356582 0.157206
Si Si2 0.423976 0.464783 0.235934
Si Si3 0.072174 0.115053 0.496675
Si Si4 0.244027 0.545186 0.058433
O O1 0.744263 0.342198 0.083802
O O2 0.694651 0.329075 0.195641
O O3 0.825242 0.327261 0.186312
O O4 0.763752 0.434193 0.173988
O O5 0.500000 0.478438 0.252167
O O6 0.411040 0.385565 0.236509
O O7 0.368882 0.494365 0.282933
O O8 0.000000 0.146480 0.490543
O O9 0.205559 0.544442 0.125000
O O10 0.217235 0.500000 0.000000
#
# Coordination Sequence:
#
# PCOD9572736 Si02
#       4
#    32  32  32  32
#     4  10  16  29  46  69  94 126 166 208 237 276
#     4  11  21  30  45  69 100 126 160 206 249 289
#     4  10  18  27  42  63  95 134 168 195 236 286
#     4  11  18  32  54  75  96 124 166 209 248 288
#
# _framework density 14.947201
#
# number of rings (size 3 to 8) (size 9 to 14) (size 15 to 20)
#    0.000    1.500    7.500    3.750    0.000    0.500 
#    0.000    0.000    0.000    3.750    0.000    0.000 
#    0.000    0.500    0.000    0.000    0.000    0.000 
#
# Total GULP energy -356793.565319 kJ/mol
# GULP energy per Si atom -5574.899458 kJ/mol
# Density = 1.491318 g / cm^3
# Si number density = 14.947201 Si / 1000 Ang^3
#
#
#
# Elastic Constant Matrix: (Units=GPa)
#
#
# Indices 1 2 3 4 5 6 
#
# 1 60.9708 18.5483 47.3667 0.0000 0.0000 0.0000
# 2 18.5483 60.9713 47.3660 0.0000 0.0000 0.0000
# 3 47.3667 47.3660 109.5353 0.0000 0.0000 0.0000
# 4 0.0000 0.0000 0.0000 8.1997 0.0000 0.0000
# 5 0.0000 0.0000 0.0000 0.0000 8.2005 0.0000
# 6 0.0000 0.0000 0.0000 0.0000 0.0000 -0.6845
#
#
#
# Elastic Compliance Matrix: (Units=1/GPa)
#
#
# Indices 1 2 3 4 5 6 
#
# 1 0.024755 0.001183 -0.011216 0.000000 0.000000 0.000000
# 2 0.001183 0.024755 -0.011216 0.000000 0.000000 0.000000
# 3 -0.011216 -0.011216 0.018830 0.000000 0.000000 0.000000
# 4 0.000000 0.000000 0.000000 0.121956 0.000000 0.000000
# 5 0.000000 0.000000 0.000000 0.000000 0.121944 0.000000
# 6 0.000000 0.000000 0.000000 0.000000 0.000000 -1.460815
#
#
# Mechanical properties :
#
#
# Convention : Reuss Voigt Hill
#
# Bulk Modulus (GPa) = 38.69921 50.89326 44.79623
# Shear Modulus (GPa) = -4.55596 11.02289 3.23346
#
# Velocity S-wave (km/s) = -1.74776 2.71856 1.47240
# Velocity P-wave (km/s) = 4.67696 6.63149 5.73806
#
# Compressibility (1/GPa) = 0.02584032
#
# Stress axis : x y z
#
# Youngs Moduli (GPa) = 40.39543 40.39661 53.10707
#
# Poissons Ratio (x) = -0.04778 0.59567
# Poissons Ratio (y) = -0.04777 0.59565
# Poissons Ratio (z) = 0.45309 0.45309
#
# Static dielectric constant tensor:
#      x y z
#    x 1.506070 0.000000 0.000000 
#    y 0.000000 1.506070 0.000000 
#    z 0.000000 0.000000 1.515140 
# 
# From -- ./inp_files/8255.got.cif
#   From: 2010.05.17/outbox.cif.g08.bks.cpg/sg141_5_cif.got.tgz:8255.got - 2010.05.20 13:30:51.
