data_PCOD9572246
_publ_section_title
;
Structure prediction by ZEFSAII (Michael W. Deem and Ramdas Pophale) SiO2 
 PCOD9572246
Probable space group: I 4/M C M
;
_chemical_formula_sum "Si O2"
_cell_formula_units_Z 96
_cell_length_a 22.944668
_cell_length_b 22.944668
_cell_length_c 8.429432
_cell_angle_alpha 90.000000
_cell_angle_beta 90.000000
_cell_angle_gamma 90.000000
_cell_volume 4437.740139
_symmetry_space_group_name_H-M "I 4/M C M"
_symmetry_group_IT_number 140
_symmetry_cell_setting 'tetragonal'
loop_
_space_group_symop_operation_xyz
x,y,z
-y,x,z
-x,-y,z
y,-x,z
x,-y,1/2-z
-x,y,1/2-z
y,x,1/2-z
-y,-x,1/2-z
-x,-y,-z
y,-x,-z
x,y,-z
-y,x,-z
-x,y,1/2+z
x,-y,1/2+z
-y,-x,1/2+z
y,x,1/2+z
1/2+x,1/2+y,1/2+z
1/2-y,1/2+x,1/2+z
1/2-x,1/2-y,1/2+z
1/2+y,1/2-x,1/2+z
1/2+x,1/2-y,-z
1/2-x,1/2+y,-z
1/2+y,1/2+x,-z
1/2-y,1/2-x,-z
1/2-x,1/2-y,1/2-z
1/2+y,1/2-x,1/2-z
1/2+x,1/2+y,1/2-z
1/2-y,1/2+x,1/2-z
1/2-x,1/2+y,z
1/2+x,1/2-y,z
1/2-y,1/2-x,z
1/2+y,1/2+x,z
loop_
_atom_site_type_symbol
_atom_site_label
_atom_site_fract_x
_atom_site_fract_y
_atom_site_fract_z
Si Si1 0.242473 0.650157 0.183409
Si Si2 0.154984 0.933456 0.188528
Si Si3 0.063165 0.345602 0.818625
O O1 0.208123 0.708123 0.249077
O O2 0.296379 0.615234 0.261468
O O3 0.192757 0.602093 0.202968
O O4 0.257288 0.661888 0.000000
O O5 0.094069 0.905932 0.250000
O O6 0.165988 0.000000 0.250000
O O7 0.154350 0.936297 0.000000
O O8 0.090565 0.409436 0.821817
O O9 0.000000 0.345199 0.750000
O O10 0.066696 0.322451 0.000000
#
# Coordination Sequence:
#
# PCOD9572246 Si02
#       3
#    32  32  32
#     4  10  21  39  64  94 128 167 212 262 319 383
#     4  12  26  46  71 100 135 175 222 273 330 392
#     4  10  20  33  50  74 107 150 200 255 315 378
#
# _framework density 21.632631
#
# number of rings (size 3 to 8) (size 9 to 14) (size 15 to 20)
#    0.000    1.333    0.000    6.000    0.000    5.333 
#    0.000    3.333    0.000    0.000    0.000    0.000 
#    0.000    0.000    0.000    0.000    0.000    0.000 
#
# Total GULP energy -267572.910836 kJ/mol
# GULP energy per Si atom -5574.435642 kJ/mol
# Density = 2.158339 g / cm^3
# Si number density = 21.632631 Si / 1000 Ang^3
#
#
#
# Elastic Constant Matrix: (Units=GPa)
#
#
# Indices 1 2 3 4 5 6 
#
# 1 129.5470 78.2102 36.3407 0.0000 0.0000 0.0000
# 2 78.2102 129.5375 36.3387 0.0000 0.0000 0.0000
# 3 36.3407 36.3387 116.2600 0.0000 0.0000 0.0000
# 4 0.0000 0.0000 0.0000 29.4940 0.0000 0.0000
# 5 0.0000 0.0000 0.0000 0.0000 29.4940 0.0000
# 6 0.0000 0.0000 0.0000 0.0000 0.0000 15.3580
#
#
#
# Elastic Compliance Matrix: (Units=1/GPa)
#
#
# Indices 1 2 3 4 5 6 
#
# 1 0.012442 -0.007038 -0.001689 0.000000 0.000000 0.000000
# 2 -0.007038 0.012443 -0.001689 0.000000 0.000000 0.000000
# 3 -0.001689 -0.001689 0.009657 0.000000 0.000000 0.000000
# 4 0.000000 0.000000 0.000000 0.033905 0.000000 0.000000
# 5 0.000000 0.000000 0.000000 0.000000 0.033905 0.000000
# 6 0.000000 0.000000 0.000000 0.000000 0.000000 0.065113
#
#
# Mechanical properties :
#
#
# Convention : Reuss Voigt Hill
#
# Bulk Modulus (GPa) = 72.94390 75.23596 74.08993
# Shear Modulus (GPa) = 25.92428 29.83286 27.87857
#
# Velocity S-wave (km/s) = 3.46553 3.71761 3.59378
# Velocity P-wave (km/s) = 7.05732 7.29945 7.17940
#
# Compressibility (1/GPa) = 0.01370917
#
# Stress axis : x y z
#
# Youngs Moduli (GPa) = 80.37120 80.36558 103.54705
#
# Poissons Ratio (x) = 0.56564 0.17492
# Poissons Ratio (y) = 0.56568 0.17492
# Poissons Ratio (z) = 0.13577 0.13576
#
# Static dielectric constant tensor:
#      x y z
#    x 1.869360 0.000000 0.000000 
#    y 0.000000 1.869370 0.000000 
#    z 0.000000 0.000000 1.887690 
# 
# From -- ./inp_files/922.got.cif
#   From: 2010.05.17/outbox.cif.g08.bks.cpg/sg140_1_cif.got.tgz:922.got - 2010.06.21 00:45:31.
