data_PCOD9572861
_publ_section_title
;
Structure prediction by ZEFSAII (Michael W. Deem and Ramdas Pophale) SiO2 
 PCOD9572861
Probable space group: I 41/A M D
;
_chemical_formula_sum "Si O2"
_cell_formula_units_Z 176
_cell_length_a 17.436305
_cell_length_b 17.436305
_cell_length_c 27.817487
_cell_angle_alpha 90.000000
_cell_angle_beta 90.000000
_cell_angle_gamma 90.000000
_cell_volume 8457.204032
_symmetry_space_group_name_H-M "I 41/A M D"
_symmetry_group_IT_number 141
_space_group.IT_coordinate_system_code '2'
_symmetry_cell_setting 'tetragonal'
loop_
_space_group_symop_operation_xyz
x,y,z
1/4-y,3/4+x,1/4+z
-x,1/2-y,z
1/4+y,1/4-x,3/4+z
x,-y,-z
-x,1/2+y,-z
1/4+y,3/4+x,1/4-z
1/4-y,1/4-x,3/4-z
-x,-y,-z
3/4+y,1/4-x,3/4-z
x,1/2+y,-z
3/4-y,3/4+x,1/4-z
-x,y,z
x,1/2-y,z
3/4-y,1/4-x,3/4+z
3/4+y,3/4+x,1/4+z
1/2+x,1/2+y,1/2+z
3/4-y,1/4+x,3/4+z
1/2-x,-y,1/2+z
3/4+y,3/4-x,1/4+z
1/2+x,1/2-y,1/2-z
1/2-x,y,1/2-z
3/4+y,1/4+x,3/4-z
3/4-y,3/4-x,1/4-z
1/2-x,1/2-y,1/2-z
1/4+y,3/4-x,1/4-z
1/2+x,y,1/2-z
1/4-y,1/4+x,3/4-z
1/2-x,1/2+y,1/2+z
1/2+x,-y,1/2+z
1/4-y,3/4-x,1/4+z
1/4+y,1/4+x,3/4+z
loop_
_atom_site_type_symbol
_atom_site_label
_atom_site_fract_x
_atom_site_fract_y
_atom_site_fract_z
Si Si1 0.408755 0.435214 0.899971
Si Si2 0.158245 0.934862 0.759778
Si Si3 0.362180 0.835958 0.826844
Si Si4 0.637208 0.915286 0.475095
Si Si5 0.408762 0.841239 0.375000
Si Si6 0.581851 0.158685 0.433395
O O1 0.500000 0.423411 0.904811
O O2 0.365209 0.393529 0.943068
O O3 0.396279 0.525848 0.904910
O O4 0.380179 0.401532 0.849468
O O5 0.250000 0.927303 0.750000
O O6 0.117449 0.897784 0.713623
O O7 0.143599 0.023366 0.769595
O O8 0.411127 0.838873 0.875000
O O9 0.362113 0.750000 0.805816
O O10 0.611471 0.896120 0.420724
O O11 0.590941 0.862163 0.511521
O O12 0.628199 0.000000 0.500000
O O13 0.500000 0.851656 0.363292
O O14 0.500000 0.128835 0.415083
O O15 0.581828 0.250000 0.429183
#
# Coordination Sequence:
#
# PCOD9572861 Si02
#       6
#    32  32  32  32  16  32
#     4   9  18  34  58  84 112 152 202 247 298 361
#     4   9  19  36  57  86 117 154 195 254 308 359
#     4  10  19  33  55  82 117 160 203 247 300 367
#     4  11  24  40  63  94 124 158 203 257 310 367
#     4  11  26  48  70  94 130 172 210 256 319 384
#     4  10  21  38  58  81 114 154 194 241 300 363
#
# _framework density 20.810659999999999
#
# number of rings (size 3 to 8) (size 9 to 14) (size 15 to 20)
#    0.000    2.091    0.000    2.727    2.545    5.273 
#    3.273    2.727    0.000    2.182    0.000    0.000 
#    0.000    0.000    0.000    0.000    0.000    0.000 
#
# Total GULP energy -490807.019453 kJ/mol
# GULP energy per Si atom -5577.352494 kJ/mol
# Density = 2.076329 g / cm^3
# Si number density = 20.810660 Si / 1000 Ang^3
#
#
#
# Elastic Constant Matrix: (Units=GPa)
#
#
# Indices 1 2 3 4 5 6 
#
# 1 26.6785 48.0745 32.9033 0.0000 0.0000 0.0000
# 2 48.0745 26.6781 32.9035 0.0000 0.0000 0.0000
# 3 32.9033 32.9035 119.8116 0.0000 0.0000 0.0000
# 4 0.0000 0.0000 0.0000 25.9892 0.0000 0.0000
# 5 0.0000 0.0000 0.0000 0.0000 25.9890 0.0000
# 6 0.0000 0.0000 0.0000 0.0000 0.0000 16.6952
#
#
#
# Elastic Compliance Matrix: (Units=1/GPa)
#
#
# Indices 1 2 3 4 5 6 
#
# 1 -0.014547 0.032190 -0.004845 0.000000 0.000000 0.000000
# 2 0.032190 -0.014547 -0.004845 0.000000 0.000000 0.000000
# 3 -0.004845 -0.004845 0.011008 0.000000 0.000000 0.000000
# 4 0.000000 0.000000 0.000000 0.038478 0.000000 0.000000
# 5 0.000000 0.000000 0.000000 0.000000 0.038478 0.000000
# 6 0.000000 0.000000 0.000000 0.000000 0.000000 0.059897
#
#
# Mechanical properties :
#
#
# Convention : Reuss Voigt Hill
#
# Bulk Modulus (GPa) = 37.15743 44.54785 40.85264
# Shear Modulus (GPa) = 60.43218 17.68714 39.05966
#
# Velocity S-wave (km/s) = 5.39464 2.91848 4.33703
# Velocity P-wave (km/s) = 7.52971 5.72795 6.68977
#
# Compressibility (1/GPa) = 0.02691252
#
# Stress axis : x y z
#
# Youngs Moduli (GPa) = -68.74253 -68.74051 90.84585
#
# Poissons Ratio (x) = 2.21276 0.44017
# Poissons Ratio (y) = 2.21282 0.44015
# Poissons Ratio (z) = -0.33308 -0.33305
#
# Static dielectric constant tensor:
#      x y z
#    x 1.777210 0.000000 0.000000 
#    y 0.000000 1.777210 0.000000 
#    z 0.000000 0.000000 1.740730 
# 
# From -- ./inp_files/12907.got.cif
#   From: 2010.05.17/outbox.cif.g08.bks.cpg/sg141_7_cif.got.tgz:12907.got - 2010.05.20 13:30:51.
