data_PCOD9572675
_publ_section_title
;
Structure prediction by ZEFSAII (Michael W. Deem and Ramdas Pophale) SiO2 
 PCOD9572675
Probable space group: I 4/M C M
;
_chemical_formula_sum "Si O2"
_cell_formula_units_Z 64
_cell_length_a 10.251560
_cell_length_b 10.251560
_cell_length_c 30.931831
_cell_angle_alpha 90.000000
_cell_angle_beta 90.000000
_cell_angle_gamma 90.000000
_cell_volume 3250.764770
_symmetry_space_group_name_H-M "I 4/M C M"
_symmetry_group_IT_number 140
_symmetry_cell_setting 'tetragonal'
loop_
_space_group_symop_operation_xyz
x,y,z
-y,x,z
-x,-y,z
y,-x,z
x,-y,1/2-z
-x,y,1/2-z
y,x,1/2-z
-y,-x,1/2-z
-x,-y,-z
y,-x,-z
x,y,-z
-y,x,-z
-x,y,1/2+z
x,-y,1/2+z
-y,-x,1/2+z
y,x,1/2+z
1/2+x,1/2+y,1/2+z
1/2-y,1/2+x,1/2+z
1/2-x,1/2-y,1/2+z
1/2+y,1/2-x,1/2+z
1/2+x,1/2-y,-z
1/2-x,1/2+y,-z
1/2+y,1/2+x,-z
1/2-y,1/2-x,-z
1/2-x,1/2-y,1/2-z
1/2+y,1/2-x,1/2-z
1/2+x,1/2+y,1/2-z
1/2-y,1/2+x,1/2-z
1/2-x,1/2+y,z
1/2+x,1/2-y,z
1/2-y,1/2-x,z
1/2+y,1/2+x,z
loop_
_atom_site_type_symbol
_atom_site_label
_atom_site_fract_x
_atom_site_fract_y
_atom_site_fract_z
Si Si1 0.638109 0.861892 0.948568
Si Si2 0.600698 0.100698 0.823962
Si Si3 0.654064 0.154064 0.084094
Si Si4 0.000000 0.782346 0.750000
O O1 0.496670 0.821596 0.929403
O O2 0.746499 0.753502 0.938139
O O3 0.623341 0.876660 0.000000
O O4 0.669262 0.169262 0.864039
O O5 0.694724 0.019832 0.792265
O O6 0.500000 0.000000 0.844824
O O7 0.125884 0.874117 0.750000
#
# Coordination Sequence:
#
# PCOD9572675 Si02
#       4
#    16  16  16  16
#     4  11  23  47  68  96 131 174 216 274 339 394
#     4  12  23  41  64  94 128 169 215 260 324 372
#     4  11  26  40  70 100 132 171 220 277 320 403
#     4  11  25  40  64  90 129 173 212 262 310 381
#
# _framework density 19.687676
#
# number of rings (size 3 to 8) (size 9 to 14) (size 15 to 20)
#    0.000    0.750    5.000    3.750    7.000    1.000 
#    0.000    2.500    0.000    0.000    0.000    0.000 
#    0.000    0.000    0.000    0.000    0.000    0.000 
#
# Total GULP energy -178786.680042 kJ/mol
# GULP energy per Si atom -5587.083751 kJ/mol
# Density = 1.964287 g / cm^3
# Si number density = 19.687676 Si / 1000 Ang^3
#
#
#
# Elastic Constant Matrix: (Units=GPa)
#
#
# Indices 1 2 3 4 5 6 
#
# 1 112.4096 63.0086 29.7482 0.0000 0.0000 0.0000
# 2 63.0086 112.4119 29.7489 0.0000 0.0000 0.0000
# 3 29.7482 29.7489 154.1923 0.0000 0.0000 0.0000
# 4 0.0000 0.0000 0.0000 28.5405 0.0000 0.0000
# 5 0.0000 0.0000 0.0000 0.0000 28.5404 0.0000
# 6 0.0000 0.0000 0.0000 0.0000 0.0000 37.7049
#
#
#
# Elastic Compliance Matrix: (Units=1/GPa)
#
#
# Indices 1 2 3 4 5 6 
#
# 1 0.013171 -0.007071 -0.001177 0.000000 0.000000 0.000000
# 2 -0.007071 0.013171 -0.001177 0.000000 0.000000 0.000000
# 3 -0.001177 -0.001177 0.006940 0.000000 0.000000 0.000000
# 4 0.000000 0.000000 0.000000 0.035038 0.000000 0.000000
# 5 0.000000 0.000000 0.000000 0.000000 0.035038 0.000000
# 6 0.000000 0.000000 0.000000 0.000000 0.000000 0.026522
#
#
# Mechanical properties :
#
#
# Convention : Reuss Voigt Hill
#
# Bulk Modulus (GPa) = 69.29189 69.33612 69.31401
# Shear Modulus (GPa) = 32.56497 36.05769 34.31133
#
# Velocity S-wave (km/s) = 4.07145 4.28423 4.17919
# Velocity P-wave (km/s) = 7.57458 7.73093 7.65315
#
# Compressibility (1/GPa) = 0.01443170
#
# Stress axis : x y z
#
# Youngs Moduli (GPa) = 75.92426 75.92568 144.10241
#
# Poissons Ratio (x) = 0.53688 0.16958
# Poissons Ratio (y) = 0.53687 0.16959
# Poissons Ratio (z) = 0.08935 0.08935
#
# Static dielectric constant tensor:
#      x y z
#    x 1.622850 0.000000 0.000000 
#    y 0.000000 1.622840 0.000000 
#    z 0.000000 0.000000 1.660510 
# 
# From -- ./inp_files/10127.got.cif
#   From: 2010.05.17/outbox.cif.g08.bks.cpg/sg140_6_cif.got.tgz:10127.got - 2010.06.21 00:45:31.
