data_PCOD9572358
_publ_section_title
;
Structure prediction by ZEFSAII (Michael W. Deem and Ramdas Pophale) SiO2 
 PCOD9572358
Probable space group: I 4/M C M
;
_chemical_formula_sum "Si O2"
_cell_formula_units_Z 176
_cell_length_a 24.633242
_cell_length_b 24.633242
_cell_length_c 14.338840
_cell_angle_alpha 90.000000
_cell_angle_beta 90.000000
_cell_angle_gamma 90.000000
_cell_volume 8700.759524
_symmetry_space_group_name_H-M "I 4/M C M"
_symmetry_group_IT_number 140
_symmetry_cell_setting 'tetragonal'
loop_
_space_group_symop_operation_xyz
x,y,z
-y,x,z
-x,-y,z
y,-x,z
x,-y,1/2-z
-x,y,1/2-z
y,x,1/2-z
-y,-x,1/2-z
-x,-y,-z
y,-x,-z
x,y,-z
-y,x,-z
-x,y,1/2+z
x,-y,1/2+z
-y,-x,1/2+z
y,x,1/2+z
1/2+x,1/2+y,1/2+z
1/2-y,1/2+x,1/2+z
1/2-x,1/2-y,1/2+z
1/2+y,1/2-x,1/2+z
1/2+x,1/2-y,-z
1/2-x,1/2+y,-z
1/2+y,1/2+x,-z
1/2-y,1/2-x,-z
1/2-x,1/2-y,1/2-z
1/2+y,1/2-x,1/2-z
1/2+x,1/2+y,1/2-z
1/2-y,1/2+x,1/2-z
1/2-x,1/2+y,z
1/2+x,1/2-y,z
1/2-y,1/2-x,z
1/2+y,1/2+x,z
loop_
_atom_site_type_symbol
_atom_site_label
_atom_site_fract_x
_atom_site_fract_y
_atom_site_fract_z
Si Si1 0.955761 0.544240 0.613515
Si Si2 0.077472 0.719752 0.395665
Si Si3 0.501436 0.590580 0.000000
Si Si4 0.331415 0.964765 0.612987
Si Si5 0.637869 0.773070 0.209145
Si Si6 0.333719 0.535765 0.658169
Si Si7 0.351412 0.648589 0.250000
O O1 0.957192 0.542809 0.500000
O O2 0.964362 0.606105 0.641908
O O3 0.000000 0.500000 0.644559
O O4 0.094189 0.703871 0.500000
O O5 0.124095 0.718720 0.318748
O O6 0.051459 0.779499 0.395775
O O7 0.025499 0.686242 0.362650
O O8 0.448279 0.552770 0.000000
O O9 0.497782 0.626928 0.908083
O O10 0.327677 0.959440 0.500000
O O11 0.296240 0.915490 0.656039
O O12 0.690081 0.809920 0.183757
O O13 0.645603 0.707861 0.199430
O O14 0.321857 0.500000 0.750000
O O15 0.355593 0.595106 0.686444
#
# Coordination Sequence:
#
# PCOD9572358 Si02
#       7
#    16  32  16  32  32  32  16
#     4   9  18  34  58  87 123 161 205 266 320 375
#     4  10  21  38  62  89 115 161 215 263 316 380
#     4  11  24  38  58  92 129 161 198 249 318 384
#     4  10  20  37  61  90 125 166 217 262 322 386
#     4  11  22  39  61  88 130 167 212 271 329 388
#     4  11  21  41  65  90 123 164 210 264 317 377
#     4  10  23  40  62  91 120 168 220 266 322 387
#
# _framework density 20.228117999999998
#
# number of rings (size 3 to 8) (size 9 to 14) (size 15 to 20)
#    0.000    1.636    1.818    4.091    0.000    1.091 
#    1.636    2.727    0.000    2.182    0.000    0.000 
#    0.000    0.000    0.000    0.000    0.000    0.000 
#
# Total GULP energy -491014.848784 kJ/mol
# GULP energy per Si atom -5579.714191 kJ/mol
# Density = 2.018208 g / cm^3
# Si number density = 20.228118 Si / 1000 Ang^3
#
#
#
# Elastic Constant Matrix: (Units=GPa)
#
#
# Indices 1 2 3 4 5 6 
#
# 1 84.8344 -11.8736 5.4056 0.0000 0.0000 0.0000
# 2 -11.8736 84.8291 5.4029 0.0000 0.0000 0.0000
# 3 5.4056 5.4029 56.4374 0.0000 0.0000 0.0000
# 4 0.0000 0.0000 0.0000 0.7702 0.0000 0.0000
# 5 0.0000 0.0000 0.0000 0.0000 0.7739 0.0000
# 6 0.0000 0.0000 0.0000 0.0000 0.0000 36.4339
#
#
#
# Elastic Compliance Matrix: (Units=1/GPa)
#
#
# Indices 1 2 3 4 5 6 
#
# 1 0.012122 0.001782 -0.001332 0.000000 0.000000 0.000000
# 2 0.001782 0.012123 -0.001331 0.000000 0.000000 0.000000
# 3 -0.001332 -0.001331 0.017974 0.000000 0.000000 0.000000
# 4 0.000000 0.000000 0.000000 1.298293 0.000000 0.000000
# 5 0.000000 0.000000 0.000000 0.000000 1.292168 0.000000
# 6 0.000000 0.000000 0.000000 0.000000 0.000000 0.027447
#
#
# Mechanical properties :
#
#
# Convention : Reuss Voigt Hill
#
# Bulk Modulus (GPa) = 24.71841 24.88564 24.80203
# Shear Modulus (GPa) = 1.86890 22.74002 12.30446
#
# Velocity S-wave (km/s) = 0.96225 3.35651 2.46902
# Velocity P-wave (km/s) = 3.67164 5.22980 4.51839
#
# Compressibility (1/GPa) = 0.04045567
#
# Stress axis : x y z
#
# Youngs Moduli (GPa) = 82.49553 82.49092 55.63682
#
# Poissons Ratio (x) = -0.14696 0.07409
# Poissons Ratio (y) = -0.14697 0.07406
# Poissons Ratio (z) = 0.10985 0.10981
#
# Static dielectric constant tensor:
#      x y z
#    x 0.609230 0.000000 0.000000 
#    y 0.000000 0.609330 0.000000 
#    z 0.000000 0.000000 1.731680 
# 
# From -- ./inp_files/4976.got.cif
#   From: 2010.05.17/outbox.cif.g08.bks.cpg/sg140_3_cif.got.tgz:4976.got - 2010.06.21 00:45:31.
