data_PCOD9572533
_publ_section_title
;
Structure prediction by ZEFSAII (Michael W. Deem and Ramdas Pophale) SiO2 
 PCOD9572533
Probable space group: I 4/M C M
;
_chemical_formula_sum "Si O2"
_cell_formula_units_Z 160
_cell_length_a 20.966064
_cell_length_b 20.966064
_cell_length_c 19.872859
_cell_angle_alpha 90.000000
_cell_angle_beta 90.000000
_cell_angle_gamma 90.000000
_cell_volume 8735.628681
_symmetry_space_group_name_H-M "I 4/M C M"
_symmetry_group_IT_number 140
_symmetry_cell_setting 'tetragonal'
loop_
_space_group_symop_operation_xyz
x,y,z
-y,x,z
-x,-y,z
y,-x,z
x,-y,1/2-z
-x,y,1/2-z
y,x,1/2-z
-y,-x,1/2-z
-x,-y,-z
y,-x,-z
x,y,-z
-y,x,-z
-x,y,1/2+z
x,-y,1/2+z
-y,-x,1/2+z
y,x,1/2+z
1/2+x,1/2+y,1/2+z
1/2-y,1/2+x,1/2+z
1/2-x,1/2-y,1/2+z
1/2+y,1/2-x,1/2+z
1/2+x,1/2-y,-z
1/2-x,1/2+y,-z
1/2+y,1/2+x,-z
1/2-y,1/2-x,-z
1/2-x,1/2-y,1/2-z
1/2+y,1/2-x,1/2-z
1/2+x,1/2+y,1/2-z
1/2-y,1/2+x,1/2-z
1/2-x,1/2+y,z
1/2+x,1/2-y,z
1/2-y,1/2-x,z
1/2+y,1/2+x,z
loop_
_atom_site_type_symbol
_atom_site_label
_atom_site_fract_x
_atom_site_fract_y
_atom_site_fract_z
Si Si1 0.356816 0.036484 0.178108
Si Si2 0.926058 0.681359 0.076191
Si Si3 0.405248 0.549369 0.576870
Si Si4 0.374576 0.303083 0.654575
Si Si5 0.642259 0.248033 0.699597
O O1 0.420904 0.079097 0.170451
O O2 0.297625 0.085785 0.175625
O O3 0.358508 0.000000 0.250000
O O4 0.343463 0.984441 0.121154
O O5 0.874962 0.625039 0.074172
O O6 0.891182 0.741507 0.110365
O O7 0.946151 0.697139 0.000000
O O8 0.417326 0.474097 0.583908
O O9 0.382682 0.561385 0.500000
O O10 0.356958 0.576750 0.630820
O O11 0.303008 0.331989 0.650030
O O12 0.380613 0.281979 0.732051
O O13 0.701234 0.201234 0.716427
#
# Coordination Sequence:
#
# PCOD9572533 Si02
#       5
#    32  32  32  32  32
#     4  11  23  41  65  93 126 168 213 261 316 378
#     4  11  24  41  62  91 127 164 210 265 317 374
#     4   9  20  38  57  82 120 161 197 239 296 362
#     4  11  20  36  63  89 119 158 202 248 306 370
#     4  10  22  39  61  88 123 158 198 253 310 368
#
# _framework density 18.315798000000001
#
# number of rings (size 3 to 8) (size 9 to 14) (size 15 to 20)
#    0.000    1.600    2.000    4.200    2.800    1.800 
#    0.000    2.000    0.000    7.200    0.000    0.000 
#    0.000    0.000    0.000    0.000    0.000    0.000 
#
# Total GULP energy -446552.794682 kJ/mol
# GULP energy per Si atom -5581.909934 kJ/mol
# Density = 1.827411 g / cm^3
# Si number density = 18.315798 Si / 1000 Ang^3
#
#
#
# Elastic Constant Matrix: (Units=GPa)
#
#
# Indices 1 2 3 4 5 6 
#
# 1 94.5984 58.0089 53.1632 0.0000 0.0000 0.0000
# 2 58.0089 94.5984 53.1632 0.0000 0.0000 0.0000
# 3 53.1632 53.1632 105.2859 0.0000 0.0000 0.0000
# 4 0.0000 0.0000 0.0000 24.2378 0.0000 0.0000
# 5 0.0000 0.0000 0.0000 0.0000 24.2378 0.0000
# 6 0.0000 0.0000 0.0000 0.0000 0.0000 34.2909
#
#
#
# Elastic Compliance Matrix: (Units=1/GPa)
#
#
# Indices 1 2 3 4 5 6 
#
# 1 0.018720 -0.008610 -0.005105 0.000000 0.000000 0.000000
# 2 -0.008610 0.018720 -0.005105 0.000000 0.000000 0.000000
# 3 -0.005105 -0.005105 0.014653 0.000000 0.000000 0.000000
# 4 0.000000 0.000000 0.000000 0.041258 0.000000 0.000000
# 5 0.000000 0.000000 0.000000 0.000000 0.041258 0.000000
# 6 0.000000 0.000000 0.000000 0.000000 0.000000 0.029162
#
#
# Mechanical properties :
#
#
# Convention : Reuss Voigt Hill
#
# Bulk Modulus (GPa) = 69.18891 69.23929 69.21410
# Shear Modulus (GPa) = 24.24507 25.22982 24.73745
#
# Velocity S-wave (km/s) = 3.64225 3.71548 3.67905
# Velocity P-wave (km/s) = 7.45289 7.50277 7.47787
#
# Compressibility (1/GPa) = 0.01445318
#
# Stress axis : x y z
#
# Youngs Moduli (GPa) = 53.41943 53.41943 68.24538
#
# Poissons Ratio (x) = 0.45997 0.34837
# Poissons Ratio (y) = 0.45997 0.34837
# Poissons Ratio (z) = 0.27269 0.27269
#
# Static dielectric constant tensor:
#      x y z
#    x 1.628900 0.000000 0.000000 
#    y 0.000000 1.628900 0.000000 
#    z 0.000000 0.000000 1.617640 
# 
# From -- ./inp_files/6852.got.cif
#   From: 2010.05.17/outbox.cif.g08.bks.cpg/sg140_4_cif.got.tgz:6852.got - 2010.06.21 00:45:31.
