data_PCOD9572212
_publ_section_title
;
Structure prediction by ZEFSAII (Michael W. Deem and Ramdas Pophale) SiO2 
 PCOD9572212
Probable space group: I 4/M C M
;
_chemical_formula_sum "Si O2"
_cell_formula_units_Z 160
_cell_length_a 19.699643
_cell_length_b 19.699643
_cell_length_c 20.332548
_cell_angle_alpha 90.000000
_cell_angle_beta 90.000000
_cell_angle_gamma 90.000000
_cell_volume 7890.572562
_symmetry_space_group_name_H-M "I 4/M C M"
_symmetry_group_IT_number 140
_symmetry_cell_setting 'tetragonal'
loop_
_space_group_symop_operation_xyz
x,y,z
-y,x,z
-x,-y,z
y,-x,z
x,-y,1/2-z
-x,y,1/2-z
y,x,1/2-z
-y,-x,1/2-z
-x,-y,-z
y,-x,-z
x,y,-z
-y,x,-z
-x,y,1/2+z
x,-y,1/2+z
-y,-x,1/2+z
y,x,1/2+z
1/2+x,1/2+y,1/2+z
1/2-y,1/2+x,1/2+z
1/2-x,1/2-y,1/2+z
1/2+y,1/2-x,1/2+z
1/2+x,1/2-y,-z
1/2-x,1/2+y,-z
1/2+y,1/2+x,-z
1/2-y,1/2-x,-z
1/2-x,1/2-y,1/2-z
1/2+y,1/2-x,1/2-z
1/2+x,1/2+y,1/2-z
1/2-y,1/2+x,1/2-z
1/2-x,1/2+y,z
1/2+x,1/2-y,z
1/2-y,1/2-x,z
1/2+y,1/2+x,z
loop_
_atom_site_type_symbol
_atom_site_label
_atom_site_fract_x
_atom_site_fract_y
_atom_site_fract_z
Si Si1 0.579688 0.306306 0.750263
Si Si2 0.669963 0.394996 0.500000
Si Si3 0.625760 0.017702 0.922951
Si Si4 0.198496 0.945200 0.500000
Si Si5 0.211221 0.398923 0.376122
Si Si6 0.872293 0.263331 0.382879
O O1 0.500000 0.323658 0.750000
O O2 0.627973 0.372028 0.750000
O O3 0.596548 0.256989 0.688948
O O4 0.596047 0.265755 0.816819
O O5 0.686251 0.474608 0.500000
O O6 0.592191 0.373735 0.500000
O O7 0.704548 0.362959 0.564196
O O8 0.555670 0.055670 0.905718
O O9 0.683368 0.075311 0.915147
O O10 0.651729 0.956065 0.878773
O O11 0.622288 0.997172 0.000000
O O12 0.241372 0.920619 0.562920
O O13 0.173069 0.326932 0.383027
O O14 0.803413 0.303413 0.368976
#
# Coordination Sequence:
#
# PCOD9572212 Si02
#       6
#    32  16  32  16  32  32
#     4  12  26  45  66  92 127 166 215 270 327 385
#     4  12  23  42  67  90 129 164 212 267 320 383
#     4  10  19  37  67  99 132 172 213 255 312 383
#     4  12  25  42  63  93 124 167 215 264 319 376
#     4  12  24  42  66  96 133 168 211 265 322 386
#     4  11  21  39  67  94 124 164 207 255 318 385
#
# _framework density 20.277362
#
# number of rings (size 3 to 8) (size 9 to 14) (size 15 to 20)
#    0.000    0.600    6.000    2.400    0.000    5.600 
#    0.000    1.000    0.000    4.800    0.000    0.000 
#    0.000    0.000    0.000    0.000    0.000    0.000 
#
# Total GULP energy -447401.306069 kJ/mol
# GULP energy per Si atom -5592.516326 kJ/mol
# Density = 2.023121 g / cm^3
# Si number density = 20.277362 Si / 1000 Ang^3
#
#
#
# Elastic Constant Matrix: (Units=GPa)
#
#
# Indices 1 2 3 4 5 6 
#
# 1 102.0920 103.0118 43.6417 0.0000 0.0000 0.0000
# 2 103.0118 102.0926 43.6427 0.0000 0.0000 0.0000
# 3 43.6417 43.6427 133.9692 0.0000 0.0000 0.0000
# 4 0.0000 0.0000 0.0000 38.5007 0.0000 0.0000
# 5 0.0000 0.0000 0.0000 0.0000 38.4876 0.0000
# 6 0.0000 0.0000 0.0000 0.0000 0.0000 58.2878
#
#
#
# Elastic Compliance Matrix: (Units=1/GPa)
#
#
# Indices 1 2 3 4 5 6 
#
# 1 -0.540929 0.546589 -0.001848 0.000000 0.000000 0.000000
# 2 0.546589 -0.540929 -0.001840 0.000000 0.000000 0.000000
# 3 -0.001848 -0.001840 0.008666 0.000000 0.000000 0.000000
# 4 0.000000 0.000000 0.000000 0.025974 0.000000 0.000000
# 5 0.000000 0.000000 0.000000 0.000000 0.025982 0.000000
# 6 0.000000 0.000000 0.000000 0.000000 0.000000 0.017156
#
#
# Mechanical properties :
#
#
# Convention : Reuss Voigt Hill
#
# Bulk Modulus (GPa) = 79.29795 79.86070 79.57933
# Shear Modulus (GPa) = -2.39730 36.91238 17.25754
#
# Velocity S-wave (km/s) = -1.08849 4.27121 2.92048
# Velocity P-wave (km/s) = 6.13284 7.98712 7.12060
#
# Compressibility (1/GPa) = 0.01261067
#
# Stress axis : x y z
#
# Youngs Moduli (GPa) = -1.84867 -1.84867 115.39676
#
# Poissons Ratio (x) = 1.01046 0.21322
# Poissons Ratio (y) = 1.01046 0.21234
# Poissons Ratio (z) = -0.00342 -0.00340
#
# Static dielectric constant tensor:
#      x y z
#    x 1.739970 0.000000 0.000000 
#    y 0.000000 1.739970 0.000000 
#    z 0.000000 0.000000 1.677810 
# 
# From -- ./inp_files/6911.got.cif
#   From: 2010.05.17/outbox.cif.g08.bks.cpg/sg140_4_cif.got.tgz:6911.got - 2010.06.21 00:45:31.
