data_PCOD9572214
_publ_section_title
;
Structure prediction by ZEFSAII (Michael W. Deem and Ramdas Pophale) SiO2 
 PCOD9572214
Probable space group: I 4/M C M
;
_chemical_formula_sum "Si O2"
_cell_formula_units_Z 144
_cell_length_a 15.062662
_cell_length_b 15.062662
_cell_length_c 25.317653
_cell_angle_alpha 90.000000
_cell_angle_beta 90.000000
_cell_angle_gamma 90.000000
_cell_volume 5744.164979
_symmetry_space_group_name_H-M "I 4/M C M"
_symmetry_group_IT_number 140
_symmetry_cell_setting 'tetragonal'
loop_
_space_group_symop_operation_xyz
x,y,z
-y,x,z
-x,-y,z
y,-x,z
x,-y,1/2-z
-x,y,1/2-z
y,x,1/2-z
-y,-x,1/2-z
-x,-y,-z
y,-x,-z
x,y,-z
-y,x,-z
-x,y,1/2+z
x,-y,1/2+z
-y,-x,1/2+z
y,x,1/2+z
1/2+x,1/2+y,1/2+z
1/2-y,1/2+x,1/2+z
1/2-x,1/2-y,1/2+z
1/2+y,1/2-x,1/2+z
1/2+x,1/2-y,-z
1/2-x,1/2+y,-z
1/2+y,1/2+x,-z
1/2-y,1/2-x,-z
1/2-x,1/2-y,1/2-z
1/2+y,1/2-x,1/2-z
1/2+x,1/2+y,1/2-z
1/2-y,1/2+x,1/2-z
1/2-x,1/2+y,z
1/2+x,1/2-y,z
1/2-y,1/2-x,z
1/2+y,1/2+x,z
loop_
_atom_site_type_symbol
_atom_site_label
_atom_site_fract_x
_atom_site_fract_y
_atom_site_fract_z
Si Si1 0.817353 0.317353 0.061642
Si Si2 0.628086 0.128086 0.253434
Si Si3 0.282391 0.782391 0.342005
Si Si4 0.756857 0.006401 0.105616
Si Si5 0.571165 0.928836 0.647263
Si Si6 0.321775 0.592316 0.705064
Si Si7 0.856104 0.040040 0.000000
O O1 0.756618 0.256618 0.097520
O O2 0.780465 0.410927 0.084635
O O3 0.815164 0.315164 0.000000
O O4 0.645769 0.145769 0.316121
O O5 0.571525 0.071525 0.211085
O O6 0.594844 0.226244 0.235092
O O7 0.316427 0.689471 0.320816
O O8 0.667669 0.050469 0.125947
O O9 0.821145 0.020671 0.157186
O O10 0.801660 0.049191 0.054032
O O11 0.500000 0.000000 0.627871
O O12 0.397615 0.602386 0.750000
O O13 0.939727 0.105413 0.000000
#
# Coordination Sequence:
#
# PCOD9572214 Si02
#       7
#    16  16  16  32  16  32  16
#     4  12  25  40  58 102 148 193 250 315 371 457
#     4   7  14  32  58  92 131 184 231 281 358 427
#     4   9  18  36  65  91 129 183 250 318 346 432
#     4  11  23  42  69 102 145 196 247 306 388 466
#     4  10  19  38  69 105 156 197 235 293 386 479
#     4   8  16  35  64  97 133 178 243 302 373 444
#     4  11  28  52  73  96 134 188 255 334 400 457
#
# _framework density 25.068916999999999
#
# number of rings (size 3 to 8) (size 9 to 14) (size 15 to 20)
#    0.000    2.333    2.222    2.000    3.111    0.444 
#    0.000   12.222    2.444    0.000    0.000    1.556 
#    0.000    0.000    0.000    0.000    0.000    0.000 
#
# Total GULP energy -400990.640981 kJ/mol
# GULP energy per Si atom -5569.314458 kJ/mol
# Density = 2.501186 g / cm^3
# Si number density = 25.068917 Si / 1000 Ang^3
#
#
#
# Elastic Constant Matrix: (Units=GPa)
#
#
# Indices 1 2 3 4 5 6 
#
# 1 85.3248 32.6025 70.3074 0.0000 0.0000 0.0000
# 2 32.6025 85.3247 70.3075 0.0000 0.0000 0.0000
# 3 70.3074 70.3075 266.6786 0.0000 0.0000 0.0000
# 4 0.0000 0.0000 0.0000 39.8390 0.0000 0.0000
# 5 0.0000 0.0000 0.0000 0.0000 39.8389 0.0000
# 6 0.0000 0.0000 0.0000 0.0000 0.0000 17.1175
#
#
#
# Elastic Compliance Matrix: (Units=1/GPa)
#
#
# Indices 1 2 3 4 5 6 
#
# 1 0.015668 -0.003300 -0.003261 0.000000 0.000000 0.000000
# 2 -0.003300 0.015668 -0.003261 0.000000 0.000000 0.000000
# 3 -0.003261 -0.003261 0.005469 0.000000 0.000000 0.000000
# 4 0.000000 0.000000 0.000000 0.025101 0.000000 0.000000
# 5 0.000000 0.000000 0.000000 0.000000 0.025101 0.000000
# 6 0.000000 0.000000 0.000000 0.000000 0.000000 0.058420
#
#
# Mechanical properties :
#
#
# Convention : Reuss Voigt Hill
#
# Bulk Modulus (GPa) = 58.26818 87.08478 72.67648
# Shear Modulus (GPa) = 29.27589 36.96646 33.12117
#
# Velocity S-wave (km/s) = 3.42104 3.84421 3.63878
# Velocity P-wave (km/s) = 6.23685 7.38360 6.83432
#
# Compressibility (1/GPa) = 0.01716203
#
# Stress axis : x y z
#
# Youngs Moduli (GPa) = 63.82627 63.82616 182.84499
#
# Poissons Ratio (x) = 0.21061 0.59619
# Poissons Ratio (y) = 0.21061 0.59619
# Poissons Ratio (z) = 0.20811 0.20811
#
# Static dielectric constant tensor:
#      x y z
#    x 2.046680 0.000000 0.000000 
#    y 0.000000 2.046670 0.000000 
#    z 0.000000 0.000000 2.154960 
# 
# From -- ./inp_files/9522.got.cif
#   From: 2010.05.17/outbox.cif.g08.bks.cpg/sg140_5_cif.got.tgz:9522.got - 2010.06.21 00:45:31.
