data_PCOD9572672
_publ_section_title
;
Structure prediction by ZEFSAII (Michael W. Deem and Ramdas Pophale) SiO2 
 PCOD9572672
Probable space group: I 4/M C M
;
_chemical_formula_sum "Si O2"
_cell_formula_units_Z 80
_cell_length_a 11.297464
_cell_length_b 11.297464
_cell_length_c 33.992695
_cell_angle_alpha 90.000000
_cell_angle_beta 90.000000
_cell_angle_gamma 90.000000
_cell_volume 4338.579199
_symmetry_space_group_name_H-M "I 4/M C M"
_symmetry_group_IT_number 140
_symmetry_cell_setting 'tetragonal'
loop_
_space_group_symop_operation_xyz
x,y,z
-y,x,z
-x,-y,z
y,-x,z
x,-y,1/2-z
-x,y,1/2-z
y,x,1/2-z
-y,-x,1/2-z
-x,-y,-z
y,-x,-z
x,y,-z
-y,x,-z
-x,y,1/2+z
x,-y,1/2+z
-y,-x,1/2+z
y,x,1/2+z
1/2+x,1/2+y,1/2+z
1/2-y,1/2+x,1/2+z
1/2-x,1/2-y,1/2+z
1/2+y,1/2-x,1/2+z
1/2+x,1/2-y,-z
1/2-x,1/2+y,-z
1/2+y,1/2+x,-z
1/2-y,1/2-x,-z
1/2-x,1/2-y,1/2-z
1/2+y,1/2-x,1/2-z
1/2+x,1/2+y,1/2-z
1/2-y,1/2+x,1/2-z
1/2-x,1/2+y,z
1/2+x,1/2-y,z
1/2-y,1/2-x,z
1/2+y,1/2+x,z
loop_
_atom_site_type_symbol
_atom_site_label
_atom_site_fract_x
_atom_site_fract_y
_atom_site_fract_z
Si Si1 0.599900 0.900101 0.397109
Si Si2 0.000000 0.201320 0.250000
Si Si3 0.469784 0.303319 0.455739
Si Si4 0.599705 0.099705 0.192103
O O1 0.549641 0.790713 0.421920
O O2 0.633307 0.866694 0.352492
O O3 0.500000 0.000000 0.395518
O O4 0.961992 0.290956 0.285062
O O5 0.112887 0.112887 0.250000
O O6 0.595053 0.370046 0.452688
O O7 0.462378 0.251744 0.500000
O O8 0.500000 0.000000 0.190496
#
# Coordination Sequence:
#
# PCOD9572672 Si02
#       4
#    16  16  32  16
#     4  11  25  37  58  94 125 156 204 256 307 355
#     4  11  23  42  70  94 117 161 206 250 312 375
#     4   9  20  40  62  85 121 167 208 252 303 356
#     4  11  23  42  63  89 129 162 197 258 311 366
#
# _framework density 18.439215000000001
#
# number of rings (size 3 to 8) (size 9 to 14) (size 15 to 20)
#    0.000    1.800    2.000    2.400    2.800    4.800 
#    0.000    4.000    0.000    0.000    0.000    0.000 
#    0.000    0.000    0.000    0.000    0.000    0.000 
#
# Total GULP energy -222963.050225 kJ/mol
# GULP energy per Si atom -5574.076256 kJ/mol
# Density = 1.839725 g / cm^3
# Si number density = 18.439215 Si / 1000 Ang^3
#
#
#
# Elastic Constant Matrix: (Units=GPa)
#
#
# Indices 1 2 3 4 5 6 
#
# 1 81.0701 46.5475 72.6012 0.0000 0.0000 0.0000
# 2 46.5475 81.0701 72.6012 0.0000 0.0000 0.0000
# 3 72.6012 72.6012 191.5134 0.0000 0.0000 0.0000
# 4 0.0000 0.0000 0.0000 -76.2777 0.0000 0.0000
# 5 0.0000 0.0000 0.0000 0.0000 -76.2777 0.0000
# 6 0.0000 0.0000 0.0000 0.0000 0.0000 16.8183
#
#
#
# Elastic Compliance Matrix: (Units=1/GPa)
#
#
# Indices 1 2 3 4 5 6 
#
# 1 0.021373 -0.007594 -0.005224 0.000000 0.000000 0.000000
# 2 -0.007594 0.021373 -0.005224 0.000000 0.000000 0.000000
# 3 -0.005224 -0.005224 0.009182 0.000000 0.000000 0.000000
# 4 0.000000 0.000000 0.000000 -0.013110 0.000000 0.000000
# 5 0.000000 0.000000 0.000000 0.000000 -0.013110 0.000000
# 6 0.000000 0.000000 0.000000 0.000000 0.000000 0.059459
#
#
# Mechanical properties :
#
#
# Convention : Reuss Voigt Hill
#
# Bulk Modulus (GPa) = 63.10677 81.90595 72.50636
# Shear Modulus (GPa) = 39.51610 -16.35382 11.58114
#
# Velocity S-wave (km/s) = 4.63433 -2.98133 2.50885
# Velocity P-wave (km/s) = 7.93313 5.71531 6.91373
#
# Compressibility (1/GPa) = 0.01584616
#
# Stress axis : x y z
#
# Youngs Moduli (GPa) = 46.78815 46.78814 108.90823
#
# Poissons Ratio (x) = 0.35529 0.56890
# Poissons Ratio (y) = 0.35529 0.56890
# Poissons Ratio (z) = 0.24440 0.24440
#
# Static dielectric constant tensor:
#      x y z
#    x 1.634650 0.000000 0.000000 
#    y 0.000000 1.634650 0.000000 
#    z 0.000000 0.000000 1.643600 
# 
# From -- ./inp_files/11080.got.cif
#   From: 2010.05.17/outbox.cif.g08.bks.cpg/sg140_6_cif.got.tgz:11080.got - 2010.06.21 00:45:31.
