data_PCOD9572445
_publ_section_title
;
Structure prediction by ZEFSAII (Michael W. Deem and Ramdas Pophale) SiO2 
 PCOD9572445
Probable space group: I 4/M C M
;
_chemical_formula_sum "Si O2"
_cell_formula_units_Z 176
_cell_length_a 25.965604
_cell_length_b 25.965604
_cell_length_c 14.187645
_cell_angle_alpha 90.000000
_cell_angle_beta 90.000000
_cell_angle_gamma 90.000000
_cell_volume 9565.488897
_symmetry_space_group_name_H-M "I 4/M C M"
_symmetry_group_IT_number 140
_symmetry_cell_setting 'tetragonal'
loop_
_space_group_symop_operation_xyz
x,y,z
-y,x,z
-x,-y,z
y,-x,z
x,-y,1/2-z
-x,y,1/2-z
y,x,1/2-z
-y,-x,1/2-z
-x,-y,-z
y,-x,-z
x,y,-z
-y,x,-z
-x,y,1/2+z
x,-y,1/2+z
-y,-x,1/2+z
y,x,1/2+z
1/2+x,1/2+y,1/2+z
1/2-y,1/2+x,1/2+z
1/2-x,1/2-y,1/2+z
1/2+y,1/2-x,1/2+z
1/2+x,1/2-y,-z
1/2-x,1/2+y,-z
1/2+y,1/2+x,-z
1/2-y,1/2-x,-z
1/2-x,1/2-y,1/2-z
1/2+y,1/2-x,1/2-z
1/2+x,1/2+y,1/2-z
1/2-y,1/2+x,1/2-z
1/2-x,1/2+y,z
1/2+x,1/2-y,z
1/2-y,1/2-x,z
1/2+y,1/2+x,z
loop_
_atom_site_type_symbol
_atom_site_label
_atom_site_fract_x
_atom_site_fract_y
_atom_site_fract_z
Si Si1 0.789372 0.798997 0.500000
Si Si2 0.194083 0.607567 0.791337
Si Si3 0.216352 0.500000 0.750000
Si Si4 0.799586 0.131396 0.184325
Si Si5 0.014290 0.918089 0.114464
Si Si6 0.808013 0.983930 0.612911
Si Si7 0.784781 0.628248 0.500000
O O1 0.743478 0.756523 0.500000
O O2 0.787612 0.833281 0.406282
O O3 0.844808 0.770673 0.500000
O O4 0.149362 0.649362 0.777730
O O5 0.183900 0.551922 0.746637
O O6 0.247215 0.626859 0.744847
O O7 0.203974 0.600328 0.902656
O O8 0.256274 0.502815 0.837210
O O9 0.842398 0.157603 0.250000
O O10 0.815057 0.074993 0.146914
O O11 0.016647 0.858508 0.142158
O O12 0.057621 0.959104 0.143541
O O13 0.015123 0.918360 0.000000
O O14 0.985342 0.196260 0.500000
O O15 0.823925 0.676076 0.500000
#
# Coordination Sequence:
#
# PCOD9572445 Si02
#       7
#    16  32  16  32  32  32  16
#     4  11  20  32  51  78 112 149 186 223 274 327
#     4  10  21  38  58  83 113 146 184 226 274 330
#     4  10  24  38  58  82 108 144 176 222 272 340
#     4  11  21  34  53  80 114 150 187 228 273 334
#     4   8  15  30  51  72  95 135 186 231 273 311
#     4  10  21  37  53  77 112 144 181 232 285 333
#     4   9  18  32  55  84 111 143 181 220 268 320
#
# _framework density 18.399477999999998
#
# number of rings (size 3 to 8) (size 9 to 14) (size 15 to 20)
#    0.000    2.182    2.727    1.091    1.273    3.636 
#    0.000    0.000    0.000    1.364    0.000    0.000 
#    0.000    2.182    0.000    0.000    0.000    0.000 
#
# Total GULP energy -491274.224075 kJ/mol
# GULP energy per Si atom -5582.661637 kJ/mol
# Density = 1.835760 g / cm^3
# Si number density = 18.399478 Si / 1000 Ang^3
#
#
#
# Elastic Constant Matrix: (Units=GPa)
#
#
# Indices 1 2 3 4 5 6 
#
# 1 46.7108 16.9868 2.4831 0.0000 0.0000 0.0000
# 2 16.9868 46.7113 2.4845 0.0000 0.0000 0.0000
# 3 2.4831 2.4845 81.3751 0.0000 0.0000 0.0000
# 4 0.0000 0.0000 0.0000 10.4471 0.0000 0.0000
# 5 0.0000 0.0000 0.0000 0.0000 10.4482 0.0000
# 6 0.0000 0.0000 0.0000 0.0000 0.0000 18.8019
#
#
#
# Elastic Compliance Matrix: (Units=1/GPa)
#
#
# Indices 1 2 3 4 5 6 
#
# 1 0.024690 -0.008953 -0.000480 0.000000 0.000000 0.000000
# 2 -0.008953 0.024689 -0.000481 0.000000 0.000000 0.000000
# 3 -0.000480 -0.000481 0.012318 0.000000 0.000000 0.000000
# 4 0.000000 0.000000 0.000000 0.095720 0.000000 0.000000
# 5 0.000000 0.000000 0.000000 0.000000 0.095710 0.000000
# 6 0.000000 0.000000 0.000000 0.000000 0.000000 0.053186
#
#
# Mechanical properties :
#
#
# Convention : Reuss Voigt Hill
#
# Bulk Modulus (GPa) = 23.88348 24.30067 24.09208
# Shear Modulus (GPa) = 14.70168 18.12897 16.41532
#
# Velocity S-wave (km/s) = 2.82977 3.14235 2.99015
# Velocity P-wave (km/s) = 4.86678 5.13826 5.00436
#
# Compressibility (1/GPa) = 0.04186994
#
# Stress axis : x y z
#
# Youngs Moduli (GPa) = 40.50279 40.50309 81.18144
#
# Poissons Ratio (x) = 0.36262 0.03897
# Poissons Ratio (y) = 0.36262 0.03902
# Poissons Ratio (z) = 0.01944 0.01947
#
# Static dielectric constant tensor:
#      x y z
#    x 1.628750 0.000000 0.000000 
#    y 0.000000 1.628750 0.000000 
#    z 0.000000 0.000000 1.683420 
# 
# From -- ./inp_files/4999.got.cif
#   From: 2010.05.17/outbox.cif.g08.bks.cpg/sg140_3_cif.got.tgz:4999.got - 2010.06.21 00:45:31.
