data_PCOD9572059
_publ_section_title
;
Structure prediction by ZEFSAII (Michael W. Deem and Ramdas Pophale) SiO2 
 PCOD9572059
Probable space group: I 4/M C M
;
_chemical_formula_sum "Si O2"
_cell_formula_units_Z 192
_cell_length_a 26.183974
_cell_length_b 26.183974
_cell_length_c 15.331478
_cell_angle_alpha 90.000000
_cell_angle_beta 90.000000
_cell_angle_gamma 90.000000
_cell_volume 10511.268897
_symmetry_space_group_name_H-M "I 4/M C M"
_symmetry_group_IT_number 140
_symmetry_cell_setting 'tetragonal'
loop_
_space_group_symop_operation_xyz
x,y,z
-y,x,z
-x,-y,z
y,-x,z
x,-y,1/2-z
-x,y,1/2-z
y,x,1/2-z
-y,-x,1/2-z
-x,-y,-z
y,-x,-z
x,y,-z
-y,x,-z
-x,y,1/2+z
x,-y,1/2+z
-y,-x,1/2+z
y,x,1/2+z
1/2+x,1/2+y,1/2+z
1/2-y,1/2+x,1/2+z
1/2-x,1/2-y,1/2+z
1/2+y,1/2-x,1/2+z
1/2+x,1/2-y,-z
1/2-x,1/2+y,-z
1/2+y,1/2+x,-z
1/2-y,1/2-x,-z
1/2-x,1/2-y,1/2-z
1/2+y,1/2-x,1/2-z
1/2+x,1/2+y,1/2-z
1/2-y,1/2+x,1/2-z
1/2-x,1/2+y,z
1/2+x,1/2-y,z
1/2-y,1/2-x,z
1/2+y,1/2+x,z
loop_
_atom_site_type_symbol
_atom_site_label
_atom_site_fract_x
_atom_site_fract_y
_atom_site_fract_z
Si Si1 0.829511 0.758540 0.500000
Si Si2 0.754927 0.100335 0.670877
Si Si3 0.338838 0.753259 0.000000
Si Si4 0.430367 0.450988 0.102415
Si Si5 0.739069 0.986156 0.396039
Si Si6 0.692161 0.109188 0.839807
Si Si7 0.555239 0.335246 0.208062
O O1 0.787460 0.712541 0.500000
O O2 0.863648 0.755709 0.587109
O O3 0.802010 0.813851 0.500000
O O4 0.715707 0.119156 0.744804
O O5 0.808743 0.092043 0.721377
O O6 0.739325 0.043224 0.641213
O O7 0.369312 0.769325 0.086091
O O8 0.290595 0.790595 0.000000
O O9 0.487793 0.431781 0.118588
O O10 0.386286 0.426844 0.160311
O O11 0.419745 0.443357 0.000000
O O12 0.737711 0.987359 0.500000
O O13 0.693567 0.951274 0.357830
O O14 0.790913 0.959028 0.361796
O O15 0.639275 0.139275 0.850495
O O16 0.500000 0.346345 0.250000
#
# Coordination Sequence:
#
# PCOD9572059 Si02
#       7
#    16  32  16  32  32  32  32
#     4  11  22  39  60  82 115 156 188 233 289 337
#     4  10  21  37  56  82 114 149 188 231 281 342
#     4   9  20  35  54  80 110 148 186 223 274 329
#     4   9  18  34  55  76 100 136 189 249 307 356
#     4  10  18  34  58  79 111 151 182 229 285 327
#     4  10  19  35  58  85 114 148 191 234 278 336
#     4   9  19  33  51  72 103 139 179 228 290 337
#
# _framework density 18.266110000000001
#
# number of rings (size 3 to 8) (size 9 to 14) (size 15 to 20)
#    0.000    2.333    1.667    3.000    0.000    1.333 
#    0.000   16.667    0.000    0.000    0.000    0.000 
#    0.000   12.000    0.000    0.000    0.000    0.000 
#
# Total GULP energy -535719.271494 kJ/mol
# GULP energy per Si atom -5580.409078 kJ/mol
# Density = 1.822454 g / cm^3
# Si number density = 18.266110 Si / 1000 Ang^3
#
#
#
# Elastic Constant Matrix: (Units=GPa)
#
#
# Indices 1 2 3 4 5 6 
#
# 1 69.0943 28.0225 31.6755 0.0000 0.0000 0.0000
# 2 28.0225 69.0934 31.6749 0.0000 0.0000 0.0000
# 3 31.6755 31.6749 104.7980 0.0000 0.0000 0.0000
# 4 0.0000 0.0000 0.0000 23.1663 0.0000 0.0000
# 5 0.0000 0.0000 0.0000 0.0000 23.1657 0.0000
# 6 0.0000 0.0000 0.0000 0.0000 0.0000 11.0510
#
#
#
# Elastic Compliance Matrix: (Units=1/GPa)
#
#
# Indices 1 2 3 4 5 6 
#
# 1 0.018587 -0.005761 -0.003877 0.000000 0.000000 0.000000
# 2 -0.005761 0.018587 -0.003877 0.000000 0.000000 0.000000
# 3 -0.003877 -0.003877 0.011886 0.000000 0.000000 0.000000
# 4 0.000000 0.000000 0.000000 0.043166 0.000000 0.000000
# 5 0.000000 0.000000 0.000000 0.000000 0.043167 0.000000
# 6 0.000000 0.000000 0.000000 0.000000 0.000000 0.090490
#
#
# Mechanical properties :
#
#
# Convention : Reuss Voigt Hill
#
# Bulk Modulus (GPa) = 45.39134 47.30351 46.34743
# Shear Modulus (GPa) = 19.21199 21.58412 20.39805
#
# Velocity S-wave (km/s) = 3.24664 3.44124 3.34536
# Velocity P-wave (km/s) = 6.24165 6.46085 6.35220
#
# Compressibility (1/GPa) = 0.02203063
#
# Stress axis : x y z
#
# Youngs Moduli (GPa) = 53.80198 53.80150 84.13582
#
# Poissons Ratio (x) = 0.30996 0.32616
# Poissons Ratio (y) = 0.30996 0.32615
# Poissons Ratio (z) = 0.20857 0.20856
#
# Static dielectric constant tensor:
#      x y z
#    x 1.642730 0.000000 0.000000 
#    y 0.000000 1.642730 0.000000 
#    z 0.000000 0.000000 1.652140 
# 
# From -- ./inp_files/5200.got.cif
#   From: 2010.05.17/outbox.cif.g08.bks.cpg/sg140_3_cif.got.tgz:5200.got - 2010.06.21 00:45:31.
