data_PCOD9572498
_publ_section_title
;
Structure prediction by ZEFSAII (Michael W. Deem and Ramdas Pophale) SiO2 
 PCOD9572498
Probable space group: I 4/M C M
;
_chemical_formula_sum "Si O2"
_cell_formula_units_Z 96
_cell_length_a 13.864000
_cell_length_b 13.864000
_cell_length_c 25.209303
_cell_angle_alpha 90.000000
_cell_angle_beta 90.000000
_cell_angle_gamma 90.000000
_cell_volume 4845.492633
_symmetry_space_group_name_H-M "I 4/M C M"
_symmetry_group_IT_number 140
_symmetry_cell_setting 'tetragonal'
loop_
_space_group_symop_operation_xyz
x,y,z
-y,x,z
-x,-y,z
y,-x,z
x,-y,1/2-z
-x,y,1/2-z
y,x,1/2-z
-y,-x,1/2-z
-x,-y,-z
y,-x,-z
x,y,-z
-y,x,-z
-x,y,1/2+z
x,-y,1/2+z
-y,-x,1/2+z
y,x,1/2+z
1/2+x,1/2+y,1/2+z
1/2-y,1/2+x,1/2+z
1/2-x,1/2-y,1/2+z
1/2+y,1/2-x,1/2+z
1/2+x,1/2-y,-z
1/2-x,1/2+y,-z
1/2+y,1/2+x,-z
1/2-y,1/2-x,-z
1/2-x,1/2-y,1/2-z
1/2+y,1/2-x,1/2-z
1/2+x,1/2+y,1/2-z
1/2-y,1/2+x,1/2-z
1/2-x,1/2+y,z
1/2+x,1/2-y,z
1/2-y,1/2-x,z
1/2+y,1/2+x,z
loop_
_atom_site_type_symbol
_atom_site_label
_atom_site_fract_x
_atom_site_fract_y
_atom_site_fract_z
Si Si1 0.145449 0.069349 0.000000
Si Si2 0.416696 0.083305 0.437877
Si Si3 0.434878 0.771438 0.397509
Si Si4 0.402078 0.262180 0.220377
O O1 0.204810 0.090391 0.947082
O O2 0.044497 0.123547 0.000000
O O3 0.396214 0.103787 0.500000
O O4 0.462973 0.175784 0.409222
O O5 0.500000 0.000000 0.437675
O O6 0.356705 0.856705 0.395872
O O7 0.428103 0.719136 0.341086
O O8 0.500000 0.234929 0.250000
O O9 0.351450 0.351450 0.250000
O O10 0.325665 0.174336 0.222485
#
# Coordination Sequence:
#
# PCOD9572498 Si02
#       4
#    16  16  32  32
#     4  11  25  41  58  87 126 163 202 249 307 378
#     4   9  16  32  60  92 123 150 192 253 312 369
#     4  10  21  41  65  92 124 159 206 256 310 372
#     4  10  24  43  64  94 128 166 217 265 312 380
#
# _framework density 19.812225999999999
#
# number of rings (size 3 to 8) (size 9 to 14) (size 15 to 20)
#    0.000    2.000    1.667    0.500    7.000    0.667 
#    6.000    0.000    0.000    0.000    0.000    0.000 
#    0.000    0.000    0.000    0.000    0.000    0.000 
#
# Total GULP energy -268081.421787 kJ/mol
# GULP energy per Si atom -5585.029621 kJ/mol
# Density = 1.976713 g / cm^3
# Si number density = 19.812226 Si / 1000 Ang^3
#
#
#
# Elastic Constant Matrix: (Units=GPa)
#
#
# Indices 1 2 3 4 5 6 
#
# 1 42.9593 2.8141 42.0814 0.0000 0.0000 0.0000
# 2 2.8141 42.9595 42.0814 0.0000 0.0000 0.0000
# 3 42.0814 42.0814 201.1488 0.0000 0.0000 0.0000
# 4 0.0000 0.0000 0.0000 29.4569 0.0000 0.0000
# 5 0.0000 0.0000 0.0000 0.0000 29.4570 0.0000
# 6 0.0000 0.0000 0.0000 0.0000 0.0000 -2.6051
#
#
#
# Elastic Compliance Matrix: (Units=1/GPa)
#
#
# Indices 1 2 3 4 5 6 
#
# 1 0.030207 0.005297 -0.007428 0.000000 0.000000 0.000000
# 2 0.005297 0.030206 -0.007428 0.000000 0.000000 0.000000
# 3 -0.007428 -0.007428 0.008079 0.000000 0.000000 0.000000
# 4 0.000000 0.000000 0.000000 0.033948 0.000000 0.000000
# 5 0.000000 0.000000 0.000000 0.000000 0.033948 0.000000
# 6 0.000000 0.000000 0.000000 0.000000 0.000000 -0.383867
#
#
# Mechanical properties :
#
#
# Convention : Reuss Voigt Hill
#
# Bulk Modulus (GPa) = 20.25265 51.22458 35.73861
# Shear Modulus (GPa) = -23.59556 24.60115 0.50280
#
# Velocity S-wave (km/s) = -3.45477 3.52762 0.50431
# Velocity P-wave (km/s) = 2.38106 6.51946 4.29150
#
# Compressibility (1/GPa) = 0.04937626
#
# Stress axis : x y z
#
# Youngs Moduli (GPa) = 33.10528 33.10547 123.77453
#
# Poissons Ratio (x) = -0.17536 0.91934
# Poissons Ratio (y) = -0.17536 0.91934
# Poissons Ratio (z) = 0.24589 0.24589
#
# Static dielectric constant tensor:
#      x y z
#    x 1.684110 0.000000 0.000000 
#    y 0.000000 1.684110 0.000000 
#    z 0.000000 0.000000 1.699100 
# 
# From -- ./inp_files/7710.got.cif
#   From: 2010.05.17/outbox.cif.g08.bks.cpg/sg140_4_cif.got.tgz:7710.got - 2010.06.21 00:45:31.
