data_PCOD9572385
_publ_section_title
;
Structure prediction by ZEFSAII (Michael W. Deem and Ramdas Pophale) SiO2 
 PCOD9572385
Probable space group: I 4/M C M
;
_chemical_formula_sum "Si O2"
_cell_formula_units_Z 160
_cell_length_a 20.971789
_cell_length_b 20.971789
_cell_length_c 17.447463
_cell_angle_alpha 90.000000
_cell_angle_beta 90.000000
_cell_angle_gamma 90.000000
_cell_volume 7673.672233
_symmetry_space_group_name_H-M "I 4/M C M"
_symmetry_group_IT_number 140
_symmetry_cell_setting 'tetragonal'
loop_
_space_group_symop_operation_xyz
x,y,z
-y,x,z
-x,-y,z
y,-x,z
x,-y,1/2-z
-x,y,1/2-z
y,x,1/2-z
-y,-x,1/2-z
-x,-y,-z
y,-x,-z
x,y,-z
-y,x,-z
-x,y,1/2+z
x,-y,1/2+z
-y,-x,1/2+z
y,x,1/2+z
1/2+x,1/2+y,1/2+z
1/2-y,1/2+x,1/2+z
1/2-x,1/2-y,1/2+z
1/2+y,1/2-x,1/2+z
1/2+x,1/2-y,-z
1/2-x,1/2+y,-z
1/2+y,1/2+x,-z
1/2-y,1/2-x,-z
1/2-x,1/2-y,1/2-z
1/2+y,1/2-x,1/2-z
1/2+x,1/2+y,1/2-z
1/2-y,1/2+x,1/2-z
1/2-x,1/2+y,z
1/2+x,1/2-y,z
1/2-y,1/2-x,z
1/2+y,1/2+x,z
loop_
_atom_site_type_symbol
_atom_site_label
_atom_site_fract_x
_atom_site_fract_y
_atom_site_fract_z
Si Si1 0.371247 0.628754 0.750000
Si Si2 0.696789 0.431187 0.500000
Si Si3 0.261269 0.865217 0.661997
Si Si4 0.971528 0.635279 0.336574
Si Si5 0.219452 0.181831 0.000000
Si Si6 0.396787 0.530236 0.630112
Si Si7 0.847331 0.453630 0.500000
O O1 0.308070 0.632756 0.800981
O O2 0.369994 0.560920 0.707584
O O3 0.682153 0.356037 0.500000
O O4 0.660135 0.460836 0.571518
O O5 0.771695 0.441881 0.500000
O O6 0.307276 0.807276 0.690981
O O7 0.300189 0.930111 0.670120
O O8 0.248242 0.852193 0.573359
O O9 0.922589 0.577412 0.348561
O O10 0.000000 0.626359 0.250000
O O11 0.012243 0.638389 0.416543
O O12 0.246075 0.253926 0.000000
O O13 0.424405 0.459383 0.620577
O O14 0.889729 0.389729 0.500000
#
# Coordination Sequence:
#
# PCOD9572385 Si02
#       7
#    16  16  32  32  16  32  16
#     4  12  23  39  70  98 140 188 228 293 357 416
#     4  12  25  44  70 100 133 182 233 285 356 422
#     4  10  23  41  66 103 140 180 235 290 352 422
#     4  11  26  47  75 108 146 191 240 298 364 441
#     4  10  20  42  67  94 135 178 222 282 352 416
#     4  11  26  45  66  97 137 181 232 285 344 423
#     4  12  29  48  74 111 146 184 244 309 361 436
#
# _framework density 20.850512999999999
#
# number of rings (size 3 to 8) (size 9 to 14) (size 15 to 20)
#    0.000    1.000    2.000    3.300    5.600    6.600 
#    0.000    0.000    0.000    0.000    0.000    0.000 
#    0.000    0.000    0.000    0.000    0.000    0.000 
#
# Total GULP energy -446351.988347 kJ/mol
# GULP energy per Si atom -5579.399854 kJ/mol
# Density = 2.080306 g / cm^3
# Si number density = 20.850513 Si / 1000 Ang^3
#
#
#
# Elastic Constant Matrix: (Units=GPa)
#
#
# Indices 1 2 3 4 5 6 
#
# 1 116.0463 30.7832 49.0775 0.0000 0.0000 0.0000
# 2 30.7832 116.0437 49.0773 0.0000 0.0000 0.0000
# 3 49.0775 49.0773 127.3025 0.0000 0.0000 0.0000
# 4 0.0000 0.0000 0.0000 4.5264 0.0000 0.0000
# 5 0.0000 0.0000 0.0000 0.0000 4.5057 0.0000
# 6 0.0000 0.0000 0.0000 0.0000 0.0000 23.1065
#
#
#
# Elastic Compliance Matrix: (Units=1/GPa)
#
#
# Indices 1 2 3 4 5 6 
#
# 1 0.010452 -0.001277 -0.003537 0.000000 0.000000 0.000000
# 2 -0.001277 0.010452 -0.003537 0.000000 0.000000 0.000000
# 3 -0.003537 -0.003537 0.010583 0.000000 0.000000 0.000000
# 4 0.000000 0.000000 0.000000 0.220928 0.000000 0.000000
# 5 0.000000 0.000000 0.000000 0.000000 0.221943 0.000000
# 6 0.000000 0.000000 0.000000 0.000000 0.000000 0.043278
#
#
# Mechanical properties :
#
#
# Convention : Reuss Voigt Hill
#
# Bulk Modulus (GPa) = 67.63928 68.58538 68.11233
# Shear Modulus (GPa) = 9.27186 21.79134 15.53160
#
# Velocity S-wave (km/s) = 2.11104 3.23634 2.73225
# Velocity P-wave (km/s) = 6.20101 6.85058 6.53387
#
# Compressibility (1/GPa) = 0.01478431
#
# Stress axis : x y z
#
# Youngs Moduli (GPa) = 95.67700 95.67460 94.49425
#
# Poissons Ratio (x) = 0.12214 0.33425
# Poissons Ratio (y) = 0.12214 0.33425
# Poissons Ratio (z) = 0.33843 0.33843
#
# Static dielectric constant tensor:
#      x y z
#    x 1.764850 0.000000 0.000000 
#    y 0.000000 1.764860 0.000000 
#    z 0.000000 0.000000 1.709160 
# 
# From -- ./inp_files/6959.got.cif
#   From: 2010.05.17/outbox.cif.g08.bks.cpg/sg140_4_cif.got.tgz:6959.got - 2010.06.21 00:45:31.
