data_PCOD9572148
_publ_section_title
;
Structure prediction by ZEFSAII (Michael W. Deem and Ramdas Pophale) SiO2 
 PCOD9572148
Probable space group: I 4/M C M
;
_chemical_formula_sum "Si O2"
_cell_formula_units_Z 176
_cell_length_a 24.287105
_cell_length_b 24.287105
_cell_length_c 14.616262
_cell_angle_alpha 90.000000
_cell_angle_beta 90.000000
_cell_angle_gamma 90.000000
_cell_volume 8621.599011
_symmetry_space_group_name_H-M "I 4/M C M"
_symmetry_group_IT_number 140
_symmetry_cell_setting 'tetragonal'
loop_
_space_group_symop_operation_xyz
x,y,z
-y,x,z
-x,-y,z
y,-x,z
x,-y,1/2-z
-x,y,1/2-z
y,x,1/2-z
-y,-x,1/2-z
-x,-y,-z
y,-x,-z
x,y,-z
-y,x,-z
-x,y,1/2+z
x,-y,1/2+z
-y,-x,1/2+z
y,x,1/2+z
1/2+x,1/2+y,1/2+z
1/2-y,1/2+x,1/2+z
1/2-x,1/2-y,1/2+z
1/2+y,1/2-x,1/2+z
1/2+x,1/2-y,-z
1/2-x,1/2+y,-z
1/2+y,1/2+x,-z
1/2-y,1/2-x,-z
1/2-x,1/2-y,1/2-z
1/2+y,1/2-x,1/2-z
1/2+x,1/2+y,1/2-z
1/2-y,1/2+x,1/2-z
1/2-x,1/2+y,z
1/2+x,1/2-y,z
1/2-y,1/2-x,z
1/2+y,1/2+x,z
loop_
_atom_site_type_symbol
_atom_site_label
_atom_site_fract_x
_atom_site_fract_y
_atom_site_fract_z
Si Si1 0.326092 0.326092 0.750000
Si Si2 0.724797 0.603573 0.104003
Si Si3 0.842522 0.342522 0.610724
Si Si4 0.852575 0.262699 0.105806
Si Si5 0.375997 0.959503 0.389198
Si Si6 0.754665 0.482797 0.848997
Si Si7 0.431176 0.068825 0.610534
O O1 0.318642 0.378818 0.817438
O O2 0.276477 0.323882 0.678316
O O3 0.781582 0.635104 0.134289
O O4 0.736106 0.537831 0.097735
O O5 0.710645 0.621631 0.000000
O O6 0.842993 0.342993 0.500000
O O7 0.886950 0.386950 0.645099
O O8 0.823115 0.323115 0.117883
O O9 0.918436 0.248692 0.120786
O O10 0.841922 0.249206 0.000000
O O11 0.367655 0.955596 0.500000
O O12 0.402987 0.902987 0.358438
O O13 0.320324 0.981379 0.348061
O O14 0.417793 0.007258 0.366767
O O15 0.732707 0.500000 0.750000
O O16 0.427150 0.072851 0.500000
#
# Coordination Sequence:
#
# PCOD9572148 Si02
#       7
#    16  32  16  32  32  32  16
#     4  12  25  42  64  94 130 163 220 275 320 392
#     4  11  23  40  64  89 122 168 212 264 325 384
#     4   9  18  32  55  84 111 153 214 261 313 381
#     4  11  25  44  66  94 130 172 216 270 335 395
#     4  10  19  33  53  76 107 151 203 260 318 373
#     4  12  23  40  59  86 122 163 213 267 319 387
#     4   9  15  28  50  75 102 142 202 263 307 363
#
# _framework density 20.413847000000001
#
# number of rings (size 3 to 8) (size 9 to 14) (size 15 to 20)
#    0.000    1.273    3.636    3.273    2.545    2.545 
#    4.909    0.000    0.000    0.000    0.000    0.000 
#    0.000    5.818    0.000   14.545    0.000    0.000 
#
# Total GULP energy -489929.780275 kJ/mol
# GULP energy per Si atom -5567.383867 kJ/mol
# Density = 2.036738 g / cm^3
# Si number density = 20.413847 Si / 1000 Ang^3
#
#
#
# Elastic Constant Matrix: (Units=GPa)
#
#
# Indices 1 2 3 4 5 6 
#
# 1 -62.8040 198.1766 42.6732 0.0000 0.0000 0.0000
# 2 198.1766 -62.7839 42.6681 0.0000 0.0000 0.0000
# 3 42.6732 42.6681 124.5883 0.0000 0.0000 0.0000
# 4 0.0000 0.0000 0.0000 43.6832 0.0000 0.0000
# 5 0.0000 0.0000 0.0000 0.0000 43.6817 0.0000
# 6 0.0000 0.0000 0.0000 0.0000 0.0000 37.3805
#
#
#
# Elastic Compliance Matrix: (Units=1/GPa)
#
#
# Indices 1 2 3 4 5 6 
#
# 1 0.002794 0.006626 -0.003226 0.000000 0.000000 0.000000
# 2 0.006626 0.002795 -0.003227 0.000000 0.000000 0.000000
# 3 -0.003226 -0.003227 0.010236 0.000000 0.000000 0.000000
# 4 0.000000 0.000000 0.000000 0.022892 0.000000 0.000000
# 5 0.000000 0.000000 0.000000 0.000000 0.022893 0.000000
# 6 0.000000 0.000000 0.000000 0.000000 0.000000 0.026752
#
#
# Mechanical properties :
#
#
# Convention : Reuss Voigt Hill
#
# Bulk Modulus (GPa) = 61.83716 62.89290 62.36503
# Shear Modulus (GPa) = 53.52995 5.98126 29.75561
#
# Velocity S-wave (km/s) = 5.12633 1.71358 3.82202
# Velocity P-wave (km/s) = 8.08682 5.89839 7.07770
#
# Compressibility (1/GPa) = 0.01617151
#
# Stress axis : x y z
#
# Youngs Moduli (GPa) = 357.93617 357.82708 97.68998
#
# Poissons Ratio (x) = -2.37099 0.31516
# Poissons Ratio (y) = -2.37171 0.31521
# Poissons Ratio (z) = 1.15476 1.15457
#
# Static dielectric constant tensor:
#      x y z
#    x 1.749340 0.000000 0.000000 
#    y 0.000000 1.749350 0.000000 
#    z 0.000000 0.000000 2.221210 
# 
# From -- ./inp_files/4984.got.cif
#   From: 2010.05.17/outbox.cif.g08.bks.cpg/sg140_3_cif.got.tgz:4984.got - 2010.06.21 00:45:31.
