data_PCOD9572265
_publ_section_title
;
Structure prediction by ZEFSAII (Michael W. Deem and Ramdas Pophale) SiO2 
 PCOD9572265
Probable space group: I 4/M C M
;
_chemical_formula_sum "Si O2"
_cell_formula_units_Z 176
_cell_length_a 17.180548
_cell_length_b 17.180548
_cell_length_c 30.353853
_cell_angle_alpha 90.000000
_cell_angle_beta 90.000000
_cell_angle_gamma 90.000000
_cell_volume 8959.584113
_symmetry_space_group_name_H-M "I 4/M C M"
_symmetry_group_IT_number 140
_symmetry_cell_setting 'tetragonal'
loop_
_space_group_symop_operation_xyz
x,y,z
-y,x,z
-x,-y,z
y,-x,z
x,-y,1/2-z
-x,y,1/2-z
y,x,1/2-z
-y,-x,1/2-z
-x,-y,-z
y,-x,-z
x,y,-z
-y,x,-z
-x,y,1/2+z
x,-y,1/2+z
-y,-x,1/2+z
y,x,1/2+z
1/2+x,1/2+y,1/2+z
1/2-y,1/2+x,1/2+z
1/2-x,1/2-y,1/2+z
1/2+y,1/2-x,1/2+z
1/2+x,1/2-y,-z
1/2-x,1/2+y,-z
1/2+y,1/2+x,-z
1/2-y,1/2-x,-z
1/2-x,1/2-y,1/2-z
1/2+y,1/2-x,1/2-z
1/2+x,1/2+y,1/2-z
1/2-y,1/2+x,1/2-z
1/2-x,1/2+y,z
1/2+x,1/2-y,z
1/2-y,1/2-x,z
1/2+y,1/2+x,z
loop_
_atom_site_type_symbol
_atom_site_label
_atom_site_fract_x
_atom_site_fract_y
_atom_site_fract_z
Si Si1 0.830508 0.456793 0.203274
Si Si2 0.662593 0.294168 0.107813
Si Si3 0.199110 0.174273 0.203217
Si Si4 0.567523 0.067523 0.448892
Si Si5 0.103989 0.075099 0.947589
Si Si6 0.832020 0.463066 0.389853
O O1 0.822887 0.500000 0.250000
O O2 0.913974 0.413974 0.201563
O O3 0.765720 0.390047 0.199493
O O4 0.820576 0.509056 0.160153
O O5 0.739933 0.239933 0.105369
O O6 0.651625 0.321649 0.158325
O O7 0.663812 0.370427 0.077926
O O8 0.589452 0.240155 0.094853
O O9 0.159063 0.159063 0.250000
O O10 0.241007 0.258994 0.205909
O O11 0.584849 0.084849 0.500000
O O12 0.532122 0.140682 0.422142
O O13 0.500000 0.000000 0.449174
O O14 0.016308 0.104376 0.936714
O O15 0.114316 0.082129 0.000000
O O16 0.904104 0.404104 0.388570
#
# Coordination Sequence:
#
# PCOD9572265 Si02
#       6
#    32  32  32  16  32  32
#     4  11  21  32  53  81 114 155 196 242 295 349
#     4  10  21  36  61  89 118 158 197 243 296 355
#     4   9  19  36  52  74 111 152 194 237 288 348
#     4   9  18  34  54  76 113 158 192 234 291 351
#     4   9  20  40  64  88 116 152 196 250 306 353
#     4  10  20  34  52  81 118 150 193 238 286 355
#
# _framework density 19.64377
#
# number of rings (size 3 to 8) (size 9 to 14) (size 15 to 20)
#    0.000    2.273    0.909    2.182    2.545    4.909 
#    0.000    1.818    0.000    0.000    0.000    1.273 
#    0.000    0.000    0.000    0.000    0.000    0.000 
#
# Total GULP energy -490880.230995 kJ/mol
# GULP energy per Si atom -5578.184443 kJ/mol
# Density = 1.959906 g / cm^3
# Si number density = 19.643770 Si / 1000 Ang^3
#
#
#
# Elastic Constant Matrix: (Units=GPa)
#
#
# Indices 1 2 3 4 5 6 
#
# 1 37.9916 8.6090 19.4339 0.0000 0.0000 0.0000
# 2 8.6090 37.9916 19.4339 0.0000 0.0000 0.0000
# 3 19.4339 19.4339 79.9004 0.0000 0.0000 0.0000
# 4 0.0000 0.0000 0.0000 20.5638 0.0000 0.0000
# 5 0.0000 0.0000 0.0000 0.0000 20.5638 0.0000
# 6 0.0000 0.0000 0.0000 0.0000 0.0000 3.5168
#
#
#
# Elastic Compliance Matrix: (Units=1/GPa)
#
#
# Indices 1 2 3 4 5 6 
#
# 1 0.030477 -0.003557 -0.006548 0.000000 0.000000 0.000000
# 2 -0.003557 0.030477 -0.006548 0.000000 0.000000 0.000000
# 3 -0.006548 -0.006548 0.015701 0.000000 0.000000 0.000000
# 4 0.000000 0.000000 0.000000 0.048629 0.000000 0.000000
# 5 0.000000 0.000000 0.000000 0.000000 0.048629 0.000000
# 6 0.000000 0.000000 0.000000 0.000000 0.000000 0.284346
#
#
# Mechanical properties :
#
#
# Convention : Reuss Voigt Hill
#
# Bulk Modulus (GPa) = 23.06793 27.87078 25.46935
# Shear Modulus (GPa) = 9.88116 16.15601 13.01858
#
# Velocity S-wave (km/s) = 2.24524 2.87095 2.57715
# Velocity P-wave (km/s) = 4.30001 5.02083 4.67433
#
# Compressibility (1/GPa) = 0.04335023
#
# Stress axis : x y z
#
# Youngs Moduli (GPa) = 32.81168 32.81168 63.69134
#
# Poissons Ratio (x) = 0.11671 0.41703
# Poissons Ratio (y) = 0.11671 0.41703
# Poissons Ratio (z) = 0.21484 0.21484
#
# Static dielectric constant tensor:
#      x y z
#    x 1.695530 0.000000 0.000000 
#    y 0.000000 1.695530 0.000000 
#    z 0.000000 0.000000 1.901750 
# 
# From -- ./inp_files/10675.got.cif
#   From: 2010.05.17/outbox.cif.g08.bks.cpg/sg140_6_cif.got.tgz:10675.got - 2010.06.21 00:45:31.
