data_PCOD9572619
_publ_section_title
;
Structure prediction by ZEFSAII (Michael W. Deem and Ramdas Pophale) SiO2 
 PCOD9572619
Probable space group: I 4/M C M
;
_chemical_formula_sum "Si O2"
_cell_formula_units_Z 168
_cell_length_a 19.426151
_cell_length_b 19.426151
_cell_length_c 25.948130
_cell_angle_alpha 90.000000
_cell_angle_beta 90.000000
_cell_angle_gamma 90.000000
_cell_volume 9792.184451
_symmetry_space_group_name_H-M "I 4/M C M"
_symmetry_group_IT_number 140
_symmetry_cell_setting 'tetragonal'
loop_
_space_group_symop_operation_xyz
x,y,z
-y,x,z
-x,-y,z
y,-x,z
x,-y,1/2-z
-x,y,1/2-z
y,x,1/2-z
-y,-x,1/2-z
-x,-y,-z
y,-x,-z
x,y,-z
-y,x,-z
-x,y,1/2+z
x,-y,1/2+z
-y,-x,1/2+z
y,x,1/2+z
1/2+x,1/2+y,1/2+z
1/2-y,1/2+x,1/2+z
1/2-x,1/2-y,1/2+z
1/2+y,1/2-x,1/2+z
1/2+x,1/2-y,-z
1/2-x,1/2+y,-z
1/2+y,1/2+x,-z
1/2-y,1/2-x,-z
1/2-x,1/2-y,1/2-z
1/2+y,1/2-x,1/2-z
1/2+x,1/2+y,1/2-z
1/2-y,1/2+x,1/2-z
1/2-x,1/2+y,z
1/2+x,1/2-y,z
1/2-y,1/2-x,z
1/2+y,1/2+x,z
loop_
_atom_site_type_symbol
_atom_site_label
_atom_site_fract_x
_atom_site_fract_y
_atom_site_fract_z
Si Si1 0.397135 0.102866 0.238223
Si Si2 0.191357 0.799683 0.188542
Si Si3 0.000000 0.500000 0.672541
Si Si4 0.536537 0.392860 0.937940
Si Si5 0.927907 0.244204 0.376520
Si Si6 0.452860 0.252007 0.797043
Si Si7 0.105045 0.605045 0.634563
O O1 0.450493 0.049508 0.208957
O O2 0.421211 0.178431 0.220365
O O3 0.390713 0.109288 0.301120
O O4 0.199562 0.800439 0.250000
O O5 0.232136 0.732136 0.169184
O O6 0.223840 0.865203 0.161343
O O7 0.109987 0.797345 0.183369
O O8 0.953176 0.453176 0.635346
O O9 0.584898 0.458240 0.923072
O O10 0.560483 0.320174 0.914441
O O11 0.538066 0.388599 0.000000
O O12 0.913335 0.322698 0.392073
O O13 0.996166 0.254444 0.343755
O O14 0.500000 0.278952 0.750000
#
# Coordination Sequence:
#
# PCOD9572619 Si02
#       7
#    16  32   8  32  32  32  16
#     4  12  19  33  48  72 110 160 216 240 260 312
#     4  11  21  33  49  71 112 159 195 225 273 342
#     4  12  21  32  52  78 113 166 217 262 256 310
#     4   9  20  43  72  92 107 137 187 248 308 364
#     4  12  22  35  55  88 115 151 195 243 290 347
#     4  12  21  32  50  75 111 155 201 238 274 319
#     4  12  21  31  51  81 121 161 202 240 286 325
#
# _framework density 17.15654
#
# number of rings (size 3 to 8) (size 9 to 14) (size 15 to 20)
#    0.000    0.762    7.619    2.571    0.000    0.000 
#    0.000    0.476    0.000    0.000    0.000    3.333 
#    0.000    0.000    0.000    0.000    0.000    0.000 
#
# Total GULP energy -467833.396112 kJ/mol
# GULP energy per Si atom -5569.445192 kJ/mol
# Density = 1.711749 g / cm^3
# Si number density = 17.156540 Si / 1000 Ang^3
#
#
#
# Elastic Constant Matrix: (Units=GPa)
#
#
# Indices 1 2 3 4 5 6 
#
# 1 127.0117 16.6062 18.3269 0.0000 0.0000 0.0000
# 2 16.6062 127.0107 18.3275 0.0000 0.0000 0.0000
# 3 18.3269 18.3275 29.1633 0.0000 0.0000 0.0000
# 4 0.0000 0.0000 0.0000 43.3453 0.0000 0.0000
# 5 0.0000 0.0000 0.0000 0.0000 43.3436 0.0000
# 6 0.0000 0.0000 0.0000 0.0000 0.0000 19.3682
#
#
#
# Elastic Compliance Matrix: (Units=1/GPa)
#
#
# Indices 1 2 3 4 5 6 
#
# 1 0.008675 -0.000382 -0.005212 0.000000 0.000000 0.000000
# 2 -0.000382 0.008675 -0.005212 0.000000 0.000000 0.000000
# 3 -0.005212 -0.005212 0.040840 0.000000 0.000000 0.000000
# 4 0.000000 0.000000 0.000000 0.023071 0.000000 0.000000
# 5 0.000000 0.000000 0.000000 0.000000 0.023071 0.000000
# 6 0.000000 0.000000 0.000000 0.000000 0.000000 0.051631
#
#
# Mechanical properties :
#
#
# Convention : Reuss Voigt Hill
#
# Bulk Modulus (GPa) = 27.33767 43.30077 35.31922
# Shear Modulus (GPa) = 26.34794 36.53974 31.44384
#
# Velocity S-wave (km/s) = 3.92310 4.61997 4.28572
# Velocity P-wave (km/s) = 6.04068 7.33159 6.71722
#
# Compressibility (1/GPa) = 0.03657957
#
# Stress axis : x y z
#
# Youngs Moduli (GPa) = 115.27038 115.26865 24.48578
#
# Poissons Ratio (x) = 0.04406 0.12761
# Poissons Ratio (y) = 0.04406 0.12761
# Poissons Ratio (z) = 0.60073 0.60076
#
# Static dielectric constant tensor:
#      x y z
#    x 1.577790 0.000000 0.000000 
#    y 0.000000 1.577780 0.000000 
#    z 0.000000 0.000000 1.564580 
# 
# From -- ./inp_files/9720.got.cif
#   From: 2010.05.17/outbox.cif.g08.bks.cpg/sg140_5_cif.got.tgz:9720.got - 2010.06.21 00:45:31.
