data_PCOD9572712
_publ_section_title
;
Structure prediction by ZEFSAII (Michael W. Deem and Ramdas Pophale) SiO2 
 PCOD9572712
Probable space group: I 4/M C M
;
_chemical_formula_sum "Si O2"
_cell_formula_units_Z 96
_cell_length_a 18.000000
_cell_length_b 18.000000
_cell_length_c 30.000000
_cell_angle_alpha 90.000000
_cell_angle_beta 90.000000
_cell_angle_gamma 90.000000
_cell_volume 9720.000000
_symmetry_space_group_name_H-M "I 4/M C M"
_symmetry_group_IT_number 140
_symmetry_cell_setting 'tetragonal'
loop_
_space_group_symop_operation_xyz
x,y,z
-y,x,z
-x,-y,z
y,-x,z
x,-y,1/2-z
-x,y,1/2-z
y,x,1/2-z
-y,-x,1/2-z
-x,-y,-z
y,-x,-z
x,y,-z
-y,x,-z
-x,y,1/2+z
x,-y,1/2+z
-y,-x,1/2+z
y,x,1/2+z
1/2+x,1/2+y,1/2+z
1/2-y,1/2+x,1/2+z
1/2-x,1/2-y,1/2+z
1/2+y,1/2-x,1/2+z
1/2+x,1/2-y,-z
1/2-x,1/2+y,-z
1/2+y,1/2+x,-z
1/2-y,1/2-x,-z
1/2-x,1/2-y,1/2-z
1/2+y,1/2-x,1/2-z
1/2+x,1/2+y,1/2-z
1/2-y,1/2+x,1/2-z
1/2-x,1/2+y,z
1/2+x,1/2-y,z
1/2-y,1/2-x,z
1/2+y,1/2+x,z
loop_
_atom_site_type_symbol
_atom_site_label
_atom_site_fract_x
_atom_site_fract_y
_atom_site_fract_z
Si Si1 0.383189 0.318259 0.295574
Si Si2 0.829957 0.670044 0.052233
Si Si3 0.880188 0.971265 0.622606
Si Si4 0.952959 0.672045 0.804655
Si Si5 0.284833 0.016910 0.408597
Si Si6 0.633143 0.866858 0.100836
Si Si7 0.063430 0.563430 0.813780
Si Si8 0.248706 0.748706 0.640536
O O1 0.358010 0.358010 0.250000
O O2 0.444199 0.359068 0.326974
O O3 0.424426 0.243974 0.280760
O O4 0.314656 0.290009 0.328462
O O5 0.917339 0.684690 0.060527
O O6 0.787640 0.712361 0.094757
O O7 0.810412 0.689588 0.000000
O O8 0.804348 0.972367 0.594315
O O9 0.947263 0.914141 0.614179
O O10 0.889343 0.610658 0.803108
O O11 0.964814 0.691236 0.857359
O O12 0.030395 0.635397 0.791193
O O13 0.316749 0.934197 0.420563
O O14 0.586354 0.913647 0.137026
O O15 0.690608 0.809393 0.124203
O O16 0.000000 0.500000 0.813911
#
# Coordination Sequence:
#
# PCOD9572712 Si02
#       8
#    32  16  32  32  32  16  16  16
#     4  11  21  34  60  91 128 175 228 281 337 391
#     4  12  24  42  69  98 135 173 209 274 351 415
#     4  10  21  38  62  90 131 180 231 279 329 392
#     4   9  14  29  52  82 115 156 216 262 320 385
#     4  10  19  38  61  96 125 170 217 266 333 408
#     4  10  22  33  69  93 124 171 222 269 317 397
#     4   8  16  28  53  88 111 160 218 265 323 390
#     4  12  21  42  59  96 133 174 229 273 338 405
#
# _framework density 9.8765429999999999
#
# number of rings (size 3 to 8) (size 9 to 14) (size 15 to 20)
#    0.000    1.833    5.000    1.250    1.167    0.667 
#    0.000    2.500    0.000    0.000    2.167    1.167 
#    0.000    0.000    0.000    0.000    0.000    0.000 
#
# Total GULP energy -534596.433624 kJ/mol
# GULP energy per Si atom -5568.712850 kJ/mol
# Density = 0.985406 g / cm^3
# Si number density = 9.876543 Si / 1000 Ang^3
#
#
#
# Elastic Constant Matrix: (Units=GPa)
#
#
# Indices 1 2 3 4 5 6 
#
# 1 118.9288 70.4280 17.5204 0.0000 0.0000 0.0000
# 2 70.4280 118.9284 17.5202 0.0000 0.0000 0.0000
# 3 17.5204 17.5202 61.8564 0.0000 0.0000 0.0000
# 4 0.0000 0.0000 0.0000 15.8050 0.0000 0.0000
# 5 0.0000 0.0000 0.0000 0.0000 15.8051 0.0000
# 6 0.0000 0.0000 0.0000 0.0000 0.0000 23.8418
#
#
#
# Elastic Compliance Matrix: (Units=1/GPa)
#
#
# Indices 1 2 3 4 5 6 
#
# 1 0.013096 -0.007523 -0.001579 0.000000 0.000000 0.000000
# 2 -0.007523 0.013096 -0.001579 0.000000 0.000000 0.000000
# 3 -0.001579 -0.001579 0.017061 0.000000 0.000000 0.000000
# 4 0.000000 0.000000 0.000000 0.063271 0.000000 0.000000
# 5 0.000000 0.000000 0.000000 0.000000 0.063271 0.000000
# 6 0.000000 0.000000 0.000000 0.000000 0.000000 0.041943
#
#
# Mechanical properties :
#
#
# Convention : Reuss Voigt Hill
#
# Bulk Modulus (GPa) = 45.67708 56.73897 51.20802
# Shear Modulus (GPa) = 20.79918 24.04005 22.41961
#
# Velocity S-wave (km/s) = 3.24845 3.49238 3.37262
# Velocity P-wave (km/s) = 6.10280 6.71183 6.41455
#
# Compressibility (1/GPa) = 0.02189282
#
# Stress axis : x y z
#
# Youngs Moduli (GPa) = 76.36084 76.36069 58.61425
#
# Poissons Ratio (x) = 0.57443 0.09253
# Poissons Ratio (y) = 0.57443 0.09252
# Poissons Ratio (z) = 0.12054 0.12054
#
# Static dielectric constant tensor:
#      x y z
#    x 1.753310 0.000000 0.000000 
#    y 0.000000 1.753310 0.000000 
#    z 0.000000 0.000000 1.719210 
# 
# From -- ./inp_files/11668.got.cif
#   From: 2010.05.17/outbox.ucp.g08.bks.cvg/sg140_6_cif.got.tgz:11668.got - 2010.06.11 11:42:50.
