data_PCOD9572772
_publ_section_title
;
Structure prediction by ZEFSAII (Michael W. Deem and Ramdas Pophale) SiO2 
 PCOD9572772
Probable space group: I 41/A M D
;
_chemical_formula_sum "Si O2"
_cell_formula_units_Z 160
_cell_length_a 20.744692
_cell_length_b 20.744692
_cell_length_c 16.475138
_cell_angle_alpha 90.000000
_cell_angle_beta 90.000000
_cell_angle_gamma 90.000000
_cell_volume 7089.947893
_symmetry_space_group_name_H-M "I 41/A M D"
_symmetry_group_IT_number 141
_space_group.IT_coordinate_system_code '2'
_symmetry_cell_setting 'tetragonal'
loop_
_space_group_symop_operation_xyz
x,y,z
1/4-y,3/4+x,1/4+z
-x,1/2-y,z
1/4+y,1/4-x,3/4+z
x,-y,-z
-x,1/2+y,-z
1/4+y,3/4+x,1/4-z
1/4-y,1/4-x,3/4-z
-x,-y,-z
3/4+y,1/4-x,3/4-z
x,1/2+y,-z
3/4-y,3/4+x,1/4-z
-x,y,z
x,1/2-y,z
3/4-y,1/4-x,3/4+z
3/4+y,3/4+x,1/4+z
1/2+x,1/2+y,1/2+z
3/4-y,1/4+x,3/4+z
1/2-x,-y,1/2+z
3/4+y,3/4-x,1/4+z
1/2+x,1/2-y,1/2-z
1/2-x,y,1/2-z
3/4+y,1/4+x,3/4-z
3/4-y,3/4-x,1/4-z
1/2-x,1/2-y,1/2-z
1/4+y,3/4-x,1/4-z
1/2+x,y,1/2-z
1/4-y,1/4+x,3/4-z
1/2-x,1/2+y,1/2+z
1/2+x,-y,1/2+z
1/4-y,3/4-x,1/4+z
1/4+y,1/4+x,3/4+z
loop_
_atom_site_type_symbol
_atom_site_label
_atom_site_fract_x
_atom_site_fract_y
_atom_site_fract_z
Si Si1 0.243420 0.676909 0.986818
Si Si2 0.129600 0.866676 0.431281
Si Si3 0.858272 0.076339 0.997709
Si Si4 0.067246 0.250000 0.627352
Si Si5 0.500000 0.076478 0.515674
Si Si6 0.576843 0.577089 0.916731
O O1 0.216496 0.750000 0.989309
O O2 0.199068 0.623067 0.028944
O O3 0.267321 0.661637 0.894792
O O4 0.310249 0.673266 0.034484
O O5 0.149524 0.886482 0.341149
O O6 0.072633 0.814785 0.424168
O O7 0.109563 0.921753 0.494718
O O8 0.927061 0.087785 0.952797
O O9 0.844095 0.000000 0.000000
O O10 0.128061 0.250000 0.686804
O O11 0.000000 0.250000 0.674389
O O12 0.500000 0.000000 0.500000
O O13 0.610927 0.639074 0.875000
O O14 0.500000 0.583011 0.923680
#
# Coordination Sequence:
#
# PCOD9572772 Si02
#       6
#    32  32  32  16  16  32
#     4  10  21  40  60  86 130 169 205 253 329 394
#     4  10  20  38  57  84 130 164 209 263 316 377
#     4  10  22  40  64  90 114 159 215 267 327 391
#     4  10  18  30  60  94 120 161 215 258 301 384
#     4   8  18  38  60  86 122 148 193 274 339 378
#     4   9  19  34  54  86 129 175 209 247 302 376
#
# _framework density 22.567162
#
# number of rings (size 3 to 8) (size 9 to 14) (size 15 to 20)
#    0.000    2.400    1.000    0.600    1.400    5.800 
#   10.800    2.000    0.000    0.000    0.000    0.000 
#    0.000    0.000    0.000    0.000    0.000    0.000 
#
# Total GULP energy -445769.864334 kJ/mol
# GULP energy per Si atom -5572.123304 kJ/mol
# Density = 2.251580 g / cm^3
# Si number density = 22.567162 Si / 1000 Ang^3
#
#
#
# Elastic Constant Matrix: (Units=GPa)
#
#
# Indices 1 2 3 4 5 6 
#
# 1 119.5492 65.8952 4.4027 0.0000 0.0000 0.0000
# 2 65.8952 119.5473 4.4027 0.0000 0.0000 0.0000
# 3 4.4027 4.4027 56.4167 0.0000 0.0000 0.0000
# 4 0.0000 0.0000 0.0000 19.6405 0.0000 0.0000
# 5 0.0000 0.0000 0.0000 0.0000 19.6400 0.0000
# 6 0.0000 0.0000 0.0000 0.0000 0.0000 30.2426
#
#
#
# Elastic Compliance Matrix: (Units=1/GPa)
#
#
# Indices 1 2 3 4 5 6 
#
# 1 0.012025 -0.006613 -0.000422 0.000000 0.000000 0.000000
# 2 -0.006613 0.012025 -0.000422 0.000000 0.000000 0.000000
# 3 -0.000422 -0.000422 0.017791 0.000000 0.000000 0.000000
# 4 0.000000 0.000000 0.000000 0.050915 0.000000 0.000000
# 5 0.000000 0.000000 0.000000 0.000000 0.050917 0.000000
# 6 0.000000 0.000000 0.000000 0.000000 0.000000 0.033066
#
#
# Mechanical properties :
#
#
# Convention : Reuss Voigt Hill
#
# Bulk Modulus (GPa) = 37.13785 49.43492 43.28638
# Shear Modulus (GPa) = 24.92143 28.62546 26.77345
#
# Velocity S-wave (km/s) = 3.32674 3.56540 3.44814
# Velocity P-wave (km/s) = 5.59004 6.23720 5.92247
#
# Compressibility (1/GPa) = 0.02692671
#
# Stress axis : x y z
#
# Youngs Moduli (GPa) = 83.15798 83.15665 56.20764
#
# Poissons Ratio (x) = 0.54990 0.02374
# Poissons Ratio (y) = 0.54991 0.02374
# Poissons Ratio (z) = 0.03512 0.03512
#
# Static dielectric constant tensor:
#      x y z
#    x 1.974320 0.000000 0.000000 
#    y 0.000000 1.974320 0.000000 
#    z 0.000000 0.000000 1.933120 
# 
# From -- ./inp_files/8637.got.cif
#   From: 2010.05.17/outbox.cif.g08.bks.cpg/sg141_5_cif.got.tgz:8637.got - 2010.05.20 13:30:51.
