data_PCOD9572539
_publ_section_title
;
Structure prediction by ZEFSAII (Michael W. Deem and Ramdas Pophale) SiO2 
 PCOD9572539
Probable space group: I 4/M C M
;
_chemical_formula_sum "Si O2"
_cell_formula_units_Z 160
_cell_length_a 20.725684
_cell_length_b 20.725684
_cell_length_c 18.741627
_cell_angle_alpha 90.000000
_cell_angle_beta 90.000000
_cell_angle_gamma 90.000000
_cell_volume 8050.540418
_symmetry_space_group_name_H-M "I 4/M C M"
_symmetry_group_IT_number 140
_symmetry_cell_setting 'tetragonal'
loop_
_space_group_symop_operation_xyz
x,y,z
-y,x,z
-x,-y,z
y,-x,z
x,-y,1/2-z
-x,y,1/2-z
y,x,1/2-z
-y,-x,1/2-z
-x,-y,-z
y,-x,-z
x,y,-z
-y,x,-z
-x,y,1/2+z
x,-y,1/2+z
-y,-x,1/2+z
y,x,1/2+z
1/2+x,1/2+y,1/2+z
1/2-y,1/2+x,1/2+z
1/2-x,1/2-y,1/2+z
1/2+y,1/2-x,1/2+z
1/2+x,1/2-y,-z
1/2-x,1/2+y,-z
1/2+y,1/2+x,-z
1/2-y,1/2-x,-z
1/2-x,1/2-y,1/2-z
1/2+y,1/2-x,1/2-z
1/2+x,1/2+y,1/2-z
1/2-y,1/2+x,1/2-z
1/2-x,1/2+y,z
1/2+x,1/2-y,z
1/2-y,1/2-x,z
1/2+y,1/2+x,z
loop_
_atom_site_type_symbol
_atom_site_label
_atom_site_fract_x
_atom_site_fract_y
_atom_site_fract_z
Si Si1 0.278572 0.561261 0.582106
Si Si2 0.651827 0.259255 0.786333
Si Si3 0.564327 0.162054 0.290372
Si Si4 0.499068 0.608809 0.834381
Si Si5 0.128488 0.480515 0.080374
O O1 0.297541 0.575454 0.500000
O O2 0.278677 0.616882 0.641307
O O3 0.328009 0.508490 0.615876
O O4 0.202060 0.545531 0.580160
O O5 0.677159 0.322842 0.750000
O O6 0.710949 0.210949 0.803392
O O7 0.610014 0.222071 0.726140
O O8 0.500000 0.178365 0.250000
O O9 0.602097 0.102097 0.256012
O O10 0.540166 0.137127 0.366362
O O11 0.436851 0.561651 0.846916
O O12 0.500000 0.626709 0.750000
O O13 0.074929 0.425072 0.099272
O O14 0.112511 0.500524 0.000000
#
# Coordination Sequence:
#
# PCOD9572539 Si02
#       5
#    32  32  32  32  32
#     4  11  23  37  61  91 120 162 208 255 311 377
#     4  10  23  42  63  89 122 163 210 262 317 376
#     4  11  22  38  62  91 121 158 207 260 310 372
#     4   9  21  40  61  88 122 162 206 257 321 386
#     4  10  22  40  61  89 128 168 205 253 317 386
#
# _framework density 19.874442999999999
#
# number of rings (size 3 to 8) (size 9 to 14) (size 15 to 20)
#    0.000    1.800    2.000    1.800    5.600    3.800 
#    0.000    5.000    0.000    3.600    0.000    0.000 
#    0.000    0.000    0.000    0.000    0.000    0.000 
#
# Total GULP energy -445493.791868 kJ/mol
# GULP energy per Si atom -5568.672398 kJ/mol
# Density = 1.982921 g / cm^3
# Si number density = 19.874443 Si / 1000 Ang^3
#
#
#
# Elastic Constant Matrix: (Units=GPa)
#
#
# Indices 1 2 3 4 5 6 
#
# 1 69.5805 31.1014 47.8347 0.0000 0.0000 0.0000
# 2 31.1014 69.5780 47.8339 0.0000 0.0000 0.0000
# 3 47.8347 47.8339 156.1129 0.0000 0.0000 0.0000
# 4 0.0000 0.0000 0.0000 20.6504 0.0000 0.0000
# 5 0.0000 0.0000 0.0000 0.0000 20.6481 0.0000
# 6 0.0000 0.0000 0.0000 0.0000 0.0000 15.9616
#
#
#
# Elastic Compliance Matrix: (Units=1/GPa)
#
#
# Indices 1 2 3 4 5 6 
#
# 1 0.020000 -0.005988 -0.004293 0.000000 0.000000 0.000000
# 2 -0.005988 0.020001 -0.004293 0.000000 0.000000 0.000000
# 3 -0.004293 -0.004293 0.009037 0.000000 0.000000 0.000000
# 4 0.000000 0.000000 0.000000 0.048425 0.000000 0.000000
# 5 0.000000 0.000000 0.000000 0.000000 0.048431 0.000000
# 6 0.000000 0.000000 0.000000 0.000000 0.000000 0.062651
#
#
# Mechanical properties :
#
#
# Convention : Reuss Voigt Hill
#
# Bulk Modulus (GPa) = 50.28367 60.97906 55.63136
# Shear Modulus (GPa) = 20.46464 22.68542 21.57503
#
# Velocity S-wave (km/s) = 3.21237 3.38218 3.29837
# Velocity P-wave (km/s) = 6.25417 6.78240 6.52364
#
# Compressibility (1/GPa) = 0.01988717
#
# Stress axis : x y z
#
# Youngs Moduli (GPa) = 49.99961 49.99774 110.65987
#
# Poissons Ratio (x) = 0.29941 0.47510
# Poissons Ratio (y) = 0.29942 0.47511
# Poissons Ratio (z) = 0.21467 0.21466
#
# Static dielectric constant tensor:
#      x y z
#    x 1.751170 0.000000 0.000000 
#    y 0.000000 1.751170 0.000000 
#    z 0.000000 0.000000 1.856100 
# 
# From -- ./inp_files/6824.got.cif
#   From: 2010.05.17/outbox.cif.g08.bks.cpg/sg140_4_cif.got.tgz:6824.got - 2010.06.21 00:45:31.
