data_PCOD9572100
_publ_section_title
;
Structure prediction by ZEFSAII (Michael W. Deem and Ramdas Pophale) SiO2 
 PCOD9572100
Probable space group: I 4/M C M
;
_chemical_formula_sum "Si O2"
_cell_formula_units_Z 144
_cell_length_a 19.601804
_cell_length_b 19.601804
_cell_length_c 23.173650
_cell_angle_alpha 90.000000
_cell_angle_beta 90.000000
_cell_angle_gamma 90.000000
_cell_volume 8904.028226
_symmetry_space_group_name_H-M "I 4/M C M"
_symmetry_group_IT_number 140
_symmetry_cell_setting 'tetragonal'
loop_
_space_group_symop_operation_xyz
x,y,z
-y,x,z
-x,-y,z
y,-x,z
x,-y,1/2-z
-x,y,1/2-z
y,x,1/2-z
-y,-x,1/2-z
-x,-y,-z
y,-x,-z
x,y,-z
-y,x,-z
-x,y,1/2+z
x,-y,1/2+z
-y,-x,1/2+z
y,x,1/2+z
1/2+x,1/2+y,1/2+z
1/2-y,1/2+x,1/2+z
1/2-x,1/2-y,1/2+z
1/2+y,1/2-x,1/2+z
1/2+x,1/2-y,-z
1/2-x,1/2+y,-z
1/2+y,1/2+x,-z
1/2-y,1/2-x,-z
1/2-x,1/2-y,1/2-z
1/2+y,1/2-x,1/2-z
1/2+x,1/2+y,1/2-z
1/2-y,1/2+x,1/2-z
1/2-x,1/2+y,z
1/2+x,1/2-y,z
1/2-y,1/2-x,z
1/2+y,1/2+x,z
loop_
_atom_site_type_symbol
_atom_site_label
_atom_site_fract_x
_atom_site_fract_y
_atom_site_fract_z
Si Si1 0.233056 0.266944 0.930161
Si Si2 0.620896 0.879105 0.430407
Si Si3 0.103720 0.965970 0.429879
Si Si4 0.500000 0.113527 0.250000
Si Si5 0.761667 0.889940 0.069820
Si Si6 0.638791 0.972225 0.876313
O O1 0.177288 0.322712 0.910895
O O2 0.220880 0.187967 0.913543
O O3 0.230613 0.269388 0.000000
O O4 0.620094 0.879907 0.500000
O O5 0.545277 0.861162 0.407567
O O6 0.103826 0.965938 0.500000
O O7 0.176333 0.938408 0.411771
O O8 0.042082 0.916369 0.411744
O O9 0.563758 0.063758 0.236650
O O10 0.516556 0.153079 0.308440
O O11 0.693295 0.920904 0.096183
O O12 0.755321 0.890856 0.000000
O O13 0.564972 0.935029 0.880182
#
# Coordination Sequence:
#
# PCOD9572100 Si02
#       6
#    16  16  32  16  32  32
#     4   9  20  35  45  68 111 144 166 196 252 323
#     4  11  23  34  52  82 112 137 165 211 264 312
#     4   8  15  27  44  68  96 128 170 211 243 293
#     4   9  18  36  56  72  98 133 182 220 264 301
#     4  10  19  31  49  73 105 142 170 202 259 317
#     4  11  21  35  55  78 102 137 176 219 255 311
#
# _framework density 16.172456
#
# number of rings (size 3 to 8) (size 9 to 14) (size 15 to 20)
#    0.000    2.333    2.222    1.667    3.111    1.778 
#    0.000    0.000    0.000    2.667    0.000    0.000 
#    0.000    1.778    0.000    0.000    0.000    0.000 
#
# Total GULP energy -401076.462239 kJ/mol
# GULP energy per Si atom -5570.506420 kJ/mol
# Density = 1.613565 g / cm^3
# Si number density = 16.172456 Si / 1000 Ang^3
#
#
#
# Elastic Constant Matrix: (Units=GPa)
#
#
# Indices 1 2 3 4 5 6 
#
# 1 87.4520 58.0671 31.2938 0.0000 0.0000 0.0000
# 2 58.0671 87.4519 31.2938 0.0000 0.0000 0.0000
# 3 31.2938 31.2938 52.7469 0.0000 0.0000 0.0000
# 4 0.0000 0.0000 0.0000 7.7837 0.0000 0.0000
# 5 0.0000 0.0000 0.0000 0.0000 7.7837 0.0000
# 6 0.0000 0.0000 0.0000 0.0000 0.0000 28.2090
#
#
#
# Elastic Compliance Matrix: (Units=1/GPa)
#
#
# Indices 1 2 3 4 5 6 
#
# 1 0.021629 -0.012402 -0.005474 0.000000 0.000000 0.000000
# 2 -0.012402 0.021629 -0.005474 0.000000 0.000000 0.000000
# 3 -0.005474 -0.005474 0.025453 0.000000 0.000000 0.000000
# 4 0.000000 0.000000 0.000000 0.128474 0.000000 0.000000
# 5 0.000000 0.000000 0.000000 0.000000 0.128473 0.000000
# 6 0.000000 0.000000 0.000000 0.000000 0.000000 0.035450
#
#
# Mechanical properties :
#
#
# Convention : Reuss Voigt Hill
#
# Bulk Modulus (GPa) = 45.43216 52.10669 48.76943
# Shear Modulus (GPa) = 12.04400 15.88835 13.96617
#
# Velocity S-wave (km/s) = 2.73192 3.13778 2.94186
# Velocity P-wave (km/s) = 6.17288 6.73921 6.46225
#
# Compressibility (1/GPa) = 0.02201084
#
# Stress axis : x y z
#
# Youngs Moduli (GPa) = 46.23491 46.23482 39.28750
#
# Poissons Ratio (x) = 0.57343 0.21505
# Poissons Ratio (y) = 0.57343 0.21505
# Poissons Ratio (z) = 0.25308 0.25308
#
# Static dielectric constant tensor:
#      x y z
#    x 1.550070 0.000000 0.000000 
#    y 0.000000 1.550070 0.000000 
#    z 0.000000 0.000000 1.522040 
# 
# From -- ./inp_files/8399.got.cif
#   From: 2010.05.17/outbox.cif.g08.bks.cpg/sg140_5_cif.got.tgz:8399.got - 2010.06.21 00:45:31.
