data_PCOD9572216
_publ_section_title
;
Structure prediction by ZEFSAII (Michael W. Deem and Ramdas Pophale) SiO2 
 PCOD9572216
Probable space group: I 4/M C M
;
_chemical_formula_sum "Si O2"
_cell_formula_units_Z 160
_cell_length_a 20.938875
_cell_length_b 20.938875
_cell_length_c 17.444491
_cell_angle_alpha 90.000000
_cell_angle_beta 90.000000
_cell_angle_gamma 90.000000
_cell_volume 7648.301339
_symmetry_space_group_name_H-M "I 4/M C M"
_symmetry_group_IT_number 140
_symmetry_cell_setting 'tetragonal'
loop_
_space_group_symop_operation_xyz
x,y,z
-y,x,z
-x,-y,z
y,-x,z
x,-y,1/2-z
-x,y,1/2-z
y,x,1/2-z
-y,-x,1/2-z
-x,-y,-z
y,-x,-z
x,y,-z
-y,x,-z
-x,y,1/2+z
x,-y,1/2+z
-y,-x,1/2+z
y,x,1/2+z
1/2+x,1/2+y,1/2+z
1/2-y,1/2+x,1/2+z
1/2-x,1/2-y,1/2+z
1/2+y,1/2-x,1/2+z
1/2+x,1/2-y,-z
1/2-x,1/2+y,-z
1/2+y,1/2+x,-z
1/2-y,1/2-x,-z
1/2-x,1/2-y,1/2-z
1/2+y,1/2-x,1/2-z
1/2+x,1/2+y,1/2-z
1/2-y,1/2+x,1/2-z
1/2-x,1/2+y,z
1/2+x,1/2-y,z
1/2-y,1/2-x,z
1/2+y,1/2+x,z
loop_
_atom_site_type_symbol
_atom_site_label
_atom_site_fract_x
_atom_site_fract_y
_atom_site_fract_z
Si Si1 0.372454 0.627547 0.750000
Si Si2 0.684696 0.415965 0.500000
Si Si3 0.258445 0.856698 0.667789
Si Si4 0.966083 0.640699 0.333864
Si Si5 0.226138 0.124230 0.000000
Si Si6 0.397588 0.531913 0.632632
Si Si7 0.802717 0.492172 0.500000
O O1 0.313870 0.635553 0.806930
O O2 0.369260 0.559000 0.710730
O O3 0.649965 0.346860 0.500000
O O4 0.655696 0.452593 0.572002
O O5 0.760906 0.426661 0.500000
O O6 0.297106 0.797106 0.702369
O O7 0.299333 0.919795 0.683488
O O8 0.255851 0.849727 0.577148
O O9 0.920502 0.579499 0.349193
O O10 0.000000 0.629711 0.250000
O O11 0.000096 0.658837 0.417356
O O12 0.249338 0.049715 0.000000
O O13 0.423483 0.460719 0.624047
#
# Coordination Sequence:
#
# PCOD9572216 Si02
#       7
#    16  16  32  32  16  32  16
#     4  12  23  35  58  82 126 170 220 275 341 398
#     4  12  22  37  62  93 121 173 228 266 330 393
#     4  10  22  39  61  89 121 162 217 275 336 402
#     4  10  23  43  71 103 134 172 219 276 345 423
#     4  10  19  40  59  88 119 170 218 270 331 391
#     4  11  24  39  55  82 125 174 224 274 323 388
#     4  10  23  40  68  98 140 183 230 283 336 409
#
# _framework density 20.919677
#
# number of rings (size 3 to 8) (size 9 to 14) (size 15 to 20)
#    0.000    1.400    2.000    3.300    5.600    4.200 
#    0.000    0.500    0.000    2.400    0.000    0.000 
#    0.000    0.000    0.000    0.000    0.000    0.000 
#
# Total GULP energy -445386.099465 kJ/mol
# GULP energy per Si atom -5567.326243 kJ/mol
# Density = 2.087206 g / cm^3
# Si number density = 20.919677 Si / 1000 Ang^3
#
#
#
# Elastic Constant Matrix: (Units=GPa)
#
#
# Indices 1 2 3 4 5 6 
#
# 1 87.8430 -14.8109 28.7796 0.0000 0.0000 0.0000
# 2 -14.8109 87.8469 28.7753 0.0000 0.0000 0.0000
# 3 28.7796 28.7753 119.6145 0.0000 0.0000 0.0000
# 4 0.0000 0.0000 0.0000 42.5107 0.0000 0.0000
# 5 0.0000 0.0000 0.0000 0.0000 42.5115 0.0000
# 6 0.0000 0.0000 0.0000 0.0000 0.0000 29.3322
#
#
#
# Elastic Compliance Matrix: (Units=1/GPa)
#
#
# Indices 1 2 3 4 5 6 
#
# 1 0.013319 0.003577 -0.004065 0.000000 0.000000 0.000000
# 2 0.003577 0.013318 -0.004065 0.000000 0.000000 0.000000
# 3 -0.004065 -0.004065 0.010316 0.000000 0.000000 0.000000
# 4 0.000000 0.000000 0.000000 0.023523 0.000000 0.000000
# 5 0.000000 0.000000 0.000000 0.000000 0.023523 0.000000
# 6 0.000000 0.000000 0.000000 0.000000 0.000000 0.034092
#
#
# Mechanical properties :
#
#
# Convention : Reuss Voigt Hill
#
# Bulk Modulus (GPa) = 35.90934 42.31025 39.10979
# Shear Modulus (GPa) = 36.63562 39.70826 38.17194
#
# Velocity S-wave (km/s) = 4.18934 4.36148 4.27627
# Velocity P-wave (km/s) = 6.37207 6.75517 6.56642
#
# Compressibility (1/GPa) = 0.02784791
#
# Stress axis : x y z
#
# Youngs Moduli (GPa) = 75.08126 75.08674 96.93630
#
# Poissons Ratio (x) = -0.26860 0.39406
# Poissons Ratio (y) = -0.26858 0.39400
# Poissons Ratio (z) = 0.30521 0.30519
#
# Static dielectric constant tensor:
#      x y z
#    x 1.772180 0.000000 0.000000 
#    y 0.000000 1.772180 0.000000 
#    z 0.000000 0.000000 1.754050 
# 
# From -- ./inp_files/6960.got.cif
#   From: 2010.05.17/outbox.cif.g08.bks.cpg/sg140_4_cif.got.tgz:6960.got - 2010.06.21 00:45:31.
