data_PCOD9572994
_publ_section_title
;
Structure prediction by ZEFSAII (Michael W. Deem and Ramdas Pophale) SiO2 
 PCOD9572994
Probable space group: I 41/A M D
;
_chemical_formula_sum "Si O2"
_cell_formula_units_Z 112
_cell_length_a 13.834240
_cell_length_b 13.834240
_cell_length_c 28.486799
_cell_angle_alpha 90.000000
_cell_angle_beta 90.000000
_cell_angle_gamma 90.000000
_cell_volume 5451.980108
_symmetry_space_group_name_H-M "I 41/A M D"
_symmetry_group_IT_number 141
_space_group.IT_coordinate_system_code '2'
_symmetry_cell_setting 'tetragonal'
loop_
_space_group_symop_operation_xyz
x,y,z
1/4-y,3/4+x,1/4+z
-x,1/2-y,z
1/4+y,1/4-x,3/4+z
x,-y,-z
-x,1/2+y,-z
1/4+y,3/4+x,1/4-z
1/4-y,1/4-x,3/4-z
-x,-y,-z
3/4+y,1/4-x,3/4-z
x,1/2+y,-z
3/4-y,3/4+x,1/4-z
-x,y,z
x,1/2-y,z
3/4-y,1/4-x,3/4+z
3/4+y,3/4+x,1/4+z
1/2+x,1/2+y,1/2+z
3/4-y,1/4+x,3/4+z
1/2-x,-y,1/2+z
3/4+y,3/4-x,1/4+z
1/2+x,1/2-y,1/2-z
1/2-x,y,1/2-z
3/4+y,1/4+x,3/4-z
3/4-y,3/4-x,1/4-z
1/2-x,1/2-y,1/2-z
1/4+y,3/4-x,1/4-z
1/2+x,y,1/2-z
1/4-y,1/4+x,3/4-z
1/2-x,1/2+y,1/2+z
1/2+x,-y,1/2+z
1/4-y,3/4-x,1/4+z
1/4+y,1/4+x,3/4+z
loop_
_atom_site_type_symbol
_atom_site_label
_atom_site_fract_x
_atom_site_fract_y
_atom_site_fract_z
Si Si1 0.325089 0.142840 0.983021
Si Si2 0.608913 0.641088 0.375000
Si Si3 0.115172 0.039103 0.421195
Si Si4 0.892343 0.598650 0.026829
O O1 0.360534 0.250000 0.971523
O O2 0.365440 0.107552 0.033309
O O3 0.208192 0.146332 0.987326
O O4 0.352253 0.065247 0.942551
O O5 0.500000 0.631988 0.355368
O O6 0.677047 0.630499 0.331669
O O7 0.172841 0.077160 0.375000
O O8 0.000000 0.037726 0.411166
O O9 0.000000 0.644342 0.022397
O O10 0.896118 0.500000 0.000000
#
# Coordination Sequence:
#
# PCOD9572994 Si02
#       4
#    32  16  32  32
#     4  11  23  41  67  99 134 171 220 275 327 387
#     4   9  18  32  52  80 114 164 219 254 302 380
#     4  11  25  46  69  96 129 169 221 272 333 403
#     4  10  20  36  58  89 133 176 217 265 318 379
#
# _framework density 20.542994
#
# number of rings (size 3 to 8) (size 9 to 14) (size 15 to 20)
#    0.000    1.571    2.857    3.429    2.000    5.429 
#    0.000    1.429    0.000    3.429    0.000    0.000 
#    0.000    0.000    0.000    0.000    0.000    0.000 
#
# Total GULP energy -312023.359805 kJ/mol
# GULP energy per Si atom -5571.845711 kJ/mol
# Density = 2.049624 g / cm^3
# Si number density = 20.542994 Si / 1000 Ang^3
#
#
#
# Elastic Constant Matrix: (Units=GPa)
#
#
# Indices 1 2 3 4 5 6 
#
# 1 145.5070 41.6401 65.5086 0.0000 0.0000 0.0000
# 2 41.6401 145.5095 65.5080 0.0000 0.0000 0.0000
# 3 65.5086 65.5080 157.7634 0.0000 0.0000 0.0000
# 4 0.0000 0.0000 0.0000 45.6676 0.0000 0.0000
# 5 0.0000 0.0000 0.0000 0.0000 45.6662 0.0000
# 6 0.0000 0.0000 0.0000 0.0000 0.0000 1.1069
#
#
#
# Elastic Compliance Matrix: (Units=1/GPa)
#
#
# Indices 1 2 3 4 5 6 
#
# 1 0.008580 -0.001047 -0.003128 0.000000 0.000000 0.000000
# 2 -0.001047 0.008580 -0.003128 0.000000 0.000000 0.000000
# 3 -0.003128 -0.003128 0.008936 0.000000 0.000000 0.000000
# 4 0.000000 0.000000 0.000000 0.021897 0.000000 0.000000
# 5 0.000000 0.000000 0.000000 0.000000 0.021898 0.000000
# 6 0.000000 0.000000 0.000000 0.000000 0.000000 0.903456
#
#
# Mechanical properties :
#
#
# Convention : Reuss Voigt Hill
#
# Bulk Modulus (GPa) = 87.02757 88.23258 87.63007
# Shear Modulus (GPa) = 5.04141 36.89633 20.96887
#
# Velocity S-wave (km/s) = 1.56825 4.24259 3.19835
# Velocity P-wave (km/s) = 6.76275 8.18797 7.50925
#
# Compressibility (1/GPa) = 0.01149061
#
# Stress axis : x y z
#
# Youngs Moduli (GPa) = 116.54342 116.54635 111.90310
#
# Poissons Ratio (x) = 0.12205 0.35004
# Poissons Ratio (y) = 0.12205 0.35003
# Poissons Ratio (z) = 0.36456 0.36455
#
# Static dielectric constant tensor:
#      x y z
#    x 1.783000 0.000000 0.000000 
#    y 0.000000 1.783000 0.000000 
#    z 0.000000 0.000000 1.707150 
# 
# From -- ./inp_files/12481.got.cif
#   From: 2010.05.17/outbox.cif.g08.bks.cpg/sg141_7_cif.got.tgz:12481.got - 2010.05.20 13:30:51.
