data_PCOD9572321
_publ_section_title
;
Structure prediction by ZEFSAII (Michael W. Deem and Ramdas Pophale) SiO2 
 PCOD9572321
Probable space group: I 4/M C M
;
_chemical_formula_sum "Si O2"
_cell_formula_units_Z 144
_cell_length_a 20.795665
_cell_length_b 20.795665
_cell_length_c 14.515447
_cell_angle_alpha 90.000000
_cell_angle_beta 90.000000
_cell_angle_gamma 90.000000
_cell_volume 6277.345605
_symmetry_space_group_name_H-M "I 4/M C M"
_symmetry_group_IT_number 140
_symmetry_cell_setting 'tetragonal'
loop_
_space_group_symop_operation_xyz
x,y,z
-y,x,z
-x,-y,z
y,-x,z
x,-y,1/2-z
-x,y,1/2-z
y,x,1/2-z
-y,-x,1/2-z
-x,-y,-z
y,-x,-z
x,y,-z
-y,x,-z
-x,y,1/2+z
x,-y,1/2+z
-y,-x,1/2+z
y,x,1/2+z
1/2+x,1/2+y,1/2+z
1/2-y,1/2+x,1/2+z
1/2-x,1/2-y,1/2+z
1/2+y,1/2-x,1/2+z
1/2+x,1/2-y,-z
1/2-x,1/2+y,-z
1/2+y,1/2+x,-z
1/2-y,1/2-x,-z
1/2-x,1/2-y,1/2-z
1/2+y,1/2-x,1/2-z
1/2+x,1/2+y,1/2-z
1/2-y,1/2+x,1/2-z
1/2-x,1/2+y,z
1/2+x,1/2-y,z
1/2-y,1/2-x,z
1/2+y,1/2+x,z
loop_
_atom_site_type_symbol
_atom_site_label
_atom_site_fract_x
_atom_site_fract_y
_atom_site_fract_z
Si Si1 0.561607 0.582095 0.387743
Si Si2 0.843522 0.656479 0.394110
Si Si3 0.552389 0.052389 0.888197
Si Si4 0.762391 0.262391 0.355502
Si Si5 0.487005 0.185818 0.113087
Si Si6 0.282593 0.405450 0.110054
O O1 0.487148 0.587044 0.359369
O O2 0.563772 0.580514 0.500000
O O3 0.597798 0.644717 0.354407
O O4 0.859394 0.640607 0.500000
O O5 0.788720 0.711281 0.397195
O O6 0.819065 0.587546 0.355079
O O7 0.526399 0.121774 0.859648
O O8 0.500000 0.000000 0.860567
O O9 0.554108 0.054108 0.000000
O O10 0.750000 0.250000 0.250000
O O11 0.749610 0.336707 0.376427
O O12 0.531963 0.244506 0.144931
O O13 0.485748 0.188621 0.000000
O O14 0.286460 0.414669 0.000000
#
# Coordination Sequence:
#
# PCOD9572321 Si02
#       6
#    32  16  16  16  32  32
#     4   8  15  28  50  84 118 140 169 225 291 344
#     4  10  20  36  61  90 117 145 189 244 292 340
#     4   9  13  22  40  71 117 143 159 206 274 334
#     4  12  27  43  54  75 117 163 199 240 286 347
#     4   9  17  29  53  90 118 142 178 230 288 343
#     4  10  20  35  60  86 112 147 190 237 290 346
#
# _framework density 22.939630999999999
#
# number of rings (size 3 to 8) (size 9 to 14) (size 15 to 20)
#    0.000    2.556    1.111    2.333    3.111    1.778 
#    0.000    1.111    0.000    0.000    0.000    1.556 
#    0.000    0.000    0.000    0.000    0.000    0.000 
#
# Total GULP energy -401927.399515 kJ/mol
# GULP energy per Si atom -5582.324993 kJ/mol
# Density = 2.288742 g / cm^3
# Si number density = 22.939631 Si / 1000 Ang^3
#
#
#
# Elastic Constant Matrix: (Units=GPa)
#
#
# Indices 1 2 3 4 5 6 
#
# 1 90.9653 52.0791 2.9633 0.0000 0.0000 0.0000
# 2 52.0791 90.9654 2.9635 0.0000 0.0000 0.0000
# 3 2.9633 2.9635 54.4034 0.0000 0.0000 0.0000
# 4 0.0000 0.0000 0.0000 -14.6710 0.0000 0.0000
# 5 0.0000 0.0000 0.0000 0.0000 -14.6711 0.0000
# 6 0.0000 0.0000 0.0000 0.0000 0.0000 34.2351
#
#
#
# Elastic Compliance Matrix: (Units=1/GPa)
#
#
# Indices 1 2 3 4 5 6 
#
# 1 0.016361 -0.009355 -0.000382 0.000000 0.000000 0.000000
# 2 -0.009355 0.016361 -0.000382 0.000000 0.000000 0.000000
# 3 -0.000382 -0.000382 0.018423 0.000000 0.000000 0.000000
# 4 0.000000 0.000000 0.000000 -0.068162 0.000000 0.000000
# 5 0.000000 0.000000 0.000000 0.000000 -0.068161 0.000000
# 6 0.000000 0.000000 0.000000 0.000000 0.000000 0.029210
#
#
# Mechanical properties :
#
#
# Convention : Reuss Voigt Hill
#
# Bulk Modulus (GPa) = 32.35257 39.14953 35.75105
# Shear Modulus (GPa) = -196.63116 12.86714 -91.88201
#
# Velocity S-wave (km/s) = -9.26838 2.37093 -6.33568
# Velocity P-wave (km/s) = 10.02014 4.95968 6.15649
#
# Compressibility (1/GPa) = 0.03090945
#
# Stress axis : x y z
#
# Youngs Moduli (GPa) = 61.11966 61.11972 54.28064
#
# Poissons Ratio (x) = 0.57176 0.02071
# Poissons Ratio (y) = 0.57176 0.02072
# Poissons Ratio (z) = 0.02332 0.02333
#
# Static dielectric constant tensor:
#      x y z
#    x 1.834760 0.000000 0.000000 
#    y 0.000000 1.834760 0.000000 
#    z 0.000000 0.000000 1.897740 
# 
# From -- ./inp_files/6724.got.cif
#   From: 2010.05.17/outbox.cif.g08.bks.cpg/sg140_4_cif.got.tgz:6724.got - 2010.06.21 00:45:31.
