data_PCOD9572748
_publ_section_title
;
Structure prediction by ZEFSAII (Michael W. Deem and Ramdas Pophale) SiO2 
 PCOD9572748
Probable space group: I 41/A M D
;
_chemical_formula_sum "Si O2"
_cell_formula_units_Z 176
_cell_length_a 29.346375
_cell_length_b 29.346375
_cell_length_c 11.085734
_cell_angle_alpha 90.000000
_cell_angle_beta 90.000000
_cell_angle_gamma 90.000000
_cell_volume 9547.141937
_symmetry_space_group_name_H-M "I 41/A M D"
_symmetry_group_IT_number 141
_space_group.IT_coordinate_system_code '2'
_symmetry_cell_setting 'tetragonal'
loop_
_space_group_symop_operation_xyz
x,y,z
1/4-y,3/4+x,1/4+z
-x,1/2-y,z
1/4+y,1/4-x,3/4+z
x,-y,-z
-x,1/2+y,-z
1/4+y,3/4+x,1/4-z
1/4-y,1/4-x,3/4-z
-x,-y,-z
3/4+y,1/4-x,3/4-z
x,1/2+y,-z
3/4-y,3/4+x,1/4-z
-x,y,z
x,1/2-y,z
3/4-y,1/4-x,3/4+z
3/4+y,3/4+x,1/4+z
1/2+x,1/2+y,1/2+z
3/4-y,1/4+x,3/4+z
1/2-x,-y,1/2+z
3/4+y,3/4-x,1/4+z
1/2+x,1/2-y,1/2-z
1/2-x,y,1/2-z
3/4+y,1/4+x,3/4-z
3/4-y,3/4-x,1/4-z
1/2-x,1/2-y,1/2-z
1/4+y,3/4-x,1/4-z
1/2+x,y,1/2-z
1/4-y,1/4+x,3/4-z
1/2-x,1/2+y,1/2+z
1/2+x,-y,1/2+z
1/4-y,3/4-x,1/4+z
1/4+y,1/4+x,3/4+z
loop_
_atom_site_type_symbol
_atom_site_label
_atom_site_fract_x
_atom_site_fract_y
_atom_site_fract_z
Si Si1 0.946923 0.924975 0.137370
Si Si2 0.750000 0.862985 0.250000
Si Si3 0.630554 0.803774 0.640859
Si Si4 0.816090 0.115060 0.553148
Si Si5 0.391453 0.550857 0.967954
Si Si6 0.121571 0.696567 0.352173
O O1 0.931673 0.907618 0.268503
O O2 0.000000 0.939027 0.146059
O O3 0.918072 0.966043 0.080521
O O4 0.944747 0.883927 0.040121
O O5 0.778911 0.891720 0.344676
O O6 0.627402 0.750000 0.639906
O O7 0.660829 0.820549 0.753825
O O8 0.580459 0.825662 0.633938
O O9 0.799083 0.124448 0.418866
O O10 0.850028 0.072268 0.545731
O O11 0.841445 0.162613 0.587923
O O12 0.406130 0.500000 0.000000
O O13 0.123147 0.750000 0.387601
#
# Coordination Sequence:
#
# PCOD9572748 Si02
#       6
#    32  16  32  32  32  32
#     4   9  17  29  47  75 107 136 175 222 270 320
#     4  10  17  32  56  80 102 134 176 226 269 312
#     4  10  20  32  49  77 106 138 184 226 264 324
#     4   9  20  35  56  80 103 135 177 214 265 325
#     4  10  20  37  56  74 106 144 169 213 273 325
#     4   9  18  33  52  74 105 143 176 218 272 322
#
# _framework density 18.434836000000001
#
# number of rings (size 3 to 8) (size 9 to 14) (size 15 to 20)
#    0.000    2.545    0.000    1.909    0.000    2.182 
#    0.000    2.727    8.000    3.273    0.000    5.091 
#    0.000    0.000    0.000    0.000    0.000    0.000 
#
# Total GULP energy -490150.060144 kJ/mol
# GULP energy per Si atom -5569.887047 kJ/mol
# Density = 1.839288 g / cm^3
# Si number density = 18.434836 Si / 1000 Ang^3
#
#
#
# Elastic Constant Matrix: (Units=GPa)
#
#
# Indices 1 2 3 4 5 6 
#
# 1 69.7299 14.1191 17.0801 0.0000 0.0000 0.0000
# 2 14.1191 69.7299 17.0801 0.0000 0.0000 0.0000
# 3 17.0801 17.0801 56.3162 0.0000 0.0000 0.0000
# 4 0.0000 0.0000 0.0000 18.2214 0.0000 0.0000
# 5 0.0000 0.0000 0.0000 0.0000 18.2214 0.0000
# 6 0.0000 0.0000 0.0000 0.0000 0.0000 9.7555
#
#
#
# Elastic Compliance Matrix: (Units=1/GPa)
#
#
# Indices 1 2 3 4 5 6 
#
# 1 0.015795 -0.002187 -0.004127 0.000000 0.000000 0.000000
# 2 -0.002187 0.015795 -0.004127 0.000000 0.000000 0.000000
# 3 -0.004127 -0.004127 0.020260 0.000000 0.000000 0.000000
# 4 0.000000 0.000000 0.000000 0.054881 0.000000 0.000000
# 5 0.000000 0.000000 0.000000 0.000000 0.054881 0.000000
# 6 0.000000 0.000000 0.000000 0.000000 0.000000 0.102507
#
#
# Mechanical properties :
#
#
# Convention : Reuss Voigt Hill
#
# Bulk Modulus (GPa) = 32.29216 32.48161 32.38688
# Shear Modulus (GPa) = 16.93062 19.07275 18.00168
#
# Velocity S-wave (km/s) = 3.03381 3.22002 3.12830
# Velocity P-wave (km/s) = 5.46140 5.61094 5.53667
#
# Compressibility (1/GPa) = 0.03096727
#
# Stress axis : x y z
#
# Youngs Moduli (GPa) = 63.31178 63.31178 49.35772
#
# Poissons Ratio (x) = 0.13848 0.20370
# Poissons Ratio (y) = 0.13848 0.20370
# Poissons Ratio (z) = 0.26129 0.26129
#
# Static dielectric constant tensor:
#      x y z
#    x 1.635110 0.000000 0.000000 
#    y 0.000000 1.635110 0.000000 
#    z 0.000000 0.000000 1.645970 
# 
# From -- ./inp_files/5016.got.cif
#   From: 2010.05.17/outbox.cif.g08.bks.cpg/sg141_3_cif.got.tgz:5016.got - 2010.05.20 13:30:51.
