data_PCOD9572696
_publ_section_title
;
Structure prediction by ZEFSAII (Michael W. Deem and Ramdas Pophale) SiO2 
 PCOD9572696
Probable space group: I 4/M C M
;
_chemical_formula_sum "Si O2"
_cell_formula_units_Z 96
_cell_length_a 15.064969
_cell_length_b 15.064969
_cell_length_c 18.541932
_cell_angle_alpha 90.000000
_cell_angle_beta 90.000000
_cell_angle_gamma 90.000000
_cell_volume 4208.152488
_symmetry_space_group_name_H-M "I 4/M C M"
_symmetry_group_IT_number 140
_symmetry_cell_setting 'tetragonal'
loop_
_space_group_symop_operation_xyz
x,y,z
-y,x,z
-x,-y,z
y,-x,z
x,-y,1/2-z
-x,y,1/2-z
y,x,1/2-z
-y,-x,1/2-z
-x,-y,-z
y,-x,-z
x,y,-z
-y,x,-z
-x,y,1/2+z
x,-y,1/2+z
-y,-x,1/2+z
y,x,1/2+z
1/2+x,1/2+y,1/2+z
1/2-y,1/2+x,1/2+z
1/2-x,1/2-y,1/2+z
1/2+y,1/2-x,1/2+z
1/2+x,1/2-y,-z
1/2-x,1/2+y,-z
1/2+y,1/2+x,-z
1/2-y,1/2-x,-z
1/2-x,1/2-y,1/2-z
1/2+y,1/2-x,1/2-z
1/2+x,1/2+y,1/2-z
1/2-y,1/2+x,1/2-z
1/2-x,1/2+y,z
1/2+x,1/2-y,z
1/2-y,1/2-x,z
1/2+y,1/2+x,z
loop_
_atom_site_type_symbol
_atom_site_label
_atom_site_fract_x
_atom_site_fract_y
_atom_site_fract_z
Si Si1 0.282937 0.018120 0.168908
Si Si2 0.867740 0.367740 0.414716
Si Si3 0.961520 0.142115 0.422529
Si Si4 0.729116 0.770885 0.833730
O O1 0.195256 0.960086 0.151277
O O2 0.262617 0.121722 0.155327
O O3 0.312617 0.000000 0.250000
O O4 0.347221 0.966999 0.114241
O O5 0.863440 0.363440 0.500000
O O6 0.794470 0.294470 0.381200
O O7 0.948694 0.190332 0.500000
O O8 0.896972 0.059972 0.423911
O O9 0.750000 0.750000 0.750000
#
# Coordination Sequence:
#
# PCOD9572696 Si02
#       4
#    32  16  32  16
#     4  12  24  42  70  98 143 193 249 303 370 442
#     4  12  28  49  74 112 153 194 251 317 377 449
#     4   9  19  35  57  91 133 178 233 300 373 439
#     4  12  26  49  74 108 143 197 251 307 381 444
#
# _framework density 22.812861999999999
#
# number of rings (size 3 to 8) (size 9 to 14) (size 15 to 20)
#    0.000    1.000    3.333    4.000    0.000    6.000 
#    0.000    4.167    0.000    0.000    0.000    0.000 
#    0.000    0.000    0.000    0.000    0.000    0.000 
#
# Total GULP energy -267291.054132 kJ/mol
# GULP energy per Si atom -5568.563628 kJ/mol
# Density = 2.276094 g / cm^3
# Si number density = 22.812862 Si / 1000 Ang^3
#
#
#
# Elastic Constant Matrix: (Units=GPa)
#
#
# Indices 1 2 3 4 5 6 
#
# 1 106.6589 16.5890 47.7688 0.0000 0.0000 0.0000
# 2 16.5890 106.6589 47.7688 0.0000 0.0000 0.0000
# 3 47.7688 47.7688 173.7627 0.0000 0.0000 0.0000
# 4 0.0000 0.0000 0.0000 19.8961 0.0000 0.0000
# 5 0.0000 0.0000 0.0000 0.0000 19.8961 0.0000
# 6 0.0000 0.0000 0.0000 0.0000 0.0000 37.4290
#
#
#
# Elastic Compliance Matrix: (Units=1/GPa)
#
#
# Indices 1 2 3 4 5 6 
#
# 1 0.010707 -0.000396 -0.002835 0.000000 0.000000 0.000000
# 2 -0.000396 0.010707 -0.002835 0.000000 0.000000 0.000000
# 3 -0.002835 -0.002835 0.007313 0.000000 0.000000 0.000000
# 4 0.000000 0.000000 0.000000 0.050261 0.000000 0.000000
# 5 0.000000 0.000000 0.000000 0.000000 0.050261 0.000000
# 6 0.000000 0.000000 0.000000 0.000000 0.000000 0.026717
#
#
# Mechanical properties :
#
#
# Convention : Reuss Voigt Hill
#
# Bulk Modulus (GPa) = 60.25128 67.92595 64.08861
# Shear Modulus (GPa) = 28.79711 33.77451 31.28581
#
# Velocity S-wave (km/s) = 3.55677 3.85190 3.70727
# Velocity P-wave (km/s) = 6.58300 7.04435 6.81758
#
# Compressibility (1/GPa) = 0.01659716
#
# Stress axis : x y z
#
# Youngs Moduli (GPa) = 93.39910 93.39911 136.73395
#
# Poissons Ratio (x) = 0.03696 0.38758
# Poissons Ratio (y) = 0.03696 0.38758
# Poissons Ratio (z) = 0.26475 0.26475
#
# Static dielectric constant tensor:
#      x y z
#    x 1.937520 0.000000 0.000000 
#    y 0.000000 1.937520 0.000000 
#    z 0.000000 0.000000 1.857330 
# 
# From -- ./inp_files/7718.got.cif
#   From: 2010.05.17/outbox.cif.g08.bks.cpg/sg140_4_cif.got.tgz:7718.got - 2010.06.21 00:45:31.
