data_PCOD9572348
_publ_section_title
;
Structure prediction by ZEFSAII (Michael W. Deem and Ramdas Pophale) SiO2 
 PCOD9572348
Probable space group: I 4/M C M
;
_chemical_formula_sum "Si O2"
_cell_formula_units_Z 112
_cell_length_a 18.713392
_cell_length_b 18.713392
_cell_length_c 14.305410
_cell_angle_alpha 90.000000
_cell_angle_beta 90.000000
_cell_angle_gamma 90.000000
_cell_volume 5009.626408
_symmetry_space_group_name_H-M "I 4/M C M"
_symmetry_group_IT_number 140
_symmetry_cell_setting 'tetragonal'
loop_
_space_group_symop_operation_xyz
x,y,z
-y,x,z
-x,-y,z
y,-x,z
x,-y,1/2-z
-x,y,1/2-z
y,x,1/2-z
-y,-x,1/2-z
-x,-y,-z
y,-x,-z
x,y,-z
-y,x,-z
-x,y,1/2+z
x,-y,1/2+z
-y,-x,1/2+z
y,x,1/2+z
1/2+x,1/2+y,1/2+z
1/2-y,1/2+x,1/2+z
1/2-x,1/2-y,1/2+z
1/2+y,1/2-x,1/2+z
1/2+x,1/2-y,-z
1/2-x,1/2+y,-z
1/2+y,1/2+x,-z
1/2-y,1/2-x,-z
1/2-x,1/2-y,1/2-z
1/2+y,1/2-x,1/2-z
1/2+x,1/2+y,1/2-z
1/2-y,1/2+x,1/2-z
1/2-x,1/2+y,z
1/2+x,1/2-y,z
1/2-y,1/2-x,z
1/2+y,1/2+x,z
loop_
_atom_site_type_symbol
_atom_site_label
_atom_site_fract_x
_atom_site_fract_y
_atom_site_fract_z
Si Si1 0.833890 0.666111 0.890506
Si Si2 0.925998 0.198857 0.385877
Si Si3 0.917433 0.417433 0.737448
Si Si4 0.911339 0.814332 0.612060
Si Si5 0.169924 0.669924 0.110536
O O1 0.872319 0.737935 0.853336
O O2 0.892776 0.607225 0.864720
O O3 0.821875 0.678126 0.000000
O O4 0.926332 0.203243 0.500000
O O5 0.888456 0.124760 0.357788
O O6 0.008495 0.203537 0.354820
O O7 0.902727 0.500000 0.750000
O O8 0.876068 0.376068 0.818259
O O9 0.917898 0.819366 0.500000
O O10 0.854055 0.751170 0.628205
O O11 0.155626 0.655626 0.000000
#
# Coordination Sequence:
#
# PCOD9572348 Si02
#       5
#    16  32  16  32  16
#     4  10  20  37  59  81 109 146 187 229 275 328
#     4   9  17  30  51  79 111 148 187 229 278 329
#     4  11  24  38  55  84 116 146 185 231 280 334
#     4   9  17  30  51  79 111 148 187 229 278 329
#     4  10  20  37  59  81 109 146 187 229 275 328
#
# _framework density 22.356954999999999
#
# number of rings (size 3 to 8) (size 9 to 14) (size 15 to 20)
#    0.000    2.429    0.000    2.571    0.000    7.429 
#    0.000    7.143    0.000    0.000    0.000    0.000 
#    0.000    6.857    0.000    0.571    0.000    0.000 
#
# Total GULP energy -312422.439769 kJ/mol
# GULP energy per Si atom -5578.972139 kJ/mol
# Density = 2.230607 g / cm^3
# Si number density = 22.356955 Si / 1000 Ang^3
#
#
#
# Elastic Constant Matrix: (Units=GPa)
#
#
# Indices 1 2 3 4 5 6 
#
# 1 126.1894 93.6423 -8.5387 0.0000 0.0000 0.0000
# 2 93.6423 126.1891 -8.5393 0.0000 0.0000 0.0000
# 3 -8.5387 -8.5393 59.2985 0.0000 0.0000 0.0000
# 4 0.0000 0.0000 0.0000 -4.3421 0.0000 0.0000
# 5 0.0000 0.0000 0.0000 0.0000 -4.3421 0.0000
# 6 0.0000 0.0000 0.0000 0.0000 0.0000 32.1635
#
#
#
# Elastic Compliance Matrix: (Units=1/GPa)
#
#
# Indices 1 2 3 4 5 6 
#
# 1 0.017663 -0.013062 0.000662 0.000000 0.000000 0.000000
# 2 -0.013062 0.017663 0.000663 0.000000 0.000000 0.000000
# 3 0.000662 0.000663 0.017055 0.000000 0.000000 0.000000
# 4 0.000000 0.000000 0.000000 -0.230302 0.000000 0.000000
# 5 0.000000 0.000000 0.000000 0.000000 -0.230303 0.000000
# 6 0.000000 0.000000 0.000000 0.000000 0.000000 0.031091
#
#
# Mechanical properties :
#
#
# Convention : Reuss Voigt Hill
#
# Bulk Modulus (GPa) = 34.59577 51.64506 43.12041
# Shear Modulus (GPa) = -14.53384 20.37005 2.91810
#
# Velocity S-wave (km/s) = -2.55244 3.02176 1.14371
# Velocity P-wave (km/s) = 2.61176 5.94349 4.59056
#
# Compressibility (1/GPa) = 0.02890527
#
# Stress axis : x y z
#
# Youngs Moduli (GPa) = 56.61692 56.61671 58.63512
#
# Poissons Ratio (x) = 0.73954 -0.03883
# Poissons Ratio (y) = 0.73954 -0.03885
# Poissons Ratio (z) = -0.03750 -0.03751
#
# Static dielectric constant tensor:
#      x y z
#    x 1.804570 0.000000 0.000000 
#    y 0.000000 1.804570 0.000000 
#    z 0.000000 0.000000 1.835490 
# 
# From -- ./inp_files/6157.got.cif
#   From: 2010.05.17/outbox.cif.g08.bks.cpg/sg140_4_cif.got.tgz:6157.got - 2010.06.21 00:45:31.
