data_PCOD9572952
_publ_section_title
;
Structure prediction by ZEFSAII (Michael W. Deem and Ramdas Pophale) SiO2 
 PCOD9572952
Probable space group: I 41/A M D
;
_chemical_formula_sum "Si O2"
_cell_formula_units_Z 112
_cell_length_a 17.726249
_cell_length_b 17.726249
_cell_length_c 18.475225
_cell_angle_alpha 90.000000
_cell_angle_beta 90.000000
_cell_angle_gamma 90.000000
_cell_volume 5805.283419
_symmetry_space_group_name_H-M "I 41/A M D"
_symmetry_group_IT_number 141
_space_group.IT_coordinate_system_code '2'
_symmetry_cell_setting 'tetragonal'
loop_
_space_group_symop_operation_xyz
x,y,z
1/4-y,3/4+x,1/4+z
-x,1/2-y,z
1/4+y,1/4-x,3/4+z
x,-y,-z
-x,1/2+y,-z
1/4+y,3/4+x,1/4-z
1/4-y,1/4-x,3/4-z
-x,-y,-z
3/4+y,1/4-x,3/4-z
x,1/2+y,-z
3/4-y,3/4+x,1/4-z
-x,y,z
x,1/2-y,z
3/4-y,1/4-x,3/4+z
3/4+y,3/4+x,1/4+z
1/2+x,1/2+y,1/2+z
3/4-y,1/4+x,3/4+z
1/2-x,-y,1/2+z
3/4+y,3/4-x,1/4+z
1/2+x,1/2-y,1/2-z
1/2-x,y,1/2-z
3/4+y,1/4+x,3/4-z
3/4-y,3/4-x,1/4-z
1/2-x,1/2-y,1/2-z
1/4+y,3/4-x,1/4-z
1/2+x,y,1/2-z
1/4-y,1/4+x,3/4-z
1/2-x,1/2+y,1/2+z
1/2+x,-y,1/2+z
1/4-y,3/4-x,1/4+z
1/4+y,1/4+x,3/4+z
loop_
_atom_site_type_symbol
_atom_site_label
_atom_site_fract_x
_atom_site_fract_y
_atom_site_fract_z
Si Si1 0.674985 0.840043 0.099278
Si Si2 0.330257 0.419744 0.625000
Si Si3 0.589282 0.664612 0.504528
Si Si4 0.091652 0.836589 0.704383
O O1 0.696767 0.750000 0.097904
O O2 0.744177 0.894641 0.116669
O O3 0.614994 0.848263 0.164028
O O4 0.638050 0.860534 0.022472
O O5 0.370920 0.387707 0.553606
O O6 0.500000 0.664154 0.488735
O O7 0.617644 0.750000 0.497591
O O8 0.115464 0.865464 0.625000
O O9 0.117555 0.750000 0.714958
O O10 0.000000 0.833892 0.701309
#
# Coordination Sequence:
#
# PCOD9572952 Si02
#       4
#    32  16  32  32
#     4  10  20  34  55  82 115 152 187 230 282 335
#     4  12  22  33  52  80 116 154 186 225 278 340
#     4  10  20  35  57  83 109 142 189 238 281 331
#     4   8  14  28  55  89 117 143 183 232 278 328
#
# _framework density 19.292770000000001
#
# number of rings (size 3 to 8) (size 9 to 14) (size 15 to 20)
#    0.000    2.286    0.000    5.143    0.000    6.857 
#    0.000    0.000   12.571    0.000    0.000    8.000 
#    0.000    0.000    0.000    0.000    0.000    7.286 
#
# Total GULP energy -312549.770971 kJ/mol
# GULP energy per Si atom -5581.245910 kJ/mol
# Density = 1.924886 g / cm^3
# Si number density = 19.292770 Si / 1000 Ang^3
#
#
#
# Elastic Constant Matrix: (Units=GPa)
#
#
# Indices 1 2 3 4 5 6 
#
# 1 38.5784 43.0525 30.1318 0.0000 0.0000 0.0000
# 2 43.0525 38.5813 30.1359 0.0000 0.0000 0.0000
# 3 30.1318 30.1359 110.1490 0.0000 0.0000 0.0000
# 4 0.0000 0.0000 0.0000 -79.6959 0.0000 0.0000
# 5 0.0000 0.0000 0.0000 0.0000 -79.6658 0.0000
# 6 0.0000 0.0000 0.0000 0.0000 0.0000 21.0814
#
#
#
# Elastic Compliance Matrix: (Units=1/GPa)
#
#
# Indices 1 2 3 4 5 6 
#
# 1 -0.104116 0.119465 -0.004203 0.000000 0.000000 0.000000
# 2 0.119465 -0.104114 -0.004196 0.000000 0.000000 0.000000
# 3 -0.004203 -0.004196 0.011376 0.000000 0.000000 0.000000
# 4 0.000000 0.000000 0.000000 -0.012548 0.000000 0.000000
# 5 0.000000 0.000000 0.000000 0.000000 -0.012552 0.000000
# 6 0.000000 0.000000 0.000000 0.000000 0.000000 0.047435
#
#
# Mechanical properties :
#
#
# Convention : Reuss Voigt Hill
#
# Bulk Modulus (GPa) = 39.55799 43.77211 41.66505
# Shear Modulus (GPa) = -12.87912 -22.05684 -17.46798
#
# Velocity S-wave (km/s) = -2.58653 -3.38490 -3.01228
# Velocity P-wave (km/s) = 3.41005 2.73147 3.08944
#
# Compressibility (1/GPa) = 0.02527935
#
# Stress axis : x y z
#
# Youngs Moduli (GPa) = -9.60465 -9.60487 87.90175
#
# Poissons Ratio (x) = 1.14745 0.36947
# Poissons Ratio (y) = 1.14742 0.36881
# Poissons Ratio (z) = -0.04037 -0.04030
#
# Static dielectric constant tensor:
#      x y z
#    x 1.672380 0.000000 0.000000 
#    y 0.000000 1.672370 0.000000 
#    z 0.000000 0.000000 1.663730 
# 
# From -- ./inp_files/7902.got.cif
#   From: 2010.05.17/outbox.cif.g08.bks.cpg/sg141_4_cif.got.tgz:7902.got - 2010.05.20 13:30:51.
