data_PCOD9572438
_publ_section_title
;
Structure prediction by ZEFSAII (Michael W. Deem and Ramdas Pophale) SiO2 
 PCOD9572438
Probable space group: I 4/M C M
;
_chemical_formula_sum "Si O2"
_cell_formula_units_Z 68
_cell_length_a 13.428250
_cell_length_b 13.428250
_cell_length_c 21.957353
_cell_angle_alpha 90.000000
_cell_angle_beta 90.000000
_cell_angle_gamma 90.000000
_cell_volume 3959.303740
_symmetry_space_group_name_H-M "I 4/M C M"
_symmetry_group_IT_number 140
_symmetry_cell_setting 'tetragonal'
loop_
_space_group_symop_operation_xyz
x,y,z
-y,x,z
-x,-y,z
y,-x,z
x,-y,1/2-z
-x,y,1/2-z
y,x,1/2-z
-y,-x,1/2-z
-x,-y,-z
y,-x,-z
x,y,-z
-y,x,-z
-x,y,1/2+z
x,-y,1/2+z
-y,-x,1/2+z
y,x,1/2+z
1/2+x,1/2+y,1/2+z
1/2-y,1/2+x,1/2+z
1/2-x,1/2-y,1/2+z
1/2+y,1/2-x,1/2+z
1/2+x,1/2-y,-z
1/2-x,1/2+y,-z
1/2+y,1/2+x,-z
1/2-y,1/2-x,-z
1/2-x,1/2-y,1/2-z
1/2+y,1/2-x,1/2-z
1/2+x,1/2+y,1/2-z
1/2-y,1/2+x,1/2-z
1/2-x,1/2+y,z
1/2+x,1/2-y,z
1/2-y,1/2-x,z
1/2+y,1/2+x,z
loop_
_atom_site_type_symbol
_atom_site_label
_atom_site_fract_x
_atom_site_fract_y
_atom_site_fract_z
Si Si1 0.256084 0.756084 0.343533
Si Si2 0.500000 0.000000 0.750000
Si Si3 0.612193 0.112193 0.427572
Si Si4 0.904152 0.595849 0.866427
Si Si5 0.120901 0.879100 0.750000
O O1 0.312588 0.812588 0.396631
O O2 0.177889 0.677889 0.367930
O O3 0.189257 0.834330 0.304554
O O4 0.434306 0.934306 0.796784
O O5 0.613077 0.113077 0.500000
O O6 0.502583 0.132558 0.400721
O O7 0.000000 0.863664 0.750000
#
# Coordination Sequence:
#
# PCOD9572438 Si02
#       5
#    16   4  16  16  16
#     4  11  22  33  60  81 109 144 195 219 282 333
#     4   8  20  32  58  84 120 136 188 238 296 332
#     4  10  22  39  55  81 113 149 193 233 277 332
#     4  10  21  36  58  84 112 150 183 240 289 329
#     4  10  22  36  52  80 118 144 172 226 284 338
#
# _framework density 17.174738000000001
#
# number of rings (size 3 to 8) (size 9 to 14) (size 15 to 20)
#    0.000    2.118    0.000    4.235   16.471    1.882 
#    0.000    0.000    0.000    0.000    0.000    9.882 
#    0.000    0.000    0.000    0.000    0.000    0.000 
#
# Total GULP energy -189517.697650 kJ/mol
# GULP energy per Si atom -5574.049931 kJ/mol
# Density = 1.713565 g / cm^3
# Si number density = 17.174738 Si / 1000 Ang^3
#
#
#
# Elastic Constant Matrix: (Units=GPa)
#
#
# Indices 1 2 3 4 5 6 
#
# 1 274.8293 -32.3748 76.6772 0.0000 0.0000 0.0000
# 2 -32.3748 274.8324 76.6773 0.0000 0.0000 0.0000
# 3 76.6772 76.6773 162.2723 0.0000 0.0000 0.0000
# 4 0.0000 0.0000 0.0000 10.3486 0.0000 0.0000
# 5 0.0000 0.0000 0.0000 0.0000 10.3486 0.0000
# 6 0.0000 0.0000 0.0000 0.0000 0.0000 51.3511
#
#
#
# Elastic Compliance Matrix: (Units=1/GPa)
#
#
# Indices 1 2 3 4 5 6 
#
# 1 0.004569 0.001314 -0.002780 0.000000 0.000000 0.000000
# 2 0.001314 0.004569 -0.002780 0.000000 0.000000 0.000000
# 3 -0.002780 -0.002780 0.008789 0.000000 0.000000 0.000000
# 4 0.000000 0.000000 0.000000 0.096631 0.000000 0.000000
# 5 0.000000 0.000000 0.000000 0.000000 0.096632 0.000000
# 6 0.000000 0.000000 0.000000 0.000000 0.000000 0.019474
#
#
# Mechanical properties :
#
#
# Convention : Reuss Voigt Hill
#
# Bulk Modulus (GPa) = 105.97765 105.98815 105.98290
# Shear Modulus (GPa) = 20.63555 53.80662 37.22109
#
# Velocity S-wave (km/s) = 3.47004 5.60330 4.66037
# Velocity P-wave (km/s) = 8.82578 10.18372 9.52897
#
# Compressibility (1/GPa) = 0.00943595
#
# Stress axis : x y z
#
# Youngs Moduli (GPa) = 218.87071 218.87345 113.77362
#
# Poissons Ratio (x) = -0.28754 0.31625
# Poissons Ratio (y) = -0.28754 0.31625
# Poissons Ratio (z) = 0.60839 0.60839
#
# Static dielectric constant tensor:
#      x y z
#    x 1.581480 0.000000 0.000000 
#    y 0.000000 1.581470 0.000000 
#    z 0.000000 0.000000 1.570270 
# 
# From -- ./inp_files/7468.got.cif
#   From: 2010.05.17/outbox.cif.g08.bks.cpg/sg140_4_cif.got.tgz:7468.got - 2010.06.21 00:45:31.
