data_PCOD9572781
_publ_section_title
;
Structure prediction by ZEFSAII (Michael W. Deem and Ramdas Pophale) SiO2 
 PCOD9572781
Probable space group: I 41/A M D
;
_chemical_formula_sum "Si O2"
_cell_formula_units_Z 144
_cell_length_a 17.006916
_cell_length_b 17.006916
_cell_length_c 21.883847
_cell_angle_alpha 90.000000
_cell_angle_beta 90.000000
_cell_angle_gamma 90.000000
_cell_volume 6329.578685
_symmetry_space_group_name_H-M "I 41/A M D"
_symmetry_group_IT_number 141
_space_group.IT_coordinate_system_code '2'
_symmetry_cell_setting 'tetragonal'
loop_
_space_group_symop_operation_xyz
x,y,z
1/4-y,3/4+x,1/4+z
-x,1/2-y,z
1/4+y,1/4-x,3/4+z
x,-y,-z
-x,1/2+y,-z
1/4+y,3/4+x,1/4-z
1/4-y,1/4-x,3/4-z
-x,-y,-z
3/4+y,1/4-x,3/4-z
x,1/2+y,-z
3/4-y,3/4+x,1/4-z
-x,y,z
x,1/2-y,z
3/4-y,1/4-x,3/4+z
3/4+y,3/4+x,1/4+z
1/2+x,1/2+y,1/2+z
3/4-y,1/4+x,3/4+z
1/2-x,-y,1/2+z
3/4+y,3/4-x,1/4+z
1/2+x,1/2-y,1/2-z
1/2-x,y,1/2-z
3/4+y,1/4+x,3/4-z
3/4-y,3/4-x,1/4-z
1/2-x,1/2-y,1/2-z
1/4+y,3/4-x,1/4-z
1/2+x,y,1/2-z
1/4-y,1/4+x,3/4-z
1/2-x,1/2+y,1/2+z
1/2+x,-y,1/2+z
1/4-y,3/4-x,1/4+z
1/4+y,1/4+x,3/4+z
loop_
_atom_site_type_symbol
_atom_site_label
_atom_site_fract_x
_atom_site_fract_y
_atom_site_fract_z
Si Si1 0.859452 0.609452 0.125000
Si Si2 0.344610 0.342469 0.250230
Si Si3 0.589133 0.975528 0.825679
Si Si4 0.326364 0.383737 0.876984
Si Si5 0.911344 0.869263 0.257444
O O1 0.766313 0.623809 0.119150
O O2 0.898222 0.636652 0.061482
O O3 0.357421 0.250000 0.246205
O O4 0.250000 0.356462 0.250000
O O5 0.382244 0.391440 0.195205
O O6 0.385401 0.376726 0.311578
O O7 0.500000 0.975651 0.850707
O O8 0.648040 0.024868 0.867504
O O9 0.588840 0.035297 0.767114
O O10 0.357278 0.343747 0.814350
O O11 0.000000 0.842917 0.268385
#
# Coordination Sequence:
#
# PCOD9572781 Si02
#       5
#    16  32  32  32  32
#     4  12  18  30  62  85  98 135 190 226 256 318
#     4  11  21  32  50  78 107 140 185 226 259 309
#     4   9  19  34  49  71 106 140 170 215 274 317
#     4  10  18  32  52  77 106 132 176 224 266 305
#     4   9  20  34  51  80 111 137 165 217 281 320
#
# _framework density 22.750329000000001
#
# number of rings (size 3 to 8) (size 9 to 14) (size 15 to 20)
#    1.333    0.667    2.222    3.333    0.000    0.444 
#    0.000    0.000    0.000    4.333    0.000    3.111 
#    0.000    0.000    0.000    0.000    0.000    0.000 
#
# Total GULP energy -401591.941709 kJ/mol
# GULP energy per Si atom -5577.665857 kJ/mol
# Density = 2.269855 g / cm^3
# Si number density = 22.750329 Si / 1000 Ang^3
#
#
#
# Elastic Constant Matrix: (Units=GPa)
#
#
# Indices 1 2 3 4 5 6 
#
# 1 58.3677 4.1125 4.7476 0.0000 0.0000 0.0000
# 2 4.1125 58.3677 4.7476 0.0000 0.0000 0.0000
# 3 4.7476 4.7476 136.3310 0.0000 0.0000 0.0000
# 4 0.0000 0.0000 0.0000 3.1070 0.0000 0.0000
# 5 0.0000 0.0000 0.0000 0.0000 3.1070 0.0000
# 6 0.0000 0.0000 0.0000 0.0000 0.0000 2.2492
#
#
#
# Elastic Compliance Matrix: (Units=1/GPa)
#
#
# Indices 1 2 3 4 5 6 
#
# 1 0.017261 -0.001171 -0.000560 0.000000 0.000000 0.000000
# 2 -0.001171 0.017261 -0.000560 0.000000 0.000000 0.000000
# 3 -0.000560 -0.000560 0.007374 0.000000 0.000000 0.000000
# 4 0.000000 0.000000 0.000000 0.321854 0.000000 0.000000
# 5 0.000000 0.000000 0.000000 0.000000 0.321854 0.000000
# 6 0.000000 0.000000 0.000000 0.000000 0.000000 0.444602
#
#
# Mechanical properties :
#
#
# Convention : Reuss Voigt Hill
#
# Bulk Modulus (GPa) = 26.80010 31.14240 28.97125
# Shear Modulus (GPa) = 4.35834 17.65656 11.00745
#
# Velocity S-wave (km/s) = 1.38560 2.78888 2.20202
# Velocity P-wave (km/s) = 3.79019 4.90805 4.38489
#
# Compressibility (1/GPa) = 0.03731329
#
# Stress axis : x y z
#
# Youngs Moduli (GPa) = 57.93468 57.93468 135.60954
#
# Poissons Ratio (x) = 0.06782 0.07599
# Poissons Ratio (y) = 0.06782 0.07599
# Poissons Ratio (z) = 0.03246 0.03246
#
# Static dielectric constant tensor:
#      x y z
#    x 1.827190 0.000000 0.000000 
#    y 0.000000 1.827190 0.000000 
#    z 0.000000 0.000000 1.952350 
# 
# From -- ./inp_files/10313.got.cif
#   From: 2010.05.17/outbox.cif.g08.bks.cpg/sg141_6_cif.got.tgz:10313.got - 2010.05.20 13:30:51.
