data_PCOD9572298
_publ_section_title
;
Structure prediction by ZEFSAII (Michael W. Deem and Ramdas Pophale) SiO2 
 PCOD9572298
Probable space group: I 4/M C M
;
_chemical_formula_sum "Si O2"
_cell_formula_units_Z 144
_cell_length_a 30.092255
_cell_length_b 30.092255
_cell_length_c 8.559870
_cell_angle_alpha 90.000000
_cell_angle_beta 90.000000
_cell_angle_gamma 90.000000
_cell_volume 7751.337301
_symmetry_space_group_name_H-M "I 4/M C M"
_symmetry_group_IT_number 140
_symmetry_cell_setting 'tetragonal'
loop_
_space_group_symop_operation_xyz
x,y,z
-y,x,z
-x,-y,z
y,-x,z
x,-y,1/2-z
-x,y,1/2-z
y,x,1/2-z
-y,-x,1/2-z
-x,-y,-z
y,-x,-z
x,y,-z
-y,x,-z
-x,y,1/2+z
x,-y,1/2+z
-y,-x,1/2+z
y,x,1/2+z
1/2+x,1/2+y,1/2+z
1/2-y,1/2+x,1/2+z
1/2-x,1/2-y,1/2+z
1/2+y,1/2-x,1/2+z
1/2+x,1/2-y,-z
1/2-x,1/2+y,-z
1/2+y,1/2+x,-z
1/2-y,1/2-x,-z
1/2-x,1/2-y,1/2-z
1/2+y,1/2-x,1/2-z
1/2+x,1/2+y,1/2-z
1/2-y,1/2+x,1/2-z
1/2-x,1/2+y,z
1/2+x,1/2-y,z
1/2-y,1/2-x,z
1/2+y,1/2+x,z
loop_
_atom_site_type_symbol
_atom_site_label
_atom_site_fract_x
_atom_site_fract_y
_atom_site_fract_z
Si Si1 0.876864 0.551187 0.687676
Si Si2 0.547437 0.383585 0.186739
Si Si3 0.953066 0.782579 0.187581
Si Si4 0.294516 0.888635 0.810833
Si Si5 0.213851 0.286150 0.811658
O O1 0.873696 0.500000 0.750000
O O2 0.874052 0.548969 0.500000
O O3 0.923066 0.576935 0.729737
O O4 0.837480 0.584713 0.745950
O O5 0.500000 0.399247 0.250000
O O6 0.585899 0.414102 0.250000
O O7 0.553758 0.332895 0.242452
O O8 0.546822 0.384145 0.000000
O O9 0.916505 0.748195 0.237870
O O10 0.000000 0.766538 0.250000
O O11 0.954035 0.783325 0.000000
O O12 0.281855 0.838188 0.765310
O O13 0.299752 0.888396 0.000000
O O14 0.250000 0.250000 0.750000
O O15 0.216649 0.283352 0.000000
#
# Coordination Sequence:
#
# PCOD9572298 Si02
#       5
#    32  32  32  32  16
#     4  11  24  40  61  90 122 159 203 251 304 362
#     4  10  20  35  53  76 106 140 179 226 277 335
#     4   9  19  34  54  80 109 140 181 227 277 332
#     4  10  20  38  61  85 116 156 198 243 295 350
#     4  10  22  38  58  84 117 156 195 240 292 347
#
# _framework density 18.577439999999999
#
# number of rings (size 3 to 8) (size 9 to 14) (size 15 to 20)
#    0.000    2.000    1.111    2.000    0.000    7.111 
#    0.000    2.222    0.000    0.000    0.000    0.000 
#    0.000    0.000    0.000    0.000    0.000    0.000 
#
# Total GULP energy -401202.768034 kJ/mol
# GULP energy per Si atom -5572.260667 kJ/mol
# Density = 1.853516 g / cm^3
# Si number density = 18.577440 Si / 1000 Ang^3
#
#
#
# Elastic Constant Matrix: (Units=GPa)
#
#
# Indices 1 2 3 4 5 6 
#
# 1 110.7129 122.7948 27.6180 0.0000 0.0000 0.0000
# 2 122.7948 110.7609 27.6245 0.0000 0.0000 0.0000
# 3 27.6180 27.6245 30.3078 0.0000 0.0000 0.0000
# 4 0.0000 0.0000 0.0000 25.2462 0.0000 0.0000
# 5 0.0000 0.0000 0.0000 0.0000 25.2476 0.0000
# 6 0.0000 0.0000 0.0000 0.0000 0.0000 46.4798
#
#
#
# Elastic Compliance Matrix: (Units=1/GPa)
#
#
# Indices 1 2 3 4 5 6 
#
# 1 -0.038745 0.044196 -0.004977 0.000000 0.000000 0.000000
# 2 0.044196 -0.038729 -0.004974 0.000000 0.000000 0.000000
# 3 -0.004977 -0.004974 0.042063 0.000000 0.000000 0.000000
# 4 0.000000 0.000000 0.000000 0.039610 0.000000 0.000000
# 5 0.000000 0.000000 0.000000 0.000000 0.039608 0.000000
# 6 0.000000 0.000000 0.000000 0.000000 0.000000 0.021515
#
#
# Mechanical properties :
#
#
# Convention : Reuss Voigt Hill
#
# Bulk Modulus (GPa) = 30.22917 67.53959 48.88438
# Shear Modulus (GPa) = 636.48942 24.31101 330.40021
#
# Velocity S-wave (km/s) = 18.52992 3.62142 13.35052
# Velocity P-wave (km/s) = 21.77425 7.34309 16.24867
#
# Compressibility (1/GPa) = 0.03308063
#
# Stress axis : x y z
#
# Youngs Moduli (GPa) = -25.80952 -25.82040 23.77388
#
# Poissons Ratio (x) = 1.14116 0.11831
# Poissons Ratio (y) = 1.14068 0.11824
# Poissons Ratio (z) = -0.12844 -0.12842
#
# Static dielectric constant tensor:
#      x y z
#    x 1.642040 0.000000 0.000000 
#    y 0.000000 1.642050 0.000000 
#    z 0.000000 0.000000 1.635160 
# 
# From -- ./inp_files/1643.got.cif
#   From: 2010.05.17/outbox.cif.g08.bks.cpg/sg140_1_cif.got.tgz:1643.got - 2010.06.21 00:45:31.
