data_PCOD9572420
_publ_section_title
;
Structure prediction by ZEFSAII (Michael W. Deem and Ramdas Pophale) SiO2 
 PCOD9572420
Probable space group: I 4/M C M
;
_chemical_formula_sum "Si O2"
_cell_formula_units_Z 112
_cell_length_a 17.083157
_cell_length_b 17.083157
_cell_length_c 18.277538
_cell_angle_alpha 90.000000
_cell_angle_beta 90.000000
_cell_angle_gamma 90.000000
_cell_volume 5334.011650
_symmetry_space_group_name_H-M "I 4/M C M"
_symmetry_group_IT_number 140
_symmetry_cell_setting 'tetragonal'
loop_
_space_group_symop_operation_xyz
x,y,z
-y,x,z
-x,-y,z
y,-x,z
x,-y,1/2-z
-x,y,1/2-z
y,x,1/2-z
-y,-x,1/2-z
-x,-y,-z
y,-x,-z
x,y,-z
-y,x,-z
-x,y,1/2+z
x,-y,1/2+z
-y,-x,1/2+z
y,x,1/2+z
1/2+x,1/2+y,1/2+z
1/2-y,1/2+x,1/2+z
1/2-x,1/2-y,1/2+z
1/2+y,1/2-x,1/2+z
1/2+x,1/2-y,-z
1/2-x,1/2+y,-z
1/2+y,1/2+x,-z
1/2-y,1/2-x,-z
1/2-x,1/2-y,1/2-z
1/2+y,1/2-x,1/2-z
1/2+x,1/2+y,1/2-z
1/2-y,1/2+x,1/2-z
1/2-x,1/2+y,z
1/2+x,1/2-y,z
1/2-y,1/2-x,z
1/2+y,1/2+x,z
loop_
_atom_site_type_symbol
_atom_site_label
_atom_site_fract_x
_atom_site_fract_y
_atom_site_fract_z
Si Si1 0.202995 0.078177 0.768489
Si Si2 0.781873 0.413458 0.620463
Si Si3 0.289155 0.344505 0.417083
Si Si4 0.369382 0.996182 0.500000
O O1 0.156465 0.156465 0.750000
O O2 0.270076 0.070372 0.706695
O O3 0.219751 0.091524 0.853407
O O4 0.154413 0.000000 0.750000
O O5 0.845222 0.345222 0.613298
O O6 0.701620 0.372320 0.592442
O O7 0.816970 0.481780 0.570267
O O8 0.284615 0.374329 0.500000
O O9 0.220489 0.279512 0.407287
O O10 0.440634 0.059367 0.500000
O O11 0.411350 0.911350 0.500000
#
# Coordination Sequence:
#
# PCOD9572420 Si02
#       4
#    32  32  32  16
#     4  10  21  36  53  77 107 148 190 239 298 353
#     4   9  16  31  55  80 111 148 187 231 284 349
#     4   9  16  31  57  87 112 139 186 245 298 348
#     4   9  16  28  50  82 118 153 182 212 267 350
#
# _framework density 20.997330000000002
#
# number of rings (size 3 to 8) (size 9 to 14) (size 15 to 20)
#    0.000    2.714    1.429    0.857    0.000    3.714 
#    2.571    2.857    0.000    0.000    0.000    4.000 
#    0.000    0.000    0.000    0.571    0.000    0.000 
#
# Total GULP energy -311920.313363 kJ/mol
# GULP energy per Si atom -5570.005596 kJ/mol
# Density = 2.094954 g / cm^3
# Si number density = 20.997330 Si / 1000 Ang^3
#
#
#
# Elastic Constant Matrix: (Units=GPa)
#
#
# Indices 1 2 3 4 5 6 
#
# 1 75.8963 34.3690 74.2053 0.0000 0.0000 0.0000
# 2 34.3690 75.8965 74.2053 0.0000 0.0000 0.0000
# 3 74.2053 74.2053 228.6614 0.0000 0.0000 0.0000
# 4 0.0000 0.0000 0.0000 36.9053 0.0000 0.0000
# 5 0.0000 0.0000 0.0000 0.0000 36.9052 0.0000
# 6 0.0000 0.0000 0.0000 0.0000 0.0000 32.9641
#
#
#
# Elastic Compliance Matrix: (Units=1/GPa)
#
#
# Indices 1 2 3 4 5 6 
#
# 1 0.020091 -0.003989 -0.005226 0.000000 0.000000 0.000000
# 2 -0.003989 0.020091 -0.005225 0.000000 0.000000 0.000000
# 3 -0.005226 -0.005225 0.007765 0.000000 0.000000 0.000000
# 4 0.000000 0.000000 0.000000 0.027096 0.000000 0.000000
# 5 0.000000 0.000000 0.000000 0.000000 0.027096 0.000000
# 6 0.000000 0.000000 0.000000 0.000000 0.000000 0.030336
#
#
# Mechanical properties :
#
#
# Convention : Reuss Voigt Hill
#
# Bulk Modulus (GPa) = 52.44579 82.89037 67.66808
# Shear Modulus (GPa) = 29.81292 34.53322 32.17307
#
# Velocity S-wave (km/s) = 3.77217 4.05983 3.91864
# Velocity P-wave (km/s) = 6.63355 7.84465 7.26438
#
# Compressibility (1/GPa) = 0.01906731
#
# Stress axis : x y z
#
# Youngs Moduli (GPa) = 49.77257 49.77269 128.78560
#
# Poissons Ratio (x) = 0.19855 0.67297
# Poissons Ratio (y) = 0.19855 0.67297
# Poissons Ratio (z) = 0.26009 0.26009
#
# Static dielectric constant tensor:
#      x y z
#    x 1.833870 0.000000 0.000000 
#    y 0.000000 1.833870 0.000000 
#    z 0.000000 0.000000 1.795550 
# 
# From -- ./inp_files/6126.got.cif
#   From: 2010.05.17/outbox.cif.g08.bks.cpg/sg140_4_cif.got.tgz:6126.got - 2010.06.21 00:45:31.
