data_PCOD9572665
_publ_section_title
;
Structure prediction by ZEFSAII (Michael W. Deem and Ramdas Pophale) SiO2 
 PCOD9572665
Probable space group: I 4/M C M
;
_chemical_formula_sum "Si O2"
_cell_formula_units_Z 192
_cell_length_a 17.685215
_cell_length_b 17.685215
_cell_length_c 31.270884
_cell_angle_alpha 90.000000
_cell_angle_beta 90.000000
_cell_angle_gamma 90.000000
_cell_volume 9780.495247
_symmetry_space_group_name_H-M "I 4/M C M"
_symmetry_group_IT_number 140
_symmetry_cell_setting 'tetragonal'
loop_
_space_group_symop_operation_xyz
x,y,z
-y,x,z
-x,-y,z
y,-x,z
x,-y,1/2-z
-x,y,1/2-z
y,x,1/2-z
-y,-x,1/2-z
-x,-y,-z
y,-x,-z
x,y,-z
-y,x,-z
-x,y,1/2+z
x,-y,1/2+z
-y,-x,1/2+z
y,x,1/2+z
1/2+x,1/2+y,1/2+z
1/2-y,1/2+x,1/2+z
1/2-x,1/2-y,1/2+z
1/2+y,1/2-x,1/2+z
1/2+x,1/2-y,-z
1/2-x,1/2+y,-z
1/2+y,1/2+x,-z
1/2-y,1/2-x,-z
1/2-x,1/2-y,1/2-z
1/2+y,1/2-x,1/2-z
1/2+x,1/2+y,1/2-z
1/2-y,1/2+x,1/2-z
1/2-x,1/2+y,z
1/2+x,1/2-y,z
1/2-y,1/2-x,z
1/2+y,1/2+x,z
loop_
_atom_site_type_symbol
_atom_site_label
_atom_site_fract_x
_atom_site_fract_y
_atom_site_fract_z
Si Si1 0.771414 0.608359 0.800577
Si Si2 0.237949 0.957516 0.889472
Si Si3 0.613725 0.613725 0.750000
Si Si4 0.470493 0.618389 0.662533
Si Si5 0.675715 0.698472 0.449539
Si Si6 0.303786 0.071098 0.049854
Si Si7 0.878657 0.500000 0.750000
O O1 0.814481 0.685520 0.790696
O O2 0.764360 0.595536 0.850860
O O3 0.690793 0.609377 0.777376
O O4 0.823929 0.540605 0.783410
O O5 0.195128 0.900403 0.921770
O O6 0.195097 0.025984 0.863586
O O7 0.298289 0.000546 0.918700
O O8 0.619430 0.547819 0.713496
O O9 0.412982 0.553065 0.650239
O O10 0.657447 0.703422 0.500000
O O11 0.728082 0.771919 0.438726
O O12 0.730547 0.625871 0.444225
O O13 0.376213 0.123788 0.057629
O O14 0.304181 0.047966 0.000000
O O15 0.934529 0.434529 0.767516
#
# Coordination Sequence:
#
# PCOD9572665 Si02
#       7
#    32  32  16  32  32  32  16
#     4  11  24  39  59  87 117 151 199 253 303 359
#     4  12  21  36  58  90 119 154 196 251 292 355
#     4  12  23  43  58  78 120 168 204 252 310 366
#     4  11  23  37  56  83 117 158 204 246 292 358
#     4   9  19  38  62  86 118 159 199 241 298 361
#     4   9  20  38  60  88 121 156 195 241 298 364
#     4   9  20  42  64  80 107 150 198 248 307 366
#
# _framework density 19.630907000000001
#
# number of rings (size 3 to 8) (size 9 to 14) (size 15 to 20)
#    0.000    1.583    1.667    4.750    0.000    1.333 
#    0.000    0.833    0.000    1.500    0.000   12.833 
#    0.000    0.000    0.000    0.000    0.000    0.000 
#
# Total GULP energy -534798.843420 kJ/mol
# GULP energy per Si atom -5570.821286 kJ/mol
# Density = 1.958623 g / cm^3
# Si number density = 19.630907 Si / 1000 Ang^3
#
#
#
# Elastic Constant Matrix: (Units=GPa)
#
#
# Indices 1 2 3 4 5 6 
#
# 1 47.1753 10.8939 18.8198 0.0000 0.0000 0.0000
# 2 10.8939 47.1753 18.8198 0.0000 0.0000 0.0000
# 3 18.8198 18.8198 77.1760 0.0000 0.0000 0.0000
# 4 0.0000 0.0000 0.0000 28.2760 0.0000 0.0000
# 5 0.0000 0.0000 0.0000 0.0000 28.2760 0.0000
# 6 0.0000 0.0000 0.0000 0.0000 0.0000 17.9106
#
#
#
# Elastic Compliance Matrix: (Units=1/GPa)
#
#
# Indices 1 2 3 4 5 6 
#
# 1 0.024008 -0.003554 -0.004988 0.000000 0.000000 0.000000
# 2 -0.003554 0.024008 -0.004988 0.000000 0.000000 0.000000
# 3 -0.004988 -0.004988 0.015390 0.000000 0.000000 0.000000
# 4 0.000000 0.000000 0.000000 0.035366 0.000000 0.000000
# 5 0.000000 0.000000 0.000000 0.000000 0.035366 0.000000
# 6 0.000000 0.000000 0.000000 0.000000 0.000000 0.055833
#
#
# Mechanical properties :
#
#
# Convention : Reuss Voigt Hill
#
# Bulk Modulus (GPa) = 27.51294 29.84372 28.67833
# Shear Modulus (GPa) = 21.82021 23.09206 22.45614
#
# Velocity S-wave (km/s) = 3.33757 3.43346 3.38585
# Velocity P-wave (km/s) = 5.37569 5.56360 5.47045
#
# Compressibility (1/GPa) = 0.03634654
#
# Stress axis : x y z
#
# Youngs Moduli (GPa) = 41.65266 41.65266 64.97737
#
# Poissons Ratio (x) = 0.14804 0.32409
# Poissons Ratio (y) = 0.14804 0.32409
# Poissons Ratio (z) = 0.20775 0.20775
#
# Static dielectric constant tensor:
#      x y z
#    x 1.707120 0.000000 0.000000 
#    y 0.000000 1.707120 0.000000 
#    z 0.000000 0.000000 1.702110 
# 
# From -- ./inp_files/11636.got.cif
#   From: 2010.05.17/outbox.cif.g08.bks.cpg/sg140_6_cif.got.tgz:11636.got - 2010.06.21 00:45:31.
