data_PCOD9572254
_publ_section_title
;
Structure prediction by ZEFSAII (Michael W. Deem and Ramdas Pophale) SiO2 
 PCOD9572254
Probable space group: I 4/M C M
;
_chemical_formula_sum "Si O2"
_cell_formula_units_Z 160
_cell_length_a 21.078802
_cell_length_b 21.078802
_cell_length_c 17.848126
_cell_angle_alpha 90.000000
_cell_angle_beta 90.000000
_cell_angle_gamma 90.000000
_cell_volume 7930.206056
_symmetry_space_group_name_H-M "I 4/M C M"
_symmetry_group_IT_number 140
_symmetry_cell_setting 'tetragonal'
loop_
_space_group_symop_operation_xyz
x,y,z
-y,x,z
-x,-y,z
y,-x,z
x,-y,1/2-z
-x,y,1/2-z
y,x,1/2-z
-y,-x,1/2-z
-x,-y,-z
y,-x,-z
x,y,-z
-y,x,-z
-x,y,1/2+z
x,-y,1/2+z
-y,-x,1/2+z
y,x,1/2+z
1/2+x,1/2+y,1/2+z
1/2-y,1/2+x,1/2+z
1/2-x,1/2-y,1/2+z
1/2+y,1/2-x,1/2+z
1/2+x,1/2-y,-z
1/2-x,1/2+y,-z
1/2+y,1/2+x,-z
1/2-y,1/2-x,-z
1/2-x,1/2-y,1/2-z
1/2+y,1/2-x,1/2-z
1/2+x,1/2+y,1/2-z
1/2-y,1/2+x,1/2-z
1/2-x,1/2+y,z
1/2+x,1/2-y,z
1/2-y,1/2-x,z
1/2+y,1/2+x,z
loop_
_atom_site_type_symbol
_atom_site_label
_atom_site_fract_x
_atom_site_fract_y
_atom_site_fract_z
Si Si1 0.329300 0.930594 0.769552
Si Si2 0.759426 0.559853 0.912242
Si Si3 0.205767 0.193726 0.589362
Si Si4 0.073379 0.783266 0.156429
Si Si5 0.548604 0.594571 0.915104
O O1 0.374687 0.874687 0.742942
O O2 0.318336 0.927290 0.858050
O O3 0.259749 0.927887 0.730353
O O4 0.355740 0.000000 0.750000
O O5 0.711820 0.618507 0.894707
O O6 0.736589 0.489134 0.890914
O O7 0.773094 0.562993 0.000000
O O8 0.204327 0.198794 0.500000
O O9 0.267663 0.232338 0.617010
O O10 0.142478 0.225787 0.620519
O O11 0.067095 0.859283 0.152371
O O12 0.473504 0.581824 0.911869
O O13 0.562787 0.620849 0.000000
#
# Coordination Sequence:
#
# PCOD9572254 Si02
#       5
#    32  32  32  32  32
#     4  10  23  41  61  86 112 143 184 234 297 360
#     4  10  21  38  60  84 112 149 193 237 279 333
#     4  10  20  33  53  82 114 150 191 234 281 332
#     4  11  20  33  54  83 118 151 185 230 285 345
#     4   9  17  30  52  84 122 165 210 248 279 320
#
# _framework density 20.176020000000001
#
# number of rings (size 3 to 8) (size 9 to 14) (size 15 to 20)
#    0.000    2.000    0.000    4.800    0.000    5.400 
#    0.000    4.000    0.000    6.600    0.000   18.200 
#    0.000    0.000    0.000    0.000    0.000    0.000 
#
# Total GULP energy -446008.670831 kJ/mol
# GULP energy per Si atom -5575.108385 kJ/mol
# Density = 2.013010 g / cm^3
# Si number density = 20.176020 Si / 1000 Ang^3
#
#
#
# Elastic Constant Matrix: (Units=GPa)
#
#
# Indices 1 2 3 4 5 6 
#
# 1 81.6641 39.4146 39.7472 0.0000 0.0000 0.0000
# 2 39.4146 81.6641 39.7472 0.0000 0.0000 0.0000
# 3 39.7472 39.7472 73.8536 0.0000 0.0000 0.0000
# 4 0.0000 0.0000 0.0000 21.1524 0.0000 0.0000
# 5 0.0000 0.0000 0.0000 0.0000 21.1524 0.0000
# 6 0.0000 0.0000 0.0000 0.0000 0.0000 30.4680
#
#
#
# Elastic Compliance Matrix: (Units=1/GPa)
#
#
# Indices 1 2 3 4 5 6 
#
# 1 0.018221 -0.005448 -0.006874 0.000000 0.000000 0.000000
# 2 -0.005448 0.018221 -0.006874 0.000000 0.000000 0.000000
# 3 -0.006874 -0.006874 0.020939 0.000000 0.000000 0.000000
# 4 0.000000 0.000000 0.000000 0.047276 0.000000 0.000000
# 5 0.000000 0.000000 0.000000 0.000000 0.047276 0.000000
# 6 0.000000 0.000000 0.000000 0.000000 0.000000 0.032821
#
#
# Mechanical properties :
#
#
# Convention : Reuss Voigt Hill
#
# Bulk Modulus (GPa) = 52.66459 52.77776 52.72117
# Shear Modulus (GPa) = 21.78886 22.43939 22.11412
#
# Velocity S-wave (km/s) = 3.28981 3.33856 3.31427
# Velocity P-wave (km/s) = 6.37100 6.40911 6.39009
#
# Compressibility (1/GPa) = 0.01898809
#
# Stress axis : x y z
#
# Youngs Moduli (GPa) = 54.88319 54.88319 47.75749
#
# Poissons Ratio (x) = 0.29903 0.32828
# Poissons Ratio (y) = 0.29903 0.32828
# Poissons Ratio (z) = 0.37726 0.37726
#
# Static dielectric constant tensor:
#      x y z
#    x 1.754950 0.000000 0.000000 
#    y 0.000000 1.754950 0.000000 
#    z 0.000000 0.000000 1.731750 
# 
# From -- ./inp_files/6779.got.cif
#   From: 2010.05.17/outbox.cif.g08.bks.cpg/sg140_4_cif.got.tgz:6779.got - 2010.06.21 00:45:31.
