data_PCOD9572509
_publ_section_title
;
Structure prediction by ZEFSAII (Michael W. Deem and Ramdas Pophale) SiO2 
 PCOD9572509
Probable space group: I 4/M C M
;
_chemical_formula_sum "Si O2"
_cell_formula_units_Z 84
_cell_length_a 14.359608
_cell_length_b 14.359608
_cell_length_c 23.362018
_cell_angle_alpha 90.000000
_cell_angle_beta 90.000000
_cell_angle_gamma 90.000000
_cell_volume 4817.209375
_symmetry_space_group_name_H-M "I 4/M C M"
_symmetry_group_IT_number 140
_symmetry_cell_setting 'tetragonal'
loop_
_space_group_symop_operation_xyz
x,y,z
-y,x,z
-x,-y,z
y,-x,z
x,-y,1/2-z
-x,y,1/2-z
y,x,1/2-z
-y,-x,1/2-z
-x,-y,-z
y,-x,-z
x,y,-z
-y,x,-z
-x,y,1/2+z
x,-y,1/2+z
-y,-x,1/2+z
y,x,1/2+z
1/2+x,1/2+y,1/2+z
1/2-y,1/2+x,1/2+z
1/2-x,1/2-y,1/2+z
1/2+y,1/2-x,1/2+z
1/2+x,1/2-y,-z
1/2-x,1/2+y,-z
1/2+y,1/2+x,-z
1/2-y,1/2-x,-z
1/2-x,1/2-y,1/2-z
1/2+y,1/2-x,1/2-z
1/2+x,1/2+y,1/2-z
1/2-y,1/2+x,1/2-z
1/2-x,1/2+y,z
1/2+x,1/2-y,z
1/2-y,1/2-x,z
1/2+y,1/2+x,z
loop_
_atom_site_type_symbol
_atom_site_label
_atom_site_fract_x
_atom_site_fract_y
_atom_site_fract_z
Si Si1 0.610392 0.889609 0.345709
Si Si2 0.931253 0.285715 0.104364
Si Si3 0.500000 0.000000 0.750000
Si Si4 0.763418 0.736583 0.317658
Si Si5 0.530210 0.651888 0.000000
O O1 0.521695 0.841956 0.375631
O O2 0.689493 0.810508 0.342021
O O3 0.566561 0.933440 0.287713
O O4 0.859923 0.359923 0.077295
O O5 0.868538 0.246356 0.157648
O O6 0.957098 0.210953 0.057394
O O7 0.750000 0.750000 0.250000
O O8 0.429380 0.605838 0.000000
#
# Coordination Sequence:
#
# PCOD9572509 Si02
#       5
#    16  32   4  16  16
#     4  12  20  39  62  86 127 158 202 267 298 373
#     4  10  22  39  60  94 118 161 209 249 314 370
#     4  12  20  36  60  94 116 168 208 244 324 370
#     4  10  22  36  59  92 128 162 200 254 310 366
#     4  11  23  41  62  85 124 169 206 253 310 374
#
# _framework density 17.437481999999999
#
# number of rings (size 3 to 8) (size 9 to 14) (size 15 to 20)
#    1.143    0.190    1.905    5.143    0.000    0.762 
#    3.429    1.905    0.000    0.000    0.000    2.667 
#    0.000    0.000    0.000    0.000    0.000    0.000 
#
# Total GULP energy -233862.708115 kJ/mol
# GULP energy per Si atom -5568.159717 kJ/mol
# Density = 1.739779 g / cm^3
# Si number density = 17.437482 Si / 1000 Ang^3
#
#
#
# Elastic Constant Matrix: (Units=GPa)
#
#
# Indices 1 2 3 4 5 6 
#
# 1 132.5296 73.2947 70.8467 0.0000 0.0000 0.0000
# 2 73.2947 132.5296 70.8467 0.0000 0.0000 0.0000
# 3 70.8467 70.8467 131.5357 0.0000 0.0000 0.0000
# 4 0.0000 0.0000 0.0000 23.2915 0.0000 0.0000
# 5 0.0000 0.0000 0.0000 0.0000 23.2915 0.0000
# 6 0.0000 0.0000 0.0000 0.0000 0.0000 82.2952
#
#
#
# Elastic Compliance Matrix: (Units=1/GPa)
#
#
# Indices 1 2 3 4 5 6 
#
# 1 0.012302 -0.004580 -0.004159 0.000000 0.000000 0.000000
# 2 -0.004580 0.012302 -0.004159 0.000000 0.000000 0.000000
# 3 -0.004159 -0.004159 0.012083 0.000000 0.000000 0.000000
# 4 0.000000 0.000000 0.000000 0.042934 0.000000 0.000000
# 5 0.000000 0.000000 0.000000 0.000000 0.042934 0.000000
# 6 0.000000 0.000000 0.000000 0.000000 0.000000 0.012151
#
#
# Mechanical properties :
#
#
# Convention : Reuss Voigt Hill
#
# Bulk Modulus (GPa) = 91.82706 91.84125 91.83416
# Shear Modulus (GPa) = 30.46330 37.88275 34.17303
#
# Velocity S-wave (km/s) = 4.18425 4.66605 4.43170
# Velocity P-wave (km/s) = 8.72462 9.04503 8.88627
#
# Compressibility (1/GPa) = 0.01089004
#
# Stress axis : x y z
#
# Youngs Moduli (GPa) = 81.28898 81.28898 82.76340
#
# Poissons Ratio (x) = 0.37232 0.34421
# Poissons Ratio (y) = 0.37232 0.34421
# Poissons Ratio (z) = 0.33808 0.33808
#
# Static dielectric constant tensor:
#      x y z
#    x 1.582570 0.000000 0.000000 
#    y 0.000000 1.582570 0.000000 
#    z 0.000000 0.000000 1.588810 
# 
# From -- ./inp_files/7621.got.cif
#   From: 2010.05.17/outbox.cif.g08.bks.cpg/sg140_4_cif.got.tgz:7621.got - 2010.06.21 00:45:31.
