data_PCOD9572840
_publ_section_title
;
Structure prediction by ZEFSAII (Michael W. Deem and Ramdas Pophale) SiO2 
 PCOD9572840
Probable space group: I 41/A M D
;
_chemical_formula_sum "Si O2"
_cell_formula_units_Z 64
_cell_length_a 19.471224
_cell_length_b 19.471224
_cell_length_c 7.520299
_cell_angle_alpha 90.000000
_cell_angle_beta 90.000000
_cell_angle_gamma 90.000000
_cell_volume 2851.160161
_symmetry_space_group_name_H-M "I 41/A M D"
_symmetry_group_IT_number 141
_space_group.IT_coordinate_system_code '2'
_symmetry_cell_setting 'tetragonal'
loop_
_space_group_symop_operation_xyz
x,y,z
1/4-y,3/4+x,1/4+z
-x,1/2-y,z
1/4+y,1/4-x,3/4+z
x,-y,-z
-x,1/2+y,-z
1/4+y,3/4+x,1/4-z
1/4-y,1/4-x,3/4-z
-x,-y,-z
3/4+y,1/4-x,3/4-z
x,1/2+y,-z
3/4-y,3/4+x,1/4-z
-x,y,z
x,1/2-y,z
3/4-y,1/4-x,3/4+z
3/4+y,3/4+x,1/4+z
1/2+x,1/2+y,1/2+z
3/4-y,1/4+x,3/4+z
1/2-x,-y,1/2+z
3/4+y,3/4-x,1/4+z
1/2+x,1/2-y,1/2-z
1/2-x,y,1/2-z
3/4+y,1/4+x,3/4-z
3/4-y,3/4-x,1/4-z
1/2-x,1/2-y,1/2-z
1/4+y,3/4-x,1/4-z
1/2+x,y,1/2-z
1/4-y,1/4+x,3/4-z
1/2-x,1/2+y,1/2+z
1/2+x,-y,1/2+z
1/4-y,3/4-x,1/4+z
1/4+y,1/4+x,3/4+z
loop_
_atom_site_type_symbol
_atom_site_label
_atom_site_fract_x
_atom_site_fract_y
_atom_site_fract_z
Si Si1 0.580664 0.172439 0.910130
Si Si2 0.168307 0.953978 0.343810
O O1 0.500000 0.167958 0.867148
O O2 0.604160 0.250000 0.867549
O O3 0.622695 0.112417 0.817028
O O4 0.586589 0.163412 0.125000
O O5 0.239472 0.927177 0.437666
O O6 0.135000 0.000000 0.500000
#
# Coordination Sequence:
#
# PCOD9572840 Si02
#       2
#    32  32
#     4   9  17  29  47  74 101 123 159 210 251 283
#     4  10  19  32  49  72 102 133 161 199 243 292
#
# _framework density 22.447002000000001
#
# number of rings (size 3 to 8) (size 9 to 14) (size 15 to 20)
#    0.000    2.500    5.000    1.500    0.000    3.000 
#    0.000    0.000    0.000   16.500    0.000    0.000 
#    0.000   72.000    0.000    0.000    0.000    0.000 
#
# Total GULP energy -178455.055994 kJ/mol
# GULP energy per Si atom -5576.720500 kJ/mol
# Density = 2.239591 g / cm^3
# Si number density = 22.447002 Si / 1000 Ang^3
#
#
#
# Elastic Constant Matrix: (Units=GPa)
#
#
# Indices 1 2 3 4 5 6 
#
# 1 128.6544 107.0166 36.8631 0.0000 0.0000 0.0000
# 2 107.0166 128.6536 36.8631 0.0000 0.0000 0.0000
# 3 36.8631 36.8631 123.9982 0.0000 0.0000 0.0000
# 4 0.0000 0.0000 0.0000 -17.9601 0.0000 0.0000
# 5 0.0000 0.0000 0.0000 0.0000 -17.9604 0.0000
# 6 0.0000 0.0000 0.0000 0.0000 0.0000 64.3469
#
#
#
# Elastic Compliance Matrix: (Units=1/GPa)
#
#
# Indices 1 2 3 4 5 6 
#
# 1 0.025447 -0.020769 -0.001391 0.000000 0.000000 0.000000
# 2 -0.020769 0.025447 -0.001391 0.000000 0.000000 0.000000
# 3 -0.001391 -0.001391 0.008892 0.000000 0.000000 0.000000
# 4 0.000000 0.000000 0.000000 -0.055679 0.000000 0.000000
# 5 0.000000 0.000000 0.000000 0.000000 -0.055678 0.000000
# 6 0.000000 0.000000 0.000000 0.000000 0.000000 0.015541
#
#
# Mechanical properties :
#
#
# Convention : Reuss Voigt Hill
#
# Bulk Modulus (GPa) = 78.83343 82.53241 80.68292
# Shear Modulus (GPa) = 326.80872 19.05617 172.93245
#
# Velocity S-wave (km/s) = 12.07921 2.91682 8.78678
# Velocity P-wave (km/s) = 15.15715 6.94199 11.78835
#
# Compressibility (1/GPa) = 0.01268497
#
# Stress axis : x y z
#
# Youngs Moduli (GPa) = 39.29703 39.29679 112.46618
#
# Poissons Ratio (x) = 0.81615 0.15642
# Poissons Ratio (y) = 0.81616 0.15642
# Poissons Ratio (z) = 0.05465 0.05465
#
# Static dielectric constant tensor:
#      x y z
#    x 1.827170 0.000000 0.000000 
#    y 0.000000 1.827170 0.000000 
#    z 0.000000 0.000000 1.991090 
# 
# From -- ./inp_files/1978.got.cif
#   From: 2010.05.17/outbox.cif.g08.bks.cpg/sg141_1_cif.got.tgz:1978.got - 2010.05.20 13:30:51.
