data_PCOD9572280
_publ_section_title
;
Structure prediction by ZEFSAII (Michael W. Deem and Ramdas Pophale) SiO2 
 PCOD9572280
Probable space group: I 4/M C M
;
_chemical_formula_sum "Si O2"
_cell_formula_units_Z 240
_cell_length_a 22.424901
_cell_length_b 22.424901
_cell_length_c 26.011339
_cell_angle_alpha 90.000000
_cell_angle_beta 90.000000
_cell_angle_gamma 90.000000
_cell_volume 13080.482919
_symmetry_space_group_name_H-M "I 4/M C M"
_symmetry_group_IT_number 140
_symmetry_cell_setting 'tetragonal'
loop_
_space_group_symop_operation_xyz
x,y,z
-y,x,z
-x,-y,z
y,-x,z
x,-y,1/2-z
-x,y,1/2-z
y,x,1/2-z
-y,-x,1/2-z
-x,-y,-z
y,-x,-z
x,y,-z
-y,x,-z
-x,y,1/2+z
x,-y,1/2+z
-y,-x,1/2+z
y,x,1/2+z
1/2+x,1/2+y,1/2+z
1/2-y,1/2+x,1/2+z
1/2-x,1/2-y,1/2+z
1/2+y,1/2-x,1/2+z
1/2+x,1/2-y,-z
1/2-x,1/2+y,-z
1/2+y,1/2+x,-z
1/2-y,1/2-x,-z
1/2-x,1/2-y,1/2-z
1/2+y,1/2-x,1/2-z
1/2+x,1/2+y,1/2-z
1/2-y,1/2+x,1/2-z
1/2-x,1/2+y,z
1/2+x,1/2-y,z
1/2-y,1/2-x,z
1/2+y,1/2+x,z
loop_
_atom_site_type_symbol
_atom_site_label
_atom_site_fract_x
_atom_site_fract_y
_atom_site_fract_z
Si Si1 0.624761 0.223377 0.176273
Si Si2 0.422540 0.435049 0.307837
Si Si3 0.576470 0.334037 0.598502
Si Si4 0.686635 0.280853 0.368698
Si Si5 0.497373 0.782923 0.628793
Si Si6 0.001195 0.598541 0.561614
Si Si7 0.604471 0.798616 0.793831
Si Si8 0.907480 0.962639 0.000000
O O1 0.662801 0.162801 0.168226
O O2 0.668970 0.276606 0.161339
O O3 0.565964 0.226357 0.142422
O O4 0.605962 0.224574 0.235835
O O5 0.492706 0.419622 0.312997
O O6 0.410774 0.410774 0.250000
O O7 0.377150 0.414844 0.351723
O O8 0.642079 0.307375 0.589531
O O9 0.532297 0.278623 0.609339
O O10 0.552692 0.371287 0.551053
O O11 0.734161 0.234161 0.390365
O O12 0.645148 0.245186 0.328413
O O13 0.493410 0.838699 0.589979
O O14 0.459720 0.799883 0.679807
O O15 0.003333 0.607080 0.500000
O O16 0.945494 0.554507 0.572669
O O17 0.060844 0.560844 0.576318
O O18 0.637543 0.862458 0.794981
O O19 0.968383 0.925385 0.000000
#
# Coordination Sequence:
#
# PCOD9572280 Si02
#       8
#    32  32  32  32  32  32  32  16
#     4  10  20  34  55  81 117 159 189 228 282 343
#     4   9  19  37  59  86 119 152 193 252 309 349
#     4  11  24  38  61  90 115 158 197 246 293 360
#     4   9  20  38  57  79 113 157 198 237 281 338
#     4  11  22  33  54  87 120 147 188 244 292 349
#     4   9  19  38  63  85 107 144 195 251 308 358
#     4   9  18  35  54  78 114 154 196 231 278 341
#     4  11  26  46  67  86 116 157 199 244 298 360
#
# _framework density 18.347947000000001
#
# number of rings (size 3 to 8) (size 9 to 14) (size 15 to 20)
#    0.000    2.200    0.000    3.200    4.667    5.333 
#    4.800    0.333    0.000    0.000    0.000    5.600 
#    0.000    0.000    0.000    0.000    0.000    0.000 
#
# Total GULP energy -669436.083069 kJ/mol
# GULP energy per Si atom -5578.634026 kJ/mol
# Density = 1.830619 g / cm^3
# Si number density = 18.347947 Si / 1000 Ang^3
#
#
#
# Elastic Constant Matrix: (Units=GPa)
#
#
# Indices 1 2 3 4 5 6 
#
# 1 289.6482 -159.4341 42.4811 0.0000 0.0000 0.0000
# 2 -159.4341 289.6482 42.4811 0.0000 0.0000 0.0000
# 3 42.4811 42.4811 47.2254 0.0000 0.0000 0.0000
# 4 0.0000 0.0000 0.0000 16.5519 0.0000 0.0000
# 5 0.0000 0.0000 0.0000 0.0000 16.5519 0.0000
# 6 0.0000 0.0000 0.0000 0.0000 0.0000 -6.9777
#
#
#
# Elastic Compliance Matrix: (Units=1/GPa)
#
#
# Indices 1 2 3 4 5 6 
#
# 1 0.010409 0.008183 -0.016724 0.000000 0.000000 0.000000
# 2 0.008183 0.010409 -0.016724 0.000000 0.000000 0.000000
# 3 -0.016724 -0.016724 0.051263 0.000000 0.000000 0.000000
# 4 0.000000 0.000000 0.000000 0.060416 0.000000 0.000000
# 5 0.000000 0.000000 0.000000 0.000000 0.060416 0.000000
# 6 0.000000 0.000000 0.000000 0.000000 0.000000 -0.143314
#
#
# Mechanical properties :
#
#
# Convention : Reuss Voigt Hill
#
# Bulk Modulus (GPa) = 46.40300 53.06421 49.73361
# Shear Modulus (GPa) = 46.59212 51.95813 49.27513
#
# Velocity S-wave (km/s) = 5.04468 5.32726 5.18789
# Velocity P-wave (km/s) = 7.69917 8.17456 7.94042
#
# Compressibility (1/GPa) = 0.02155033
#
# Stress axis : x y z
#
# Youngs Moduli (GPa) = 96.06816 96.06817 19.50725
#
# Poissons Ratio (x) = -0.78608 0.32624
# Poissons Ratio (y) = -0.78608 0.32624
# Poissons Ratio (z) = 1.60665 1.60665
#
# Static dielectric constant tensor:
#      x y z
#    x 1.635640 0.000000 0.000000 
#    y 0.000000 1.635640 0.000000 
#    z 0.000000 0.000000 1.602490 
# 
# From -- ./inp_files/10959.got.cif
#   From: 2010.05.17/outbox.cif.g08.bks.cpg/sg140_6_cif.got.tgz:10959.got - 2010.06.21 00:45:31.
