data_PCOD9572135
_publ_section_title
;
Structure prediction by ZEFSAII (Michael W. Deem and Ramdas Pophale) SiO2 
 PCOD9572135
Probable space group: I 4/M C M
;
_chemical_formula_sum "Si O2"
_cell_formula_units_Z 160
_cell_length_a 20.325988
_cell_length_b 20.325988
_cell_length_c 19.629743
_cell_angle_alpha 90.000000
_cell_angle_beta 90.000000
_cell_angle_gamma 90.000000
_cell_volume 8109.945643
_symmetry_space_group_name_H-M "I 4/M C M"
_symmetry_group_IT_number 140
_symmetry_cell_setting 'tetragonal'
loop_
_space_group_symop_operation_xyz
x,y,z
-y,x,z
-x,-y,z
y,-x,z
x,-y,1/2-z
-x,y,1/2-z
y,x,1/2-z
-y,-x,1/2-z
-x,-y,-z
y,-x,-z
x,y,-z
-y,x,-z
-x,y,1/2+z
x,-y,1/2+z
-y,-x,1/2+z
y,x,1/2+z
1/2+x,1/2+y,1/2+z
1/2-y,1/2+x,1/2+z
1/2-x,1/2-y,1/2+z
1/2+y,1/2-x,1/2+z
1/2+x,1/2-y,-z
1/2-x,1/2+y,-z
1/2+y,1/2+x,-z
1/2-y,1/2-x,-z
1/2-x,1/2-y,1/2-z
1/2+y,1/2-x,1/2-z
1/2+x,1/2+y,1/2-z
1/2-y,1/2+x,1/2-z
1/2-x,1/2+y,z
1/2+x,1/2-y,z
1/2-y,1/2-x,z
1/2+y,1/2+x,z
loop_
_atom_site_type_symbol
_atom_site_label
_atom_site_fract_x
_atom_site_fract_y
_atom_site_fract_z
Si Si1 0.755075 0.952114 0.580338
Si Si2 0.394321 0.500041 0.582747
Si Si3 0.667686 0.942422 0.703962
Si Si4 0.691292 0.696330 0.075447
Si Si5 0.853490 0.759611 0.711907
O O1 0.741249 0.963101 0.500000
O O2 0.819190 0.992885 0.602730
O O3 0.695277 0.964617 0.631060
O O4 0.777273 0.875357 0.587400
O O5 0.435739 0.436408 0.604471
O O6 0.394776 0.500643 0.500000
O O7 0.615902 0.884099 0.694073
O O8 0.729330 0.914410 0.748083
O O9 0.638267 0.000000 0.750000
O O10 0.751348 0.748653 0.076434
O O11 0.641473 0.718994 0.133608
O O12 0.661035 0.695684 0.000000
O O13 0.821484 0.821484 0.750000
O O14 0.798145 0.701856 0.713934
#
# Coordination Sequence:
#
# PCOD9572135 Si02
#       5
#    32  32  32  32  32
#     4  10  19  32  55  86 114 144 190 245 292 341
#     4   8  15  29  48  74 115 162 198 228 272 337
#     4  11  24  41  60  83 111 150 196 240 295 357
#     4   9  16  27  48  79 112 145 181 229 289 341
#     4   9  16  31  53  76 107 141 171 217 280 344
#
# _framework density 19.728861999999999
#
# number of rings (size 3 to 8) (size 9 to 14) (size 15 to 20)
#    0.000    2.600    2.000    1.200    0.000    3.000 
#    0.000    3.000    0.000    1.800    0.000    2.800 
#    0.000    0.000    0.000    0.000    0.000    0.000 
#
# Total GULP energy -446457.950414 kJ/mol
# GULP energy per Si atom -5580.724380 kJ/mol
# Density = 1.968396 g / cm^3
# Si number density = 19.728862 Si / 1000 Ang^3
#
#
#
# Elastic Constant Matrix: (Units=GPa)
#
#
# Indices 1 2 3 4 5 6 
#
# 1 64.3070 13.7186 22.9939 0.0000 0.0000 0.0000
# 2 13.7186 64.3070 22.9939 0.0000 0.0000 0.0000
# 3 22.9939 22.9939 91.6274 0.0000 0.0000 0.0000
# 4 0.0000 0.0000 0.0000 19.0686 0.0000 0.0000
# 5 0.0000 0.0000 0.0000 0.0000 19.0686 0.0000
# 6 0.0000 0.0000 0.0000 0.0000 0.0000 13.3454
#
#
#
# Elastic Compliance Matrix: (Units=1/GPa)
#
#
# Indices 1 2 3 4 5 6 
#
# 1 0.017404 -0.002363 -0.003775 0.000000 0.000000 0.000000
# 2 -0.002363 0.017404 -0.003775 0.000000 0.000000 0.000000
# 3 -0.003775 -0.003775 0.012808 0.000000 0.000000 0.000000
# 4 0.000000 0.000000 0.000000 0.052442 0.000000 0.000000
# 5 0.000000 0.000000 0.000000 0.000000 0.052442 0.000000
# 6 0.000000 0.000000 0.000000 0.000000 0.000000 0.074932
#
#
# Mechanical properties :
#
#
# Convention : Reuss Voigt Hill
#
# Bulk Modulus (GPa) = 35.98152 37.73937 36.86045
# Shear Modulus (GPa) = 19.49152 20.99885 20.24519
#
# Velocity S-wave (km/s) = 3.14661 3.26601 3.20687
# Velocity P-wave (km/s) = 5.61063 5.77867 5.69527
#
# Compressibility (1/GPa) = 0.02779204
#
# Stress axis : x y z
#
# Youngs Moduli (GPa) = 57.45739 57.45739 78.07490
#
# Poissons Ratio (x) = 0.13578 0.29470
# Poissons Ratio (y) = 0.13578 0.29470
# Poissons Ratio (z) = 0.21688 0.21688
#
# Static dielectric constant tensor:
#      x y z
#    x 1.709660 0.000000 0.000000 
#    y 0.000000 1.709660 0.000000 
#    z 0.000000 0.000000 1.724010 
# 
# From -- ./inp_files/6837.got.cif
#   From: 2010.05.17/outbox.cif.g08.bks.cpg/sg140_4_cif.got.tgz:6837.got - 2010.06.21 00:45:31.
