data_PCOD9572045
_publ_section_title
;
Structure prediction by ZEFSAII (Michael W. Deem and Ramdas Pophale) SiO2 
 PCOD9572045
Probable space group: I 4/M C M
;
_chemical_formula_sum "Si O2"
_cell_formula_units_Z 128
_cell_length_a 33.215826
_cell_length_b 33.215826
_cell_length_c 7.517908
_cell_angle_alpha 90.000000
_cell_angle_beta 90.000000
_cell_angle_gamma 90.000000
_cell_volume 8294.440963
_symmetry_space_group_name_H-M "I 4/M C M"
_symmetry_group_IT_number 140
_symmetry_cell_setting 'tetragonal'
loop_
_space_group_symop_operation_xyz
x,y,z
-y,x,z
-x,-y,z
y,-x,z
x,-y,1/2-z
-x,y,1/2-z
y,x,1/2-z
-y,-x,1/2-z
-x,-y,-z
y,-x,-z
x,y,-z
-y,x,-z
-x,y,1/2+z
x,-y,1/2+z
-y,-x,1/2+z
y,x,1/2+z
1/2+x,1/2+y,1/2+z
1/2-y,1/2+x,1/2+z
1/2-x,1/2-y,1/2+z
1/2+y,1/2-x,1/2+z
1/2+x,1/2-y,-z
1/2-x,1/2+y,-z
1/2+y,1/2+x,-z
1/2-y,1/2-x,-z
1/2-x,1/2-y,1/2-z
1/2+y,1/2-x,1/2-z
1/2+x,1/2+y,1/2-z
1/2-y,1/2+x,1/2-z
1/2-x,1/2+y,z
1/2+x,1/2-y,z
1/2-y,1/2-x,z
1/2+y,1/2+x,z
loop_
_atom_site_type_symbol
_atom_site_label
_atom_site_fract_x
_atom_site_fract_y
_atom_site_fract_z
Si Si1 0.332996 0.896633 0.500000
Si Si2 0.712854 0.544707 0.788231
Si Si3 0.762981 0.669939 0.500000
Si Si4 0.194191 0.455782 0.790496
Si Si5 0.700844 0.635969 0.787099
O O1 0.375068 0.875068 0.500000
O O2 0.298098 0.863165 0.500000
O O3 0.327863 0.923124 0.325307
O O4 0.695013 0.500000 0.750000
O O5 0.759240 0.543856 0.725883
O O6 0.697183 0.588806 0.730018
O O7 0.712999 0.546733 0.000000
O O8 0.786599 0.713402 0.500000
O O9 0.734786 0.659442 0.670967
O O10 0.177805 0.500000 0.750000
O O11 0.193663 0.447663 0.000000
O O12 0.659694 0.659694 0.750000
O O13 0.709864 0.637538 0.000000
#
# Coordination Sequence:
#
# PCOD9572045 Si02
#       5
#    16  32  16  32  32
#     4  11  22  34  50  75 104 135 168 203 259 310
#     4   9  19  30  50  76  97 125 165 206 259 313
#     4  11  24  38  52  67  99 142 177 217 258 295
#     4  10  18  31  52  74  98 129 163 204 255 312
#     4  11  22  37  53  74 100 133 178 222 256 295
#
# _framework density 15.432024
#
# number of rings (size 3 to 8) (size 9 to 14) (size 15 to 20)
#    0.000    1.750    5.000    0.000    3.500    1.500 
#    0.000    2.500    0.000    0.000    0.000    0.000 
#    0.000    2.000    0.000    5.500    0.000    4.000 
#
# Total GULP energy -356305.446486 kJ/mol
# GULP energy per Si atom -5567.272601 kJ/mol
# Density = 1.539690 g / cm^3
# Si number density = 15.432024 Si / 1000 Ang^3
#
#
#
# Elastic Constant Matrix: (Units=GPa)
#
#
# Indices 1 2 3 4 5 6 
#
# 1 101.9347 58.7105 30.4332 0.0000 0.0000 0.0000
# 2 58.7105 101.9326 30.4328 0.0000 0.0000 0.0000
# 3 30.4332 30.4328 91.3324 0.0000 0.0000 0.0000
# 4 0.0000 0.0000 0.0000 67.4612 0.0000 0.0000
# 5 0.0000 0.0000 0.0000 0.0000 67.4644 0.0000
# 6 0.0000 0.0000 0.0000 0.0000 0.0000 16.8655
#
#
#
# Elastic Compliance Matrix: (Units=1/GPa)
#
#
# Indices 1 2 3 4 5 6 
#
# 1 0.015130 -0.008006 -0.002374 0.000000 0.000000 0.000000
# 2 -0.008006 0.015130 -0.002374 0.000000 0.000000 0.000000
# 3 -0.002374 -0.002374 0.012531 0.000000 0.000000 0.000000
# 4 0.000000 0.000000 0.000000 0.014823 0.000000 0.000000
# 5 0.000000 0.000000 0.000000 0.000000 0.014823 0.000000
# 6 0.000000 0.000000 0.000000 0.000000 0.000000 0.059293
#
#
# Mechanical properties :
#
#
# Convention : Reuss Voigt Hill
#
# Bulk Modulus (GPa) = 57.85655 59.37252 58.61453
# Shear Modulus (GPa) = 30.67519 42.06643 36.37081
#
# Velocity S-wave (km/s) = 4.46327 5.22670 4.86000
# Velocity P-wave (km/s) = 8.00835 8.65919 8.34012
#
# Compressibility (1/GPa) = 0.01728413
#
# Stress axis : x y z
#
# Youngs Moduli (GPa) = 66.09423 66.09292 79.80172
#
# Poissons Ratio (x) = 0.52912 0.18944
# Poissons Ratio (y) = 0.52913 0.18944
# Poissons Ratio (z) = 0.15690 0.15690
#
# Static dielectric constant tensor:
#      x y z
#    x 1.528280 0.000000 0.000000 
#    y 0.000000 1.528280 0.000000 
#    z 0.000000 0.000000 1.542150 
# 
# From -- ./inp_files/1543.got.cif
#   From: 2010.05.17/outbox.cif.g08.bks.cpg/sg140_1_cif.got.tgz:1543.got - 2010.06.21 00:45:31.
