data_PCOD9572436
_publ_section_title
;
Structure prediction by ZEFSAII (Michael W. Deem and Ramdas Pophale) SiO2 
 PCOD9572436
Probable space group: I 4/M C M
;
_chemical_formula_sum "Si O2"
_cell_formula_units_Z 160
_cell_length_a 21.199762
_cell_length_b 21.199762
_cell_length_c 19.198489
_cell_angle_alpha 90.000000
_cell_angle_beta 90.000000
_cell_angle_gamma 90.000000
_cell_volume 8628.375161
_symmetry_space_group_name_H-M "I 4/M C M"
_symmetry_group_IT_number 140
_symmetry_cell_setting 'tetragonal'
loop_
_space_group_symop_operation_xyz
x,y,z
-y,x,z
-x,-y,z
y,-x,z
x,-y,1/2-z
-x,y,1/2-z
y,x,1/2-z
-y,-x,1/2-z
-x,-y,-z
y,-x,-z
x,y,-z
-y,x,-z
-x,y,1/2+z
x,-y,1/2+z
-y,-x,1/2+z
y,x,1/2+z
1/2+x,1/2+y,1/2+z
1/2-y,1/2+x,1/2+z
1/2-x,1/2-y,1/2+z
1/2+y,1/2-x,1/2+z
1/2+x,1/2-y,-z
1/2-x,1/2+y,-z
1/2+y,1/2+x,-z
1/2-y,1/2-x,-z
1/2-x,1/2-y,1/2-z
1/2+y,1/2-x,1/2-z
1/2+x,1/2+y,1/2-z
1/2-y,1/2+x,1/2-z
1/2-x,1/2+y,z
1/2+x,1/2-y,z
1/2-y,1/2-x,z
1/2+y,1/2+x,z
loop_
_atom_site_type_symbol
_atom_site_label
_atom_site_fract_x
_atom_site_fract_y
_atom_site_fract_z
Si Si1 0.171596 0.879064 0.176600
Si Si2 0.683025 0.081964 0.183997
Si Si3 0.651556 0.257278 0.581272
Si Si4 0.099050 0.037952 0.577097
Si Si5 0.340574 0.941773 0.348226
O O1 0.140500 0.859501 0.250000
O O2 0.245478 0.894048 0.181285
O O3 0.159047 0.820492 0.125187
O O4 0.141042 0.940195 0.140802
O O5 0.636457 0.136457 0.158791
O O6 0.669537 0.070383 0.265927
O O7 0.667590 0.016721 0.144294
O O8 0.641815 0.271014 0.500000
O O9 0.714122 0.214122 0.588952
O O10 0.595079 0.213992 0.610467
O O11 0.127717 0.048738 0.500000
O O12 0.034596 0.078301 0.580757
O O13 0.407070 0.907070 0.366652
#
# Coordination Sequence:
#
# PCOD9572436 Si02
#       5
#    32  32  32  32  32
#     4  12  23  34  58  86 122 155 192 243 297 350
#     4  10  21  36  57  88 122 153 194 247 299 349
#     4  10  21  38  59  83 113 152 195 236 291 362
#     4   9  21  41  59  79 112 153 197 244 293 348
#     4   9  19  37  60  86 117 154 197 244 294 350
#
# _framework density 18.543469000000002
#
# number of rings (size 3 to 8) (size 9 to 14) (size 15 to 20)
#    0.000    2.000    2.000    1.800    2.800    2.000 
#    0.000    4.000    0.000    3.000    0.000    2.800 
#    0.000    0.000    0.000    0.000    0.000    0.000 
#
# Total GULP energy -446425.277561 kJ/mol
# GULP energy per Si atom -5580.315970 kJ/mol
# Density = 1.850126 g / cm^3
# Si number density = 18.543469 Si / 1000 Ang^3
#
#
#
# Elastic Constant Matrix: (Units=GPa)
#
#
# Indices 1 2 3 4 5 6 
#
# 1 83.2034 0.4830 7.1362 0.0000 0.0000 0.0000
# 2 0.4830 83.1989 7.1349 0.0000 0.0000 0.0000
# 3 7.1362 7.1349 47.6992 0.0000 0.0000 0.0000
# 4 0.0000 0.0000 0.0000 19.5851 0.0000 0.0000
# 5 0.0000 0.0000 0.0000 0.0000 19.5846 0.0000
# 6 0.0000 0.0000 0.0000 0.0000 0.0000 15.6221
#
#
#
# Elastic Compliance Matrix: (Units=1/GPa)
#
#
# Indices 1 2 3 4 5 6 
#
# 1 0.012176 0.000087 -0.001835 0.000000 0.000000 0.000000
# 2 0.000087 0.012176 -0.001834 0.000000 0.000000 0.000000
# 3 -0.001835 -0.001834 0.021514 0.000000 0.000000 0.000000
# 4 0.000000 0.000000 0.000000 0.051059 0.000000 0.000000
# 5 0.000000 0.000000 0.000000 0.000000 0.051061 0.000000
# 6 0.000000 0.000000 0.000000 0.000000 0.000000 0.064012
#
#
# Mechanical properties :
#
#
# Convention : Reuss Voigt Hill
#
# Bulk Modulus (GPa) = 25.83917 27.06776 26.45347
# Shear Modulus (GPa) = 21.54600 24.24819 22.89709
#
# Velocity S-wave (km/s) = 3.41239 3.62005 3.51775
# Velocity P-wave (km/s) = 5.43052 5.66583 5.54942
#
# Compressibility (1/GPa) = 0.03870093
#
# Stress axis : x y z
#
# Youngs Moduli (GPa) = 82.13165 82.12749 46.48236
#
# Poissons Ratio (x) = -0.00712 0.08527
# Poissons Ratio (y) = -0.00712 0.08526
# Poissons Ratio (z) = 0.15067 0.15065
#
# Static dielectric constant tensor:
#      x y z
#    x 1.646260 0.000000 0.000000 
#    y 0.000000 1.646260 0.000000 
#    z 0.000000 0.000000 1.623900 
# 
# From -- ./inp_files/6778.got.cif
#   From: 2010.05.17/outbox.cif.g08.bks.cpg/sg140_4_cif.got.tgz:6778.got - 2010.06.21 00:45:31.
