data_PCOD9572921
_publ_section_title
;
Structure prediction by ZEFSAII (Michael W. Deem and Ramdas Pophale) SiO2 
 PCOD9572921
Probable space group: I 41/A M D
;
_chemical_formula_sum "Si O2"
_cell_formula_units_Z 176
_cell_length_a 26.911484
_cell_length_b 26.911484
_cell_length_c 13.301998
_cell_angle_alpha 90.000000
_cell_angle_beta 90.000000
_cell_angle_gamma 90.000000
_cell_volume 9633.679023
_symmetry_space_group_name_H-M "I 41/A M D"
_symmetry_group_IT_number 141
_space_group.IT_coordinate_system_code '2'
_symmetry_cell_setting 'tetragonal'
loop_
_space_group_symop_operation_xyz
x,y,z
1/4-y,3/4+x,1/4+z
-x,1/2-y,z
1/4+y,1/4-x,3/4+z
x,-y,-z
-x,1/2+y,-z
1/4+y,3/4+x,1/4-z
1/4-y,1/4-x,3/4-z
-x,-y,-z
3/4+y,1/4-x,3/4-z
x,1/2+y,-z
3/4-y,3/4+x,1/4-z
-x,y,z
x,1/2-y,z
3/4-y,1/4-x,3/4+z
3/4+y,3/4+x,1/4+z
1/2+x,1/2+y,1/2+z
3/4-y,1/4+x,3/4+z
1/2-x,-y,1/2+z
3/4+y,3/4-x,1/4+z
1/2+x,1/2-y,1/2-z
1/2-x,y,1/2-z
3/4+y,1/4+x,3/4-z
3/4-y,3/4-x,1/4-z
1/2-x,1/2-y,1/2-z
1/4+y,3/4-x,1/4-z
1/2+x,y,1/2-z
1/4-y,1/4+x,3/4-z
1/2-x,1/2+y,1/2+z
1/2+x,-y,1/2+z
1/4-y,3/4-x,1/4+z
1/4+y,1/4+x,3/4+z
loop_
_atom_site_type_symbol
_atom_site_label
_atom_site_fract_x
_atom_site_fract_y
_atom_site_fract_z
Si Si1 0.660765 0.250000 0.966583
Si Si2 0.205051 0.342779 0.026485
Si Si3 0.194999 0.432986 0.756253
Si Si4 0.594567 0.808987 0.483695
Si Si5 0.778201 0.672065 0.342530
Si Si6 0.000000 0.191902 0.130566
Si Si7 0.244458 0.250000 0.368782
O O1 0.680615 0.296517 0.900659
O O2 0.601084 0.250000 0.965005
O O3 0.690925 0.250000 0.072537
O O4 0.211020 0.400910 0.051367
O O5 0.227845 0.299937 0.094866
O O6 0.146317 0.333421 0.015893
O O7 0.234752 0.336761 0.922699
O O8 0.250000 0.455825 0.750000
O O9 0.200664 0.378922 0.704298
O O10 0.180818 0.430818 0.875000
O O11 0.603071 0.750000 0.475242
O O12 0.579286 0.829286 0.375000
O O13 0.548825 0.815876 0.560779
O O14 0.750000 0.697556 0.250000
O O15 0.000000 0.250000 0.163416
O O16 0.250000 0.250000 0.250000
#
# Coordination Sequence:
#
# PCOD9572921 Si02
#       7
#    16  32  32  32  32  16  16
#     4  10  21  36  58  90 123 156 206 269 310 366
#     4  11  21  38  61  90 118 161 210 257 313 375
#     4  11  20  36  55  86 129 167 196 241 306 381
#     4  11  21  32  52  88 135 174 203 235 297 376
#     4  10  20  32  54  88 124 160 197 245 309 373
#     4  10  22  34  52  90 130 177 209 242 304 376
#     4  10  24  46  70  89 112 154 222 280 323 360
#
# _framework density 18.269238999999999
#
# number of rings (size 3 to 8) (size 9 to 14) (size 15 to 20)
#    0.000    1.455    5.455    1.909    2.545    0.000 
#    0.000    0.909    0.000    8.727    2.364    0.000 
#    0.000    0.000    0.000    0.000    0.000    0.000 
#
# Total GULP energy -490379.341821 kJ/mol
# GULP energy per Si atom -5572.492521 kJ/mol
# Density = 1.822766 g / cm^3
# Si number density = 18.269239 Si / 1000 Ang^3
#
#
#
# Elastic Constant Matrix: (Units=GPa)
#
#
# Indices 1 2 3 4 5 6 
#
# 1 125.1912 43.0881 44.2241 0.0000 0.0000 0.0000
# 2 43.0881 125.1912 44.2241 0.0000 0.0000 0.0000
# 3 44.2241 44.2241 102.9823 0.0000 0.0000 0.0000
# 4 0.0000 0.0000 0.0000 9.9321 0.0000 0.0000
# 5 0.0000 0.0000 0.0000 0.0000 9.9321 0.0000
# 6 0.0000 0.0000 0.0000 0.0000 0.0000 -1.0284
#
#
#
# Elastic Compliance Matrix: (Units=1/GPa)
#
#
# Indices 1 2 3 4 5 6 
#
# 1 0.009927 -0.002253 -0.003296 0.000000 0.000000 0.000000
# 2 -0.002253 0.009927 -0.003296 0.000000 0.000000 0.000000
# 3 -0.003296 -0.003296 0.012541 0.000000 0.000000 0.000000
# 4 0.000000 0.000000 0.000000 0.100684 0.000000 0.000000
# 5 0.000000 0.000000 0.000000 0.000000 0.100684 0.000000
# 6 0.000000 0.000000 0.000000 0.000000 0.000000 -0.972367
#
#
# Mechanical properties :
#
#
# Convention : Reuss Voigt Hill
#
# Bulk Modulus (GPa) = 67.99296 68.49301 68.24298
# Shear Modulus (GPa) = -6.98311 18.55571 5.78630
#
# Velocity S-wave (km/s) = -1.95720 3.19043 1.78160
# Velocity P-wave (km/s) = 5.67366 7.15151 6.45502
#
# Compressibility (1/GPa) = 0.01470740
#
# Stress axis : x y z
#
# Youngs Moduli (GPa) = 100.73229 100.73229 79.73797
#
# Poissons Ratio (x) = 0.22690 0.26280
# Poissons Ratio (y) = 0.22690 0.26280
# Poissons Ratio (z) = 0.33199 0.33199
#
# Static dielectric constant tensor:
#      x y z
#    x 1.699050 0.000000 0.000000 
#    y 0.000000 1.699050 0.000000 
#    z 0.000000 0.000000 1.610600 
# 
# From -- ./inp_files/5107.got.cif
#   From: 2010.05.17/outbox.cif.g08.bks.cpg/sg141_3_cif.got.tgz:5107.got - 2010.05.20 13:30:51.
