data_PCOD9572153
_publ_section_title
;
Structure prediction by ZEFSAII (Michael W. Deem and Ramdas Pophale) SiO2 
 PCOD9572153
Probable space group: I 4/M C M
;
_chemical_formula_sum "Si O2"
_cell_formula_units_Z 160
_cell_length_a 32.074798
_cell_length_b 32.074798
_cell_length_c 9.539858
_cell_angle_alpha 90.000000
_cell_angle_beta 90.000000
_cell_angle_gamma 90.000000
_cell_volume 9814.535952
_symmetry_space_group_name_H-M "I 4/M C M"
_symmetry_group_IT_number 140
_symmetry_cell_setting 'tetragonal'
loop_
_space_group_symop_operation_xyz
x,y,z
-y,x,z
-x,-y,z
y,-x,z
x,-y,1/2-z
-x,y,1/2-z
y,x,1/2-z
-y,-x,1/2-z
-x,-y,-z
y,-x,-z
x,y,-z
-y,x,-z
-x,y,1/2+z
x,-y,1/2+z
-y,-x,1/2+z
y,x,1/2+z
1/2+x,1/2+y,1/2+z
1/2-y,1/2+x,1/2+z
1/2-x,1/2-y,1/2+z
1/2+y,1/2-x,1/2+z
1/2+x,1/2-y,-z
1/2-x,1/2+y,-z
1/2+y,1/2+x,-z
1/2-y,1/2-x,-z
1/2-x,1/2-y,1/2-z
1/2+y,1/2-x,1/2-z
1/2+x,1/2+y,1/2-z
1/2-y,1/2+x,1/2-z
1/2-x,1/2+y,z
1/2+x,1/2-y,z
1/2-y,1/2-x,z
1/2+y,1/2+x,z
loop_
_atom_site_type_symbol
_atom_site_label
_atom_site_fract_x
_atom_site_fract_y
_atom_site_fract_z
Si Si1 0.457315 0.710214 0.333500
Si Si2 0.500000 0.867702 0.750000
Si Si3 0.374060 0.687318 0.830781
Si Si4 0.501092 0.069155 0.500000
Si Si5 0.218150 0.651774 0.665172
Si Si6 0.571922 0.194017 0.663234
O O1 0.500000 0.701308 0.250000
O O2 0.458470 0.698498 0.500000
O O3 0.418756 0.690652 0.246781
O O4 0.448767 0.760014 0.329614
O O5 0.504440 0.899589 0.625521
O O6 0.459953 0.838505 0.729786
O O7 0.347162 0.652839 0.750000
O O8 0.351493 0.732333 0.810106
O O9 0.377605 0.680484 0.000000
O O10 0.466444 0.033557 0.500000
O O11 0.545332 0.045332 0.500000
O O12 0.211929 0.642889 0.500000
O O13 0.195649 0.695649 0.696089
O O14 0.196919 0.615428 0.755494
O O15 0.578416 0.183759 0.500000
#
# Coordination Sequence:
#
# PCOD9572153 Si02
#       6
#    32  16  32  16  32  32
#     4  10  19  33  55  79 111 144 174 217 269 316
#     4  12  22  39  60  76  94 124 164 214 273 334
#     4  10  20  35  54  78 109 147 190 228 267 319
#     4  11  26  44  56  68  90 122 162 210 270 338
#     4   9  20  36  53  75 106 141 177 221 269 321
#     4  10  21  35  52  79 104 127 163 210 266 330
#
# _framework density 16.302350000000001
#
# number of rings (size 3 to 8) (size 9 to 14) (size 15 to 20)
#    0.000    1.900    2.000    1.800    1.400    4.800 
#    0.000    0.000    0.000    0.000    0.000    0.000 
#    0.000    0.400    0.000    4.000    0.000    2.400 
#
# Total GULP energy -446047.586193 kJ/mol
# GULP energy per Si atom -5575.594827 kJ/mol
# Density = 1.626525 g / cm^3
# Si number density = 16.302350 Si / 1000 Ang^3
#
#
#
# Elastic Constant Matrix: (Units=GPa)
#
#
# Indices 1 2 3 4 5 6 
#
# 1 92.7158 67.0696 66.9766 0.0000 0.0000 0.0000
# 2 67.0696 92.7204 66.9817 0.0000 0.0000 0.0000
# 3 66.9766 66.9817 139.0269 0.0000 0.0000 0.0000
# 4 0.0000 0.0000 0.0000 28.9504 0.0000 0.0000
# 5 0.0000 0.0000 0.0000 0.0000 28.9498 0.0000
# 6 0.0000 0.0000 0.0000 0.0000 0.0000 30.6071
#
#
#
# Elastic Compliance Matrix: (Units=1/GPa)
#
#
# Indices 1 2 3 4 5 6 
#
# 1 0.024744 -0.014245 -0.005057 0.000000 0.000000 0.000000
# 2 -0.014245 0.024744 -0.005059 0.000000 0.000000 0.000000
# 3 -0.005057 -0.005059 0.012066 0.000000 0.000000 0.000000
# 4 0.000000 0.000000 0.000000 0.034542 0.000000 0.000000
# 5 0.000000 0.000000 0.000000 0.000000 0.034543 0.000000
# 6 0.000000 0.000000 0.000000 0.000000 0.000000 0.032672
#
#
# Mechanical properties :
#
#
# Convention : Reuss Voigt Hill
#
# Bulk Modulus (GPa) = 77.93076 80.72432 79.32754
# Shear Modulus (GPa) = 23.11503 25.93046 24.52274
#
# Velocity S-wave (km/s) = 3.76958 3.99255 3.88267
# Velocity P-wave (km/s) = 8.17640 8.41894 8.29855
#
# Compressibility (1/GPa) = 0.01283190
#
# Stress axis : x y z
#
# Youngs Moduli (GPa) = 40.41444 40.41432 82.87485
#
# Poissons Ratio (x) = 0.57570 0.41912
# Poissons Ratio (y) = 0.57571 0.41924
# Poissons Ratio (z) = 0.20438 0.20444
#
# Static dielectric constant tensor:
#      x y z
#    x 1.526330 0.000000 0.000000 
#    y 0.000000 1.526330 0.000000 
#    z 0.000000 0.000000 1.538760 
# 
# From -- ./inp_files/1872.got.cif
#   From: 2010.05.17/outbox.cif.g08.bks.cpg/sg140_1_cif.got.tgz:1872.got - 2010.06.21 00:45:31.
