data_PCOD9572983
_publ_section_title
;
Structure prediction by ZEFSAII (Michael W. Deem and Ramdas Pophale) SiO2 
 PCOD9572983
Probable space group: I 41/A M D
;
_chemical_formula_sum "Si O2"
_cell_formula_units_Z 160
_cell_length_a 25.941269
_cell_length_b 25.941269
_cell_length_c 13.132776
_cell_angle_alpha 90.000000
_cell_angle_beta 90.000000
_cell_angle_gamma 90.000000
_cell_volume 8837.694220
_symmetry_space_group_name_H-M "I 41/A M D"
_symmetry_group_IT_number 141
_space_group.IT_coordinate_system_code '2'
_symmetry_cell_setting 'tetragonal'
loop_
_space_group_symop_operation_xyz
x,y,z
1/4-y,3/4+x,1/4+z
-x,1/2-y,z
1/4+y,1/4-x,3/4+z
x,-y,-z
-x,1/2+y,-z
1/4+y,3/4+x,1/4-z
1/4-y,1/4-x,3/4-z
-x,-y,-z
3/4+y,1/4-x,3/4-z
x,1/2+y,-z
3/4-y,3/4+x,1/4-z
-x,y,z
x,1/2-y,z
3/4-y,1/4-x,3/4+z
3/4+y,3/4+x,1/4+z
1/2+x,1/2+y,1/2+z
3/4-y,1/4+x,3/4+z
1/2-x,-y,1/2+z
3/4+y,3/4-x,1/4+z
1/2+x,1/2-y,1/2-z
1/2-x,y,1/2-z
3/4+y,1/4+x,3/4-z
3/4-y,3/4-x,1/4-z
1/2-x,1/2-y,1/2-z
1/4+y,3/4-x,1/4-z
1/2+x,y,1/2-z
1/4-y,1/4+x,3/4-z
1/2-x,1/2+y,1/2+z
1/2+x,-y,1/2+z
1/4-y,3/4-x,1/4+z
1/4+y,1/4+x,3/4+z
loop_
_atom_site_type_symbol
_atom_site_label
_atom_site_fract_x
_atom_site_fract_y
_atom_site_fract_z
Si Si1 0.138907 0.692587 0.337067
Si Si2 0.939796 0.046373 0.421615
Si Si3 0.907910 0.810657 0.737467
Si Si4 0.302765 0.877673 0.313968
Si Si5 0.557784 0.005705 0.285389
O O1 0.129394 0.750000 0.292500
O O2 0.095332 0.681245 0.422190
O O3 0.151971 0.648069 0.255013
O O4 0.193129 0.695707 0.396713
O O5 0.920127 0.099220 0.468984
O O6 0.000000 0.058757 0.396403
O O7 0.938645 0.000000 0.500000
O O8 0.915657 0.025115 0.318026
O O9 0.909008 0.750000 0.765005
O O10 0.933205 0.816796 0.625000
O O11 0.323276 0.926725 0.375000
O O12 0.250000 0.887156 0.250000
O O13 0.286559 0.836678 0.399781
O O14 0.500000 0.986969 0.261187
#
# Coordination Sequence:
#
# PCOD9572983 Si02
#       5
#    32  32  32  32  32
#     4  10  20  36  56  83 113 145 193 235 272 332
#     4   9  18  31  50  79 112 143 186 238 279 317
#     4  11  21  34  54  83 122 161 192 225 276 342
#     4  10  22  39  63  83 109 142 188 240 295 349
#     4   9  17  34  58  81 106 139 184 240 284 325
#
# _framework density 18.10427
#
# number of rings (size 3 to 8) (size 9 to 14) (size 15 to 20)
#    0.000    2.200    2.000    1.200    2.800    3.800 
#    0.000    1.000    8.800    0.000    0.000    0.000 
#    0.000    0.000    0.000    0.000    0.000    0.000 
#
# Total GULP energy -445387.442394 kJ/mol
# GULP energy per Si atom -5567.343030 kJ/mol
# Density = 1.806306 g / cm^3
# Si number density = 18.104270 Si / 1000 Ang^3
#
#
#
# Elastic Constant Matrix: (Units=GPa)
#
#
# Indices 1 2 3 4 5 6 
#
# 1 64.3626 30.2528 25.7996 0.0000 0.0000 0.0000
# 2 30.2528 64.3580 25.7944 0.0000 0.0000 0.0000
# 3 25.7996 25.7944 46.1775 0.0000 0.0000 0.0000
# 4 0.0000 0.0000 0.0000 19.8530 0.0000 0.0000
# 5 0.0000 0.0000 0.0000 0.0000 19.8547 0.0000
# 6 0.0000 0.0000 0.0000 0.0000 0.0000 -186.5901
#
#
#
# Elastic Compliance Matrix: (Units=1/GPa)
#
#
# Indices 1 2 3 4 5 6 
#
# 1 0.022260 -0.007060 -0.008493 0.000000 0.000000 0.000000
# 2 -0.007060 0.022259 -0.008490 0.000000 0.000000 0.000000
# 3 -0.008493 -0.008490 0.031143 0.000000 0.000000 0.000000
# 4 0.000000 0.000000 0.000000 0.050370 0.000000 0.000000
# 5 0.000000 0.000000 0.000000 0.000000 0.050366 0.000000
# 6 0.000000 0.000000 0.000000 0.000000 0.000000 -0.005359
#
#
# Mechanical properties :
#
#
# Convention : Reuss Voigt Hill
#
# Bulk Modulus (GPa) = 36.26189 37.62129 36.94159
# Shear Modulus (GPa) = 21.89951 -23.17305 -0.63677
#
# Velocity S-wave (km/s) = 3.48175 -3.58156 -0.59371
# Velocity P-wave (km/s) = 6.01967 1.92926 4.46981
#
# Compressibility (1/GPa) = 0.02757716
#
# Stress axis : x y z
#
# Youngs Moduli (GPa) = 44.92429 44.92527 32.11001
#
# Poissons Ratio (x) = 0.31715 0.27271
# Poissons Ratio (y) = 0.31715 0.27260
# Poissons Ratio (z) = 0.38155 0.38140
#
# Static dielectric constant tensor:
#      x y z
#    x 1.645480 0.000000 0.000000 
#    y 0.000000 1.645480 0.000000 
#    z 0.000000 0.000000 1.641810 
# 
# From -- ./inp_files/6619.got.cif
#   From: 2010.05.17/outbox.cif.g08.bks.cpg/sg141_4_cif.got.tgz:6619.got - 2010.05.20 13:30:51.
