data_PCOD9572669
_publ_section_title
;
Structure prediction by ZEFSAII (Michael W. Deem and Ramdas Pophale) SiO2 
 PCOD9572669
Probable space group: I 4/M C M
;
_chemical_formula_sum "Si O2"
_cell_formula_units_Z 144
_cell_length_a 23.037528
_cell_length_b 23.037528
_cell_length_c 16.480056
_cell_angle_alpha 90.000000
_cell_angle_beta 90.000000
_cell_angle_gamma 90.000000
_cell_volume 8746.422157
_symmetry_space_group_name_H-M "I 4/M C M"
_symmetry_group_IT_number 140
_symmetry_cell_setting 'tetragonal'
loop_
_space_group_symop_operation_xyz
x,y,z
-y,x,z
-x,-y,z
y,-x,z
x,-y,1/2-z
-x,y,1/2-z
y,x,1/2-z
-y,-x,1/2-z
-x,-y,-z
y,-x,-z
x,y,-z
-y,x,-z
-x,y,1/2+z
x,-y,1/2+z
-y,-x,1/2+z
y,x,1/2+z
1/2+x,1/2+y,1/2+z
1/2-y,1/2+x,1/2+z
1/2-x,1/2-y,1/2+z
1/2+y,1/2-x,1/2+z
1/2+x,1/2-y,-z
1/2-x,1/2+y,-z
1/2+y,1/2+x,-z
1/2-y,1/2-x,-z
1/2-x,1/2-y,1/2-z
1/2+y,1/2-x,1/2-z
1/2+x,1/2+y,1/2-z
1/2-y,1/2+x,1/2-z
1/2-x,1/2+y,z
1/2+x,1/2-y,z
1/2-y,1/2-x,z
1/2+y,1/2+x,z
loop_
_atom_site_type_symbol
_atom_site_label
_atom_site_fract_x
_atom_site_fract_y
_atom_site_fract_z
Si Si1 0.221968 0.721968 0.129225
Si Si2 0.549741 0.049741 0.096475
Si Si3 0.511927 0.246015 0.500000
Si Si4 0.859265 0.640736 0.714609
Si Si5 0.166128 0.513350 0.159374
Si Si6 0.616871 0.736076 0.500000
Si Si7 0.643104 0.714522 0.000000
Si Si8 0.317881 0.817881 0.874126
O O1 0.188944 0.688944 0.198399
O O2 0.252432 0.671897 0.076077
O O3 0.269694 0.769694 0.150848
O O4 0.522211 0.106709 0.139794
O O5 0.500000 0.000000 0.099283
O O6 0.561877 0.061877 0.000000
O O7 0.508158 0.207072 0.418605
O O8 0.450637 0.278961 0.500000
O O9 0.573532 0.280001 0.500000
O O10 0.844895 0.581001 0.672050
O O11 0.855792 0.644209 0.811939
O O12 0.189909 0.500000 0.250000
O O13 0.652919 0.676169 0.500000
O O14 0.637631 0.777846 0.574035
#
# Coordination Sequence:
#
# PCOD9572669 Si02
#       8
#    16  16  16  16  32  16  16  16
#     4   9  17  32  55  80 106 134 181 224 284 327
#     4  11  23  39  50  66 104 155 198 232 271 300
#     4  12  22  38  59  79 110 140 178 238 286 334
#     4  12  20  33  51  76 109 139 188 232 278 310
#     4  12  25  36  53  78 108 149 196 237 269 327
#     4   9  20  37  57  77 107 147 179 217 290 346
#     4   9  18  35  57  81 105 137 181 227 278 342
#     4   9  19  35  55  79 108 142 175 227 280 342
#
# _framework density 16.463875000000002
#
# number of rings (size 3 to 8) (size 9 to 14) (size 15 to 20)
#    0.000    1.444    4.444    3.667    0.000    2.222 
#    0.000    0.000    0.000    0.333    0.000    0.000 
#    0.000    0.000    0.000    3.333    0.000    0.000 
#
# Total GULP energy -400821.045576 kJ/mol
# GULP energy per Si atom -5566.958966 kJ/mol
# Density = 1.642640 g / cm^3
# Si number density = 16.463875 Si / 1000 Ang^3
#
#
#
# Elastic Constant Matrix: (Units=GPa)
#
#
# Indices 1 2 3 4 5 6 
#
# 1 109.0537 52.9776 33.4277 0.0000 0.0000 0.0000
# 2 52.9776 109.0537 33.4277 0.0000 0.0000 0.0000
# 3 33.4277 33.4277 89.0179 0.0000 0.0000 0.0000
# 4 0.0000 0.0000 0.0000 7.4546 0.0000 0.0000
# 5 0.0000 0.0000 0.0000 0.0000 7.4546 0.0000
# 6 0.0000 0.0000 0.0000 0.0000 0.0000 13.2702
#
#
#
# Elastic Compliance Matrix: (Units=1/GPa)
#
#
# Indices 1 2 3 4 5 6 
#
# 1 0.012568 -0.005265 -0.002742 0.000000 0.000000 0.000000
# 2 -0.005265 0.012568 -0.002742 0.000000 0.000000 0.000000
# 3 -0.002742 -0.002742 0.013293 0.000000 0.000000 0.000000
# 4 0.000000 0.000000 0.000000 0.134145 0.000000 0.000000
# 5 0.000000 0.000000 0.000000 0.000000 0.134145 0.000000
# 6 0.000000 0.000000 0.000000 0.000000 0.000000 0.075357
#
#
# Mechanical properties :
#
#
# Convention : Reuss Voigt Hill
#
# Bulk Modulus (GPa) = 59.06710 60.75461 59.91086
# Shear Modulus (GPa) = 12.21837 18.12202 15.17020
#
# Velocity S-wave (km/s) = 2.72717 3.32130 3.03879
# Velocity P-wave (km/s) = 6.77283 7.18957 6.98431
#
# Compressibility (1/GPa) = 0.01692990
#
# Stress axis : x y z
#
# Youngs Moduli (GPa) = 79.56678 79.56678 75.22531
#
# Poissons Ratio (x) = 0.41891 0.20630
# Poissons Ratio (y) = 0.41891 0.20630
# Poissons Ratio (z) = 0.21821 0.21821
#
# Static dielectric constant tensor:
#      x y z
#    x 1.606730 0.000000 0.000000 
#    y 0.000000 1.606730 0.000000 
#    z 0.000000 0.000000 1.617920 
# 
# From -- ./inp_files/7086.got.cif
#   From: 2010.05.17/outbox.cif.g08.bks.cpg/sg140_4_cif.got.tgz:7086.got - 2010.06.21 00:45:31.
