data_PCOD9572917
_publ_section_title
;
Structure prediction by ZEFSAII (Michael W. Deem and Ramdas Pophale) SiO2 
 PCOD9572917
Probable space group: I 41/A M D
;
_chemical_formula_sum "Si O2"
_cell_formula_units_Z 144
_cell_length_a 22.710170
_cell_length_b 22.710170
_cell_length_c 17.935020
_cell_angle_alpha 90.000000
_cell_angle_beta 90.000000
_cell_angle_gamma 90.000000
_cell_volume 9250.019232
_symmetry_space_group_name_H-M "I 41/A M D"
_symmetry_group_IT_number 141
_space_group.IT_coordinate_system_code '2'
_symmetry_cell_setting 'tetragonal'
loop_
_space_group_symop_operation_xyz
x,y,z
1/4-y,3/4+x,1/4+z
-x,1/2-y,z
1/4+y,1/4-x,3/4+z
x,-y,-z
-x,1/2+y,-z
1/4+y,3/4+x,1/4-z
1/4-y,1/4-x,3/4-z
-x,-y,-z
3/4+y,1/4-x,3/4-z
x,1/2+y,-z
3/4-y,3/4+x,1/4-z
-x,y,z
x,1/2-y,z
3/4-y,1/4-x,3/4+z
3/4+y,3/4+x,1/4+z
1/2+x,1/2+y,1/2+z
3/4-y,1/4+x,3/4+z
1/2-x,-y,1/2+z
3/4+y,3/4-x,1/4+z
1/2+x,1/2-y,1/2-z
1/2-x,y,1/2-z
3/4+y,1/4+x,3/4-z
3/4-y,3/4-x,1/4-z
1/2-x,1/2-y,1/2-z
1/4+y,3/4-x,1/4-z
1/2+x,y,1/2-z
1/4-y,1/4+x,3/4-z
1/2-x,1/2+y,1/2+z
1/2+x,-y,1/2+z
1/4-y,3/4-x,1/4+z
1/4+y,1/4+x,3/4+z
loop_
_atom_site_type_symbol
_atom_site_label
_atom_site_fract_x
_atom_site_fract_y
_atom_site_fract_z
Si Si1 0.750000 0.506367 0.250000
Si Si2 0.673285 0.318807 0.961149
Si Si3 0.180365 0.069297 0.621943
Si Si4 0.120285 0.681757 0.697926
Si Si5 0.742350 0.681376 0.882763
O O1 0.791231 0.546186 0.301879
O O2 0.712507 0.465068 0.304657
O O3 0.669826 0.250000 0.943201
O O4 0.611402 0.344405 0.990855
O O5 0.716740 0.324853 0.032912
O O6 0.688635 0.361744 0.893392
O O7 0.113654 0.045101 0.620291
O O8 0.119064 0.750000 0.718266
O O9 0.080346 0.669655 0.625000
O O10 0.186931 0.666574 0.671409
O O11 0.757420 0.750000 0.870738
#
# Coordination Sequence:
#
# PCOD9572917 Si02
#       5
#    16  32  32  32  32
#     4  10  22  30  54  76  98 124 162 206 264 290
#     4  10  20  32  47  67  98 133 165 205 247 286
#     4  11  19  35  50  75  99 130 163 213 245 305
#     4   9  17  28  43  67 100 138 174 201 231 281
#     4   9  18  31  48  71 101 137 167 196 241 296
#
# _framework density 15.567534999999999
#
# number of rings (size 3 to 8) (size 9 to 14) (size 15 to 20)
#    0.000    2.222    2.222    3.333    6.222    2.444 
#    0.000    3.333    0.000    0.000    0.000    0.000 
#    0.000    0.000    0.000    0.000    0.000    0.000 
#
# Total GULP energy -401677.617094 kJ/mol
# GULP energy per Si atom -5578.855793 kJ/mol
# Density = 1.553210 g / cm^3
# Si number density = 15.567535 Si / 1000 Ang^3
#
#
#
# Elastic Constant Matrix: (Units=GPa)
#
#
# Indices 1 2 3 4 5 6 
#
# 1 83.2452 50.4830 32.0955 0.0000 0.0000 0.0000
# 2 50.4830 83.2443 32.0955 0.0000 0.0000 0.0000
# 3 32.0955 32.0955 52.5398 0.0000 0.0000 0.0000
# 4 0.0000 0.0000 0.0000 14.5916 0.0000 0.0000
# 5 0.0000 0.0000 0.0000 0.0000 14.5918 0.0000
# 6 0.0000 0.0000 0.0000 0.0000 0.0000 11.1129
#
#
#
# Elastic Compliance Matrix: (Units=1/GPa)
#
#
# Indices 1 2 3 4 5 6 
#
# 1 0.020552 -0.009972 -0.006463 0.000000 0.000000 0.000000
# 2 -0.009972 0.020552 -0.006463 0.000000 0.000000 0.000000
# 3 -0.006463 -0.006463 0.026930 0.000000 0.000000 0.000000
# 4 0.000000 0.000000 0.000000 0.068533 0.000000 0.000000
# 5 0.000000 0.000000 0.000000 0.000000 0.068531 0.000000
# 6 0.000000 0.000000 0.000000 0.000000 0.000000 0.089985
#
#
# Mechanical properties :
#
#
# Convention : Reuss Voigt Hill
#
# Bulk Modulus (GPa) = 44.96965 49.81971 47.39468
# Shear Modulus (GPa) = 14.35579 15.01629 14.68604
#
# Velocity S-wave (km/s) = 3.04001 3.10915 3.07477
# Velocity P-wave (km/s) = 6.42431 6.70529 6.56630
#
# Compressibility (1/GPa) = 0.02223722
#
# Stress axis : x y z
#
# Youngs Moduli (GPa) = 48.65768 48.65694 37.13355
#
# Poissons Ratio (x) = 0.48518 0.24000
# Poissons Ratio (y) = 0.48519 0.24001
# Poissons Ratio (z) = 0.31449 0.31449
#
# Static dielectric constant tensor:
#      x y z
#    x 1.523880 0.000000 0.000000 
#    y 0.000000 1.523880 0.000000 
#    z 0.000000 0.000000 1.526670 
# 
# From -- ./inp_files/10338.got.cif
#   From: 2010.05.17/outbox.cif.g08.bks.cpg/sg141_6_cif.got.tgz:10338.got - 2010.05.20 13:30:51.
