data_PCOD9572783
_publ_section_title
;
Structure prediction by ZEFSAII (Michael W. Deem and Ramdas Pophale) SiO2 
 PCOD9572783
Probable space group: I 41/A M D
;
_chemical_formula_sum "Si O2"
_cell_formula_units_Z 160
_cell_length_a 17.713432
_cell_length_b 17.713432
_cell_length_c 25.354322
_cell_angle_alpha 90.000000
_cell_angle_beta 90.000000
_cell_angle_gamma 90.000000
_cell_volume 7955.315911
_symmetry_space_group_name_H-M "I 41/A M D"
_symmetry_group_IT_number 141
_space_group.IT_coordinate_system_code '2'
_symmetry_cell_setting 'tetragonal'
loop_
_space_group_symop_operation_xyz
x,y,z
1/4-y,3/4+x,1/4+z
-x,1/2-y,z
1/4+y,1/4-x,3/4+z
x,-y,-z
-x,1/2+y,-z
1/4+y,3/4+x,1/4-z
1/4-y,1/4-x,3/4-z
-x,-y,-z
3/4+y,1/4-x,3/4-z
x,1/2+y,-z
3/4-y,3/4+x,1/4-z
-x,y,z
x,1/2-y,z
3/4-y,1/4-x,3/4+z
3/4+y,3/4+x,1/4+z
1/2+x,1/2+y,1/2+z
3/4-y,1/4+x,3/4+z
1/2-x,-y,1/2+z
3/4+y,3/4-x,1/4+z
1/2+x,1/2-y,1/2-z
1/2-x,y,1/2-z
3/4+y,1/4+x,3/4-z
3/4-y,3/4-x,1/4-z
1/2-x,1/2-y,1/2-z
1/4+y,3/4-x,1/4-z
1/2+x,y,1/2-z
1/4-y,1/4+x,3/4-z
1/2-x,1/2+y,1/2+z
1/2+x,-y,1/2+z
1/4-y,3/4-x,1/4+z
1/4+y,1/4+x,3/4+z
loop_
_atom_site_type_symbol
_atom_site_label
_atom_site_fract_x
_atom_site_fract_y
_atom_site_fract_z
Si Si1 0.590616 0.340824 0.934769
Si Si2 0.828982 0.332190 0.944631
Si Si3 0.823105 0.955254 0.354969
Si Si4 0.583920 0.023352 0.573650
Si Si5 0.194008 0.164246 0.471245
O O1 0.500000 0.346403 0.931149
O O2 0.610242 0.250000 0.924723
O O3 0.629766 0.402749 0.895964
O O4 0.621953 0.359197 0.993595
O O5 0.865430 0.250000 0.949734
O O6 0.790076 0.335197 0.886912
O O7 0.888736 0.398111 0.949895
O O8 0.762037 0.337992 0.986367
O O9 0.791238 0.894560 0.313382
O O10 0.747796 0.997796 0.375000
O O11 0.868759 0.022745 0.327638
O O12 0.500000 0.001549 0.559200
O O13 0.181029 0.250000 0.454330
#
# Coordination Sequence:
#
# PCOD9572783 Si02
#       5
#    32  32  32  32  32
#     4  10  21  41  67  90 117 160 209 250 295 360
#     4   9  17  33  53  76 109 151 194 236 288 351
#     4  12  22  36  57  89 120 156 194 248 302 359
#     4  10  18  32  53  78 110 152 197 238 286 348
#     4  10  21  39  61  84 115 152 194 245 303 360
#
# _framework density 20.112338999999999
#
# number of rings (size 3 to 8) (size 9 to 14) (size 15 to 20)
#    0.000    1.800    4.000    1.200    0.000    3.600 
#    0.000    8.000    0.000    2.400    0.000    0.000 
#    0.000    0.000    0.000    0.000    0.000    0.000 
#
# Total GULP energy -445871.532079 kJ/mol
# GULP energy per Si atom -5573.394151 kJ/mol
# Density = 2.006656 g / cm^3
# Si number density = 20.112339 Si / 1000 Ang^3
#
#
#
# Elastic Constant Matrix: (Units=GPa)
#
#
# Indices 1 2 3 4 5 6 
#
# 1 108.4179 57.3680 32.0563 0.0000 0.0000 0.0000
# 2 57.3680 108.4179 32.0563 0.0000 0.0000 0.0000
# 3 32.0563 32.0563 59.9737 0.0000 0.0000 0.0000
# 4 0.0000 0.0000 0.0000 21.0039 0.0000 0.0000
# 5 0.0000 0.0000 0.0000 0.0000 21.0039 0.0000
# 6 0.0000 0.0000 0.0000 0.0000 0.0000 27.9409
#
#
#
# Elastic Compliance Matrix: (Units=1/GPa)
#
#
# Indices 1 2 3 4 5 6 
#
# 1 0.013596 -0.005993 -0.004064 0.000000 0.000000 0.000000
# 2 -0.005993 0.013596 -0.004064 0.000000 0.000000 0.000000
# 3 -0.004064 -0.004064 0.021019 0.000000 0.000000 0.000000
# 4 0.000000 0.000000 0.000000 0.047610 0.000000 0.000000
# 5 0.000000 0.000000 0.000000 0.000000 0.047610 0.000000
# 6 0.000000 0.000000 0.000000 0.000000 0.000000 0.035790
#
#
# Mechanical properties :
#
#
# Convention : Reuss Voigt Hill
#
# Bulk Modulus (GPa) = 50.07731 57.75230 53.91481
# Shear Modulus (GPa) = 23.35148 24.34499 23.84823
#
# Velocity S-wave (km/s) = 3.41112 3.48293 3.44721
# Velocity P-wave (km/s) = 6.36138 6.70459 6.53524
#
# Compressibility (1/GPa) = 0.01996912
#
# Stress axis : x y z
#
# Youngs Moduli (GPa) = 73.55046 73.55046 47.57691
#
# Poissons Ratio (x) = 0.44075 0.19336
# Poissons Ratio (y) = 0.44075 0.19336
# Poissons Ratio (z) = 0.29892 0.29892
#
# Static dielectric constant tensor:
#      x y z
#    x 1.722000 0.000000 0.000000 
#    y 0.000000 1.722000 0.000000 
#    z 0.000000 0.000000 1.746810 
# 
# From -- ./inp_files/12721.got.cif
#   From: 2010.05.17/outbox.cif.g08.bks.cpg/sg141_7_cif.got.tgz:12721.got - 2010.05.20 13:30:51.
