data_PCOD9572543
_publ_section_title
;
Structure prediction by ZEFSAII (Michael W. Deem and Ramdas Pophale) SiO2 
 PCOD9572543
Probable space group: I 4/M C M
;
_chemical_formula_sum "Si O2"
_cell_formula_units_Z 128
_cell_length_a 18.909017
_cell_length_b 18.909017
_cell_length_c 16.152972
_cell_angle_alpha 90.000000
_cell_angle_beta 90.000000
_cell_angle_gamma 90.000000
_cell_volume 5775.510062
_symmetry_space_group_name_H-M "I 4/M C M"
_symmetry_group_IT_number 140
_symmetry_cell_setting 'tetragonal'
loop_
_space_group_symop_operation_xyz
x,y,z
-y,x,z
-x,-y,z
y,-x,z
x,-y,1/2-z
-x,y,1/2-z
y,x,1/2-z
-y,-x,1/2-z
-x,-y,-z
y,-x,-z
x,y,-z
-y,x,-z
-x,y,1/2+z
x,-y,1/2+z
-y,-x,1/2+z
y,x,1/2+z
1/2+x,1/2+y,1/2+z
1/2-y,1/2+x,1/2+z
1/2-x,1/2-y,1/2+z
1/2+y,1/2-x,1/2+z
1/2+x,1/2-y,-z
1/2-x,1/2+y,-z
1/2+y,1/2+x,-z
1/2-y,1/2-x,-z
1/2-x,1/2-y,1/2-z
1/2+y,1/2-x,1/2-z
1/2+x,1/2+y,1/2-z
1/2-y,1/2+x,1/2-z
1/2-x,1/2+y,z
1/2+x,1/2-y,z
1/2-y,1/2-x,z
1/2+y,1/2+x,z
loop_
_atom_site_type_symbol
_atom_site_label
_atom_site_fract_x
_atom_site_fract_y
_atom_site_fract_z
Si Si1 0.337289 0.722008 0.500000
Si Si2 0.977411 0.272808 0.342002
Si Si3 0.158290 0.543117 0.000000
Si Si4 0.011423 0.884010 0.899531
Si Si5 0.289950 0.327701 0.163926
O O1 0.262204 0.762204 0.500000
O O2 0.395931 0.781682 0.500000
O O3 0.338059 0.677190 0.417078
O O4 0.008674 0.193825 0.359664
O O5 0.893564 0.261691 0.343856
O O6 0.000000 0.295681 0.250000
O O7 0.000810 0.324757 0.415863
O O8 0.083315 0.583315 0.000000
O O9 0.073341 0.939330 0.877424
O O10 0.012191 0.874941 0.000000
O O11 0.331167 0.331167 0.250000
O O12 0.244437 0.255564 0.166210
#
# Coordination Sequence:
#
# PCOD9572543 Si02
#       5
#    16  32  16  32  32
#     4   9  19  36  62  84 113 163 206 261 339 398
#     4  12  25  36  64  96 123 176 230 281 347 428
#     4  11  25  46  65  94 136 178 226 282 348 410
#     4   9  20  37  56  83 130 182 226 276 335 420
#     4  10  22  40  62  92 129 164 212 282 340 399
#
# _framework density 22.162545000000001
#
# number of rings (size 3 to 8) (size 9 to 14) (size 15 to 20)
#    0.000    1.750    1.250    3.000    7.000    3.000 
#    0.000    1.250    0.000    1.500    0.000    1.750 
#    0.000    0.000    0.000    0.000    0.000    0.000 
#
# Total GULP energy -357949.863199 kJ/mol
# GULP energy per Si atom -5592.966612 kJ/mol
# Density = 2.211210 g / cm^3
# Si number density = 22.162545 Si / 1000 Ang^3
#
#
#
# Elastic Constant Matrix: (Units=GPa)
#
#
# Indices 1 2 3 4 5 6 
#
# 1 55.1921 -7.1130 32.7728 0.0000 0.0000 0.0000
# 2 -7.1130 55.1921 32.7728 0.0000 0.0000 0.0000
# 3 32.7728 32.7728 190.5381 0.0000 0.0000 0.0000
# 4 0.0000 0.0000 0.0000 0.9285 0.0000 0.0000
# 5 0.0000 0.0000 0.0000 0.0000 0.9285 0.0000
# 6 0.0000 0.0000 0.0000 0.0000 0.0000 36.9293
#
#
#
# Elastic Compliance Matrix: (Units=1/GPa)
#
#
# Indices 1 2 3 4 5 6 
#
# 1 0.021610 0.005560 -0.004673 0.000000 0.000000 0.000000
# 2 0.005560 0.021610 -0.004673 0.000000 0.000000 0.000000
# 3 -0.004673 -0.004673 0.006856 0.000000 0.000000 0.000000
# 4 0.000000 0.000000 0.000000 1.076963 0.000000 0.000000
# 5 0.000000 0.000000 0.000000 0.000000 1.076963 0.000000
# 6 0.000000 0.000000 0.000000 0.000000 0.000000 0.027079
#
#
# Mechanical properties :
#
#
# Convention : Reuss Voigt Hill
#
# Bulk Modulus (GPa) = 23.52774 46.42080 34.97427
# Shear Modulus (GPa) = 2.21944 23.92326 13.07135
#
# Velocity S-wave (km/s) = 1.00180 3.28906 2.43120
# Velocity P-wave (km/s) = 3.46081 5.95104 4.86786
#
# Compressibility (1/GPa) = 0.04250301
#
# Stress axis : x y z
#
# Youngs Moduli (GPa) = 46.27468 46.27468 145.85940
#
# Poissons Ratio (x) = -0.25729 0.68164
# Poissons Ratio (y) = -0.25729 0.68164
# Poissons Ratio (z) = 0.21626 0.21626
#
# Static dielectric constant tensor:
#      x y z
#    x 1.816710 0.000000 0.000000 
#    y 0.000000 1.816710 0.000000 
#    z 0.000000 0.000000 1.894930 
# 
# From -- ./inp_files/4374.got.cif
#   From: 2010.05.17/outbox.cif.g08.bks.cpg/sg140_3_cif.got.tgz:4374.got - 2010.06.21 00:45:31.
