data_PCOD9572375
_publ_section_title
;
Structure prediction by ZEFSAII (Michael W. Deem and Ramdas Pophale) SiO2 
 PCOD9572375
Probable space group: I 4/M C M
;
_chemical_formula_sum "Si O2"
_cell_formula_units_Z 144
_cell_length_a 18.147546
_cell_length_b 18.147546
_cell_length_c 24.706791
_cell_angle_alpha 90.000000
_cell_angle_beta 90.000000
_cell_angle_gamma 90.000000
_cell_volume 8136.772121
_symmetry_space_group_name_H-M "I 4/M C M"
_symmetry_group_IT_number 140
_symmetry_cell_setting 'tetragonal'
loop_
_space_group_symop_operation_xyz
x,y,z
-y,x,z
-x,-y,z
y,-x,z
x,-y,1/2-z
-x,y,1/2-z
y,x,1/2-z
-y,-x,1/2-z
-x,-y,-z
y,-x,-z
x,y,-z
-y,x,-z
-x,y,1/2+z
x,-y,1/2+z
-y,-x,1/2+z
y,x,1/2+z
1/2+x,1/2+y,1/2+z
1/2-y,1/2+x,1/2+z
1/2-x,1/2-y,1/2+z
1/2+y,1/2-x,1/2+z
1/2+x,1/2-y,-z
1/2-x,1/2+y,-z
1/2+y,1/2+x,-z
1/2-y,1/2-x,-z
1/2-x,1/2-y,1/2-z
1/2+y,1/2-x,1/2-z
1/2+x,1/2+y,1/2-z
1/2-y,1/2+x,1/2-z
1/2-x,1/2+y,z
1/2+x,1/2-y,z
1/2-y,1/2-x,z
1/2+y,1/2+x,z
loop_
_atom_site_type_symbol
_atom_site_label
_atom_site_fract_x
_atom_site_fract_y
_atom_site_fract_z
Si Si1 0.203055 0.089065 0.893996
Si Si2 0.955079 0.886037 0.500000
Si Si3 0.711248 0.331422 0.689953
Si Si4 0.640085 0.140085 0.436574
Si Si5 0.485165 0.217115 0.689390
Si Si6 0.438048 0.938048 0.341209
O O1 0.156608 0.062492 0.944850
O O2 0.163318 0.148755 0.855704
O O3 0.276871 0.123562 0.919263
O O4 0.231635 0.024293 0.854814
O O5 0.040070 0.907609 0.500000
O O6 0.674988 0.325013 0.750000
O O7 0.754823 0.254823 0.682518
O O8 0.770343 0.397554 0.684082
O O9 0.629064 0.129064 0.500000
O O10 0.587859 0.087859 0.400528
O O11 0.500000 0.243664 0.750000
O O12 0.524364 0.136023 0.684515
O O13 0.500000 0.000000 0.341573
#
# Coordination Sequence:
#
# PCOD9572375 Si02
#       6
#    32  16  32  16  32  16
#     4  11  21  40  63  89 118 159 204 253 314 367
#     4  11  24  41  64  86 117 157 204 257 309 378
#     4  11  22  36  60  89 125 162 205 258 307 369
#     4  10  20  39  64  86 117 160 203 257 308 366
#     4  11  23  37  59  89 127 164 205 255 316 375
#     4  10  24  37  57  89 124 169 214 250 311 387
#
# _framework density 17.697434999999999
#
# number of rings (size 3 to 8) (size 9 to 14) (size 15 to 20)
#    0.000    1.222    4.444    2.000    3.111    0.222 
#    0.000    0.000    0.000    0.000    0.000    0.000 
#    0.000    0.000    0.000    0.000    0.000    0.000 
#
# Total GULP energy -401484.640500 kJ/mol
# GULP energy per Si atom -5576.175563 kJ/mol
# Density = 1.765716 g / cm^3
# Si number density = 17.697435 Si / 1000 Ang^3
#
#
#
# Elastic Constant Matrix: (Units=GPa)
#
#
# Indices 1 2 3 4 5 6 
#
# 1 102.1105 38.3532 60.7122 0.0000 0.0000 0.0000
# 2 38.3532 102.1103 60.7123 0.0000 0.0000 0.0000
# 3 60.7122 60.7123 167.2873 0.0000 0.0000 0.0000
# 4 0.0000 0.0000 0.0000 30.2710 0.0000 0.0000
# 5 0.0000 0.0000 0.0000 0.0000 30.2703 0.0000
# 6 0.0000 0.0000 0.0000 0.0000 0.0000 31.4642
#
#
#
# Elastic Compliance Matrix: (Units=1/GPa)
#
#
# Indices 1 2 3 4 5 6 
#
# 1 0.013029 -0.002655 -0.003765 0.000000 0.000000 0.000000
# 2 -0.002655 0.013029 -0.003765 0.000000 0.000000 0.000000
# 3 -0.003765 -0.003765 0.008710 0.000000 0.000000 0.000000
# 4 0.000000 0.000000 0.000000 0.033035 0.000000 0.000000
# 5 0.000000 0.000000 0.000000 0.000000 0.033036 0.000000
# 6 0.000000 0.000000 0.000000 0.000000 0.000000 0.031782
#
#
# Mechanical properties :
#
#
# Convention : Reuss Voigt Hill
#
# Bulk Modulus (GPa) = 69.45122 76.78484 73.11803
# Shear Modulus (GPa) = 31.68740 32.51646 32.10193
#
# Velocity S-wave (km/s) = 4.23603 4.29109 4.26365
# Velocity P-wave (km/s) = 7.95325 8.24821 8.10207
#
# Compressibility (1/GPa) = 0.01439860
#
# Stress axis : x y z
#
# Youngs Moduli (GPa) = 76.75089 76.75067 114.80426
#
# Poissons Ratio (x) = 0.20380 0.43223
# Poissons Ratio (y) = 0.20380 0.43223
# Poissons Ratio (z) = 0.28896 0.28896
#
# Static dielectric constant tensor:
#      x y z
#    x 1.608180 0.000000 0.000000 
#    y 0.000000 1.608180 0.000000 
#    z 0.000000 0.000000 1.584710 
# 
# From -- ./inp_files/9492.got.cif
#   From: 2010.05.17/outbox.cif.g08.bks.cpg/sg140_5_cif.got.tgz:9492.got - 2010.06.21 00:45:31.
