data_PCOD9572001
_publ_section_title
;
Structure prediction by ZEFSAII (Michael W. Deem and Ramdas Pophale) SiO2 
 PCOD9572001
Probable space group: I 4/M C M
;
_chemical_formula_sum "Si O2"
_cell_formula_units_Z 112
_cell_length_a 16.278145
_cell_length_b 16.278145
_cell_length_c 26.619452
_cell_angle_alpha 90.000000
_cell_angle_beta 90.000000
_cell_angle_gamma 90.000000
_cell_volume 7053.569276
_symmetry_space_group_name_H-M "I 4/M C M"
_symmetry_group_IT_number 140
_symmetry_cell_setting 'tetragonal'
loop_
_space_group_symop_operation_xyz
x,y,z
-y,x,z
-x,-y,z
y,-x,z
x,-y,1/2-z
-x,y,1/2-z
y,x,1/2-z
-y,-x,1/2-z
-x,-y,-z
y,-x,-z
x,y,-z
-y,x,-z
-x,y,1/2+z
x,-y,1/2+z
-y,-x,1/2+z
y,x,1/2+z
1/2+x,1/2+y,1/2+z
1/2-y,1/2+x,1/2+z
1/2-x,1/2-y,1/2+z
1/2+y,1/2-x,1/2+z
1/2+x,1/2-y,-z
1/2-x,1/2+y,-z
1/2+y,1/2+x,-z
1/2-y,1/2-x,-z
1/2-x,1/2-y,1/2-z
1/2+y,1/2-x,1/2-z
1/2+x,1/2+y,1/2-z
1/2-y,1/2+x,1/2-z
1/2-x,1/2+y,z
1/2+x,1/2-y,z
1/2-y,1/2-x,z
1/2+y,1/2+x,z
loop_
_atom_site_type_symbol
_atom_site_label
_atom_site_fract_x
_atom_site_fract_y
_atom_site_fract_z
Si Si1 0.003884 0.637379 0.193970
Si Si2 0.428345 0.211358 0.597921
Si Si3 0.432290 0.617585 0.940122
Si Si4 0.136758 0.495915 0.500000
O O1 0.090072 0.590072 0.185792
O O2 0.000000 0.674037 0.250000
O O3 0.935024 0.564976 0.194105
O O4 0.979094 0.696437 0.148781
O O5 0.352359 0.147642 0.597668
O O6 0.399840 0.304311 0.589754
O O7 0.485402 0.188044 0.550081
O O8 0.391921 0.529629 0.929256
O O9 0.422919 0.631288 0.000000
O O10 0.063744 0.563744 0.500000
O O11 0.091909 0.408092 0.500000
#
# Coordination Sequence:
#
# PCOD9572001 Si02
#       4
#    32  32  32  16
#     4   8  14  25  42  65  93 126 159 184 217 275
#     4  10  17  27  46  69  94 118 145 189 235 269
#     4   9  18  33  50  64  86 124 162 186 214 269
#     4   9  16  24  36  61  96 124 139 164 222 286
#
# _framework density 15.878486000000001
#
# number of rings (size 3 to 8) (size 9 to 14) (size 15 to 20)
#    0.000    3.000    1.429    2.571    0.000    3.429 
#    0.000    2.857    0.000    1.714    0.000    8.000 
#    0.000    0.000    0.000    0.000    0.000    0.000 
#
# Total GULP energy -311765.971931 kJ/mol
# GULP energy per Si atom -5567.249499 kJ/mol
# Density = 1.584235 g / cm^3
# Si number density = 15.878486 Si / 1000 Ang^3
#
#
#
# Elastic Constant Matrix: (Units=GPa)
#
#
# Indices 1 2 3 4 5 6 
#
# 1 45.4182 -0.3691 18.6654 0.0000 0.0000 0.0000
# 2 -0.3691 45.4181 18.6653 0.0000 0.0000 0.0000
# 3 18.6654 18.6653 93.5606 0.0000 0.0000 0.0000
# 4 0.0000 0.0000 0.0000 11.4381 0.0000 0.0000
# 5 0.0000 0.0000 0.0000 0.0000 11.4377 0.0000
# 6 0.0000 0.0000 0.0000 0.0000 0.0000 4.4338
#
#
#
# Elastic Compliance Matrix: (Units=1/GPa)
#
#
# Indices 1 2 3 4 5 6 
#
# 1 0.024217 0.002377 -0.005306 0.000000 0.000000 0.000000
# 2 0.002377 0.024217 -0.005306 0.000000 0.000000 0.000000
# 3 -0.005306 -0.005306 0.012805 0.000000 0.000000 0.000000
# 4 0.000000 0.000000 0.000000 0.087427 0.000000 0.000000
# 5 0.000000 0.000000 0.000000 0.000000 0.087430 0.000000
# 6 0.000000 0.000000 0.000000 0.000000 0.000000 0.225542
#
#
# Mechanical properties :
#
#
# Convention : Reuss Voigt Hill
#
# Bulk Modulus (GPa) = 22.33539 28.70222 25.51881
# Shear Modulus (GPa) = 10.14136 15.29095 12.71615
#
# Velocity S-wave (km/s) = 2.52996 3.10659 2.83298
# Velocity P-wave (km/s) = 4.75723 5.56626 5.17757
#
# Compressibility (1/GPa) = 0.04477200
#
# Stress axis : x y z
#
# Youngs Moduli (GPa) = 41.29265 41.29261 78.09326
#
# Poissons Ratio (x) = -0.09816 0.41433
# Poissons Ratio (y) = -0.09816 0.41433
# Poissons Ratio (z) = 0.21908 0.21908
#
# Static dielectric constant tensor:
#      x y z
#    x 1.533170 0.000000 0.000000 
#    y 0.000000 1.533170 0.000000 
#    z 0.000000 0.000000 1.531770 
# 
# From -- ./inp_files/9214.got.cif
#   From: 2010.05.17/outbox.cif.g08.bks.cpg/sg140_5_cif.got.tgz:9214.got - 2010.06.21 00:45:31.
