data_PCOD9572633
_publ_section_title
;
Structure prediction by ZEFSAII (Michael W. Deem and Ramdas Pophale) SiO2 
 PCOD9572633
Probable space group: I 4/M C M
;
_chemical_formula_sum "Si O2"
_cell_formula_units_Z 128
_cell_length_a 20.038826
_cell_length_b 20.038826
_cell_length_c 15.690101
_cell_angle_alpha 90.000000
_cell_angle_beta 90.000000
_cell_angle_gamma 90.000000
_cell_volume 6300.431407
_symmetry_space_group_name_H-M "I 4/M C M"
_symmetry_group_IT_number 140
_symmetry_cell_setting 'tetragonal'
loop_
_space_group_symop_operation_xyz
x,y,z
-y,x,z
-x,-y,z
y,-x,z
x,-y,1/2-z
-x,y,1/2-z
y,x,1/2-z
-y,-x,1/2-z
-x,-y,-z
y,-x,-z
x,y,-z
-y,x,-z
-x,y,1/2+z
x,-y,1/2+z
-y,-x,1/2+z
y,x,1/2+z
1/2+x,1/2+y,1/2+z
1/2-y,1/2+x,1/2+z
1/2-x,1/2-y,1/2+z
1/2+y,1/2-x,1/2+z
1/2+x,1/2-y,-z
1/2-x,1/2+y,-z
1/2+y,1/2+x,-z
1/2-y,1/2-x,-z
1/2-x,1/2-y,1/2-z
1/2+y,1/2-x,1/2-z
1/2+x,1/2+y,1/2-z
1/2-y,1/2+x,1/2-z
1/2-x,1/2+y,z
1/2+x,1/2-y,z
1/2-y,1/2-x,z
1/2+y,1/2+x,z
loop_
_atom_site_type_symbol
_atom_site_label
_atom_site_fract_x
_atom_site_fract_y
_atom_site_fract_z
Si Si1 0.414167 0.663316 0.094794
Si Si2 0.924706 0.681371 0.142498
Si Si3 0.831548 0.951488 0.834912
Si Si4 0.319781 0.926370 0.348370
O O1 0.408716 0.741594 0.120375
O O2 0.380013 0.611281 0.158632
O O3 0.492850 0.648176 0.096924
O O4 0.386632 0.654680 0.000000
O O5 0.868918 0.631082 0.108969
O O6 0.926316 0.674304 0.245215
O O7 0.000175 0.663260 0.115712
O O8 0.759508 0.921749 0.859086
O O9 0.826684 0.000000 0.750000
O O10 0.367381 0.867381 0.380661
#
# Coordination Sequence:
#
# PCOD9572633 Si02
#       4
#    32  32  32  32
#     4  11  23  38  58  84 119 157 197 247 301 360
#     4   9  18  34  56  85 120 155 196 242 295 351
#     4  11  21  39  60  85 116 155 202 247 298 352
#     4   9  17  33  58  87 117 151 197 248 290 340
#
# _framework density 20.31607
#
# number of rings (size 3 to 8) (size 9 to 14) (size 15 to 20)
#    0.000    2.000    5.000    1.500    0.000    2.500 
#    0.000    7.500    0.000   18.000    0.000    7.000 
#    0.000    0.000    0.000    0.000    0.000    0.000 
#
# Total GULP energy -356305.648145 kJ/mol
# GULP energy per Si atom -5567.275752 kJ/mol
# Density = 2.026983 g / cm^3
# Si number density = 20.316070 Si / 1000 Ang^3
#
#
#
# Elastic Constant Matrix: (Units=GPa)
#
#
# Indices 1 2 3 4 5 6 
#
# 1 139.5611 126.1755 25.1988 0.0000 0.0000 0.0000
# 2 126.1755 139.5611 25.1988 0.0000 0.0000 0.0000
# 3 25.1988 25.1988 67.3768 0.0000 0.0000 0.0000
# 4 0.0000 0.0000 0.0000 -1.5053 0.0000 0.0000
# 5 0.0000 0.0000 0.0000 0.0000 -1.5053 0.0000
# 6 0.0000 0.0000 0.0000 0.0000 0.0000 50.5570
#
#
#
# Elastic Compliance Matrix: (Units=1/GPa)
#
#
# Indices 1 2 3 4 5 6 
#
# 1 0.039379 -0.035328 -0.001515 0.000000 0.000000 0.000000
# 2 -0.035328 0.039379 -0.001515 0.000000 0.000000 0.000000
# 3 -0.001515 -0.001515 0.015975 0.000000 0.000000 0.000000
# 4 0.000000 0.000000 0.000000 -0.664330 0.000000 0.000000
# 5 0.000000 0.000000 0.000000 0.000000 -0.664330 0.000000
# 6 0.000000 0.000000 0.000000 0.000000 0.000000 0.019780
#
#
# Mechanical properties :
#
#
# Convention : Reuss Voigt Hill
#
# Bulk Modulus (GPa) = 55.50481 77.73833 66.62157
# Shear Modulus (GPa) = -4.41920 20.83769 8.20925
#
# Velocity S-wave (km/s) = -1.47646 3.20609 2.01235
# Velocity P-wave (km/s) = 4.94706 7.21477 6.18572
#
# Compressibility (1/GPa) = 0.01801646
#
# Stress axis : x y z
#
# Youngs Moduli (GPa) = 25.39436 25.39436 62.59779
#
# Poissons Ratio (x) = 0.89714 0.09483
# Poissons Ratio (y) = 0.89714 0.09483
# Poissons Ratio (z) = 0.03847 0.03847
#
# Static dielectric constant tensor:
#      x y z
#    x 1.717760 0.000000 0.000000 
#    y 0.000000 1.717760 0.000000 
#    z 0.000000 0.000000 1.842680 
# 
# From -- ./inp_files/6506.got.cif
#   From: 2010.05.17/outbox.cif.g08.bks.cpg/sg140_4_cif.got.tgz:6506.got - 2010.06.21 00:45:31.
