data_PCOD9572165
_publ_section_title
;
Structure prediction by ZEFSAII (Michael W. Deem and Ramdas Pophale) SiO2 
 PCOD9572165
Probable space group: I 4/M C M
;
_chemical_formula_sum "Si O2"
_cell_formula_units_Z 176
_cell_length_a 27.716869
_cell_length_b 27.716869
_cell_length_c 14.415754
_cell_angle_alpha 90.000000
_cell_angle_beta 90.000000
_cell_angle_gamma 90.000000
_cell_volume 11074.540125
_symmetry_space_group_name_H-M "I 4/M C M"
_symmetry_group_IT_number 140
_symmetry_cell_setting 'tetragonal'
loop_
_space_group_symop_operation_xyz
x,y,z
-y,x,z
-x,-y,z
y,-x,z
x,-y,1/2-z
-x,y,1/2-z
y,x,1/2-z
-y,-x,1/2-z
-x,-y,-z
y,-x,-z
x,y,-z
-y,x,-z
-x,y,1/2+z
x,-y,1/2+z
-y,-x,1/2+z
y,x,1/2+z
1/2+x,1/2+y,1/2+z
1/2-y,1/2+x,1/2+z
1/2-x,1/2-y,1/2+z
1/2+y,1/2-x,1/2+z
1/2+x,1/2-y,-z
1/2-x,1/2+y,-z
1/2+y,1/2+x,-z
1/2-y,1/2-x,-z
1/2-x,1/2-y,1/2-z
1/2+y,1/2-x,1/2-z
1/2+x,1/2+y,1/2-z
1/2-y,1/2+x,1/2-z
1/2-x,1/2+y,z
1/2+x,1/2-y,z
1/2-y,1/2-x,z
1/2+y,1/2+x,z
loop_
_atom_site_type_symbol
_atom_site_label
_atom_site_fract_x
_atom_site_fract_y
_atom_site_fract_z
Si Si1 0.720816 0.706159 0.387821
Si Si2 0.423579 0.525262 0.000000
Si Si3 0.581746 0.377701 0.658201
Si Si4 0.691398 0.384698 0.606147
Si Si5 0.377450 0.201768 0.111820
Si Si6 0.769879 0.943161 0.229712
O O1 0.716797 0.707021 0.500000
O O2 0.744400 0.755601 0.356630
O O3 0.667943 0.700157 0.351054
O O4 0.757641 0.663275 0.369525
O O5 0.441173 0.470848 0.000000
O O6 0.394298 0.538991 0.908258
O O7 0.589624 0.410377 0.750000
O O8 0.633230 0.387197 0.609066
O O9 0.572309 0.321066 0.680292
O O10 0.706758 0.388476 0.500000
O O11 0.721598 0.420175 0.669376
O O12 0.349502 0.150499 0.132200
O O13 0.421568 0.223943 0.172606
O O14 0.387826 0.201873 0.000000
O O15 0.766762 0.000000 0.250000
#
# Coordination Sequence:
#
# PCOD9572165 Si02
#       6
#    32  16  32  32  32  32
#     4   8  14  26  47  72  96 122 159 199 240 294
#     4  11  26  40  54  68  81 122 184 240 293 331
#     4  10  22  36  52  68  94 126 167 222 283 326
#     4  10  19  34  49  70  97 132 172 213 264 317
#     4   9  18  34  56  81 108 140 175 214 255 305
#     4  11  24  34  50  78 104 136 172 212 267 323
#
# _framework density 15.892308
#
# number of rings (size 3 to 8) (size 9 to 14) (size 15 to 20)
#    0.000    2.273    2.727    1.091    6.364    1.455 
#    0.000    2.727    0.000    0.000    0.000    0.000 
#    0.000    0.364    0.000    2.000    0.000    0.000 
#
# Total GULP energy -489874.413453 kJ/mol
# GULP energy per Si atom -5566.754698 kJ/mol
# Density = 1.585614 g / cm^3
# Si number density = 15.892308 Si / 1000 Ang^3
#
#
#
# Elastic Constant Matrix: (Units=GPa)
#
#
# Indices 1 2 3 4 5 6 
#
# 1 57.2999 23.9282 26.3635 0.0000 0.0000 0.0000
# 2 23.9282 57.2992 26.3635 0.0000 0.0000 0.0000
# 3 26.3635 26.3635 82.0223 0.0000 0.0000 0.0000
# 4 0.0000 0.0000 0.0000 -13.6708 0.0000 0.0000
# 5 0.0000 0.0000 0.0000 0.0000 -13.6761 0.0000
# 6 0.0000 0.0000 0.0000 0.0000 0.0000 20.1898
#
#
#
# Elastic Compliance Matrix: (Units=1/GPa)
#
#
# Indices 1 2 3 4 5 6 
#
# 1 0.022761 -0.007205 -0.005000 0.000000 0.000000 0.000000
# 2 -0.007205 0.022762 -0.005000 0.000000 0.000000 0.000000
# 3 -0.005000 -0.005000 0.015406 0.000000 0.000000 0.000000
# 4 0.000000 0.000000 0.000000 -0.073148 0.000000 0.000000
# 5 0.000000 0.000000 0.000000 0.000000 -0.073120 0.000000
# 6 0.000000 0.000000 0.000000 0.000000 0.000000 0.049530
#
#
# Mechanical properties :
#
#
# Convention : Reuss Voigt Hill
#
# Bulk Modulus (GPa) = 37.70907 38.88131 38.29519
# Shear Modulus (GPa) = 672.08036 6.56633 339.32334
#
# Velocity S-wave (km/s) = 20.58676 2.03488 14.62798
# Velocity P-wave (km/s) = 24.26655 5.48084 17.59127
#
# Compressibility (1/GPa) = 0.02651882
#
# Stress axis : x y z
#
# Youngs Moduli (GPa) = 43.93442 43.93383 64.90908
#
# Poissons Ratio (x) = 0.31652 0.32456
# Poissons Ratio (y) = 0.31653 0.32457
# Poissons Ratio (z) = 0.21968 0.21968
#
# Static dielectric constant tensor:
#      x y z
#    x 1.543760 0.000000 0.000000 
#    y 0.000000 1.543760 0.000000 
#    z 0.000000 0.000000 1.583480 
# 
# From -- ./inp_files/5132.got.cif
#   From: 2010.05.17/outbox.cif.g08.bks.cpg/sg140_3_cif.got.tgz:5132.got - 2010.06.21 00:45:31.
