data_PCOD9572777
_publ_section_title
;
Structure prediction by ZEFSAII (Michael W. Deem and Ramdas Pophale) SiO2 
 PCOD9572777
Probable space group: I 41/A M D
;
_chemical_formula_sum "Si O2"
_cell_formula_units_Z 144
_cell_length_a 18.626219
_cell_length_b 18.626219
_cell_length_c 22.623786
_cell_angle_alpha 90.000000
_cell_angle_beta 90.000000
_cell_angle_gamma 90.000000
_cell_volume 7849.006594
_symmetry_space_group_name_H-M "I 41/A M D"
_symmetry_group_IT_number 141
_space_group.IT_coordinate_system_code '2'
_symmetry_cell_setting 'tetragonal'
loop_
_space_group_symop_operation_xyz
x,y,z
1/4-y,3/4+x,1/4+z
-x,1/2-y,z
1/4+y,1/4-x,3/4+z
x,-y,-z
-x,1/2+y,-z
1/4+y,3/4+x,1/4-z
1/4-y,1/4-x,3/4-z
-x,-y,-z
3/4+y,1/4-x,3/4-z
x,1/2+y,-z
3/4-y,3/4+x,1/4-z
-x,y,z
x,1/2-y,z
3/4-y,1/4-x,3/4+z
3/4+y,3/4+x,1/4+z
1/2+x,1/2+y,1/2+z
3/4-y,1/4+x,3/4+z
1/2-x,-y,1/2+z
3/4+y,3/4-x,1/4+z
1/2+x,1/2-y,1/2-z
1/2-x,y,1/2-z
3/4+y,1/4+x,3/4-z
3/4-y,3/4-x,1/4-z
1/2-x,1/2-y,1/2-z
1/4+y,3/4-x,1/4-z
1/2+x,y,1/2-z
1/4-y,1/4+x,3/4-z
1/2-x,1/2+y,1/2+z
1/2+x,-y,1/2+z
1/4-y,3/4-x,1/4+z
1/4+y,1/4+x,3/4+z
loop_
_atom_site_type_symbol
_atom_site_label
_atom_site_fract_x
_atom_site_fract_y
_atom_site_fract_z
Si Si1 0.750000 0.080865 0.750000
Si Si2 0.319807 0.332056 0.208864
Si Si3 0.225889 0.633919 0.489130
Si Si4 0.079121 0.537265 0.360829
Si Si5 0.417513 0.938417 0.609674
O O1 0.766649 0.131766 0.693875
O O2 0.686811 0.025295 0.734389
O O3 0.349979 0.250000 0.203656
O O4 0.250000 0.328137 0.250000
O O5 0.367995 0.394642 0.237499
O O6 0.282545 0.355511 0.147101
O O7 0.264579 0.673884 0.542783
O O8 0.224646 0.667746 0.424334
O O9 0.125351 0.608719 0.367328
O O10 0.000000 0.552086 0.384360
O O11 0.500000 0.918063 0.595348
#
# Coordination Sequence:
#
# PCOD9572777 Si02
#       5
#    16  32  32  32  32
#     4  10  21  36  55  76 104 134 172 224 279 326
#     4  10  18  31  53  82 113 138 168 211 264 320
#     4  11  19  34  56  81 104 137 180 220 260 322
#     4  10  21  35  52  76 107 143 179 215 258 313
#     4  11  22  35  53  76 104 135 174 224 276 321
#
# _framework density 18.346271999999999
#
# number of rings (size 3 to 8) (size 9 to 14) (size 15 to 20)
#    0.000    1.556    3.333    2.333    0.000    4.000 
#    0.000    0.000    0.000    2.000    0.000    6.222 
#    0.000   16.000    0.000    0.000    0.000    0.000 
#
# Total GULP energy -400831.957373 kJ/mol
# GULP energy per Si atom -5567.110519 kJ/mol
# Density = 1.830451 g / cm^3
# Si number density = 18.346272 Si / 1000 Ang^3
#
#
#
# Elastic Constant Matrix: (Units=GPa)
#
#
# Indices 1 2 3 4 5 6 
#
# 1 78.1719 41.7857 32.7283 0.0000 0.0000 0.0000
# 2 41.7857 78.1719 32.7283 0.0000 0.0000 0.0000
# 3 32.7283 32.7283 120.0236 0.0000 0.0000 0.0000
# 4 0.0000 0.0000 0.0000 11.7053 0.0000 0.0000
# 5 0.0000 0.0000 0.0000 0.0000 11.7053 0.0000
# 6 0.0000 0.0000 0.0000 0.0000 0.0000 2.9550
#
#
#
# Elastic Compliance Matrix: (Units=1/GPa)
#
#
# Indices 1 2 3 4 5 6 
#
# 1 0.018638 -0.008845 -0.002671 0.000000 0.000000 0.000000
# 2 -0.008845 0.018638 -0.002671 0.000000 0.000000 0.000000
# 3 -0.002671 -0.002671 0.009788 0.000000 0.000000 0.000000
# 4 0.000000 0.000000 0.000000 0.085431 0.000000 0.000000
# 5 0.000000 0.000000 0.000000 0.000000 0.085431 0.000000
# 6 0.000000 0.000000 0.000000 0.000000 0.000000 0.338414
#
#
# Mechanical properties :
#
#
# Convention : Reuss Voigt Hill
#
# Bulk Modulus (GPa) = 53.49587 54.53909 54.01748
# Shear Modulus (GPa) = 8.46106 16.54814 12.50460
#
# Velocity S-wave (km/s) = 2.14986 3.00657 2.61356
# Velocity P-wave (km/s) = 5.94851 6.46875 6.21408
#
# Compressibility (1/GPa) = 0.01869303
#
# Stress axis : x y z
#
# Youngs Moduli (GPa) = 53.65319 53.65319 102.16502
#
# Poissons Ratio (x) = 0.47455 0.27283
# Poissons Ratio (y) = 0.47455 0.27283
# Poissons Ratio (z) = 0.14328 0.14328
#
# Static dielectric constant tensor:
#      x y z
#    x 1.669900 0.000000 0.000000 
#    y 0.000000 1.669900 0.000000 
#    z 0.000000 0.000000 1.697340 
# 
# From -- ./inp_files/10317.got.cif
#   From: 2010.05.17/outbox.cif.g08.bks.cpg/sg141_6_cif.got.tgz:10317.got - 2010.05.20 13:30:51.
