data_PCOD9572703
_publ_section_title
;
Structure prediction by ZEFSAII (Michael W. Deem and Ramdas Pophale) SiO2 
 PCOD9572703
Probable space group: I 4/M C M
;
_chemical_formula_sum "Si O2"
_cell_formula_units_Z 160
_cell_length_a 25.300253
_cell_length_b 25.300253
_cell_length_c 14.012177
_cell_angle_alpha 90.000000
_cell_angle_beta 90.000000
_cell_angle_gamma 90.000000
_cell_volume 8969.233758
_symmetry_space_group_name_H-M "I 4/M C M"
_symmetry_group_IT_number 140
_symmetry_cell_setting 'tetragonal'
loop_
_space_group_symop_operation_xyz
x,y,z
-y,x,z
-x,-y,z
y,-x,z
x,-y,1/2-z
-x,y,1/2-z
y,x,1/2-z
-y,-x,1/2-z
-x,-y,-z
y,-x,-z
x,y,-z
-y,x,-z
-x,y,1/2+z
x,-y,1/2+z
-y,-x,1/2+z
y,x,1/2+z
1/2+x,1/2+y,1/2+z
1/2-y,1/2+x,1/2+z
1/2-x,1/2-y,1/2+z
1/2+y,1/2-x,1/2+z
1/2+x,1/2-y,-z
1/2-x,1/2+y,-z
1/2+y,1/2+x,-z
1/2-y,1/2-x,-z
1/2-x,1/2-y,1/2-z
1/2+y,1/2-x,1/2-z
1/2+x,1/2+y,1/2-z
1/2-y,1/2+x,1/2-z
1/2-x,1/2+y,z
1/2+x,1/2-y,z
1/2-y,1/2-x,z
1/2+y,1/2+x,z
loop_
_atom_site_type_symbol
_atom_site_label
_atom_site_fract_x
_atom_site_fract_y
_atom_site_fract_z
Si Si1 0.929590 0.191959 0.613311
Si Si2 0.750447 0.832351 0.294760
Si Si3 0.912731 0.327676 0.786582
Si Si4 0.200749 0.481649 0.111899
Si Si5 0.921401 0.033838 0.116919
O O1 0.929507 0.186672 0.500000
O O2 0.873491 0.216617 0.642604
O O3 0.972537 0.237280 0.636153
O O4 0.943607 0.134281 0.652660
O O5 0.791644 0.791644 0.250000
O O6 0.703738 0.796263 0.340970
O O7 0.719424 0.869675 0.219419
O O8 0.881039 0.381039 0.805976
O O9 0.940686 0.328650 0.682152
O O10 0.959493 0.315983 0.859960
O O11 0.192904 0.470860 0.000000
O O12 0.973056 0.067488 0.144844
O O13 0.920546 0.034307 0.000000
#
# Coordination Sequence:
#
# PCOD9572703 Si02
#       5
#    32  32  32  32  32
#     4   9  17  29  47  70  93 122 162 205 246 288
#     4   9  18  32  47  65  93 128 163 199 245 297
#     4   9  18  33  52  74 102 133 163 201 249 296
#     4   9  18  32  51  76 101 127 166 207 242 294
#     4   8  14  25  41  63  92 123 155 194 241 291
#
# _framework density 17.838759
#
# number of rings (size 3 to 8) (size 9 to 14) (size 15 to 20)
#    0.000    3.200    0.000    0.600    0.000    2.800 
#    0.000    7.000    0.000    8.400    0.000    7.000 
#    0.000    0.000    0.000    0.000    0.000    0.000 
#
# Total GULP energy -445477.909813 kJ/mol
# GULP energy per Si atom -5568.473873 kJ/mol
# Density = 1.779816 g / cm^3
# Si number density = 17.838759 Si / 1000 Ang^3
#
#
#
# Elastic Constant Matrix: (Units=GPa)
#
#
# Indices 1 2 3 4 5 6 
#
# 1 117.4913 81.1662 12.7941 0.0000 0.0000 0.0000
# 2 81.1662 117.4913 12.7941 0.0000 0.0000 0.0000
# 3 12.7941 12.7941 37.0842 0.0000 0.0000 0.0000
# 4 0.0000 0.0000 0.0000 16.7246 0.0000 0.0000
# 5 0.0000 0.0000 0.0000 0.0000 16.7246 0.0000
# 6 0.0000 0.0000 0.0000 0.0000 0.0000 29.2280
#
#
#
# Elastic Compliance Matrix: (Units=1/GPa)
#
#
# Indices 1 2 3 4 5 6 
#
# 1 0.016399 -0.011131 -0.001817 0.000000 0.000000 0.000000
# 2 -0.011131 0.016399 -0.001817 0.000000 0.000000 0.000000
# 3 -0.001817 -0.001817 0.028220 0.000000 0.000000 0.000000
# 4 0.000000 0.000000 0.000000 0.059792 0.000000 0.000000
# 5 0.000000 0.000000 0.000000 0.000000 0.059792 0.000000
# 6 0.000000 0.000000 0.000000 0.000000 0.000000 0.034214
#
#
# Mechanical properties :
#
#
# Convention : Reuss Voigt Hill
#
# Bulk Modulus (GPa) = 31.76041 53.95285 42.85663
# Shear Modulus (GPa) = 19.62007 23.55626 21.58817
#
# Velocity S-wave (km/s) = 3.32001 3.63782 3.48254
# Velocity P-wave (km/s) = 5.70433 6.92499 6.34408
#
# Compressibility (1/GPa) = 0.03148574
#
# Stress axis : x y z
#
# Youngs Moduli (GPa) = 60.98109 60.98109 35.43627
#
# Poissons Ratio (x) = 0.67876 0.06440
# Poissons Ratio (y) = 0.67876 0.06440
# Poissons Ratio (z) = 0.11083 0.11083
#
# Static dielectric constant tensor:
#      x y z
#    x 1.616510 0.000000 0.000000 
#    y 0.000000 1.616510 0.000000 
#    z 0.000000 0.000000 1.630640 
# 
# From -- ./inp_files/4687.got.cif
#   From: 2010.05.17/outbox.cif.g08.bks.cpg/sg140_3_cif.got.tgz:4687.got - 2010.06.21 00:45:31.
