data_PCOD9572622
_publ_section_title
;
Structure prediction by ZEFSAII (Michael W. Deem and Ramdas Pophale) SiO2 
 PCOD9572622
Probable space group: I 4/M C M
;
_chemical_formula_sum "Si O2"
_cell_formula_units_Z 96
_cell_length_a 26.026822
_cell_length_b 26.026822
_cell_length_c 8.621270
_cell_angle_alpha 90.000000
_cell_angle_beta 90.000000
_cell_angle_gamma 90.000000
_cell_volume 5840.009187
_symmetry_space_group_name_H-M "I 4/M C M"
_symmetry_group_IT_number 140
_symmetry_cell_setting 'tetragonal'
loop_
_space_group_symop_operation_xyz
x,y,z
-y,x,z
-x,-y,z
y,-x,z
x,-y,1/2-z
-x,y,1/2-z
y,x,1/2-z
-y,-x,1/2-z
-x,-y,-z
y,-x,-z
x,y,-z
-y,x,-z
-x,y,1/2+z
x,-y,1/2+z
-y,-x,1/2+z
y,x,1/2+z
1/2+x,1/2+y,1/2+z
1/2-y,1/2+x,1/2+z
1/2-x,1/2-y,1/2+z
1/2+y,1/2-x,1/2+z
1/2+x,1/2-y,-z
1/2-x,1/2+y,-z
1/2+y,1/2+x,-z
1/2-y,1/2-x,-z
1/2-x,1/2-y,1/2-z
1/2+y,1/2-x,1/2-z
1/2+x,1/2+y,1/2-z
1/2-y,1/2+x,1/2-z
1/2-x,1/2+y,z
1/2+x,1/2-y,z
1/2-y,1/2-x,z
1/2+y,1/2+x,z
loop_
_atom_site_type_symbol
_atom_site_label
_atom_site_fract_x
_atom_site_fract_y
_atom_site_fract_z
Si Si1 0.558147 0.745528 0.686080
Si Si2 0.057824 0.359354 0.187188
Si Si3 0.861408 0.941894 0.815020
O O1 0.500000 0.747012 0.750000
O O2 0.557761 0.740200 0.500000
O O3 0.578728 0.802187 0.727103
O O4 0.580405 0.693766 0.759448
O O5 0.096019 0.403982 0.241547
O O6 0.000000 0.365345 0.250000
O O7 0.055048 0.361352 0.000000
O O8 0.906756 0.906756 0.750000
O O9 0.865823 0.000000 0.750000
O O10 0.862792 0.943817 0.000000
#
# Coordination Sequence:
#
# PCOD9572622 Si02
#       3
#    32  32  32
#     4   9  16  29  48  68  91 122 160 198 235 277
#     4   9  18  31  47  69  97 128 161 198 240 285
#     4  11  21  34  51  73  99 126 157 192 233 279
#
# _framework density 16.438330000000001
#
# number of rings (size 3 to 8) (size 9 to 14) (size 15 to 20)
#    0.000    2.333    0.000    6.000    0.000    2.667 
#    0.000    3.333    0.000    1.000    0.000    0.000 
#    0.000    0.000    0.000    0.000    0.000    0.000 
#
# Total GULP energy -267366.993166 kJ/mol
# GULP energy per Si atom -5570.145691 kJ/mol
# Density = 1.640092 g / cm^3
# Si number density = 16.438330 Si / 1000 Ang^3
#
#
#
# Elastic Constant Matrix: (Units=GPa)
#
#
# Indices 1 2 3 4 5 6 
#
# 1 108.2886 69.4323 41.5043 0.0000 0.0000 0.0000
# 2 69.4323 108.2886 41.5043 0.0000 0.0000 0.0000
# 3 41.5043 41.5043 93.4059 0.0000 0.0000 0.0000
# 4 0.0000 0.0000 0.0000 22.2567 0.0000 0.0000
# 5 0.0000 0.0000 0.0000 0.0000 22.2567 0.0000
# 6 0.0000 0.0000 0.0000 0.0000 0.0000 -0.9131
#
#
#
# Elastic Compliance Matrix: (Units=1/GPa)
#
#
# Indices 1 2 3 4 5 6 
#
# 1 0.016418 -0.009318 -0.003155 0.000000 0.000000 0.000000
# 2 -0.009318 0.016418 -0.003155 0.000000 0.000000 0.000000
# 3 -0.003155 -0.003155 0.013510 0.000000 0.000000 0.000000
# 4 0.000000 0.000000 0.000000 0.044930 0.000000 0.000000
# 5 0.000000 0.000000 0.000000 0.000000 0.044930 0.000000
# 6 0.000000 0.000000 0.000000 0.000000 0.000000 -1.095210
#
#
# Mechanical properties :
#
#
# Convention : Reuss Voigt Hill
#
# Bulk Modulus (GPa) = 66.26671 68.31833 67.29252
# Shear Modulus (GPa) = -5.41878 19.22286 6.90204
#
# Velocity S-wave (km/s) = -1.81758 3.42335 2.05131
# Velocity P-wave (km/s) = 5.99959 7.56811 6.82903
#
# Compressibility (1/GPa) = 0.01509053
#
# Stress axis : x y z
#
# Youngs Moduli (GPa) = 60.90821 60.90821 74.02034
#
# Poissons Ratio (x) = 0.56753 0.23354
# Poissons Ratio (y) = 0.56753 0.23354
# Poissons Ratio (z) = 0.19217 0.19217
#
# Static dielectric constant tensor:
#      x y z
#    x 1.554710 0.000000 0.000000 
#    y 0.000000 1.554710 0.000000 
#    z 0.000000 0.000000 1.553940 
# 
# From -- ./inp_files/915.got.cif
#   From: 2010.05.17/outbox.cif.g08.bks.cpg/sg140_1_cif.got.tgz:915.got - 2010.06.21 00:45:31.
