data_PCOD9572584
_publ_section_title
;
Structure prediction by ZEFSAII (Michael W. Deem and Ramdas Pophale) SiO2 
 PCOD9572584
Probable space group: I 4/M C M
;
_chemical_formula_sum "Si O2"
_cell_formula_units_Z 160
_cell_length_a 21.256249
_cell_length_b 21.256249
_cell_length_c 17.630016
_cell_angle_alpha 90.000000
_cell_angle_beta 90.000000
_cell_angle_gamma 90.000000
_cell_volume 7965.737012
_symmetry_space_group_name_H-M "I 4/M C M"
_symmetry_group_IT_number 140
_symmetry_cell_setting 'tetragonal'
loop_
_space_group_symop_operation_xyz
x,y,z
-y,x,z
-x,-y,z
y,-x,z
x,-y,1/2-z
-x,y,1/2-z
y,x,1/2-z
-y,-x,1/2-z
-x,-y,-z
y,-x,-z
x,y,-z
-y,x,-z
-x,y,1/2+z
x,-y,1/2+z
-y,-x,1/2+z
y,x,1/2+z
1/2+x,1/2+y,1/2+z
1/2-y,1/2+x,1/2+z
1/2-x,1/2-y,1/2+z
1/2+y,1/2-x,1/2+z
1/2+x,1/2-y,-z
1/2-x,1/2+y,-z
1/2+y,1/2+x,-z
1/2-y,1/2-x,-z
1/2-x,1/2-y,1/2-z
1/2+y,1/2-x,1/2-z
1/2+x,1/2+y,1/2-z
1/2-y,1/2+x,1/2-z
1/2-x,1/2+y,z
1/2+x,1/2-y,z
1/2-y,1/2-x,z
1/2+y,1/2+x,z
loop_
_atom_site_type_symbol
_atom_site_label
_atom_site_fract_x
_atom_site_fract_y
_atom_site_fract_z
Si Si1 0.712198 0.681643 0.162212
Si Si2 0.559561 0.155417 0.706764
Si Si3 0.949891 0.770516 0.913985
Si Si4 0.377115 0.020612 0.580429
Si Si5 0.262497 0.410386 0.410388
O O1 0.694060 0.694060 0.250000
O O2 0.773234 0.726767 0.145987
O O3 0.721649 0.607780 0.143817
O O4 0.652634 0.700637 0.110447
O O5 0.500000 0.186467 0.750000
O O6 0.615066 0.115066 0.746143
O O7 0.520119 0.109173 0.653012
O O8 0.590365 0.204242 0.648365
O O9 0.961720 0.695830 0.917297
O O10 0.020958 0.795391 0.897030
O O11 0.932194 0.791220 0.000000
O O12 0.388769 0.987987 0.500000
O O13 0.417543 0.082458 0.581487
O O14 0.245326 0.409711 0.500000
#
# Coordination Sequence:
#
# PCOD9572584 Si02
#       5
#    32  32  32  32  32
#     4  11  24  37  59  96 130 161 204 261 320 377
#     4  11  23  35  51  75 110 153 198 247 302 359
#     4   9  19  37  60  83 114 158 201 246 308 372
#     4   9  18  32  51  73 100 142 193 241 292 353
#     4  10  23  42  63  87 118 162 209 254 312 379
#
# _framework density 20.086027000000001
#
# number of rings (size 3 to 8) (size 9 to 14) (size 15 to 20)
#    0.000    2.000    0.000    4.200    5.600    6.200 
#    0.000    1.000    0.000    0.600    0.000    4.200 
#    0.000    0.000    0.000    0.000    0.000    0.000 
#
# Total GULP energy -445341.366472 kJ/mol
# GULP energy per Si atom -5566.767081 kJ/mol
# Density = 2.004031 g / cm^3
# Si number density = 20.086027 Si / 1000 Ang^3
#
#
#
# Elastic Constant Matrix: (Units=GPa)
#
#
# Indices 1 2 3 4 5 6 
#
# 1 43.4065 51.1060 19.0881 0.0000 0.0000 0.0000
# 2 51.1060 43.4065 19.0881 0.0000 0.0000 0.0000
# 3 19.0881 19.0881 74.2731 0.0000 0.0000 0.0000
# 4 0.0000 0.0000 0.0000 31.7343 0.0000 0.0000
# 5 0.0000 0.0000 0.0000 0.0000 31.7343 0.0000
# 6 0.0000 0.0000 0.0000 0.0000 0.0000 35.0085
#
#
#
# Elastic Compliance Matrix: (Units=1/GPa)
#
#
# Indices 1 2 3 4 5 6 
#
# 1 -0.059036 0.070842 -0.003034 0.000000 0.000000 0.000000
# 2 0.070842 -0.059036 -0.003034 0.000000 0.000000 0.000000
# 3 -0.003034 -0.003034 0.015023 0.000000 0.000000 0.000000
# 4 0.000000 0.000000 0.000000 0.031512 0.000000 0.000000
# 5 0.000000 0.000000 0.000000 0.000000 0.031512 0.000000
# 6 0.000000 0.000000 0.000000 0.000000 0.000000 0.028564
#
#
# Mechanical properties :
#
#
# Convention : Reuss Voigt Hill
#
# Bulk Modulus (GPa) = 37.73719 37.73895 37.73807
# Shear Modulus (GPa) = -37.82862 24.48234 -6.67314
#
# Velocity S-wave (km/s) = -4.34444 3.49503 -1.82469
# Velocity P-wave (km/s) = 2.51734 5.92591 3.79337
#
# Compressibility (1/GPa) = 0.02649906
#
# Stress axis : x y z
#
# Youngs Moduli (GPa) = -16.93885 -16.93885 66.56290
#
# Poissons Ratio (x) = 1.19998 0.20196
# Poissons Ratio (y) = 1.19998 0.20196
# Poissons Ratio (z) = -0.05140 -0.05140
#
# Static dielectric constant tensor:
#      x y z
#    x 1.850020 0.000000 0.000000 
#    y 0.000000 1.850020 0.000000 
#    z 0.000000 0.000000 1.827690 
# 
# From -- ./inp_files/6807.got.cif
#   From: 2010.05.17/outbox.cif.g08.bks.cpg/sg140_4_cif.got.tgz:6807.got - 2010.06.21 00:45:31.
