data_PCOD9572598
_publ_section_title
;
Structure prediction by ZEFSAII (Michael W. Deem and Ramdas Pophale) SiO2 
 PCOD9572598
Probable space group: I 4/M C M
;
_chemical_formula_sum "Si O2"
_cell_formula_units_Z 112
_cell_length_a 12.944782
_cell_length_b 12.944782
_cell_length_c 31.405583
_cell_angle_alpha 90.000000
_cell_angle_beta 90.000000
_cell_angle_gamma 90.000000
_cell_volume 5262.551293
_symmetry_space_group_name_H-M "I 4/M C M"
_symmetry_group_IT_number 140
_symmetry_cell_setting 'tetragonal'
loop_
_space_group_symop_operation_xyz
x,y,z
-y,x,z
-x,-y,z
y,-x,z
x,-y,1/2-z
-x,y,1/2-z
y,x,1/2-z
-y,-x,1/2-z
-x,-y,-z
y,-x,-z
x,y,-z
-y,x,-z
-x,y,1/2+z
x,-y,1/2+z
-y,-x,1/2+z
y,x,1/2+z
1/2+x,1/2+y,1/2+z
1/2-y,1/2+x,1/2+z
1/2-x,1/2-y,1/2+z
1/2+y,1/2-x,1/2+z
1/2+x,1/2-y,-z
1/2-x,1/2+y,-z
1/2+y,1/2+x,-z
1/2-y,1/2-x,-z
1/2-x,1/2-y,1/2-z
1/2+y,1/2-x,1/2-z
1/2+x,1/2+y,1/2-z
1/2-y,1/2+x,1/2-z
1/2-x,1/2+y,z
1/2+x,1/2-y,z
1/2-y,1/2-x,z
1/2+y,1/2+x,z
loop_
_atom_site_type_symbol
_atom_site_label
_atom_site_fract_x
_atom_site_fract_y
_atom_site_fract_z
Si Si1 0.237142 0.262859 0.300049
Si Si2 0.293177 0.956850 0.922096
Si Si3 0.416659 0.916659 0.350401
Si Si4 0.905541 0.855808 0.143788
Si Si5 0.327280 0.527310 0.000000
O O1 0.250000 0.250000 0.250000
O O2 0.152521 0.347480 0.317881
O O3 0.206188 0.152882 0.319932
O O4 0.381915 0.881915 0.939738
O O5 0.243773 0.027215 0.958240
O O6 0.343464 0.019230 0.882722
O O7 0.202604 0.888205 0.900668
O O8 0.500000 0.000000 0.331771
O O9 0.028296 0.864983 0.146597
O O10 0.386968 0.416435 0.000000
#
# Coordination Sequence:
#
# PCOD9572598 Si02
#       5
#    16  32  16  32  16
#     4  12  26  46  75 107 138 180 246 297 358 435
#     4  11  22  43  71 100 139 190 237 286 356 427
#     4  10  24  47  74 100 143 192 242 293 364 429
#     4  11  23  42  70  99 138 186 227 286 354 417
#     4  11  25  41  62 103 144 181 236 293 350 420
#
# _framework density 21.282453
#
# number of rings (size 3 to 8) (size 9 to 14) (size 15 to 20)
#    0.000    1.000    4.286    2.143    0.000    4.000 
#    2.571    3.571    3.143    0.000    0.000    0.000 
#    0.000    0.000    0.000    0.000    0.000    0.000 
#
# Total GULP energy -312785.069399 kJ/mol
# GULP energy per Si atom -5585.447668 kJ/mol
# Density = 2.123401 g / cm^3
# Si number density = 21.282453 Si / 1000 Ang^3
#
#
#
# Elastic Constant Matrix: (Units=GPa)
#
#
# Indices 1 2 3 4 5 6 
#
# 1 87.1704 30.9008 20.8405 0.0000 0.0000 0.0000
# 2 30.9008 87.1704 20.8405 0.0000 0.0000 0.0000
# 3 20.8405 20.8405 97.0463 0.0000 0.0000 0.0000
# 4 0.0000 0.0000 0.0000 24.1524 0.0000 0.0000
# 5 0.0000 0.0000 0.0000 0.0000 24.1524 0.0000
# 6 0.0000 0.0000 0.0000 0.0000 0.0000 33.1912
#
#
#
# Elastic Compliance Matrix: (Units=1/GPa)
#
#
# Indices 1 2 3 4 5 6 
#
# 1 0.013468 -0.004304 -0.001968 0.000000 0.000000 0.000000
# 2 -0.004304 0.013468 -0.001968 0.000000 0.000000 0.000000
# 3 -0.001968 -0.001968 0.011150 0.000000 0.000000 0.000000
# 4 0.000000 0.000000 0.000000 0.041404 0.000000 0.000000
# 5 0.000000 0.000000 0.000000 0.000000 0.041404 0.000000
# 6 0.000000 0.000000 0.000000 0.000000 0.000000 0.030128
#
#
# Mechanical properties :
#
#
# Convention : Reuss Voigt Hill
#
# Bulk Modulus (GPa) = 46.28338 46.28341 46.28340
# Shear Modulus (GPa) = 28.62006 29.55290 29.08648
#
# Velocity S-wave (km/s) = 3.67109 3.73044 3.70089
# Velocity P-wave (km/s) = 6.30584 6.35211 6.32902
#
# Compressibility (1/GPa) = 0.02160603
#
# Stress axis : x y z
#
# Youngs Moduli (GPa) = 74.25073 74.25073 89.68932
#
# Poissons Ratio (x) = 0.31955 0.17651
# Poissons Ratio (y) = 0.31955 0.17651
# Poissons Ratio (z) = 0.14612 0.14612
#
# Static dielectric constant tensor:
#      x y z
#    x 1.880330 0.000000 0.000000 
#    y 0.000000 1.880330 0.000000 
#    z 0.000000 0.000000 1.743570 
# 
# From -- ./inp_files/10310.got.cif
#   From: 2010.05.17/outbox.cif.g08.bks.cpg/sg140_6_cif.got.tgz:10310.got - 2010.06.21 00:45:31.
