data_PCOD9572095
_publ_section_title
;
Structure prediction by ZEFSAII (Michael W. Deem and Ramdas Pophale) SiO2 
 PCOD9572095
Probable space group: I 4/M C M
;
_chemical_formula_sum "Si O2"
_cell_formula_units_Z 128
_cell_length_a 24.333063
_cell_length_b 24.333063
_cell_length_c 11.146987
_cell_angle_alpha 90.000000
_cell_angle_beta 90.000000
_cell_angle_gamma 90.000000
_cell_volume 6600.108207
_symmetry_space_group_name_H-M "I 4/M C M"
_symmetry_group_IT_number 140
_symmetry_cell_setting 'tetragonal'
loop_
_space_group_symop_operation_xyz
x,y,z
-y,x,z
-x,-y,z
y,-x,z
x,-y,1/2-z
-x,y,1/2-z
y,x,1/2-z
-y,-x,1/2-z
-x,-y,-z
y,-x,-z
x,y,-z
-y,x,-z
-x,y,1/2+z
x,-y,1/2+z
-y,-x,1/2+z
y,x,1/2+z
1/2+x,1/2+y,1/2+z
1/2-y,1/2+x,1/2+z
1/2-x,1/2-y,1/2+z
1/2+y,1/2-x,1/2+z
1/2+x,1/2-y,-z
1/2-x,1/2+y,-z
1/2+y,1/2+x,-z
1/2-y,1/2-x,-z
1/2-x,1/2-y,1/2-z
1/2+y,1/2-x,1/2-z
1/2+x,1/2+y,1/2-z
1/2-y,1/2+x,1/2-z
1/2-x,1/2+y,z
1/2+x,1/2-y,z
1/2-y,1/2-x,z
1/2+y,1/2+x,z
loop_
_atom_site_type_symbol
_atom_site_label
_atom_site_fract_x
_atom_site_fract_y
_atom_site_fract_z
Si Si1 0.705370 0.794631 0.632806
Si Si2 0.184727 0.854737 0.130166
Si Si3 0.850624 0.350624 0.864303
Si Si4 0.358987 0.980853 0.369563
Si Si5 0.236907 0.026579 0.628961
O O1 0.684782 0.815219 0.500000
O O2 0.769826 0.807044 0.633450
O O3 0.677634 0.822367 0.749753
O O4 0.149185 0.850816 0.250000
O O5 0.220811 0.910026 0.133083
O O6 0.155859 0.852451 0.000000
O O7 0.916663 0.342813 0.858527
O O8 0.832841 0.332841 0.000000
O O9 0.385957 0.987810 0.500000
O O10 0.389865 0.000000 0.250000
O O11 0.302358 0.015868 0.370837
O O12 0.216853 0.004077 0.500000
O O13 0.214402 0.000000 0.750000
#
# Coordination Sequence:
#
# PCOD9572095 Si02
#       5
#    16  32  16  32  32
#     4  10  19  31  47  68  99 138 174 206 247 302
#     4  10  21  34  48  70 100 135 175 214 255 305
#     4  10  20  31  49  79 106 131 171 217 260 309
#     4   9  17  30  47  69  97 126 162 209 255 300
#     4   9  17  30  48  69  94 126 164 205 249 296
#
# _framework density 19.393622000000001
#
# number of rings (size 3 to 8) (size 9 to 14) (size 15 to 20)
#    0.000    2.500    0.000    3.375    0.000    5.000 
#    0.000    0.000    0.000    0.375    0.000    2.625 
#    0.000    0.500    0.000    5.500    0.000    4.000 
#
# Total GULP energy -356321.300175 kJ/mol
# GULP energy per Si atom -5567.520315 kJ/mol
# Density = 1.934948 g / cm^3
# Si number density = 19.393622 Si / 1000 Ang^3
#
#
#
# Elastic Constant Matrix: (Units=GPa)
#
#
# Indices 1 2 3 4 5 6 
#
# 1 13.0971 17.3437 19.4711 0.0000 0.0000 0.0000
# 2 17.3437 13.0918 19.4658 0.0000 0.0000 0.0000
# 3 19.4711 19.4658 237.6823 0.0000 0.0000 0.0000
# 4 0.0000 0.0000 0.0000 23.1835 0.0000 0.0000
# 5 0.0000 0.0000 0.0000 0.0000 23.1836 0.0000
# 6 0.0000 0.0000 0.0000 0.0000 0.0000 13.9014
#
#
#
# Elastic Compliance Matrix: (Units=1/GPa)
#
#
# Indices 1 2 3 4 5 6 
#
# 1 -0.099298 0.136016 -0.003005 0.000000 0.000000 0.000000
# 2 0.136016 -0.099337 -0.003007 0.000000 0.000000 0.000000
# 3 -0.003005 -0.003007 0.004700 0.000000 0.000000 0.000000
# 4 0.000000 0.000000 0.000000 0.043134 0.000000 0.000000
# 5 0.000000 0.000000 0.000000 0.000000 0.043134 0.000000
# 6 0.000000 0.000000 0.000000 0.000000 0.000000 0.071935
#
#
# Mechanical properties :
#
#
# Convention : Reuss Voigt Hill
#
# Bulk Modulus (GPa) = 15.13466 41.82579 28.48023
# Shear Modulus (GPa) = -18.26706 25.89307 3.81300
#
# Velocity S-wave (km/s) = -3.07239 3.65791 1.40370
# Velocity P-wave (km/s) = 2.18293 6.28124 4.16466
#
# Compressibility (1/GPa) = 0.06607350
#
# Stress axis : x y z
#
# Youngs Moduli (GPa) = -10.07065 -10.06676 212.77801
#
# Poissons Ratio (x) = 1.36925 0.63938
# Poissons Ratio (y) = 1.36977 0.63983
# Poissons Ratio (z) = -0.03026 -0.03027
#
# Static dielectric constant tensor:
#      x y z
#    x 1.676670 0.000000 0.000000 
#    y 0.000000 1.676670 0.000000 
#    z 0.000000 0.000000 1.830710 
# 
# From -- ./inp_files/2911.got.cif
#   From: 2010.05.17/outbox.cif.g08.bks.cpg/sg140_2_cif.got.tgz:2911.got - 2010.06.21 00:45:31.
