data_PCOD9572871
_publ_section_title
;
Structure prediction by ZEFSAII (Michael W. Deem and Ramdas Pophale) SiO2 
 PCOD9572871
Probable space group: I 41/A M D
;
_chemical_formula_sum "Si O2"
_cell_formula_units_Z 160
_cell_length_a 17.873449
_cell_length_b 17.873449
_cell_length_c 27.947577
_cell_angle_alpha 90.000000
_cell_angle_beta 90.000000
_cell_angle_gamma 90.000000
_cell_volume 8928.137955
_symmetry_space_group_name_H-M "I 41/A M D"
_symmetry_group_IT_number 141
_space_group.IT_coordinate_system_code '2'
_symmetry_cell_setting 'tetragonal'
loop_
_space_group_symop_operation_xyz
x,y,z
1/4-y,3/4+x,1/4+z
-x,1/2-y,z
1/4+y,1/4-x,3/4+z
x,-y,-z
-x,1/2+y,-z
1/4+y,3/4+x,1/4-z
1/4-y,1/4-x,3/4-z
-x,-y,-z
3/4+y,1/4-x,3/4-z
x,1/2+y,-z
3/4-y,3/4+x,1/4-z
-x,y,z
x,1/2-y,z
3/4-y,1/4-x,3/4+z
3/4+y,3/4+x,1/4+z
1/2+x,1/2+y,1/2+z
3/4-y,1/4+x,3/4+z
1/2-x,-y,1/2+z
3/4+y,3/4-x,1/4+z
1/2+x,1/2-y,1/2-z
1/2-x,y,1/2-z
3/4+y,1/4+x,3/4-z
3/4-y,3/4-x,1/4-z
1/2-x,1/2-y,1/2-z
1/4+y,3/4-x,1/4-z
1/2+x,y,1/2-z
1/4-y,1/4+x,3/4-z
1/2-x,1/2+y,1/2+z
1/2+x,-y,1/2+z
1/4-y,3/4-x,1/4+z
1/4+y,1/4+x,3/4+z
loop_
_atom_site_type_symbol
_atom_site_label
_atom_site_fract_x
_atom_site_fract_y
_atom_site_fract_z
Si Si1 0.582634 0.335519 0.737525
Si Si2 0.297608 0.097569 0.671973
Si Si3 0.087697 0.992341 0.363416
Si Si4 0.804809 0.467140 0.446734
Si Si5 0.362531 0.167454 0.844593
O O1 0.500000 0.365989 0.726494
O O2 0.586563 0.250000 0.719410
O O3 0.651691 0.379874 0.716139
O O4 0.594477 0.332131 0.794144
O O5 0.348648 0.098648 0.625000
O O6 0.224680 0.148955 0.665714
O O7 0.270049 0.012627 0.678361
O O8 0.103669 0.903992 0.370811
O O9 0.000000 0.006888 0.358583
O O10 0.125128 0.027884 0.410767
O O11 0.134720 0.020077 0.316289
O O12 0.820491 0.500000 0.500000
O O13 0.369635 0.250000 0.866534
#
# Coordination Sequence:
#
# PCOD9572871 Si02
#       5
#    32  32  32  32  32
#     4  10  21  33  48  74 107 145 186 225 271 324
#     4  11  19  34  52  74 102 142 182 231 273 323
#     4  10  20  37  58  85 115 148 187 236 291 343
#     4  10  20  38  59  83 110 144 190 234 280 347
#     4  10  19  34  53  74 104 145 185 223 270 323
#
# _framework density 17.920869
#
# number of rings (size 3 to 8) (size 9 to 14) (size 15 to 20)
#    0.000    1.800    4.000    4.200    0.000    4.800 
#    0.000    2.000    0.000    4.800    0.000    0.000 
#    0.000    0.000    0.000    0.000    0.000    0.000 
#
# Total GULP energy -445568.087348 kJ/mol
# GULP energy per Si atom -5569.601092 kJ/mol
# Density = 1.788008 g / cm^3
# Si number density = 17.920869 Si / 1000 Ang^3
#
#
#
# Elastic Constant Matrix: (Units=GPa)
#
#
# Indices 1 2 3 4 5 6 
#
# 1 87.7653 35.1637 14.4473 0.0000 0.0000 0.0000
# 2 35.1637 87.7653 14.4473 0.0000 0.0000 0.0000
# 3 14.4473 14.4473 58.4910 0.0000 0.0000 0.0000
# 4 0.0000 0.0000 0.0000 20.6581 0.0000 0.0000
# 5 0.0000 0.0000 0.0000 0.0000 20.6581 0.0000
# 6 0.0000 0.0000 0.0000 0.0000 0.0000 12.7050
#
#
#
# Elastic Compliance Matrix: (Units=1/GPa)
#
#
# Indices 1 2 3 4 5 6 
#
# 1 0.013823 -0.005187 -0.002133 0.000000 0.000000 0.000000
# 2 -0.005187 0.013823 -0.002133 0.000000 0.000000 0.000000
# 3 -0.002133 -0.002133 0.018150 0.000000 0.000000 0.000000
# 4 0.000000 0.000000 0.000000 0.048407 0.000000 0.000000
# 5 0.000000 0.000000 0.000000 0.000000 0.048407 0.000000
# 6 0.000000 0.000000 0.000000 0.000000 0.000000 0.078709
#
#
# Mechanical properties :
#
#
# Convention : Reuss Voigt Hill
#
# Bulk Modulus (GPa) = 37.18826 40.23759 38.71292
# Shear Modulus (GPa) = 20.06492 22.13515 21.10004
#
# Velocity S-wave (km/s) = 3.34973 3.51830 3.43505
# Velocity P-wave (km/s) = 5.97975 6.24550 6.11407
#
# Compressibility (1/GPa) = 0.02689021
#
# Stress axis : x y z
#
# Youngs Moduli (GPa) = 72.34059 72.34059 55.09509
#
# Poissons Ratio (x) = 0.37525 0.11753
# Poissons Ratio (y) = 0.37525 0.11753
# Poissons Ratio (z) = 0.15431 0.15431
#
# Static dielectric constant tensor:
#      x y z
#    x 1.639790 0.000000 0.000000 
#    y 0.000000 1.639790 0.000000 
#    z 0.000000 0.000000 1.652500 
# 
# From -- ./inp_files/12679.got.cif
#   From: 2010.05.17/outbox.cif.g08.bks.cpg/sg141_7_cif.got.tgz:12679.got - 2010.05.20 13:30:51.
