data_PCOD9572472
_publ_section_title
;
Structure prediction by ZEFSAII (Michael W. Deem and Ramdas Pophale) SiO2 
 PCOD9572472
Probable space group: I 4/M C M
;
_chemical_formula_sum "Si O2"
_cell_formula_units_Z 160
_cell_length_a 31.273590
_cell_length_b 31.273590
_cell_length_c 8.675856
_cell_angle_alpha 90.000000
_cell_angle_beta 90.000000
_cell_angle_gamma 90.000000
_cell_volume 8485.311918
_symmetry_space_group_name_H-M "I 4/M C M"
_symmetry_group_IT_number 140
_symmetry_cell_setting 'tetragonal'
loop_
_space_group_symop_operation_xyz
x,y,z
-y,x,z
-x,-y,z
y,-x,z
x,-y,1/2-z
-x,y,1/2-z
y,x,1/2-z
-y,-x,1/2-z
-x,-y,-z
y,-x,-z
x,y,-z
-y,x,-z
-x,y,1/2+z
x,-y,1/2+z
-y,-x,1/2+z
y,x,1/2+z
1/2+x,1/2+y,1/2+z
1/2-y,1/2+x,1/2+z
1/2-x,1/2-y,1/2+z
1/2+y,1/2-x,1/2+z
1/2+x,1/2-y,-z
1/2-x,1/2+y,-z
1/2+y,1/2+x,-z
1/2-y,1/2-x,-z
1/2-x,1/2-y,1/2-z
1/2+y,1/2-x,1/2-z
1/2+x,1/2+y,1/2-z
1/2-y,1/2+x,1/2-z
1/2-x,1/2+y,z
1/2+x,1/2-y,z
1/2-y,1/2-x,z
1/2+y,1/2+x,z
loop_
_atom_site_type_symbol
_atom_site_label
_atom_site_fract_x
_atom_site_fract_y
_atom_site_fract_z
Si Si1 0.548700 0.616976 0.685447
Si Si2 0.385868 0.885868 0.815669
Si Si3 0.256684 0.315465 0.329052
Si Si4 0.953100 0.453100 0.815360
Si Si5 0.291296 0.896982 0.686544
Si Si6 0.047681 0.214049 0.814737
O O1 0.500000 0.611883 0.750000
O O2 0.581276 0.581276 0.750000
O O3 0.546699 0.613600 0.500000
O O4 0.564281 0.665805 0.722722
O O5 0.419156 0.919156 0.744441
O O6 0.338476 0.898883 0.757309
O O7 0.387009 0.887009 0.000000
O O8 0.299095 0.299095 0.250000
O O9 0.267821 0.330072 0.500000
O O10 0.224455 0.275546 0.340031
O O11 0.229634 0.352728 0.254254
O O12 0.942279 0.500000 0.750000
O O13 0.954376 0.454376 0.000000
O O14 0.296016 0.896435 0.500000
O O15 0.255200 0.930367 0.737576
O O16 0.000000 0.213603 0.750000
O O17 0.048807 0.218762 0.000000
#
# Coordination Sequence:
#
# PCOD9572472 Si02
#       6
#    32  16  32  16  32  32
#     4  10  21  38  61  88 122 158 201 251 306 364
#     4  12  25  41  63  93 125 159 201 249 300 355
#     4   9  18  33  52  76 108 145 186 229 280 332
#     4  11  23  44  71  99 129 159 194 237 290 355
#     4  11  22  39  60  85 119 157 198 247 299 352
#     4  10  22  40  60  85 115 154 199 244 294 352
#
# _framework density 18.856114000000002
#
# number of rings (size 3 to 8) (size 9 to 14) (size 15 to 20)
#    0.000    1.700    1.000    3.900    0.000    5.800 
#    0.000    9.000    0.000    0.000    0.000    0.000 
#    0.000    0.000    0.000    0.000    0.000    0.000 
#
# Total GULP energy -446022.447469 kJ/mol
# GULP energy per Si atom -5575.280593 kJ/mol
# Density = 1.881320 g / cm^3
# Si number density = 18.856114 Si / 1000 Ang^3
#
#
#
# Elastic Constant Matrix: (Units=GPa)
#
#
# Indices 1 2 3 4 5 6 
#
# 1 116.7729 100.0874 56.9280 0.0000 0.0000 0.0000
# 2 100.0874 116.7729 56.9280 0.0000 0.0000 0.0000
# 3 56.9280 56.9280 104.3376 0.0000 0.0000 0.0000
# 4 0.0000 0.0000 0.0000 29.3671 0.0000 0.0000
# 5 0.0000 0.0000 0.0000 0.0000 29.3671 0.0000
# 6 0.0000 0.0000 0.0000 0.0000 0.0000 46.7181
#
#
#
# Elastic Compliance Matrix: (Units=1/GPa)
#
#
# Indices 1 2 3 4 5 6 
#
# 1 0.033197 -0.026735 -0.003526 0.000000 0.000000 0.000000
# 2 -0.026735 0.033197 -0.003526 0.000000 0.000000 0.000000
# 3 -0.003526 -0.003526 0.013432 0.000000 0.000000 0.000000
# 4 0.000000 0.000000 0.000000 0.034052 0.000000 0.000000
# 5 0.000000 0.000000 0.000000 0.000000 0.034052 0.000000
# 6 0.000000 0.000000 0.000000 0.000000 0.000000 0.021405
#
#
# Mechanical properties :
#
#
# Convention : Reuss Voigt Hill
#
# Bulk Modulus (GPa) = 81.61361 85.08558 83.34960
# Shear Modulus (GPa) = 20.74743 29.35312 25.05028
#
# Velocity S-wave (km/s) = 3.32068 3.94977 3.64881
# Velocity P-wave (km/s) = 7.62095 8.12542 7.87722
#
# Compressibility (1/GPa) = 0.01225286
#
# Stress axis : x y z
#
# Youngs Moduli (GPa) = 30.12278 30.12278 74.44925
#
# Poissons Ratio (x) = 0.80533 0.26251
# Poissons Ratio (y) = 0.80533 0.26251
# Poissons Ratio (z) = 0.10621 0.10621
#
# Static dielectric constant tensor:
#      x y z
#    x 1.664930 0.000000 0.000000 
#    y 0.000000 1.664930 0.000000 
#    z 0.000000 0.000000 1.650240 
# 
# From -- ./inp_files/1822.got.cif
#   From: 2010.05.17/outbox.cif.g08.bks.cpg/sg140_1_cif.got.tgz:1822.got - 2010.06.21 00:45:31.
