data_PCOD9572098
_publ_section_title
;
Structure prediction by ZEFSAII (Michael W. Deem and Ramdas Pophale) SiO2 
 PCOD9572098
Probable space group: I 4/M C M
;
_chemical_formula_sum "Si O2"
_cell_formula_units_Z 240
_cell_length_a 24.209348
_cell_length_b 24.209348
_cell_length_c 25.661893
_cell_angle_alpha 90.000000
_cell_angle_beta 90.000000
_cell_angle_gamma 90.000000
_cell_volume 15040.243808
_symmetry_space_group_name_H-M "I 4/M C M"
_symmetry_group_IT_number 140
_symmetry_cell_setting 'tetragonal'
loop_
_space_group_symop_operation_xyz
x,y,z
-y,x,z
-x,-y,z
y,-x,z
x,-y,1/2-z
-x,y,1/2-z
y,x,1/2-z
-y,-x,1/2-z
-x,-y,-z
y,-x,-z
x,y,-z
-y,x,-z
-x,y,1/2+z
x,-y,1/2+z
-y,-x,1/2+z
y,x,1/2+z
1/2+x,1/2+y,1/2+z
1/2-y,1/2+x,1/2+z
1/2-x,1/2-y,1/2+z
1/2+y,1/2-x,1/2+z
1/2+x,1/2-y,-z
1/2-x,1/2+y,-z
1/2+y,1/2+x,-z
1/2-y,1/2-x,-z
1/2-x,1/2-y,1/2-z
1/2+y,1/2-x,1/2-z
1/2+x,1/2+y,1/2-z
1/2-y,1/2+x,1/2-z
1/2-x,1/2+y,z
1/2+x,1/2-y,z
1/2-y,1/2-x,z
1/2+y,1/2+x,z
loop_
_atom_site_type_symbol
_atom_site_label
_atom_site_fract_x
_atom_site_fract_y
_atom_site_fract_z
Si Si1 0.841713 0.838262 0.189368
Si Si2 0.618101 0.627573 0.415547
Si Si3 0.123937 0.714382 0.658406
Si Si4 0.874130 0.280967 0.153258
Si Si5 0.069988 0.758199 0.559636
Si Si6 0.439453 0.728915 0.440486
Si Si7 0.065333 0.344812 0.254706
Si Si8 0.077559 0.046343 0.500000
O O1 0.851170 0.851170 0.250000
O O2 0.878268 0.871875 0.147035
O O3 0.856985 0.774543 0.178537
O O4 0.777814 0.850808 0.174508
O O5 0.613714 0.691363 0.433489
O O6 0.670564 0.592637 0.434962
O O7 0.565983 0.604717 0.446543
O O8 0.177860 0.677860 0.648671
O O9 0.087957 0.718195 0.605977
O O10 0.088986 0.685703 0.703772
O O11 0.823402 0.323402 0.144433
O O12 0.909695 0.267845 0.101694
O O13 0.913869 0.308441 0.196357
O O14 0.073562 0.738180 0.500000
O O15 0.005743 0.775989 0.568439
O O16 0.432480 0.748291 0.500000
O O17 0.096643 0.403358 0.258783
O O18 0.000000 0.349555 0.250000
O O19 0.018120 0.073319 0.500000
#
# Coordination Sequence:
#
# PCOD9572098 Si02
#       8
#    32  32  32  32  32  32  32  16
#     4  10  19  33  52  75 102 135 166 195 243 304
#     4  10  19  31  49  73 102 127 167 210 249 288
#     4  10  20  32  50  74 100 130 164 203 241 294
#     4  10  20  32  50  74 100 130 164 203 241 294
#     4  10  19  32  50  70  99 134 163 202 251 298
#     4  10  19  32  50  70  99 134 163 202 251 298
#     4  10  20  34  51  71  97 125 162 208 247 290
#     4  11  20  32  54  76  97 132 178 222 261 300
#
# _framework density 15.957188
#
# number of rings (size 3 to 8) (size 9 to 14) (size 15 to 20)
#    0.000    1.933    2.667    2.000    0.000    1.200 
#    0.000    0.000    0.000    4.800    0.000    0.933 
#    0.000    0.000    0.000   24.800    0.000    0.000 
#
# Total GULP energy -668281.654557 kJ/mol
# GULP energy per Si atom -5569.013788 kJ/mol
# Density = 1.592087 g / cm^3
# Si number density = 15.957188 Si / 1000 Ang^3
#
#
#
# Elastic Constant Matrix: (Units=GPa)
#
#
# Indices 1 2 3 4 5 6 
#
# 1 64.5735 12.9466 35.9659 0.0000 0.0000 0.0000
# 2 12.9466 64.5735 35.9659 0.0000 0.0000 0.0000
# 3 35.9659 35.9659 143.6415 0.0000 0.0000 0.0000
# 4 0.0000 0.0000 0.0000 -403.8019 0.0001 0.0000
# 5 0.0000 0.0000 0.0000 0.0001 -403.8020 0.0000
# 6 0.0000 0.0000 0.0000 0.0000 0.0000 18.0086
#
#
#
# Elastic Compliance Matrix: (Units=1/GPa)
#
#
# Indices 1 2 3 4 5 6 
#
# 1 0.018087 -0.001283 -0.004208 0.000000 0.000000 0.000000
# 2 -0.001283 0.018087 -0.004208 0.000000 0.000000 0.000000
# 3 -0.004208 -0.004208 0.009069 0.000000 0.000000 0.000000
# 4 0.000000 0.000000 0.000000 -0.002476 0.000000 0.000000
# 5 0.000000 0.000000 0.000000 0.000000 -0.002476 0.000000
# 6 0.000000 0.000000 0.000000 0.000000 0.000000 0.055529
#
#
# Mechanical properties :
#
#
# Convention : Reuss Voigt Hill
#
# Bulk Modulus (GPa) = 38.68938 49.17168 43.93053
# Shear Modulus (GPa) = 40.37795 -145.39171 -52.50688
#
# Velocity S-wave (km/s) = 5.03576 -9.55570 -5.74250
# Velocity P-wave (km/s) = 7.62300 9.53241 4.04702
#
# Compressibility (1/GPa) = 0.02584689
#
# Stress axis : x y z
#
# Youngs Moduli (GPa) = 55.28861 55.28861 110.26838
#
# Poissons Ratio (x) = 0.07093 0.46396
# Poissons Ratio (y) = 0.07093 0.46396
# Poissons Ratio (z) = 0.23263 0.23263
#
# Static dielectric constant tensor:
#      x y z
#    x 1.527490 0.000000 0.000000 
#    y 0.000000 1.527490 0.000000 
#    z 0.000000 0.000000 1.622470 
# 
# From -- ./inp_files/10974.got.cif
#   From: 2010.05.17/outbox.cif.g08.bks.cpg/sg140_6_cif.got.tgz:10974.got - 2010.06.21 00:45:31.
