data_PCOD9572374
_publ_section_title
;
Structure prediction by ZEFSAII (Michael W. Deem and Ramdas Pophale) SiO2 
 PCOD9572374
Probable space group: I 4/M C M
;
_chemical_formula_sum "Si O2"
_cell_formula_units_Z 160
_cell_length_a 30.522080
_cell_length_b 30.522080
_cell_length_c 8.268359
_cell_angle_alpha 90.000000
_cell_angle_beta 90.000000
_cell_angle_gamma 90.000000
_cell_volume 7702.781478
_symmetry_space_group_name_H-M "I 4/M C M"
_symmetry_group_IT_number 140
_symmetry_cell_setting 'tetragonal'
loop_
_space_group_symop_operation_xyz
x,y,z
-y,x,z
-x,-y,z
y,-x,z
x,-y,1/2-z
-x,y,1/2-z
y,x,1/2-z
-y,-x,1/2-z
-x,-y,-z
y,-x,-z
x,y,-z
-y,x,-z
-x,y,1/2+z
x,-y,1/2+z
-y,-x,1/2+z
y,x,1/2+z
1/2+x,1/2+y,1/2+z
1/2-y,1/2+x,1/2+z
1/2-x,1/2-y,1/2+z
1/2+y,1/2-x,1/2+z
1/2+x,1/2-y,-z
1/2-x,1/2+y,-z
1/2+y,1/2+x,-z
1/2-y,1/2-x,-z
1/2-x,1/2-y,1/2-z
1/2+y,1/2-x,1/2-z
1/2+x,1/2+y,1/2-z
1/2-y,1/2+x,1/2-z
1/2-x,1/2+y,z
1/2+x,1/2-y,z
1/2-y,1/2-x,z
1/2+y,1/2+x,z
loop_
_atom_site_type_symbol
_atom_site_label
_atom_site_fract_x
_atom_site_fract_y
_atom_site_fract_z
Si Si1 0.719549 0.440887 0.182675
Si Si2 0.303309 0.803309 0.182327
Si Si3 0.816826 0.453918 0.196356
Si Si4 0.368975 0.131026 0.186468
Si Si5 0.149568 0.214429 0.187444
Si Si6 0.951729 0.119789 0.308523
O O1 0.766232 0.454364 0.259967
O O2 0.725699 0.388982 0.191969
O O3 0.671369 0.448261 0.257592
O O4 0.717249 0.458147 0.000000
O O5 0.331854 0.831854 0.302944
O O6 0.252808 0.814952 0.196736
O O7 0.317007 0.817007 0.000000
O O8 0.836761 0.500000 0.250000
O O9 0.845796 0.412727 0.255414
O O10 0.813870 0.450950 0.000000
O O11 0.379324 0.120677 0.000000
O O12 0.169882 0.169882 0.250000
O O13 0.134764 0.211285 0.000000
O O14 0.912135 0.087866 0.250000
O O15 0.950691 0.118556 0.500000
O O16 0.000000 0.104534 0.250000
#
# Coordination Sequence:
#
# PCOD9572374 Si02
#       6
#    32  16  32  16  32  32
#     4  11  22  39  62  90 122 162 204 250 306 363
#     4  10  21  35  53  80 113 155 203 252 298 345
#     4  10  22  38  62  91 123 159 201 246 301 359
#     4  10  20  39  61  87 120 160 200 248 301 364
#     4  11  22  35  52  79 116 161 208 253 300 355
#     4  12  26  46  69  95 125 160 203 256 312 373
#
# _framework density 20.771719000000001
#
# number of rings (size 3 to 8) (size 9 to 14) (size 15 to 20)
#    0.000    1.200    2.000    4.500    0.000    5.000 
#    0.000    1.000    0.000    0.300    0.000    2.100 
#    0.000    0.000    0.000    0.000    0.000    0.000 
#
# Total GULP energy -446162.362660 kJ/mol
# GULP energy per Si atom -5577.029533 kJ/mol
# Density = 2.072444 g / cm^3
# Si number density = 20.771719 Si / 1000 Ang^3
#
#
#
# Elastic Constant Matrix: (Units=GPa)
#
#
# Indices 1 2 3 4 5 6 
#
# 1 101.2345 64.0044 27.1512 0.0000 0.0000 0.0000
# 2 64.0044 101.2317 27.1521 0.0000 0.0000 0.0000
# 3 27.1512 27.1521 62.6687 0.0000 0.0000 0.0000
# 4 0.0000 0.0000 0.0000 15.7192 0.0000 0.0000
# 5 0.0000 0.0000 0.0000 0.0000 15.7188 0.0000
# 6 0.0000 0.0000 0.0000 0.0000 0.0000 12.2010
#
#
#
# Elastic Compliance Matrix: (Units=1/GPa)
#
#
# Indices 1 2 3 4 5 6 
#
# 1 0.016959 -0.009902 -0.003057 0.000000 0.000000 0.000000
# 2 -0.009902 0.016959 -0.003058 0.000000 0.000000 0.000000
# 3 -0.003057 -0.003058 0.018606 0.000000 0.000000 0.000000
# 4 0.000000 0.000000 0.000000 0.063616 0.000000 0.000000
# 5 0.000000 0.000000 0.000000 0.000000 0.063618 0.000000
# 6 0.000000 0.000000 0.000000 0.000000 0.000000 0.081961
#
#
# Mechanical properties :
#
#
# Convention : Reuss Voigt Hill
#
# Bulk Modulus (GPa) = 48.80406 55.75003 52.27705
# Shear Modulus (GPa) = 16.63433 18.51626 17.57529
#
# Velocity S-wave (km/s) = 2.83294 2.98890 2.91196
# Velocity P-wave (km/s) = 5.85211 6.22969 6.04385
#
# Compressibility (1/GPa) = 0.02049010
#
# Stress axis : x y z
#
# Youngs Moduli (GPa) = 58.96745 58.96512 53.74559
#
# Poissons Ratio (x) = 0.58388 0.16430
# Poissons Ratio (y) = 0.58391 0.16434
# Poissons Ratio (z) = 0.18026 0.18030
#
# Static dielectric constant tensor:
#      x y z
#    x 1.780930 0.000000 0.000000 
#    y 0.000000 1.780930 0.000000 
#    z 0.000000 0.000000 1.776440 
# 
# From -- ./inp_files/1813.got.cif
#   From: 2010.05.17/outbox.cif.g08.bks.cpg/sg140_1_cif.got.tgz:1813.got - 2010.06.21 00:45:31.
