data_PCOD9572482
_publ_section_title
;
Structure prediction by ZEFSAII (Michael W. Deem and Ramdas Pophale) SiO2 
 PCOD9572482
Probable space group: I 4/M C M
;
_chemical_formula_sum "Si O2"
_cell_formula_units_Z 240
_cell_length_a 19.929412
_cell_length_b 19.929412
_cell_length_c 32.407648
_cell_angle_alpha 90.000000
_cell_angle_beta 90.000000
_cell_angle_gamma 90.000000
_cell_volume 12871.717034
_symmetry_space_group_name_H-M "I 4/M C M"
_symmetry_group_IT_number 140
_symmetry_cell_setting 'tetragonal'
loop_
_space_group_symop_operation_xyz
x,y,z
-y,x,z
-x,-y,z
y,-x,z
x,-y,1/2-z
-x,y,1/2-z
y,x,1/2-z
-y,-x,1/2-z
-x,-y,-z
y,-x,-z
x,y,-z
-y,x,-z
-x,y,1/2+z
x,-y,1/2+z
-y,-x,1/2+z
y,x,1/2+z
1/2+x,1/2+y,1/2+z
1/2-y,1/2+x,1/2+z
1/2-x,1/2-y,1/2+z
1/2+y,1/2-x,1/2+z
1/2+x,1/2-y,-z
1/2-x,1/2+y,-z
1/2+y,1/2+x,-z
1/2-y,1/2-x,-z
1/2-x,1/2-y,1/2-z
1/2+y,1/2-x,1/2-z
1/2+x,1/2+y,1/2-z
1/2-y,1/2+x,1/2-z
1/2-x,1/2+y,z
1/2+x,1/2-y,z
1/2-y,1/2-x,z
1/2+y,1/2+x,z
loop_
_atom_site_type_symbol
_atom_site_label
_atom_site_fract_x
_atom_site_fract_y
_atom_site_fract_z
Si Si1 0.779286 0.830320 0.788921
Si Si2 0.886420 0.000120 0.295050
Si Si3 0.632061 0.759172 0.348508
Si Si4 0.082295 0.307948 0.343375
Si Si5 0.408421 0.344260 0.414243
Si Si6 0.458978 0.322442 0.122472
Si Si7 0.073283 0.910410 0.500000
Si Si8 0.037513 0.348112 0.206231
O O1 0.828821 0.828821 0.750000
O O2 0.715070 0.784931 0.776769
O O3 0.819330 0.793223 0.825138
O O4 0.744240 0.895884 0.806860
O O5 0.839098 0.005023 0.334099
O O6 0.936080 0.064443 0.297351
O O7 0.853429 0.000000 0.250000
O O8 0.676463 0.823538 0.359259
O O9 0.606524 0.726575 0.391151
O O10 0.580239 0.786439 0.313538
O O11 0.146825 0.353176 0.353527
O O12 0.059262 0.255939 0.378371
O O13 0.022885 0.354409 0.326730
O O14 0.488082 0.347783 0.410437
O O15 0.368359 0.395029 0.384803
O O16 0.396566 0.370142 0.460493
O O17 0.990620 0.909125 0.500000
O O18 0.088839 0.411162 0.209629
O O19 0.000000 0.337789 0.250000
#
# Coordination Sequence:
#
# PCOD9572482 Si02
#       8
#    32  32  32  32  32  32  16  32
#     4   9  17  32  52  75 108 151 197 247 295 343
#     4   9  18  32  47  70 107 148 187 233 281 330
#     4  10  21  39  61  86 120 162 209 260 307 365
#     4  11  23  37  53  79 112 154 205 252 302 353
#     4  12  23  40  62  92 120 157 199 249 310 370
#     4  12  22  36  59  84 116 157 201 243 299 362
#     4  11  24  40  63  96 128 158 192 243 303 388
#     4  11  23  39  59  84 118 164 216 267 314 355
#
# _framework density 18.645531999999999
#
# number of rings (size 3 to 8) (size 9 to 14) (size 15 to 20)
#    0.000    1.400    5.333    1.600    0.000    3.867 
#    4.800    0.333    0.000    0.000    0.000    0.467 
#    0.000    0.000    0.000    2.933    0.000    0.000 
#
# Total GULP energy -668741.726630 kJ/mol
# GULP energy per Si atom -5572.847722 kJ/mol
# Density = 1.860309 g / cm^3
# Si number density = 18.645532 Si / 1000 Ang^3
#
#
#
# Elastic Constant Matrix: (Units=GPa)
#
#
# Indices 1 2 3 4 5 6 
#
# 1 76.5107 28.7825 24.3864 0.0000 0.0000 0.0000
# 2 28.7825 76.5107 24.3864 0.0000 0.0000 0.0000
# 3 24.3864 24.3864 83.4994 0.0000 0.0000 0.0000
# 4 0.0000 0.0000 0.0000 13.0912 0.0000 0.0000
# 5 0.0000 0.0000 0.0000 0.0000 13.0912 0.0000
# 6 0.0000 0.0000 0.0000 0.0000 0.0000 35.8428
#
#
#
# Elastic Compliance Matrix: (Units=1/GPa)
#
#
# Indices 1 2 3 4 5 6 
#
# 1 0.015968 -0.004984 -0.003208 0.000000 0.000000 0.000000
# 2 -0.004984 0.015968 -0.003208 0.000000 0.000000 0.000000
# 3 -0.003208 -0.003208 0.013850 0.000000 0.000000 0.000000
# 4 0.000000 0.000000 0.000000 0.076387 0.000000 0.000000
# 5 0.000000 0.000000 0.000000 0.000000 0.076387 0.000000
# 6 0.000000 0.000000 0.000000 0.000000 0.000000 0.027900
#
#
# Mechanical properties :
#
#
# Convention : Reuss Voigt Hill
#
# Bulk Modulus (GPa) = 43.50606 43.51461 43.51034
# Shear Modulus (GPa) = 19.46127 23.00271 21.23199
#
# Velocity S-wave (km/s) = 3.23422 3.51620 3.37815
# Velocity P-wave (km/s) = 6.10989 6.31453 6.21305
#
# Compressibility (1/GPa) = 0.02298530
#
# Stress axis : x y z
#
# Youngs Moduli (GPa) = 62.62704 62.62704 72.20330
#
# Poissons Ratio (x) = 0.31216 0.23161
# Poissons Ratio (y) = 0.31216 0.23161
# Poissons Ratio (z) = 0.20089 0.20089
#
# Static dielectric constant tensor:
#      x y z
#    x 1.707430 0.000000 0.000000 
#    y 0.000000 1.707430 0.000000 
#    z 0.000000 0.000000 1.658740 
# 
# From -- ./inp_files/11803.got.cif
#   From: 2010.05.17/outbox.cif.g08.bks.cpg/sg140_6_cif.got.tgz:11803.got - 2010.06.21 00:45:31.
