data_PCOD9572293
_publ_section_title
;
Structure prediction by ZEFSAII (Michael W. Deem and Ramdas Pophale) SiO2 
 PCOD9572293
Probable space group: I 4/M C M
;
_chemical_formula_sum "Si O2"
_cell_formula_units_Z 160
_cell_length_a 23.740886
_cell_length_b 23.740886
_cell_length_c 13.724337
_cell_angle_alpha 90.000000
_cell_angle_beta 90.000000
_cell_angle_gamma 90.000000
_cell_volume 7735.443508
_symmetry_space_group_name_H-M "I 4/M C M"
_symmetry_group_IT_number 140
_symmetry_cell_setting 'tetragonal'
loop_
_space_group_symop_operation_xyz
x,y,z
-y,x,z
-x,-y,z
y,-x,z
x,-y,1/2-z
-x,y,1/2-z
y,x,1/2-z
-y,-x,1/2-z
-x,-y,-z
y,-x,-z
x,y,-z
-y,x,-z
-x,y,1/2+z
x,-y,1/2+z
-y,-x,1/2+z
y,x,1/2+z
1/2+x,1/2+y,1/2+z
1/2-y,1/2+x,1/2+z
1/2-x,1/2-y,1/2+z
1/2+y,1/2-x,1/2+z
1/2+x,1/2-y,-z
1/2-x,1/2+y,-z
1/2+y,1/2+x,-z
1/2-y,1/2-x,-z
1/2-x,1/2-y,1/2-z
1/2+y,1/2-x,1/2-z
1/2+x,1/2+y,1/2-z
1/2-y,1/2+x,1/2-z
1/2-x,1/2+y,z
1/2+x,1/2-y,z
1/2-y,1/2-x,z
1/2+y,1/2+x,z
loop_
_atom_site_type_symbol
_atom_site_label
_atom_site_fract_x
_atom_site_fract_y
_atom_site_fract_z
Si Si1 0.413915 0.825672 0.311067
Si Si2 0.964456 0.294561 0.613445
Si Si3 0.370084 0.393154 0.382022
Si Si4 0.017623 0.164274 0.117598
Si Si5 0.264582 0.323131 0.617318
O O1 0.383740 0.883740 0.337756
O O2 0.426754 0.823608 0.195717
O O3 0.471739 0.815349 0.368318
O O4 0.370106 0.776553 0.338122
O O5 0.948529 0.301600 0.500000
O O6 0.965141 0.228196 0.639345
O O7 0.370083 0.395181 0.500000
O O8 0.433268 0.378237 0.351617
O O9 0.348655 0.454338 0.348639
O O10 0.327479 0.342312 0.356255
O O11 0.015548 0.161304 0.000000
O O12 0.261008 0.327809 0.500000
O O13 0.237987 0.262014 0.642191
#
# Coordination Sequence:
#
# PCOD9572293 Si02
#       5
#    32  32  32  32  32
#     4  10  20  34  58  87 113 145 189 234 280 340
#     4  10  20  36  57  82 116 150 185 230 286 340
#     4   9  16  28  48  77 113 153 198 240 286 339
#     4   9  17  30  50  76 109 154 198 239 285 334
#     4   9  16  29  52  80 110 146 192 244 289 337
#
# _framework density 20.684010000000001
#
# number of rings (size 3 to 8) (size 9 to 14) (size 15 to 20)
#    0.000    2.600    2.000    0.600    0.000    2.000 
#    0.000    4.000    0.000   10.800    0.000    5.600 
#    0.000    0.000    0.000    0.000    0.000    0.000 
#
# Total GULP energy -446624.242061 kJ/mol
# GULP energy per Si atom -5582.803026 kJ/mol
# Density = 2.063693 g / cm^3
# Si number density = 20.684010 Si / 1000 Ang^3
#
#
#
# Elastic Constant Matrix: (Units=GPa)
#
#
# Indices 1 2 3 4 5 6 
#
# 1 101.0626 2.3326 -5.2557 0.0000 0.0000 0.0000
# 2 2.3326 101.0626 -5.2557 0.0000 0.0000 0.0000
# 3 -5.2557 -5.2557 75.6861 0.0000 0.0000 0.0000
# 4 0.0000 0.0000 0.0000 13.6479 0.0000 0.0000
# 5 0.0000 0.0000 0.0000 0.0000 13.6479 0.0000
# 6 0.0000 0.0000 0.0000 0.0000 0.0000 20.1324
#
#
#
# Elastic Compliance Matrix: (Units=1/GPa)
#
#
# Indices 1 2 3 4 5 6 
#
# 1 0.009935 -0.000194 0.000676 0.000000 0.000000 0.000000
# 2 -0.000194 0.009935 0.000676 0.000000 0.000000 0.000000
# 3 0.000676 0.000676 0.013306 0.000000 0.000000 0.000000
# 4 0.000000 0.000000 0.000000 0.073271 0.000000 0.000000
# 5 0.000000 0.000000 0.000000 0.000000 0.073271 0.000000
# 6 0.000000 0.000000 0.000000 0.000000 0.000000 0.049671
#
#
# Mechanical properties :
#
#
# Convention : Reuss Voigt Hill
#
# Bulk Modulus (GPa) = 28.17481 29.05041 28.61261
# Shear Modulus (GPa) = 20.92898 28.55163 24.74031
#
# Velocity S-wave (km/s) = 3.18440 3.71937 3.46223
# Velocity P-wave (km/s) = 5.21264 5.70265 5.46315
#
# Compressibility (1/GPa) = 0.03549269
#
# Stress axis : x y z
#
# Youngs Moduli (GPa) = 100.65917 100.65917 75.15181
#
# Poissons Ratio (x) = 0.01954 -0.05083
# Poissons Ratio (y) = 0.01954 -0.05083
# Poissons Ratio (z) = -0.06808 -0.06808
#
# Static dielectric constant tensor:
#      x y z
#    x 1.709400 0.000000 0.000000 
#    y 0.000000 1.709400 0.000000 
#    z 0.000000 0.000000 1.765830 
# 
# From -- ./inp_files/4705.got.cif
#   From: 2010.05.17/outbox.cif.g08.bks.cpg/sg140_3_cif.got.tgz:4705.got - 2010.06.21 00:45:31.
