data_PCOD9572230
_publ_section_title
;
Structure prediction by ZEFSAII (Michael W. Deem and Ramdas Pophale) SiO2 
 PCOD9572230
Probable space group: I 4/M C M
;
_chemical_formula_sum "Si O2"
_cell_formula_units_Z 96
_cell_length_a 10.942337
_cell_length_b 10.942337
_cell_length_c 32.258663
_cell_angle_alpha 90.000000
_cell_angle_beta 90.000000
_cell_angle_gamma 90.000000
_cell_volume 3862.482595
_symmetry_space_group_name_H-M "I 4/M C M"
_symmetry_group_IT_number 140
_symmetry_cell_setting 'tetragonal'
loop_
_space_group_symop_operation_xyz
x,y,z
-y,x,z
-x,-y,z
y,-x,z
x,-y,1/2-z
-x,y,1/2-z
y,x,1/2-z
-y,-x,1/2-z
-x,-y,-z
y,-x,-z
x,y,-z
-y,x,-z
-x,y,1/2+z
x,-y,1/2+z
-y,-x,1/2+z
y,x,1/2+z
1/2+x,1/2+y,1/2+z
1/2-y,1/2+x,1/2+z
1/2-x,1/2-y,1/2+z
1/2+y,1/2-x,1/2+z
1/2+x,1/2-y,-z
1/2-x,1/2+y,-z
1/2+y,1/2+x,-z
1/2-y,1/2-x,-z
1/2-x,1/2-y,1/2-z
1/2+y,1/2-x,1/2-z
1/2+x,1/2+y,1/2-z
1/2-y,1/2+x,1/2-z
1/2-x,1/2+y,z
1/2+x,1/2-y,z
1/2-y,1/2-x,z
1/2+y,1/2+x,z
loop_
_atom_site_type_symbol
_atom_site_label
_atom_site_fract_x
_atom_site_fract_y
_atom_site_fract_z
Si Si1 0.792550 0.497116 0.955457
Si Si2 0.005199 0.293050 0.134423
Si Si3 0.224911 0.080931 0.218222
O O1 0.893197 0.606804 0.954563
O O2 0.730100 0.502348 0.910663
O O3 0.872666 0.372666 0.956180
O O4 0.727306 0.506478 0.000000
O O5 0.897536 0.397536 0.134159
O O6 0.986185 0.210071 0.174621
O O7 0.130479 0.369522 0.138579
O O8 0.119808 0.119808 0.250000
O O9 0.294964 0.205037 0.207915
O O10 0.304515 0.000000 0.250000
#
# Coordination Sequence:
#
# PCOD9572230 Si02
#       3
#    32  32  32
#     4   7   9  14  27  51  82 110 136 170 213 262
#     4   8  13  22  38  60  85 113 145 181 222 268
#     4  10  20  32  46  65  88 116 151 189 230 276
#
# _framework density 24.854481
#
# number of rings (size 3 to 8) (size 9 to 14) (size 15 to 20)
#    0.000    3.667    0.000    4.000    0.000    2.000 
#    0.000    0.000    0.000    0.000    0.000    2.333 
#    0.000   13.333    0.000    3.667    0.000    6.667 
#
# Total GULP energy -267290.065022 kJ/mol
# GULP energy per Si atom -5568.543021 kJ/mol
# Density = 2.479791 g / cm^3
# Si number density = 24.854481 Si / 1000 Ang^3
#
#
#
# Elastic Constant Matrix: (Units=GPa)
#
#
# Indices 1 2 3 4 5 6 
#
# 1 33.6118 32.0488 42.2295 0.0000 0.0000 0.0000
# 2 32.0488 33.6118 42.2295 0.0000 0.0000 0.0000
# 3 42.2295 42.2295 375.7146 0.0000 0.0000 0.0000
# 4 0.0000 0.0000 0.0000 -6.5898 0.0000 0.0000
# 5 0.0000 0.0000 0.0000 0.0000 -6.5898 0.0000
# 6 0.0000 0.0000 0.0000 0.0000 0.0000 21.7706
#
#
#
# Elastic Compliance Matrix: (Units=1/GPa)
#
#
# Indices 1 2 3 4 5 6 
#
# 1 0.328798 -0.310994 -0.002001 0.000000 0.000000 0.000000
# 2 -0.310994 0.328798 -0.002001 0.000000 0.000000 0.000000
# 3 -0.002001 -0.002001 0.003111 0.000000 0.000000 0.000000
# 4 0.000000 0.000000 0.000000 -0.151749 0.000000 0.000000
# 5 0.000000 0.000000 0.000000 0.000000 -0.151749 0.000000
# 6 0.000000 0.000000 0.000000 0.000000 0.000000 0.045934
#
#
# Mechanical properties :
#
#
# Convention : Reuss Voigt Hill
#
# Bulk Modulus (GPa) = 32.55772 75.10599 53.83186
# Shear Modulus (GPa) = 4.79214 23.48020 14.13617
#
# Velocity S-wave (km/s) = 1.39006 3.07694 2.38745
# Velocity P-wave (km/s) = 3.96284 6.55037 5.41348
#
# Compressibility (1/GPa) = 0.03071468
#
# Stress axis : x y z
#
# Youngs Moduli (GPa) = 3.04138 3.04138 321.39490
#
# Poissons Ratio (x) = 0.94585 0.64315
# Poissons Ratio (y) = 0.94585 0.64315
# Poissons Ratio (z) = 0.00609 0.00609
#
# Static dielectric constant tensor:
#      x y z
#    x 2.160010 0.000000 0.000000 
#    y 0.000000 2.160010 0.000000 
#    z 0.000000 0.000000 2.015470 
# 
# From -- ./inp_files/11220.got.cif
#   From: 2010.05.17/outbox.cif.g08.bks.cpg/sg140_6_cif.got.tgz:11220.got - 2010.06.21 00:45:31.
