data_PCOD9572964
_publ_section_title
;
Structure prediction by ZEFSAII (Michael W. Deem and Ramdas Pophale) SiO2 
 PCOD9572964
Probable space group: I 41/A M D
;
_chemical_formula_sum "Si O2"
_cell_formula_units_Z 160
_cell_length_a 22.043987
_cell_length_b 22.043987
_cell_length_c 15.213068
_cell_angle_alpha 90.000000
_cell_angle_beta 90.000000
_cell_angle_gamma 90.000000
_cell_volume 7392.598145
_symmetry_space_group_name_H-M "I 41/A M D"
_symmetry_group_IT_number 141
_space_group.IT_coordinate_system_code '2'
_symmetry_cell_setting 'tetragonal'
loop_
_space_group_symop_operation_xyz
x,y,z
1/4-y,3/4+x,1/4+z
-x,1/2-y,z
1/4+y,1/4-x,3/4+z
x,-y,-z
-x,1/2+y,-z
1/4+y,3/4+x,1/4-z
1/4-y,1/4-x,3/4-z
-x,-y,-z
3/4+y,1/4-x,3/4-z
x,1/2+y,-z
3/4-y,3/4+x,1/4-z
-x,y,z
x,1/2-y,z
3/4-y,1/4-x,3/4+z
3/4+y,3/4+x,1/4+z
1/2+x,1/2+y,1/2+z
3/4-y,1/4+x,3/4+z
1/2-x,-y,1/2+z
3/4+y,3/4-x,1/4+z
1/2+x,1/2-y,1/2-z
1/2-x,y,1/2-z
3/4+y,1/4+x,3/4-z
3/4-y,3/4-x,1/4-z
1/2-x,1/2-y,1/2-z
1/4+y,3/4-x,1/4-z
1/2+x,y,1/2-z
1/4-y,1/4+x,3/4-z
1/2-x,1/2+y,1/2+z
1/2+x,-y,1/2+z
1/4-y,3/4-x,1/4+z
1/4+y,1/4+x,3/4+z
loop_
_atom_site_type_symbol
_atom_site_label
_atom_site_fract_x
_atom_site_fract_y
_atom_site_fract_z
Si Si1 0.072489 0.071311 0.231259
Si Si2 0.890300 0.319074 0.132794
Si Si3 0.858703 0.984864 0.103903
Si Si4 0.069955 0.996800 0.594602
Si Si5 0.568071 0.874412 0.304307
O O1 0.083258 0.141885 0.212091
O O2 0.000000 0.057397 0.219712
O O3 0.116829 0.041197 0.159305
O O4 0.092222 0.044649 0.325716
O O5 0.912088 0.250000 0.139506
O O6 0.817117 0.318841 0.130025
O O7 0.902469 0.345527 0.035459
O O8 0.791361 0.958640 0.125000
O O9 0.900820 0.931475 0.146903
O O10 0.864204 0.000000 0.000000
O O11 0.000000 0.975389 0.580730
O O12 0.101838 0.000000 0.500000
O O13 0.500000 0.892801 0.283195
O O14 0.571866 0.821866 0.375000
#
# Coordination Sequence:
#
# PCOD9572964 Si02
#       5
#    32  32  32  32  32
#     4  11  22  38  65  94 124 172 222 256 323 408
#     4  10  21  39  62  92 134 167 207 274 330 380
#     4  11  23  38  60  86 125 169 210 273 323 379
#     4   9  19  38  63  88 120 165 214 265 321 384
#     4  10  20  35  55  84 123 170 215 263 322 386
#
# _framework density 21.643270000000001
#
# number of rings (size 3 to 8) (size 9 to 14) (size 15 to 20)
#    0.000    1.800    2.000    3.000    0.000    5.400 
#    0.000    3.000    0.000    0.000    0.000    5.600 
#    0.000    0.000    0.000    0.000    0.000    0.000 
#
# Total GULP energy -445376.823804 kJ/mol
# GULP energy per Si atom -5567.210298 kJ/mol
# Density = 2.159401 g / cm^3
# Si number density = 21.643270 Si / 1000 Ang^3
#
#
#
# Elastic Constant Matrix: (Units=GPa)
#
#
# Indices 1 2 3 4 5 6 
#
# 1 60.1475 9.8150 29.4304 0.0000 0.0000 0.0000
# 2 9.8150 60.1452 29.4298 0.0000 0.0000 0.0000
# 3 29.4304 29.4298 179.5769 0.0000 0.0000 0.0000
# 4 0.0000 0.0000 0.0000 26.1193 0.0000 0.0000
# 5 0.0000 0.0000 0.0000 0.0000 26.1197 0.0000
# 6 0.0000 0.0000 0.0000 0.0000 0.0000 14.8148
#
#
#
# Elastic Compliance Matrix: (Units=1/GPa)
#
#
# Indices 1 2 3 4 5 6 
#
# 1 0.018224 -0.001644 -0.002717 0.000000 0.000000 0.000000
# 2 -0.001644 0.018224 -0.002717 0.000000 0.000000 0.000000
# 3 -0.002717 -0.002717 0.006459 0.000000 0.000000 0.000000
# 4 0.000000 0.000000 0.000000 0.038286 0.000000 0.000000
# 5 0.000000 0.000000 0.000000 0.000000 0.038285 0.000000
# 6 0.000000 0.000000 0.000000 0.000000 0.000000 0.067500
#
#
# Mechanical properties :
#
#
# Convention : Reuss Voigt Hill
#
# Bulk Modulus (GPa) = 34.78281 48.58001 41.68141
# Shear Modulus (GPa) = 23.72826 28.82371 26.27598
#
# Velocity S-wave (km/s) = 3.31469 3.65329 3.48810
# Velocity P-wave (km/s) = 5.54575 6.34743 5.96009
#
# Compressibility (1/GPa) = 0.02874983
#
# Stress axis : x y z
#
# Youngs Moduli (GPa) = 54.87380 54.87175 154.81665
#
# Poissons Ratio (x) = 0.09023 0.42066
# Poissons Ratio (y) = 0.09023 0.42067
# Poissons Ratio (z) = 0.14910 0.14910
#
# Static dielectric constant tensor:
#      x y z
#    x 1.945130 0.000000 0.000000 
#    y 0.000000 1.945130 0.000000 
#    z 0.000000 0.000000 1.930040 
# 
# From -- ./inp_files/6618.got.cif
#   From: 2010.05.17/outbox.cif.g08.bks.cpg/sg141_4_cif.got.tgz:6618.got - 2010.05.20 13:30:51.
