data_PCOD9572005
_publ_section_title
;
Structure prediction by ZEFSAII (Michael W. Deem and Ramdas Pophale) SiO2 
 PCOD9572005
Probable space group: I 4/M C M
;
_chemical_formula_sum "Si O2"
_cell_formula_units_Z 192
_cell_length_a 28.215279
_cell_length_b 28.215279
_cell_length_c 14.090022
_cell_angle_alpha 90.000000
_cell_angle_beta 90.000000
_cell_angle_gamma 90.000000
_cell_volume 11217.094258
_symmetry_space_group_name_H-M "I 4/M C M"
_symmetry_group_IT_number 140
_symmetry_cell_setting 'tetragonal'
loop_
_space_group_symop_operation_xyz
x,y,z
-y,x,z
-x,-y,z
y,-x,z
x,-y,1/2-z
-x,y,1/2-z
y,x,1/2-z
-y,-x,1/2-z
-x,-y,-z
y,-x,-z
x,y,-z
-y,x,-z
-x,y,1/2+z
x,-y,1/2+z
-y,-x,1/2+z
y,x,1/2+z
1/2+x,1/2+y,1/2+z
1/2-y,1/2+x,1/2+z
1/2-x,1/2-y,1/2+z
1/2+y,1/2-x,1/2+z
1/2+x,1/2-y,-z
1/2-x,1/2+y,-z
1/2+y,1/2+x,-z
1/2-y,1/2-x,-z
1/2-x,1/2-y,1/2-z
1/2+y,1/2-x,1/2-z
1/2+x,1/2+y,1/2-z
1/2-y,1/2+x,1/2-z
1/2-x,1/2+y,z
1/2+x,1/2-y,z
1/2-y,1/2-x,z
1/2+y,1/2+x,z
loop_
_atom_site_type_symbol
_atom_site_label
_atom_site_fract_x
_atom_site_fract_y
_atom_site_fract_z
Si Si1 0.556631 0.742317 0.265453
Si Si2 0.684001 0.388878 0.894367
Si Si3 0.283756 0.291412 0.863130
Si Si4 0.153071 0.082734 0.386023
Si Si5 0.427568 0.480538 0.115499
Si Si6 0.626691 0.206562 0.109313
O O1 0.500000 0.749396 0.250000
O O2 0.579221 0.717063 0.172177
O O3 0.570908 0.703719 0.344867
O O4 0.586834 0.786533 0.308945
O O5 0.706476 0.336569 0.900698
O O6 0.631076 0.374722 0.858134
O O7 0.679019 0.409908 0.000000
O O8 0.289134 0.289134 0.750000
O O9 0.254018 0.245983 0.893886
O O10 0.251720 0.337137 0.886549
O O11 0.155578 0.085380 0.500000
O O12 0.122099 0.038245 0.353250
O O13 0.468061 0.443840 0.145497
O O14 0.427540 0.480749 0.000000
O O15 0.660925 0.160925 0.125251
O O16 0.608425 0.204208 0.000000
#
# Coordination Sequence:
#
# PCOD9572005 Si02
#       6
#    32  32  32  32  32  32
#     4  12  25  37  51  77 112 141 176 226 278 333
#     4  11  22  36  51  70  99 140 183 221 269 326
#     4  10  17  30  55  81 106 133 171 223 268 312
#     4  10  20  34  52  69  96 133 174 222 277 333
#     4   8  15  28  46  65  82 111 164 226 282 330
#     4  10  20  37  61  84 108 143 184 224 268 322
#
# _framework density 17.116733
#
# number of rings (size 3 to 8) (size 9 to 14) (size 15 to 20)
#    0.000    1.833    3.333    2.000    2.333    2.333 
#    0.000    0.000    0.000    0.000    0.000    0.000 
#    0.000    0.333    0.000    1.833    0.000    0.000 
#
# Total GULP energy -535278.622561 kJ/mol
# GULP energy per Si atom -5575.818985 kJ/mol
# Density = 1.707777 g / cm^3
# Si number density = 17.116733 Si / 1000 Ang^3
#
#
#
# Elastic Constant Matrix: (Units=GPa)
#
#
# Indices 1 2 3 4 5 6 
#
# 1 56.9074 24.1931 21.0609 0.0000 0.0000 0.0000
# 2 24.1931 56.9074 21.0609 0.0000 0.0000 0.0000
# 3 21.0609 21.0609 99.7045 0.0000 0.0000 0.0000
# 4 0.0000 0.0000 0.0000 14.0884 0.0000 0.0000
# 5 0.0000 0.0000 0.0000 0.0000 14.0884 0.0000
# 6 0.0000 0.0000 0.0000 0.0000 0.0000 15.4953
#
#
#
# Elastic Compliance Matrix: (Units=1/GPa)
#
#
# Indices 1 2 3 4 5 6 
#
# 1 0.022209 -0.008359 -0.002926 0.000000 0.000000 0.000000
# 2 -0.008359 0.022209 -0.002926 0.000000 0.000000 0.000000
# 3 -0.002926 -0.002926 0.011266 0.000000 0.000000 0.000000
# 4 0.000000 0.000000 0.000000 0.070980 0.000000 0.000000
# 5 0.000000 0.000000 0.000000 0.000000 0.070980 0.000000
# 6 0.000000 0.000000 0.000000 0.000000 0.000000 0.064536
#
#
# Mechanical properties :
#
#
# Convention : Reuss Voigt Hill
#
# Bulk Modulus (GPa) = 36.67962 38.46100 37.57031
# Shear Modulus (GPa) = 16.68407 18.54805 17.61606
#
# Velocity S-wave (km/s) = 3.12544 3.29541 3.21155
# Velocity P-wave (km/s) = 5.87368 6.08262 5.97906
#
# Compressibility (1/GPa) = 0.02726310
#
# Stress axis : x y z
#
# Youngs Moduli (GPa) = 45.02726 45.02726 88.76591
#
# Poissons Ratio (x) = 0.37638 0.25969
# Poissons Ratio (y) = 0.37638 0.25969
# Poissons Ratio (z) = 0.13173 0.13173
#
# Static dielectric constant tensor:
#      x y z
#    x 1.601630 0.000000 0.000000 
#    y 0.000000 1.601630 0.000000 
#    z 0.000000 0.000000 1.683980 
# 
# From -- ./inp_files/5287.got.cif
#   From: 2010.05.17/outbox.cif.g08.bks.cpg/sg140_3_cif.got.tgz:5287.got - 2010.06.21 00:45:31.
