data_PCOD9572236
_publ_section_title
;
Structure prediction by ZEFSAII (Michael W. Deem and Ramdas Pophale) SiO2 
 PCOD9572236
Probable space group: I 4/M C M
;
_chemical_formula_sum "Si O2"
_cell_formula_units_Z 240
_cell_length_a 31.446900
_cell_length_b 31.446900
_cell_length_c 15.015302
_cell_angle_alpha 90.000000
_cell_angle_beta 90.000000
_cell_angle_gamma 90.000000
_cell_volume 14848.745057
_symmetry_space_group_name_H-M "I 4/M C M"
_symmetry_group_IT_number 140
_symmetry_cell_setting 'tetragonal'
loop_
_space_group_symop_operation_xyz
x,y,z
-y,x,z
-x,-y,z
y,-x,z
x,-y,1/2-z
-x,y,1/2-z
y,x,1/2-z
-y,-x,1/2-z
-x,-y,-z
y,-x,-z
x,y,-z
-y,x,-z
-x,y,1/2+z
x,-y,1/2+z
-y,-x,1/2+z
y,x,1/2+z
1/2+x,1/2+y,1/2+z
1/2-y,1/2+x,1/2+z
1/2-x,1/2-y,1/2+z
1/2+y,1/2-x,1/2+z
1/2+x,1/2-y,-z
1/2-x,1/2+y,-z
1/2+y,1/2+x,-z
1/2-y,1/2-x,-z
1/2-x,1/2-y,1/2-z
1/2+y,1/2-x,1/2-z
1/2+x,1/2+y,1/2-z
1/2-y,1/2+x,1/2-z
1/2-x,1/2+y,z
1/2+x,1/2-y,z
1/2-y,1/2-x,z
1/2+y,1/2+x,z
loop_
_atom_site_type_symbol
_atom_site_label
_atom_site_fract_x
_atom_site_fract_y
_atom_site_fract_z
Si Si1 0.546622 0.255691 0.604842
Si Si2 0.861116 0.789859 0.605026
Si Si3 0.802761 0.866033 0.605897
Si Si4 0.454222 0.271725 0.394653
Si Si5 0.195689 0.567249 0.737902
Si Si6 0.770948 0.340109 0.259816
Si Si7 0.571837 0.001558 0.500000
Si Si8 0.466820 0.104159 0.678252
O O1 0.547019 0.243809 0.500000
O O2 0.588900 0.283024 0.622839
O O3 0.503453 0.281621 0.623243
O O4 0.548866 0.215000 0.669898
O O5 0.853928 0.781640 0.500000
O O6 0.843172 0.836569 0.626041
O O7 0.838217 0.755897 0.668467
O O8 0.794736 0.861971 0.500000
O O9 0.804707 0.916422 0.626705
O O10 0.763232 0.848278 0.662374
O O11 0.450999 0.262705 0.500000
O O12 0.444562 0.229791 0.337951
O O13 0.198518 0.618409 0.745302
O O14 0.150438 0.548612 0.710243
O O15 0.798663 0.298663 0.274673
O O16 0.546606 0.046606 0.500000
O O17 0.534209 0.965792 0.500000
O O18 0.600731 0.992006 0.414422
O O19 0.500000 0.086665 0.750000
O O20 0.425979 0.074022 0.671807
#
# Coordination Sequence:
#
# PCOD9572236 Si02
#       8
#    32  32  32  32  32  32  16  32
#     4   9  17  31  50  70  94 126 159 194 235 280
#     4   9  18  31  47  67  93 124 160 196 232 275
#     4   9  18  31  45  67  95 123 155 195 236 275
#     4   9  17  29  48  69  94 122 152 191 236 280
#     4  10  20  34  49  71  94 120 151 191 237 285
#     4  10  20  33  48  65  92 124 157 193 232 277
#     4   9  20  38  56  74  94 116 146 184 230 288
#     4  11  22  36  55  74  93 119 150 187 235 289
#
# _framework density 16.162982
#
# number of rings (size 3 to 8) (size 9 to 14) (size 15 to 20)
#    0.000    2.467    0.000    2.400    0.933    2.267 
#    1.200    1.333    0.000    0.800    0.000    0.000 
#    0.000    0.533    0.000    7.467    0.000   20.800 
#
# Total GULP energy -668459.219831 kJ/mol
# GULP energy per Si atom -5570.493499 kJ/mol
# Density = 1.612619 g / cm^3
# Si number density = 16.162982 Si / 1000 Ang^3
#
#
#
# Elastic Constant Matrix: (Units=GPa)
#
#
# Indices 1 2 3 4 5 6 
#
# 1 80.3799 57.7217 35.9625 0.0000 0.0000 0.0000
# 2 57.7217 80.3802 35.9625 0.0000 0.0000 0.0000
# 3 35.9625 35.9625 68.6274 0.0000 0.0000 0.0000
# 4 0.0000 0.0000 0.0000 20.3041 0.0000 0.0000
# 5 0.0000 0.0000 0.0000 0.0000 20.3043 0.0000
# 6 0.0000 0.0000 0.0000 0.0000 0.0000 4.8149
#
#
#
# Elastic Compliance Matrix: (Units=1/GPa)
#
#
# Indices 1 2 3 4 5 6 
#
# 1 0.027047 -0.017087 -0.005219 0.000000 0.000000 0.000000
# 2 -0.017087 0.027046 -0.005219 0.000000 0.000000 0.000000
# 3 -0.005219 -0.005219 0.020041 0.000000 0.000000 0.000000
# 4 0.000000 0.000000 0.000000 0.049251 0.000000 0.000000
# 5 0.000000 0.000000 0.000000 0.000000 0.049251 0.000000
# 6 0.000000 0.000000 0.000000 0.000000 0.000000 0.207688
#
#
# Mechanical properties :
#
#
# Convention : Reuss Voigt Hill
#
# Bulk Modulus (GPa) = 52.40014 54.29788 53.34901
# Shear Modulus (GPa) = 11.31900 15.73404 13.52652
#
# Velocity S-wave (km/s) = 2.64920 3.12342 2.89603
# Velocity P-wave (km/s) = 6.46899 6.83188 6.65291
#
# Compressibility (1/GPa) = 0.01908392
#
# Stress axis : x y z
#
# Youngs Moduli (GPa) = 36.97328 36.97347 49.89773
#
# Poissons Ratio (x) = 0.63178 0.26041
# Poissons Ratio (y) = 0.63178 0.26040
# Poissons Ratio (z) = 0.19296 0.19295
#
# Static dielectric constant tensor:
#      x y z
#    x 1.543360 0.000000 0.000000 
#    y 0.000000 1.543360 0.000000 
#    z 0.000000 0.000000 1.576400 
# 
# From -- ./inp_files/5382.got.cif
#   From: 2010.05.17/outbox.cif.g08.bks.cpg/sg140_3_cif.got.tgz:5382.got - 2010.06.21 00:45:31.
