data_PCOD9572807
_publ_section_title
;
Structure prediction by ZEFSAII (Michael W. Deem and Ramdas Pophale) SiO2 
 PCOD9572807
Probable space group: I 41/A M D
;
_chemical_formula_sum "Si O2"
_cell_formula_units_Z 192
_cell_length_a 23.196432
_cell_length_b 23.196432
_cell_length_c 20.011090
_cell_angle_alpha 90.000000
_cell_angle_beta 90.000000
_cell_angle_gamma 90.000000
_cell_volume 10767.456396
_symmetry_space_group_name_H-M "I 41/A M D"
_symmetry_group_IT_number 141
_space_group.IT_coordinate_system_code '2'
_symmetry_cell_setting 'tetragonal'
loop_
_space_group_symop_operation_xyz
x,y,z
1/4-y,3/4+x,1/4+z
-x,1/2-y,z
1/4+y,1/4-x,3/4+z
x,-y,-z
-x,1/2+y,-z
1/4+y,3/4+x,1/4-z
1/4-y,1/4-x,3/4-z
-x,-y,-z
3/4+y,1/4-x,3/4-z
x,1/2+y,-z
3/4-y,3/4+x,1/4-z
-x,y,z
x,1/2-y,z
3/4-y,1/4-x,3/4+z
3/4+y,3/4+x,1/4+z
1/2+x,1/2+y,1/2+z
3/4-y,1/4+x,3/4+z
1/2-x,-y,1/2+z
3/4+y,3/4-x,1/4+z
1/2+x,1/2-y,1/2-z
1/2-x,y,1/2-z
3/4+y,1/4+x,3/4-z
3/4-y,3/4-x,1/4-z
1/2-x,1/2-y,1/2-z
1/4+y,3/4-x,1/4-z
1/2+x,y,1/2-z
1/4-y,1/4+x,3/4-z
1/2-x,1/2+y,1/2+z
1/2+x,-y,1/2+z
1/4-y,3/4-x,1/4+z
1/4+y,1/4+x,3/4+z
loop_
_atom_site_type_symbol
_atom_site_label
_atom_site_fract_x
_atom_site_fract_y
_atom_site_fract_z
Si Si1 0.064096 0.534771 0.068847
Si Si2 0.264578 0.750000 0.671911
Si Si3 0.648202 0.750000 0.481297
Si Si4 0.647265 0.850571 0.634097
Si Si5 0.106703 0.965009 0.805535
Si Si6 0.000000 0.317568 0.642162
Si Si7 0.221347 0.250000 0.463794
Si Si8 0.626982 0.909867 0.273643
O O1 0.075484 0.488595 0.127431
O O2 0.116408 0.579226 0.058276
O O3 0.000000 0.560666 0.077116
O O4 0.063182 0.500000 0.000000
O O5 0.250000 0.750000 0.750000
O O6 0.301054 0.692101 0.654833
O O7 0.214314 0.750000 0.615820
O O8 0.596461 0.750000 0.534274
O O9 0.709198 0.750000 0.521389
O O10 0.648773 0.687645 0.447212
O O11 0.642220 0.908271 0.677100
O O12 0.592102 0.808277 0.641002
O O13 0.650298 0.869898 0.556159
O O14 0.057639 0.951016 0.750923
O O15 0.140979 0.022547 0.783194
O O16 0.000000 0.250000 0.645251
#
# Coordination Sequence:
#
# PCOD9572807 Si02
#       8
#    32  16  16  32  32  16  16  32
#     4  11  22  33  51  87 120 160 207 248 287 341
#     4  11  21  44  71  84 110 149 195 252 309 383
#     4   8  16  33  53  73 112 154 197 240 289 348
#     4  10  20  37  58  90 117 151 197 249 305 363
#     4  11  20  35  60  81 121 160 203 242 297 356
#     4   9  17  28  51  87 121 139 186 245 306 350
#     4  10  18  37  60  87 113 159 195 236 298 362
#     4  10  19  36  56  79 120 160 205 250 294 349
#
# _framework density 17.831509
#
# number of rings (size 3 to 8) (size 9 to 14) (size 15 to 20)
#    0.000    1.833    7.500    0.500    1.167    2.667 
#    0.000    1.667    0.000    0.000    0.000    0.000 
#    0.000    0.000    0.000    0.000    0.000    0.000 
#
# Total GULP energy -534839.655502 kJ/mol
# GULP energy per Si atom -5571.246411 kJ/mol
# Density = 1.779092 g / cm^3
# Si number density = 17.831509 Si / 1000 Ang^3
#
#
#
# Elastic Constant Matrix: (Units=GPa)
#
#
# Indices 1 2 3 4 5 6 
#
# 1 80.2509 43.6048 17.4569 0.0000 0.0000 0.0000
# 2 43.6048 80.2509 17.4569 0.0000 0.0000 0.0000
# 3 17.4569 17.4569 95.2192 0.0000 0.0000 0.0000
# 4 0.0000 0.0000 0.0000 23.4305 0.0000 0.0000
# 5 0.0000 0.0000 0.0000 0.0000 23.4305 0.0000
# 6 0.0000 0.0000 0.0000 0.0000 0.0000 14.5783
#
#
#
# Elastic Compliance Matrix: (Units=1/GPa)
#
#
# Indices 1 2 3 4 5 6 
#
# 1 0.017901 -0.009387 -0.001561 0.000000 0.000000 0.000000
# 2 -0.009387 0.017901 -0.001561 0.000000 0.000000 0.000000
# 3 -0.001561 -0.001561 0.011074 0.000000 0.000000 0.000000
# 4 0.000000 0.000000 0.000000 0.042679 0.000000 0.000000
# 5 0.000000 0.000000 0.000000 0.000000 0.042679 0.000000
# 6 0.000000 0.000000 0.000000 0.000000 0.000000 0.068595
#
#
# Mechanical properties :
#
#
# Convention : Reuss Voigt Hill
#
# Bulk Modulus (GPa) = 45.74844 45.86206 45.80525
# Shear Modulus (GPa) = 21.44690 24.10137 22.77414
#
# Velocity S-wave (km/s) = 3.47184 3.68042 3.57765
# Velocity P-wave (km/s) = 6.46399 6.62089 6.54291
#
# Compressibility (1/GPa) = 0.02185867
#
# Stress axis : x y z
#
# Youngs Moduli (GPa) = 55.86291 55.86291 90.29822
#
# Poissons Ratio (x) = 0.52439 0.14095
# Poissons Ratio (y) = 0.52439 0.14095
# Poissons Ratio (z) = 0.08720 0.08720
#
# Static dielectric constant tensor:
#      x y z
#    x 1.615570 0.000000 0.000000 
#    y 0.000000 1.615570 0.000000 
#    z 0.000000 0.000000 1.671700 
# 
# From -- ./inp_files/10508.got.cif
#   From: 2010.05.17/outbox.cif.g08.bks.cpg/sg141_6_cif.got.tgz:10508.got - 2010.05.20 13:30:51.
