data_PCOD9572345
_publ_section_title
;
Structure prediction by ZEFSAII (Michael W. Deem and Ramdas Pophale) SiO2 
 PCOD9572345
Probable space group: I 4/M C M
;
_chemical_formula_sum "Si O2"
_cell_formula_units_Z 176
_cell_length_a 24.185897
_cell_length_b 24.185897
_cell_length_c 15.614494
_cell_angle_alpha 90.000000
_cell_angle_beta 90.000000
_cell_angle_gamma 90.000000
_cell_volume 9133.817149
_symmetry_space_group_name_H-M "I 4/M C M"
_symmetry_group_IT_number 140
_symmetry_cell_setting 'tetragonal'
loop_
_space_group_symop_operation_xyz
x,y,z
-y,x,z
-x,-y,z
y,-x,z
x,-y,1/2-z
-x,y,1/2-z
y,x,1/2-z
-y,-x,1/2-z
-x,-y,-z
y,-x,-z
x,y,-z
-y,x,-z
-x,y,1/2+z
x,-y,1/2+z
-y,-x,1/2+z
y,x,1/2+z
1/2+x,1/2+y,1/2+z
1/2-y,1/2+x,1/2+z
1/2-x,1/2-y,1/2+z
1/2+y,1/2-x,1/2+z
1/2+x,1/2-y,-z
1/2-x,1/2+y,-z
1/2+y,1/2+x,-z
1/2-y,1/2-x,-z
1/2-x,1/2-y,1/2-z
1/2+y,1/2-x,1/2-z
1/2+x,1/2+y,1/2-z
1/2-y,1/2+x,1/2-z
1/2-x,1/2+y,z
1/2+x,1/2-y,z
1/2-y,1/2-x,z
1/2+y,1/2+x,z
loop_
_atom_site_type_symbol
_atom_site_label
_atom_site_fract_x
_atom_site_fract_y
_atom_site_fract_z
Si Si1 0.805377 0.856218 0.168811
Si Si2 0.183348 0.683348 0.222070
Si Si3 0.225270 0.017206 0.159956
Si Si4 0.006386 0.354687 0.846578
Si Si5 0.366054 0.133947 0.398783
Si Si6 0.989385 0.838911 0.000000
Si Si7 0.130884 0.120861 0.000000
Si Si8 0.109302 0.390698 0.406817
O O1 0.844475 0.844475 0.250000
O O2 0.746975 0.827362 0.194390
O O3 0.785771 0.918493 0.154096
O O4 0.841205 0.848215 0.082037
O O5 0.167589 0.667589 0.322389
O O6 0.142939 0.642939 0.166228
O O7 0.200540 0.000000 0.250000
O O8 0.289950 0.006752 0.158413
O O9 0.198102 0.984404 0.083795
O O10 0.068302 0.358434 0.881837
O O11 0.000000 0.377675 0.750000
O O12 0.956039 0.380496 0.898908
O O13 0.353178 0.146823 0.500000
O O14 0.053997 0.858034 0.000000
O O15 0.935710 0.877051 0.000000
O O16 0.129130 0.370871 0.500000
#
# Coordination Sequence:
#
# PCOD9572345 Si02
#       8
#    32  16  32  32  16  16  16  16
#     4  11  23  41  64  94 135 168 220 271 328 401
#     4  12  23  44  62  95 130 181 216 274 336 399
#     4  10  20  36  64  89 122 169 213 266 318 388
#     4  11  21  42  60  90 126 173 224 282 335 389
#     4  12  26  42  64  95 136 169 232 287 343 403
#     4  10  22  39  64  94 130 162 215 256 329 392
#     4  10  24  42  66 100 128 173 212 273 326 405
#     4  12  24  36  66  89 123 169 227 275 328 386
#
# _framework density 19.269051000000001
#
# number of rings (size 3 to 8) (size 9 to 14) (size 15 to 20)
#    0.000    1.091    3.636    3.000    3.818    0.545 
#    1.636    1.818    0.000    0.000    0.000    2.545 
#    0.000    0.000    0.000    0.000    0.000    0.000 
#
# Total GULP energy -490155.006590 kJ/mol
# GULP energy per Si atom -5569.943257 kJ/mol
# Density = 1.922519 g / cm^3
# Si number density = 19.269051 Si / 1000 Ang^3
#
#
#
# Elastic Constant Matrix: (Units=GPa)
#
#
# Indices 1 2 3 4 5 6 
#
# 1 71.7944 29.4797 36.2772 0.0000 0.0000 0.0000
# 2 29.4797 71.7943 36.2770 0.0000 0.0000 0.0000
# 3 36.2772 36.2770 171.2238 0.0000 0.0000 0.0000
# 4 0.0000 0.0000 0.0000 21.0636 0.0000 0.0000
# 5 0.0000 0.0000 0.0000 0.0000 21.0635 0.0000
# 6 0.0000 0.0000 0.0000 0.0000 0.0000 27.3043
#
#
#
# Elastic Compliance Matrix: (Units=1/GPa)
#
#
# Indices 1 2 3 4 5 6 
#
# 1 0.017637 -0.005996 -0.002466 0.000000 0.000000 0.000000
# 2 -0.005996 0.017637 -0.002466 0.000000 0.000000 0.000000
# 3 -0.002466 -0.002466 0.006885 0.000000 0.000000 0.000000
# 4 0.000000 0.000000 0.000000 0.047475 0.000000 0.000000
# 5 0.000000 0.000000 0.000000 0.000000 0.047475 0.000000
# 6 0.000000 0.000000 0.000000 0.000000 0.000000 0.036624
#
#
# Mechanical properties :
#
#
# Convention : Reuss Voigt Hill
#
# Bulk Modulus (GPa) = 49.25591 57.65334 53.45462
# Shear Modulus (GPa) = 24.70864 28.07153 26.39009
#
# Velocity S-wave (km/s) = 3.58480 3.82097 3.70477
# Velocity P-wave (km/s) = 6.53851 7.03218 6.78983
#
# Compressibility (1/GPa) = 0.02030213
#
# Stress axis : x y z
#
# Youngs Moduli (GPa) = 56.69956 56.69952 145.23442
#
# Poissons Ratio (x) = 0.33995 0.35821
# Poissons Ratio (y) = 0.33995 0.35821
# Poissons Ratio (z) = 0.13984 0.13984
#
# Static dielectric constant tensor:
#      x y z
#    x 1.659640 0.000000 0.000000 
#    y 0.000000 1.659640 0.000000 
#    z 0.000000 0.000000 1.735900 
# 
# From -- ./inp_files/5009.got.cif
#   From: 2010.05.17/outbox.cif.g08.bks.cpg/sg140_3_cif.got.tgz:5009.got - 2010.06.21 00:45:31.
