data_PCOD9572779
_publ_section_title
;
Structure prediction by ZEFSAII (Michael W. Deem and Ramdas Pophale) SiO2 
 PCOD9572779
Probable space group: I 41/A M D
;
_chemical_formula_sum "Si O2"
_cell_formula_units_Z 68
_cell_length_a 11.283075
_cell_length_b 11.283075
_cell_length_c 25.475132
_cell_angle_alpha 90.000000
_cell_angle_beta 90.000000
_cell_angle_gamma 90.000000
_cell_volume 3243.182537
_symmetry_space_group_name_H-M "I 41/A M D"
_symmetry_group_IT_number 141
_space_group.IT_coordinate_system_code '2'
_symmetry_cell_setting 'tetragonal'
loop_
_space_group_symop_operation_xyz
x,y,z
1/4-y,3/4+x,1/4+z
-x,1/2-y,z
1/4+y,1/4-x,3/4+z
x,-y,-z
-x,1/2+y,-z
1/4+y,3/4+x,1/4-z
1/4-y,1/4-x,3/4-z
-x,-y,-z
3/4+y,1/4-x,3/4-z
x,1/2+y,-z
3/4-y,3/4+x,1/4-z
-x,y,z
x,1/2-y,z
3/4-y,1/4-x,3/4+z
3/4+y,3/4+x,1/4+z
1/2+x,1/2+y,1/2+z
3/4-y,1/4+x,3/4+z
1/2-x,-y,1/2+z
3/4+y,3/4-x,1/4+z
1/2+x,1/2-y,1/2-z
1/2-x,y,1/2-z
3/4+y,1/4+x,3/4-z
3/4-y,3/4-x,1/4-z
1/2-x,1/2-y,1/2-z
1/4+y,3/4-x,1/4-z
1/2+x,y,1/2-z
1/4-y,1/4+x,3/4-z
1/2-x,1/2+y,1/2+z
1/2+x,-y,1/2+z
1/4-y,3/4-x,1/4+z
1/4+y,1/4+x,3/4+z
loop_
_atom_site_type_symbol
_atom_site_label
_atom_site_fract_x
_atom_site_fract_y
_atom_site_fract_z
Si Si1 0.646460 0.250000 0.047313
Si Si2 0.000000 0.750000 0.125000
Si Si3 0.754630 0.110130 0.186104
Si Si4 0.250987 0.250000 0.569485
O O1 0.500000 0.250000 0.040114
O O2 0.680340 0.370585 0.076635
O O3 0.713477 0.250000 0.991802
O O4 0.000000 0.863944 0.162721
O O5 0.766130 0.250000 0.178574
O O6 0.750000 0.093038 0.250000
O O7 0.872472 0.051144 0.162734
#
# Coordination Sequence:
#
# PCOD9572779 Si02
#       4
#    16   4  32  16
#     4   8  14  28  58  92 100 101 144 231 295 302
#     4  12  28  36  40  52  96 168 196 176 192 288
#     4   8  13  25  53  84  98 110 145 209 276 307
#     4  10  18  32  46  62 100 142 175 194 226 302
#
# _framework density 20.967061000000001
#
# number of rings (size 3 to 8) (size 9 to 14) (size 15 to 20)
#    0.000    3.294    0.000    4.941    0.000    0.000 
#    0.000   10.588   15.529    0.000    0.000    0.000 
#    0.000    0.000    0.000    0.000    0.000    0.000 
#
# Total GULP energy -189309.063249 kJ/mol
# GULP energy per Si atom -5567.913625 kJ/mol
# Density = 2.091934 g / cm^3
# Si number density = 20.967061 Si / 1000 Ang^3
#
#
#
# Elastic Constant Matrix: (Units=GPa)
#
#
# Indices 1 2 3 4 5 6 
#
# 1 186.1524 102.0070 18.1812 0.0000 0.0000 0.0000
# 2 102.0070 186.1524 18.1812 0.0000 0.0000 0.0000
# 3 18.1812 18.1812 62.4972 0.0000 0.0000 0.0000
# 4 0.0000 0.0000 0.0000 16.7311 0.0000 0.0000
# 5 0.0000 0.0000 0.0000 0.0000 16.7311 0.0000
# 6 0.0000 0.0000 0.0000 0.0000 0.0000 34.7756
#
#
#
# Elastic Compliance Matrix: (Units=1/GPa)
#
#
# Indices 1 2 3 4 5 6 
#
# 1 0.007743 -0.004141 -0.001048 0.000000 0.000000 0.000000
# 2 -0.004141 0.007743 -0.001048 0.000000 0.000000 0.000000
# 3 -0.001048 -0.001048 0.016610 0.000000 0.000000 0.000000
# 4 0.000000 0.000000 0.000000 0.059769 0.000000 0.000000
# 5 0.000000 0.000000 0.000000 0.000000 0.059769 0.000000
# 6 0.000000 0.000000 0.000000 0.000000 0.000000 0.028756
#
#
# Mechanical properties :
#
#
# Convention : Reuss Voigt Hill
#
# Bulk Modulus (GPa) = 50.95935 79.06009 65.00972
# Shear Modulus (GPa) = 25.07447 33.40972 29.24209
#
# Velocity S-wave (km/s) = 3.46193 3.99612 3.73858
# Velocity P-wave (km/s) = 6.35115 7.68639 7.05045
#
# Compressibility (1/GPa) = 0.01962348
#
# Stress axis : x y z
#
# Youngs Moduli (GPa) = 129.14265 129.14265 60.20294
#
# Poissons Ratio (x) = 0.53476 0.06309
# Poissons Ratio (y) = 0.53476 0.06309
# Poissons Ratio (z) = 0.13534 0.13534
#
# Static dielectric constant tensor:
#      x y z
#    x 1.787430 0.000000 0.000000 
#    y 0.000000 1.787430 0.000000 
#    z 0.000000 0.000000 1.842410 
# 
# From -- ./inp_files/12257.got.cif
#   From: 2010.05.17/outbox.cif.g08.bks.cpg/sg141_7_cif.got.tgz:12257.got - 2010.05.20 13:30:51.
