data_PCOD9572281
_publ_section_title
;
Structure prediction by ZEFSAII (Michael W. Deem and Ramdas Pophale) SiO2 
 PCOD9572281
Probable space group: I 4/M C M
;
_chemical_formula_sum "Si O2"
_cell_formula_units_Z 240
_cell_length_a 22.444957
_cell_length_b 22.444957
_cell_length_c 25.951891
_cell_angle_alpha 90.000000
_cell_angle_beta 90.000000
_cell_angle_gamma 90.000000
_cell_volume 13073.942299
_symmetry_space_group_name_H-M "I 4/M C M"
_symmetry_group_IT_number 140
_symmetry_cell_setting 'tetragonal'
loop_
_space_group_symop_operation_xyz
x,y,z
-y,x,z
-x,-y,z
y,-x,z
x,-y,1/2-z
-x,y,1/2-z
y,x,1/2-z
-y,-x,1/2-z
-x,-y,-z
y,-x,-z
x,y,-z
-y,x,-z
-x,y,1/2+z
x,-y,1/2+z
-y,-x,1/2+z
y,x,1/2+z
1/2+x,1/2+y,1/2+z
1/2-y,1/2+x,1/2+z
1/2-x,1/2-y,1/2+z
1/2+y,1/2-x,1/2+z
1/2+x,1/2-y,-z
1/2-x,1/2+y,-z
1/2+y,1/2+x,-z
1/2-y,1/2-x,-z
1/2-x,1/2-y,1/2-z
1/2+y,1/2-x,1/2-z
1/2+x,1/2+y,1/2-z
1/2-y,1/2+x,1/2-z
1/2-x,1/2+y,z
1/2+x,1/2-y,z
1/2-y,1/2-x,z
1/2+y,1/2+x,z
loop_
_atom_site_type_symbol
_atom_site_label
_atom_site_fract_x
_atom_site_fract_y
_atom_site_fract_z
Si Si1 0.617805 0.215117 0.171393
Si Si2 0.399403 0.489816 0.307882
Si Si3 0.567198 0.328473 0.598469
Si Si4 0.688058 0.284297 0.352913
Si Si5 0.492706 0.785616 0.623012
Si Si6 0.003412 0.597441 0.559394
Si Si7 0.604461 0.799220 0.790131
Si Si8 0.045290 0.910258 0.000000
O O1 0.656449 0.156449 0.157757
O O2 0.663651 0.269782 0.167724
O O3 0.561288 0.225841 0.135832
O O4 0.595056 0.206954 0.229623
O O5 0.449243 0.437478 0.312935
O O6 0.373426 0.500000 0.250000
O O7 0.353539 0.470232 0.351942
O O8 0.635871 0.312918 0.612196
O O9 0.535428 0.265752 0.587883
O O10 0.562000 0.373865 0.551369
O O11 0.732773 0.232773 0.375430
O O12 0.651638 0.251111 0.307906
O O13 0.488313 0.848062 0.594846
O O14 0.453115 0.789881 0.674833
O O15 0.010972 0.616032 0.500000
O O16 0.951073 0.548928 0.560794
O O17 0.063191 0.563191 0.575978
O O18 0.637877 0.862124 0.800314
O O19 0.974477 0.922925 0.000000
#
# Coordination Sequence:
#
# PCOD9572281 Si02
#       8
#    32  32  32  32  32  32  32  16
#     4  10  20  34  55  81 117 159 189 229 282 341
#     4   9  19  37  59  87 121 153 193 252 311 351
#     4  11  24  38  61  90 115 160 199 246 293 363
#     4   9  20  38  57  80 114 157 199 241 284 338
#     4  11  22  33  54  86 120 145 188 241 289 342
#     4   9  19  38  63  85 106 141 190 245 305 358
#     4   9  18  35  54  78 114 154 196 230 276 339
#     4  11  26  46  67  86 116 157 203 250 300 362
#
# _framework density 18.357126000000001
#
# number of rings (size 3 to 8) (size 9 to 14) (size 15 to 20)
#    0.000    2.200    0.000    3.200    4.667    5.333 
#    4.800    0.333    0.000    0.000    0.000    5.600 
#    0.000    0.000    0.000    0.000    0.000    0.000 
#
# Total GULP energy -669113.769796 kJ/mol
# GULP energy per Si atom -5575.948082 kJ/mol
# Density = 1.831534 g / cm^3
# Si number density = 18.357126 Si / 1000 Ang^3
#
#
#
# Elastic Constant Matrix: (Units=GPa)
#
#
# Indices 1 2 3 4 5 6 
#
# 1 255.6678 -162.0695 23.4078 0.0000 0.0000 0.0000
# 2 -162.0695 255.6678 23.4078 0.0000 0.0000 0.0000
# 3 23.4078 23.4078 49.1004 0.0000 0.0000 0.0000
# 4 0.0000 0.0000 0.0000 14.3595 0.0000 0.0000
# 5 0.0000 0.0000 0.0000 0.0000 14.3595 0.0000
# 6 0.0000 0.0000 0.0000 0.0000 0.0000 22.6248
#
#
#
# Elastic Compliance Matrix: (Units=1/GPa)
#
#
# Indices 1 2 3 4 5 6 
#
# 1 0.008212 0.005818 -0.006688 0.000000 0.000000 0.000000
# 2 0.005818 0.008212 -0.006688 0.000000 0.000000 0.000000
# 3 -0.006688 -0.006688 0.026743 0.000000 0.000000 0.000000
# 4 0.000000 0.000000 0.000000 0.069640 0.000000 0.000000
# 5 0.000000 0.000000 0.000000 0.000000 0.069640 0.000000
# 6 0.000000 0.000000 0.000000 0.000000 0.000000 0.044199
#
#
# Mechanical properties :
#
#
# Convention : Reuss Voigt Hill
#
# Bulk Modulus (GPa) = 35.65182 36.65869 36.15526
# Shear Modulus (GPa) = 19.91130 55.31475 37.61302
#
# Velocity S-wave (km/s) = 3.29700 5.49527 4.53146
# Velocity P-wave (km/s) = 5.82726 7.76383 6.86418
#
# Compressibility (1/GPa) = 0.02804906
#
# Stress axis : x y z
#
# Youngs Moduli (GPa) = 121.77983 121.77983 37.39238
#
# Poissons Ratio (x) = -0.70848 0.25009
# Poissons Ratio (y) = -0.70848 0.25009
# Poissons Ratio (z) = 0.81449 0.81449
#
# Static dielectric constant tensor:
#      x y z
#    x 1.633730 0.000000 0.000000 
#    y 0.000000 1.633730 0.000000 
#    z 0.000000 0.000000 1.612550 
# 
# From -- ./inp_files/10958.got.cif
#   From: 2010.05.17/outbox.cif.g08.bks.cpg/sg140_6_cif.got.tgz:10958.got - 2010.06.21 00:45:31.
