data_PCOD9572170
_publ_section_title
;
Structure prediction by ZEFSAII (Michael W. Deem and Ramdas Pophale) SiO2 
 PCOD9572170
Probable space group: I 4/M C M
;
_chemical_formula_sum "Si O2"
_cell_formula_units_Z 192
_cell_length_a 20.580519
_cell_length_b 20.580519
_cell_length_c 26.779558
_cell_angle_alpha 90.000000
_cell_angle_beta 90.000000
_cell_angle_gamma 90.000000
_cell_volume 11342.689662
_symmetry_space_group_name_H-M "I 4/M C M"
_symmetry_group_IT_number 140
_symmetry_cell_setting 'tetragonal'
loop_
_space_group_symop_operation_xyz
x,y,z
-y,x,z
-x,-y,z
y,-x,z
x,-y,1/2-z
-x,y,1/2-z
y,x,1/2-z
-y,-x,1/2-z
-x,-y,-z
y,-x,-z
x,y,-z
-y,x,-z
-x,y,1/2+z
x,-y,1/2+z
-y,-x,1/2+z
y,x,1/2+z
1/2+x,1/2+y,1/2+z
1/2-y,1/2+x,1/2+z
1/2-x,1/2-y,1/2+z
1/2+y,1/2-x,1/2+z
1/2+x,1/2-y,-z
1/2-x,1/2+y,-z
1/2+y,1/2+x,-z
1/2-y,1/2-x,-z
1/2-x,1/2-y,1/2-z
1/2+y,1/2-x,1/2-z
1/2+x,1/2+y,1/2-z
1/2-y,1/2+x,1/2-z
1/2-x,1/2+y,z
1/2+x,1/2-y,z
1/2-y,1/2-x,z
1/2+y,1/2+x,z
loop_
_atom_site_type_symbol
_atom_site_label
_atom_site_fract_x
_atom_site_fract_y
_atom_site_fract_z
Si Si1 0.661147 0.440157 0.913190
Si Si2 0.185331 0.915424 0.054641
Si Si3 0.926205 0.763612 0.256114
Si Si4 0.862723 0.261806 0.144373
Si Si5 0.099004 0.957042 0.306209
Si Si6 0.351621 0.745407 0.848973
O O1 0.667922 0.508617 0.940332
O O2 0.627108 0.380748 0.941642
O O3 0.730997 0.416103 0.892181
O O4 0.616901 0.451150 0.864278
O O5 0.228791 0.894829 0.102420
O O6 0.215213 0.903234 0.000000
O O7 0.890680 0.725540 0.300474
O O8 0.931717 0.836827 0.278458
O O9 0.890566 0.761031 0.202967
O O10 0.000000 0.740797 0.250000
O O11 0.824206 0.324206 0.124929
O O12 0.809766 0.204218 0.151071
O O13 0.032674 0.917798 0.297095
O O14 0.313877 0.813877 0.851985
#
# Coordination Sequence:
#
# PCOD9572170 Si02
#       6
#    32  32  32  32  32  32
#     4  10  19  34  54  75 108 139 176 216 261 306
#     4  11  22  36  54  76 103 140 181 222 262 309
#     4  11  22  29  49  74 106 136 170 213 257 310
#     4   9  19  33  52  71  98 138 179 215 255 305
#     4  10  20  32  45  68 105 147 181 209 242 295
#     4  10  21  37  53  70  98 139 182 226 264 304
#
# _framework density 16.927202000000001
#
# number of rings (size 3 to 8) (size 9 to 14) (size 15 to 20)
#    0.000    1.833    1.667    3.500    7.000    2.000 
#    0.000    1.667    0.000    1.500    0.000    0.000 
#    0.000   27.333    0.000    6.000    0.000    0.000 
#
# Total GULP energy -535837.655068 kJ/mol
# GULP energy per Si atom -5581.642240 kJ/mol
# Density = 1.688868 g / cm^3
# Si number density = 16.927202 Si / 1000 Ang^3
#
#
#
# Elastic Constant Matrix: (Units=GPa)
#
#
# Indices 1 2 3 4 5 6 
#
# 1 55.9137 30.2834 26.5602 0.0000 0.0000 0.0000
# 2 30.2834 55.9137 26.5602 0.0000 0.0000 0.0000
# 3 26.5602 26.5602 103.0654 0.0000 0.0000 0.0000
# 4 0.0000 0.0000 0.0000 6.1901 0.0000 0.0000
# 5 0.0000 0.0000 0.0000 0.0000 6.1901 0.0000
# 6 0.0000 0.0000 0.0000 0.0000 0.0000 25.0702
#
#
#
# Elastic Compliance Matrix: (Units=1/GPa)
#
#
# Indices 1 2 3 4 5 6 
#
# 1 0.026404 -0.012612 -0.003554 0.000000 0.000000 0.000000
# 2 -0.012612 0.026404 -0.003554 0.000000 0.000000 0.000000
# 3 -0.003554 -0.003554 0.011534 0.000000 0.000000 0.000000
# 4 0.000000 0.000000 0.000000 0.161548 0.000000 0.000000
# 5 0.000000 0.000000 0.000000 0.000000 0.161548 0.000000
# 6 0.000000 0.000000 0.000000 0.000000 0.000000 0.039888
#
#
# Mechanical properties :
#
#
# Convention : Reuss Voigt Hill
#
# Bulk Modulus (GPa) = 40.15887 42.41114 41.28500
# Shear Modulus (GPa) = 10.52481 16.25602 13.39041
#
# Velocity S-wave (km/s) = 2.49623 3.10231 2.81563
# Velocity P-wave (km/s) = 5.66429 6.15970 5.91718
#
# Compressibility (1/GPa) = 0.02490110
#
# Stress axis : x y z
#
# Youngs Moduli (GPa) = 37.87304 37.87304 86.69728
#
# Poissons Ratio (x) = 0.47767 0.30813
# Poissons Ratio (y) = 0.47767 0.30813
# Poissons Ratio (z) = 0.13461 0.13461
#
# Static dielectric constant tensor:
#      x y z
#    x 1.584200 0.000000 0.000000 
#    y 0.000000 1.584200 0.000000 
#    z 0.000000 0.000000 1.626750 
# 
# From -- ./inp_files/10860.got.cif
#   From: 2010.05.17/outbox.cif.g08.bks.cpg/sg140_6_cif.got.tgz:10860.got - 2010.06.21 00:45:31.
