data_PCOD9572715
_publ_section_title
;
Structure prediction by ZEFSAII (Michael W. Deem and Ramdas Pophale) SiO2 
 PCOD9572715
Probable space group: I 4/M C M
;
_chemical_formula_sum "Si O2"
_cell_formula_units_Z 88
_cell_length_a 18.000000
_cell_length_b 18.000000
_cell_length_c 27.000000
_cell_angle_alpha 90.000000
_cell_angle_beta 90.000000
_cell_angle_gamma 90.000000
_cell_volume 8748.000000
_symmetry_space_group_name_H-M "I 4/M C M"
_symmetry_group_IT_number 140
_symmetry_cell_setting 'tetragonal'
loop_
_space_group_symop_operation_xyz
x,y,z
-y,x,z
-x,-y,z
y,-x,z
x,-y,1/2-z
-x,y,1/2-z
y,x,1/2-z
-y,-x,1/2-z
-x,-y,-z
y,-x,-z
x,y,-z
-y,x,-z
-x,y,1/2+z
x,-y,1/2+z
-y,-x,1/2+z
y,x,1/2+z
1/2+x,1/2+y,1/2+z
1/2-y,1/2+x,1/2+z
1/2-x,1/2-y,1/2+z
1/2+y,1/2-x,1/2+z
1/2+x,1/2-y,-z
1/2-x,1/2+y,-z
1/2+y,1/2+x,-z
1/2-y,1/2-x,-z
1/2-x,1/2-y,1/2-z
1/2+y,1/2-x,1/2-z
1/2+x,1/2+y,1/2-z
1/2-y,1/2+x,1/2-z
1/2-x,1/2+y,z
1/2+x,1/2-y,z
1/2-y,1/2-x,z
1/2+y,1/2+x,z
loop_
_atom_site_type_symbol
_atom_site_label
_atom_site_fract_x
_atom_site_fract_y
_atom_site_fract_z
Si Si1 0.927967 0.794929 0.441411
Si Si2 0.999441 0.381935 0.189654
Si Si3 0.670549 0.170549 0.442652
Si Si4 0.270762 0.455970 0.202608
Si Si5 0.914151 0.184077 0.600709
Si Si6 0.795623 0.704378 0.788643
Si Si7 0.213657 0.286343 0.097635
O O1 0.912911 0.798279 0.500000
O O2 0.901476 0.713380 0.422980
O O3 0.878400 0.856635 0.414914
O O4 0.012223 0.813586 0.430776
O O5 0.929331 0.429331 0.172606
O O6 0.000000 0.384732 0.250000
O O7 0.073165 0.426836 0.172989
O O8 0.997124 0.295736 0.177650
O O9 0.655020 0.155020 0.500000
O O10 0.734310 0.234310 0.435781
O O11 0.300254 0.500000 0.250000
O O12 0.324881 0.434068 0.158603
O O13 0.226817 0.381207 0.218467
O O14 0.870679 0.261712 0.591748
O O15 0.750000 0.750000 0.750000
O O16 0.772028 0.727973 0.844004
#
# Coordination Sequence:
#
# PCOD9572715 Si02
#       7
#    32  32  16  32  32  16  16
#     4  10  20  38  62  87 111 145 189 243 302 355
#     4   8  13  24  44  68 102 145 186 232 280 322
#     4   8  16  32  56  83 111 140 179 229 294 359
#     4  10  20  32  49  78 113 152 197 234 279 334
#     4  10  21  37  58  85 118 148 191 245 291 348
#     4  10  20  34  51  71 105 154 201 239 269 324
#     4   8  18  36  56  80 113 148 185 240 287 337
#
# _framework density 10.059442000000001
#
# number of rings (size 3 to 8) (size 9 to 14) (size 15 to 20)
#    0.000    2.727    0.909    1.091    1.273    5.455 
#    1.636    0.909    0.000    0.545    0.000    3.182 
#    0.000    0.000    0.000    0.000    0.000    0.000 
#
# Total GULP energy -489992.330185 kJ/mol
# GULP energy per Si atom -5568.094661 kJ/mol
# Density = 1.003655 g / cm^3
# Si number density = 10.059442 Si / 1000 Ang^3
#
#
#
# Elastic Constant Matrix: (Units=GPa)
#
#
# Indices 1 2 3 4 5 6 
#
# 1 47.5741 14.9105 29.7166 0.0000 0.0000 0.0000
# 2 14.9105 47.5741 29.7166 0.0000 0.0000 0.0000
# 3 29.7166 29.7166 66.7141 0.0000 0.0000 0.0000
# 4 0.0000 0.0000 0.0000 15.2839 0.0000 0.0000
# 5 0.0000 0.0000 0.0000 0.0000 15.2839 0.0000
# 6 0.0000 0.0000 0.0000 0.0000 0.0000 12.1353
#
#
#
# Elastic Compliance Matrix: (Units=1/GPa)
#
#
# Indices 1 2 3 4 5 6 
#
# 1 0.029192 -0.001423 -0.012369 0.000000 0.000000 0.000000
# 2 -0.001423 0.029192 -0.012369 0.000000 0.000000 0.000000
# 3 -0.012369 -0.012369 0.026009 0.000000 0.000000 0.000000
# 4 0.000000 0.000000 0.000000 0.065428 0.000000 0.000000
# 5 0.000000 0.000000 0.000000 0.000000 0.065428 0.000000
# 6 0.000000 0.000000 0.000000 0.000000 0.000000 0.082404
#
#
# Mechanical properties :
#
#
# Convention : Reuss Voigt Hill
#
# Bulk Modulus (GPa) = 31.18184 34.50549 32.84366
# Shear Modulus (GPa) = 13.86322 14.37521 14.11922
#
# Velocity S-wave (km/s) = 2.62785 2.67594 2.65200
# Velocity P-wave (km/s) = 4.97392 5.17064 5.07324
#
# Compressibility (1/GPa) = 0.03206995
#
# Stress axis : x y z
#
# Youngs Moduli (GPa) = 34.25579 34.25579 38.44874
#
# Poissons Ratio (x) = 0.04874 0.47558
# Poissons Ratio (y) = 0.04874 0.47558
# Poissons Ratio (z) = 0.42372 0.42372
#
# Static dielectric constant tensor:
#      x y z
#    x 1.777190 0.000000 0.000000 
#    y 0.000000 1.777190 0.000000 
#    z 0.000000 0.000000 1.732410 
# 
# From -- ./inp_files/10747.got.cif
#   From: 2010.05.17/outbox.ucp.g08.bks.cvg/sg140_6_cif.got.tgz:10747.got - 2010.06.11 11:42:50.
