data_PCOD9572256
_publ_section_title
;
Structure prediction by ZEFSAII (Michael W. Deem and Ramdas Pophale) SiO2 
 PCOD9572256
Probable space group: I 4/M C M
;
_chemical_formula_sum "Si O2"
_cell_formula_units_Z 208
_cell_length_a 21.487961
_cell_length_b 21.487961
_cell_length_c 26.719552
_cell_angle_alpha 90.000000
_cell_angle_beta 90.000000
_cell_angle_gamma 90.000000
_cell_volume 12337.284687
_symmetry_space_group_name_H-M "I 4/M C M"
_symmetry_group_IT_number 140
_symmetry_cell_setting 'tetragonal'
loop_
_space_group_symop_operation_xyz
x,y,z
-y,x,z
-x,-y,z
y,-x,z
x,-y,1/2-z
-x,y,1/2-z
y,x,1/2-z
-y,-x,1/2-z
-x,-y,-z
y,-x,-z
x,y,-z
-y,x,-z
-x,y,1/2+z
x,-y,1/2+z
-y,-x,1/2+z
y,x,1/2+z
1/2+x,1/2+y,1/2+z
1/2-y,1/2+x,1/2+z
1/2-x,1/2-y,1/2+z
1/2+y,1/2-x,1/2+z
1/2+x,1/2-y,-z
1/2-x,1/2+y,-z
1/2+y,1/2+x,-z
1/2-y,1/2-x,-z
1/2-x,1/2-y,1/2-z
1/2+y,1/2-x,1/2-z
1/2+x,1/2+y,1/2-z
1/2-y,1/2+x,1/2-z
1/2-x,1/2+y,z
1/2+x,1/2-y,z
1/2-y,1/2-x,z
1/2+y,1/2+x,z
loop_
_atom_site_type_symbol
_atom_site_label
_atom_site_fract_x
_atom_site_fract_y
_atom_site_fract_z
Si Si1 0.313621 0.356663 0.845350
Si Si2 0.725577 0.774424 0.804043
Si Si3 0.275736 0.949223 0.787467
Si Si4 0.765957 0.628826 0.056818
Si Si5 0.044641 0.352151 0.115764
Si Si6 0.574651 0.429525 0.190243
Si Si7 0.449155 0.050846 0.137670
Si Si8 0.624559 0.124559 0.722961
O O1 0.302215 0.285368 0.831745
O O2 0.272691 0.397378 0.805897
O O3 0.285971 0.368739 0.900362
O O4 0.383716 0.379368 0.838274
O O5 0.750000 0.750000 0.750000
O O6 0.673185 0.826816 0.800526
O O7 0.306939 0.973863 0.838535
O O8 0.332881 0.919815 0.756835
O O9 0.246828 0.000000 0.750000
O O10 0.810107 0.689894 0.061593
O O11 0.810721 0.570805 0.070842
O O12 0.743439 0.625016 0.000000
O O13 0.103603 0.396398 0.131160
O O14 0.987934 0.398537 0.106590
O O15 0.585157 0.502215 0.178826
O O16 0.580599 0.419402 0.250000
O O17 0.414899 0.085102 0.183336
O O18 0.500000 0.000000 0.156452
#
# Coordination Sequence:
#
# PCOD9572256 Si02
#       8
#    32  16  32  32  32  32  16  16
#     4  11  21  35  55  81 110 145 185 225 281 327
#     4  12  22  34  49  76 119 147 171 223 267 337
#     4  11  20  28  44  72 108 148 188 223 264 333
#     4   9  18  35  58  79 104 139 187 241 284 324
#     4   9  17  30  46  70 103 140 187 233 272 313
#     4   9  20  37  56  81 115 150 185 219 261 329
#     4  10  20  34  47  70 109 151 190 230 267 321
#     4  12  22  32  44  71 111 157 186 216 270 327
#
# _framework density 16.859463000000002
#
# number of rings (size 3 to 8) (size 9 to 14) (size 15 to 20)
#    0.000    1.846    4.615    0.923    2.154    0.000 
#    1.385    0.385    0.000    3.231    0.000    2.154 
#    0.000    0.000    0.000    0.000    0.000    0.000 
#
# Total GULP energy -580122.568952 kJ/mol
# GULP energy per Si atom -5578.101625 kJ/mol
# Density = 1.682109 g / cm^3
# Si number density = 16.859463 Si / 1000 Ang^3
#
#
#
# Elastic Constant Matrix: (Units=GPa)
#
#
# Indices 1 2 3 4 5 6 
#
# 1 71.0392 41.3315 33.5438 0.0000 0.0000 0.0000
# 2 41.3315 71.0390 33.5441 0.0000 0.0000 0.0000
# 3 33.5438 33.5441 80.4979 0.0000 0.0000 0.0000
# 4 0.0000 0.0000 0.0000 12.1685 0.0000 0.0000
# 5 0.0000 0.0000 0.0000 0.0000 12.1686 0.0000
# 6 0.0000 0.0000 0.0000 0.0000 0.0000 27.7326
#
#
#
# Elastic Compliance Matrix: (Units=1/GPa)
#
#
# Indices 1 2 3 4 5 6 
#
# 1 0.022754 -0.010908 -0.004936 0.000000 0.000000 0.000000
# 2 -0.010908 0.022754 -0.004937 0.000000 0.000000 0.000000
# 3 -0.004936 -0.004937 0.016537 0.000000 0.000000 0.000000
# 4 0.000000 0.000000 0.000000 0.082180 0.000000 0.000000
# 5 0.000000 0.000000 0.000000 0.000000 0.082179 0.000000
# 6 0.000000 0.000000 0.000000 0.000000 0.000000 0.036059
#
#
# Mechanical properties :
#
#
# Convention : Reuss Voigt Hill
#
# Bulk Modulus (GPa) = 48.81942 48.82388 48.82165
# Shear Modulus (GPa) = 16.08493 18.02439 17.05466
#
# Velocity S-wave (km/s) = 3.09214 3.27325 3.18398
# Velocity P-wave (km/s) = 6.46281 6.58086 6.52211
#
# Compressibility (1/GPa) = 0.02048365
#
# Stress axis : x y z
#
# Youngs Moduli (GPa) = 43.94877 43.94836 60.47138
#
# Poissons Ratio (x) = 0.47937 0.29850
# Poissons Ratio (y) = 0.47937 0.29852
# Poissons Ratio (z) = 0.21694 0.21695
#
# Static dielectric constant tensor:
#      x y z
#    x 1.591660 0.000000 0.000000 
#    y 0.000000 1.591660 0.000000 
#    z 0.000000 0.000000 1.541090 
# 
# From -- ./inp_files/11772.got.cif
#   From: 2010.05.17/outbox.cif.g08.bks.cpg/sg140_6_cif.got.tgz:11772.got - 2010.06.21 00:45:31.
