data_PCOD9572595
_publ_section_title
;
Structure prediction by ZEFSAII (Michael W. Deem and Ramdas Pophale) SiO2 
 PCOD9572595
Probable space group: I 4/M C M
;
_chemical_formula_sum "Si O2"
_cell_formula_units_Z 100
_cell_length_a 15.249228
_cell_length_b 15.249228
_cell_length_c 22.209778
_cell_angle_alpha 90.000000
_cell_angle_beta 90.000000
_cell_angle_gamma 90.000000
_cell_volume 5164.638558
_symmetry_space_group_name_H-M "I 4/M C M"
_symmetry_group_IT_number 140
_symmetry_cell_setting 'tetragonal'
loop_
_space_group_symop_operation_xyz
x,y,z
-y,x,z
-x,-y,z
y,-x,z
x,-y,1/2-z
-x,y,1/2-z
y,x,1/2-z
-y,-x,1/2-z
-x,-y,-z
y,-x,-z
x,y,-z
-y,x,-z
-x,y,1/2+z
x,-y,1/2+z
-y,-x,1/2+z
y,x,1/2+z
1/2+x,1/2+y,1/2+z
1/2-y,1/2+x,1/2+z
1/2-x,1/2-y,1/2+z
1/2+y,1/2-x,1/2+z
1/2+x,1/2-y,-z
1/2-x,1/2+y,-z
1/2+y,1/2+x,-z
1/2-y,1/2-x,-z
1/2-x,1/2-y,1/2-z
1/2+y,1/2-x,1/2-z
1/2+x,1/2+y,1/2-z
1/2-y,1/2+x,1/2-z
1/2-x,1/2+y,z
1/2+x,1/2-y,z
1/2-y,1/2-x,z
1/2+y,1/2+x,z
loop_
_atom_site_type_symbol
_atom_site_label
_atom_site_fract_x
_atom_site_fract_y
_atom_site_fract_z
Si Si1 0.500000 0.000000 0.000000
Si Si2 0.608992 0.397514 0.000000
Si Si3 0.432834 0.067167 0.124371
Si Si4 0.511750 0.750719 0.820746
Si Si5 0.669685 0.679601 0.373260
O O1 0.447184 0.052817 0.946397
O O2 0.619936 0.503515 0.000000
O O3 0.652368 0.354638 0.059006
O O4 0.458162 0.162657 0.144884
O O5 0.500000 0.000000 0.155391
O O6 0.500000 0.765388 0.750000
O O7 0.419846 0.721859 0.849140
O O8 0.592975 0.686164 0.833241
O O9 0.749817 0.750184 0.370219
#
# Coordination Sequence:
#
# PCOD9572595 Si02
#       5
#     4  16  16  32  32
#     4   8  24  44  70 104 140 180 244 296 358 428
#     4  11  23  46  74 100 139 183 248 292 369 437
#     4  10  24  45  70 101 142 187 235 299 355 417
#     4  12  27  45  72 106 147 190 241 290 356 432
#     4  12  26  47  72 107 142 193 236 304 358 428
#
# _framework density 19.362438000000001
#
# number of rings (size 3 to 8) (size 9 to 14) (size 15 to 20)
#    0.480    0.160    4.800    2.400    4.480    4.480 
#    0.000    1.600    0.000    0.000    0.000    0.000 
#    0.000    0.000    0.000    0.000    0.000    0.000 
#
# Total GULP energy -278795.438884 kJ/mol
# GULP energy per Si atom -5575.908778 kJ/mol
# Density = 1.931837 g / cm^3
# Si number density = 19.362438 Si / 1000 Ang^3
#
#
#
# Elastic Constant Matrix: (Units=GPa)
#
#
# Indices 1 2 3 4 5 6 
#
# 1 106.4672 48.2451 46.7069 0.0000 0.0000 0.0000
# 2 48.2451 106.4672 46.7069 0.0000 0.0000 0.0000
# 3 46.7069 46.7069 177.0932 0.0000 0.0000 0.0000
# 4 0.0000 0.0000 0.0000 99.5793 0.0000 0.0000
# 5 0.0000 0.0000 0.0000 0.0000 99.5793 0.0000
# 6 0.0000 0.0000 0.0000 0.0000 0.0000 49.4677
#
#
#
# Elastic Compliance Matrix: (Units=1/GPa)
#
#
# Indices 1 2 3 4 5 6 
#
# 1 0.012432 -0.004744 -0.002028 0.000000 0.000000 0.000000
# 2 -0.004744 0.012432 -0.002028 0.000000 0.000000 0.000000
# 3 -0.002028 -0.002028 0.006716 0.000000 0.000000 0.000000
# 4 0.000000 0.000000 0.000000 0.010042 0.000000 0.000000
# 5 0.000000 0.000000 0.000000 0.000000 0.010042 0.000000
# 6 0.000000 0.000000 0.000000 0.000000 0.000000 0.020215
#
#
# Mechanical properties :
#
#
# Convention : Reuss Voigt Hill
#
# Bulk Modulus (GPa) = 71.52281 74.81616 73.16949
# Shear Modulus (GPa) = 53.11341 66.28317 59.69829
#
# Velocity S-wave (km/s) = 5.24316 5.85723 5.55868
# Velocity P-wave (km/s) = 8.58332 9.19057 8.89213
#
# Compressibility (1/GPa) = 0.01398155
#
# Stress axis : x y z
#
# Youngs Moduli (GPa) = 80.43928 80.43928 148.89210
#
# Poissons Ratio (x) = 0.38159 0.30189
# Poissons Ratio (y) = 0.38159 0.30189
# Poissons Ratio (z) = 0.16310 0.16310
#
# Static dielectric constant tensor:
#      x y z
#    x 1.719960 0.000000 0.000000 
#    y 0.000000 1.719960 0.000000 
#    z 0.000000 0.000000 1.640870 
# 
# From -- ./inp_files/8988.got.cif
#   From: 2010.05.17/outbox.cif.g08.bks.cpg/sg140_5_cif.got.tgz:8988.got - 2010.06.21 00:45:31.
