data_PCOD9572935
_publ_section_title
;
Structure prediction by ZEFSAII (Michael W. Deem and Ramdas Pophale) SiO2 
 PCOD9572935
Probable space group: I 41/A M D
;
_chemical_formula_sum "Si O2"
_cell_formula_units_Z 160
_cell_length_a 17.459586
_cell_length_b 17.459586
_cell_length_c 26.260844
_cell_angle_alpha 90.000000
_cell_angle_beta 90.000000
_cell_angle_gamma 90.000000
_cell_volume 8005.280665
_symmetry_space_group_name_H-M "I 41/A M D"
_symmetry_group_IT_number 141
_space_group.IT_coordinate_system_code '2'
_symmetry_cell_setting 'tetragonal'
loop_
_space_group_symop_operation_xyz
x,y,z
1/4-y,3/4+x,1/4+z
-x,1/2-y,z
1/4+y,1/4-x,3/4+z
x,-y,-z
-x,1/2+y,-z
1/4+y,3/4+x,1/4-z
1/4-y,1/4-x,3/4-z
-x,-y,-z
3/4+y,1/4-x,3/4-z
x,1/2+y,-z
3/4-y,3/4+x,1/4-z
-x,y,z
x,1/2-y,z
3/4-y,1/4-x,3/4+z
3/4+y,3/4+x,1/4+z
1/2+x,1/2+y,1/2+z
3/4-y,1/4+x,3/4+z
1/2-x,-y,1/2+z
3/4+y,3/4-x,1/4+z
1/2+x,1/2-y,1/2-z
1/2-x,y,1/2-z
3/4+y,1/4+x,3/4-z
3/4-y,3/4-x,1/4-z
1/2-x,1/2-y,1/2-z
1/4+y,3/4-x,1/4-z
1/2+x,y,1/2-z
1/4-y,1/4+x,3/4-z
1/2-x,1/2+y,1/2+z
1/2+x,-y,1/2+z
1/4-y,3/4-x,1/4+z
1/4+y,1/4+x,3/4+z
loop_
_atom_site_type_symbol
_atom_site_label
_atom_site_fract_x
_atom_site_fract_y
_atom_site_fract_z
Si Si1 0.093478 0.339085 0.818233
Si Si2 0.406787 0.922189 0.217245
Si Si3 0.161206 0.659442 0.574627
Si Si4 0.093621 0.163731 0.617020
Si Si5 0.590812 0.581689 0.017243
O O1 0.116439 0.250000 0.810220
O O2 0.115469 0.365469 0.875000
O O3 0.120110 0.392873 0.772137
O O4 0.000000 0.338872 0.818227
O O5 0.500000 0.921824 0.219354
O O6 0.383014 0.864521 0.172497
O O7 0.385634 0.006371 0.197782
O O8 0.162971 0.750000 0.586640
O O9 0.135642 0.614358 0.625000
O O10 0.104464 0.641406 0.528055
O O11 0.118555 0.250000 0.607161
O O12 0.121783 0.110763 0.571081
O O13 0.000000 0.162646 0.616436
O O14 0.500000 0.572238 0.024527
O O15 0.622887 0.500000 0.000000
#
# Coordination Sequence:
#
# PCOD9572935 Si02
#       5
#    32  32  32  32  32
#     4   8  13  23  44  76 110 140 171 210 255 302
#     4   9  17  29  46  72 105 138 171 209 256 308
#     4  11  22  34  50  74 104 137 173 215 265 319
#     4   9  16  27  46  71  98 130 170 214 257 303
#     4  10  20  34  51  71  97 130 170 218 270 321
#
# _framework density 19.986806000000001
#
# number of rings (size 3 to 8) (size 9 to 14) (size 15 to 20)
#    0.000    2.600    0.000    3.600    0.000    7.800 
#    0.000    0.000    0.000    3.600    0.000    0.000 
#    0.000    9.600    0.000    0.000    0.000    0.400 
#
# Total GULP energy -446091.691952 kJ/mol
# GULP energy per Si atom -5576.146149 kJ/mol
# Density = 1.994131 g / cm^3
# Si number density = 19.986806 Si / 1000 Ang^3
#
#
#
# Elastic Constant Matrix: (Units=GPa)
#
#
# Indices 1 2 3 4 5 6 
#
# 1 28.5272 41.9907 47.8007 0.0000 0.0000 0.0000
# 2 41.9907 28.5272 47.8007 0.0000 0.0000 0.0000
# 3 47.8007 47.8007 201.4402 0.0000 0.0000 0.0000
# 4 0.0000 0.0000 0.0000 136.9512 0.0000 0.0000
# 5 0.0000 0.0000 0.0000 0.0000 136.9512 0.0000
# 6 0.0000 0.0000 0.0000 0.0000 0.0000 4.9365
#
#
#
# Elastic Compliance Matrix: (Units=1/GPa)
#
#
# Indices 1 2 3 4 5 6 
#
# 1 -0.026684 0.047591 -0.004961 0.000000 0.000000 0.000000
# 2 0.047591 -0.026684 -0.004961 0.000000 0.000000 0.000000
# 3 -0.004961 -0.004961 0.007319 0.000000 0.000000 0.000000
# 4 0.000000 0.000000 0.000000 0.007302 0.000000 0.000000
# 5 0.000000 0.000000 0.000000 0.000000 0.007302 0.000000
# 6 0.000000 0.000000 0.000000 0.000000 0.000000 0.202572
#
#
# Mechanical properties :
#
#
# Convention : Reuss Voigt Hill
#
# Bulk Modulus (GPa) = 34.14411 59.29764 46.72088
# Shear Modulus (GPa) = 47.37048 63.82796 55.59922
#
# Velocity S-wave (km/s) = 4.87364 5.65724 5.28000
# Velocity P-wave (km/s) = 6.98500 8.50913 7.78446
#
# Compressibility (1/GPa) = 0.02928763
#
# Stress axis : x y z
#
# Youngs Moduli (GPa) = -37.47524 -37.47524 136.63652
#
# Poissons Ratio (x) = 1.78347 0.67785
# Poissons Ratio (y) = 1.78347 0.67785
# Poissons Ratio (z) = -0.18591 -0.18591
#
# Static dielectric constant tensor:
#      x y z
#    x 1.732890 0.000000 0.000000 
#    y 0.000000 1.732890 0.000000 
#    z 0.000000 0.000000 1.704320 
# 
# From -- ./inp_files/12753.got.cif
#   From: 2010.05.17/outbox.cif.g08.bks.cpg/sg141_7_cif.got.tgz:12753.got - 2010.05.20 13:30:51.
