data_PCOD9572122
_publ_section_title
;
Structure prediction by ZEFSAII (Michael W. Deem and Ramdas Pophale) SiO2 
 PCOD9572122
Probable space group: I 4/M C M
;
_chemical_formula_sum "Si O2"
_cell_formula_units_Z 160
_cell_length_a 32.924785
_cell_length_b 32.924785
_cell_length_c 8.697267
_cell_angle_alpha 90.000000
_cell_angle_beta 90.000000
_cell_angle_gamma 90.000000
_cell_volume 9428.198080
_symmetry_space_group_name_H-M "I 4/M C M"
_symmetry_group_IT_number 140
_symmetry_cell_setting 'tetragonal'
loop_
_space_group_symop_operation_xyz
x,y,z
-y,x,z
-x,-y,z
y,-x,z
x,-y,1/2-z
-x,y,1/2-z
y,x,1/2-z
-y,-x,1/2-z
-x,-y,-z
y,-x,-z
x,y,-z
-y,x,-z
-x,y,1/2+z
x,-y,1/2+z
-y,-x,1/2+z
y,x,1/2+z
1/2+x,1/2+y,1/2+z
1/2-y,1/2+x,1/2+z
1/2-x,1/2-y,1/2+z
1/2+y,1/2-x,1/2+z
1/2+x,1/2-y,-z
1/2-x,1/2+y,-z
1/2+y,1/2+x,-z
1/2-y,1/2-x,-z
1/2-x,1/2-y,1/2-z
1/2+y,1/2-x,1/2-z
1/2+x,1/2+y,1/2-z
1/2-y,1/2+x,1/2-z
1/2-x,1/2+y,z
1/2+x,1/2-y,z
1/2-y,1/2-x,z
1/2+y,1/2+x,z
loop_
_atom_site_type_symbol
_atom_site_label
_atom_site_fract_x
_atom_site_fract_y
_atom_site_fract_z
Si Si1 0.829108 0.454963 0.185777
Si Si2 0.168402 0.331598 0.817743
Si Si3 0.892367 0.044985 0.684209
Si Si4 0.105696 0.605696 0.181632
Si Si5 0.263975 0.108985 0.316934
Si Si6 0.611615 0.674171 0.183923
O O1 0.824373 0.500000 0.250000
O O2 0.872275 0.435089 0.239510
O O3 0.793317 0.425564 0.246404
O O4 0.828116 0.455137 0.000000
O O5 0.139700 0.360301 0.716362
O O6 0.152423 0.286344 0.788239
O O7 0.160285 0.339716 0.000000
O O8 0.931365 0.068636 0.750000
O O9 0.894918 0.043692 0.500000
O O10 0.853430 0.072631 0.727470
O O11 0.889214 0.000000 0.750000
O O12 0.100359 0.600359 0.000000
O O13 0.261925 0.102989 0.500000
O O14 0.219405 0.107932 0.247108
O O15 0.650606 0.650606 0.250000
O O16 0.614151 0.674936 0.000000
#
# Coordination Sequence:
#
# PCOD9572122 Si02
#       6
#    32  16  32  16  32  32
#     4  10  19  32  50  75 103 132 168 210 255 303
#     4   8  16  30  49  73  99 129 167 207 251 299
#     4  10  21  37  57  79 104 132 166 205 247 294
#     4   8  16  30  48  68  96 132 167 205 251 301
#     4  10  19  33  53  76 103 134 168 210 255 302
#     4  10  21  37  55  76 103 137 173 209 251 302
#
# _framework density 16.970369000000002
#
# number of rings (size 3 to 8) (size 9 to 14) (size 15 to 20)
#    0.000    2.400    0.000    2.400    0.000    5.000 
#    0.000    3.500    0.000    0.300    0.000    2.100 
#    0.000    0.000    0.000    0.000    0.000    0.000 
#
# Total GULP energy -445836.075599 kJ/mol
# GULP energy per Si atom -5572.950945 kJ/mol
# Density = 1.693174 g / cm^3
# Si number density = 16.970369 Si / 1000 Ang^3
#
#
#
# Elastic Constant Matrix: (Units=GPa)
#
#
# Indices 1 2 3 4 5 6 
#
# 1 88.9413 125.2251 42.6136 0.0000 0.0000 0.0000
# 2 125.2251 88.9704 42.6251 0.0000 0.0000 0.0000
# 3 42.6136 42.6251 50.9332 0.0000 0.0000 0.0000
# 4 0.0000 0.0000 0.0000 23.9729 0.0000 0.0000
# 5 0.0000 0.0000 0.0000 0.0000 23.9728 0.0000
# 6 0.0000 0.0000 0.0000 0.0000 0.0000 11.0775
#
#
#
# Elastic Compliance Matrix: (Units=1/GPa)
#
#
# Indices 1 2 3 4 5 6 
#
# 1 -0.010287 0.017286 -0.005860 0.000000 0.000000 0.000000
# 2 0.017286 -0.010285 -0.005855 0.000000 0.000000 0.000000
# 3 -0.005860 -0.005855 0.029436 0.000000 0.000000 0.000000
# 4 0.000000 0.000000 0.000000 0.041714 0.000000 0.000000
# 5 0.000000 0.000000 0.000000 0.000000 0.041714 0.000000
# 6 0.000000 0.000000 0.000000 0.000000 0.000000 0.090273
#
#
# Mechanical properties :
#
#
# Convention : Reuss Voigt Hill
#
# Bulk Modulus (GPa) = 49.98358 72.19695 61.09026
# Shear Modulus (GPa) = 28.07527 13.03004 20.55266
#
# Velocity S-wave (km/s) = 4.07181 2.77395 3.48385
# Velocity P-wave (km/s) = 7.18495 7.27290 7.22906
#
# Compressibility (1/GPa) = 0.02000657
#
# Stress axis : x y z
#
# Youngs Moduli (GPa) = -97.21269 -97.23086 33.97177
#
# Poissons Ratio (x) = 1.68072 0.19907
# Poissons Ratio (y) = 1.68040 0.19891
# Poissons Ratio (z) = -0.56964 -0.56930
#
# Static dielectric constant tensor:
#      x y z
#    x 1.565220 0.000000 0.000000 
#    y 0.000000 1.565220 0.000000 
#    z 0.000000 0.000000 1.580480 
# 
# From -- ./inp_files/1831.got.cif
#   From: 2010.05.17/outbox.cif.g08.bks.cpg/sg140_1_cif.got.tgz:1831.got - 2010.06.21 00:45:31.
