data_PCOD9572322
_publ_section_title
;
Structure prediction by ZEFSAII (Michael W. Deem and Ramdas Pophale) SiO2 
 PCOD9572322
Probable space group: I 4/M C M
;
_chemical_formula_sum "Si O2"
_cell_formula_units_Z 112
_cell_length_a 18.141539
_cell_length_b 18.141539
_cell_length_c 19.311954
_cell_angle_alpha 90.000000
_cell_angle_beta 90.000000
_cell_angle_gamma 90.000000
_cell_volume 6355.862186
_symmetry_space_group_name_H-M "I 4/M C M"
_symmetry_group_IT_number 140
_symmetry_cell_setting 'tetragonal'
loop_
_space_group_symop_operation_xyz
x,y,z
-y,x,z
-x,-y,z
y,-x,z
x,-y,1/2-z
-x,y,1/2-z
y,x,1/2-z
-y,-x,1/2-z
-x,-y,-z
y,-x,-z
x,y,-z
-y,x,-z
-x,y,1/2+z
x,-y,1/2+z
-y,-x,1/2+z
y,x,1/2+z
1/2+x,1/2+y,1/2+z
1/2-y,1/2+x,1/2+z
1/2-x,1/2-y,1/2+z
1/2+y,1/2-x,1/2+z
1/2+x,1/2-y,-z
1/2-x,1/2+y,-z
1/2+y,1/2+x,-z
1/2-y,1/2-x,-z
1/2-x,1/2-y,1/2-z
1/2+y,1/2-x,1/2-z
1/2+x,1/2+y,1/2-z
1/2-y,1/2+x,1/2-z
1/2-x,1/2+y,z
1/2+x,1/2-y,z
1/2-y,1/2-x,z
1/2+y,1/2+x,z
loop_
_atom_site_type_symbol
_atom_site_label
_atom_site_fract_x
_atom_site_fract_y
_atom_site_fract_z
Si Si1 0.231347 0.268654 0.857519
Si Si2 0.412900 0.412900 0.750000
Si Si3 0.000000 0.285722 0.750000
Si Si4 0.121186 0.024006 0.500000
Si Si5 0.660692 0.839309 0.783261
Si Si6 0.586030 0.693596 0.633098
O O1 0.293449 0.206552 0.841458
O O2 0.197493 0.302508 0.785675
O O3 0.264989 0.340973 0.892709
O O4 0.500000 0.401648 0.750000
O O5 0.383999 0.373471 0.681416
O O6 0.072645 0.326181 0.719483
O O7 0.036491 0.240156 0.813256
O O8 0.166272 0.037960 0.430415
O O9 0.055301 0.083526 0.500000
#
# Coordination Sequence:
#
# PCOD9572322 Si02
#       6
#    16  16  16  16  16  32
#     4   9  20  33  56  82 111 146 191 236 264 352
#     4  11  20  29  52  80 102 145 192 215 268 352
#     4  10  20  35  61  84 110 154 188 240 282 343
#     4  11  26  39  52  82 120 146 185 246 287 340
#     4   9  18  33  54  90 113 136 194 238 283 320
#     4  11  21  38  57  79 113 150 191 231 290 335
#
# _framework density 17.621528000000001
#
# number of rings (size 3 to 8) (size 9 to 14) (size 15 to 20)
#    0.000    1.714    1.429    5.143    4.000    3.143 
#    0.000    0.000    0.000    0.857    0.000    0.000 
#    0.000    6.857    0.000    0.000    0.000    0.000 
#
# Total GULP energy -312118.886438 kJ/mol
# GULP energy per Si atom -5573.551544 kJ/mol
# Density = 1.758142 g / cm^3
# Si number density = 17.621528 Si / 1000 Ang^3
#
#
#
# Elastic Constant Matrix: (Units=GPa)
#
#
# Indices 1 2 3 4 5 6 
#
# 1 106.1137 61.6014 20.7417 0.0000 0.0000 0.0000
# 2 61.6014 106.1137 20.7417 0.0000 0.0000 0.0000
# 3 20.7417 20.7417 71.2971 0.0000 0.0000 0.0000
# 4 0.0000 0.0000 0.0000 5.2282 0.0000 0.0000
# 5 0.0000 0.0000 0.0000 0.0000 5.2282 0.0000
# 6 0.0000 0.0000 0.0000 0.0000 0.0000 -11.8618
#
#
#
# Elastic Compliance Matrix: (Units=1/GPa)
#
#
# Indices 1 2 3 4 5 6 
#
# 1 0.014445 -0.008020 -0.001869 0.000000 0.000000 0.000000
# 2 -0.008020 0.014445 -0.001869 0.000000 0.000000 0.000000
# 3 -0.001869 -0.001869 0.015113 0.000000 0.000000 0.000000
# 4 0.000000 0.000000 0.000000 0.191272 0.000000 0.000000
# 5 0.000000 0.000000 0.000000 0.000000 0.191272 0.000000
# 6 0.000000 0.000000 0.000000 0.000000 0.000000 -0.084304
#
#
# Mechanical properties :
#
#
# Convention : Reuss Voigt Hill
#
# Bulk Modulus (GPa) = 48.81256 54.41047 51.61151
# Shear Modulus (GPa) = 13.41960 11.74821 12.58391
#
# Velocity S-wave (km/s) = 2.76261 2.58485 2.67520
# Velocity P-wave (km/s) = 6.15927 6.31291 6.23657
#
# Compressibility (1/GPa) = 0.02048653
#
# Stress axis : x y z
#
# Youngs Moduli (GPa) = 69.22691 69.22691 66.16677
#
# Poissons Ratio (x) = 0.55523 0.12367
# Poissons Ratio (y) = 0.55523 0.12367
# Poissons Ratio (z) = 0.12939 0.12939
#
# Static dielectric constant tensor:
#      x y z
#    x 1.637610 0.000000 0.000000 
#    y 0.000000 1.637610 0.000000 
#    z 0.000000 0.000000 1.594630 
# 
# From -- ./inp_files/7985.got.cif
#   From: 2010.05.17/outbox.cif.g08.bks.cpg/sg140_4_cif.got.tgz:7985.got - 2010.06.21 00:45:31.
