data_PCOD9572492
_publ_section_title
;
Structure prediction by ZEFSAII (Michael W. Deem and Ramdas Pophale) SiO2 
 PCOD9572492
Probable space group: I 4/M C M
;
_chemical_formula_sum "Si O2"
_cell_formula_units_Z 176
_cell_length_a 18.354887
_cell_length_b 18.354887
_cell_length_c 26.820902
_cell_angle_alpha 90.000000
_cell_angle_beta 90.000000
_cell_angle_gamma 90.000000
_cell_volume 9036.012221
_symmetry_space_group_name_H-M "I 4/M C M"
_symmetry_group_IT_number 140
_symmetry_cell_setting 'tetragonal'
loop_
_space_group_symop_operation_xyz
x,y,z
-y,x,z
-x,-y,z
y,-x,z
x,-y,1/2-z
-x,y,1/2-z
y,x,1/2-z
-y,-x,1/2-z
-x,-y,-z
y,-x,-z
x,y,-z
-y,x,-z
-x,y,1/2+z
x,-y,1/2+z
-y,-x,1/2+z
y,x,1/2+z
1/2+x,1/2+y,1/2+z
1/2-y,1/2+x,1/2+z
1/2-x,1/2-y,1/2+z
1/2+y,1/2-x,1/2+z
1/2+x,1/2-y,-z
1/2-x,1/2+y,-z
1/2+y,1/2+x,-z
1/2-y,1/2-x,-z
1/2-x,1/2-y,1/2-z
1/2+y,1/2-x,1/2-z
1/2+x,1/2+y,1/2-z
1/2-y,1/2+x,1/2-z
1/2-x,1/2+y,z
1/2+x,1/2-y,z
1/2-y,1/2-x,z
1/2+y,1/2+x,z
loop_
_atom_site_type_symbol
_atom_site_label
_atom_site_fract_x
_atom_site_fract_y
_atom_site_fract_z
Si Si1 0.390573 0.553468 0.000000
Si Si2 0.530932 0.152766 0.611673
Si Si3 0.729603 0.229603 0.940817
Si Si4 0.297906 0.324879 0.808107
Si Si5 0.323381 0.942192 0.208611
Si Si6 0.389655 0.694548 0.402640
Si Si7 0.385773 0.885773 0.941714
O O1 0.405102 0.467491 0.000000
O O2 0.351773 0.573524 0.052703
O O3 0.596739 0.096739 0.606828
O O4 0.490784 0.144695 0.664410
O O5 0.562030 0.233690 0.605394
O O6 0.467076 0.134810 0.573338
O O7 0.712010 0.310599 0.924764
O O8 0.671803 0.171803 0.918829
O O9 0.726116 0.226116 0.000000
O O10 0.320814 0.320814 0.750000
O O11 0.249203 0.250798 0.817796
O O12 0.242779 0.392917 0.811483
O O13 0.364678 0.332606 0.847122
O O14 0.384928 0.884928 0.227078
O O15 0.299663 0.000000 0.250000
O O16 0.379619 0.879619 0.000000
#
# Coordination Sequence:
#
# PCOD9572492 Si02
#       7
#    16  32  16  32  32  32  16
#     4  11  30  51  72 104 135 174 231 308 372 414
#     4  12  25  41  62 100 140 183 225 273 340 420
#     4  11  22  41  63 101 126 172 242 293 330 409
#     4  10  21  40  64  99 139 180 235 294 337 399
#     4  11  23  39  64  94 138 188 231 277 346 409
#     4  12  24  42  74  97 136 181 232 287 346 420
#     4  11  27  42  65  91 139 179 225 280 346 413
#
# _framework density 19.477619000000001
#
# number of rings (size 3 to 8) (size 9 to 14) (size 15 to 20)
#    0.000    0.818    3.636    3.000    6.364    3.091 
#    0.000    0.000    0.000    0.000    0.000    1.273 
#    0.000    0.000    0.000    0.000    0.000    0.000 
#
# Total GULP energy -491307.749435 kJ/mol
# GULP energy per Si atom -5583.042607 kJ/mol
# Density = 1.943329 g / cm^3
# Si number density = 19.477619 Si / 1000 Ang^3
#
#
#
# Elastic Constant Matrix: (Units=GPa)
#
#
# Indices 1 2 3 4 5 6 
#
# 1 114.9139 14.5437 19.0588 0.0000 0.0000 0.0000
# 2 14.5437 114.9139 19.0588 0.0000 0.0000 0.0000
# 3 19.0588 19.0588 88.7520 0.0000 0.0000 0.0000
# 4 0.0000 0.0000 0.0000 12.3482 0.0000 0.0000
# 5 0.0000 0.0000 0.0000 0.0000 12.3482 0.0000
# 6 0.0000 0.0000 0.0000 0.0000 0.0000 25.1910
#
#
#
# Elastic Compliance Matrix: (Units=1/GPa)
#
#
# Indices 1 2 3 4 5 6 
#
# 1 0.009105 -0.000859 -0.001771 0.000000 0.000000 0.000000
# 2 -0.000859 0.009105 -0.001771 0.000000 0.000000 0.000000
# 3 -0.001771 -0.001771 0.012028 0.000000 0.000000 0.000000
# 4 0.000000 0.000000 0.000000 0.080983 0.000000 0.000000
# 5 0.000000 0.000000 0.000000 0.000000 0.080983 0.000000
# 6 0.000000 0.000000 0.000000 0.000000 0.000000 0.039697
#
#
# Mechanical properties :
#
#
# Convention : Reuss Voigt Hill
#
# Bulk Modulus (GPa) = 46.64897 47.10029 46.87463
# Shear Modulus (GPa) = 20.17384 27.70539 23.93961
#
# Velocity S-wave (km/s) = 3.22179 3.77559 3.50963
# Velocity P-wave (km/s) = 6.15158 6.57579 6.36722
#
# Compressibility (1/GPa) = 0.02143670
#
# Stress axis : x y z
#
# Youngs Moduli (GPa) = 109.83557 109.83557 83.14026
#
# Poissons Ratio (x) = 0.09431 0.14722
# Poissons Ratio (y) = 0.09431 0.14722
# Poissons Ratio (z) = 0.19449 0.19449
#
# Static dielectric constant tensor:
#      x y z
#    x 1.656250 0.000000 0.000000 
#    y 0.000000 1.656250 0.000000 
#    z 0.000000 0.000000 1.748070 
# 
# From -- ./inp_files/10777.got.cif
#   From: 2010.05.17/outbox.cif.g08.bks.cpg/sg140_6_cif.got.tgz:10777.got - 2010.06.21 00:45:31.
