data_PCOD9572572
_publ_section_title
;
Structure prediction by ZEFSAII (Michael W. Deem and Ramdas Pophale) SiO2 
 PCOD9572572
Probable space group: I 4/M C M
;
_chemical_formula_sum "Si O2"
_cell_formula_units_Z 160
_cell_length_a 17.667650
_cell_length_b 17.667650
_cell_length_c 26.623172
_cell_angle_alpha 90.000000
_cell_angle_beta 90.000000
_cell_angle_gamma 90.000000
_cell_volume 8310.312827
_symmetry_space_group_name_H-M "I 4/M C M"
_symmetry_group_IT_number 140
_symmetry_cell_setting 'tetragonal'
loop_
_space_group_symop_operation_xyz
x,y,z
-y,x,z
-x,-y,z
y,-x,z
x,-y,1/2-z
-x,y,1/2-z
y,x,1/2-z
-y,-x,1/2-z
-x,-y,-z
y,-x,-z
x,y,-z
-y,x,-z
-x,y,1/2+z
x,-y,1/2+z
-y,-x,1/2+z
y,x,1/2+z
1/2+x,1/2+y,1/2+z
1/2-y,1/2+x,1/2+z
1/2-x,1/2-y,1/2+z
1/2+y,1/2-x,1/2+z
1/2+x,1/2-y,-z
1/2-x,1/2+y,-z
1/2+y,1/2+x,-z
1/2-y,1/2-x,-z
1/2-x,1/2-y,1/2-z
1/2+y,1/2-x,1/2-z
1/2+x,1/2+y,1/2-z
1/2-y,1/2+x,1/2-z
1/2-x,1/2+y,z
1/2+x,1/2-y,z
1/2-y,1/2-x,z
1/2+y,1/2+x,z
loop_
_atom_site_type_symbol
_atom_site_label
_atom_site_fract_x
_atom_site_fract_y
_atom_site_fract_z
Si Si1 0.875565 0.023833 0.500000
Si Si2 0.337672 0.038215 0.301261
Si Si3 0.063264 0.563264 0.127288
Si Si4 0.313983 0.575032 0.654098
Si Si5 0.916096 0.812232 0.399978
Si Si6 0.590097 0.409904 0.250000
Si Si7 0.840703 0.340703 0.061018
O O1 0.827575 0.038613 0.450915
O O2 0.943182 0.084749 0.500000
O O3 0.406428 0.093573 0.286670
O O4 0.273256 0.083801 0.330840
O O5 0.307394 0.000000 0.250000
O O6 0.372081 0.975692 0.338662
O O7 0.096839 0.596839 0.076343
O O8 0.000000 0.500000 0.117811
O O9 0.353697 0.622725 0.610188
O O10 0.317925 0.484605 0.641203
O O11 0.360992 0.608145 0.701384
O O12 0.870746 0.734967 0.410897
O O13 0.601061 0.500000 0.250000
O O14 0.831995 0.331995 0.000000
#
# Coordination Sequence:
#
# PCOD9572572 Si02
#       7
#    16  32  16  32  32  16  16
#     4  11  22  39  66  96 125 169 234 277 323 392
#     4  11  23  42  67  96 129 171 218 276 329 394
#     4  10  22  43  73 101 129 165 222 280 333 395
#     4  12  25  41  64  95 136 174 220 265 332 400
#     4  12  25  42  64  95 131 177 219 278 333 397
#     4  11  22  38  59  90 132 173 214 254 317 392
#     4  12  26  45  69  97 137 174 223 285 342 396
#
# _framework density 19.253185999999999
#
# number of rings (size 3 to 8) (size 9 to 14) (size 15 to 20)
#    0.000    0.600    8.000    0.600    1.400    0.600 
#    0.000    0.500    0.000    0.000    0.000    0.000 
#    0.000    0.000    0.000    0.000    0.000    0.000 
#
# Total GULP energy -445620.062254 kJ/mol
# GULP energy per Si atom -5570.250778 kJ/mol
# Density = 1.920937 g / cm^3
# Si number density = 19.253186 Si / 1000 Ang^3
#
#
#
# Elastic Constant Matrix: (Units=GPa)
#
#
# Indices 1 2 3 4 5 6 
#
# 1 95.9789 20.9586 27.8709 0.0000 0.0000 0.0000
# 2 20.9586 95.9759 27.8721 0.0000 0.0000 0.0000
# 3 27.8709 27.8721 72.8137 0.0000 0.0000 0.0000
# 4 0.0000 0.0000 0.0000 21.6093 0.0000 0.0000
# 5 0.0000 0.0000 0.0000 0.0000 21.6087 0.0000
# 6 0.0000 0.0000 0.0000 0.0000 0.0000 31.6416
#
#
#
# Elastic Compliance Matrix: (Units=1/GPa)
#
#
# Indices 1 2 3 4 5 6 
#
# 1 0.011895 -0.001435 -0.004004 0.000000 0.000000 0.000000
# 2 -0.001435 0.011895 -0.004004 0.000000 0.000000 0.000000
# 3 -0.004004 -0.004004 0.016799 0.000000 0.000000 0.000000
# 4 0.000000 0.000000 0.000000 0.046276 0.000000 0.000000
# 5 0.000000 0.000000 0.000000 0.000000 0.046278 0.000000
# 6 0.000000 0.000000 0.000000 0.000000 0.000000 0.031604
#
#
# Mechanical properties :
#
#
# Convention : Reuss Voigt Hill
#
# Bulk Modulus (GPa) = 46.07507 46.46352 46.26929
# Shear Modulus (GPa) = 26.19616 27.50970 26.85293
#
# Velocity S-wave (km/s) = 3.69265 3.78410 3.73866
# Velocity P-wave (km/s) = 6.49338 6.57859 6.53612
#
# Compressibility (1/GPa) = 0.02170371
#
# Stress axis : x y z
#
# Youngs Moduli (GPa) = 84.06952 84.06565 59.52747
#
# Poissons Ratio (x) = 0.12062 0.23834
# Poissons Ratio (y) = 0.12062 0.23836
# Poissons Ratio (z) = 0.33660 0.33662
#
# Static dielectric constant tensor:
#      x y z
#    x 1.670610 0.000000 0.000000 
#    y 0.000000 1.670610 0.000000 
#    z 0.000000 0.000000 1.754580 
# 
# From -- ./inp_files/10644.got.cif
#   From: 2010.05.17/outbox.cif.g08.bks.cpg/sg140_6_cif.got.tgz:10644.got - 2010.06.21 00:45:31.
