data_PCOD9572260
_publ_section_title
;
Structure prediction by ZEFSAII (Michael W. Deem and Ramdas Pophale) SiO2 
 PCOD9572260
Probable space group: I 4/M C M
;
_chemical_formula_sum "Si O2"
_cell_formula_units_Z 160
_cell_length_a 23.369186
_cell_length_b 23.369186
_cell_length_c 17.500456
_cell_angle_alpha 90.000000
_cell_angle_beta 90.000000
_cell_angle_gamma 90.000000
_cell_volume 9557.328980
_symmetry_space_group_name_H-M "I 4/M C M"
_symmetry_group_IT_number 140
_symmetry_cell_setting 'tetragonal'
loop_
_space_group_symop_operation_xyz
x,y,z
-y,x,z
-x,-y,z
y,-x,z
x,-y,1/2-z
-x,y,1/2-z
y,x,1/2-z
-y,-x,1/2-z
-x,-y,-z
y,-x,-z
x,y,-z
-y,x,-z
-x,y,1/2+z
x,-y,1/2+z
-y,-x,1/2+z
y,x,1/2+z
1/2+x,1/2+y,1/2+z
1/2-y,1/2+x,1/2+z
1/2-x,1/2-y,1/2+z
1/2+y,1/2-x,1/2+z
1/2+x,1/2-y,-z
1/2-x,1/2+y,-z
1/2+y,1/2+x,-z
1/2-y,1/2-x,-z
1/2-x,1/2-y,1/2-z
1/2+y,1/2-x,1/2-z
1/2+x,1/2+y,1/2-z
1/2-y,1/2+x,1/2-z
1/2-x,1/2+y,z
1/2+x,1/2-y,z
1/2-y,1/2-x,z
1/2+y,1/2+x,z
loop_
_atom_site_type_symbol
_atom_site_label
_atom_site_fract_x
_atom_site_fract_y
_atom_site_fract_z
Si Si1 0.505620 0.298902 0.336395
Si Si2 0.712046 0.787955 0.853751
Si Si3 0.016906 0.094041 0.915820
Si Si4 0.807730 0.692271 0.183377
Si Si5 0.870191 0.192554 0.088732
Si Si6 0.393052 0.265629 0.590068
O O1 0.500000 0.278801 0.250000
O O2 0.481526 0.363249 0.346173
O O3 0.571073 0.302588 0.364161
O O4 0.460135 0.266504 0.389979
O O5 0.759421 0.740580 0.831341
O O6 0.687102 0.812899 0.774608
O O7 0.748546 0.835065 0.898912
O O8 0.063321 0.044429 0.913800
O O9 0.022576 0.122894 0.000000
O O10 0.782514 0.636980 0.141528
O O11 0.825946 0.140599 0.108686
O O12 0.885110 0.184843 0.000000
O O13 0.383086 0.256085 0.500000
#
# Coordination Sequence:
#
# PCOD9572260 Si02
#       6
#    32  16  32  16  32  32
#     4  12  23  31  43  66  94 121 153 196 241 278
#     4   9  17  31  51  73  95 118 149 192 239 283
#     4   9  18  32  46  58  78 114 157 195 231 274
#     4   9  17  31  51  73  95 118 149 192 239 283
#     4  10  20  34  51  69  92 125 162 196 234 284
#     4  10  20  34  51  69  92 125 162 196 234 284
#
# _framework density 16.741078999999999
#
# number of rings (size 3 to 8) (size 9 to 14) (size 15 to 20)
#    0.000    2.000    0.000    5.400    0.000   10.400 
#    0.000    1.000    0.000    0.000    0.000    0.000 
#    0.000    0.800    0.000    8.000    0.000    4.800 
#
# Total GULP energy -446023.827458 kJ/mol
# GULP energy per Si atom -5575.297843 kJ/mol
# Density = 1.670298 g / cm^3
# Si number density = 16.741079 Si / 1000 Ang^3
#
#
#
# Elastic Constant Matrix: (Units=GPa)
#
#
# Indices 1 2 3 4 5 6 
#
# 1 40.9816 12.2411 7.2603 0.0000 0.0000 0.0000
# 2 12.2411 40.9816 7.2603 0.0000 0.0000 0.0000
# 3 7.2603 7.2603 42.3704 0.0000 0.0000 0.0000
# 4 0.0000 0.0000 0.0000 21.3962 0.0000 0.0000
# 5 0.0000 0.0000 0.0000 0.0000 21.3962 0.0000
# 6 0.0000 0.0000 0.0000 0.0000 0.0000 12.3959
#
#
#
# Elastic Compliance Matrix: (Units=1/GPa)
#
#
# Indices 1 2 3 4 5 6 
#
# 1 0.027252 -0.007542 -0.003377 0.000000 0.000000 0.000000
# 2 -0.007542 0.027252 -0.003377 0.000000 0.000000 0.000000
# 3 -0.003377 -0.003377 0.024759 0.000000 0.000000 0.000000
# 4 0.000000 0.000000 0.000000 0.046737 0.000000 0.000000
# 5 0.000000 0.000000 0.000000 0.000000 0.046737 0.000000
# 6 0.000000 0.000000 0.000000 0.000000 0.000000 0.080672
#
#
# Mechanical properties :
#
#
# Convention : Reuss Voigt Hill
#
# Bulk Modulus (GPa) = 19.73556 19.76188 19.74872
# Shear Modulus (GPa) = 16.72836 17.54243 17.13540
#
# Velocity S-wave (km/s) = 3.16451 3.24059 3.20277
# Velocity P-wave (km/s) = 5.01661 5.08251 5.04967
#
# Compressibility (1/GPa) = 0.05066996
#
# Stress axis : x y z
#
# Youngs Moduli (GPa) = 36.69415 36.69415 40.38957
#
# Poissons Ratio (x) = 0.27674 0.13641
# Poissons Ratio (y) = 0.27674 0.13641
# Poissons Ratio (z) = 0.12393 0.12393
#
# Static dielectric constant tensor:
#      x y z
#    x 1.582280 0.000000 0.000000 
#    y 0.000000 1.582280 0.000000 
#    z 0.000000 0.000000 1.607490 
# 
# From -- ./inp_files/4790.got.cif
#   From: 2010.05.17/outbox.cif.g08.bks.cpg/sg140_3_cif.got.tgz:4790.got - 2010.06.21 00:45:31.
