data_PCOD9572320
_publ_section_title
;
Structure prediction by ZEFSAII (Michael W. Deem and Ramdas Pophale) SiO2 
 PCOD9572320
Probable space group: I 4/M C M
;
_chemical_formula_sum "Si O2"
_cell_formula_units_Z 144
_cell_length_a 21.585625
_cell_length_b 21.585625
_cell_length_c 17.030847
_cell_angle_alpha 90.000000
_cell_angle_beta 90.000000
_cell_angle_gamma 90.000000
_cell_volume 7935.339340
_symmetry_space_group_name_H-M "I 4/M C M"
_symmetry_group_IT_number 140
_symmetry_cell_setting 'tetragonal'
loop_
_space_group_symop_operation_xyz
x,y,z
-y,x,z
-x,-y,z
y,-x,z
x,-y,1/2-z
-x,y,1/2-z
y,x,1/2-z
-y,-x,1/2-z
-x,-y,-z
y,-x,-z
x,y,-z
-y,x,-z
-x,y,1/2+z
x,-y,1/2+z
-y,-x,1/2+z
y,x,1/2+z
1/2+x,1/2+y,1/2+z
1/2-y,1/2+x,1/2+z
1/2-x,1/2-y,1/2+z
1/2+y,1/2-x,1/2+z
1/2+x,1/2-y,-z
1/2-x,1/2+y,-z
1/2+y,1/2+x,-z
1/2-y,1/2-x,-z
1/2-x,1/2-y,1/2-z
1/2+y,1/2-x,1/2-z
1/2+x,1/2+y,1/2-z
1/2-y,1/2+x,1/2-z
1/2-x,1/2+y,z
1/2+x,1/2-y,z
1/2-y,1/2-x,z
1/2+y,1/2+x,z
loop_
_atom_site_type_symbol
_atom_site_label
_atom_site_fract_x
_atom_site_fract_y
_atom_site_fract_z
Si Si1 0.775450 0.627956 0.594464
Si Si2 0.137057 0.895967 0.407102
Si Si3 0.176317 0.976387 0.839986
Si Si4 0.182566 0.497094 0.843379
Si Si5 0.948491 0.551510 0.094123
O O1 0.776547 0.624889 0.500000
O O2 0.812533 0.687468 0.621596
O O3 0.704169 0.629600 0.617859
O O4 0.809218 0.566790 0.625196
O O5 0.126605 0.884888 0.500000
O O6 0.084404 0.863284 0.356598
O O7 0.145482 0.969002 0.391370
O O8 0.249351 0.967473 0.860948
O O9 0.174414 0.000000 0.750000
O O10 0.175635 0.500000 0.750000
O O11 0.120780 0.466414 0.878045
O O12 0.000000 0.500000 0.121107
O O13 0.949393 0.550608 0.000000
#
# Coordination Sequence:
#
# PCOD9572320 Si02
#       5
#    32  32  32  32  16
#     4   9  18  35  58  82 111 150 193 234 285 348
#     4  10  20  35  59  86 112 147 191 239 285 341
#     4  10  21  39  58  81 118 151 188 232 291 345
#     4  10  22  36  57  82 115 152 189 236 289 336
#     4  11  24  38  56  84 113 150 196 238 289 345
#
# _framework density 18.146671000000001
#
# number of rings (size 3 to 8) (size 9 to 14) (size 15 to 20)
#    0.000    2.111    0.000    2.667    3.111    4.889 
#    2.000    2.222    0.000    4.000    0.000    0.000 
#    0.000    0.000    0.000    0.000    0.000    0.000 
#
# Total GULP energy -401619.951965 kJ/mol
# GULP energy per Si atom -5578.054888 kJ/mol
# Density = 1.810537 g / cm^3
# Si number density = 18.146671 Si / 1000 Ang^3
#
#
#
# Elastic Constant Matrix: (Units=GPa)
#
#
# Indices 1 2 3 4 5 6 
#
# 1 125.9316 122.3967 37.7286 0.0000 0.0000 0.0000
# 2 122.3967 125.9315 37.7285 0.0000 0.0000 0.0000
# 3 37.7286 37.7285 36.5438 0.0000 0.0000 0.0000
# 4 0.0000 0.0000 0.0000 26.1344 0.0000 0.0000
# 5 0.0000 0.0000 0.0000 0.0000 26.1343 0.0000
# 6 0.0000 0.0000 0.0000 0.0000 0.0000 -143.3552
#
#
#
# Elastic Compliance Matrix: (Units=1/GPa)
#
#
# Indices 1 2 3 4 5 6 
#
# 1 0.144381 -0.138513 -0.006058 0.000000 0.000000 0.000000
# 2 -0.138513 0.144381 -0.006058 0.000000 0.000000 0.000000
# 3 -0.006058 -0.006058 0.039873 0.000000 0.000000 0.000000
# 4 0.000000 0.000000 0.000000 0.038264 0.000000 0.000000
# 5 0.000000 0.000000 0.000000 0.000000 0.038264 0.000000
# 6 0.000000 0.000000 0.000000 0.000000 0.000000 -0.006976
#
#
# Mechanical properties :
#
#
# Convention : Reuss Voigt Hill
#
# Bulk Modulus (GPa) = 36.52731 76.01273 56.27002
# Shear Modulus (GPa) = 7.05646 -12.18042 -2.56198
#
# Velocity S-wave (km/s) = 1.97408 -2.59360 -1.18949
# Velocity P-wave (km/s) = 5.03673 5.74542 5.40271
#
# Compressibility (1/GPa) = 0.02737677
#
# Stress axis : x y z
#
# Youngs Moduli (GPa) = 6.92612 6.92612 25.07956
#
# Poissons Ratio (x) = 0.95936 0.15194
# Poissons Ratio (y) = 0.95936 0.15192
# Poissons Ratio (z) = 0.04196 0.04196
#
# Static dielectric constant tensor:
#      x y z
#    x 1.623170 0.000000 0.000000 
#    y 0.000000 1.623170 0.000000 
#    z 0.000000 0.000000 1.628230 
# 
# From -- ./inp_files/6617.got.cif
#   From: 2010.05.17/outbox.cif.g08.bks.cpg/sg140_4_cif.got.tgz:6617.got - 2010.06.21 00:45:31.
