data_PCOD9572872
_publ_section_title
;
Structure prediction by ZEFSAII (Michael W. Deem and Ramdas Pophale) SiO2 
 PCOD9572872
Probable space group: I 41/A M D
;
_chemical_formula_sum "Si O2"
_cell_formula_units_Z 148
_cell_length_a 30.862949
_cell_length_b 30.862949
_cell_length_c 7.484059
_cell_angle_alpha 90.000000
_cell_angle_beta 90.000000
_cell_angle_gamma 90.000000
_cell_volume 7128.728010
_symmetry_space_group_name_H-M "I 41/A M D"
_symmetry_group_IT_number 141
_space_group.IT_coordinate_system_code '2'
_symmetry_cell_setting 'tetragonal'
loop_
_space_group_symop_operation_xyz
x,y,z
1/4-y,3/4+x,1/4+z
-x,1/2-y,z
1/4+y,1/4-x,3/4+z
x,-y,-z
-x,1/2+y,-z
1/4+y,3/4+x,1/4-z
1/4-y,1/4-x,3/4-z
-x,-y,-z
3/4+y,1/4-x,3/4-z
x,1/2+y,-z
3/4-y,3/4+x,1/4-z
-x,y,z
x,1/2-y,z
3/4-y,1/4-x,3/4+z
3/4+y,3/4+x,1/4+z
1/2+x,1/2+y,1/2+z
3/4-y,1/4+x,3/4+z
1/2-x,-y,1/2+z
3/4+y,3/4-x,1/4+z
1/2+x,1/2-y,1/2-z
1/2-x,y,1/2-z
3/4+y,1/4+x,3/4-z
3/4-y,3/4-x,1/4-z
1/2-x,1/2-y,1/2-z
1/4+y,3/4-x,1/4-z
1/2+x,y,1/2-z
1/4-y,1/4+x,3/4-z
1/2-x,1/2+y,1/2+z
1/2+x,-y,1/2+z
1/4-y,3/4-x,1/4+z
1/4+y,1/4+x,3/4+z
loop_
_atom_site_type_symbol
_atom_site_label
_atom_site_fract_x
_atom_site_fract_y
_atom_site_fract_z
Si Si1 0.000000 0.514545 0.207256
Si Si2 0.740824 0.154886 0.446350
Si Si3 0.829671 0.660312 0.451451
Si Si4 0.594349 0.750000 0.510733
Si Si5 0.355274 0.837518 0.629971
Si Si6 0.500000 0.250000 0.625000
Si Si7 0.500000 0.092914 0.491369
O O1 0.043278 0.500827 0.303300
O O2 0.000000 0.500000 0.000000
O O3 0.000000 0.565994 0.177022
O O4 0.750000 0.136123 0.250000
O O5 0.781325 0.140001 0.567832
O O6 0.689349 0.154021 0.482084
O O7 0.868792 0.633142 0.368283
O O8 0.839614 0.665515 0.663223
O O9 0.831401 0.707252 0.363861
O O10 0.615457 0.705007 0.587256
O O11 0.542613 0.750000 0.502126
O O12 0.607870 0.750000 0.301479
#
# Coordination Sequence:
#
# PCOD9572872 Si02
#       7
#    16  32  32  16  32   4  16
#     4  12  19  30  50  84 111 134 169 218 290 333
#     4  10  19  34  53  78 113 142 175 228 281 330
#     4  10  21  35  55  81 113 141 184 232 282 329
#     4  12  23  40  57  75 112 152 194 223 266 333
#     4  10  21  37  56  79 108 150 189 224 273 337
#     4  12  28  40  52  78 112 156 192 222 260 300
#     4  12  21  33  55  81 113 141 175 233 281 321
#
# _framework density 20.761068000000002
#
# number of rings (size 3 to 8) (size 9 to 14) (size 15 to 20)
#    0.000    1.297    4.324    2.270    0.000    3.459 
#    0.000    1.081    0.000    1.297    0.000    0.000 
#   77.838    0.000    0.000    0.000    0.000    0.000 
#
# Total GULP energy -412331.100221 kJ/mol
# GULP energy per Si atom -5572.041895 kJ/mol
# Density = 2.071381 g / cm^3
# Si number density = 20.761068 Si / 1000 Ang^3
#
#
#
# Elastic Constant Matrix: (Units=GPa)
#
#
# Indices 1 2 3 4 5 6 
#
# 1 158.9796 72.9373 26.3344 0.0000 0.0000 0.0000
# 2 72.9373 158.9796 26.3344 0.0000 0.0000 0.0000
# 3 26.3344 26.3344 46.5788 0.0000 0.0000 0.0000
# 4 0.0000 0.0000 0.0000 29.2374 0.0000 0.0000
# 5 0.0000 0.0000 0.0000 0.0000 29.2374 0.0000
# 6 0.0000 0.0000 0.0000 0.0000 0.0000 16.6704
#
#
#
# Elastic Compliance Matrix: (Units=1/GPa)
#
#
# Indices 1 2 3 4 5 6 
#
# 1 0.008285 -0.003338 -0.002797 0.000000 0.000000 0.000000
# 2 -0.003338 0.008285 -0.002797 0.000000 0.000000 0.000000
# 3 -0.002797 -0.002797 0.024632 0.000000 0.000000 0.000000
# 4 0.000000 0.000000 0.000000 0.034203 0.000000 0.000000
# 5 0.000000 0.000000 0.000000 0.000000 0.034203 0.000000
# 6 0.000000 0.000000 0.000000 0.000000 0.000000 0.059987
#
#
# Mechanical properties :
#
#
# Convention : Reuss Voigt Hill
#
# Bulk Modulus (GPa) = 42.84853 68.41667 55.63260
# Shear Modulus (GPa) = 25.61013 30.95783 28.28398
#
# Velocity S-wave (km/s) = 3.51603 3.86573 3.69502
# Velocity P-wave (km/s) = 6.09647 7.27674 6.71260
#
# Compressibility (1/GPa) = 0.02333802
#
# Stress axis : x y z
#
# Youngs Moduli (GPa) = 120.70534 120.70534 40.59818
#
# Poissons Ratio (x) = 0.40286 0.11355
# Poissons Ratio (y) = 0.40286 0.11355
# Poissons Ratio (z) = 0.33761 0.33761
#
# Static dielectric constant tensor:
#      x y z
#    x 1.812010 0.000000 0.000000 
#    y 0.000000 1.812010 0.000000 
#    z 0.000000 0.000000 1.786890 
# 
# From -- ./inp_files/3275.got.cif
#   From: 2010.05.17/outbox.cif.g08.bks.cpg/sg141_2_cif.got.tgz:3275.got - 2010.05.20 13:30:51.
