data_PCOD9572013
_publ_section_title
;
Structure prediction by ZEFSAII (Michael W. Deem and Ramdas Pophale) SiO2 
 PCOD9572013
Probable space group: I 4/M C M
;
_chemical_formula_sum "Si O2"
_cell_formula_units_Z 192
_cell_length_a 30.387776
_cell_length_b 30.387776
_cell_length_c 13.969657
_cell_angle_alpha 90.000000
_cell_angle_beta 90.000000
_cell_angle_gamma 90.000000
_cell_volume 12899.817783
_symmetry_space_group_name_H-M "I 4/M C M"
_symmetry_group_IT_number 140
_symmetry_cell_setting 'tetragonal'
loop_
_space_group_symop_operation_xyz
x,y,z
-y,x,z
-x,-y,z
y,-x,z
x,-y,1/2-z
-x,y,1/2-z
y,x,1/2-z
-y,-x,1/2-z
-x,-y,-z
y,-x,-z
x,y,-z
-y,x,-z
-x,y,1/2+z
x,-y,1/2+z
-y,-x,1/2+z
y,x,1/2+z
1/2+x,1/2+y,1/2+z
1/2-y,1/2+x,1/2+z
1/2-x,1/2-y,1/2+z
1/2+y,1/2-x,1/2+z
1/2+x,1/2-y,-z
1/2-x,1/2+y,-z
1/2+y,1/2+x,-z
1/2-y,1/2-x,-z
1/2-x,1/2-y,1/2-z
1/2+y,1/2-x,1/2-z
1/2+x,1/2+y,1/2-z
1/2-y,1/2+x,1/2-z
1/2-x,1/2+y,z
1/2+x,1/2-y,z
1/2-y,1/2-x,z
1/2+y,1/2+x,z
loop_
_atom_site_type_symbol
_atom_site_label
_atom_site_fract_x
_atom_site_fract_y
_atom_site_fract_z
Si Si1 0.281645 0.218356 0.191579
Si Si2 0.387588 0.429988 0.887321
Si Si3 0.826231 0.801881 0.609499
Si Si4 0.119426 0.244731 0.892922
Si Si5 0.368052 0.531030 0.113090
Si Si6 0.088962 0.812929 0.242052
Si Si7 0.682787 0.182787 0.890771
O O1 0.250000 0.250000 0.250000
O O2 0.248086 0.189166 0.129912
O O3 0.305034 0.194967 0.280577
O O4 0.384323 0.481855 0.866508
O O5 0.434228 0.407274 0.867742
O O6 0.350757 0.407837 0.822581
O O7 0.378476 0.423580 0.000000
O O8 0.839741 0.807446 0.500000
O O9 0.784912 0.835641 0.623881
O O10 0.867918 0.810924 0.676190
O O11 0.087722 0.230785 0.806986
O O12 0.134608 0.295426 0.893247
O O13 0.103315 0.233486 0.000000
O O14 0.327231 0.548067 0.176024
O O15 0.357545 0.533326 0.000000
O O16 0.699832 0.199832 0.000000
#
# Coordination Sequence:
#
# PCOD9572013 Si02
#       7
#    16  32  32  32  32  32  16
#     4  12  17  27  38  55  77 108 131 153 172 195
#     4  10  21  35  50  65  78  94 117 152 197 252
#     4  11  20  27  38  56  79 104 129 151 173 203
#     4  10  18  27  39  56  77 101 127 151 173 203
#     4  10  21  35  49  64  79  94 118 151 195 250
#     4  12  20  30  44  60  78  99 120 147 184 225
#     4  10  18  27  38  55  78 104 132 155 170 193
#
# _framework density 14.883931
#
# number of rings (size 3 to 8) (size 9 to 14) (size 15 to 20)
#    0.000    1.333    3.333    4.750    0.000    3.000 
#    0.000    1.667    0.000    2.000    0.000    0.000 
#    0.000    0.000    0.000    0.000    0.000    0.000 
#
# Total GULP energy -534764.861580 kJ/mol
# GULP energy per Si atom -5570.467308 kJ/mol
# Density = 1.485005 g / cm^3
# Si number density = 14.883931 Si / 1000 Ang^3
#
#
#
# Elastic Constant Matrix: (Units=GPa)
#
#
# Indices 1 2 3 4 5 6 
#
# 1 36.1584 36.6500 23.2222 0.0000 0.0000 0.0000
# 2 36.6500 36.1584 23.2222 0.0000 0.0000 0.0000
# 3 23.2222 23.2222 79.7005 0.0000 0.0000 0.0000
# 4 0.0000 0.0000 0.0000 24.0671 0.0000 0.0000
# 5 0.0000 0.0000 0.0000 0.0000 24.0671 0.0000
# 6 0.0000 0.0000 0.0000 0.0000 0.0000 11.6678
#
#
#
# Elastic Compliance Matrix: (Units=1/GPa)
#
#
# Indices 1 2 3 4 5 6 
#
# 1 -1.008711 1.025581 -0.004915 0.000000 0.000000 0.000000
# 2 1.025581 -1.008711 -0.004915 0.000000 0.000000 0.000000
# 3 -0.004915 -0.004915 0.015411 0.000000 0.000000 0.000000
# 4 0.000000 0.000000 0.000000 0.041550 0.000000 0.000000
# 5 0.000000 0.000000 0.000000 0.000000 0.041550 0.000000
# 6 0.000000 0.000000 0.000000 0.000000 0.000000 0.085706
#
#
# Mechanical properties :
#
#
# Convention : Reuss Voigt Hill
#
# Bulk Modulus (GPa) = 33.90972 35.35622 34.63297
# Shear Modulus (GPa) = -1.29706 16.55526 7.62910
#
# Velocity S-wave (km/s) = -0.93453 3.33872 2.26646
# Velocity P-wave (km/s) = 4.65487 6.21843 5.49257
#
# Compressibility (1/GPa) = 0.02949007
#
# Stress axis : x y z
#
# Youngs Moduli (GPa) = -0.99136 -0.99136 64.88707
#
# Poissons Ratio (x) = 1.01672 0.31895
# Poissons Ratio (y) = 1.01672 0.31895
# Poissons Ratio (z) = -0.00487 -0.00487
#
# Static dielectric constant tensor:
#      x y z
#    x 1.840690 0.000000 0.000000 
#    y 0.000000 1.840690 0.000000 
#    z 0.000000 0.000000 1.531920 
# 
# From -- ./inp_files/5349.got.cif
#   From: 2010.05.17/outbox.cif.g08.bks.cpg/sg140_3_cif.got.tgz:5349.got - 2010.06.21 00:45:31.
