data_PCOD9572978
_publ_section_title
;
Structure prediction by ZEFSAII (Michael W. Deem and Ramdas Pophale) SiO2 
 PCOD9572978
Probable space group: I 41/A M D
;
_chemical_formula_sum "Si O2"
_cell_formula_units_Z 80
_cell_length_a 15.725549
_cell_length_b 15.725549
_cell_length_c 16.177839
_cell_angle_alpha 90.000000
_cell_angle_beta 90.000000
_cell_angle_gamma 90.000000
_cell_volume 4000.664582
_symmetry_space_group_name_H-M "I 41/A M D"
_symmetry_group_IT_number 141
_space_group.IT_coordinate_system_code '2'
_symmetry_cell_setting 'tetragonal'
loop_
_space_group_symop_operation_xyz
x,y,z
1/4-y,3/4+x,1/4+z
-x,1/2-y,z
1/4+y,1/4-x,3/4+z
x,-y,-z
-x,1/2+y,-z
1/4+y,3/4+x,1/4-z
1/4-y,1/4-x,3/4-z
-x,-y,-z
3/4+y,1/4-x,3/4-z
x,1/2+y,-z
3/4-y,3/4+x,1/4-z
-x,y,z
x,1/2-y,z
3/4-y,1/4-x,3/4+z
3/4+y,3/4+x,1/4+z
1/2+x,1/2+y,1/2+z
3/4-y,1/4+x,3/4+z
1/2-x,-y,1/2+z
3/4+y,3/4-x,1/4+z
1/2+x,1/2-y,1/2-z
1/2-x,y,1/2-z
3/4+y,1/4+x,3/4-z
3/4-y,3/4-x,1/4-z
1/2-x,1/2-y,1/2-z
1/4+y,3/4-x,1/4-z
1/2+x,y,1/2-z
1/4-y,1/4+x,3/4-z
1/2-x,1/2+y,1/2+z
1/2+x,-y,1/2+z
1/4-y,3/4-x,1/4+z
1/4+y,1/4+x,3/4+z
loop_
_atom_site_type_symbol
_atom_site_label
_atom_site_fract_x
_atom_site_fract_y
_atom_site_fract_z
Si Si1 0.904594 0.654594 0.125000
Si Si2 0.232356 0.397075 0.008511
Si Si3 0.906165 0.080871 0.559996
O O1 0.895583 0.750000 0.158893
O O2 0.836291 0.639994 0.054085
O O3 0.326435 0.368750 0.978963
O O4 0.229767 0.500000 0.000000
O O5 0.205794 0.370544 0.100468
O O6 0.000000 0.121856 0.564892
O O7 0.913807 0.000000 0.500000
#
# Coordination Sequence:
#
# PCOD9572978 Si02
#       3
#    16  32  32
#     4  11  24  40  60  88 122 160 201 250 310 370
#     4  11  19  39  62  87 124 161 201 253 309 361
#     4  10  20  35  61  93 122 162 209 250 302 368
#
# _framework density 19.996677999999999
#
# number of rings (size 3 to 8) (size 9 to 14) (size 15 to 20)
#    0.000    1.400    4.000    4.800    0.000    0.800 
#    0.000    0.000    0.000    9.600    0.000   28.000 
#    0.000    0.000    0.000    0.000    0.000    0.000 
#
# Total GULP energy -223205.505104 kJ/mol
# GULP energy per Si atom -5580.137628 kJ/mol
# Density = 1.995116 g / cm^3
# Si number density = 19.996678 Si / 1000 Ang^3
#
#
#
# Elastic Constant Matrix: (Units=GPa)
#
#
# Indices 1 2 3 4 5 6 
#
# 1 84.4627 -1.5254 -14.6365 0.0000 0.0000 0.0000
# 2 -1.5254 84.4627 -14.6365 0.0000 0.0000 0.0000
# 3 -14.6365 -14.6365 91.6221 0.0000 0.0000 0.0000
# 4 0.0000 0.0000 0.0000 9.4000 0.0000 0.0000
# 5 0.0000 0.0000 0.0000 0.0000 9.4000 0.0000
# 6 0.0000 0.0000 0.0000 0.0000 0.0000 12.0500
#
#
#
# Elastic Compliance Matrix: (Units=1/GPa)
#
#
# Indices 1 2 3 4 5 6 
#
# 1 0.012204 0.000574 0.002041 0.000000 0.000000 0.000000
# 2 0.000574 0.012204 0.002041 0.000000 0.000000 0.000000
# 3 0.002041 0.002041 0.011567 0.000000 0.000000 0.000000
# 4 0.000000 0.000000 0.000000 0.106383 0.000000 0.000000
# 5 0.000000 0.000000 0.000000 0.000000 0.106383 0.000000
# 6 0.000000 0.000000 0.000000 0.000000 0.000000 0.082988
#
#
# Mechanical properties :
#
#
# Convention : Reuss Voigt Hill
#
# Bulk Modulus (GPa) = 22.08139 22.10563 22.09351
# Shear Modulus (GPa) = 14.81440 25.59307 20.20374
#
# Velocity S-wave (km/s) = 2.72480 3.58140 3.18206
# Velocity P-wave (km/s) = 4.57885 5.30854 4.95714
#
# Compressibility (1/GPa) = 0.04528700
#
# Stress axis : x y z
#
# Youngs Moduli (GPa) = 81.94279 81.94278 86.45612
#
# Poissons Ratio (x) = -0.04705 -0.17648
# Poissons Ratio (y) = -0.04705 -0.17648
# Poissons Ratio (z) = -0.16726 -0.16726
#
# Static dielectric constant tensor:
#      x y z
#    x 1.745000 0.000000 0.000000 
#    y 0.000000 1.745000 0.000000 
#    z 0.000000 0.000000 1.682800 
# 
# From -- ./inp_files/5749.got.cif
#   From: 2010.05.17/outbox.cif.g08.bks.cpg/sg141_3_cif.got.tgz:5749.got - 2010.05.20 13:30:51.
