data_PCOD9572882
_publ_section_title
;
Structure prediction by ZEFSAII (Michael W. Deem and Ramdas Pophale) SiO2 
 PCOD9572882
Probable space group: I 41/A M D
;
_chemical_formula_sum "Si O2"
_cell_formula_units_Z 176
_cell_length_a 27.960371
_cell_length_b 27.960371
_cell_length_c 11.503981
_cell_angle_alpha 90.000000
_cell_angle_beta 90.000000
_cell_angle_gamma 90.000000
_cell_volume 8993.609260
_symmetry_space_group_name_H-M "I 41/A M D"
_symmetry_group_IT_number 141
_space_group.IT_coordinate_system_code '2'
_symmetry_cell_setting 'tetragonal'
loop_
_space_group_symop_operation_xyz
x,y,z
1/4-y,3/4+x,1/4+z
-x,1/2-y,z
1/4+y,1/4-x,3/4+z
x,-y,-z
-x,1/2+y,-z
1/4+y,3/4+x,1/4-z
1/4-y,1/4-x,3/4-z
-x,-y,-z
3/4+y,1/4-x,3/4-z
x,1/2+y,-z
3/4-y,3/4+x,1/4-z
-x,y,z
x,1/2-y,z
3/4-y,1/4-x,3/4+z
3/4+y,3/4+x,1/4+z
1/2+x,1/2+y,1/2+z
3/4-y,1/4+x,3/4+z
1/2-x,-y,1/2+z
3/4+y,3/4-x,1/4+z
1/2+x,1/2-y,1/2-z
1/2-x,y,1/2-z
3/4+y,1/4+x,3/4-z
3/4-y,3/4-x,1/4-z
1/2-x,1/2-y,1/2-z
1/4+y,3/4-x,1/4-z
1/2+x,y,1/2-z
1/4-y,1/4+x,3/4-z
1/2-x,1/2+y,1/2+z
1/2+x,-y,1/2+z
1/4-y,3/4-x,1/4+z
1/4+y,1/4+x,3/4+z
loop_
_atom_site_type_symbol
_atom_site_label
_atom_site_fract_x
_atom_site_fract_y
_atom_site_fract_z
Si Si1 0.419842 0.874857 0.587379
Si Si2 0.877651 0.981977 0.369230
Si Si3 0.945044 0.304957 0.875000
Si Si4 0.055386 0.100612 0.545271
Si Si5 0.165392 0.556909 0.996535
Si Si6 0.052319 0.441522 0.288418
O O1 0.438935 0.845186 0.475884
O O2 0.397268 0.834348 0.670252
O O3 0.380260 0.912864 0.544337
O O4 0.449305 0.907725 0.676480
O O5 0.917654 0.940731 0.382520
O O6 0.827991 0.959869 0.326819
O O7 0.870986 0.000000 0.500000
O O8 0.902575 0.022350 0.289597
O O9 0.940404 0.250000 0.919947
O O10 0.058571 0.087920 0.408660
O O11 0.000000 0.103324 0.576417
O O12 0.176316 0.573685 0.125000
O O13 0.159531 0.500000 0.000000
O O14 0.000000 0.466229 0.298967
#
# Coordination Sequence:
#
# PCOD9572882 Si02
#       6
#    32  32  16  32  32  32
#     4  11  21  38  58  83 120 155 200 243 303 358
#     4   9  19  36  59  87 117 154 200 247 291 357
#     4  11  24  42  64  86 112 156 208 252 304 368
#     4   9  18  33  58  88 118 153 191 244 304 357
#     4  11  23  39  58  81 117 161 200 246 296 348
#     4  10  19  34  59  89 119 152 195 248 303 354
#
# _framework density 19.569451999999998
#
# number of rings (size 3 to 8) (size 9 to 14) (size 15 to 20)
#    0.000    1.909    0.909    3.273    0.000    2.909 
#    0.000    3.636    0.000    2.182    0.000    7.636 
#    0.000    0.000    0.000    0.000    0.000    0.000 
#
# Total GULP energy -490370.420552 kJ/mol
# GULP energy per Si atom -5572.391143 kJ/mol
# Density = 1.952491 g / cm^3
# Si number density = 19.569452 Si / 1000 Ang^3
#
#
#
# Elastic Constant Matrix: (Units=GPa)
#
#
# Indices 1 2 3 4 5 6 
#
# 1 106.5608 46.7586 33.4979 0.0000 0.0000 0.0000
# 2 46.7586 106.5600 33.4987 0.0000 0.0000 0.0000
# 3 33.4979 33.4987 60.8568 0.0000 0.0000 0.0000
# 4 0.0000 0.0000 0.0000 18.7364 0.0000 0.0000
# 5 0.0000 0.0000 0.0000 0.0000 18.7368 0.0000
# 6 0.0000 0.0000 0.0000 0.0000 0.0000 28.0681
#
#
#
# Elastic Compliance Matrix: (Units=1/GPa)
#
#
# Indices 1 2 3 4 5 6 
#
# 1 0.012655 -0.004067 -0.004727 0.000000 0.000000 0.000000
# 2 -0.004067 0.012655 -0.004727 0.000000 0.000000 0.000000
# 3 -0.004727 -0.004727 0.021636 0.000000 0.000000 0.000000
# 4 0.000000 0.000000 0.000000 0.053372 0.000000 0.000000
# 5 0.000000 0.000000 0.000000 0.000000 0.053371 0.000000
# 6 0.000000 0.000000 0.000000 0.000000 0.000000 0.035628
#
#
# Mechanical properties :
#
#
# Convention : Reuss Voigt Hill
#
# Bulk Modulus (GPa) = 50.24292 55.72088 52.98190
# Shear Modulus (GPa) = 22.42212 23.78974 23.10593
#
# Velocity S-wave (km/s) = 3.38860 3.49041 3.43988
# Velocity P-wave (km/s) = 6.40625 6.69172 6.55054
#
# Compressibility (1/GPa) = 0.01990330
#
# Stress axis : x y z
#
# Youngs Moduli (GPa) = 79.02112 79.01956 46.21890
#
# Poissons Ratio (x) = 0.32137 0.21848
# Poissons Ratio (y) = 0.32137 0.21850
# Poissons Ratio (z) = 0.37354 0.37356
#
# Static dielectric constant tensor:
#      x y z
#    x 1.637140 0.000000 0.000000 
#    y 0.000000 1.637160 0.000000 
#    z 0.000000 0.000000 1.657180 
# 
# From -- ./inp_files/5068.got.cif
#   From: 2010.05.17/outbox.cif.g08.bks.cpg/sg141_3_cif.got.tgz:5068.got - 2010.05.20 13:30:51.
