data_PCOD9572014
_publ_section_title
;
Structure prediction by ZEFSAII (Michael W. Deem and Ramdas Pophale) SiO2 
 PCOD9572014
Probable space group: I 4/M C M
;
_chemical_formula_sum "Si O2"
_cell_formula_units_Z 144
_cell_length_a 21.132470
_cell_length_b 21.132470
_cell_length_c 21.446528
_cell_angle_alpha 90.000000
_cell_angle_beta 90.000000
_cell_angle_gamma 90.000000
_cell_volume 9577.618104
_symmetry_space_group_name_H-M "I 4/M C M"
_symmetry_group_IT_number 140
_symmetry_cell_setting 'tetragonal'
loop_
_space_group_symop_operation_xyz
x,y,z
-y,x,z
-x,-y,z
y,-x,z
x,-y,1/2-z
-x,y,1/2-z
y,x,1/2-z
-y,-x,1/2-z
-x,-y,-z
y,-x,-z
x,y,-z
-y,x,-z
-x,y,1/2+z
x,-y,1/2+z
-y,-x,1/2+z
y,x,1/2+z
1/2+x,1/2+y,1/2+z
1/2-y,1/2+x,1/2+z
1/2-x,1/2-y,1/2+z
1/2+y,1/2-x,1/2+z
1/2+x,1/2-y,-z
1/2-x,1/2+y,-z
1/2+y,1/2+x,-z
1/2-y,1/2-x,-z
1/2-x,1/2-y,1/2-z
1/2+y,1/2-x,1/2-z
1/2+x,1/2+y,1/2-z
1/2-y,1/2+x,1/2-z
1/2-x,1/2+y,z
1/2+x,1/2-y,z
1/2-y,1/2-x,z
1/2+y,1/2+x,z
loop_
_atom_site_type_symbol
_atom_site_label
_atom_site_fract_x
_atom_site_fract_y
_atom_site_fract_z
Si Si1 0.643721 0.252420 0.181448
Si Si2 0.145709 0.245554 0.323739
Si Si3 0.500000 0.897269 0.250000
Si Si4 0.683649 0.922784 0.929867
Si Si5 0.445324 0.160133 0.624314
O O1 0.697646 0.197646 0.182428
O O2 0.680234 0.316714 0.164595
O O3 0.619924 0.256683 0.253021
O O4 0.591389 0.225964 0.134773
O O5 0.199741 0.300260 0.323910
O O6 0.096961 0.266451 0.376574
O O7 0.556849 0.943152 0.227975
O O8 0.526028 0.858359 0.307961
O O9 0.622195 0.877806 0.921379
O O10 0.665045 0.995586 0.921077
O O11 0.707520 0.911242 0.000000
O O12 0.394667 0.105334 0.607851
#
# Coordination Sequence:
#
# PCOD9572014 Si02
#       5
#    32  32  16  32  32
#     4   8  14  25  44  65  81  98 126 175 228 258
#     4   8  14  27  44  61  80 103 135 172 213 258
#     4   9  16  24  36  56  82 112 142 171 202 236
#     4  10  20  31  41  54  79 118 154 176 197 237
#     4  10  18  27  40  60  84 109 140 176 211 243
#
# _framework density 15.035053
#
# number of rings (size 3 to 8) (size 9 to 14) (size 15 to 20)
#    0.000    3.000    0.000    3.333    0.000    5.333 
#    0.000    2.222    0.000    4.000    0.000    0.000 
#    0.000    0.889    0.000    8.000    0.000    2.667 
#
# Total GULP energy -400868.082237 kJ/mol
# GULP energy per Si atom -5567.612253 kJ/mol
# Density = 1.500083 g / cm^3
# Si number density = 15.035053 Si / 1000 Ang^3
#
#
#
# Elastic Constant Matrix: (Units=GPa)
#
#
# Indices 1 2 3 4 5 6 
#
# 1 36.1690 30.2500 27.2641 0.0000 0.0000 0.0000
# 2 30.2500 36.1690 27.2641 0.0000 0.0000 0.0000
# 3 27.2641 27.2641 49.5497 0.0000 0.0000 0.0000
# 4 0.0000 0.0000 0.0000 15.3196 0.0000 0.0000
# 5 0.0000 0.0000 0.0000 0.0000 15.3196 0.0000
# 6 0.0000 0.0000 0.0000 0.0000 0.0000 11.9732
#
#
#
# Elastic Compliance Matrix: (Units=1/GPa)
#
#
# Indices 1 2 3 4 5 6 
#
# 1 0.098205 -0.070744 -0.015110 0.000000 0.000000 0.000000
# 2 -0.070744 0.098205 -0.015110 0.000000 0.000000 0.000000
# 3 -0.015110 -0.015110 0.036810 0.000000 0.000000 0.000000
# 4 0.000000 0.000000 0.000000 0.065276 0.000000 0.000000
# 5 0.000000 0.000000 0.000000 0.000000 0.065276 0.000000
# 6 0.000000 0.000000 0.000000 0.000000 0.000000 0.083520
#
#
# Mechanical properties :
#
#
# Convention : Reuss Voigt Hill
#
# Bulk Modulus (GPa) = 31.95742 32.38269 32.17005
# Shear Modulus (GPa) = 7.57976 10.99642 9.28809
#
# Velocity S-wave (km/s) = 2.24774 2.70735 2.48818
# Velocity P-wave (km/s) = 5.29508 5.59981 5.44957
#
# Compressibility (1/GPa) = 0.03129164
#
# Stress axis : x y z
#
# Youngs Moduli (GPa) = 10.18277 10.18277 27.16654
#
# Poissons Ratio (x) = 0.72037 0.41049
# Poissons Ratio (y) = 0.72037 0.41049
# Poissons Ratio (z) = 0.15386 0.15386
#
# Static dielectric constant tensor:
#      x y z
#    x 1.505310 0.000000 0.000000 
#    y 0.000000 1.505310 0.000000 
#    z 0.000000 0.000000 1.504880 
# 
# From -- ./inp_files/8378.got.cif
#   From: 2010.05.17/outbox.cif.g08.bks.cpg/sg140_5_cif.got.tgz:8378.got - 2010.06.21 00:45:31.
