data_PCOD9572408
_publ_section_title
;
Structure prediction by ZEFSAII (Michael W. Deem and Ramdas Pophale) SiO2 
 PCOD9572408
Probable space group: I 4/M C M
;
_chemical_formula_sum "Si O2"
_cell_formula_units_Z 192
_cell_length_a 20.366849
_cell_length_b 20.366849
_cell_length_c 23.935105
_cell_angle_alpha 90.000000
_cell_angle_beta 90.000000
_cell_angle_gamma 90.000000
_cell_volume 9928.485916
_symmetry_space_group_name_H-M "I 4/M C M"
_symmetry_group_IT_number 140
_symmetry_cell_setting 'tetragonal'
loop_
_space_group_symop_operation_xyz
x,y,z
-y,x,z
-x,-y,z
y,-x,z
x,-y,1/2-z
-x,y,1/2-z
y,x,1/2-z
-y,-x,1/2-z
-x,-y,-z
y,-x,-z
x,y,-z
-y,x,-z
-x,y,1/2+z
x,-y,1/2+z
-y,-x,1/2+z
y,x,1/2+z
1/2+x,1/2+y,1/2+z
1/2-y,1/2+x,1/2+z
1/2-x,1/2-y,1/2+z
1/2+y,1/2-x,1/2+z
1/2+x,1/2-y,-z
1/2-x,1/2+y,-z
1/2+y,1/2+x,-z
1/2-y,1/2-x,-z
1/2-x,1/2-y,1/2-z
1/2+y,1/2-x,1/2-z
1/2+x,1/2+y,1/2-z
1/2-y,1/2+x,1/2-z
1/2-x,1/2+y,z
1/2+x,1/2-y,z
1/2-y,1/2-x,z
1/2+y,1/2+x,z
loop_
_atom_site_type_symbol
_atom_site_label
_atom_site_fract_x
_atom_site_fract_y
_atom_site_fract_z
Si Si1 0.708980 0.571310 0.381641
Si Si2 0.110112 0.004403 0.189222
Si Si3 0.141483 0.537295 0.677039
Si Si4 0.321827 0.287251 0.566586
Si Si5 0.195998 0.407397 0.719394
Si Si6 0.958615 0.288549 0.435611
O O1 0.654942 0.517966 0.363416
O O2 0.686600 0.640972 0.406116
O O3 0.743427 0.587268 0.322105
O O4 0.754740 0.529214 0.423107
O O5 0.065621 0.939957 0.187766
O O6 0.144452 0.000000 0.250000
O O7 0.075188 0.575188 0.691344
O O8 0.146073 0.461889 0.694071
O O9 0.198531 0.571491 0.715591
O O10 0.156813 0.545775 0.612215
O O11 0.312925 0.294944 0.500000
O O12 0.266520 0.233481 0.585466
O O13 0.395074 0.258053 0.574510
O O14 0.163572 0.336429 0.716361
O O15 0.955111 0.310222 0.500000
#
# Coordination Sequence:
#
# PCOD9572408 Si02
#       6
#    32  32  32  32  32  32
#     4  11  20  33  56  79 107 138 180 224 270 323
#     4   9  19  34  52  77 107 141 179 217 265 327
#     4   9  18  33  53  74 100 133 173 217 263 317
#     4  10  21  37  55  78 110 147 185 228 280 335
#     4   9  19  33  50  77 107 133 167 213 268 325
#     4  10  21  35  54  77 104 141 184 224 269 324
#
# _framework density 19.338296
#
# number of rings (size 3 to 8) (size 9 to 14) (size 15 to 20)
#    0.000    2.333    0.000    3.000    4.667    1.333 
#    0.000    1.667    0.000    7.500    0.000   11.667 
#    0.000    0.000    0.000    0.000    0.000    0.000 
#
# Total GULP energy -534494.510158 kJ/mol
# GULP energy per Si atom -5567.651147 kJ/mol
# Density = 1.929428 g / cm^3
# Si number density = 19.338296 Si / 1000 Ang^3
#
#
#
# Elastic Constant Matrix: (Units=GPa)
#
#
# Indices 1 2 3 4 5 6 
#
# 1 26.0985 3.3010 16.6530 0.0000 0.0000 0.0000
# 2 3.3010 26.0985 16.6530 0.0000 0.0000 0.0000
# 3 16.6530 16.6530 97.2036 0.0000 0.0000 0.0000
# 4 0.0000 0.0000 0.0000 21.0626 0.0000 0.0000
# 5 0.0000 0.0000 0.0000 0.0000 21.0626 0.0000
# 6 0.0000 0.0000 0.0000 0.0000 0.0000 -64.4194
#
#
#
# Elastic Compliance Matrix: (Units=1/GPa)
#
#
# Indices 1 2 3 4 5 6 
#
# 1 0.043035 -0.000829 -0.007231 0.000000 0.000000 0.000000
# 2 -0.000829 0.043035 -0.007231 0.000000 0.000000 0.000000
# 3 -0.007231 -0.007231 0.012765 0.000000 0.000000 0.000000
# 4 0.000000 0.000000 0.000000 0.047477 0.000000 0.000000
# 5 0.000000 0.000000 0.000000 0.000000 0.047477 0.000000
# 6 0.000000 0.000000 0.000000 0.000000 0.000000 -0.015523
#
#
# Mechanical properties :
#
#
# Convention : Reuss Voigt Hill
#
# Bulk Modulus (GPa) = 14.65123 24.73496 19.69309
# Shear Modulus (GPa) = 21.58896 3.06075 12.32485
#
# Velocity S-wave (km/s) = 3.34486 1.25943 2.52728
# Velocity P-wave (km/s) = 4.74449 3.86437 4.32686
#
# Compressibility (1/GPa) = 0.06825365
#
# Stress axis : x y z
#
# Youngs Moduli (GPa) = 23.23687 23.23687 78.33794
#
# Poissons Ratio (x) = 0.01927 0.56644
# Poissons Ratio (y) = 0.01927 0.56644
# Poissons Ratio (z) = 0.16802 0.16802
#
# Static dielectric constant tensor:
#      x y z
#    x 1.681180 0.000000 0.000000 
#    y 0.000000 1.681180 0.000000 
#    z 0.000000 0.000000 1.699710 
# 
# From -- ./inp_files/9769.got.cif
#   From: 2010.05.17/outbox.cif.g08.bks.cpg/sg140_5_cif.got.tgz:9769.got - 2010.06.21 00:45:31.
