data_PCOD9572630
_publ_section_title
;
Structure prediction by ZEFSAII (Michael W. Deem and Ramdas Pophale) SiO2 
 PCOD9572630
Probable space group: I 4/M C M
;
_chemical_formula_sum "Si O2"
_cell_formula_units_Z 160
_cell_length_a 22.960017
_cell_length_b 22.960017
_cell_length_c 15.239024
_cell_angle_alpha 90.000000
_cell_angle_beta 90.000000
_cell_angle_gamma 90.000000
_cell_volume 8033.440170
_symmetry_space_group_name_H-M "I 4/M C M"
_symmetry_group_IT_number 140
_symmetry_cell_setting 'tetragonal'
loop_
_space_group_symop_operation_xyz
x,y,z
-y,x,z
-x,-y,z
y,-x,z
x,-y,1/2-z
-x,y,1/2-z
y,x,1/2-z
-y,-x,1/2-z
-x,-y,-z
y,-x,-z
x,y,-z
-y,x,-z
-x,y,1/2+z
x,-y,1/2+z
-y,-x,1/2+z
y,x,1/2+z
1/2+x,1/2+y,1/2+z
1/2-y,1/2+x,1/2+z
1/2-x,1/2-y,1/2+z
1/2+y,1/2-x,1/2+z
1/2+x,1/2-y,-z
1/2-x,1/2+y,-z
1/2+y,1/2+x,-z
1/2-y,1/2-x,-z
1/2-x,1/2-y,1/2-z
1/2+y,1/2-x,1/2-z
1/2+x,1/2+y,1/2-z
1/2-y,1/2+x,1/2-z
1/2-x,1/2+y,z
1/2+x,1/2-y,z
1/2-y,1/2-x,z
1/2+y,1/2+x,z
loop_
_atom_site_type_symbol
_atom_site_label
_atom_site_fract_x
_atom_site_fract_y
_atom_site_fract_z
Si Si1 0.429462 0.432512 0.153912
Si Si2 0.363164 0.136837 0.104933
Si Si3 0.048719 0.548719 0.394470
Si Si4 0.493527 0.828021 0.351027
Si Si5 0.792601 0.836274 0.000000
Si Si6 0.734294 0.478326 0.000000
Si Si7 0.585186 0.651694 0.500000
Si Si8 0.776288 0.276288 0.158506
O O1 0.497963 0.421995 0.145163
O O2 0.412465 0.412465 0.250000
O O3 0.389893 0.405048 0.082301
O O4 0.429675 0.149346 0.123837
O O5 0.325380 0.174621 0.172706
O O6 0.350950 0.149051 0.000000
O O7 0.047095 0.547095 0.500000
O O8 0.114420 0.532994 0.365559
O O9 0.000000 0.500000 0.364397
O O10 0.500000 0.810037 0.250000
O O11 0.498207 0.773024 0.416165
O O12 0.766591 0.810387 0.090739
O O13 0.780410 0.907988 0.000000
O O14 0.857997 0.809652 0.000000
O O15 0.679009 0.521413 0.000000
O O16 0.750000 0.250000 0.250000
#
# Coordination Sequence:
#
# PCOD9572630 Si02
#       8
#    32  16  16  32  16  16  16  16
#     4   9  18  36  62  93 127 165 211 258 319 406
#     4  12  19  45  76  93 134 193 239 271 330 432
#     4  11  21  36  64 100 139 175 215 276 332 409
#     4  12  24  40  67 103 139 176 226 279 350 416
#     4  11  24  48  69  97 129 177 242 280 340 428
#     4  12  25  48  68  94 142 186 225 295 352 422
#     4  12  25  40  64  97 133 173 211 286 356 395
#     4  11  23  43  77  98 121 179 246 293 320 393
#
# _framework density 19.916747999999998
#
# number of rings (size 3 to 8) (size 9 to 14) (size 15 to 20)
#    0.000    0.900    6.000    3.000    0.000    3.200 
#    7.200    2.000    0.000    0.000    0.000    0.000 
#    0.000    0.000    0.000    0.000    0.000    0.000 
#
# Total GULP energy -445763.123105 kJ/mol
# GULP energy per Si atom -5572.039039 kJ/mol
# Density = 1.987142 g / cm^3
# Si number density = 19.916748 Si / 1000 Ang^3
#
#
#
# Elastic Constant Matrix: (Units=GPa)
#
#
# Indices 1 2 3 4 5 6 
#
# 1 73.2563 22.6237 51.1788 0.0000 0.0000 0.0000
# 2 22.6237 73.2559 51.1780 0.0000 0.0000 0.0000
# 3 51.1788 51.1780 131.1150 0.0000 0.0000 0.0000
# 4 0.0000 0.0000 0.0000 8.0930 0.0000 0.0000
# 5 0.0000 0.0000 0.0000 0.0000 8.0932 0.0000
# 6 0.0000 0.0000 0.0000 0.0000 0.0000 20.7129
#
#
#
# Elastic Compliance Matrix: (Units=1/GPa)
#
#
# Indices 1 2 3 4 5 6 
#
# 1 0.018815 -0.000935 -0.006979 0.000000 0.000000 0.000000
# 2 -0.000935 0.018815 -0.006979 0.000000 0.000000 0.000000
# 3 -0.006979 -0.006979 0.013075 0.000000 0.000000 0.000000
# 4 0.000000 0.000000 0.000000 0.123563 0.000000 0.000000
# 5 0.000000 0.000000 0.000000 0.000000 0.123561 0.000000
# 6 0.000000 0.000000 0.000000 0.000000 0.000000 0.048279
#
#
# Mechanical properties :
#
#
# Convention : Reuss Voigt Hill
#
# Bulk Modulus (GPa) = 47.80318 58.62091 53.21204
# Shear Modulus (GPa) = 13.05928 17.55628 15.30778
#
# Velocity S-wave (km/s) = 2.56343 2.97220 2.77535
# Velocity P-wave (km/s) = 5.72845 6.42460 6.08649
#
# Compressibility (1/GPa) = 0.02091911
#
# Stress axis : x y z
#
# Youngs Moduli (GPa) = 53.14796 53.14813 76.47942
#
# Poissons Ratio (x) = 0.04968 0.53378
# Poissons Ratio (y) = 0.04968 0.53377
# Poissons Ratio (z) = 0.37094 0.37094
#
# Static dielectric constant tensor:
#      x y z
#    x 1.730160 0.000000 0.000000 
#    y 0.000000 1.730160 0.000000 
#    z 0.000000 0.000000 1.740060 
# 
# From -- ./inp_files/4874.got.cif
#   From: 2010.05.17/outbox.cif.g08.bks.cpg/sg140_3_cif.got.tgz:4874.got - 2010.06.21 00:45:31.
