data_PCOD9572251
_publ_section_title
;
Structure prediction by ZEFSAII (Michael W. Deem and Ramdas Pophale) SiO2 
 PCOD9572251
Probable space group: I 4/M C M
;
_chemical_formula_sum "Si O2"
_cell_formula_units_Z 160
_cell_length_a 17.257841
_cell_length_b 17.257841
_cell_length_c 27.723770
_cell_angle_alpha 90.000000
_cell_angle_beta 90.000000
_cell_angle_gamma 90.000000
_cell_volume 8257.055697
_symmetry_space_group_name_H-M "I 4/M C M"
_symmetry_group_IT_number 140
_symmetry_cell_setting 'tetragonal'
loop_
_space_group_symop_operation_xyz
x,y,z
-y,x,z
-x,-y,z
y,-x,z
x,-y,1/2-z
-x,y,1/2-z
y,x,1/2-z
-y,-x,1/2-z
-x,-y,-z
y,-x,-z
x,y,-z
-y,x,-z
-x,y,1/2+z
x,-y,1/2+z
-y,-x,1/2+z
y,x,1/2+z
1/2+x,1/2+y,1/2+z
1/2-y,1/2+x,1/2+z
1/2-x,1/2-y,1/2+z
1/2+y,1/2-x,1/2+z
1/2+x,1/2-y,-z
1/2-x,1/2+y,-z
1/2+y,1/2+x,-z
1/2-y,1/2-x,-z
1/2-x,1/2-y,1/2-z
1/2+y,1/2-x,1/2-z
1/2+x,1/2+y,1/2-z
1/2-y,1/2+x,1/2-z
1/2-x,1/2+y,z
1/2+x,1/2-y,z
1/2-y,1/2-x,z
1/2+y,1/2+x,z
loop_
_atom_site_type_symbol
_atom_site_label
_atom_site_fract_x
_atom_site_fract_y
_atom_site_fract_z
Si Si1 0.897350 0.926764 0.607572
Si Si2 0.493228 0.125543 0.904339
Si Si3 0.242074 0.386061 0.057203
Si Si4 0.834705 0.538642 0.199385
Si Si5 0.070582 0.155321 0.215281
O O1 0.824124 0.884790 0.583976
O O2 0.890171 0.921436 0.665525
O O3 0.982037 0.895317 0.593998
O O4 0.557629 0.057629 0.909145
O O5 0.533105 0.198184 0.930287
O O6 0.488038 0.145885 0.847615
O O7 0.412788 0.087213 0.921476
O O8 0.183590 0.316411 0.072136
O O9 0.252894 0.381073 0.000000
O O10 0.857360 0.500000 0.250000
O O11 0.882804 0.617197 0.193454
O O12 0.743768 0.555047 0.201386
O O13 0.144234 0.144234 0.250000
O O14 0.000000 0.129248 0.250000
#
# Coordination Sequence:
#
# PCOD9572251 Si02
#       5
#    32  32  32  32  32
#     4  11  23  40  66  94 121 159 204 253 302 362
#     4   9  17  31  55  85 116 157 208 253 297 360
#     4  10  22  42  65  88 122 163 202 257 322 371
#     4  10  20  33  51  80 120 161 200 243 300 363
#     4  11  21  34  57  86 117 155 196 243 297 360
#
# _framework density 19.377365999999999
#
# number of rings (size 3 to 8) (size 9 to 14) (size 15 to 20)
#    0.000    1.800    4.000    0.600    0.000    2.800 
#    0.000    4.000    0.000    0.000    0.000    0.000 
#    0.000    0.000    0.000    0.000    0.000    0.000 
#
# Total GULP energy -446276.080592 kJ/mol
# GULP energy per Si atom -5578.451007 kJ/mol
# Density = 1.933326 g / cm^3
# Si number density = 19.377366 Si / 1000 Ang^3
#
#
#
# Elastic Constant Matrix: (Units=GPa)
#
#
# Indices 1 2 3 4 5 6 
#
# 1 63.0705 22.7808 18.0898 0.0000 0.0000 0.0000
# 2 22.7808 63.0705 18.0898 0.0000 0.0000 0.0000
# 3 18.0898 18.0898 62.0548 0.0000 0.0000 0.0000
# 4 0.0000 0.0000 0.0000 22.4682 0.0000 0.0000
# 5 0.0000 0.0000 0.0000 0.0000 22.4682 0.0000
# 6 0.0000 0.0000 0.0000 0.0000 0.0000 18.1084
#
#
#
# Elastic Compliance Matrix: (Units=1/GPa)
#
#
# Indices 1 2 3 4 5 6 
#
# 1 0.019050 -0.005770 -0.003871 0.000000 0.000000 0.000000
# 2 -0.005770 0.019050 -0.003871 0.000000 0.000000 0.000000
# 3 -0.003871 -0.003871 0.018372 0.000000 0.000000 0.000000
# 4 0.000000 0.000000 0.000000 0.044507 0.000000 0.000000
# 5 0.000000 0.000000 0.000000 0.000000 0.044507 0.000000
# 6 0.000000 0.000000 0.000000 0.000000 0.000000 0.055223
#
#
# Mechanical properties :
#
#
# Convention : Reuss Voigt Hill
#
# Bulk Modulus (GPa) = 33.96039 34.01298 33.98668
# Shear Modulus (GPa) = 21.04823 21.22466 21.13645
#
# Velocity S-wave (km/s) = 3.29937 3.31317 3.30628
# Velocity P-wave (km/s) = 5.66377 5.67690 5.67034
#
# Compressibility (1/GPa) = 0.02944607
#
# Stress axis : x y z
#
# Youngs Moduli (GPa) = 52.49394 52.49394 54.43135
#
# Poissons Ratio (x) = 0.30291 0.21071
# Poissons Ratio (y) = 0.30291 0.21071
# Poissons Ratio (z) = 0.20321 0.20321
#
# Static dielectric constant tensor:
#      x y z
#    x 1.684590 0.000000 0.000000 
#    y 0.000000 1.684590 0.000000 
#    z 0.000000 0.000000 1.682790 
# 
# From -- ./inp_files/10515.got.cif
#   From: 2010.05.17/outbox.cif.g08.bks.cpg/sg140_6_cif.got.tgz:10515.got - 2010.06.21 00:45:31.
