data_PCOD9572514
_publ_section_title
;
Structure prediction by ZEFSAII (Michael W. Deem and Ramdas Pophale) SiO2 
 PCOD9572514
Probable space group: I 4/M C M
;
_chemical_formula_sum "Si O2"
_cell_formula_units_Z 104
_cell_length_a 18.592096
_cell_length_b 18.592096
_cell_length_c 16.335097
_cell_angle_alpha 90.000000
_cell_angle_beta 90.000000
_cell_angle_gamma 90.000000
_cell_volume 5646.488190
_symmetry_space_group_name_H-M "I 4/M C M"
_symmetry_group_IT_number 140
_symmetry_cell_setting 'tetragonal'
loop_
_space_group_symop_operation_xyz
x,y,z
-y,x,z
-x,-y,z
y,-x,z
x,-y,1/2-z
-x,y,1/2-z
y,x,1/2-z
-y,-x,1/2-z
-x,-y,-z
y,-x,-z
x,y,-z
-y,x,-z
-x,y,1/2+z
x,-y,1/2+z
-y,-x,1/2+z
y,x,1/2+z
1/2+x,1/2+y,1/2+z
1/2-y,1/2+x,1/2+z
1/2-x,1/2-y,1/2+z
1/2+y,1/2-x,1/2+z
1/2+x,1/2-y,-z
1/2-x,1/2+y,-z
1/2+y,1/2+x,-z
1/2-y,1/2-x,-z
1/2-x,1/2-y,1/2-z
1/2+y,1/2-x,1/2-z
1/2+x,1/2+y,1/2-z
1/2-y,1/2+x,1/2-z
1/2-x,1/2+y,z
1/2+x,1/2-y,z
1/2-y,1/2-x,z
1/2+y,1/2+x,z
loop_
_atom_site_type_symbol
_atom_site_label
_atom_site_fract_x
_atom_site_fract_y
_atom_site_fract_z
Si Si1 0.209715 0.290286 0.500000
Si Si2 0.290227 0.790227 0.677596
Si Si3 0.009574 0.118553 0.402191
Si Si4 0.726845 0.962045 0.832464
Si Si5 0.050745 0.664864 0.000000
O O1 0.236369 0.263632 0.587374
O O2 0.122516 0.283180 0.500000
O O3 0.250000 0.750000 0.750000
O O4 0.278480 0.876073 0.679590
O O5 0.010672 0.133862 0.500000
O O6 0.017033 0.191094 0.352138
O O7 0.936430 0.074855 0.384964
O O8 0.682230 0.984674 0.913615
O O9 0.701933 0.000000 0.750000
O O10 0.086060 0.586060 0.000000
#
# Coordination Sequence:
#
# PCOD9572514 Si02
#       5
#     8  16  32  32  16
#     4   6  14  34  56  66 102 157 178 209 288 342
#     4  10  22  38  54  83 118 145 193 241 290 336
#     4   9  19  34  51  77 117 157 193 229 273 335
#     4  11  21  34  59  86 109 151 195 235 285 343
#     4   8  16  38  55  76 110 150 185 226 285 344
#
# _framework density 18.418527999999998
#
# number of rings (size 3 to 8) (size 9 to 14) (size 15 to 20)
#    0.462    2.154    3.077    0.923    4.308    0.000 
#    0.000    3.077    0.000    0.462    0.000    1.077 
#    0.000    0.000    0.000    0.000    0.000    0.000 
#
# Total GULP energy -289650.401288 kJ/mol
# GULP energy per Si atom -5570.200025 kJ/mol
# Density = 1.837661 g / cm^3
# Si number density = 18.418528 Si / 1000 Ang^3
#
#
#
# Elastic Constant Matrix: (Units=GPa)
#
#
# Indices 1 2 3 4 5 6 
#
# 1 21.9179 7.6979 38.6735 0.0000 0.0000 0.0000
# 2 7.6979 21.9183 38.6735 0.0000 0.0000 0.0000
# 3 38.6735 38.6735 176.3516 0.0000 0.0000 0.0000
# 4 0.0000 0.0000 0.0000 22.1377 0.0000 0.0000
# 5 0.0000 0.0000 0.0000 0.0000 22.1377 0.0000
# 6 0.0000 0.0000 0.0000 0.0000 0.0000 11.4928
#
#
#
# Elastic Compliance Matrix: (Units=1/GPa)
#
#
# Indices 1 2 3 4 5 6 
#
# 1 0.074675 0.004352 -0.017330 0.000000 0.000000 0.000000
# 2 0.004352 0.074673 -0.017330 0.000000 0.000000 0.000000
# 3 -0.017330 -0.017330 0.013271 0.000000 0.000000 0.000000
# 4 0.000000 0.000000 0.000000 0.045172 0.000000 0.000000
# 5 0.000000 0.000000 0.000000 0.000000 0.045172 0.000000
# 6 0.000000 0.000000 0.000000 0.000000 0.000000 0.087011
#
#
# Mechanical properties :
#
#
# Convention : Reuss Voigt Hill
#
# Bulk Modulus (GPa) = 9.80367 43.36418 26.58392
# Shear Modulus (GPa) = 11.50502 20.16316 15.83409
#
# Velocity S-wave (km/s) = 2.50200 3.31225 2.93522
# Velocity P-wave (km/s) = 3.69878 6.18246 5.09430
#
# Compressibility (1/GPa) = 0.10200265
#
# Stress axis : x y z
#
# Youngs Moduli (GPa) = 13.39129 13.39172 75.34980
#
# Poissons Ratio (x) = -0.05828 1.30585
# Poissons Ratio (y) = -0.05828 1.30581
# Poissons Ratio (z) = 0.23208 0.23208
#
# Static dielectric constant tensor:
#      x y z
#    x 1.631020 0.000000 0.000000 
#    y 0.000000 1.631020 0.000000 
#    z 0.000000 0.000000 1.684250 
# 
# From -- ./inp_files/6013.got.cif
#   From: 2010.05.17/outbox.cif.g08.bks.cpg/sg140_4_cif.got.tgz:6013.got - 2010.06.21 00:45:31.
