data_PCOD9572769
_publ_section_title
;
Structure prediction by ZEFSAII (Michael W. Deem and Ramdas Pophale) SiO2 
 PCOD9572769
Probable space group: I 41/A M D
;
_chemical_formula_sum "Si O2"
_cell_formula_units_Z 160
_cell_length_a 17.698847
_cell_length_b 17.698847
_cell_length_c 29.624340
_cell_angle_alpha 90.000000
_cell_angle_beta 90.000000
_cell_angle_gamma 90.000000
_cell_volume 9279.800365
_symmetry_space_group_name_H-M "I 41/A M D"
_symmetry_group_IT_number 141
_space_group.IT_coordinate_system_code '2'
_symmetry_cell_setting 'tetragonal'
loop_
_space_group_symop_operation_xyz
x,y,z
1/4-y,3/4+x,1/4+z
-x,1/2-y,z
1/4+y,1/4-x,3/4+z
x,-y,-z
-x,1/2+y,-z
1/4+y,3/4+x,1/4-z
1/4-y,1/4-x,3/4-z
-x,-y,-z
3/4+y,1/4-x,3/4-z
x,1/2+y,-z
3/4-y,3/4+x,1/4-z
-x,y,z
x,1/2-y,z
3/4-y,1/4-x,3/4+z
3/4+y,3/4+x,1/4+z
1/2+x,1/2+y,1/2+z
3/4-y,1/4+x,3/4+z
1/2-x,-y,1/2+z
3/4+y,3/4-x,1/4+z
1/2+x,1/2-y,1/2-z
1/2-x,y,1/2-z
3/4+y,1/4+x,3/4-z
3/4-y,3/4-x,1/4-z
1/2-x,1/2-y,1/2-z
1/4+y,3/4-x,1/4-z
1/2+x,y,1/2-z
1/4-y,1/4+x,3/4-z
1/2-x,1/2+y,1/2+z
1/2+x,-y,1/2+z
1/4-y,3/4-x,1/4+z
1/4+y,1/4+x,3/4+z
loop_
_atom_site_type_symbol
_atom_site_label
_atom_site_fract_x
_atom_site_fract_y
_atom_site_fract_z
Si Si1 0.857560 0.973511 0.048253
Si Si2 0.414304 0.985427 0.279288
Si Si3 0.917547 0.073475 0.127046
Si Si4 0.705977 0.926972 0.945039
Si Si5 0.236505 0.339155 0.139792
O O1 0.838049 0.885505 0.042386
O O2 0.903338 0.007695 0.089885
O O3 0.775584 0.013769 0.054951
O O4 0.889157 0.000000 0.000000
O O5 0.500000 0.967862 0.264425
O O6 0.418032 0.034280 0.324390
O O7 0.369504 0.032612 0.240989
O O8 0.848135 0.131409 0.129154
O O9 0.000000 0.108092 0.118341
O O10 0.717938 0.868423 0.904090
O O11 0.632470 0.976052 0.932561
O O12 0.239144 0.250000 0.145066
#
# Coordination Sequence:
#
# PCOD9572769 Si02
#       5
#    32  32  32  32  32
#     4   9  17  32  54  73  99 137 178 220 254 314
#     4  10  18  30  52  77 103 134 173 222 269 311
#     4  10  20  32  49  77 108 137 171 217 270 320
#     4   9  18  33  52  75 100 130 184 226 254 313
#     4  10  19  33  54  75 101 139 178 222 269 315
#
# _framework density 17.24175
#
# number of rings (size 3 to 8) (size 9 to 14) (size 15 to 20)
#    0.000    2.400    2.000    1.200    0.000    0.800 
#    0.000    2.000    0.000   12.000    0.000    2.800 
#    0.000    0.000    0.000    0.000    0.000    0.000 
#
# Total GULP energy -445429.646326 kJ/mol
# GULP energy per Si atom -5567.870579 kJ/mol
# Density = 1.720251 g / cm^3
# Si number density = 17.241750 Si / 1000 Ang^3
#
#
#
# Elastic Constant Matrix: (Units=GPa)
#
#
# Indices 1 2 3 4 5 6 
#
# 1 104.7468 44.2717 33.0189 0.0000 0.0000 0.0000
# 2 44.2717 104.7468 33.0189 0.0000 0.0000 0.0000
# 3 33.0189 33.0189 83.3820 0.0000 0.0000 0.0000
# 4 0.0000 0.0000 0.0000 13.0256 0.0000 0.0000
# 5 0.0000 0.0000 0.0000 0.0000 13.0256 0.0000
# 6 0.0000 0.0000 0.0000 0.0000 0.0000 10.8148
#
#
#
# Elastic Compliance Matrix: (Units=1/GPa)
#
#
# Indices 1 2 3 4 5 6 
#
# 1 0.012337 -0.004198 -0.003223 0.000000 0.000000 0.000000
# 2 -0.004198 0.012337 -0.003223 0.000000 0.000000 0.000000
# 3 -0.003223 -0.003223 0.014546 0.000000 0.000000 0.000000
# 4 0.000000 0.000000 0.000000 0.076772 0.000000 0.000000
# 5 0.000000 0.000000 0.000000 0.000000 0.076772 0.000000
# 6 0.000000 0.000000 0.000000 0.000000 0.000000 0.092466
#
#
# Mechanical properties :
#
#
# Convention : Reuss Voigt Hill
#
# Bulk Modulus (GPa) = 55.76801 57.05498 56.41150
# Shear Modulus (GPa) = 16.00021 19.54426 17.77224
#
# Velocity S-wave (km/s) = 3.04960 3.37047 3.21404
# Velocity P-wave (km/s) = 6.69441 6.95052 6.82366
#
# Compressibility (1/GPa) = 0.01793143
#
# Stress axis : x y z
#
# Youngs Moduli (GPa) = 81.05515 81.05515 68.74962
#
# Poissons Ratio (x) = 0.34031 0.22158
# Poissons Ratio (y) = 0.34031 0.22158
# Poissons Ratio (z) = 0.26124 0.26124
#
# Static dielectric constant tensor:
#      x y z
#    x 1.597810 0.000000 0.000000 
#    y 0.000000 1.597810 0.000000 
#    z 0.000000 0.000000 1.617530 
# 
# From -- ./inp_files/12714.got.cif
#   From: 2010.05.17/outbox.cif.g08.bks.cpg/sg141_7_cif.got.tgz:12714.got - 2010.05.20 13:30:51.
