data_PCOD9572854
_publ_section_title
;
Structure prediction by ZEFSAII (Michael W. Deem and Ramdas Pophale) SiO2 
 PCOD9572854
Probable space group: I 41/A M D
;
_chemical_formula_sum "Si O2"
_cell_formula_units_Z 112
_cell_length_a 23.330957
_cell_length_b 23.330957
_cell_length_c 13.007509
_cell_angle_alpha 90.000000
_cell_angle_beta 90.000000
_cell_angle_gamma 90.000000
_cell_volume 7080.423610
_symmetry_space_group_name_H-M "I 41/A M D"
_symmetry_group_IT_number 141
_space_group.IT_coordinate_system_code '2'
_symmetry_cell_setting 'tetragonal'
loop_
_space_group_symop_operation_xyz
x,y,z
1/4-y,3/4+x,1/4+z
-x,1/2-y,z
1/4+y,1/4-x,3/4+z
x,-y,-z
-x,1/2+y,-z
1/4+y,3/4+x,1/4-z
1/4-y,1/4-x,3/4-z
-x,-y,-z
3/4+y,1/4-x,3/4-z
x,1/2+y,-z
3/4-y,3/4+x,1/4-z
-x,y,z
x,1/2-y,z
3/4-y,1/4-x,3/4+z
3/4+y,3/4+x,1/4+z
1/2+x,1/2+y,1/2+z
3/4-y,1/4+x,3/4+z
1/2-x,-y,1/2+z
3/4+y,3/4-x,1/4+z
1/2+x,1/2-y,1/2-z
1/2-x,y,1/2-z
3/4+y,1/4+x,3/4-z
3/4-y,3/4-x,1/4-z
1/2-x,1/2-y,1/2-z
1/4+y,3/4-x,1/4-z
1/2+x,y,1/2-z
1/4-y,1/4+x,3/4-z
1/2-x,1/2+y,1/2+z
1/2+x,-y,1/2+z
1/4-y,3/4-x,1/4+z
1/4+y,1/4+x,3/4+z
loop_
_atom_site_type_symbol
_atom_site_label
_atom_site_fract_x
_atom_site_fract_y
_atom_site_fract_z
Si Si1 0.623064 0.182111 0.530329
Si Si2 0.567818 0.182183 0.125000
Si Si3 0.931037 0.619852 0.834659
Si Si4 0.430946 0.491998 0.617124
O O1 0.625002 0.250000 0.507965
O O2 0.580432 0.169569 0.625000
O O3 0.601124 0.147926 0.431176
O O4 0.685364 0.161928 0.572448
O O5 0.577108 0.250000 0.139854
O O6 0.585235 0.149943 0.228368
O O7 0.919331 0.552184 0.828461
O O8 0.000000 0.627114 0.850649
O O9 0.409549 0.500000 0.500000
O O10 0.500000 0.485255 0.609371
#
# Coordination Sequence:
#
# PCOD9572854 Si02
#       4
#    32  16  32  32
#     4  11  20  29  47  77 103 126 162 207 254 301
#     4   9  18  32  50  74 104 136 164 194 246 306
#     4  10  19  33  51  72 101 135 168 203 249 303
#     4   9  17  31  47  69 100 132 164 196 242 302
#
# _framework density 15.818263
#
# number of rings (size 3 to 8) (size 9 to 14) (size 15 to 20)
#    0.000    2.143    2.857    1.714    0.000    3.143 
#    0.000    1.429    0.000    6.857   11.143    0.000 
#    0.000    0.000    0.000    0.000    0.000    0.000 
#
# Total GULP energy -312068.743291 kJ/mol
# GULP energy per Si atom -5572.656130 kJ/mol
# Density = 1.578226 g / cm^3
# Si number density = 15.818263 Si / 1000 Ang^3
#
#
#
# Elastic Constant Matrix: (Units=GPa)
#
#
# Indices 1 2 3 4 5 6 
#
# 1 53.1356 34.1297 41.5029 0.0000 0.0000 0.0000
# 2 34.1297 53.1326 41.5007 0.0000 0.0000 0.0000
# 3 41.5029 41.5007 115.7840 0.0000 0.0000 0.0000
# 4 0.0000 0.0000 0.0000 20.9883 0.0000 0.0000
# 5 0.0000 0.0000 0.0000 0.0000 20.9882 0.0000
# 6 0.0000 0.0000 0.0000 0.0000 0.0000 11.1182
#
#
#
# Elastic Compliance Matrix: (Units=1/GPa)
#
#
# Indices 1 2 3 4 5 6 
#
# 1 0.035003 -0.017616 -0.006233 0.000000 0.000000 0.000000
# 2 -0.017616 0.035004 -0.006232 0.000000 0.000000 0.000000
# 3 -0.006233 -0.006232 0.013105 0.000000 0.000000 0.000000
# 4 0.000000 0.000000 0.000000 0.047646 0.000000 0.000000
# 5 0.000000 0.000000 0.000000 0.000000 0.047646 0.000000
# 6 0.000000 0.000000 0.000000 0.000000 0.000000 0.089943
#
#
# Mechanical properties :
#
#
# Convention : Reuss Voigt Hill
#
# Bulk Modulus (GPa) = 43.57251 50.70209 47.13730
# Shear Modulus (GPa) = 14.87397 17.61353 16.24375
#
# Velocity S-wave (km/s) = 3.06976 3.34053 3.20800
# Velocity P-wave (km/s) = 6.33799 6.85575 6.60195
#
# Compressibility (1/GPa) = 0.02295025
#
# Stress axis : x y z
#
# Youngs Moduli (GPa) = 28.56903 28.56802 76.30825
#
# Poissons Ratio (x) = 0.50325 0.47561
# Poissons Ratio (y) = 0.50327 0.47557
# Poissons Ratio (z) = 0.17806 0.17804
#
# Static dielectric constant tensor:
#      x y z
#    x 1.530630 0.000000 0.000000 
#    y 0.000000 1.530620 0.000000 
#    z 0.000000 0.000000 1.515310 
# 
# From -- ./inp_files/4393.got.cif
#   From: 2010.05.17/outbox.cif.g08.bks.cpg/sg141_3_cif.got.tgz:4393.got - 2010.05.20 13:30:51.
