data_PCOD9572106
_publ_section_title
;
Structure prediction by ZEFSAII (Michael W. Deem and Ramdas Pophale) SiO2 
 PCOD9572106
Probable space group: I 4/M C M
;
_chemical_formula_sum "Si O2"
_cell_formula_units_Z 160
_cell_length_a 23.497514
_cell_length_b 23.497514
_cell_length_c 15.006446
_cell_angle_alpha 90.000000
_cell_angle_beta 90.000000
_cell_angle_gamma 90.000000
_cell_volume 8285.556513
_symmetry_space_group_name_H-M "I 4/M C M"
_symmetry_group_IT_number 140
_symmetry_cell_setting 'tetragonal'
loop_
_space_group_symop_operation_xyz
x,y,z
-y,x,z
-x,-y,z
y,-x,z
x,-y,1/2-z
-x,y,1/2-z
y,x,1/2-z
-y,-x,1/2-z
-x,-y,-z
y,-x,-z
x,y,-z
-y,x,-z
-x,y,1/2+z
x,-y,1/2+z
-y,-x,1/2+z
y,x,1/2+z
1/2+x,1/2+y,1/2+z
1/2-y,1/2+x,1/2+z
1/2-x,1/2-y,1/2+z
1/2+y,1/2-x,1/2+z
1/2+x,1/2-y,-z
1/2-x,1/2+y,-z
1/2+y,1/2+x,-z
1/2-y,1/2-x,-z
1/2-x,1/2-y,1/2-z
1/2+y,1/2-x,1/2-z
1/2+x,1/2+y,1/2-z
1/2-y,1/2+x,1/2-z
1/2-x,1/2+y,z
1/2+x,1/2-y,z
1/2-y,1/2-x,z
1/2+y,1/2+x,z
loop_
_atom_site_type_symbol
_atom_site_label
_atom_site_fract_x
_atom_site_fract_y
_atom_site_fract_z
Si Si1 0.613498 0.201157 0.708804
Si Si2 0.196389 0.434608 0.098935
Si Si3 0.780974 0.041201 0.399015
Si Si4 0.979429 0.606407 0.348704
Si Si5 0.591038 0.491396 0.857230
O O1 0.675297 0.175297 0.686404
O O2 0.605448 0.200539 0.815445
O O3 0.590608 0.259878 0.667612
O O4 0.567904 0.155614 0.668748
O O5 0.243271 0.484252 0.113930
O O6 0.136281 0.468146 0.103192
O O7 0.203926 0.410007 0.000000
O O8 0.770298 0.060801 0.500000
O O9 0.845852 0.022498 0.387654
O O10 0.946776 0.553225 0.390415
O O11 0.000000 0.590562 0.250000
O O12 0.559921 0.549433 0.886358
O O13 0.592282 0.500000 0.750000
#
# Coordination Sequence:
#
# PCOD9572106 Si02
#       5
#    32  32  32  32  32
#     4   9  17  30  47  66  94 132 174 224 272 312
#     4   9  17  28  44  67  93 126 172 221 270 326
#     4  10  19  31  50  76 107 143 182 223 265 313
#     4   8  14  24  37  55  83 121 163 207 257 314
#     4   9  18  33  54  82 117 153 182 208 247 308
#
# _framework density 19.310713
#
# number of rings (size 3 to 8) (size 9 to 14) (size 15 to 20)
#    0.000    3.000    0.000    3.600    0.000    2.200 
#    0.000    5.000    0.000    0.000    0.000   16.800 
#    0.000    9.600    0.000    0.000    0.000    0.000 
#
# Total GULP energy -445717.114738 kJ/mol
# GULP energy per Si atom -5571.463934 kJ/mol
# Density = 1.926676 g / cm^3
# Si number density = 19.310713 Si / 1000 Ang^3
#
#
#
# Elastic Constant Matrix: (Units=GPa)
#
#
# Indices 1 2 3 4 5 6 
#
# 1 65.0550 58.5346 16.0360 0.0000 0.0000 0.0000
# 2 58.5346 65.0550 16.0360 0.0000 0.0000 0.0000
# 3 16.0360 16.0360 76.5736 0.0000 0.0000 0.0000
# 4 0.0000 0.0000 0.0000 -3.4284 0.0000 0.0000
# 5 0.0000 0.0000 0.0000 0.0000 -3.4284 0.0000
# 6 0.0000 0.0000 0.0000 0.0000 0.0000 8.0342
#
#
#
# Elastic Compliance Matrix: (Units=1/GPa)
#
#
# Indices 1 2 3 4 5 6 
#
# 1 0.080960 -0.072404 -0.001792 0.000000 0.000000 0.000000
# 2 -0.072404 0.080960 -0.001792 0.000000 0.000000 0.000000
# 3 -0.001792 -0.001792 0.013810 0.000000 0.000000 0.000000
# 4 0.000000 0.000000 0.000000 -0.291678 0.000000 0.000000
# 5 0.000000 0.000000 0.000000 0.000000 -0.291678 0.000000
# 6 0.000000 0.000000 0.000000 0.000000 0.000000 0.124468
#
#
# Mechanical properties :
#
#
# Convention : Reuss Voigt Hill
#
# Bulk Modulus (GPa) = 42.09641 43.09964 42.59802
# Shear Modulus (GPa) = -40.56278 7.97394 -16.29442
#
# Velocity S-wave (km/s) = -4.58813 2.03427 -2.90798
# Velocity P-wave (km/s) = 2.49421 5.28064 3.29121
#
# Compressibility (1/GPa) = 0.02375500
#
# Stress axis : x y z
#
# Youngs Moduli (GPa) = 12.35178 12.35178 72.41223
#
# Poissons Ratio (x) = 0.89431 0.12975
# Poissons Ratio (y) = 0.89431 0.12975
# Poissons Ratio (z) = 0.02213 0.02213
#
# Static dielectric constant tensor:
#      x y z
#    x 1.679240 0.000000 0.000000 
#    y 0.000000 1.679240 0.000000 
#    z 0.000000 0.000000 1.729420 
# 
# From -- ./inp_files/4721.got.cif
#   From: 2010.05.17/outbox.cif.g08.bks.cpg/sg140_3_cif.got.tgz:4721.got - 2010.06.21 00:45:31.
