data_PCOD9572843
_publ_section_title
;
Structure prediction by ZEFSAII (Michael W. Deem and Ramdas Pophale) SiO2 
 PCOD9572843
Probable space group: I 41/A M D
;
_chemical_formula_sum "Si O2"
_cell_formula_units_Z 144
_cell_length_a 26.851897
_cell_length_b 26.851897
_cell_length_c 12.144092
_cell_angle_alpha 90.000000
_cell_angle_beta 90.000000
_cell_angle_gamma 90.000000
_cell_volume 8756.186314
_symmetry_space_group_name_H-M "I 41/A M D"
_symmetry_group_IT_number 141
_space_group.IT_coordinate_system_code '2'
_symmetry_cell_setting 'tetragonal'
loop_
_space_group_symop_operation_xyz
x,y,z
1/4-y,3/4+x,1/4+z
-x,1/2-y,z
1/4+y,1/4-x,3/4+z
x,-y,-z
-x,1/2+y,-z
1/4+y,3/4+x,1/4-z
1/4-y,1/4-x,3/4-z
-x,-y,-z
3/4+y,1/4-x,3/4-z
x,1/2+y,-z
3/4-y,3/4+x,1/4-z
-x,y,z
x,1/2-y,z
3/4-y,1/4-x,3/4+z
3/4+y,3/4+x,1/4+z
1/2+x,1/2+y,1/2+z
3/4-y,1/4+x,3/4+z
1/2-x,-y,1/2+z
3/4+y,3/4-x,1/4+z
1/2+x,1/2-y,1/2-z
1/2-x,y,1/2-z
3/4+y,1/4+x,3/4-z
3/4-y,3/4-x,1/4-z
1/2-x,1/2-y,1/2-z
1/4+y,3/4-x,1/4-z
1/2+x,y,1/2-z
1/4-y,1/4+x,3/4-z
1/2-x,1/2+y,1/2+z
1/2+x,-y,1/2+z
1/4-y,3/4-x,1/4+z
1/4+y,1/4+x,3/4+z
loop_
_atom_site_type_symbol
_atom_site_label
_atom_site_fract_x
_atom_site_fract_y
_atom_site_fract_z
Si Si1 0.798985 0.951016 0.625000
Si Si2 0.345795 0.448794 0.890985
Si Si3 0.229997 0.192778 0.021046
Si Si4 0.637003 0.304399 0.646750
Si Si5 0.403906 0.452053 0.421376
O O1 0.742023 0.940356 0.593552
O O2 0.806561 0.915440 0.729221
O O3 0.401318 0.466955 0.862192
O O4 0.328760 0.396799 0.840851
O O5 0.238083 0.250000 0.057679
O O6 0.181526 0.192576 0.942023
O O7 0.275759 0.174163 0.943784
O O8 0.597992 0.347992 0.625000
O O9 0.613256 0.250000 0.638086
O O10 0.665019 0.309752 0.763615
O O11 0.395834 0.500000 0.500000
#
# Coordination Sequence:
#
# PCOD9572843 Si02
#       5
#    16  32  32  32  32
#     4  10  24  34  50  80 108 132 171 228 267 324
#     4  11  20  36  53  75 109 140 172 222 269 323
#     4  10  20  35  55  77 105 143 184 223 264 321
#     4  10  19  32  50  78 109 139 178 222 264 314
#     4  10  20  31  52  77 108 144 180 210 261 326
#
# _framework density 16.445515
#
# number of rings (size 3 to 8) (size 9 to 14) (size 15 to 20)
#    0.000    1.778    4.444    0.667    3.111    2.889 
#    0.000    2.222    0.000    0.000    0.000    0.000 
#    0.000    0.000    0.000    0.667    0.000    0.000 
#
# Total GULP energy -401136.099594 kJ/mol
# GULP energy per Si atom -5571.334717 kJ/mol
# Density = 1.640808 g / cm^3
# Si number density = 16.445515 Si / 1000 Ang^3
#
#
#
# Elastic Constant Matrix: (Units=GPa)
#
#
# Indices 1 2 3 4 5 6 
#
# 1 104.2165 34.3585 29.8633 0.0000 0.0000 0.0000
# 2 34.3585 104.2180 29.8627 0.0000 0.0000 0.0000
# 3 29.8633 29.8627 77.4670 0.0000 0.0000 0.0000
# 4 0.0000 0.0000 0.0000 19.3330 0.0000 0.0000
# 5 0.0000 0.0000 0.0000 0.0000 19.3327 0.0000
# 6 0.0000 0.0000 0.0000 0.0000 0.0000 17.4776
#
#
#
# Elastic Compliance Matrix: (Units=1/GPa)
#
#
# Indices 1 2 3 4 5 6 
#
# 1 0.011484 -0.002830 -0.003336 0.000000 0.000000 0.000000
# 2 -0.002830 0.011484 -0.003336 0.000000 0.000000 0.000000
# 3 -0.003336 -0.003336 0.015481 0.000000 0.000000 0.000000
# 4 0.000000 0.000000 0.000000 0.051725 0.000000 0.000000
# 5 0.000000 0.000000 0.000000 0.000000 0.051726 0.000000
# 6 0.000000 0.000000 0.000000 0.000000 0.000000 0.057216
#
#
# Mechanical properties :
#
#
# Convention : Reuss Voigt Hill
#
# Bulk Modulus (GPa) = 51.42805 52.67451 52.05128
# Shear Modulus (GPa) = 22.26149 24.01645 23.13897
#
# Velocity S-wave (km/s) = 3.68319 3.82562 3.75508
# Velocity P-wave (km/s) = 7.03047 7.18422 7.10776
#
# Compressibility (1/GPa) = 0.01944464
#
# Stress axis : x y z
#
# Youngs Moduli (GPa) = 87.07402 87.07587 64.59605
#
# Poissons Ratio (x) = 0.24645 0.21551
# Poissons Ratio (y) = 0.24644 0.21549
# Poissons Ratio (z) = 0.29050 0.29049
#
# Static dielectric constant tensor:
#      x y z
#    x 1.555090 0.000000 0.000000 
#    y 0.000000 1.555090 0.000000 
#    z 0.000000 0.000000 1.585960 
# 
# From -- ./inp_files/4775.got.cif
#   From: 2010.05.17/outbox.cif.g08.bks.cpg/sg141_3_cif.got.tgz:4775.got - 2010.05.20 13:30:51.
