data_PCOD9572422
_publ_section_title
;
Structure prediction by ZEFSAII (Michael W. Deem and Ramdas Pophale) SiO2 
 PCOD9572422
Probable space group: I 4/M C M
;
_chemical_formula_sum "Si O2"
_cell_formula_units_Z 152
_cell_length_a 16.708087
_cell_length_b 16.708087
_cell_length_c 32.241636
_cell_angle_alpha 90.000000
_cell_angle_beta 90.000000
_cell_angle_gamma 90.000000
_cell_volume 9000.580626
_symmetry_space_group_name_H-M "I 4/M C M"
_symmetry_group_IT_number 140
_symmetry_cell_setting 'tetragonal'
loop_
_space_group_symop_operation_xyz
x,y,z
-y,x,z
-x,-y,z
y,-x,z
x,-y,1/2-z
-x,y,1/2-z
y,x,1/2-z
-y,-x,1/2-z
-x,-y,-z
y,-x,-z
x,y,-z
-y,x,-z
-x,y,1/2+z
x,-y,1/2+z
-y,-x,1/2+z
y,x,1/2+z
1/2+x,1/2+y,1/2+z
1/2-y,1/2+x,1/2+z
1/2-x,1/2-y,1/2+z
1/2+y,1/2-x,1/2+z
1/2+x,1/2-y,-z
1/2-x,1/2+y,-z
1/2+y,1/2+x,-z
1/2-y,1/2-x,-z
1/2-x,1/2-y,1/2-z
1/2+y,1/2-x,1/2-z
1/2+x,1/2+y,1/2-z
1/2-y,1/2+x,1/2-z
1/2-x,1/2+y,z
1/2+x,1/2-y,z
1/2-y,1/2-x,z
1/2+y,1/2+x,z
loop_
_atom_site_type_symbol
_atom_site_label
_atom_site_fract_x
_atom_site_fract_y
_atom_site_fract_z
Si Si1 0.593684 0.276981 0.398332
Si Si2 0.313739 0.186262 0.322807
Si Si3 0.631155 0.868846 0.545813
Si Si4 0.089941 0.225174 0.105708
Si Si5 0.404067 0.095934 0.248800
Si Si6 0.000000 0.500000 0.938194
Si Si7 0.876374 0.623627 0.549783
Si Si8 0.816493 0.683508 0.326305
O O1 0.501884 0.299311 0.392150
O O2 0.651948 0.351761 0.404522
O O3 0.604349 0.213626 0.435841
O O4 0.624835 0.231751 0.357075
O O5 0.266584 0.123750 0.352427
O O6 0.360459 0.139542 0.287197
O O7 0.247882 0.252119 0.308667
O O8 0.655365 0.844636 0.500000
O O9 0.706474 0.901786 0.570940
O O10 0.563153 0.936848 0.543101
O O11 0.500000 0.109188 0.250000
O O12 0.364925 0.135076 0.207980
O O13 0.065418 0.565418 0.922810
O O14 0.888630 0.611371 0.500000
#
# Coordination Sequence:
#
# PCOD9572422 Si02
#       8
#    32  16  16  32  16   8  16  16
#     4  10  21  36  54  76 104 138 175 215 259 306
#     4   9  19  36  55  74 100 136 173 210 252 298
#     4  11  21  35  53  78 106 133 171 217 268 311
#     4  10  21  36  54  76 104 138 175 215 259 306
#     4  11  21  32  50  80 111 135 160 198 252 315
#     4  12  21  32  56  84 100 125 174 225 260 304
#     4  11  21  35  53  78 106 133 171 217 268 311
#     4   9  19  36  55  74 100 136 173 210 252 298
#
# _framework density 16.887799999999999
#
# number of rings (size 3 to 8) (size 9 to 14) (size 15 to 20)
#    0.000    1.789    2.105    4.421    0.000    2.105 
#    0.000    0.000    0.000    0.000    0.000    2.947 
#    0.000   15.158    0.000    0.000    0.000    0.000 
#
# Total GULP energy -423523.787016 kJ/mol
# GULP energy per Si atom -5572.681408 kJ/mol
# Density = 1.684936 g / cm^3
# Si number density = 16.887800 Si / 1000 Ang^3
#
#
#
# Elastic Constant Matrix: (Units=GPa)
#
#
# Indices 1 2 3 4 5 6 
#
# 1 107.1825 100.7819 41.7834 0.0000 0.0000 0.0000
# 2 100.7819 107.1838 41.7841 0.0000 0.0000 0.0000
# 3 41.7834 41.7841 74.0158 0.0000 0.0000 0.0000
# 4 0.0000 0.0000 0.0000 -6.8942 0.0000 0.0000
# 5 0.0000 0.0000 0.0000 0.0000 -6.8929 0.0000
# 6 0.0000 0.0000 0.0000 0.0000 0.0000 37.6736
#
#
#
# Elastic Compliance Matrix: (Units=1/GPa)
#
#
# Indices 1 2 3 4 5 6 
#
# 1 0.081219 -0.075000 -0.003510 0.000000 0.000000 0.000000
# 2 -0.075000 0.081219 -0.003511 0.000000 0.000000 0.000000
# 3 -0.003510 -0.003511 0.017475 0.000000 0.000000 0.000000
# 4 0.000000 0.000000 0.000000 -0.145050 0.000000 0.000000
# 5 0.000000 0.000000 0.000000 0.000000 -0.145077 0.000000
# 6 0.000000 0.000000 0.000000 0.000000 0.000000 0.026544
#
#
# Mechanical properties :
#
#
# Convention : Reuss Voigt Hill
#
# Bulk Modulus (GPa) = 63.01404 73.00899 68.01152
# Shear Modulus (GPa) = 58.36847 11.71282 35.04065
#
# Velocity S-wave (km/s) = 5.88537 2.63642 4.56006
# Velocity P-wave (km/s) = 9.14209 7.25212 8.25139
#
# Compressibility (1/GPa) = 0.01586948
#
# Stress axis : x y z
#
# Youngs Moduli (GPa) = 12.31236 12.31244 57.22565
#
# Poissons Ratio (x) = 0.92343 0.20089
# Poissons Ratio (y) = 0.92342 0.20095
# Poissons Ratio (z) = 0.04322 0.04323
#
# Static dielectric constant tensor:
#      x y z
#    x 1.564300 0.000000 0.000000 
#    y 0.000000 1.564300 0.000000 
#    z 0.000000 0.000000 1.561170 
# 
# From -- ./inp_files/11501.got.cif
#   From: 2010.05.17/outbox.cif.g08.bks.cpg/sg140_6_cif.got.tgz:11501.got - 2010.06.21 00:45:31.
