data_PCOD9572658
_publ_section_title
;
Structure prediction by ZEFSAII (Michael W. Deem and Ramdas Pophale) SiO2 
 PCOD9572658
Probable space group: I 4/M C M
;
_chemical_formula_sum "Si O2"
_cell_formula_units_Z 80
_cell_length_a 15.702389
_cell_length_b 15.702389
_cell_length_c 16.596175
_cell_angle_alpha 90.000000
_cell_angle_beta 90.000000
_cell_angle_gamma 90.000000
_cell_volume 4092.036226
_symmetry_space_group_name_H-M "I 4/M C M"
_symmetry_group_IT_number 140
_symmetry_cell_setting 'tetragonal'
loop_
_space_group_symop_operation_xyz
x,y,z
-y,x,z
-x,-y,z
y,-x,z
x,-y,1/2-z
-x,y,1/2-z
y,x,1/2-z
-y,-x,1/2-z
-x,-y,-z
y,-x,-z
x,y,-z
-y,x,-z
-x,y,1/2+z
x,-y,1/2+z
-y,-x,1/2+z
y,x,1/2+z
1/2+x,1/2+y,1/2+z
1/2-y,1/2+x,1/2+z
1/2-x,1/2-y,1/2+z
1/2+y,1/2-x,1/2+z
1/2+x,1/2-y,-z
1/2-x,1/2+y,-z
1/2+y,1/2+x,-z
1/2-y,1/2-x,-z
1/2-x,1/2-y,1/2-z
1/2+y,1/2-x,1/2-z
1/2+x,1/2+y,1/2-z
1/2-y,1/2+x,1/2-z
1/2-x,1/2+y,z
1/2+x,1/2-y,z
1/2-y,1/2-x,z
1/2+y,1/2+x,z
loop_
_atom_site_type_symbol
_atom_site_label
_atom_site_fract_x
_atom_site_fract_y
_atom_site_fract_z
Si Si1 0.190840 0.168515 0.845395
Si Si2 0.931335 0.431335 0.401736
Si Si3 0.983399 0.243491 0.403954
O O1 0.180888 0.180888 0.750000
O O2 0.262951 0.237050 0.873770
O O3 0.099189 0.186904 0.884923
O O4 0.216912 0.071979 0.864245
O O5 0.930318 0.430318 0.500000
O O6 0.957571 0.337769 0.375075
O O7 0.000000 0.500000 0.375295
O O8 0.996878 0.245235 0.500000
#
# Coordination Sequence:
#
# PCOD9572658 Si02
#       3
#    32  16  32
#     4  11  24  42  64  91 134 174 213 260 326 391
#     4   9  18  34  59  92 124 155 205 270 324 368
#     4  11  22  39  65  94 126 167 219 270 320 378
#
# _framework density 19.550167999999999
#
# number of rings (size 3 to 8) (size 9 to 14) (size 15 to 20)
#    0.000    1.400    2.000    3.600    0.000    4.800 
#    0.000    4.000    0.000    0.000    0.000    0.000 
#    0.000    0.000    0.000    0.000    0.000    0.000 
#
# Total GULP energy -223564.795246 kJ/mol
# GULP energy per Si atom -5589.119881 kJ/mol
# Density = 1.950567 g / cm^3
# Si number density = 19.550168 Si / 1000 Ang^3
#
#
#
# Elastic Constant Matrix: (Units=GPa)
#
#
# Indices 1 2 3 4 5 6 
#
# 1 179.3178 127.8522 31.3933 0.0000 0.0000 0.0000
# 2 127.8522 179.3178 31.3933 0.0000 0.0000 0.0000
# 3 31.3933 31.3933 44.9021 0.0000 0.0000 0.0000
# 4 0.0000 0.0000 0.0000 18.4893 0.0000 0.0000
# 5 0.0000 0.0000 0.0000 0.0000 18.4893 0.0000
# 6 0.0000 0.0000 0.0000 0.0000 0.0000 45.2164
#
#
#
# Elastic Compliance Matrix: (Units=1/GPa)
#
#
# Indices 1 2 3 4 5 6 
#
# 1 0.011614 -0.007816 -0.002656 0.000000 0.000000 0.000000
# 2 -0.007816 0.011614 -0.002656 0.000000 0.000000 0.000000
# 3 -0.002656 -0.002656 0.025984 0.000000 0.000000 0.000000
# 4 0.000000 0.000000 0.000000 0.054085 0.000000 0.000000
# 5 0.000000 0.000000 0.000000 0.000000 0.054085 0.000000
# 6 0.000000 0.000000 0.000000 0.000000 0.000000 0.022116
#
#
# Mechanical properties :
#
#
# Convention : Reuss Voigt Hill
#
# Bulk Modulus (GPa) = 43.55735 87.20171 65.37953
# Shear Modulus (GPa) = 23.42943 30.63224 27.03083
#
# Velocity S-wave (km/s) = 3.46558 3.96264 3.72242
# Velocity P-wave (km/s) = 6.19208 8.10171 7.21039
#
# Compressibility (1/GPa) = 0.02295824
#
# Stress axis : x y z
#
# Youngs Moduli (GPa) = 86.10000 86.10000 38.48525
#
# Poissons Ratio (x) = 0.67296 0.10220
# Poissons Ratio (y) = 0.67296 0.10220
# Poissons Ratio (z) = 0.22865 0.22865
#
# Static dielectric constant tensor:
#      x y z
#    x 1.672890 0.000000 0.000000 
#    y 0.000000 1.672890 0.000000 
#    z 0.000000 0.000000 1.679490 
# 
# From -- ./inp_files/7476.got.cif
#   From: 2010.05.17/outbox.cif.g08.bks.cpg/sg140_4_cif.got.tgz:7476.got - 2010.06.21 00:45:31.
