data_PCOD9572850
_publ_section_title
;
Structure prediction by ZEFSAII (Michael W. Deem and Ramdas Pophale) SiO2 
 PCOD9572850
Probable space group: I 41/A M D
;
_chemical_formula_sum "Si O2"
_cell_formula_units_Z 176
_cell_length_a 28.588873
_cell_length_b 28.588873
_cell_length_c 12.106644
_cell_angle_alpha 90.000000
_cell_angle_beta 90.000000
_cell_angle_gamma 90.000000
_cell_volume 9895.046577
_symmetry_space_group_name_H-M "I 41/A M D"
_symmetry_group_IT_number 141
_space_group.IT_coordinate_system_code '2'
_symmetry_cell_setting 'tetragonal'
loop_
_space_group_symop_operation_xyz
x,y,z
1/4-y,3/4+x,1/4+z
-x,1/2-y,z
1/4+y,1/4-x,3/4+z
x,-y,-z
-x,1/2+y,-z
1/4+y,3/4+x,1/4-z
1/4-y,1/4-x,3/4-z
-x,-y,-z
3/4+y,1/4-x,3/4-z
x,1/2+y,-z
3/4-y,3/4+x,1/4-z
-x,y,z
x,1/2-y,z
3/4-y,1/4-x,3/4+z
3/4+y,3/4+x,1/4+z
1/2+x,1/2+y,1/2+z
3/4-y,1/4+x,3/4+z
1/2-x,-y,1/2+z
3/4+y,3/4-x,1/4+z
1/2+x,1/2-y,1/2-z
1/2-x,y,1/2-z
3/4+y,1/4+x,3/4-z
3/4-y,3/4-x,1/4-z
1/2-x,1/2-y,1/2-z
1/4+y,3/4-x,1/4-z
1/2+x,y,1/2-z
1/4-y,1/4+x,3/4-z
1/2-x,1/2+y,1/2+z
1/2+x,-y,1/2+z
1/4-y,3/4-x,1/4+z
1/4+y,1/4+x,3/4+z
loop_
_atom_site_type_symbol
_atom_site_label
_atom_site_fract_x
_atom_site_fract_y
_atom_site_fract_z
Si Si1 0.212037 0.600786 0.554341
Si Si2 0.349164 0.694740 0.496819
Si Si3 0.202026 0.056139 0.683520
Si Si4 0.748571 0.196598 0.381998
Si Si5 0.144503 0.394503 0.875000
Si Si6 0.945635 0.699647 0.259238
O O1 0.168966 0.581035 0.625000
O O2 0.210086 0.585524 0.426829
O O3 0.258494 0.574281 0.598504
O O4 0.219888 0.655852 0.567447
O O5 0.352863 0.750000 0.468965
O O6 0.304372 0.689227 0.574346
O O7 0.344741 0.660271 0.392686
O O8 0.398987 0.678773 0.549377
O O9 0.250000 0.045669 0.750000
O O10 0.170017 0.084724 0.768502
O O11 0.762011 0.250000 0.411225
O O12 0.750000 0.192284 0.250000
O O13 0.923629 0.750000 0.288372
O O14 0.000000 0.702046 0.293075
O O15 0.946074 0.696074 0.125000
#
# Coordination Sequence:
#
# PCOD9572850 Si02
#       6
#    32  32  32  32  16  32
#     4  12  23  36  60  87 111 144 195 242 294 344
#     4  10  19  32  52  78 113 157 198 234 284 344
#     4  12  21  37  54  81 118 149 179 239 295 352
#     4  10  21  39  58  81 113 151 196 243 286 339
#     4  12  22  34  54  81 120 154 192 230 294 354
#     4   8  13  22  40  69 104 141 181 225 269 321
#
# _framework density 17.786677000000001
#
# number of rings (size 3 to 8) (size 9 to 14) (size 15 to 20)
#    0.000    1.455    4.545    3.273    0.000    0.000 
#    0.000    0.909    0.000    3.273    0.000    0.000 
#    0.000    0.364    0.000    0.000    0.000    0.364 
#
# Total GULP energy -490542.412901 kJ/mol
# GULP energy per Si atom -5574.345601 kJ/mol
# Density = 1.774619 g / cm^3
# Si number density = 17.786677 Si / 1000 Ang^3
#
#
#
# Elastic Constant Matrix: (Units=GPa)
#
#
# Indices 1 2 3 4 5 6 
#
# 1 95.4734 50.0837 27.0209 0.0000 0.0000 0.0000
# 2 50.0837 95.4700 27.0190 0.0000 0.0000 0.0000
# 3 27.0209 27.0190 56.4881 0.0000 0.0000 0.0000
# 4 0.0000 0.0000 0.0000 19.4921 0.0000 0.0000
# 5 0.0000 0.0000 0.0000 0.0000 19.4922 0.0000
# 6 0.0000 0.0000 0.0000 0.0000 0.0000 26.0623
#
#
#
# Elastic Compliance Matrix: (Units=1/GPa)
#
#
# Indices 1 2 3 4 5 6 
#
# 1 0.015193 -0.006839 -0.003996 0.000000 0.000000 0.000000
# 2 -0.006839 0.015193 -0.003996 0.000000 0.000000 0.000000
# 3 -0.003996 -0.003996 0.021526 0.000000 0.000000 0.000000
# 4 0.000000 0.000000 0.000000 0.051303 0.000000 0.000000
# 5 0.000000 0.000000 0.000000 0.000000 0.051303 0.000000
# 6 0.000000 0.000000 0.000000 0.000000 0.000000 0.038370
#
#
# Mechanical properties :
#
#
# Convention : Reuss Voigt Hill
#
# Bulk Modulus (GPa) = 44.94456 50.63097 47.78776
# Shear Modulus (GPa) = 21.74243 22.56317 22.15280
#
# Velocity S-wave (km/s) = 3.50008 3.56553 3.53295
# Velocity P-wave (km/s) = 6.45427 6.74374 6.60059
#
# Compressibility (1/GPa) = 0.02224963
#
# Stress axis : x y z
#
# Youngs Moduli (GPa) = 65.82046 65.81913 46.45644
#
# Poissons Ratio (x) = 0.45015 0.18565
# Poissons Ratio (y) = 0.45016 0.18562
# Poissons Ratio (z) = 0.26303 0.26299
#
# Static dielectric constant tensor:
#      x y z
#    x 1.662830 0.000000 0.000000 
#    y 0.000000 1.662830 0.000000 
#    z 0.000000 0.000000 1.581930 
# 
# From -- ./inp_files/5013.got.cif
#   From: 2010.05.17/outbox.cif.g08.bks.cpg/sg141_3_cif.got.tgz:5013.got - 2010.05.20 13:30:51.
