data_PCOD9572892
_publ_section_title
;
Structure prediction by ZEFSAII (Michael W. Deem and Ramdas Pophale) SiO2 
 PCOD9572892
Probable space group: I 41/A M D
;
_chemical_formula_sum "Si O2"
_cell_formula_units_Z 164
_cell_length_a 23.258328
_cell_length_b 23.258328
_cell_length_c 16.127695
_cell_angle_alpha 90.000000
_cell_angle_beta 90.000000
_cell_angle_gamma 90.000000
_cell_volume 8724.273729
_symmetry_space_group_name_H-M "I 41/A M D"
_symmetry_group_IT_number 141
_space_group.IT_coordinate_system_code '2'
_symmetry_cell_setting 'tetragonal'
loop_
_space_group_symop_operation_xyz
x,y,z
1/4-y,3/4+x,1/4+z
-x,1/2-y,z
1/4+y,1/4-x,3/4+z
x,-y,-z
-x,1/2+y,-z
1/4+y,3/4+x,1/4-z
1/4-y,1/4-x,3/4-z
-x,-y,-z
3/4+y,1/4-x,3/4-z
x,1/2+y,-z
3/4-y,3/4+x,1/4-z
-x,y,z
x,1/2-y,z
3/4-y,1/4-x,3/4+z
3/4+y,3/4+x,1/4+z
1/2+x,1/2+y,1/2+z
3/4-y,1/4+x,3/4+z
1/2-x,-y,1/2+z
3/4+y,3/4-x,1/4+z
1/2+x,1/2-y,1/2-z
1/2-x,y,1/2-z
3/4+y,1/4+x,3/4-z
3/4-y,3/4-x,1/4-z
1/2-x,1/2-y,1/2-z
1/4+y,3/4-x,1/4-z
1/2+x,y,1/2-z
1/4-y,1/4+x,3/4-z
1/2-x,1/2+y,1/2+z
1/2+x,-y,1/2+z
1/4-y,3/4-x,1/4+z
1/4+y,1/4+x,3/4+z
loop_
_atom_site_type_symbol
_atom_site_label
_atom_site_fract_x
_atom_site_fract_y
_atom_site_fract_z
Si Si1 0.900739 0.317149 0.466110
Si Si2 0.436419 0.560300 0.548299
Si Si3 0.500000 0.320928 0.907335
Si Si4 0.000000 0.633877 0.222012
Si Si5 0.500000 0.750000 0.375000
Si Si6 0.067470 0.972331 0.758363
Si Si7 0.663565 0.872950 0.460106
O O1 0.926722 0.323279 0.375000
O O2 0.893780 0.250000 0.485457
O O3 0.944421 0.337772 0.537107
O O4 0.835657 0.339193 0.464724
O O5 0.432077 0.500000 0.500000
O O6 0.500000 0.585935 0.530837
O O7 0.433762 0.544673 0.644669
O O8 0.385086 0.601237 0.519841
O O9 0.500000 0.250000 0.896243
O O10 0.500000 0.355049 0.820934
O O11 0.000000 0.695640 0.182631
O O12 0.942889 0.602977 0.189985
O O13 0.000000 0.986407 0.734868
O O14 0.112387 0.024383 0.749491
O O15 0.659480 0.909480 0.375000
#
# Coordination Sequence:
#
# PCOD9572892 Si02
#       7
#    32  32  16  16   4  32  32
#     4  10  19  35  64  92 119 146 195 254 310 371
#     4  10  21  36  59  83 113 150 203 251 285 345
#     4  10  20  34  58  93 124 150 182 251 315 369
#     4  12  24  34  49  83 127 155 189 236 304 354
#     4  12  24  32  44  76 122 164 192 224 308 352
#     4  10  21  39  58  86 118 161 197 239 303 361
#     4  12  23  35  57  81 117 160 201 241 283 351
#
# _framework density 18.798127000000001
#
# number of rings (size 3 to 8) (size 9 to 14) (size 15 to 20)
#    0.000    1.366    5.366    1.171    2.732    1.561 
#    0.000    0.000    4.293    4.683    0.000    0.000 
#    0.000    0.000    0.000    0.000    0.000    0.000 
#
# Total GULP energy -457427.245308 kJ/mol
# GULP energy per Si atom -5578.381040 kJ/mol
# Density = 1.875534 g / cm^3
# Si number density = 18.798127 Si / 1000 Ang^3
#
#
#
# Elastic Constant Matrix: (Units=GPa)
#
#
# Indices 1 2 3 4 5 6 
#
# 1 75.2782 36.3206 -4.0706 0.0000 0.0000 0.0000
# 2 36.3206 75.2804 -4.0698 0.0000 0.0000 0.0000
# 3 -4.0706 -4.0698 41.7484 0.0000 0.0000 0.0000
# 4 0.0000 0.0000 0.0000 7.7319 0.0000 0.0000
# 5 0.0000 0.0000 0.0000 0.0000 7.7312 0.0000
# 6 0.0000 0.0000 0.0000 0.0000 0.0000 8.7395
#
#
#
# Elastic Compliance Matrix: (Units=1/GPa)
#
#
# Indices 1 2 3 4 5 6 
#
# 1 0.017347 -0.008322 0.000880 0.000000 0.000000 0.000000
# 2 -0.008322 0.017346 0.000880 0.000000 0.000000 0.000000
# 3 0.000880 0.000880 0.024125 0.000000 0.000000 0.000000
# 4 0.000000 0.000000 0.000000 0.129335 0.000000 0.000000
# 5 0.000000 0.000000 0.000000 0.000000 0.129346 0.000000
# 6 0.000000 0.000000 0.000000 0.000000 0.000000 0.114423
#
#
# Mechanical properties :
#
#
# Convention : Reuss Voigt Hill
#
# Bulk Modulus (GPa) = 21.88494 27.62970 24.75732
# Shear Modulus (GPa) = 10.86303 15.78230 13.32267
#
# Velocity S-wave (km/s) = 2.40652 2.90067 2.66507
# Velocity P-wave (km/s) = 4.40331 5.09397 4.76118
#
# Compressibility (1/GPa) = 0.04569352
#
# Stress axis : x y z
#
# Youngs Moduli (GPa) = 57.64764 57.64948 41.45154
#
# Poissons Ratio (x) = 0.47974 -0.03648
# Poissons Ratio (y) = 0.47973 -0.03646
# Poissons Ratio (z) = -0.05074 -0.05071
#
# Static dielectric constant tensor:
#      x y z
#    x 1.702680 0.000000 0.000000 
#    y 0.000000 1.702680 0.000000 
#    z 0.000000 0.000000 1.641900 
# 
# From -- ./inp_files/8843.got.cif
#   From: 2010.05.17/outbox.cif.g08.bks.cpg/sg141_5_cif.got.tgz:8843.got - 2010.05.20 13:30:51.
