data_PCOD9572755
_publ_section_title
;
Structure prediction by ZEFSAII (Michael W. Deem and Ramdas Pophale) SiO2 
 PCOD9572755
Probable space group: I 41/A M D
;
_chemical_formula_sum "Si O2"
_cell_formula_units_Z 80
_cell_length_a 13.960962
_cell_length_b 13.960962
_cell_length_c 15.296283
_cell_angle_alpha 90.000000
_cell_angle_beta 90.000000
_cell_angle_gamma 90.000000
_cell_volume 2981.374963
_symmetry_space_group_name_H-M "I 41/A M D"
_symmetry_group_IT_number 141
_space_group.IT_coordinate_system_code '2'
_symmetry_cell_setting 'tetragonal'
loop_
_space_group_symop_operation_xyz
x,y,z
1/4-y,3/4+x,1/4+z
-x,1/2-y,z
1/4+y,1/4-x,3/4+z
x,-y,-z
-x,1/2+y,-z
1/4+y,3/4+x,1/4-z
1/4-y,1/4-x,3/4-z
-x,-y,-z
3/4+y,1/4-x,3/4-z
x,1/2+y,-z
3/4-y,3/4+x,1/4-z
-x,y,z
x,1/2-y,z
3/4-y,1/4-x,3/4+z
3/4+y,3/4+x,1/4+z
1/2+x,1/2+y,1/2+z
3/4-y,1/4+x,3/4+z
1/2-x,-y,1/2+z
3/4+y,3/4-x,1/4+z
1/2+x,1/2-y,1/2-z
1/2-x,y,1/2-z
3/4+y,1/4+x,3/4-z
3/4-y,3/4-x,1/4-z
1/2-x,1/2-y,1/2-z
1/4+y,3/4-x,1/4-z
1/2+x,y,1/2-z
1/4-y,1/4+x,3/4-z
1/2-x,1/2+y,1/2+z
1/2+x,-y,1/2+z
1/4-y,3/4-x,1/4+z
1/4+y,1/4+x,3/4+z
loop_
_atom_site_type_symbol
_atom_site_label
_atom_site_fract_x
_atom_site_fract_y
_atom_site_fract_z
Si Si1 0.332683 0.852098 0.660255
Si Si2 0.311470 0.390808 0.532619
Si Si3 0.108025 0.141976 0.375000
O O1 0.365629 0.750000 0.698343
O O2 0.349020 0.844917 0.555659
O O3 0.215980 0.860503 0.666557
O O4 0.379774 0.949862 0.694812
O O5 0.312366 0.500000 0.500000
O O6 0.366290 0.383711 0.625000
O O7 0.110248 0.250000 0.414834
#
# Coordination Sequence:
#
# PCOD9572755 Si02
#       3
#    32  32  16
#     4  10  18  28  45  66  89 122 152 178 223 270
#     4   9  16  29  43  65  91 117 146 186 223 261
#     4   9  16  24  36  62  96 118 136 166 207 260
#
# _framework density 26.833255000000001
#
# number of rings (size 3 to 8) (size 9 to 14) (size 15 to 20)
#    0.000    2.600    6.000    0.000    0.000    2.400 
#    0.000    0.000    0.000   10.800    0.000    0.000 
#    0.000    0.000    0.000    0.000    0.000    0.000 
#
# Total GULP energy -222831.852115 kJ/mol
# GULP energy per Si atom -5570.796303 kJ/mol
# Density = 2.677218 g / cm^3
# Si number density = 26.833255 Si / 1000 Ang^3
#
#
#
# Elastic Constant Matrix: (Units=GPa)
#
#
# Indices 1 2 3 4 5 6 
#
# 1 62.5079 4.0398 0.6182 0.0000 0.0000 0.0000
# 2 4.0398 62.5077 0.6184 0.0000 0.0000 0.0000
# 3 0.6182 0.6184 160.1047 0.0000 0.0000 0.0000
# 4 0.0000 0.0000 0.0000 33.3174 0.0000 0.0000
# 5 0.0000 0.0000 0.0000 0.0000 33.3176 0.0000
# 6 0.0000 0.0000 0.0000 0.0000 0.0000 2.8776
#
#
#
# Elastic Compliance Matrix: (Units=1/GPa)
#
#
# Indices 1 2 3 4 5 6 
#
# 1 0.016066 -0.001038 -0.000058 0.000000 0.000000 0.000000
# 2 -0.001038 0.016066 -0.000058 0.000000 0.000000 0.000000
# 3 -0.000058 -0.000058 0.006246 0.000000 0.000000 0.000000
# 4 0.000000 0.000000 0.000000 0.030014 0.000000 0.000000
# 5 0.000000 0.000000 0.000000 0.000000 0.030014 0.000000
# 6 0.000000 0.000000 0.000000 0.000000 0.000000 0.347510
#
#
# Mechanical properties :
#
#
# Convention : Reuss Voigt Hill
#
# Bulk Modulus (GPa) = 27.72385 32.85258 30.28822
# Shear Modulus (GPa) = 10.86373 32.55877 21.71125
#
# Velocity S-wave (km/s) = 2.01430 3.48713 2.84758
# Velocity P-wave (km/s) = 3.97041 5.33697 4.70359
#
# Compressibility (1/GPa) = 0.03607003
#
# Stress axis : x y z
#
# Youngs Moduli (GPa) = 62.24473 62.24456 160.09319
#
# Poissons Ratio (x) = 0.06459 0.00929
# Poissons Ratio (y) = 0.06459 0.00929
# Poissons Ratio (z) = 0.00361 0.00361
#
# Static dielectric constant tensor:
#      x y z
#    x 2.053680 0.000000 0.000000 
#    y 0.000000 2.053680 0.000000 
#    z 0.000000 0.000000 2.524070 
# 
# From -- ./inp_files/10910.got.cif
#   From: 2010.05.17/outbox.cif.g08.bks.cpg/sg141_6_cif.got.tgz:10910.got - 2010.05.20 13:30:51.
