data_PCOD9572010
_publ_section_title
;
Structure prediction by ZEFSAII (Michael W. Deem and Ramdas Pophale) SiO2 
 PCOD9572010
Probable space group: I 4/M C M
;
_chemical_formula_sum "Si O2"
_cell_formula_units_Z 192
_cell_length_a 16.729321
_cell_length_b 16.729321
_cell_length_c 28.428665
_cell_angle_alpha 90.000000
_cell_angle_beta 90.000000
_cell_angle_gamma 90.000000
_cell_volume 7956.335623
_symmetry_space_group_name_H-M "I 4/M C M"
_symmetry_group_IT_number 140
_symmetry_cell_setting 'tetragonal'
loop_
_space_group_symop_operation_xyz
x,y,z
-y,x,z
-x,-y,z
y,-x,z
x,-y,1/2-z
-x,y,1/2-z
y,x,1/2-z
-y,-x,1/2-z
-x,-y,-z
y,-x,-z
x,y,-z
-y,x,-z
-x,y,1/2+z
x,-y,1/2+z
-y,-x,1/2+z
y,x,1/2+z
1/2+x,1/2+y,1/2+z
1/2-y,1/2+x,1/2+z
1/2-x,1/2-y,1/2+z
1/2+y,1/2-x,1/2+z
1/2+x,1/2-y,-z
1/2-x,1/2+y,-z
1/2+y,1/2+x,-z
1/2-y,1/2-x,-z
1/2-x,1/2-y,1/2-z
1/2+y,1/2-x,1/2-z
1/2+x,1/2+y,1/2-z
1/2-y,1/2+x,1/2-z
1/2-x,1/2+y,z
1/2+x,1/2-y,z
1/2-y,1/2-x,z
1/2+y,1/2+x,z
loop_
_atom_site_type_symbol
_atom_site_label
_atom_site_fract_x
_atom_site_fract_y
_atom_site_fract_z
Si Si1 0.365916 0.359261 0.304943
Si Si2 0.795444 0.704557 0.049740
Si Si3 0.876418 0.034561 0.606411
Si Si4 0.943424 0.688436 0.816465
Si Si5 0.286712 0.024872 0.424983
Si Si6 0.597815 0.902186 0.084934
Si Si7 0.064421 0.564421 0.811870
Si Si8 0.283183 0.783183 0.641299
O O1 0.374334 0.374334 0.250000
O O2 0.377814 0.437145 0.338461
O O3 0.422616 0.280811 0.309379
O O4 0.280870 0.327565 0.325422
O O5 0.890413 0.722705 0.050452
O O6 0.761560 0.738441 0.098553
O O7 0.762498 0.737503 0.000000
O O8 0.946368 0.094191 0.591506
O O9 0.789594 0.033270 0.583683
O O10 0.870741 0.629260 0.801544
O O11 0.950169 0.686101 0.872664
O O12 0.027997 0.650985 0.798617
O O13 0.355222 0.967948 0.443894
O O14 0.560147 0.939854 0.131756
O O15 0.658053 0.841947 0.113131
O O16 0.000000 0.500000 0.795841
#
# Coordination Sequence:
#
# PCOD9572010 Si02
#       8
#    32  16  32  32  32  16  16  16
#     4  12  23  37  65 104 147 197 253 307 361 425
#     4  12  26  46  79 106 135 179 232 304 382 454
#     4  11  23  40  63  92 136 194 245 292 352 414
#     4  10  17  35  61  91 131 183 235 290 347 426
#     4  11  20  42  68  98 136 178 229 288 370 432
#     4  10  22  33  71 101 132 186 230 275 348 451
#     4   8  18  32  59  94 121 174 236 280 350 415
#     4  12  21  44  65 106 143 195 244 296 364 429
#
# _framework density 24.131713000000001
#
# number of rings (size 3 to 8) (size 9 to 14) (size 15 to 20)
#    0.000    1.167    6.667    0.250    1.167    0.667 
#    0.000    2.500    0.000    1.000    2.167    4.667 
#    0.000    0.000    0.000    0.000    0.000    0.000 
#
# Total GULP energy -535008.711017 kJ/mol
# GULP energy per Si atom -5573.007406 kJ/mol
# Density = 2.407679 g / cm^3
# Si number density = 24.131713 Si / 1000 Ang^3
#
#
#
# Elastic Constant Matrix: (Units=GPa)
#
#
# Indices 1 2 3 4 5 6 
#
# 1 78.8090 72.2874 -0.7927 0.0000 0.0000 0.0000
# 2 72.2874 78.8088 -0.7929 0.0000 0.0000 0.0000
# 3 -0.7927 -0.7929 62.9889 0.0000 0.0000 0.0000
# 4 0.0000 0.0000 0.0000 -19.9433 0.0000 0.0000
# 5 0.0000 0.0000 0.0000 0.0000 -19.9431 0.0000
# 6 0.0000 0.0000 0.0000 0.0000 0.0000 281.7764
#
#
#
# Elastic Compliance Matrix: (Units=1/GPa)
#
#
# Indices 1 2 3 4 5 6 
#
# 1 0.079979 -0.073360 0.000083 0.000000 0.000000 0.000000
# 2 -0.073360 0.079979 0.000084 0.000000 0.000000 0.000000
# 3 0.000083 0.000084 0.015878 0.000000 0.000000 0.000000
# 4 0.000000 0.000000 0.000000 -0.050142 0.000000 0.000000
# 5 0.000000 0.000000 0.000000 0.000000 -0.050143 0.000000
# 6 0.000000 0.000000 0.000000 0.000000 0.000000 0.003549
#
#
# Mechanical properties :
#
#
# Convention : Reuss Voigt Hill
#
# Bulk Modulus (GPa) = 33.95642 40.22335 37.08988
# Shear Modulus (GPa) = 21.24931 58.37166 39.81049
#
# Velocity S-wave (km/s) = 2.97063 4.92354 4.06608
# Velocity P-wave (km/s) = 5.08607 7.00187 6.11940
#
# Compressibility (1/GPa) = 0.02944951
#
# Stress axis : x y z
#
# Youngs Moduli (GPa) = 12.50335 12.50331 62.98057
#
# Poissons Ratio (x) = 0.91724 -0.00523
# Poissons Ratio (y) = 0.91724 -0.00527
# Poissons Ratio (z) = -0.00104 -0.00105
#
# Static dielectric constant tensor:
#      x y z
#    x 2.017630 0.000000 0.000000 
#    y 0.000000 2.017630 0.000000 
#    z 0.000000 0.000000 1.952930 
# 
# From -- ./inp_files/11667.got.cif
#   From: 2010.05.17/outbox.cif.g08.bks.cpg/sg140_6_cif.got.tgz:11667.got - 2010.06.21 00:45:31.
