data_PCOD9572283
_publ_section_title
;
Structure prediction by ZEFSAII (Michael W. Deem and Ramdas Pophale) SiO2 
 PCOD9572283
Probable space group: I 4/M C M
;
_chemical_formula_sum "Si O2"
_cell_formula_units_Z 80
_cell_length_a 17.782759
_cell_length_b 17.782759
_cell_length_c 11.049515
_cell_angle_alpha 90.000000
_cell_angle_beta 90.000000
_cell_angle_gamma 90.000000
_cell_volume 3494.149650
_symmetry_space_group_name_H-M "I 4/M C M"
_symmetry_group_IT_number 140
_symmetry_cell_setting 'tetragonal'
loop_
_space_group_symop_operation_xyz
x,y,z
-y,x,z
-x,-y,z
y,-x,z
x,-y,1/2-z
-x,y,1/2-z
y,x,1/2-z
-y,-x,1/2-z
-x,-y,-z
y,-x,-z
x,y,-z
-y,x,-z
-x,y,1/2+z
x,-y,1/2+z
-y,-x,1/2+z
y,x,1/2+z
1/2+x,1/2+y,1/2+z
1/2-y,1/2+x,1/2+z
1/2-x,1/2-y,1/2+z
1/2+y,1/2-x,1/2+z
1/2+x,1/2-y,-z
1/2-x,1/2+y,-z
1/2+y,1/2+x,-z
1/2-y,1/2-x,-z
1/2-x,1/2-y,1/2-z
1/2+y,1/2-x,1/2-z
1/2+x,1/2+y,1/2-z
1/2-y,1/2+x,1/2-z
1/2-x,1/2+y,z
1/2+x,1/2-y,z
1/2-y,1/2-x,z
1/2+y,1/2+x,z
loop_
_atom_site_type_symbol
_atom_site_label
_atom_site_fract_x
_atom_site_fract_y
_atom_site_fract_z
Si Si1 0.712987 0.212987 0.627891
Si Si2 0.637640 0.137640 0.860731
Si Si3 0.103120 0.839761 0.133146
Si Si4 0.500000 0.214310 0.750000
O O1 0.681423 0.181423 0.500000
O O2 0.679017 0.179017 0.748917
O O3 0.799101 0.185110 0.624989
O O4 0.552423 0.162274 0.832967
O O5 0.655986 0.155986 0.000000
O O6 0.106589 0.893412 0.250000
O O7 0.047475 0.771310 0.165219
O O8 0.087047 0.872056 0.000000
#
# Coordination Sequence:
#
# PCOD9572283 Si02
#       4
#    16  16  32  16
#     4   8  17  33  52  80 114 144 183 239 296 342
#     4  10  20  36  60  83 112 157 199 236 280 338
#     4  10  20  34  55  82 114 150 189 237 289 342
#     4  10  22  39  58  87 118 150 194 242 286 338
#
# _framework density 22.895413999999999
#
# number of rings (size 3 to 8) (size 9 to 14) (size 15 to 20)
#    0.000    2.400    0.000    1.800    0.000   10.000 
#    0.000    3.000    0.000    0.600    0.000    2.800 
#    0.000    0.000    0.000    0.000    0.000    0.000 
#
# Total GULP energy -222812.483854 kJ/mol
# GULP energy per Si atom -5570.312096 kJ/mol
# Density = 2.284330 g / cm^3
# Si number density = 22.895414 Si / 1000 Ang^3
#
#
#
# Elastic Constant Matrix: (Units=GPa)
#
#
# Indices 1 2 3 4 5 6 
#
# 1 121.6825 -40.2191 47.5713 0.0000 0.0000 0.0000
# 2 -40.2191 121.6904 47.5738 0.0000 0.0000 0.0000
# 3 47.5713 47.5738 278.2427 0.0000 0.0000 0.0000
# 4 0.0000 0.0000 0.0000 23.0216 0.0000 0.0000
# 5 0.0000 0.0000 0.0000 0.0000 23.0218 0.0000
# 6 0.0000 0.0000 0.0000 0.0000 0.0000 42.7339
#
#
#
# Elastic Compliance Matrix: (Units=1/GPa)
#
#
# Indices 1 2 3 4 5 6 
#
# 1 0.010757 0.004580 -0.002622 0.000000 0.000000 0.000000
# 2 0.004580 0.010757 -0.002622 0.000000 0.000000 0.000000
# 3 -0.002622 -0.002622 0.004491 0.000000 0.000000 0.000000
# 4 0.000000 0.000000 0.000000 0.043438 0.000000 0.000000
# 5 0.000000 0.000000 0.000000 0.000000 0.043437 0.000000
# 6 0.000000 0.000000 0.000000 0.000000 0.000000 0.023401
#
#
# Mechanical properties :
#
#
# Convention : Reuss Voigt Hill
#
# Bulk Modulus (GPa) = 40.52475 70.16308 55.34392
# Shear Modulus (GPa) = 34.28567 48.86809 41.57688
#
# Velocity S-wave (km/s) = 3.87394 4.62497 4.26602
# Velocity P-wave (km/s) = 6.14396 7.69624 6.96349
#
# Compressibility (1/GPa) = 0.02467628
#
# Stress axis : x y z
#
# Youngs Moduli (GPa) = 92.96038 92.96615 222.68311
#
# Poissons Ratio (x) = -0.42583 0.58395
# Poissons Ratio (y) = -0.42580 0.58394
# Poissons Ratio (z) = 0.24377 0.24378
#
# Static dielectric constant tensor:
#      x y z
#    x 1.929110 0.000000 0.000000 
#    y 0.000000 1.929110 0.000000 
#    z 0.000000 0.000000 1.916060 
# 
# From -- ./inp_files/869.got.cif
#   From: 2010.05.17/outbox.cif.g08.bks.cpg/sg140_1_cif.got.tgz:869.got - 2010.06.21 00:45:31.
