data_PCOD9572874
_publ_section_title
;
Structure prediction by ZEFSAII (Michael W. Deem and Ramdas Pophale) SiO2 
 PCOD9572874
Probable space group: I 41/A M D
;
_chemical_formula_sum "Si O2"
_cell_formula_units_Z 160
_cell_length_a 22.219550
_cell_length_b 22.219550
_cell_length_c 18.660208
_cell_angle_alpha 90.000000
_cell_angle_beta 90.000000
_cell_angle_gamma 90.000000
_cell_volume 9212.701476
_symmetry_space_group_name_H-M "I 41/A M D"
_symmetry_group_IT_number 141
_space_group.IT_coordinate_system_code '2'
_symmetry_cell_setting 'tetragonal'
loop_
_space_group_symop_operation_xyz
x,y,z
1/4-y,3/4+x,1/4+z
-x,1/2-y,z
1/4+y,1/4-x,3/4+z
x,-y,-z
-x,1/2+y,-z
1/4+y,3/4+x,1/4-z
1/4-y,1/4-x,3/4-z
-x,-y,-z
3/4+y,1/4-x,3/4-z
x,1/2+y,-z
3/4-y,3/4+x,1/4-z
-x,y,z
x,1/2-y,z
3/4-y,1/4-x,3/4+z
3/4+y,3/4+x,1/4+z
1/2+x,1/2+y,1/2+z
3/4-y,1/4+x,3/4+z
1/2-x,-y,1/2+z
3/4+y,3/4-x,1/4+z
1/2+x,1/2-y,1/2-z
1/2-x,y,1/2-z
3/4+y,1/4+x,3/4-z
3/4-y,3/4-x,1/4-z
1/2-x,1/2-y,1/2-z
1/4+y,3/4-x,1/4-z
1/2+x,y,1/2-z
1/4-y,1/4+x,3/4-z
1/2-x,1/2+y,1/2+z
1/2+x,-y,1/2+z
1/4-y,3/4-x,1/4+z
1/4+y,1/4+x,3/4+z
loop_
_atom_site_type_symbol
_atom_site_label
_atom_site_fract_x
_atom_site_fract_y
_atom_site_fract_z
Si Si1 0.381870 0.036772 0.601148
Si Si2 0.869029 0.322284 0.444539
Si Si3 0.931528 0.518415 0.254522
Si Si4 0.123782 0.405005 0.042063
Si Si5 0.067504 0.178249 0.591058
O O1 0.322351 0.072351 0.625000
O O2 0.425147 0.025674 0.668472
O O3 0.405315 0.078452 0.535424
O O4 0.365326 0.970630 0.574389
O O5 0.891305 0.358696 0.375000
O O6 0.878154 0.250000 0.432664
O O7 0.799139 0.330217 0.467276
O O8 0.907446 0.342293 0.514035
O O9 0.882118 0.564800 0.282902
O O10 0.000000 0.534120 0.274984
O O11 0.086027 0.364164 0.095971
O O12 0.064215 0.250000 0.585888
O O13 0.000000 0.154897 0.604813
#
# Coordination Sequence:
#
# PCOD9572874 Si02
#       5
#    32  32  32  32  32
#     4   9  19  34  54  79 107 142 182 220 268 329
#     4  10  20  35  54  77 105 143 187 228 275 330
#     4  10  20  35  54  79 110 142 179 226 275 327
#     4  10  19  34  55  80 108 139 180 226 273 324
#     4  10  20  34  54  80 109 143 184 230 280 333
#
# _framework density 17.367328000000001
#
# number of rings (size 3 to 8) (size 9 to 14) (size 15 to 20)
#    0.000    2.200    2.000    1.200    0.000    2.600 
#    0.000    3.000    0.000    3.600    0.000    9.800 
#    0.000    0.000    0.000    0.000    0.000    0.000 
#
# Total GULP energy -445425.013434 kJ/mol
# GULP energy per Si atom -5567.812668 kJ/mol
# Density = 1.732780 g / cm^3
# Si number density = 17.367328 Si / 1000 Ang^3
#
#
#
# Elastic Constant Matrix: (Units=GPa)
#
#
# Indices 1 2 3 4 5 6 
#
# 1 69.2947 27.6659 41.2377 0.0000 0.0000 0.0000
# 2 27.6659 69.2945 41.2376 0.0000 0.0000 0.0000
# 3 41.2377 41.2376 113.2717 0.0000 0.0000 0.0000
# 4 0.0000 0.0000 0.0000 34.2638 0.0000 0.0000
# 5 0.0000 0.0000 0.0000 0.0000 34.2662 0.0000
# 6 0.0000 0.0000 0.0000 0.0000 0.0000 13.6787
#
#
#
# Elastic Compliance Matrix: (Units=1/GPa)
#
#
# Indices 1 2 3 4 5 6 
#
# 1 0.019481 -0.004541 -0.005439 0.000000 0.000000 0.000000
# 2 -0.004541 0.019481 -0.005439 0.000000 0.000000 0.000000
# 3 -0.005439 -0.005439 0.012789 0.000000 0.000000 0.000000
# 4 0.000000 0.000000 0.000000 0.029185 0.000000 0.000000
# 5 0.000000 0.000000 0.000000 0.000000 0.029183 0.000000
# 6 0.000000 0.000000 0.000000 0.000000 0.000000 0.073106
#
#
# Mechanical properties :
#
#
# Convention : Reuss Voigt Hill
#
# Bulk Modulus (GPa) = 47.81859 52.46038 50.13949
# Shear Modulus (GPa) = 22.62093 25.88972 24.25533
#
# Velocity S-wave (km/s) = 3.61293 3.86517 3.74117
# Velocity P-wave (km/s) = 6.70804 7.08458 6.89888
#
# Compressibility (1/GPa) = 0.02091237
#
# Stress axis : x y z
#
# Youngs Moduli (GPa) = 51.33227 51.33222 78.19466
#
# Poissons Ratio (x) = 0.23310 0.42530
# Poissons Ratio (y) = 0.23310 0.42530
# Poissons Ratio (z) = 0.27920 0.27920
#
# Static dielectric constant tensor:
#      x y z
#    x 1.569070 0.000000 0.000000 
#    y 0.000000 1.569070 0.000000 
#    z 0.000000 0.000000 1.650630 
# 
# From -- ./inp_files/8565.got.cif
#   From: 2010.05.17/outbox.cif.g08.bks.cpg/sg141_5_cif.got.tgz:8565.got - 2010.05.20 13:30:51.
