data_PCOD9572261
_publ_section_title
;
Structure prediction by ZEFSAII (Michael W. Deem and Ramdas Pophale) SiO2 
 PCOD9572261
Probable space group: I 4/M C M
;
_chemical_formula_sum "Si O2"
_cell_formula_units_Z 144
_cell_length_a 30.265362
_cell_length_b 30.265362
_cell_length_c 8.182157
_cell_angle_alpha 90.000000
_cell_angle_beta 90.000000
_cell_angle_gamma 90.000000
_cell_volume 7494.791476
_symmetry_space_group_name_H-M "I 4/M C M"
_symmetry_group_IT_number 140
_symmetry_cell_setting 'tetragonal'
loop_
_space_group_symop_operation_xyz
x,y,z
-y,x,z
-x,-y,z
y,-x,z
x,-y,1/2-z
-x,y,1/2-z
y,x,1/2-z
-y,-x,1/2-z
-x,-y,-z
y,-x,-z
x,y,-z
-y,x,-z
-x,y,1/2+z
x,-y,1/2+z
-y,-x,1/2+z
y,x,1/2+z
1/2+x,1/2+y,1/2+z
1/2-y,1/2+x,1/2+z
1/2-x,1/2-y,1/2+z
1/2+y,1/2-x,1/2+z
1/2+x,1/2-y,-z
1/2-x,1/2+y,-z
1/2+y,1/2+x,-z
1/2-y,1/2-x,-z
1/2-x,1/2-y,1/2-z
1/2+y,1/2-x,1/2-z
1/2+x,1/2+y,1/2-z
1/2-y,1/2+x,1/2-z
1/2-x,1/2+y,z
1/2+x,1/2-y,z
1/2-y,1/2-x,z
1/2+y,1/2+x,z
loop_
_atom_site_type_symbol
_atom_site_label
_atom_site_fract_x
_atom_site_fract_y
_atom_site_fract_z
Si Si1 0.786599 0.713402 0.197119
Si Si2 0.452379 0.617551 0.194173
Si Si3 0.717101 0.452249 0.303200
Si Si4 0.888076 0.707167 0.199593
Si Si5 0.377464 0.948288 0.197417
O O1 0.750000 0.750000 0.250000
O O2 0.837942 0.718429 0.249962
O O3 0.785333 0.714668 0.000000
O O4 0.500000 0.600569 0.250000
O O5 0.413752 0.586249 0.250000
O O6 0.446930 0.667316 0.260295
O O7 0.452519 0.619847 0.000000
O O8 0.733431 0.500000 0.250000
O O9 0.715943 0.450393 0.500000
O O10 0.751223 0.416367 0.245266
O O11 0.915358 0.663012 0.250777
O O12 0.886808 0.704392 0.000000
O O13 0.422815 0.922815 0.247572
O O14 0.373974 0.000000 0.250000
O O15 0.376177 0.948708 0.000000
#
# Coordination Sequence:
#
# PCOD9572261 Si02
#       5
#    16  32  32  32  32
#     4  10  20  36  56  78 107 142 179 219 262 319
#     4  10  20  34  51  73 101 132 167 210 258 312
#     4   9  18  32  52  77 102 131 170 214 260 307
#     4   9  17  34  57  77 104 144 183 217 264 327
#     4  10  20  35  56  81 109 147 190 231 279 332
#
# _framework density 19.213343999999999
#
# number of rings (size 3 to 8) (size 9 to 14) (size 15 to 20)
#    0.000    2.444    1.111    1.333    0.000    2.667 
#    0.000    4.444    0.000    0.000    0.000    0.000 
#    0.000    0.000    0.000    0.000    0.000    0.000 
#
# Total GULP energy -400992.617590 kJ/mol
# GULP energy per Si atom -5569.341911 kJ/mol
# Density = 1.916961 g / cm^3
# Si number density = 19.213344 Si / 1000 Ang^3
#
#
#
# Elastic Constant Matrix: (Units=GPa)
#
#
# Indices 1 2 3 4 5 6 
#
# 1 126.7636 125.3658 11.9756 0.0000 0.0000 0.0000
# 2 125.3658 126.7250 11.9730 0.0000 0.0000 0.0000
# 3 11.9756 11.9730 12.6867 0.0000 0.0000 0.0000
# 4 0.0000 0.0000 0.0000 17.2783 0.0000 0.0000
# 5 0.0000 0.0000 0.0000 0.0000 17.2745 0.0000
# 6 0.0000 0.0000 0.0000 0.0000 0.0000 10.7613
#
#
#
# Elastic Compliance Matrix: (Units=1/GPa)
#
#
# Indices 1 2 3 4 5 6 
#
# 1 0.364825 -0.360521 -0.004139 0.000000 0.000000 0.000000
# 2 -0.360521 0.364931 -0.004087 0.000000 0.000000 0.000000
# 3 -0.004139 -0.004087 0.086586 0.000000 0.000000 0.000000
# 4 0.000000 0.000000 0.000000 0.057876 0.000000 0.000000
# 5 0.000000 0.000000 0.000000 0.000000 0.057889 0.000000
# 6 0.000000 0.000000 0.000000 0.000000 0.000000 0.092926
#
#
# Mechanical properties :
#
#
# Convention : Reuss Voigt Hill
#
# Bulk Modulus (GPa) = 12.68226 62.75601 37.71913
# Shear Modulus (GPa) = 2.79516 16.85356 9.82436
#
# Velocity S-wave (km/s) = 1.20746 2.96494 2.26371
# Velocity P-wave (km/s) = 2.92558 6.66744 5.14848
#
# Compressibility (1/GPa) = 0.07885033
#
# Stress axis : x y z
#
# Youngs Moduli (GPa) = 2.74104 2.74024 11.54921
#
# Poissons Ratio (x) = 0.98791 0.04780
# Poissons Ratio (y) = 0.98820 0.04720
# Poissons Ratio (z) = 0.01134 0.01120
#
# Static dielectric constant tensor:
#      x y z
#    x 1.667170 0.000000 0.000000 
#    y 0.000000 1.667160 0.000000 
#    z 0.000000 0.000000 1.678890 
# 
# From -- ./inp_files/3082.got.cif
#   From: 2010.05.17/outbox.cif.g08.bks.cpg/sg140_2_cif.got.tgz:3082.got - 2010.06.21 00:45:31.
