data_PCOD9572328
_publ_section_title
;
Structure prediction by ZEFSAII (Michael W. Deem and Ramdas Pophale) SiO2 
 PCOD9572328
Probable space group: I 4/M C M
;
_chemical_formula_sum "Si O2"
_cell_formula_units_Z 144
_cell_length_a 21.881792
_cell_length_b 21.881792
_cell_length_c 17.409707
_cell_angle_alpha 90.000000
_cell_angle_beta 90.000000
_cell_angle_gamma 90.000000
_cell_volume 8335.990924
_symmetry_space_group_name_H-M "I 4/M C M"
_symmetry_group_IT_number 140
_symmetry_cell_setting 'tetragonal'
loop_
_space_group_symop_operation_xyz
x,y,z
-y,x,z
-x,-y,z
y,-x,z
x,-y,1/2-z
-x,y,1/2-z
y,x,1/2-z
-y,-x,1/2-z
-x,-y,-z
y,-x,-z
x,y,-z
-y,x,-z
-x,y,1/2+z
x,-y,1/2+z
-y,-x,1/2+z
y,x,1/2+z
1/2+x,1/2+y,1/2+z
1/2-y,1/2+x,1/2+z
1/2-x,1/2-y,1/2+z
1/2+y,1/2-x,1/2+z
1/2+x,1/2-y,-z
1/2-x,1/2+y,-z
1/2+y,1/2+x,-z
1/2-y,1/2-x,-z
1/2-x,1/2-y,1/2-z
1/2+y,1/2-x,1/2-z
1/2+x,1/2+y,1/2-z
1/2-y,1/2+x,1/2-z
1/2-x,1/2+y,z
1/2+x,1/2-y,z
1/2-y,1/2-x,z
1/2+y,1/2+x,z
loop_
_atom_site_type_symbol
_atom_site_label
_atom_site_fract_x
_atom_site_fract_y
_atom_site_fract_z
Si Si1 0.837207 0.761533 0.588253
Si Si2 0.962056 0.310681 0.908682
Si Si3 0.318542 0.506970 0.407791
Si Si4 0.623713 0.615339 0.660774
Si Si5 0.050482 0.449519 0.594218
O O1 0.844273 0.784359 0.500000
O O2 0.774756 0.725245 0.594308
O O3 0.892805 0.713988 0.600270
O O4 0.843266 0.816764 0.646309
O O5 0.966462 0.380285 0.879413
O O6 0.001940 0.252589 0.880106
O O7 0.974210 0.314909 0.000000
O O8 0.317762 0.502993 0.500000
O O9 0.356022 0.449287 0.375157
O O10 0.352527 0.567504 0.381133
O O11 0.608967 0.608967 0.750000
O O12 0.052069 0.447932 0.500000
O O13 0.000000 0.500000 0.616224
#
# Coordination Sequence:
#
# PCOD9572328 Si02
#       5
#    32  32  32  32  16
#     4   9  16  30  53  75  98 135 184 224 257 310
#     4   8  14  26  46  71 100 132 171 215 252 301
#     4  10  20  36  55  74 101 142 185 221 264 321
#     4  11  22  35  52  78 110 137 176 225 283 329
#     4   9  14  22  42  76 111 136 162 204 262 316
#
# _framework density 17.27449
#
# number of rings (size 3 to 8) (size 9 to 14) (size 15 to 20)
#    0.000    2.556    1.111    4.000    0.000    0.889 
#    0.000    3.333    0.000    4.000    0.000    0.000 
#    0.000    0.000    0.000    0.000    0.000    0.000 
#
# Total GULP energy -400953.892957 kJ/mol
# GULP energy per Si atom -5568.804069 kJ/mol
# Density = 1.723517 g / cm^3
# Si number density = 17.274490 Si / 1000 Ang^3
#
#
#
# Elastic Constant Matrix: (Units=GPa)
#
#
# Indices 1 2 3 4 5 6 
#
# 1 -60.2902 224.6465 20.6992 0.0000 0.0000 0.0000
# 2 224.6465 -60.2849 20.7004 0.0000 0.0000 0.0000
# 3 20.6992 20.7004 48.7418 0.0000 0.0000 0.0000
# 4 0.0000 0.0000 0.0000 8.3261 0.0000 0.0000
# 5 0.0000 0.0000 0.0000 0.0000 8.3261 0.0000
# 6 0.0000 0.0000 0.0000 0.0000 0.0000 26.5952
#
#
#
# Elastic Compliance Matrix: (Units=1/GPa)
#
#
# Indices 1 2 3 4 5 6 
#
# 1 0.001652 0.005161 -0.002893 0.000000 0.000000 0.000000
# 2 0.005161 0.001652 -0.002893 0.000000 0.000000 0.000000
# 3 -0.002893 -0.002893 0.022974 0.000000 0.000000 0.000000
# 4 0.000000 0.000000 0.000000 0.120104 0.000000 0.000000
# 5 0.000000 0.000000 0.000000 0.000000 0.120105 0.000000
# 6 0.000000 0.000000 0.000000 0.000000 0.000000 0.037601
#
#
# Mechanical properties :
#
#
# Convention : Reuss Voigt Hill
#
# Bulk Modulus (GPa) = 39.95787 51.13989 45.54888
# Shear Modulus (GPa) = 15.93982 -13.87581 1.03201
#
# Velocity S-wave (km/s) = 3.04095 -2.83725 0.77377
# Velocity P-wave (km/s) = 5.95913 4.35146 5.21759
#
# Compressibility (1/GPa) = 0.02502636
#
# Stress axis : x y z
#
# Youngs Moduli (GPa) = 605.44477 605.40771 43.52787
#
# Poissons Ratio (x) = -3.12470 0.12594
# Poissons Ratio (y) = -3.12489 0.12594
# Poissons Ratio (z) = 1.75179 1.75166
#
# Static dielectric constant tensor:
#      x y z
#    x 1.593230 0.000000 0.000000 
#    y 0.000000 1.593230 0.000000 
#    z 0.000000 0.000000 1.578330 
# 
# From -- ./inp_files/6685.got.cif
#   From: 2010.05.17/outbox.cif.g08.bks.cpg/sg140_4_cif.got.tgz:6685.got - 2010.06.21 00:45:31.
