data_PCOD9572544
_publ_section_title
;
Structure prediction by ZEFSAII (Michael W. Deem and Ramdas Pophale) SiO2 
 PCOD9572544
Probable space group: I 4/M C M
;
_chemical_formula_sum "Si O2"
_cell_formula_units_Z 144
_cell_length_a 27.916858
_cell_length_b 27.916858
_cell_length_c 9.502796
_cell_angle_alpha 90.000000
_cell_angle_beta 90.000000
_cell_angle_gamma 90.000000
_cell_volume 7406.013191
_symmetry_space_group_name_H-M "I 4/M C M"
_symmetry_group_IT_number 140
_symmetry_cell_setting 'tetragonal'
loop_
_space_group_symop_operation_xyz
x,y,z
-y,x,z
-x,-y,z
y,-x,z
x,-y,1/2-z
-x,y,1/2-z
y,x,1/2-z
-y,-x,1/2-z
-x,-y,-z
y,-x,-z
x,y,-z
-y,x,-z
-x,y,1/2+z
x,-y,1/2+z
-y,-x,1/2+z
y,x,1/2+z
1/2+x,1/2+y,1/2+z
1/2-y,1/2+x,1/2+z
1/2-x,1/2-y,1/2+z
1/2+y,1/2-x,1/2+z
1/2+x,1/2-y,-z
1/2-x,1/2+y,-z
1/2+y,1/2+x,-z
1/2-y,1/2-x,-z
1/2-x,1/2-y,1/2-z
1/2+y,1/2-x,1/2-z
1/2+x,1/2+y,1/2-z
1/2-y,1/2+x,1/2-z
1/2-x,1/2+y,z
1/2+x,1/2-y,z
1/2-y,1/2-x,z
1/2+y,1/2+x,z
loop_
_atom_site_type_symbol
_atom_site_label
_atom_site_fract_x
_atom_site_fract_y
_atom_site_fract_z
Si Si1 0.720067 0.072687 0.339884
Si Si2 0.126557 0.453975 0.165590
Si Si3 0.500000 0.297500 0.250000
Si Si4 0.757201 0.176967 0.666671
Si Si5 0.954515 0.108263 0.662116
O O1 0.701541 0.077459 0.500000
O O2 0.677404 0.058465 0.236228
O O3 0.742237 0.123451 0.295741
O O4 0.762145 0.033585 0.337262
O O5 0.107626 0.500000 0.250000
O O6 0.090382 0.409618 0.180006
O O7 0.132420 0.464697 0.000000
O O8 0.534359 0.334873 0.168111
O O9 0.801998 0.198003 0.750000
O O10 0.766931 0.178391 0.500000
O O11 0.712478 0.212478 0.694935
O O12 0.908432 0.091569 0.750000
O O13 0.952408 0.092787 0.500000
O O14 0.000000 0.087563 0.750000
#
# Coordination Sequence:
#
# PCOD9572544 Si02
#       5
#    32  32  16  32  32
#     4  11  22  40  65  92 126 167 210 258 312 371
#     4  11  25  43  66  97 129 165 208 255 309 369
#     4  10  24  38  63  90 127 160 210 258 320 364
#     4   9  19  36  59  88 122 162 205 250 303 363
#     4  10  22  40  63  88 121 159 206 259 316 375
#
# _framework density 19.443660000000001
#
# number of rings (size 3 to 8) (size 9 to 14) (size 15 to 20)
#    0.667    1.111    1.111    2.667    0.000    5.778 
#    0.000    6.667    0.000    0.000    0.000    0.000 
#    0.000    0.000    0.000    0.000    0.000    0.000 
#
# Total GULP energy -401605.524787 kJ/mol
# GULP energy per Si atom -5577.854511 kJ/mol
# Density = 1.939941 g / cm^3
# Si number density = 19.443660 Si / 1000 Ang^3
#
#
#
# Elastic Constant Matrix: (Units=GPa)
#
#
# Indices 1 2 3 4 5 6 
#
# 1 96.9014 42.3378 50.8511 0.0000 0.0000 0.0000
# 2 42.3378 96.8998 50.8499 0.0000 0.0000 0.0000
# 3 50.8511 50.8499 128.0517 0.0000 0.0000 0.0000
# 4 0.0000 0.0000 0.0000 23.7428 0.0000 0.0000
# 5 0.0000 0.0000 0.0000 0.0000 23.7434 0.0000
# 6 0.0000 0.0000 0.0000 0.0000 0.0000 22.0103
#
#
#
# Elastic Compliance Matrix: (Units=1/GPa)
#
#
# Indices 1 2 3 4 5 6 
#
# 1 0.014222 -0.004106 -0.004017 0.000000 0.000000 0.000000
# 2 -0.004106 0.014222 -0.004017 0.000000 0.000000 0.000000
# 3 -0.004017 -0.004017 0.011000 0.000000 0.000000 0.000000
# 4 0.000000 0.000000 0.000000 0.042118 0.000000 0.000000
# 5 0.000000 0.000000 0.000000 0.000000 0.042117 0.000000
# 6 0.000000 0.000000 0.000000 0.000000 0.000000 0.045433
#
#
# Mechanical properties :
#
#
# Convention : Reuss Voigt Hill
#
# Bulk Modulus (GPa) = 65.94864 67.77006 66.85935
# Shear Modulus (GPa) = 25.19570 25.75356 25.47463
#
# Velocity S-wave (km/s) = 3.60367 3.64335 3.62356
# Velocity P-wave (km/s) = 7.16287 7.25458 7.20887
#
# Compressibility (1/GPa) = 0.01516332
#
# Stress axis : x y z
#
# Youngs Moduli (GPa) = 70.31470 70.31419 90.91000
#
# Poissons Ratio (x) = 0.28869 0.36521
# Poissons Ratio (y) = 0.28869 0.36520
# Poissons Ratio (z) = 0.28247 0.28246
#
# Static dielectric constant tensor:
#      x y z
#    x 1.681530 0.000000 0.000000 
#    y 0.000000 1.681530 0.000000 
#    z 0.000000 0.000000 1.667650 
# 
# From -- ./inp_files/1686.got.cif
#   From: 2010.05.17/outbox.cif.g08.bks.cpg/sg140_1_cif.got.tgz:1686.got - 2010.06.21 00:45:31.
