data_PCOD9572313
_publ_section_title
;
Structure prediction by ZEFSAII (Michael W. Deem and Ramdas Pophale) SiO2 
 PCOD9572313
Probable space group: I 4/M C M
;
_chemical_formula_sum "Si O2"
_cell_formula_units_Z 176
_cell_length_a 17.270800
_cell_length_b 17.270800
_cell_length_c 29.723922
_cell_angle_alpha 90.000000
_cell_angle_beta 90.000000
_cell_angle_gamma 90.000000
_cell_volume 8866.067286
_symmetry_space_group_name_H-M "I 4/M C M"
_symmetry_group_IT_number 140
_symmetry_cell_setting 'tetragonal'
loop_
_space_group_symop_operation_xyz
x,y,z
-y,x,z
-x,-y,z
y,-x,z
x,-y,1/2-z
-x,y,1/2-z
y,x,1/2-z
-y,-x,1/2-z
-x,-y,-z
y,-x,-z
x,y,-z
-y,x,-z
-x,y,1/2+z
x,-y,1/2+z
-y,-x,1/2+z
y,x,1/2+z
1/2+x,1/2+y,1/2+z
1/2-y,1/2+x,1/2+z
1/2-x,1/2-y,1/2+z
1/2+y,1/2-x,1/2+z
1/2+x,1/2-y,-z
1/2-x,1/2+y,-z
1/2+y,1/2+x,-z
1/2-y,1/2-x,-z
1/2-x,1/2-y,1/2-z
1/2+y,1/2-x,1/2-z
1/2+x,1/2+y,1/2-z
1/2-y,1/2+x,1/2-z
1/2-x,1/2+y,z
1/2+x,1/2-y,z
1/2-y,1/2-x,z
1/2+y,1/2+x,z
loop_
_atom_site_type_symbol
_atom_site_label
_atom_site_fract_x
_atom_site_fract_y
_atom_site_fract_z
Si Si1 0.644702 0.727918 0.208687
Si Si2 0.052550 0.684963 0.050532
Si Si3 0.066516 0.566516 0.690288
Si Si4 0.163726 0.206817 0.606440
Si Si5 0.895310 0.073396 0.053283
Si Si6 0.566424 0.066424 0.084322
Si Si7 0.701879 0.000000 0.250000
O O1 0.681582 0.681582 0.250000
O O2 0.690674 0.809327 0.205915
O O3 0.653713 0.692101 0.159469
O O4 0.558032 0.746307 0.221857
O O5 0.115068 0.615068 0.048695
O O6 0.091333 0.743502 0.086109
O O7 0.971702 0.643809 0.063576
O O8 0.047935 0.719211 0.000000
O O9 0.077749 0.577749 0.637420
O O10 0.144589 0.540889 0.714758
O O11 0.000000 0.500000 0.696208
O O12 0.239426 0.260575 0.599711
O O13 0.164187 0.126287 0.580082
O O14 0.982383 0.103389 0.063690
O O15 0.883245 0.081641 0.000000
O O16 0.500000 0.000000 0.079066
#
# Coordination Sequence:
#
# PCOD9572313 Si02
#       7
#    32  32  16  32  32  16  16
#     4  10  22  38  54  78 114 152 190 236 293 345
#     4   9  16  27  45  72 104 143 179 214 267 338
#     4  11  18  29  49  80 103 131 181 241 290 325
#     4  10  20  35  57  84 113 148 192 238 287 348
#     4   9  19  37  62  88 113 145 188 238 287 338
#     4   9  17  26  41  67 107 141 174 220 272 341
#     4  12  19  34  56  77 104 142 192 242 284 341
#
# _framework density 19.850967000000001
#
# number of rings (size 3 to 8) (size 9 to 14) (size 15 to 20)
#    0.000    2.182    1.818    2.455    0.000    6.545 
#    0.000    0.000    2.000    0.273    0.000    0.000 
#    0.000    0.000    0.000    0.000    0.000    0.000 
#
# Total GULP energy -491225.941902 kJ/mol
# GULP energy per Si atom -5582.112976 kJ/mol
# Density = 1.980579 g / cm^3
# Si number density = 19.850967 Si / 1000 Ang^3
#
#
#
# Elastic Constant Matrix: (Units=GPa)
#
#
# Indices 1 2 3 4 5 6 
#
# 1 22.6045 31.4803 19.2208 0.0000 0.0000 0.0000
# 2 31.4803 22.6045 19.2208 0.0000 0.0000 0.0000
# 3 19.2208 19.2208 97.1549 0.0000 0.0000 0.0000
# 4 0.0000 0.0000 0.0000 -301.6724 0.0000 0.0000
# 5 0.0000 0.0000 0.0000 0.0000 -301.6724 0.0000
# 6 0.0000 0.0000 0.0000 0.0000 0.0000 -0.3111
#
#
#
# Elastic Compliance Matrix: (Units=1/GPa)
#
#
# Indices 1 2 3 4 5 6 
#
# 1 -0.045575 0.067090 -0.004256 0.000000 0.000000 0.000000
# 2 0.067090 -0.045575 -0.004256 0.000000 0.000000 0.000000
# 3 -0.004256 -0.004256 0.011977 0.000000 0.000000 0.000000
# 4 0.000000 0.000000 0.000000 -0.003315 0.000000 0.000000
# 5 0.000000 0.000000 0.000000 0.000000 -0.003315 0.000000
# 6 0.000000 0.000000 0.000000 0.000000 0.000000 -3.214632
#
#
# Mechanical properties :
#
#
# Convention : Reuss Voigt Hill
#
# Bulk Modulus (GPa) = 26.32900 31.35642 28.84271
# Shear Modulus (GPa) = -1.46846 -115.90172 -58.68509
#
# Velocity S-wave (km/s) = -0.86102 -7.64936 -5.44307
# Velocity P-wave (km/s) = 3.50766 7.88585 4.99415
#
# Compressibility (1/GPa) = 0.03798093
#
# Stress axis : x y z
#
# Youngs Moduli (GPa) = -21.94168 -21.94168 83.49339
#
# Poissons Ratio (x) = 1.47207 0.35538
# Poissons Ratio (y) = 1.47207 0.35538
# Poissons Ratio (z) = -0.09339 -0.09339
#
# Static dielectric constant tensor:
#      x y z
#    x 1.691100 0.000000 0.000000 
#    y 0.000000 1.691100 0.000000 
#    z 0.000000 0.000000 1.683820 
# 
# From -- ./inp_files/10748.got.cif
#   From: 2010.05.17/outbox.cif.g08.bks.cpg/sg140_6_cif.got.tgz:10748.got - 2010.06.21 00:45:31.
