data_PCOD9572215
_publ_section_title
;
Structure prediction by ZEFSAII (Michael W. Deem and Ramdas Pophale) SiO2 
 PCOD9572215
Probable space group: I 4/M C M
;
_chemical_formula_sum "Si O2"
_cell_formula_units_Z 120
_cell_length_a 16.945100
_cell_length_b 16.945100
_cell_length_c 20.991906
_cell_angle_alpha 90.000000
_cell_angle_beta 90.000000
_cell_angle_gamma 90.000000
_cell_volume 6027.540612
_symmetry_space_group_name_H-M "I 4/M C M"
_symmetry_group_IT_number 140
_symmetry_cell_setting 'tetragonal'
loop_
_space_group_symop_operation_xyz
x,y,z
-y,x,z
-x,-y,z
y,-x,z
x,-y,1/2-z
-x,y,1/2-z
y,x,1/2-z
-y,-x,1/2-z
-x,-y,-z
y,-x,-z
x,y,-z
-y,x,-z
-x,y,1/2+z
x,-y,1/2+z
-y,-x,1/2+z
y,x,1/2+z
1/2+x,1/2+y,1/2+z
1/2-y,1/2+x,1/2+z
1/2-x,1/2-y,1/2+z
1/2+y,1/2-x,1/2+z
1/2+x,1/2-y,-z
1/2-x,1/2+y,-z
1/2+y,1/2+x,-z
1/2-y,1/2-x,-z
1/2-x,1/2-y,1/2-z
1/2+y,1/2-x,1/2-z
1/2+x,1/2+y,1/2-z
1/2-y,1/2+x,1/2-z
1/2-x,1/2+y,z
1/2+x,1/2-y,z
1/2-y,1/2-x,z
1/2+y,1/2+x,z
loop_
_atom_site_type_symbol
_atom_site_label
_atom_site_fract_x
_atom_site_fract_y
_atom_site_fract_z
Si Si1 0.460333 0.790737 0.137171
Si Si2 0.952095 0.329529 0.500000
Si Si3 0.507904 0.626613 0.826583
Si Si4 0.885203 0.614798 0.639370
Si Si5 0.136667 0.363334 0.500000
Si Si6 0.315781 0.815781 0.768521
O O1 0.426251 0.789902 0.065806
O O2 0.512893 0.713394 0.146729
O O3 0.520967 0.864594 0.141196
O O4 0.390970 0.786940 0.189364
O O5 0.916202 0.416202 0.500000
O O6 0.045397 0.338268 0.500000
O O7 0.428328 0.580692 0.846148
O O8 0.500000 0.630228 0.750000
O O9 0.846048 0.653953 0.575378
O O10 0.848275 0.651726 0.702231
O O11 0.250000 0.750000 0.750000
#
# Coordination Sequence:
#
# PCOD9572215 Si02
#       6
#    32  16  32  16   8  16
#     4  11  23  40  63  93 129 167 216 266 323 393
#     4  10  19  40  59  86 125 168 215 255 326 383
#     4   9  19  36  61  89 121 164 209 261 321 385
#     4  10  22  40  63  94 125 164 208 263 322 381
#     4   8  19  36  66  84 118 168 208 253 308 396
#     4  12  26  38  61  94 129 172 209 270 324 377
#
# _framework density 19.908617
#
# number of rings (size 3 to 8) (size 9 to 14) (size 15 to 20)
#    0.000    1.867    1.333    3.400    7.467    0.533 
#    0.000    4.000    0.000    1.600    0.000    0.000 
#    0.000    0.000    0.000    0.000    0.000    0.000 
#
# Total GULP energy -334155.341220 kJ/mol
# GULP energy per Si atom -5569.255687 kJ/mol
# Density = 1.986330 g / cm^3
# Si number density = 19.908617 Si / 1000 Ang^3
#
#
#
# Elastic Constant Matrix: (Units=GPa)
#
#
# Indices 1 2 3 4 5 6 
#
# 1 81.3388 21.3858 28.1088 0.0000 0.0000 0.0000
# 2 21.3858 81.3396 28.1087 0.0000 0.0000 0.0000
# 3 28.1088 28.1087 165.3209 0.0000 0.0000 0.0000
# 4 0.0000 0.0000 0.0000 12.7075 0.0000 0.0000
# 5 0.0000 0.0000 0.0000 0.0000 12.7073 0.0000
# 6 0.0000 0.0000 0.0000 0.0000 0.0000 20.2753
#
#
#
# Elastic Compliance Matrix: (Units=1/GPa)
#
#
# Indices 1 2 3 4 5 6 
#
# 1 0.013707 -0.002973 -0.001825 0.000000 0.000000 0.000000
# 2 -0.002973 0.013706 -0.001825 0.000000 0.000000 0.000000
# 3 -0.001825 -0.001825 0.006669 0.000000 0.000000 0.000000
# 4 0.000000 0.000000 0.000000 0.078694 0.000000 0.000000
# 5 0.000000 0.000000 0.000000 0.000000 0.078695 0.000000
# 6 0.000000 0.000000 0.000000 0.000000 0.000000 0.049321
#
#
# Mechanical properties :
#
#
# Convention : Reuss Voigt Hill
#
# Bulk Modulus (GPa) = 47.99270 53.68953 50.84112
# Shear Modulus (GPa) = 19.15829 25.83109 22.49469
#
# Velocity S-wave (km/s) = 3.10548 3.60597 3.36504
# Velocity P-wave (km/s) = 6.08420 6.66062 6.37892
#
# Compressibility (1/GPa) = 0.02083650
#
# Stress axis : x y z
#
# Youngs Moduli (GPa) = 72.95744 72.95823 149.93809
#
# Poissons Ratio (x) = 0.21691 0.27363
# Poissons Ratio (y) = 0.21691 0.27363
# Poissons Ratio (z) = 0.13315 0.13314
#
# Static dielectric constant tensor:
#      x y z
#    x 1.728290 0.000000 0.000000 
#    y 0.000000 1.728290 0.000000 
#    z 0.000000 0.000000 1.735840 
# 
# From -- ./inp_files/8047.got.cif
#   From: 2010.05.17/outbox.cif.g08.bks.cpg/sg140_5_cif.got.tgz:8047.got - 2010.06.21 00:45:31.
