data_PCOD9572160
_publ_section_title
;
Structure prediction by ZEFSAII (Michael W. Deem and Ramdas Pophale) SiO2 
 PCOD9572160
Probable space group: I 4/M C M
;
_chemical_formula_sum "Si O2"
_cell_formula_units_Z 192
_cell_length_a 25.291344
_cell_length_b 25.291344
_cell_length_c 16.480150
_cell_angle_alpha 90.000000
_cell_angle_beta 90.000000
_cell_angle_gamma 90.000000
_cell_volume 10541.562248
_symmetry_space_group_name_H-M "I 4/M C M"
_symmetry_group_IT_number 140
_symmetry_cell_setting 'tetragonal'
loop_
_space_group_symop_operation_xyz
x,y,z
-y,x,z
-x,-y,z
y,-x,z
x,-y,1/2-z
-x,y,1/2-z
y,x,1/2-z
-y,-x,1/2-z
-x,-y,-z
y,-x,-z
x,y,-z
-y,x,-z
-x,y,1/2+z
x,-y,1/2+z
-y,-x,1/2+z
y,x,1/2+z
1/2+x,1/2+y,1/2+z
1/2-y,1/2+x,1/2+z
1/2-x,1/2-y,1/2+z
1/2+y,1/2-x,1/2+z
1/2+x,1/2-y,-z
1/2-x,1/2+y,-z
1/2+y,1/2+x,-z
1/2-y,1/2-x,-z
1/2-x,1/2-y,1/2-z
1/2+y,1/2-x,1/2-z
1/2+x,1/2+y,1/2-z
1/2-y,1/2+x,1/2-z
1/2-x,1/2+y,z
1/2+x,1/2-y,z
1/2-y,1/2-x,z
1/2+y,1/2+x,z
loop_
_atom_site_type_symbol
_atom_site_label
_atom_site_fract_x
_atom_site_fract_y
_atom_site_fract_z
Si Si1 0.196103 0.303898 0.901405
Si Si2 0.195713 0.864432 0.900795
Si Si3 0.609383 0.890618 0.596847
Si Si4 0.716445 0.482046 0.656502
Si Si5 0.909720 0.804351 0.403141
Si Si6 0.605192 0.185939 0.402716
Si Si7 0.995857 0.662704 0.846683
O O1 0.173897 0.245515 0.878042
O O2 0.152669 0.347332 0.874247
O O3 0.196857 0.303144 0.000000
O O4 0.199388 0.922408 0.861200
O O5 0.139307 0.839708 0.875723
O O6 0.197347 0.869891 0.000000
O O7 0.610672 0.889329 0.500000
O O8 0.626014 0.948448 0.625677
O O9 0.717067 0.500000 0.750000
O O10 0.682864 0.529202 0.615418
O O11 0.777136 0.483761 0.625302
O O12 0.904933 0.802184 0.500000
O O13 0.901221 0.744918 0.369397
O O14 0.608863 0.189616 0.500000
O O15 0.657036 0.157036 0.371131
O O16 0.553691 0.151869 0.381810
O O17 0.000000 0.662016 0.750000
#
# Coordination Sequence:
#
# PCOD9572160 Si02
#       7
#    16  32  16  32  32  32  32
#     4   9  18  30  52  83 112 138 170 221 276 316
#     4  10  19  33  56  84 114 142 178 226 271 318
#     4  11  20  34  57  81 102 136 183 234 275 319
#     4  10  20  35  53  76 110 148 183 216 261 324
#     4   9  19  33  54  82 108 139 178 220 268 322
#     4   9  18  33  52  73 102 139 176 215 265 329
#     4  10  21  34  52  75 102 139 182 226 271 320
#
# _framework density 18.213619000000001
#
# number of rings (size 3 to 8) (size 9 to 14) (size 15 to 20)
#    0.000    2.333    1.667    1.000    2.333    2.000 
#    0.000    0.417    0.000    3.000    0.000    3.500 
#    0.000    0.000    0.000    0.000    0.000    0.000 
#
# Total GULP energy -534858.387592 kJ/mol
# GULP energy per Si atom -5571.441537 kJ/mol
# Density = 1.817216 g / cm^3
# Si number density = 18.213619 Si / 1000 Ang^3
#
#
#
# Elastic Constant Matrix: (Units=GPa)
#
#
# Indices 1 2 3 4 5 6 
#
# 1 109.2967 76.2475 16.9040 0.0000 0.0000 0.0000
# 2 76.2475 109.2963 16.9039 0.0000 0.0000 0.0000
# 3 16.9040 16.9039 16.2138 0.0000 0.0000 0.0000
# 4 0.0000 0.0000 0.0000 14.5993 0.0000 0.0000
# 5 0.0000 0.0000 0.0000 0.0000 14.5993 0.0000
# 6 0.0000 0.0000 0.0000 0.0000 0.0000 24.3899
#
#
#
# Elastic Compliance Matrix: (Units=1/GPa)
#
#
# Indices 1 2 3 4 5 6 
#
# 1 0.018456 -0.011802 -0.006937 0.000000 0.000000 0.000000
# 2 -0.011802 0.018456 -0.006937 0.000000 0.000000 0.000000
# 3 -0.006937 -0.006937 0.076140 0.000000 0.000000 0.000000
# 4 0.000000 0.000000 0.000000 0.068496 0.000000 0.000000
# 5 0.000000 0.000000 0.000000 0.000000 0.068496 0.000000
# 6 0.000000 0.000000 0.000000 0.000000 0.000000 0.041001
#
#
# Mechanical properties :
#
#
# Convention : Reuss Voigt Hill
#
# Bulk Modulus (GPa) = 16.20742 50.54640 33.37691
# Shear Modulus (GPa) = 13.77550 19.03446 16.40498
#
# Velocity S-wave (km/s) = 2.75313 3.23626 3.00442
# Velocity P-wave (km/s) = 4.36167 6.46349 5.51366
#
# Compressibility (1/GPa) = 0.06170014
#
# Stress axis : x y z
#
# Youngs Moduli (GPa) = 54.18350 54.18343 13.13370
#
# Poissons Ratio (x) = 0.63949 0.09111
# Poissons Ratio (y) = 0.63949 0.09110
# Poissons Ratio (z) = 0.37586 0.37585
#
# Static dielectric constant tensor:
#      x y z
#    x 1.640510 0.000000 0.000000 
#    y 0.000000 1.640510 0.000000 
#    z 0.000000 0.000000 1.640330 
# 
# From -- ./inp_files/8658.got.cif
#   From: 2010.05.17/outbox.cif.g08.bks.cpg/sg140_5_cif.got.tgz:8658.got - 2010.06.21 00:45:31.
