data_PCOD9572075
_publ_section_title
;
Structure prediction by ZEFSAII (Michael W. Deem and Ramdas Pophale) SiO2 
 PCOD9572075
Probable space group: I 4/M C M
;
_chemical_formula_sum "Si O2"
_cell_formula_units_Z 160
_cell_length_a 21.531988
_cell_length_b 21.531988
_cell_length_c 14.156314
_cell_angle_alpha 90.000000
_cell_angle_beta 90.000000
_cell_angle_gamma 90.000000
_cell_volume 6563.242415
_symmetry_space_group_name_H-M "I 4/M C M"
_symmetry_group_IT_number 140
_symmetry_cell_setting 'tetragonal'
loop_
_space_group_symop_operation_xyz
x,y,z
-y,x,z
-x,-y,z
y,-x,z
x,-y,1/2-z
-x,y,1/2-z
y,x,1/2-z
-y,-x,1/2-z
-x,-y,-z
y,-x,-z
x,y,-z
-y,x,-z
-x,y,1/2+z
x,-y,1/2+z
-y,-x,1/2+z
y,x,1/2+z
1/2+x,1/2+y,1/2+z
1/2-y,1/2+x,1/2+z
1/2-x,1/2-y,1/2+z
1/2+y,1/2-x,1/2+z
1/2+x,1/2-y,-z
1/2-x,1/2+y,-z
1/2+y,1/2+x,-z
1/2-y,1/2-x,-z
1/2-x,1/2-y,1/2-z
1/2+y,1/2-x,1/2-z
1/2+x,1/2+y,1/2-z
1/2-y,1/2+x,1/2-z
1/2-x,1/2+y,z
1/2+x,1/2-y,z
1/2-y,1/2-x,z
1/2+y,1/2+x,z
loop_
_atom_site_type_symbol
_atom_site_label
_atom_site_fract_x
_atom_site_fract_y
_atom_site_fract_z
Si Si1 0.146812 0.452200 0.884046
Si Si2 0.508872 0.599131 0.362033
Si Si3 0.914239 0.782648 0.888699
Si Si4 0.583185 0.812237 0.108942
Si Si5 0.177978 0.780738 0.884375
O O1 0.089844 0.410157 0.850278
O O2 0.213057 0.424386 0.853249
O O3 0.152764 0.523381 0.852644
O O4 0.142978 0.451315 0.000000
O O5 0.445387 0.565805 0.395480
O O6 0.500000 0.595595 0.250000
O O7 0.528314 0.669745 0.381327
O O8 0.850631 0.812040 0.851422
O O9 0.903805 0.774240 0.000000
O O10 0.639534 0.860467 0.107541
O O11 0.613612 0.749965 0.149782
O O12 0.566343 0.796929 0.000000
O O13 0.236374 0.736374 0.859322
O O14 0.175332 0.779788 0.000000
#
# Coordination Sequence:
#
# PCOD9572075 Si02
#       5
#    32  32  32  32  32
#     4   9  17  27  39  64 103 135 162 202 252 303
#     4   9  20  38  53  67  94 131 169 203 254 313
#     4  10  19  28  48  76 101 130 169 213 257 301
#     4   8  14  24  38  57  88 133 173 200 236 296
#     4   8  14  25  40  63  99 136 166 200 250 304
#
# _framework density 24.378194000000001
#
# number of rings (size 3 to 8) (size 9 to 14) (size 15 to 20)
#    0.000    3.200    0.000    2.400    2.800    3.600 
#    0.000    3.000    0.000    0.000    0.000   14.000 
#    0.000    0.000    0.000    0.000    0.000    0.000 
#
# Total GULP energy -446628.338664 kJ/mol
# GULP energy per Si atom -5582.854233 kJ/mol
# Density = 2.432271 g / cm^3
# Si number density = 24.378194 Si / 1000 Ang^3
#
#
#
# Elastic Constant Matrix: (Units=GPa)
#
#
# Indices 1 2 3 4 5 6 
#
# 1 110.2266 29.9777 -10.7393 0.0000 0.0000 0.0000
# 2 29.9777 110.2266 -10.7393 0.0000 0.0000 0.0000
# 3 -10.7393 -10.7393 75.3353 0.0000 0.0000 0.0000
# 4 0.0000 0.0000 0.0000 15.3140 0.0000 0.0000
# 5 0.0000 0.0000 0.0000 0.0000 15.3140 0.0000
# 6 0.0000 0.0000 0.0000 0.0000 0.0000 32.6210
#
#
#
# Elastic Compliance Matrix: (Units=1/GPa)
#
#
# Indices 1 2 3 4 5 6 
#
# 1 0.009876 -0.002585 0.001039 0.000000 0.000000 0.000000
# 2 -0.002585 0.009876 0.001039 0.000000 0.000000 0.000000
# 3 0.001039 0.001039 0.013570 0.000000 0.000000 0.000000
# 4 0.000000 0.000000 0.000000 0.065300 0.000000 0.000000
# 5 0.000000 0.000000 0.000000 0.000000 0.065300 0.000000
# 6 0.000000 0.000000 0.000000 0.000000 0.000000 0.030655
#
#
# Mechanical properties :
#
#
# Convention : Reuss Voigt Hill
#
# Bulk Modulus (GPa) = 30.94872 34.75410 32.85141
# Shear Modulus (GPa) = 24.22951 31.80242 28.01597
#
# Velocity S-wave (km/s) = 3.15604 3.61577 3.39370
# Velocity P-wave (km/s) = 5.09937 5.63195 5.37226
#
# Compressibility (1/GPa) = 0.03231152
#
# Stress axis : x y z
#
# Youngs Moduli (GPa) = 101.25084 101.25084 73.69010
#
# Poissons Ratio (x) = 0.26171 -0.07660
# Poissons Ratio (y) = 0.26171 -0.07660
# Poissons Ratio (z) = -0.10525 -0.10525
#
# Static dielectric constant tensor:
#      x y z
#    x 1.923030 0.000000 0.000000 
#    y 0.000000 1.923030 0.000000 
#    z 0.000000 0.000000 2.001770 
# 
# From -- ./inp_files/6795.got.cif
#   From: 2010.05.17/outbox.cif.g08.bks.cpg/sg140_4_cif.got.tgz:6795.got - 2010.06.21 00:45:31.
