data_PCOD9572668
_publ_section_title
;
Structure prediction by ZEFSAII (Michael W. Deem and Ramdas Pophale) SiO2 
 PCOD9572668
Probable space group: I 4/M C M
;
_chemical_formula_sum "Si O2"
_cell_formula_units_Z 80
_cell_length_a 11.930422
_cell_length_b 11.930422
_cell_length_c 26.837536
_cell_angle_alpha 90.000000
_cell_angle_beta 90.000000
_cell_angle_gamma 90.000000
_cell_volume 3819.919857
_symmetry_space_group_name_H-M "I 4/M C M"
_symmetry_group_IT_number 140
_symmetry_cell_setting 'tetragonal'
loop_
_space_group_symop_operation_xyz
x,y,z
-y,x,z
-x,-y,z
y,-x,z
x,-y,1/2-z
-x,y,1/2-z
y,x,1/2-z
-y,-x,1/2-z
-x,-y,-z
y,-x,-z
x,y,-z
-y,x,-z
-x,y,1/2+z
x,-y,1/2+z
-y,-x,1/2+z
y,x,1/2+z
1/2+x,1/2+y,1/2+z
1/2-y,1/2+x,1/2+z
1/2-x,1/2-y,1/2+z
1/2+y,1/2-x,1/2+z
1/2+x,1/2-y,-z
1/2-x,1/2+y,-z
1/2+y,1/2+x,-z
1/2-y,1/2-x,-z
1/2-x,1/2-y,1/2-z
1/2+y,1/2-x,1/2-z
1/2+x,1/2+y,1/2-z
1/2-y,1/2+x,1/2-z
1/2-x,1/2+y,z
1/2+x,1/2-y,z
1/2-y,1/2-x,z
1/2+y,1/2+x,z
loop_
_atom_site_type_symbol
_atom_site_label
_atom_site_fract_x
_atom_site_fract_y
_atom_site_fract_z
Si Si1 0.584944 0.266427 0.213531
Si Si2 0.594103 0.905898 0.943503
Si Si3 0.680937 0.511624 0.607088
O O1 0.500000 0.202354 0.250000
O O2 0.638719 0.361282 0.250000
O O3 0.686960 0.186960 0.196475
O O4 0.513115 0.306816 0.166282
O O5 0.540357 0.800415 0.915348
O O6 0.500000 0.000000 0.945765
O O7 0.626170 0.873831 0.000000
O O8 0.600690 0.614817 0.592048
#
# Coordination Sequence:
#
# PCOD9572668 Si02
#       3
#    32  16  32
#     4  11  23  38  62  98 142 191 235 283 350 432
#     4  11  28  50  76 104 137 183 245 321 383 440
#     4  11  25  45  73 104 141 188 237 300 370 445
#
# _framework density 20.942848000000001
#
# number of rings (size 3 to 8) (size 9 to 14) (size 15 to 20)
#    0.000    1.000    4.000    1.200    8.400    2.400 
#    0.000    2.000    0.000    0.000    0.000    0.000 
#    0.000    0.000    0.000    0.000    0.000    0.000 
#
# Total GULP energy -223096.418018 kJ/mol
# GULP energy per Si atom -5577.410450 kJ/mol
# Density = 2.089518 g / cm^3
# Si number density = 20.942848 Si / 1000 Ang^3
#
#
#
# Elastic Constant Matrix: (Units=GPa)
#
#
# Indices 1 2 3 4 5 6 
#
# 1 86.3199 90.3253 58.2254 0.0000 0.0000 0.0000
# 2 90.3253 86.3194 58.2268 0.0000 0.0000 0.0000
# 3 58.2254 58.2268 93.7101 0.0000 0.0000 0.0000
# 4 0.0000 0.0000 0.0000 10.8960 0.0000 0.0000
# 5 0.0000 0.0000 0.0000 0.0000 10.8968 0.0000
# 6 0.0000 0.0000 0.0000 0.0000 0.0000 24.4047
#
#
#
# Elastic Compliance Matrix: (Units=1/GPa)
#
#
# Indices 1 2 3 4 5 6 
#
# 1 -0.120026 0.129617 -0.005961 0.000000 0.000000 0.000000
# 2 0.129617 -0.120031 -0.005954 0.000000 0.000000 0.000000
# 3 -0.005961 -0.005954 0.018075 0.000000 0.000000 0.000000
# 4 0.000000 0.000000 0.000000 0.091776 0.000000 0.000000
# 5 0.000000 0.000000 0.000000 0.000000 0.091770 0.000000
# 6 0.000000 0.000000 0.000000 0.000000 0.000000 0.040976
#
#
# Mechanical properties :
#
#
# Convention : Reuss Voigt Hill
#
# Bulk Modulus (GPa) = 74.51054 75.54492 75.02773
# Shear Modulus (GPa) = -21.89247 13.21096 -4.34076
#
# Velocity S-wave (km/s) = -3.23668 2.51432 -1.44124
# Velocity P-wave (km/s) = 4.65694 6.67677 5.75615
#
# Compressibility (1/GPa) = 0.01342092
#
# Stress axis : x y z
#
# Youngs Moduli (GPa) = -8.33153 -8.33116 55.32491
#
# Poissons Ratio (x) = 1.07986 0.32982
# Poissons Ratio (y) = 1.07991 0.32943
# Poissons Ratio (z) = -0.04967 -0.04961
#
# Static dielectric constant tensor:
#      x y z
#    x 1.770910 0.000000 0.000000 
#    y 0.000000 1.770910 0.000000 
#    z 0.000000 0.000000 1.756160 
# 
# From -- ./inp_files/11069.got.cif
#   From: 2010.05.17/outbox.cif.g08.bks.cpg/sg140_6_cif.got.tgz:11069.got - 2010.06.21 00:45:31.
