data_PCOD9572015
_publ_section_title
;
Structure prediction by ZEFSAII (Michael W. Deem and Ramdas Pophale) SiO2 
 PCOD9572015
Probable space group: I 4/M C M
;
_chemical_formula_sum "Si O2"
_cell_formula_units_Z 224
_cell_length_a 23.645462
_cell_length_b 23.645462
_cell_length_c 24.688303
_cell_angle_alpha 90.000000
_cell_angle_beta 90.000000
_cell_angle_gamma 90.000000
_cell_volume 13803.424583
_symmetry_space_group_name_H-M "I 4/M C M"
_symmetry_group_IT_number 140
_symmetry_cell_setting 'tetragonal'
loop_
_space_group_symop_operation_xyz
x,y,z
-y,x,z
-x,-y,z
y,-x,z
x,-y,1/2-z
-x,y,1/2-z
y,x,1/2-z
-y,-x,1/2-z
-x,-y,-z
y,-x,-z
x,y,-z
-y,x,-z
-x,y,1/2+z
x,-y,1/2+z
-y,-x,1/2+z
y,x,1/2+z
1/2+x,1/2+y,1/2+z
1/2-y,1/2+x,1/2+z
1/2-x,1/2-y,1/2+z
1/2+y,1/2-x,1/2+z
1/2+x,1/2-y,-z
1/2-x,1/2+y,-z
1/2+y,1/2+x,-z
1/2-y,1/2-x,-z
1/2-x,1/2-y,1/2-z
1/2+y,1/2-x,1/2-z
1/2+x,1/2+y,1/2-z
1/2-y,1/2+x,1/2-z
1/2-x,1/2+y,z
1/2+x,1/2-y,z
1/2-y,1/2-x,z
1/2+y,1/2+x,z
loop_
_atom_site_type_symbol
_atom_site_label
_atom_site_fract_x
_atom_site_fract_y
_atom_site_fract_z
Si Si1 0.775012 0.372703 0.138176
Si Si2 0.522708 0.799457 0.939339
Si Si3 0.185830 0.781963 0.637908
Si Si4 0.088519 0.498673 0.898273
Si Si5 0.111551 0.295509 0.064706
Si Si6 0.948874 0.358147 0.709799
Si Si7 0.361824 0.767247 0.236665
O O1 0.831120 0.331120 0.133490
O O2 0.780863 0.430142 0.104030
O O3 0.719803 0.337206 0.120272
O O4 0.762871 0.383653 0.201999
O O5 0.525729 0.867408 0.938493
O O6 0.455940 0.791013 0.925720
O O7 0.533736 0.777456 0.000000
O O8 0.235081 0.735081 0.643476
O O9 0.142691 0.755572 0.595120
O O10 0.156178 0.783740 0.697196
O O11 0.045652 0.545652 0.877308
O O12 0.121064 0.473742 0.846734
O O13 0.051008 0.448993 0.923747
O O14 0.146394 0.353607 0.080974
O O15 0.118450 0.291418 0.000000
O O16 0.908665 0.408665 0.731593
O O17 0.908093 0.304460 0.704662
O O18 0.000000 0.346654 0.750000
O O19 0.306082 0.806082 0.243106
#
# Coordination Sequence:
#
# PCOD9572015 Si02
#       7
#    32  32  32  32  32  32  32
#     4  10  20  32  47  69  96 123 152 191 242 296
#     4  11  22  34  47  64  90 122 156 197 245 290
#     4   9  17  31  51  71  91 118 154 195 238 284
#     4  10  20  31  42  58  83 120 167 208 235 265
#     4   9  18  33  52  71  92 124 167 207 237 272
#     4  10  18  27  41  61  88 122 159 199 239 276
#     4   9  17  29  45  64  86 114 149 189 235 287
#
# _framework density 16.227857
#
# number of rings (size 3 to 8) (size 9 to 14) (size 15 to 20)
#    0.000    2.286    0.000    3.429    0.000    8.429 
#    0.000    2.143    0.000    0.000    0.000    0.000 
#    0.000    0.571    0.000    3.143    0.000    9.571 
#
# Total GULP energy -623818.482789 kJ/mol
# GULP energy per Si atom -5569.807882 kJ/mol
# Density = 1.619092 g / cm^3
# Si number density = 16.227857 Si / 1000 Ang^3
#
#
#
# Elastic Constant Matrix: (Units=GPa)
#
#
# Indices 1 2 3 4 5 6 
#
# 1 65.4166 50.6422 45.3987 0.0000 0.0000 0.0000
# 2 50.6422 65.4166 45.3987 0.0000 0.0000 0.0000
# 3 45.3987 45.3987 70.0657 0.0000 0.0000 0.0000
# 4 0.0000 0.0000 0.0000 17.3154 0.0000 0.0000
# 5 0.0000 0.0000 0.0000 0.0000 17.3154 0.0000
# 6 0.0000 0.0000 0.0000 0.0000 0.0000 23.2588
#
#
#
# Elastic Compliance Matrix: (Units=1/GPa)
#
#
# Indices 1 2 3 4 5 6 
#
# 1 0.042580 -0.025105 -0.011322 0.000000 0.000000 0.000000
# 2 -0.025105 0.042580 -0.011322 0.000000 0.000000 0.000000
# 3 -0.011322 -0.011322 0.028945 0.000000 0.000000 0.000000
# 4 0.000000 0.000000 0.000000 0.057752 0.000000 0.000000
# 5 0.000000 0.000000 0.000000 0.000000 0.057752 0.000000
# 6 0.000000 0.000000 0.000000 0.000000 0.000000 0.042995
#
#
# Mechanical properties :
#
#
# Convention : Reuss Voigt Hill
#
# Bulk Modulus (GPa) = 53.75209 53.75315 53.75262
# Shear Modulus (GPa) = 13.35811 15.54184 14.44998
#
# Velocity S-wave (km/s) = 2.87219 3.09807 2.98727
# Velocity P-wave (km/s) = 6.64790 6.78184 6.71520
#
# Compressibility (1/GPa) = 0.01860393
#
# Stress axis : x y z
#
# Youngs Moduli (GPa) = 23.48542 23.48542 34.54849
#
# Poissons Ratio (x) = 0.58961 0.39117
# Poissons Ratio (y) = 0.58961 0.39117
# Poissons Ratio (z) = 0.26591 0.26591
#
# Static dielectric constant tensor:
#      x y z
#    x 1.563020 0.000000 0.000000 
#    y 0.000000 1.563020 0.000000 
#    z 0.000000 0.000000 1.607070 
# 
# From -- ./inp_files/10002.got.cif
#   From: 2010.05.17/outbox.cif.g08.bks.cpg/sg140_6_cif.got.tgz:10002.got - 2010.06.21 00:45:31.
