data_PCOD9572794
_publ_section_title
;
Structure prediction by ZEFSAII (Michael W. Deem and Ramdas Pophale) SiO2 
 PCOD9572794
Probable space group: I 41/A M D
;
_chemical_formula_sum "Si O2"
_cell_formula_units_Z 144
_cell_length_a 18.208209
_cell_length_b 18.208209
_cell_length_c 21.540327
_cell_angle_alpha 90.000000
_cell_angle_beta 90.000000
_cell_angle_gamma 90.000000
_cell_volume 7141.455780
_symmetry_space_group_name_H-M "I 41/A M D"
_symmetry_group_IT_number 141
_space_group.IT_coordinate_system_code '2'
_symmetry_cell_setting 'tetragonal'
loop_
_space_group_symop_operation_xyz
x,y,z
1/4-y,3/4+x,1/4+z
-x,1/2-y,z
1/4+y,1/4-x,3/4+z
x,-y,-z
-x,1/2+y,-z
1/4+y,3/4+x,1/4-z
1/4-y,1/4-x,3/4-z
-x,-y,-z
3/4+y,1/4-x,3/4-z
x,1/2+y,-z
3/4-y,3/4+x,1/4-z
-x,y,z
x,1/2-y,z
3/4-y,1/4-x,3/4+z
3/4+y,3/4+x,1/4+z
1/2+x,1/2+y,1/2+z
3/4-y,1/4+x,3/4+z
1/2-x,-y,1/2+z
3/4+y,3/4-x,1/4+z
1/2+x,1/2-y,1/2-z
1/2-x,y,1/2-z
3/4+y,1/4+x,3/4-z
3/4-y,3/4-x,1/4-z
1/2-x,1/2-y,1/2-z
1/4+y,3/4-x,1/4-z
1/2+x,y,1/2-z
1/4-y,1/4+x,3/4-z
1/2-x,1/2+y,1/2+z
1/2+x,-y,1/2+z
1/4-y,3/4-x,1/4+z
1/4+y,1/4+x,3/4+z
loop_
_atom_site_type_symbol
_atom_site_label
_atom_site_fract_x
_atom_site_fract_y
_atom_site_fract_z
Si Si1 0.845386 0.404615 0.875000
Si Si2 0.416693 0.062487 0.366341
Si Si3 0.201201 0.063252 0.446959
Si Si4 0.086829 0.664589 0.748684
Si Si5 0.161220 0.392437 0.741065
O O1 0.864713 0.490890 0.866432
O O2 0.869288 0.371935 0.808605
O O3 0.500000 0.035654 0.358249
O O4 0.400223 0.120552 0.312843
O O5 0.408915 0.102047 0.432722
O O6 0.210202 0.039799 0.375000
O O7 0.129775 0.113882 0.450701
O O8 0.274661 0.106289 0.469069
O O9 0.192917 0.000000 0.500000
O O10 0.106265 0.750000 0.753529
O O11 0.000000 0.659563 0.734586
O O12 0.250000 0.391861 0.750000
#
# Coordination Sequence:
#
# PCOD9572794 Si02
#       5
#    16  32  32  32  32
#     4  10  18  34  58  85 118 156 200 245 302 366
#     4  10  20  37  60  89 119 155 202 252 306 367
#     4  11  22  36  61  88 123 159 203 257 305 358
#     4  10  22  41  62  85 119 162 205 251 309 373
#     4   9  19  31  56  86 117 155 194 247 303 354
#
# _framework density 20.163955999999999
#
# number of rings (size 3 to 8) (size 9 to 14) (size 15 to 20)
#    0.000    2.000    2.222    1.333   10.889    5.333 
#    0.000    5.556    0.000    0.333    0.000    0.000 
#    0.000    0.000    0.000    0.000    0.000    0.000 
#
# Total GULP energy -401205.880247 kJ/mol
# GULP energy per Si atom -5572.303892 kJ/mol
# Density = 2.011806 g / cm^3
# Si number density = 20.163956 Si / 1000 Ang^3
#
#
#
# Elastic Constant Matrix: (Units=GPa)
#
#
# Indices 1 2 3 4 5 6 
#
# 1 65.1163 48.2553 25.5115 0.0000 0.0000 0.0000
# 2 48.2553 65.1176 25.5115 0.0000 0.0000 0.0000
# 3 25.5115 25.5115 151.5878 0.0000 0.0000 0.0000
# 4 0.0000 0.0000 0.0000 17.8081 0.0000 0.0000
# 5 0.0000 0.0000 0.0000 0.0000 17.8080 0.0000
# 6 0.0000 0.0000 0.0000 0.0000 0.0000 26.3642
#
#
#
# Elastic Compliance Matrix: (Units=1/GPa)
#
#
# Indices 1 2 3 4 5 6 
#
# 1 0.034425 -0.024881 -0.001606 0.000000 0.000000 0.000000
# 2 -0.024881 0.034424 -0.001606 0.000000 0.000000 0.000000
# 3 -0.001606 -0.001606 0.007137 0.000000 0.000000 0.000000
# 4 0.000000 0.000000 0.000000 0.056154 0.000000 0.000000
# 5 0.000000 0.000000 0.000000 0.000000 0.056154 0.000000
# 6 0.000000 0.000000 0.000000 0.000000 0.000000 0.037930
#
#
# Mechanical properties :
#
#
# Convention : Reuss Voigt Hill
#
# Bulk Modulus (GPa) = 50.50583 53.37537 51.94060
# Shear Modulus (GPa) = 17.30030 24.56565 20.93297
#
# Velocity S-wave (km/s) = 2.93231 3.49420 3.22551
# Velocity P-wave (km/s) = 6.04703 6.54273 6.29976
#
# Compressibility (1/GPa) = 0.01979969
#
# Stress axis : x y z
#
# Youngs Moduli (GPa) = 29.04866 29.04926 140.10644
#
# Poissons Ratio (x) = 0.72278 0.22503
# Poissons Ratio (y) = 0.72277 0.22502
# Poissons Ratio (z) = 0.04666 0.04665
#
# Static dielectric constant tensor:
#      x y z
#    x 1.722890 0.000000 0.000000 
#    y 0.000000 1.722890 0.000000 
#    z 0.000000 0.000000 1.799110 
# 
# From -- ./inp_files/11426.got.cif
#   From: 2010.05.17/outbox.cif.g08.bks.cpg/sg141_6_cif.got.tgz:11426.got - 2010.05.20 13:30:51.
