data_PCOD9572184
_publ_section_title
;
Structure prediction by ZEFSAII (Michael W. Deem and Ramdas Pophale) SiO2 
 PCOD9572184
Probable space group: I 4/M C M
;
_chemical_formula_sum "Si O2"
_cell_formula_units_Z 192
_cell_length_a 27.030968
_cell_length_b 27.030968
_cell_length_c 13.599578
_cell_angle_alpha 90.000000
_cell_angle_beta 90.000000
_cell_angle_gamma 90.000000
_cell_volume 9936.847598
_symmetry_space_group_name_H-M "I 4/M C M"
_symmetry_group_IT_number 140
_symmetry_cell_setting 'tetragonal'
loop_
_space_group_symop_operation_xyz
x,y,z
-y,x,z
-x,-y,z
y,-x,z
x,-y,1/2-z
-x,y,1/2-z
y,x,1/2-z
-y,-x,1/2-z
-x,-y,-z
y,-x,-z
x,y,-z
-y,x,-z
-x,y,1/2+z
x,-y,1/2+z
-y,-x,1/2+z
y,x,1/2+z
1/2+x,1/2+y,1/2+z
1/2-y,1/2+x,1/2+z
1/2-x,1/2-y,1/2+z
1/2+y,1/2-x,1/2+z
1/2+x,1/2-y,-z
1/2-x,1/2+y,-z
1/2+y,1/2+x,-z
1/2-y,1/2-x,-z
1/2-x,1/2-y,1/2-z
1/2+y,1/2-x,1/2-z
1/2+x,1/2+y,1/2-z
1/2-y,1/2+x,1/2-z
1/2-x,1/2+y,z
1/2+x,1/2-y,z
1/2-y,1/2-x,z
1/2+y,1/2+x,z
loop_
_atom_site_type_symbol
_atom_site_label
_atom_site_fract_x
_atom_site_fract_y
_atom_site_fract_z
Si Si1 0.806569 0.306569 0.386013
Si Si2 0.347637 0.701766 0.881270
Si Si3 0.609951 0.890050 0.386737
Si Si4 0.339715 0.085582 0.119077
Si Si5 0.762018 0.875565 0.883128
Si Si6 0.685910 0.972964 0.619601
Si Si7 0.710010 0.552664 0.774258
O O1 0.793824 0.293824 0.500000
O O2 0.756333 0.330597 0.346179
O O3 0.848035 0.348035 0.386913
O O4 0.301051 0.666834 0.857044
O O5 0.400517 0.687482 0.833816
O O6 0.353949 0.702313 0.000000
O O7 0.596908 0.903093 0.500000
O O8 0.640136 0.937789 0.349323
O O9 0.390814 0.109187 0.155216
O O10 0.295562 0.123407 0.146925
O O11 0.326839 0.029547 0.145102
O O12 0.341625 0.084970 0.000000
O O13 0.780957 0.925138 0.833238
O O14 0.762368 0.878202 0.000000
O O15 0.691340 0.968270 0.500000
O O16 0.737979 0.957855 0.668983
O O17 0.685052 0.500000 0.750000
#
# Coordination Sequence:
#
# PCOD9572184 Si02
#       7
#    16  32  16  32  32  32  32
#     4   9  16  30  54  81 110 144 180 222 281 340
#     4  10  21  37  56  82 115 146 179 228 279 336
#     4   9  16  30  54  79 106 144 192 244 291 333
#     4   9  18  34  54  76 109 154 196 235 287 346
#     4  10  22  38  55  78 113 150 185 227 281 339
#     4  10  19  35  55  78 108 146 195 248 293 335
#     4  12  22  35  55  81 109 147 189 225 273 330
#
# _framework density 19.322023999999999
#
# number of rings (size 3 to 8) (size 9 to 14) (size 15 to 20)
#    0.000    2.000    3.333    1.000    1.167    0.667 
#    3.000    1.250    0.000    2.500    0.000    0.000 
#    0.000    5.333    0.000   14.667    0.000    0.000 
#
# Total GULP energy -535244.841825 kJ/mol
# GULP energy per Si atom -5575.467102 kJ/mol
# Density = 1.927805 g / cm^3
# Si number density = 19.322024 Si / 1000 Ang^3
#
#
#
# Elastic Constant Matrix: (Units=GPa)
#
#
# Indices 1 2 3 4 5 6 
#
# 1 82.2040 54.1343 17.2139 0.0000 0.0000 0.0000
# 2 54.1343 82.2047 17.2140 0.0000 0.0000 0.0000
# 3 17.2139 17.2140 52.4051 0.0000 0.0000 0.0000
# 4 0.0000 0.0000 0.0000 31.0106 0.0000 0.0000
# 5 0.0000 0.0000 0.0000 0.0000 31.0106 0.0000
# 6 0.0000 0.0000 0.0000 0.0000 0.0000 20.8803
#
#
#
# Elastic Compliance Matrix: (Units=1/GPa)
#
#
# Indices 1 2 3 4 5 6 
#
# 1 0.021812 -0.013814 -0.002627 0.000000 0.000000 0.000000
# 2 -0.013814 0.021812 -0.002627 0.000000 0.000000 0.000000
# 3 -0.002627 -0.002627 0.020808 0.000000 0.000000 0.000000
# 4 0.000000 0.000000 0.000000 0.032247 0.000000 0.000000
# 5 0.000000 0.000000 0.000000 0.000000 0.032247 0.000000
# 6 0.000000 0.000000 0.000000 0.000000 0.000000 0.047892
#
#
# Mechanical properties :
#
#
# Convention : Reuss Voigt Hill
#
# Bulk Modulus (GPa) = 38.02941 43.77092 40.90016
# Shear Modulus (GPa) = 22.34953 25.13043 23.73998
#
# Velocity S-wave (km/s) = 3.40470 3.61031 3.50901
# Velocity P-wave (km/s) = 5.93132 6.33101 6.13442
#
# Compressibility (1/GPa) = 0.02629544
#
# Stress axis : x y z
#
# Youngs Moduli (GPa) = 45.84690 45.84726 48.05830
#
# Poissons Ratio (x) = 0.63331 0.12626
# Poissons Ratio (y) = 0.63331 0.12626
# Poissons Ratio (z) = 0.12045 0.12045
#
# Static dielectric constant tensor:
#      x y z
#    x 1.676690 0.000000 0.000000 
#    y 0.000000 1.676690 0.000000 
#    z 0.000000 0.000000 1.786410 
# 
# From -- ./inp_files/5188.got.cif
#   From: 2010.05.17/outbox.cif.g08.bks.cpg/sg140_3_cif.got.tgz:5188.got - 2010.06.21 00:45:31.
