data_PCOD9572189
_publ_section_title
;
Structure prediction by ZEFSAII (Michael W. Deem and Ramdas Pophale) SiO2 
 PCOD9572189
Probable space group: I 4/M C M
;
_chemical_formula_sum "Si O2"
_cell_formula_units_Z 176
_cell_length_a 24.523493
_cell_length_b 24.523493
_cell_length_c 15.369328
_cell_angle_alpha 90.000000
_cell_angle_beta 90.000000
_cell_angle_gamma 90.000000
_cell_volume 9243.140124
_symmetry_space_group_name_H-M "I 4/M C M"
_symmetry_group_IT_number 140
_symmetry_cell_setting 'tetragonal'
loop_
_space_group_symop_operation_xyz
x,y,z
-y,x,z
-x,-y,z
y,-x,z
x,-y,1/2-z
-x,y,1/2-z
y,x,1/2-z
-y,-x,1/2-z
-x,-y,-z
y,-x,-z
x,y,-z
-y,x,-z
-x,y,1/2+z
x,-y,1/2+z
-y,-x,1/2+z
y,x,1/2+z
1/2+x,1/2+y,1/2+z
1/2-y,1/2+x,1/2+z
1/2-x,1/2-y,1/2+z
1/2+y,1/2-x,1/2+z
1/2+x,1/2-y,-z
1/2-x,1/2+y,-z
1/2+y,1/2+x,-z
1/2-y,1/2-x,-z
1/2-x,1/2-y,1/2-z
1/2+y,1/2-x,1/2-z
1/2+x,1/2+y,1/2-z
1/2-y,1/2+x,1/2-z
1/2-x,1/2+y,z
1/2+x,1/2-y,z
1/2-y,1/2-x,z
1/2+y,1/2+x,z
loop_
_atom_site_type_symbol
_atom_site_label
_atom_site_fract_x
_atom_site_fract_y
_atom_site_fract_z
Si Si1 0.022853 0.725643 0.100085
Si Si2 0.208012 0.376266 0.721129
Si Si3 0.543166 0.869584 0.326503
Si Si4 0.819201 0.819201 0.250000
Si Si5 0.890351 0.124095 0.894257
Si Si6 0.339707 0.511486 0.395170
O O1 0.077977 0.728208 0.154705
O O2 0.985271 0.776181 0.131478
O O3 0.993014 0.667702 0.109978
O O4 0.035871 0.735449 0.000000
O O5 0.164325 0.335676 0.677905
O O6 0.173302 0.411929 0.790055
O O7 0.256531 0.338660 0.757544
O O8 0.500000 0.884717 0.250000
O O9 0.577464 0.922537 0.356138
O O10 0.839667 0.849965 0.163114
O O11 0.952357 0.138235 0.870280
O O12 0.875240 0.062505 0.867271
O O13 0.884148 0.130567 0.000000
O O14 0.341372 0.513501 0.500000
#
# Coordination Sequence:
#
# PCOD9572189 Si02
#       6
#    32  32  32  16  32  32
#     4  10  19  35  58  82 112 148 188 234 288 347
#     4  10  21  36  54  81 112 145 187 233 287 348
#     4   9  19  35  55  80 111 147 187 234 288 348
#     4  12  21  34  60  81 108 152 192 240 285 342
#     4  10  21  35  53  80 111 146 192 237 282 338
#     4   9  18  34  53  76 109 148 187 234 288 338
#
# _framework density 19.041148
#
# number of rings (size 3 to 8) (size 9 to 14) (size 15 to 20)
#    0.000    2.182    1.818    1.364    0.000    2.000 
#    0.000    1.818    0.000    3.818    0.000    5.091 
#    0.000    0.000    0.000    0.000    0.000    0.000 
#
# Total GULP energy -490234.535511 kJ/mol
# GULP energy per Si atom -5570.846994 kJ/mol
# Density = 1.899781 g / cm^3
# Si number density = 19.041148 Si / 1000 Ang^3
#
#
#
# Elastic Constant Matrix: (Units=GPa)
#
#
# Indices 1 2 3 4 5 6 
#
# 1 72.5152 50.5355 1.3987 0.0000 0.0000 0.0000
# 2 50.5355 72.5152 1.3987 0.0000 0.0000 0.0000
# 3 1.3987 1.3987 31.4752 0.0000 0.0000 0.0000
# 4 0.0000 0.0000 0.0000 15.2747 0.0000 0.0000
# 5 0.0000 0.0000 0.0000 0.0000 15.2747 0.0000
# 6 0.0000 0.0000 0.0000 0.0000 0.0000 44.7919
#
#
#
# Elastic Compliance Matrix: (Units=1/GPa)
#
#
# Indices 1 2 3 4 5 6 
#
# 1 0.026816 -0.018681 -0.000361 0.000000 0.000000 0.000000
# 2 -0.018681 0.026816 -0.000361 0.000000 0.000000 0.000000
# 3 -0.000361 -0.000361 0.031803 0.000000 0.000000 0.000000
# 4 0.000000 0.000000 0.000000 0.065468 0.000000 0.000000
# 5 0.000000 0.000000 0.000000 0.000000 0.065468 0.000000
# 6 0.000000 0.000000 0.000000 0.000000 0.000000 0.022325
#
#
# Mechanical properties :
#
#
# Convention : Reuss Voigt Hill
#
# Bulk Modulus (GPa) = 21.44676 31.46347 26.45512
# Shear Modulus (GPa) = 17.06219 23.27979 20.17099
#
# Velocity S-wave (km/s) = 2.99669 3.50037 3.25828
# Velocity P-wave (km/s) = 4.82300 5.73555 5.29896
#
# Compressibility (1/GPa) = 0.04662708
#
# Stress axis : x y z
#
# Youngs Moduli (GPa) = 37.29147 37.29147 31.44343
#
# Poissons Ratio (x) = 0.69664 0.01137
# Poissons Ratio (y) = 0.69664 0.01137
# Poissons Ratio (z) = 0.01348 0.01348
#
# Static dielectric constant tensor:
#      x y z
#    x 1.677840 0.000000 0.000000 
#    y 0.000000 1.677840 0.000000 
#    z 0.000000 0.000000 1.653830 
# 
# From -- ./inp_files/4959.got.cif
#   From: 2010.05.17/outbox.cif.g08.bks.cpg/sg140_3_cif.got.tgz:4959.got - 2010.06.21 00:45:31.
