data_PCOD9572718
_publ_section_title
;
Structure prediction by ZEFSAII (Michael W. Deem and Ramdas Pophale) SiO2 
 PCOD9572718
Probable space group: I 4/M C M
;
_chemical_formula_sum "Si O2"
_cell_formula_units_Z 80
_cell_length_a 21.000000
_cell_length_b 21.000000
_cell_length_c 18.000000
_cell_angle_alpha 90.000000
_cell_angle_beta 90.000000
_cell_angle_gamma 90.000000
_cell_volume 7938.000000
_symmetry_space_group_name_H-M "I 4/M C M"
_symmetry_group_IT_number 140
_symmetry_cell_setting 'tetragonal'
loop_
_space_group_symop_operation_xyz
x,y,z
-y,x,z
-x,-y,z
y,-x,z
x,-y,1/2-z
-x,y,1/2-z
y,x,1/2-z
-y,-x,1/2-z
-x,-y,-z
y,-x,-z
x,y,-z
-y,x,-z
-x,y,1/2+z
x,-y,1/2+z
-y,-x,1/2+z
y,x,1/2+z
1/2+x,1/2+y,1/2+z
1/2-y,1/2+x,1/2+z
1/2-x,1/2-y,1/2+z
1/2+y,1/2-x,1/2+z
1/2+x,1/2-y,-z
1/2-x,1/2+y,-z
1/2+y,1/2+x,-z
1/2-y,1/2-x,-z
1/2-x,1/2-y,1/2-z
1/2+y,1/2-x,1/2-z
1/2+x,1/2+y,1/2-z
1/2-y,1/2+x,1/2-z
1/2-x,1/2+y,z
1/2+x,1/2-y,z
1/2-y,1/2-x,z
1/2+y,1/2+x,z
loop_
_atom_site_type_symbol
_atom_site_label
_atom_site_fract_x
_atom_site_fract_y
_atom_site_fract_z
Si Si1 0.314791 0.544925 0.684042
Si Si2 0.750361 0.353946 0.777036
Si Si3 0.553081 0.239237 0.410546
Si Si4 0.584402 0.565956 0.917656
Si Si5 0.101401 0.496444 0.090022
O O1 0.340561 0.500000 0.750000
O O2 0.260091 0.586716 0.721989
O O3 0.286968 0.501302 0.618483
O O4 0.370136 0.587836 0.648120
O O5 0.696162 0.303839 0.750000
O O6 0.816435 0.316435 0.770033
O O7 0.747440 0.384347 0.860195
O O8 0.563245 0.243145 0.500000
O O9 0.523486 0.170246 0.389624
O O10 0.510886 0.584081 0.912060
O O11 0.606800 0.585064 0.000000
O O12 0.071284 0.428717 0.115751
O O13 0.049931 0.549931 0.110997
O O14 0.102856 0.493320 0.000000
#
# Coordination Sequence:
#
# PCOD9572718 Si02
#       5
#    32  32  32  32  32
#     4  10  22  35  55  83 115 152 193 243 304 359
#     4  10  23  42  60  82 119 168 217 258 297 356
#     4  10  20  36  60  89 117 154 205 259 309 364
#     4   9  19  35  56  84 114 143 182 238 298 356
#     4   8  14  26  48  80 113 141 175 229 295 355
#
# _framework density 10.078105000000001
#
# number of rings (size 3 to 8) (size 9 to 14) (size 15 to 20)
#    0.000    2.600    0.000    2.400    5.600    2.000 
#    0.000    2.000    0.000    4.200    0.000    9.800 
#    0.000    0.000    0.000    0.000    0.000    0.000 
#
# Total GULP energy -445862.056889 kJ/mol
# GULP energy per Si atom -5573.275711 kJ/mol
# Density = 1.005517 g / cm^3
# Si number density = 10.078105 Si / 1000 Ang^3
#
#
#
# Elastic Constant Matrix: (Units=GPa)
#
#
# Indices 1 2 3 4 5 6 
#
# 1 86.8534 20.5618 37.9678 0.0000 0.0000 0.0000
# 2 20.5618 86.8549 37.9673 0.0000 0.0000 0.0000
# 3 37.9678 37.9673 100.5538 0.0000 0.0000 0.0000
# 4 0.0000 0.0000 0.0000 21.1953 0.0000 0.0000
# 5 0.0000 0.0000 0.0000 0.0000 21.1957 0.0000
# 6 0.0000 0.0000 0.0000 0.0000 0.0000 26.0472
#
#
#
# Elastic Compliance Matrix: (Units=1/GPa)
#
#
# Indices 1 2 3 4 5 6 
#
# 1 0.013892 -0.001193 -0.004795 0.000000 0.000000 0.000000
# 2 -0.001193 0.013892 -0.004795 0.000000 0.000000 0.000000
# 3 -0.004795 -0.004795 0.013566 0.000000 0.000000 0.000000
# 4 0.000000 0.000000 0.000000 0.047180 0.000000 0.000000
# 5 0.000000 0.000000 0.000000 0.000000 0.047179 0.000000
# 6 0.000000 0.000000 0.000000 0.000000 0.000000 0.038392
#
#
# Mechanical properties :
#
#
# Convention : Reuss Voigt Hill
#
# Bulk Modulus (GPa) = 50.54480 51.91732 51.23106
# Shear Modulus (GPa) = 24.72040 25.53866 25.12953
#
# Velocity S-wave (km/s) = 3.50586 3.56341 3.53475
# Velocity P-wave (km/s) = 6.44353 6.53788 6.49088
#
# Compressibility (1/GPa) = 0.01978443
#
# Stress axis : x y z
#
# Youngs Moduli (GPa) = 71.98279 71.98470 73.71361
#
# Poissons Ratio (x) = 0.08585 0.35347
# Poissons Ratio (y) = 0.08585 0.35345
# Poissons Ratio (z) = 0.34517 0.34516
#
# Static dielectric constant tensor:
#      x y z
#    x 1.756180 0.000000 0.000000 
#    y 0.000000 1.756180 0.000000 
#    z 0.000000 0.000000 1.721760 
# 
# From -- ./inp_files/6826.got.cif
#   From: 2010.05.17/outbox.ucp.g08.bks.cvg/sg140_4_cif.got.tgz:6826.got - 2010.06.11 11:42:50.
