data_PCOD9572126
_publ_section_title
;
Structure prediction by ZEFSAII (Michael W. Deem and Ramdas Pophale) SiO2 
 PCOD9572126
Probable space group: I 4/M C M
;
_chemical_formula_sum "Si O2"
_cell_formula_units_Z 160
_cell_length_a 22.057932
_cell_length_b 22.057932
_cell_length_c 14.755565
_cell_angle_alpha 90.000000
_cell_angle_beta 90.000000
_cell_angle_gamma 90.000000
_cell_volume 7179.355035
_symmetry_space_group_name_H-M "I 4/M C M"
_symmetry_group_IT_number 140
_symmetry_cell_setting 'tetragonal'
loop_
_space_group_symop_operation_xyz
x,y,z
-y,x,z
-x,-y,z
y,-x,z
x,-y,1/2-z
-x,y,1/2-z
y,x,1/2-z
-y,-x,1/2-z
-x,-y,-z
y,-x,-z
x,y,-z
-y,x,-z
-x,y,1/2+z
x,-y,1/2+z
-y,-x,1/2+z
y,x,1/2+z
1/2+x,1/2+y,1/2+z
1/2-y,1/2+x,1/2+z
1/2-x,1/2-y,1/2+z
1/2+y,1/2-x,1/2+z
1/2+x,1/2-y,-z
1/2-x,1/2+y,-z
1/2+y,1/2+x,-z
1/2-y,1/2-x,-z
1/2-x,1/2-y,1/2-z
1/2+y,1/2-x,1/2-z
1/2+x,1/2+y,1/2-z
1/2-y,1/2+x,1/2-z
1/2-x,1/2+y,z
1/2+x,1/2-y,z
1/2-y,1/2-x,z
1/2+y,1/2+x,z
loop_
_atom_site_type_symbol
_atom_site_label
_atom_site_fract_x
_atom_site_fract_y
_atom_site_fract_z
Si Si1 0.662169 0.426366 0.638584
Si Si2 0.935635 0.172238 0.859456
Si Si3 0.208277 0.382994 0.133678
Si Si4 0.389950 0.014958 0.603698
Si Si5 0.902166 0.308380 0.152428
O O1 0.609599 0.380584 0.610524
O O2 0.657667 0.496165 0.610788
O O3 0.667884 0.430749 0.749024
O O4 0.724817 0.398203 0.605175
O O5 0.919426 0.241987 0.885727
O O6 0.181805 0.318196 0.106857
O O7 0.161808 0.433929 0.101306
O O8 0.204606 0.387931 0.242630
O O9 0.403349 0.997761 0.500000
O O10 0.449649 0.050352 0.641350
O O11 0.356742 0.957785 0.649336
O O12 0.844097 0.344097 0.112998
#
# Coordination Sequence:
#
# PCOD9572126 Si02
#       5
#    32  32  32  32  32
#     4   9  16  28  47  72 106 132 163 206 252 305
#     4   9  17  28  46  74 103 135 163 203 256 302
#     4   9  17  31  52  74 100 134 169 207 248 297
#     4  10  20  33  51  75 102 135 172 207 249 300
#     4  10  19  32  51  74 103 134 169 209 252 300
#
# _framework density 22.286124999999998
#
# number of rings (size 3 to 8) (size 9 to 14) (size 15 to 20)
#    0.000    2.600    2.000    0.600    0.000    2.000 
#    0.000    7.000    0.000    4.800    0.000    2.800 
#    0.000    1.600    0.000    0.000    0.000    0.000 
#
# Total GULP energy -446392.582918 kJ/mol
# GULP energy per Si atom -5579.907286 kJ/mol
# Density = 2.223540 g / cm^3
# Si number density = 22.286125 Si / 1000 Ang^3
#
#
#
# Elastic Constant Matrix: (Units=GPa)
#
#
# Indices 1 2 3 4 5 6 
#
# 1 161.1358 190.3091 7.2303 0.0000 0.0000 0.0000
# 2 190.3091 161.1358 7.2303 0.0000 0.0000 0.0000
# 3 7.2303 7.2303 61.8226 0.0000 0.0000 0.0000
# 4 0.0000 0.0000 0.0000 -32.4301 0.0000 0.0000
# 5 0.0000 0.0000 0.0000 0.0000 -32.4301 0.0000
# 6 0.0000 0.0000 0.0000 0.0000 0.0000 36.9164
#
#
#
# Elastic Compliance Matrix: (Units=1/GPa)
#
#
# Indices 1 2 3 4 5 6 
#
# 1 -0.015709 0.018569 -0.000334 0.000000 0.000000 0.000000
# 2 0.018569 -0.015709 -0.000334 0.000000 0.000000 0.000000
# 3 -0.000334 -0.000334 0.016254 0.000000 0.000000 0.000000
# 4 0.000000 0.000000 0.000000 -0.030836 0.000000 0.000000
# 5 0.000000 0.000000 0.000000 0.000000 -0.030836 0.000000
# 6 0.000000 0.000000 0.000000 0.000000 0.000000 0.027088
#
#
# Mechanical properties :
#
#
# Convention : Reuss Voigt Hill
#
# Bulk Modulus (GPa) = 48.46300 88.18151 68.32226
# Shear Modulus (GPa) = -63.55704 6.36619 -28.59542
#
# Velocity S-wave (km/s) = -5.34608 1.69197 -3.58593
# Velocity P-wave (km/s) = 4.03911 6.59324 3.68486
#
# Compressibility (1/GPa) = 0.02063430
#
# Stress axis : x y z
#
# Youngs Moduli (GPa) = -63.65621 -63.65621 61.52511
#
# Poissons Ratio (x) = 1.18200 0.02057
# Poissons Ratio (y) = 1.18200 0.02057
# Poissons Ratio (z) = -0.02129 -0.02129
#
# Static dielectric constant tensor:
#      x y z
#    x 1.794980 0.000000 0.000000 
#    y 0.000000 1.794980 0.000000 
#    z 0.000000 0.000000 1.865260 
# 
# From -- ./inp_files/6862.got.cif
#   From: 2010.05.17/outbox.cif.g08.bks.cpg/sg140_4_cif.got.tgz:6862.got - 2010.06.21 00:45:31.
