data_PCOD9572520
_publ_section_title
;
Structure prediction by ZEFSAII (Michael W. Deem and Ramdas Pophale) SiO2 
 PCOD9572520
Probable space group: I 4/M C M
;
_chemical_formula_sum "Si O2"
_cell_formula_units_Z 160
_cell_length_a 20.410173
_cell_length_b 20.410173
_cell_length_c 19.906835
_cell_angle_alpha 90.000000
_cell_angle_beta 90.000000
_cell_angle_gamma 90.000000
_cell_volume 8292.693013
_symmetry_space_group_name_H-M "I 4/M C M"
_symmetry_group_IT_number 140
_symmetry_cell_setting 'tetragonal'
loop_
_space_group_symop_operation_xyz
x,y,z
-y,x,z
-x,-y,z
y,-x,z
x,-y,1/2-z
-x,y,1/2-z
y,x,1/2-z
-y,-x,1/2-z
-x,-y,-z
y,-x,-z
x,y,-z
-y,x,-z
-x,y,1/2+z
x,-y,1/2+z
-y,-x,1/2+z
y,x,1/2+z
1/2+x,1/2+y,1/2+z
1/2-y,1/2+x,1/2+z
1/2-x,1/2-y,1/2+z
1/2+y,1/2-x,1/2+z
1/2+x,1/2-y,-z
1/2-x,1/2+y,-z
1/2+y,1/2+x,-z
1/2-y,1/2-x,-z
1/2-x,1/2-y,1/2-z
1/2+y,1/2-x,1/2-z
1/2+x,1/2+y,1/2-z
1/2-y,1/2+x,1/2-z
1/2-x,1/2+y,z
1/2+x,1/2-y,z
1/2-y,1/2-x,z
1/2+y,1/2+x,z
loop_
_atom_site_type_symbol
_atom_site_label
_atom_site_fract_x
_atom_site_fract_y
_atom_site_fract_z
Si Si1 0.110249 0.992960 0.326767
Si Si2 0.228376 0.161308 0.577320
Si Si3 0.068480 0.324448 0.332056
Si Si4 0.294492 0.579082 0.077810
Si Si5 0.192400 0.416506 0.182611
O O1 0.167568 0.974603 0.377577
O O2 0.058177 0.933303 0.335691
O O3 0.134661 0.000000 0.250000
O O4 0.240190 0.139884 0.500000
O O5 0.272541 0.227460 0.586944
O O6 0.151479 0.174634 0.585089
O O7 0.252706 0.109194 0.631917
O O8 0.107698 0.392303 0.334159
O O9 0.085857 0.278519 0.393994
O O10 0.088504 0.289641 0.261486
O O11 0.990436 0.329644 0.330321
O O12 0.296509 0.560589 0.000000
O O13 0.131224 0.368777 0.171678
#
# Coordination Sequence:
#
# PCOD9572520 Si02
#       5
#    32  32  32  32  32
#     4   9  21  40  60  84 115 154 197 242 291 342
#     4   9  19  37  59  86 121 156 194 241 293 348
#     4  10  22  38  58  87 121 155 195 245 300 356
#     4  11  24  37  59  88 119 158 195 238 294 352
#     4   9  20  38  61  87 115 155 202 246 293 352
#
# _framework density 19.294094000000001
#
# number of rings (size 3 to 8) (size 9 to 14) (size 15 to 20)
#    0.000    2.400    0.000    1.200    5.600    5.600 
#    0.000    6.000    0.000    0.000    0.000    4.200 
#    0.000    0.000    0.000    0.000    0.000    0.000 
#
# Total GULP energy -446506.691408 kJ/mol
# GULP energy per Si atom -5581.333643 kJ/mol
# Density = 1.925018 g / cm^3
# Si number density = 19.294094 Si / 1000 Ang^3
#
#
#
# Elastic Constant Matrix: (Units=GPa)
#
#
# Indices 1 2 3 4 5 6 
#
# 1 62.9956 14.0745 51.2213 0.0000 0.0000 0.0000
# 2 14.0745 62.9956 51.2213 0.0000 0.0000 0.0000
# 3 51.2213 51.2213 105.0612 0.0000 0.0000 0.0000
# 4 0.0000 0.0000 0.0000 27.8624 0.0000 0.0000
# 5 0.0000 0.0000 0.0000 0.0000 27.8624 0.0000
# 6 0.0000 0.0000 0.0000 0.0000 0.0000 25.5679
#
#
#
# Elastic Compliance Matrix: (Units=1/GPa)
#
#
# Indices 1 2 3 4 5 6 
#
# 1 0.028653 0.008212 -0.017973 0.000000 0.000000 0.000000
# 2 0.008212 0.028653 -0.017973 0.000000 0.000000 0.000000
# 3 -0.017973 -0.017973 0.027044 0.000000 0.000000 0.000000
# 4 0.000000 0.000000 0.000000 0.035891 0.000000 0.000000
# 5 0.000000 0.000000 0.000000 0.000000 0.035891 0.000000
# 6 0.000000 0.000000 0.000000 0.000000 0.000000 0.039112
#
#
# Mechanical properties :
#
#
# Convention : Reuss Voigt Hill
#
# Bulk Modulus (GPa) = 34.62427 51.56516 43.09471
# Shear Modulus (GPa) = 19.20567 23.89424 21.54995
#
# Velocity S-wave (km/s) = 3.15845 3.52294 3.34566
# Velocity P-wave (km/s) = 5.59335 6.58271 6.10809
#
# Compressibility (1/GPa) = 0.02888148
#
# Stress axis : x y z
#
# Youngs Moduli (GPa) = 34.89982 34.89982 36.97710
#
# Poissons Ratio (x) = -0.28661 0.66461
# Poissons Ratio (y) = -0.28661 0.66461
# Poissons Ratio (z) = 0.62727 0.62727
#
# Static dielectric constant tensor:
#      x y z
#    x 1.669500 0.000000 0.000000 
#    y 0.000000 1.669500 0.000000 
#    z 0.000000 0.000000 1.675640 
# 
# From -- ./inp_files/6876.got.cif
#   From: 2010.05.17/outbox.cif.g08.bks.cpg/sg140_4_cif.got.tgz:6876.got - 2010.06.21 00:45:31.
