data_PCOD9572599
_publ_section_title
;
Structure prediction by ZEFSAII (Michael W. Deem and Ramdas Pophale) SiO2 
 PCOD9572599
Probable space group: I 4/M C M
;
_chemical_formula_sum "Si O2"
_cell_formula_units_Z 124
_cell_length_a 17.639340
_cell_length_b 17.639340
_cell_length_c 20.021619
_cell_angle_alpha 90.000000
_cell_angle_beta 90.000000
_cell_angle_gamma 90.000000
_cell_volume 6229.652985
_symmetry_space_group_name_H-M "I 4/M C M"
_symmetry_group_IT_number 140
_symmetry_cell_setting 'tetragonal'
loop_
_space_group_symop_operation_xyz
x,y,z
-y,x,z
-x,-y,z
y,-x,z
x,-y,1/2-z
-x,y,1/2-z
y,x,1/2-z
-y,-x,1/2-z
-x,-y,-z
y,-x,-z
x,y,-z
-y,x,-z
-x,y,1/2+z
x,-y,1/2+z
-y,-x,1/2+z
y,x,1/2+z
1/2+x,1/2+y,1/2+z
1/2-y,1/2+x,1/2+z
1/2-x,1/2-y,1/2+z
1/2+y,1/2-x,1/2+z
1/2+x,1/2-y,-z
1/2-x,1/2+y,-z
1/2+y,1/2+x,-z
1/2-y,1/2-x,-z
1/2-x,1/2-y,1/2-z
1/2+y,1/2-x,1/2-z
1/2+x,1/2+y,1/2-z
1/2-y,1/2+x,1/2-z
1/2-x,1/2+y,z
1/2+x,1/2-y,z
1/2-y,1/2-x,z
1/2+y,1/2+x,z
loop_
_atom_site_type_symbol
_atom_site_label
_atom_site_fract_x
_atom_site_fract_y
_atom_site_fract_z
Si Si1 0.377256 0.877256 0.765320
Si Si2 0.364040 0.135961 0.121282
Si Si3 0.000000 0.500000 0.750000
Si Si4 0.784901 0.480370 0.369206
Si Si5 0.009877 0.880313 0.829678
Si Si6 0.884269 0.263846 0.500000
Si Si7 0.281191 0.218810 0.000000
O O1 0.341946 0.841946 0.698186
O O2 0.436590 0.936590 0.732012
O O3 0.424916 0.820818 0.812897
O O4 0.452638 0.156877 0.112665
O O5 0.317774 0.182227 0.065611
O O6 0.707363 0.518385 0.344913
O O7 0.760321 0.432924 0.433580
O O8 0.079266 0.932392 0.854462
O O9 0.000000 0.885746 0.750000
O O10 0.847325 0.347325 0.500000
O O11 0.810452 0.209868 0.500000
#
# Coordination Sequence:
#
# PCOD9572599 Si02
#       7
#    16  16   4  32  32  16   8
#     4  12  21  39  68  99 138 172 216 275 335 397
#     4  12  24  39  71 101 129 172 222 269 334 401
#     4  12  20  40  56  98 148 156 204 282 312 396
#     4  12  23  43  66 100 131 180 220 271 336 403
#     4   9  20  39  63  93 130 169 214 275 339 401
#     4  10  25  46  62  84 135 176 217 274 328 385
#     4  10  26  48  60  94 136 178 222 282 326 374
#
# _framework density 19.904800999999999
#
# number of rings (size 3 to 8) (size 9 to 14) (size 15 to 20)
#    0.387    0.774    3.871    3.097    3.613    0.000 
#    0.000    1.935    0.000    1.548    0.000    0.000 
#    0.000    0.000    0.000    0.000    0.000    0.000 
#
# Total GULP energy -345270.031603 kJ/mol
# GULP energy per Si atom -5568.871477 kJ/mol
# Density = 1.985950 g / cm^3
# Si number density = 19.904801 Si / 1000 Ang^3
#
#
#
# Elastic Constant Matrix: (Units=GPa)
#
#
# Indices 1 2 3 4 5 6 
#
# 1 81.6489 25.7314 37.7763 0.0000 0.0000 0.0000
# 2 25.7314 81.6496 37.7766 0.0000 0.0000 0.0000
# 3 37.7763 37.7766 123.7673 0.0000 0.0000 0.0000
# 4 0.0000 0.0000 0.0000 28.0184 0.0000 0.0000
# 5 0.0000 0.0000 0.0000 0.0000 28.0185 0.0000
# 6 0.0000 0.0000 0.0000 0.0000 0.0000 28.8763
#
#
#
# Elastic Compliance Matrix: (Units=1/GPa)
#
#
# Indices 1 2 3 4 5 6 
#
# 1 0.014872 -0.003012 -0.003620 0.000000 0.000000 0.000000
# 2 -0.003012 0.014871 -0.003620 0.000000 0.000000 0.000000
# 3 -0.003620 -0.003620 0.010289 0.000000 0.000000 0.000000
# 4 0.000000 0.000000 0.000000 0.035691 0.000000 0.000000
# 5 0.000000 0.000000 0.000000 0.000000 0.035691 0.000000
# 6 0.000000 0.000000 0.000000 0.000000 0.000000 0.034630
#
#
# Mechanical properties :
#
#
# Convention : Reuss Voigt Hill
#
# Bulk Modulus (GPa) = 51.20515 54.40381 52.80448
# Shear Modulus (GPa) = 28.89222 29.36808 29.13015
#
# Velocity S-wave (km/s) = 3.81402 3.84530 3.82969
# Velocity P-wave (km/s) = 6.72135 6.86341 6.79275
#
# Compressibility (1/GPa) = 0.01952929
#
# Stress axis : x y z
#
# Youngs Moduli (GPa) = 67.24268 67.24310 97.18782
#
# Poissons Ratio (x) = 0.20253 0.35180
# Poissons Ratio (y) = 0.20253 0.35180
# Poissons Ratio (z) = 0.24340 0.24341
#
# Static dielectric constant tensor:
#      x y z
#    x 1.721880 0.000000 0.000000 
#    y 0.000000 1.721880 0.000000 
#    z 0.000000 0.000000 1.669660 
# 
# From -- ./inp_files/8082.got.cif
#   From: 2010.05.17/outbox.cif.g08.bks.cpg/sg140_5_cif.got.tgz:8082.got - 2010.06.21 00:45:31.
