data_PCOD9572245
_publ_section_title
;
Structure prediction by ZEFSAII (Michael W. Deem and Ramdas Pophale) SiO2 
 PCOD9572245
Probable space group: I 4/M C M
;
_chemical_formula_sum "Si O2"
_cell_formula_units_Z 96
_cell_length_a 22.184151
_cell_length_b 22.184151
_cell_length_c 9.215621
_cell_angle_alpha 90.000000
_cell_angle_beta 90.000000
_cell_angle_gamma 90.000000
_cell_volume 4535.343977
_symmetry_space_group_name_H-M "I 4/M C M"
_symmetry_group_IT_number 140
_symmetry_cell_setting 'tetragonal'
loop_
_space_group_symop_operation_xyz
x,y,z
-y,x,z
-x,-y,z
y,-x,z
x,-y,1/2-z
-x,y,1/2-z
y,x,1/2-z
-y,-x,1/2-z
-x,-y,-z
y,-x,-z
x,y,-z
-y,x,-z
-x,y,1/2+z
x,-y,1/2+z
-y,-x,1/2+z
y,x,1/2+z
1/2+x,1/2+y,1/2+z
1/2-y,1/2+x,1/2+z
1/2-x,1/2-y,1/2+z
1/2+y,1/2-x,1/2+z
1/2+x,1/2-y,-z
1/2-x,1/2+y,-z
1/2+y,1/2+x,-z
1/2-y,1/2-x,-z
1/2-x,1/2-y,1/2-z
1/2+y,1/2-x,1/2-z
1/2+x,1/2+y,1/2-z
1/2-y,1/2+x,1/2-z
1/2-x,1/2+y,z
1/2+x,1/2-y,z
1/2-y,1/2-x,z
1/2+y,1/2+x,z
loop_
_atom_site_type_symbol
_atom_site_label
_atom_site_fract_x
_atom_site_fract_y
_atom_site_fract_z
Si Si1 0.448739 0.369767 0.659585
Si Si2 0.265944 0.351214 0.166481
Si Si3 0.334459 0.933808 0.326155
O O1 0.500000 0.337493 0.750000
O O2 0.426892 0.426892 0.750000
O O3 0.469750 0.385707 0.500000
O O4 0.394756 0.323354 0.652195
O O5 0.293557 0.293557 0.250000
O O6 0.215144 0.388562 0.254271
O O7 0.247407 0.339515 0.000000
O O8 0.322903 0.940030 0.500000
O O9 0.398358 0.898358 0.308599
O O10 0.333612 0.000000 0.250000
#
# Coordination Sequence:
#
# PCOD9572245 Si02
#       3
#    32  32  32
#     4  10  20  33  50  74 105 144 191 243 299 360
#     4  10  21  38  63  93 126 164 206 256 314 378
#     4  11  25  44  67  96 130 170 217 269 326 389
#
# _framework density 21.167082000000001
#
# number of rings (size 3 to 8) (size 9 to 14) (size 15 to 20)
#    0.000    1.667    0.000    4.000    0.000   10.667 
#    0.000    3.333    0.000    0.000    0.000    0.000 
#    0.000    0.000    0.000    0.000    0.000    0.000 
#
# Total GULP energy -267729.012118 kJ/mol
# GULP energy per Si atom -5577.687752 kJ/mol
# Density = 2.111890 g / cm^3
# Si number density = 21.167082 Si / 1000 Ang^3
#
#
#
# Elastic Constant Matrix: (Units=GPa)
#
#
# Indices 1 2 3 4 5 6 
#
# 1 -5.8510 181.6404 88.4307 0.0000 0.0000 0.0000
# 2 181.6404 -5.8510 88.4307 0.0000 0.0000 0.0000
# 3 88.4307 88.4307 227.6018 0.0000 0.0000 0.0000
# 4 0.0000 0.0000 0.0000 -305.6599 0.0000 0.0000
# 5 0.0000 0.0000 0.0000 0.0000 -305.6599 0.0000
# 6 0.0000 0.0000 0.0000 0.0000 0.0000 23.5233
#
#
#
# Elastic Compliance Matrix: (Units=1/GPa)
#
#
# Indices 1 2 3 4 5 6 
#
# 1 0.002003 0.007336 -0.003629 0.000000 0.000000 0.000000
# 2 0.007336 0.002003 -0.003629 0.000000 0.000000 0.000000
# 3 -0.003629 -0.003629 0.007213 0.000000 0.000000 0.000000
# 4 0.000000 0.000000 0.000000 -0.003272 0.000000 0.000000
# 5 0.000000 0.000000 0.000000 0.000000 -0.003272 0.000000
# 6 0.000000 0.000000 0.000000 0.000000 0.000000 0.042511
#
#
# Mechanical properties :
#
#
# Convention : Reuss Voigt Hill
#
# Bulk Modulus (GPa) = 87.89263 103.65593 95.77428
# Shear Modulus (GPa) = 98.38424 -127.06611 -14.34093
#
# Velocity S-wave (km/s) = 6.82501 -7.75631 -2.60573
# Velocity P-wave (km/s) = 10.18435 5.58007 6.02428
#
# Compressibility (1/GPa) = 0.01137752
#
# Stress axis : x y z
#
# Youngs Moduli (GPa) = 499.27103 499.27103 138.63186
#
# Poissons Ratio (x) = -3.66290 0.50305
# Poissons Ratio (y) = -3.66290 0.50305
# Poissons Ratio (z) = 1.81169 1.81169
#
# Static dielectric constant tensor:
#      x y z
#    x 1.813070 0.000000 0.000000 
#    y 0.000000 1.813070 0.000000 
#    z 0.000000 0.000000 1.739000 
# 
# From -- ./inp_files/917.got.cif
#   From: 2010.05.17/outbox.cif.g08.bks.cpg/sg140_1_cif.got.tgz:917.got - 2010.06.21 00:45:31.
