data_PCOD9572502
_publ_section_title
;
Structure prediction by ZEFSAII (Michael W. Deem and Ramdas Pophale) SiO2 
 PCOD9572502
Probable space group: I 4/M C M
;
_chemical_formula_sum "Si O2"
_cell_formula_units_Z 96
_cell_length_a 13.666556
_cell_length_b 13.666556
_cell_length_c 24.736211
_cell_angle_alpha 90.000000
_cell_angle_beta 90.000000
_cell_angle_gamma 90.000000
_cell_volume 4620.099697
_symmetry_space_group_name_H-M "I 4/M C M"
_symmetry_group_IT_number 140
_symmetry_cell_setting 'tetragonal'
loop_
_space_group_symop_operation_xyz
x,y,z
-y,x,z
-x,-y,z
y,-x,z
x,-y,1/2-z
-x,y,1/2-z
y,x,1/2-z
-y,-x,1/2-z
-x,-y,-z
y,-x,-z
x,y,-z
-y,x,-z
-x,y,1/2+z
x,-y,1/2+z
-y,-x,1/2+z
y,x,1/2+z
1/2+x,1/2+y,1/2+z
1/2-y,1/2+x,1/2+z
1/2-x,1/2-y,1/2+z
1/2+y,1/2-x,1/2+z
1/2+x,1/2-y,-z
1/2-x,1/2+y,-z
1/2+y,1/2+x,-z
1/2-y,1/2-x,-z
1/2-x,1/2-y,1/2-z
1/2+y,1/2-x,1/2-z
1/2+x,1/2+y,1/2-z
1/2-y,1/2+x,1/2-z
1/2-x,1/2+y,z
1/2+x,1/2-y,z
1/2-y,1/2-x,z
1/2+y,1/2+x,z
loop_
_atom_site_type_symbol
_atom_site_label
_atom_site_fract_x
_atom_site_fract_y
_atom_site_fract_z
Si Si1 0.082295 0.417706 0.826887
Si Si2 0.134810 0.084655 0.410577
Si Si3 0.198000 0.085474 0.711983
Si Si4 0.347060 0.847060 0.059136
O O1 0.060314 0.310456 0.802539
O O2 0.099254 0.400747 0.891077
O O3 0.000000 0.500000 0.816804
O O4 0.145696 0.094660 0.345621
O O5 0.231324 0.133226 0.434655
O O6 0.030266 0.130489 0.425405
O O7 0.178579 0.178579 0.750000
O O8 0.158826 0.000000 0.750000
O O9 0.379971 0.879971 0.000000
#
# Coordination Sequence:
#
# PCOD9572502 Si02
#       4
#    16  32  32  16
#     4  10  25  44  60  95 134 177 222 274 322 396
#     4  10  21  41  68  98 132 171 223 274 327 406
#     4  11  21  36  63  96 134 176 212 257 323 386
#     4  10  24  46  66  96 130 169 228 291 350 392
#
# _framework density 20.778773000000001
#
# number of rings (size 3 to 8) (size 9 to 14) (size 15 to 20)
#    0.000    1.667    3.333    0.500    2.333    2.000 
#   12.000    1.667    0.000    0.000    0.000    0.000 
#    0.000    0.000    0.000    0.000    0.000    0.000 
#
# Total GULP energy -267919.913882 kJ/mol
# GULP energy per Si atom -5581.664873 kJ/mol
# Density = 2.073148 g / cm^3
# Si number density = 20.778773 Si / 1000 Ang^3
#
#
#
# Elastic Constant Matrix: (Units=GPa)
#
#
# Indices 1 2 3 4 5 6 
#
# 1 109.2188 91.2165 22.9660 0.0000 0.0000 0.0000
# 2 91.2165 109.2188 22.9660 0.0000 0.0000 0.0000
# 3 22.9660 22.9660 121.6060 0.0000 0.0000 0.0000
# 4 0.0000 0.0000 0.0000 28.9106 0.0000 0.0000
# 5 0.0000 0.0000 0.0000 0.0000 28.9106 0.0000
# 6 0.0000 0.0000 0.0000 0.0000 0.0000 41.1710
#
#
#
# Elastic Compliance Matrix: (Units=1/GPa)
#
#
# Indices 1 2 3 4 5 6 
#
# 1 0.030382 -0.025167 -0.000985 0.000000 0.000000 0.000000
# 2 -0.025167 0.030382 -0.000985 0.000000 0.000000 0.000000
# 3 -0.000985 -0.000985 0.008595 0.000000 0.000000 0.000000
# 4 0.000000 0.000000 0.000000 0.034589 0.000000 0.000000
# 5 0.000000 0.000000 0.000000 0.000000 0.034589 0.000000
# 6 0.000000 0.000000 0.000000 0.000000 0.000000 0.024289
#
#
# Mechanical properties :
#
#
# Convention : Reuss Voigt Hill
#
# Bulk Modulus (GPa) = 66.28868 68.26004 67.27436
# Shear Modulus (GPa) = 22.50960 33.32480 27.91720
#
# Velocity S-wave (km/s) = 3.29492 4.00908 3.66942
# Velocity P-wave (km/s) = 6.81518 7.37241 7.09927
#
# Compressibility (1/GPa) = 0.01508553
#
# Stress axis : x y z
#
# Youngs Moduli (GPa) = 32.91470 32.91470 116.34310
#
# Poissons Ratio (x) = 0.82836 0.11458
# Poissons Ratio (y) = 0.82836 0.11458
# Poissons Ratio (z) = 0.03242 0.03242
#
# Static dielectric constant tensor:
#      x y z
#    x 1.772310 0.000000 0.000000 
#    y 0.000000 1.772310 0.000000 
#    z 0.000000 0.000000 1.739630 
# 
# From -- ./inp_files/7703.got.cif
#   From: 2010.05.17/outbox.cif.g08.bks.cpg/sg140_4_cif.got.tgz:7703.got - 2010.06.21 00:45:31.
