data_PCOD9572856
_publ_section_title
;
Structure prediction by ZEFSAII (Michael W. Deem and Ramdas Pophale) SiO2 
 PCOD9572856
Probable space group: I 41/A M D
;
_chemical_formula_sum "Si O2"
_cell_formula_units_Z 144
_cell_length_a 30.799674
_cell_length_b 30.799674
_cell_length_c 7.548974
_cell_angle_alpha 90.000000
_cell_angle_beta 90.000000
_cell_angle_gamma 90.000000
_cell_volume 7161.107101
_symmetry_space_group_name_H-M "I 41/A M D"
_symmetry_group_IT_number 141
_space_group.IT_coordinate_system_code '2'
_symmetry_cell_setting 'tetragonal'
loop_
_space_group_symop_operation_xyz
x,y,z
1/4-y,3/4+x,1/4+z
-x,1/2-y,z
1/4+y,1/4-x,3/4+z
x,-y,-z
-x,1/2+y,-z
1/4+y,3/4+x,1/4-z
1/4-y,1/4-x,3/4-z
-x,-y,-z
3/4+y,1/4-x,3/4-z
x,1/2+y,-z
3/4-y,3/4+x,1/4-z
-x,y,z
x,1/2-y,z
3/4-y,1/4-x,3/4+z
3/4+y,3/4+x,1/4+z
1/2+x,1/2+y,1/2+z
3/4-y,1/4+x,3/4+z
1/2-x,-y,1/2+z
3/4+y,3/4-x,1/4+z
1/2+x,1/2-y,1/2-z
1/2-x,y,1/2-z
3/4+y,1/4+x,3/4-z
3/4-y,3/4-x,1/4-z
1/2-x,1/2-y,1/2-z
1/4+y,3/4-x,1/4-z
1/2+x,y,1/2-z
1/4-y,1/4+x,3/4-z
1/2-x,1/2+y,1/2+z
1/2+x,-y,1/2+z
1/4-y,3/4-x,1/4+z
1/4+y,1/4+x,3/4+z
loop_
_atom_site_type_symbol
_atom_site_label
_atom_site_fract_x
_atom_site_fract_y
_atom_site_fract_z
Si Si1 0.175266 0.156858 0.190802
Si Si2 0.292650 0.615180 0.364350
Si Si3 0.346112 0.658878 0.075765
Si Si4 0.568304 0.750000 0.317084
Si Si5 0.640921 0.250000 0.397709
Si Si6 0.610108 0.750000 0.981121
O O1 0.127886 0.133654 0.165868
O O2 0.182798 0.151206 0.399910
O O3 0.169063 0.206721 0.133552
O O4 0.209256 0.133332 0.063174
O O5 0.250000 0.606832 0.250000
O O6 0.322335 0.572335 0.375000
O O7 0.319099 0.651539 0.252667
O O8 0.365339 0.706331 0.042854
O O9 0.542418 0.707583 0.375000
O O10 0.614351 0.750000 0.419421
O O11 0.568572 0.750000 0.104720
O O12 0.607367 0.250000 0.230167
#
# Coordination Sequence:
#
# PCOD9572856 Si02
#       6
#    32  32  32  16  16  16
#     4   9  18  33  54  79 107 145 187 227 273 319
#     4  10  21  38  61  81 108 138 171 216 270 338
#     4   9  18  33  54  79 107 145 187 227 273 319
#     4  11  22  30  40  66 105 146 192 242 289 320
#     4  10  19  33  53  76 105 143 192 234 268 322
#     4  10  19  33  53  76 105 143 192 234 268 322
#
# _framework density 20.108623999999999
#
# number of rings (size 3 to 8) (size 9 to 14) (size 15 to 20)
#    0.000    2.333    0.000    2.667    0.000    5.333 
#    0.000    3.333    9.778    4.000    0.000    0.000 
#    0.000    0.000    0.000    0.000    0.000    0.000 
#
# Total GULP energy -401495.577678 kJ/mol
# GULP energy per Si atom -5576.327468 kJ/mol
# Density = 2.006286 g / cm^3
# Si number density = 20.108624 Si / 1000 Ang^3
#
#
#
# Elastic Constant Matrix: (Units=GPa)
#
#
# Indices 1 2 3 4 5 6 
#
# 1 55.5933 18.9488 15.7171 0.0000 0.0000 0.0000
# 2 18.9488 55.5963 15.7184 0.0000 0.0000 0.0000
# 3 15.7171 15.7184 99.9362 0.0000 0.0000 0.0000
# 4 0.0000 0.0000 0.0000 22.7572 0.0000 0.0000
# 5 0.0000 0.0000 0.0000 0.0000 22.7569 0.0000
# 6 0.0000 0.0000 0.0000 0.0000 0.0000 5.7042
#
#
#
# Elastic Compliance Matrix: (Units=1/GPa)
#
#
# Indices 1 2 3 4 5 6 
#
# 1 0.020829 -0.006460 -0.002260 0.000000 0.000000 0.000000
# 2 -0.006460 0.020828 -0.002260 0.000000 0.000000 0.000000
# 3 -0.002260 -0.002260 0.010717 0.000000 0.000000 0.000000
# 4 0.000000 0.000000 0.000000 0.043942 0.000000 0.000000
# 5 0.000000 0.000000 0.000000 0.000000 0.043943 0.000000
# 6 0.000000 0.000000 0.000000 0.000000 0.000000 0.175309
#
#
# Mechanical properties :
#
#
# Convention : Reuss Voigt Hill
#
# Bulk Modulus (GPa) = 32.87958 34.65494 33.76726
# Shear Modulus (GPa) = 14.38171 20.95976 17.67073
#
# Velocity S-wave (km/s) = 2.67723 3.23201 2.96761
# Velocity P-wave (km/s) = 5.09345 5.58562 5.34520
#
# Compressibility (1/GPa) = 0.03041401
#
# Stress axis : x y z
#
# Youngs Moduli (GPa) = 48.01103 48.01343 93.30796
#
# Poissons Ratio (x) = 0.31017 0.21084
# Poissons Ratio (y) = 0.31016 0.21086
# Poissons Ratio (z) = 0.10849 0.10850
#
# Static dielectric constant tensor:
#      x y z
#    x 1.706350 0.000000 0.000000 
#    y 0.000000 1.706350 0.000000 
#    z 0.000000 0.000000 1.735700 
# 
# From -- ./inp_files/3251.got.cif
#   From: 2010.05.17/outbox.cif.g08.bks.cpg/sg141_2_cif.got.tgz:3251.got - 2010.05.20 13:30:51.
