data_PCOD9572686
_publ_section_title
;
Structure prediction by ZEFSAII (Michael W. Deem and Ramdas Pophale) SiO2 
 PCOD9572686
Probable space group: I 4/M C M
;
_chemical_formula_sum "Si O2"
_cell_formula_units_Z 144
_cell_length_a 17.355088
_cell_length_b 17.355088
_cell_length_c 26.606604
_cell_angle_alpha 90.000000
_cell_angle_beta 90.000000
_cell_angle_gamma 90.000000
_cell_volume 8013.884633
_symmetry_space_group_name_H-M "I 4/M C M"
_symmetry_group_IT_number 140
_symmetry_cell_setting 'tetragonal'
loop_
_space_group_symop_operation_xyz
x,y,z
-y,x,z
-x,-y,z
y,-x,z
x,-y,1/2-z
-x,y,1/2-z
y,x,1/2-z
-y,-x,1/2-z
-x,-y,-z
y,-x,-z
x,y,-z
-y,x,-z
-x,y,1/2+z
x,-y,1/2+z
-y,-x,1/2+z
y,x,1/2+z
1/2+x,1/2+y,1/2+z
1/2-y,1/2+x,1/2+z
1/2-x,1/2-y,1/2+z
1/2+y,1/2-x,1/2+z
1/2+x,1/2-y,-z
1/2-x,1/2+y,-z
1/2+y,1/2+x,-z
1/2-y,1/2-x,-z
1/2-x,1/2-y,1/2-z
1/2+y,1/2-x,1/2-z
1/2+x,1/2+y,1/2-z
1/2-y,1/2+x,1/2-z
1/2-x,1/2+y,z
1/2+x,1/2-y,z
1/2-y,1/2-x,z
1/2+y,1/2+x,z
loop_
_atom_site_type_symbol
_atom_site_label
_atom_site_fract_x
_atom_site_fract_y
_atom_site_fract_z
Si Si1 0.393083 0.238102 0.203617
Si Si2 0.124589 0.016762 0.060428
Si Si3 0.065426 0.565426 0.440788
Si Si4 0.770286 0.860136 0.686771
Si Si5 0.221037 0.511858 0.615348
O O1 0.328969 0.171032 0.203470
O O2 0.352079 0.317534 0.186342
O O3 0.409579 0.256041 0.262347
O O4 0.456977 0.211912 0.164016
O O5 0.210349 0.023323 0.081843
O O6 0.083641 0.935838 0.075452
O O7 0.128284 0.017416 0.000000
O O8 0.080894 0.580894 0.500000
O O9 0.142490 0.532423 0.413837
O O10 0.000000 0.500000 0.437537
O O11 0.707835 0.792166 0.689603
O O12 0.754012 0.909406 0.638185
#
# Coordination Sequence:
#
# PCOD9572686 Si02
#       5
#    32  32  16  32  32
#     4   9  19  33  53  76 111 141 173 215 268 328
#     4   9  19  35  55  81 110 137 172 224 284 335
#     4  11  26  42  54  73 108 150 194 238 285 325
#     4   9  18  34  51  79 108 140 173 215 267 321
#     4  12  19  34  57  81 101 144 187 226 265 322
#
# _framework density 17.968813999999998
#
# number of rings (size 3 to 8) (size 9 to 14) (size 15 to 20)
#    0.000    2.111    1.111    5.333    0.000    0.000 
#    0.000    0.000    0.000    0.000    0.000    9.333 
#    0.000    0.000    0.000    0.000    0.000    0.000 
#
# Total GULP energy -401035.083671 kJ/mol
# GULP energy per Si atom -5569.931718 kJ/mol
# Density = 1.792792 g / cm^3
# Si number density = 17.968814 Si / 1000 Ang^3
#
#
#
# Elastic Constant Matrix: (Units=GPa)
#
#
# Indices 1 2 3 4 5 6 
#
# 1 61.3681 17.6485 30.8370 0.0000 0.0000 0.0000
# 2 17.6485 61.3681 30.8370 0.0000 0.0000 0.0000
# 3 30.8370 30.8370 78.6949 0.0000 0.0000 0.0000
# 4 0.0000 0.0000 0.0000 33.5319 0.0000 0.0000
# 5 0.0000 0.0000 0.0000 0.0000 33.5319 0.0000
# 6 0.0000 0.0000 0.0000 0.0000 0.0000 17.0814
#
#
#
# Elastic Compliance Matrix: (Units=1/GPa)
#
#
# Indices 1 2 3 4 5 6 
#
# 1 0.020552 -0.002321 -0.007144 0.000000 0.000000 0.000000
# 2 -0.002321 0.020552 -0.007144 0.000000 0.000000 0.000000
# 3 -0.007144 -0.007144 0.018306 0.000000 0.000000 0.000000
# 4 0.000000 0.000000 0.000000 0.029822 0.000000 0.000000
# 5 0.000000 0.000000 0.000000 0.000000 0.029822 0.000000
# 6 0.000000 0.000000 0.000000 0.000000 0.000000 0.058543
#
#
# Mechanical properties :
#
#
# Convention : Reuss Voigt Hill
#
# Bulk Modulus (GPa) = 38.17817 40.00845 39.09331
# Shear Modulus (GPa) = 22.77404 24.96961 23.87183
#
# Velocity S-wave (km/s) = 3.56395 3.73179 3.64883
# Velocity P-wave (km/s) = 6.18293 6.39392 6.28931
#
# Compressibility (1/GPa) = 0.02619298
#
# Stress axis : x y z
#
# Youngs Moduli (GPa) = 48.65615 48.65615 54.62601
#
# Poissons Ratio (x) = 0.11291 0.39026
# Poissons Ratio (y) = 0.11291 0.39026
# Poissons Ratio (z) = 0.34761 0.34761
#
# Static dielectric constant tensor:
#      x y z
#    x 1.621300 0.000000 0.000000 
#    y 0.000000 1.621300 0.000000 
#    z 0.000000 0.000000 1.618340 
# 
# From -- ./inp_files/9423.got.cif
#   From: 2010.05.17/outbox.cif.g08.bks.cpg/sg140_5_cif.got.tgz:9423.got - 2010.06.21 00:45:31.
