data_PCOD9572442
_publ_section_title
;
Structure prediction by ZEFSAII (Michael W. Deem and Ramdas Pophale) SiO2 
 PCOD9572442
Probable space group: I 4/M C M
;
_chemical_formula_sum "Si O2"
_cell_formula_units_Z 240
_cell_length_a 20.935521
_cell_length_b 20.935521
_cell_length_c 26.758257
_cell_angle_alpha 90.000000
_cell_angle_beta 90.000000
_cell_angle_gamma 90.000000
_cell_volume 11728.038068
_symmetry_space_group_name_H-M "I 4/M C M"
_symmetry_group_IT_number 140
_symmetry_cell_setting 'tetragonal'
loop_
_space_group_symop_operation_xyz
x,y,z
-y,x,z
-x,-y,z
y,-x,z
x,-y,1/2-z
-x,y,1/2-z
y,x,1/2-z
-y,-x,1/2-z
-x,-y,-z
y,-x,-z
x,y,-z
-y,x,-z
-x,y,1/2+z
x,-y,1/2+z
-y,-x,1/2+z
y,x,1/2+z
1/2+x,1/2+y,1/2+z
1/2-y,1/2+x,1/2+z
1/2-x,1/2-y,1/2+z
1/2+y,1/2-x,1/2+z
1/2+x,1/2-y,-z
1/2-x,1/2+y,-z
1/2+y,1/2+x,-z
1/2-y,1/2-x,-z
1/2-x,1/2-y,1/2-z
1/2+y,1/2-x,1/2-z
1/2+x,1/2+y,1/2-z
1/2-y,1/2+x,1/2-z
1/2-x,1/2+y,z
1/2+x,1/2-y,z
1/2-y,1/2-x,z
1/2+y,1/2+x,z
loop_
_atom_site_type_symbol
_atom_site_label
_atom_site_fract_x
_atom_site_fract_y
_atom_site_fract_z
Si Si1 0.298539 0.308770 0.056467
Si Si2 0.319130 0.569108 0.097602
Si Si3 0.621793 0.323212 0.294868
Si Si4 0.989702 0.706929 0.867001
Si Si5 0.503454 0.896166 0.055430
Si Si6 0.041102 0.902193 0.000000
Si Si7 0.247873 0.357612 0.154946
Si Si8 0.820180 0.429582 0.223273
O O1 0.249084 0.250917 0.055606
O O2 0.365563 0.286065 0.078983
O O3 0.271290 0.357932 0.097176
O O4 0.305851 0.333446 0.000000
O O5 0.341991 0.582484 0.154923
O O6 0.268514 0.513655 0.103655
O O7 0.367109 0.555468 0.052475
O O8 0.625160 0.374841 0.250000
O O9 0.695164 0.325155 0.314068
O O10 0.599215 0.253082 0.275277
O O11 0.973889 0.653247 0.906498
O O12 0.929773 0.728091 0.833354
O O13 0.047544 0.678967 0.834340
O O14 0.452883 0.952883 0.051775
O O15 0.570149 0.929852 0.070490
O O16 0.512326 0.868063 0.000000
O O17 0.966888 0.919009 0.000000
O O18 0.186554 0.313447 0.159469
O O19 0.828996 0.500000 0.250000
O O20 0.875319 0.375319 0.233927
#
# Coordination Sequence:
#
# PCOD9572442 Si02
#       8
#    32  32  32  32  32  16  32  32
#     4   9  18  34  54  82 121 159 199 258 325 380
#     4  10  23  38  63  95 124 167 214 261 316 382
#     4  10  22  42  67  95 130 169 207 267 328 381
#     4  11  23  36  58  90 126 160 207 268 319 378
#     4   9  19  35  53  77 118 174 224 262 309 375
#     4  11  26  46  69  92 128 173 213 262 320 388
#     4  10  21  36  60  91 122 166 211 259 327 388
#     4  11  25  44  64  93 129 165 216 263 315 386
#
# _framework density 20.463781000000001
#
# number of rings (size 3 to 8) (size 9 to 14) (size 15 to 20)
#    0.000    1.933    0.667    2.400    4.667    7.600 
#    0.000    2.667    0.000    0.000    0.000    0.933 
#    0.000    0.000    0.000    0.000    0.000    0.000 
#
# Total GULP energy -668271.837864 kJ/mol
# GULP energy per Si atom -5568.931982 kJ/mol
# Density = 2.041720 g / cm^3
# Si number density = 20.463781 Si / 1000 Ang^3
#
#
#
# Elastic Constant Matrix: (Units=GPa)
#
#
# Indices 1 2 3 4 5 6 
#
# 1 81.1306 42.1299 44.3241 0.0000 0.0000 0.0000
# 2 42.1299 81.1299 44.3231 0.0000 0.0000 0.0000
# 3 44.3241 44.3231 114.2566 0.0000 0.0000 0.0000
# 4 0.0000 0.0000 0.0000 41.3439 0.0000 0.0000
# 5 0.0000 0.0000 0.0000 0.0000 41.3438 0.0000
# 6 0.0000 0.0000 0.0000 0.0000 0.0000 21.0032
#
#
#
# Elastic Compliance Matrix: (Units=1/GPa)
#
#
# Indices 1 2 3 4 5 6 
#
# 1 0.018447 -0.007194 -0.004365 0.000000 0.000000 0.000000
# 2 -0.007194 0.018447 -0.004365 0.000000 0.000000 0.000000
# 3 -0.004365 -0.004365 0.012139 0.000000 0.000000 0.000000
# 4 0.000000 0.000000 0.000000 0.024187 0.000000 0.000000
# 5 0.000000 0.000000 0.000000 0.000000 0.024187 0.000000
# 6 0.000000 0.000000 0.000000 0.000000 0.000000 0.047612
#
#
# Mechanical properties :
#
#
# Convention : Reuss Voigt Hill
#
# Bulk Modulus (GPa) = 58.19682 59.78569 58.99126
# Shear Modulus (GPa) = 27.38300 30.45419 28.91860
#
# Velocity S-wave (km/s) = 3.66200 3.86190 3.76328
# Velocity P-wave (km/s) = 6.81036 7.01174 6.91179
#
# Compressibility (1/GPa) = 0.01718307
#
# Stress axis : x y z
#
# Youngs Moduli (GPa) = 54.21074 54.21076 82.37966
#
# Poissons Ratio (x) = 0.39001 0.35960
# Poissons Ratio (y) = 0.39001 0.35958
# Poissons Ratio (z) = 0.23664 0.23663
#
# Static dielectric constant tensor:
#      x y z
#    x 1.741340 0.000000 0.000000 
#    y 0.000000 1.741340 0.000000 
#    z 0.000000 0.000000 1.822510 
# 
# From -- ./inp_files/11003.got.cif
#   From: 2010.05.17/outbox.cif.g08.bks.cpg/sg140_6_cif.got.tgz:11003.got - 2010.06.21 00:45:31.
