data_PCOD9572418
_publ_section_title
;
Structure prediction by ZEFSAII (Michael W. Deem and Ramdas Pophale) SiO2 
 PCOD9572418
Probable space group: I 4/M C M
;
_chemical_formula_sum "Si O2"
_cell_formula_units_Z 160
_cell_length_a 29.353896
_cell_length_b 29.353896
_cell_length_c 9.734188
_cell_angle_alpha 90.000000
_cell_angle_beta 90.000000
_cell_angle_gamma 90.000000
_cell_volume 8387.474872
_symmetry_space_group_name_H-M "I 4/M C M"
_symmetry_group_IT_number 140
_symmetry_cell_setting 'tetragonal'
loop_
_space_group_symop_operation_xyz
x,y,z
-y,x,z
-x,-y,z
y,-x,z
x,-y,1/2-z
-x,y,1/2-z
y,x,1/2-z
-y,-x,1/2-z
-x,-y,-z
y,-x,-z
x,y,-z
-y,x,-z
-x,y,1/2+z
x,-y,1/2+z
-y,-x,1/2+z
y,x,1/2+z
1/2+x,1/2+y,1/2+z
1/2-y,1/2+x,1/2+z
1/2-x,1/2-y,1/2+z
1/2+y,1/2-x,1/2+z
1/2+x,1/2-y,-z
1/2-x,1/2+y,-z
1/2+y,1/2+x,-z
1/2-y,1/2-x,-z
1/2-x,1/2-y,1/2-z
1/2+y,1/2-x,1/2-z
1/2+x,1/2+y,1/2-z
1/2-y,1/2+x,1/2-z
1/2-x,1/2+y,z
1/2+x,1/2-y,z
1/2-y,1/2-x,z
1/2+y,1/2+x,z
loop_
_atom_site_type_symbol
_atom_site_label
_atom_site_fract_x
_atom_site_fract_y
_atom_site_fract_z
Si Si1 0.405937 0.653304 0.843150
Si Si2 0.075561 0.988232 0.500000
Si Si3 0.768673 0.829701 0.659295
Si Si4 0.000000 0.142234 0.250000
Si Si5 0.683850 0.108096 0.156424
Si Si6 0.454075 0.124111 0.836595
O O1 0.387472 0.612528 0.750000
O O2 0.368613 0.692668 0.836348
O O3 0.455370 0.669479 0.794184
O O4 0.409423 0.638167 0.000000
O O5 0.036325 0.950753 0.500000
O O6 0.108515 0.985960 0.371199
O O7 0.788248 0.788248 0.750000
O O8 0.762427 0.815655 0.500000
O O9 0.723511 0.857044 0.703713
O O10 0.639491 0.139491 0.143071
O O11 0.668230 0.069541 0.263653
O O12 0.695679 0.091845 0.000000
O O13 0.500000 0.114425 0.750000
O O14 0.418263 0.081738 0.826688
O O15 0.462769 0.131332 0.000000
#
# Coordination Sequence:
#
# PCOD9572418 Si02
#       6
#    32  16  32  16  32  32
#     4  10  21  36  53  70  95 129 165 210 261 321
#     4  11  22  34  48  68  90 114 152 204 258 312
#     4   9  19  36  56  80 110 143 184 230 281 336
#     4  12  22  33  50  68  88 122 160 202 255 316
#     4   9  18  35  59  85 117 154 189 230 283 336
#     4  10  21  37  59  88 121 160 201 243 287 338
#
# _framework density 19.076063000000001
#
# number of rings (size 3 to 8) (size 9 to 14) (size 15 to 20)
#    0.000    2.100    1.000    2.400    1.400    3.400 
#    1.800    1.000    0.000    0.000    0.000    0.000 
#    0.000    0.000    0.000    0.000    0.000    0.000 
#
# Total GULP energy -445958.258066 kJ/mol
# GULP energy per Si atom -5574.478226 kJ/mol
# Density = 1.903264 g / cm^3
# Si number density = 19.076063 Si / 1000 Ang^3
#
#
#
# Elastic Constant Matrix: (Units=GPa)
#
#
# Indices 1 2 3 4 5 6 
#
# 1 79.1036 20.7893 47.4338 0.0000 0.0000 0.0000
# 2 20.7893 79.1036 47.4338 0.0000 0.0000 0.0000
# 3 47.4338 47.4338 135.9483 0.0000 0.0000 0.0000
# 4 0.0000 0.0000 0.0000 21.9836 0.0000 0.0000
# 5 0.0000 0.0000 0.0000 0.0000 21.9836 0.0000
# 6 0.0000 0.0000 0.0000 0.0000 0.0000 29.5181
#
#
#
# Elastic Compliance Matrix: (Units=1/GPa)
#
#
# Indices 1 2 3 4 5 6 
#
# 1 0.016060 -0.001088 -0.005224 0.000000 0.000000 0.000000
# 2 -0.001088 0.016060 -0.005224 0.000000 0.000000 0.000000
# 3 -0.005224 -0.005224 0.011001 0.000000 0.000000 0.000000
# 4 0.000000 0.000000 0.000000 0.045488 0.000000 0.000000
# 5 0.000000 0.000000 0.000000 0.000000 0.045488 0.000000
# 6 0.000000 0.000000 0.000000 0.000000 0.000000 0.033877
#
#
# Mechanical properties :
#
#
# Convention : Reuss Voigt Hill
#
# Bulk Modulus (GPa) = 49.87710 58.38547 54.13128
# Shear Modulus (GPa) = 25.28694 26.59698 25.94196
#
# Velocity S-wave (km/s) = 3.64481 3.73803 3.69171
# Velocity P-wave (km/s) = 6.62692 7.02165 6.82714
#
# Compressibility (1/GPa) = 0.02004928
#
# Stress axis : x y z
#
# Youngs Moduli (GPa) = 62.26621 62.26621 90.90084
#
# Poissons Ratio (x) = 0.06777 0.47485
# Poissons Ratio (y) = 0.06777 0.47485
# Poissons Ratio (z) = 0.32527 0.32527
#
# Static dielectric constant tensor:
#      x y z
#    x 1.674420 0.000000 0.000000 
#    y 0.000000 1.674420 0.000000 
#    z 0.000000 0.000000 1.668530 
# 
# From -- ./inp_files/1803.got.cif
#   From: 2010.05.17/outbox.cif.g08.bks.cpg/sg140_1_cif.got.tgz:1803.got - 2010.06.21 00:45:31.
