data_PCOD9572080
_publ_section_title
;
Structure prediction by ZEFSAII (Michael W. Deem and Ramdas Pophale) SiO2 
 PCOD9572080
Probable space group: I 4/M C M
;
_chemical_formula_sum "Si O2"
_cell_formula_units_Z 192
_cell_length_a 19.543003
_cell_length_b 19.543003
_cell_length_c 30.069141
_cell_angle_alpha 90.000000
_cell_angle_beta 90.000000
_cell_angle_gamma 90.000000
_cell_volume 11484.275938
_symmetry_space_group_name_H-M "I 4/M C M"
_symmetry_group_IT_number 140
_symmetry_cell_setting 'tetragonal'
loop_
_space_group_symop_operation_xyz
x,y,z
-y,x,z
-x,-y,z
y,-x,z
x,-y,1/2-z
-x,y,1/2-z
y,x,1/2-z
-y,-x,1/2-z
-x,-y,-z
y,-x,-z
x,y,-z
-y,x,-z
-x,y,1/2+z
x,-y,1/2+z
-y,-x,1/2+z
y,x,1/2+z
1/2+x,1/2+y,1/2+z
1/2-y,1/2+x,1/2+z
1/2-x,1/2-y,1/2+z
1/2+y,1/2-x,1/2+z
1/2+x,1/2-y,-z
1/2-x,1/2+y,-z
1/2+y,1/2+x,-z
1/2-y,1/2-x,-z
1/2-x,1/2-y,1/2-z
1/2+y,1/2-x,1/2-z
1/2+x,1/2+y,1/2-z
1/2-y,1/2+x,1/2-z
1/2-x,1/2+y,z
1/2+x,1/2-y,z
1/2-y,1/2-x,z
1/2+y,1/2+x,z
loop_
_atom_site_type_symbol
_atom_site_label
_atom_site_fract_x
_atom_site_fract_y
_atom_site_fract_z
Si Si1 0.228992 0.156065 0.404560
Si Si2 0.244635 0.630517 0.847750
Si Si3 0.367046 0.339993 0.500000
Si Si4 0.251431 0.003486 0.094690
Si Si5 0.435950 0.338038 0.778914
Si Si6 0.892754 0.976922 0.126009
Si Si7 0.017070 0.784531 0.000000
O O1 0.295939 0.204062 0.402579
O O2 0.171849 0.194098 0.373804
O O3 0.199410 0.154369 0.454765
O O4 0.248345 0.076979 0.391858
O O5 0.183579 0.683579 0.843238
O O6 0.217838 0.561555 0.873022
O O7 0.277521 0.607251 0.801165
O O8 0.450170 0.334397 0.500000
O O9 0.329755 0.413709 0.500000
O O10 0.173375 0.029040 0.097235
O O11 0.265373 0.011188 0.042806
O O12 0.500000 0.313798 0.750000
O O13 0.388903 0.388903 0.750000
O O14 0.468156 0.375989 0.821978
O O15 0.949386 0.922240 0.115733
#
# Coordination Sequence:
#
# PCOD9572080 Si02
#       7
#    32  32  16  32  32  32  16
#     4  10  20  35  55  78 105 143 186 226 266 313
#     4  10  22  37  56  79 108 140 178 222 272 326
#     4  10  19  33  48  76 109 152 181 220 256 309
#     4  10  19  34  51  74 108 142 181 222 263 309
#     4  11  21  33  52  75 106 140 174 217 262 322
#     4  10  19  29  45  71 104 141 177 207 249 313
#     4  10  20  29  48  74 111 148 190 210 247 309
#
# _framework density 16.718510999999999
#
# number of rings (size 3 to 8) (size 9 to 14) (size 15 to 20)
#    0.000    1.833    3.333    2.250    4.667    0.667 
#    0.000    0.417    0.000    0.500    0.000    0.000 
#    0.000    4.000    0.000    0.000    0.000    0.000 
#
# Total GULP energy -534524.489808 kJ/mol
# GULP energy per Si atom -5567.963435 kJ/mol
# Density = 1.668046 g / cm^3
# Si number density = 16.718511 Si / 1000 Ang^3
#
#
#
# Elastic Constant Matrix: (Units=GPa)
#
#
# Indices 1 2 3 4 5 6 
#
# 1 89.1502 48.6635 24.6406 0.0000 0.0000 0.0000
# 2 48.6635 89.1502 24.6406 0.0000 0.0000 0.0000
# 3 24.6406 24.6406 79.5789 0.0000 0.0000 0.0000
# 4 0.0000 0.0000 0.0000 11.9471 0.0000 0.0000
# 5 0.0000 0.0000 0.0000 0.0000 11.9471 0.0000
# 6 0.0000 0.0000 0.0000 0.0000 0.0000 26.5841
#
#
#
# Elastic Compliance Matrix: (Units=1/GPa)
#
#
# Indices 1 2 3 4 5 6 
#
# 1 0.016430 -0.008270 -0.002527 0.000000 0.000000 0.000000
# 2 -0.008270 0.016430 -0.002527 0.000000 0.000000 0.000000
# 3 -0.002527 -0.002527 0.014131 0.000000 0.000000 0.000000
# 4 0.000000 0.000000 0.000000 0.083702 0.000000 0.000000
# 5 0.000000 0.000000 0.000000 0.000000 0.083702 0.000000
# 6 0.000000 0.000000 0.000000 0.000000 0.000000 0.037616
#
#
# Mechanical properties :
#
#
# Convention : Reuss Voigt Hill
#
# Bulk Modulus (GPa) = 49.15472 50.41874 49.78673
# Shear Modulus (GPa) = 17.51692 20.75797 19.13745
#
# Velocity S-wave (km/s) = 3.24042 3.52748 3.38699
# Velocity P-wave (km/s) = 6.59285 6.84206 6.71861
#
# Compressibility (1/GPa) = 0.02034393
#
# Stress axis : x y z
#
# Youngs Moduli (GPa) = 60.86592 60.86592 70.76765
#
# Poissons Ratio (x) = 0.50336 0.17880
# Poissons Ratio (y) = 0.50336 0.17880
# Poissons Ratio (z) = 0.15378 0.15378
#
# Static dielectric constant tensor:
#      x y z
#    x 1.582810 0.000000 0.000000 
#    y 0.000000 1.582810 0.000000 
#    z 0.000000 0.000000 1.636150 
# 
# From -- ./inp_files/10902.got.cif
#   From: 2010.05.17/outbox.cif.g08.bks.cpg/sg140_6_cif.got.tgz:10902.got - 2010.06.21 00:45:31.
