data_PCOD9572118
_publ_section_title
;
Structure prediction by ZEFSAII (Michael W. Deem and Ramdas Pophale) SiO2 
 PCOD9572118
Probable space group: I 4/M C M
;
_chemical_formula_sum "Si O2"
_cell_formula_units_Z 192
_cell_length_a 27.289944
_cell_length_b 27.289944
_cell_length_c 14.458168
_cell_angle_alpha 90.000000
_cell_angle_beta 90.000000
_cell_angle_gamma 90.000000
_cell_volume 10767.591124
_symmetry_space_group_name_H-M "I 4/M C M"
_symmetry_group_IT_number 140
_symmetry_cell_setting 'tetragonal'
loop_
_space_group_symop_operation_xyz
x,y,z
-y,x,z
-x,-y,z
y,-x,z
x,-y,1/2-z
-x,y,1/2-z
y,x,1/2-z
-y,-x,1/2-z
-x,-y,-z
y,-x,-z
x,y,-z
-y,x,-z
-x,y,1/2+z
x,-y,1/2+z
-y,-x,1/2+z
y,x,1/2+z
1/2+x,1/2+y,1/2+z
1/2-y,1/2+x,1/2+z
1/2-x,1/2-y,1/2+z
1/2+y,1/2-x,1/2+z
1/2+x,1/2-y,-z
1/2-x,1/2+y,-z
1/2+y,1/2+x,-z
1/2-y,1/2-x,-z
1/2-x,1/2-y,1/2-z
1/2+y,1/2-x,1/2-z
1/2+x,1/2+y,1/2-z
1/2-y,1/2+x,1/2-z
1/2-x,1/2+y,z
1/2+x,1/2-y,z
1/2-y,1/2-x,z
1/2+y,1/2+x,z
loop_
_atom_site_type_symbol
_atom_site_label
_atom_site_fract_x
_atom_site_fract_y
_atom_site_fract_z
Si Si1 0.641357 0.141357 0.607363
Si Si2 0.419354 0.381995 0.893251
Si Si3 0.725648 0.225648 0.603755
Si Si4 0.259510 0.025670 0.610708
Si Si5 0.854629 0.972660 0.387083
Si Si6 0.200363 0.852080 0.672474
Si Si7 0.787138 0.425906 0.210294
O O1 0.629984 0.129984 0.500000
O O2 0.683589 0.183589 0.604605
O O3 0.596839 0.164852 0.663656
O O4 0.389513 0.428556 0.854297
O O5 0.473078 0.369861 0.853236
O O6 0.385380 0.333338 0.893419
O O7 0.428716 0.395092 0.000000
O O8 0.738390 0.238390 0.500000
O O9 0.773794 0.198844 0.642556
O O10 0.267268 0.031522 0.500000
O O11 0.202516 0.036706 0.633936
O O12 0.291342 0.057463 0.683060
O O13 0.269766 0.970508 0.644993
O O14 0.856057 0.973304 0.500000
O O15 0.162385 0.837616 0.750000
O O16 0.244749 0.885432 0.706258
#
# Coordination Sequence:
#
# PCOD9572118 Si02
#       7
#    16  32  16  32  32  32  32
#     4   9  18  33  54  82 110 140 179 224 271 324
#     4  10  19  32  49  69  96 133 177 228 285 338
#     4   9  19  33  51  72  97 129 172 219 273 341
#     4  10  19  34  54  78 107 142 183 227 278 337
#     4   9  18  31  49  71  97 133 180 232 285 341
#     4  11  20  32  49  73 100 133 170 225 280 336
#     4  10  20  33  54  78 107 141 182 226 275 330
#
# _framework density 17.831285999999999
#
# number of rings (size 3 to 8) (size 9 to 14) (size 15 to 20)
#    0.000    2.167    1.667    2.250    0.000    1.667 
#    0.000    2.917    0.000    0.000    0.000    1.167 
#    0.000    5.333    0.000   19.333    0.000    0.333 
#
# Total GULP energy -534735.401228 kJ/mol
# GULP energy per Si atom -5570.160429 kJ/mol
# Density = 1.779070 g / cm^3
# Si number density = 17.831286 Si / 1000 Ang^3
#
#
#
# Elastic Constant Matrix: (Units=GPa)
#
#
# Indices 1 2 3 4 5 6 
#
# 1 36.0019 73.8426 33.2791 0.0000 0.0000 0.0000
# 2 73.8426 35.9698 33.2563 0.0000 0.0000 0.0000
# 3 33.2791 33.2563 105.7957 0.0000 0.0000 0.0000
# 4 0.0000 0.0000 0.0000 21.8918 0.0000 0.0000
# 5 0.0000 0.0000 0.0000 0.0000 21.8930 0.0000
# 6 0.0000 0.0000 0.0000 0.0000 0.0000 37.7672
#
#
#
# Elastic Compliance Matrix: (Units=1/GPa)
#
#
# Indices 1 2 3 4 5 6 
#
# 1 -0.007581 0.018832 -0.003535 0.000000 0.000000 0.000000
# 2 0.018832 -0.007586 -0.003539 0.000000 0.000000 0.000000
# 3 -0.003535 -0.003539 0.011677 0.000000 0.000000 0.000000
# 4 0.000000 0.000000 0.000000 0.045679 0.000000 0.000000
# 5 0.000000 0.000000 0.000000 0.000000 0.045677 0.000000
# 6 0.000000 0.000000 0.000000 0.000000 0.000000 0.026478
#
#
# Mechanical properties :
#
#
# Convention : Reuss Voigt Hill
#
# Bulk Modulus (GPa) = 49.93866 50.94705 50.44285
# Shear Modulus (GPa) = 51.28093 18.80303 35.04198
#
# Velocity S-wave (km/s) = 5.36856 3.25082 4.43786
# Velocity P-wave (km/s) = 8.15448 6.53638 7.38985
#
# Compressibility (1/GPa) = 0.02002457
#
# Stress axis : x y z
#
# Youngs Moduli (GPa) = -131.90601 -131.81418 85.64175
#
# Poissons Ratio (x) = 2.48227 0.30273
# Poissons Ratio (y) = 2.48400 0.30308
# Poissons Ratio (z) = -0.46627 -0.46648
#
# Static dielectric constant tensor:
#      x y z
#    x 1.631860 0.000000 0.000000 
#    y 0.000000 1.631850 0.000000 
#    z 0.000000 0.000000 1.669040 
# 
# From -- ./inp_files/5216.got.cif
#   From: 2010.05.17/outbox.cif.g08.bks.cpg/sg140_3_cif.got.tgz:5216.got - 2010.06.21 00:45:31.
