data_PCOD9572790
_publ_section_title
;
Structure prediction by ZEFSAII (Michael W. Deem and Ramdas Pophale) SiO2 
 PCOD9572790
Probable space group: I 41/A M D
;
_chemical_formula_sum "Si O2"
_cell_formula_units_Z 144
_cell_length_a 19.222258
_cell_length_b 19.222258
_cell_length_c 18.876219
_cell_angle_alpha 90.000000
_cell_angle_beta 90.000000
_cell_angle_gamma 90.000000
_cell_volume 6974.672364
_symmetry_space_group_name_H-M "I 41/A M D"
_symmetry_group_IT_number 141
_space_group.IT_coordinate_system_code '2'
_symmetry_cell_setting 'tetragonal'
loop_
_space_group_symop_operation_xyz
x,y,z
1/4-y,3/4+x,1/4+z
-x,1/2-y,z
1/4+y,1/4-x,3/4+z
x,-y,-z
-x,1/2+y,-z
1/4+y,3/4+x,1/4-z
1/4-y,1/4-x,3/4-z
-x,-y,-z
3/4+y,1/4-x,3/4-z
x,1/2+y,-z
3/4-y,3/4+x,1/4-z
-x,y,z
x,1/2-y,z
3/4-y,1/4-x,3/4+z
3/4+y,3/4+x,1/4+z
1/2+x,1/2+y,1/2+z
3/4-y,1/4+x,3/4+z
1/2-x,-y,1/2+z
3/4+y,3/4-x,1/4+z
1/2+x,1/2-y,1/2-z
1/2-x,y,1/2-z
3/4+y,1/4+x,3/4-z
3/4-y,3/4-x,1/4-z
1/2-x,1/2-y,1/2-z
1/4+y,3/4-x,1/4-z
1/2+x,y,1/2-z
1/4-y,1/4+x,3/4-z
1/2-x,1/2+y,1/2+z
1/2+x,-y,1/2+z
1/4-y,3/4-x,1/4+z
1/4+y,1/4+x,3/4+z
loop_
_atom_site_type_symbol
_atom_site_label
_atom_site_fract_x
_atom_site_fract_y
_atom_site_fract_z
Si Si1 0.653026 0.096975 0.125000
Si Si2 0.359249 0.046658 0.935490
Si Si3 0.319669 0.948460 0.291319
Si Si4 0.920264 0.172672 0.788569
Si Si5 0.918090 0.670740 0.490625
O O1 0.737214 0.105472 0.126192
O O2 0.612224 0.128900 0.191735
O O3 0.282440 0.071703 0.960030
O O4 0.402381 0.116667 0.927309
O O5 0.389758 0.000000 0.000000
O O6 0.314570 0.935431 0.375000
O O7 0.250000 0.928652 0.250000
O O8 0.378773 0.895732 0.264723
O O9 0.892097 0.250000 0.768588
O O10 0.921430 0.171430 0.875000
O O11 0.000000 0.169087 0.764690
O O12 0.895852 0.750000 0.477284
O O13 0.000000 0.670775 0.505471
#
# Coordination Sequence:
#
# PCOD9572790 Si02
#       5
#    16  32  32  32  32
#     4  10  18  33  56  78 108 145 188 230 274 332
#     4   9  19  33  52  76 109 140 179 230 280 327
#     4  10  19  33  55  80 112 146 187 236 281 333
#     4   8  15  29  50  78 111 145 183 227 276 335
#     4  10  21  35  53  81 113 144 183 229 277 332
#
# _framework density 20.646132000000001
#
# number of rings (size 3 to 8) (size 9 to 14) (size 15 to 20)
#    0.000    2.667    1.111    1.333    0.000    7.111 
#    0.000    0.000    0.000    0.000    0.000    3.111 
#    0.000    0.000    0.000    0.000    0.000    0.000 
#
# Total GULP energy -400827.704221 kJ/mol
# GULP energy per Si atom -5567.051448 kJ/mol
# Density = 2.059914 g / cm^3
# Si number density = 20.646132 Si / 1000 Ang^3
#
#
#
# Elastic Constant Matrix: (Units=GPa)
#
#
# Indices 1 2 3 4 5 6 
#
# 1 123.2379 83.4930 15.3625 0.0000 0.0000 0.0000
# 2 83.4930 123.2370 15.3624 0.0000 0.0000 0.0000
# 3 15.3625 15.3624 29.5658 0.0000 0.0000 0.0000
# 4 0.0000 0.0000 0.0000 19.7937 0.0000 0.0000
# 5 0.0000 0.0000 0.0000 0.0000 19.7939 0.0000
# 6 0.0000 0.0000 0.0000 0.0000 0.0000 39.9679
#
#
#
# Elastic Compliance Matrix: (Units=1/GPa)
#
#
# Indices 1 2 3 4 5 6 
#
# 1 0.015201 -0.009959 -0.002724 0.000000 0.000000 0.000000
# 2 -0.009959 0.015201 -0.002724 0.000000 0.000000 0.000000
# 3 -0.002724 -0.002724 0.036653 0.000000 0.000000 0.000000
# 4 0.000000 0.000000 0.000000 0.050521 0.000000 0.000000
# 5 0.000000 0.000000 0.000000 0.000000 0.050521 0.000000
# 6 0.000000 0.000000 0.000000 0.000000 0.000000 0.025020
#
#
# Mechanical properties :
#
#
# Convention : Reuss Voigt Hill
#
# Bulk Modulus (GPa) = 27.59197 56.05295 41.82246
# Shear Modulus (GPa) = 21.18530 26.69928 23.94229
#
# Velocity S-wave (km/s) = 3.20678 3.59999 3.40906
# Velocity P-wave (km/s) = 5.20620 6.66995 5.98301
#
# Compressibility (1/GPa) = 0.03624243
#
# Stress axis : x y z
#
# Youngs Moduli (GPa) = 65.78374 65.78334 27.28254
#
# Poissons Ratio (x) = 0.65516 0.07431
# Poissons Ratio (y) = 0.65516 0.07431
# Poissons Ratio (z) = 0.17918 0.17918
#
# Static dielectric constant tensor:
#      x y z
#    x 1.754860 0.000000 0.000000 
#    y 0.000000 1.754870 0.000000 
#    z 0.000000 0.000000 1.829700 
# 
# From -- ./inp_files/11433.got.cif
#   From: 2010.05.17/outbox.cif.g08.bks.cpg/sg141_6_cif.got.tgz:11433.got - 2010.05.20 13:30:51.
