data_PCOD9572810
_publ_section_title
;
Structure prediction by ZEFSAII (Michael W. Deem and Ramdas Pophale) SiO2 
 PCOD9572810
Probable space group: I 41/A M D
;
_chemical_formula_sum "Si O2"
_cell_formula_units_Z 112
_cell_length_a 32.698572
_cell_length_b 32.698572
_cell_length_c 5.459126
_cell_angle_alpha 90.000000
_cell_angle_beta 90.000000
_cell_angle_gamma 90.000000
_cell_volume 5836.879017
_symmetry_space_group_name_H-M "I 41/A M D"
_symmetry_group_IT_number 141
_space_group.IT_coordinate_system_code '2'
_symmetry_cell_setting 'tetragonal'
loop_
_space_group_symop_operation_xyz
x,y,z
1/4-y,3/4+x,1/4+z
-x,1/2-y,z
1/4+y,1/4-x,3/4+z
x,-y,-z
-x,1/2+y,-z
1/4+y,3/4+x,1/4-z
1/4-y,1/4-x,3/4-z
-x,-y,-z
3/4+y,1/4-x,3/4-z
x,1/2+y,-z
3/4-y,3/4+x,1/4-z
-x,y,z
x,1/2-y,z
3/4-y,1/4-x,3/4+z
3/4+y,3/4+x,1/4+z
1/2+x,1/2+y,1/2+z
3/4-y,1/4+x,3/4+z
1/2-x,-y,1/2+z
3/4+y,3/4-x,1/4+z
1/2+x,1/2-y,1/2-z
1/2-x,y,1/2-z
3/4+y,1/4+x,3/4-z
3/4-y,3/4-x,1/4-z
1/2-x,1/2-y,1/2-z
1/4+y,3/4-x,1/4-z
1/2+x,y,1/2-z
1/4-y,1/4+x,3/4-z
1/2-x,1/2+y,1/2+z
1/2+x,-y,1/2+z
1/4-y,3/4-x,1/4+z
1/4+y,1/4+x,3/4+z
loop_
_atom_site_type_symbol
_atom_site_label
_atom_site_fract_x
_atom_site_fract_y
_atom_site_fract_z
Si Si1 0.190497 0.873915 0.403517
Si Si2 0.548569 0.335206 0.871213
Si Si3 0.750000 0.938110 0.250000
Si Si4 0.166659 0.350783 0.102042
O O1 0.224942 0.908388 0.428589
O O2 0.189589 0.845749 0.641019
O O3 0.146180 0.896247 0.377292
O O4 0.193859 0.851464 0.141903
O O5 0.560162 0.310162 0.625000
O O6 0.500000 0.337619 0.894001
O O7 0.569162 0.379565 0.834011
O O8 0.566634 0.316634 0.125000
O O9 0.716740 0.966740 0.375000
#
# Coordination Sequence:
#
# PCOD9572810 Si02
#       4
#    32  32  16  32
#     4  10  20  37  58  73 116 158 191 234 271 352
#     4  12  23  38  61  90 125 156 191 244 294 357
#     4  12  26  34  52  98 129 148 183 240 314 366
#     4  10  18  40  57  76 109 162 207 223 266 351
#
# _framework density 19.188336
#
# number of rings (size 3 to 8) (size 9 to 14) (size 15 to 20)
#    0.000    1.143    8.571    0.857    4.000    2.857 
#    0.000    0.000    0.000    0.000    0.000    6.000 
#    0.000    0.000    0.000    0.000    0.000    0.000 
#
# Total GULP energy -312445.788326 kJ/mol
# GULP energy per Si atom -5579.389077 kJ/mol
# Density = 1.914466 g / cm^3
# Si number density = 19.188336 Si / 1000 Ang^3
#
#
#
# Elastic Constant Matrix: (Units=GPa)
#
#
# Indices 1 2 3 4 5 6 
#
# 1 51.3414 71.0705 27.6579 0.0000 0.0000 0.0000
# 2 71.0705 51.3414 27.6579 0.0000 0.0000 0.0000
# 3 27.6579 27.6579 174.7768 0.0000 0.0000 0.0000
# 4 0.0000 0.0000 0.0000 16.4340 0.0000 0.0000
# 5 0.0000 0.0000 0.0000 0.0000 16.4340 0.0000
# 6 0.0000 0.0000 0.0000 0.0000 0.0000 10.0179
#
#
#
# Elastic Compliance Matrix: (Units=1/GPa)
#
#
# Indices 1 2 3 4 5 6 
#
# 1 -0.020944 0.029742 -0.001392 0.000000 0.000000 0.000000
# 2 0.029742 -0.020944 -0.001392 0.000000 0.000000 0.000000
# 3 -0.001392 -0.001392 0.006162 0.000000 0.000000 0.000000
# 4 0.000000 0.000000 0.000000 0.060849 0.000000 0.000000
# 5 0.000000 0.000000 0.000000 0.000000 0.060849 0.000000
# 6 0.000000 0.000000 0.000000 0.000000 0.000000 0.099822
#
#
# Mechanical properties :
#
#
# Convention : Reuss Voigt Hill
#
# Bulk Modulus (GPa) = 54.97642 58.91471 56.94556
# Shear Modulus (GPa) = 36.24712 18.64873 27.44793
#
# Velocity S-wave (km/s) = 4.35100 3.12088 3.78623
# Velocity P-wave (km/s) = 7.34539 6.61487 6.98968
#
# Compressibility (1/GPa) = 0.01818962
#
# Stress axis : x y z
#
# Youngs Moduli (GPa) = -47.74618 -47.74618 162.27867
#
# Poissons Ratio (x) = 1.42009 0.22594
# Poissons Ratio (y) = 1.42009 0.22594
# Poissons Ratio (z) = -0.06648 -0.06648
#
# Static dielectric constant tensor:
#      x y z
#    x 1.630760 0.000000 0.000000 
#    y 0.000000 1.630760 0.000000 
#    z 0.000000 0.000000 1.768440 
# 
# From -- ./inp_files/1283.got.cif
#   From: 2010.05.17/outbox.cif.g08.bks.cpg/sg141_1_cif.got.tgz:1283.got - 2010.05.20 13:30:51.
