data_PCOD9572316
_publ_section_title
;
Structure prediction by ZEFSAII (Michael W. Deem and Ramdas Pophale) SiO2 
 PCOD9572316
Probable space group: I 4/M C M
;
_chemical_formula_sum "Si O2"
_cell_formula_units_Z 160
_cell_length_a 21.871814
_cell_length_b 21.871814
_cell_length_c 18.444581
_cell_angle_alpha 90.000000
_cell_angle_beta 90.000000
_cell_angle_gamma 90.000000
_cell_volume 8823.449448
_symmetry_space_group_name_H-M "I 4/M C M"
_symmetry_group_IT_number 140
_symmetry_cell_setting 'tetragonal'
loop_
_space_group_symop_operation_xyz
x,y,z
-y,x,z
-x,-y,z
y,-x,z
x,-y,1/2-z
-x,y,1/2-z
y,x,1/2-z
-y,-x,1/2-z
-x,-y,-z
y,-x,-z
x,y,-z
-y,x,-z
-x,y,1/2+z
x,-y,1/2+z
-y,-x,1/2+z
y,x,1/2+z
1/2+x,1/2+y,1/2+z
1/2-y,1/2+x,1/2+z
1/2-x,1/2-y,1/2+z
1/2+y,1/2-x,1/2+z
1/2+x,1/2-y,-z
1/2-x,1/2+y,-z
1/2+y,1/2+x,-z
1/2-y,1/2-x,-z
1/2-x,1/2-y,1/2-z
1/2+y,1/2-x,1/2-z
1/2+x,1/2+y,1/2-z
1/2-y,1/2+x,1/2-z
1/2-x,1/2+y,z
1/2+x,1/2-y,z
1/2-y,1/2-x,z
1/2+y,1/2+x,z
loop_
_atom_site_type_symbol
_atom_site_label
_atom_site_fract_x
_atom_site_fract_y
_atom_site_fract_z
Si Si1 0.246798 0.000000 0.250000
Si Si2 0.303351 0.706523 0.662864
Si Si3 0.399124 0.474460 0.000000
Si Si4 0.299965 0.428891 0.112984
Si Si5 0.404926 0.807829 0.353030
Si Si6 0.587715 0.189910 0.000000
Si Si7 0.459374 0.860043 0.500000
O O1 0.209199 0.963894 0.188710
O O2 0.288260 0.953014 0.293683
O O3 0.301185 0.698815 0.750000
O O4 0.239336 0.739336 0.641922
O O5 0.315284 0.641504 0.628002
O O6 0.356639 0.752842 0.640505
O O7 0.457308 0.428023 0.000000
O O8 0.353671 0.461102 0.932625
O O9 0.236163 0.423781 0.067844
O O10 0.366357 0.866357 0.328697
O O11 0.435499 0.824018 0.429303
O O12 0.651544 0.151544 0.000000
O O13 0.532169 0.141642 0.000000
O O14 0.425513 0.925513 0.500000
#
# Coordination Sequence:
#
# PCOD9572316 Si02
#       7
#    16  32  16  32  32  16  16
#     4  12  22  38  62  92 122 154 202 244 304 356
#     4  10  20  35  57  89 125 154 191 249 309 359
#     4  10  26  47  63  85 122 163 202 254 306 358
#     4  11  24  38  63  91 117 159 203 248 302 368
#     4  10  22  39  62  88 121 159 198 249 303 358
#     4  11  23  39  59  87 123 159 202 251 298 357
#     4  10  21  40  61  85 117 161 205 243 296 361
#
# _framework density 18.133496999999998
#
# number of rings (size 3 to 8) (size 9 to 14) (size 15 to 20)
#    0.000    1.500    4.000    0.600    2.800    2.600 
#    0.000    3.000    0.000    1.500    0.000    0.000 
#    0.000    0.000    0.000    0.000    0.000    0.000 
#
# Total GULP energy -446365.041100 kJ/mol
# GULP energy per Si atom -5579.563014 kJ/mol
# Density = 1.809222 g / cm^3
# Si number density = 18.133497 Si / 1000 Ang^3
#
#
#
# Elastic Constant Matrix: (Units=GPa)
#
#
# Indices 1 2 3 4 5 6 
#
# 1 113.0713 44.7670 45.9229 0.0000 0.0000 0.0000
# 2 44.7670 113.0718 45.9233 0.0000 0.0000 0.0000
# 3 45.9229 45.9233 87.5334 0.0000 0.0000 0.0000
# 4 0.0000 0.0000 0.0000 18.1905 0.0000 0.0000
# 5 0.0000 0.0000 0.0000 0.0000 18.1911 0.0000
# 6 0.0000 0.0000 0.0000 0.0000 0.0000 8.2660
#
#
#
# Elastic Compliance Matrix: (Units=1/GPa)
#
#
# Indices 1 2 3 4 5 6 
#
# 1 0.011880 -0.002760 -0.004784 0.000000 0.000000 0.000000
# 2 -0.002760 0.011880 -0.004785 0.000000 0.000000 0.000000
# 3 -0.004784 -0.004785 0.016444 0.000000 0.000000 0.000000
# 4 0.000000 0.000000 0.000000 0.054974 0.000000 0.000000
# 5 0.000000 0.000000 0.000000 0.000000 0.054972 0.000000
# 6 0.000000 0.000000 0.000000 0.000000 0.000000 0.120977
#
#
# Mechanical properties :
#
#
# Convention : Reuss Voigt Hill
#
# Bulk Modulus (GPa) = 64.32606 65.21142 64.76874
# Shear Modulus (GPa) = 16.61306 20.73373 18.67339
#
# Velocity S-wave (km/s) = 3.03009 3.38508 3.21249
# Velocity P-wave (km/s) = 6.91321 7.16368 7.03956
#
# Compressibility (1/GPa) = 0.01554580
#
# Stress axis : x y z
#
# Youngs Moduli (GPa) = 84.17498 84.17515 60.81076
#
# Poissons Ratio (x) = 0.23235 0.29095
# Poissons Ratio (y) = 0.23235 0.29095
# Poissons Ratio (z) = 0.40273 0.40274
#
# Static dielectric constant tensor:
#      x y z
#    x 1.624310 0.000000 0.000000 
#    y 0.000000 1.624310 0.000000 
#    z 0.000000 0.000000 1.664080 
# 
# From -- ./inp_files/6955.got.cif
#   From: 2010.05.17/outbox.cif.g08.bks.cpg/sg140_4_cif.got.tgz:6955.got - 2010.06.21 00:45:31.
