data_PCOD9572905
_publ_section_title
;
Structure prediction by ZEFSAII (Michael W. Deem and Ramdas Pophale) SiO2 
 PCOD9572905
Probable space group: I 41/A M D
;
_chemical_formula_sum "Si O2"
_cell_formula_units_Z 144
_cell_length_a 20.193009
_cell_length_b 20.193009
_cell_length_c 18.162819
_cell_angle_alpha 90.000000
_cell_angle_beta 90.000000
_cell_angle_gamma 90.000000
_cell_volume 7406.027711
_symmetry_space_group_name_H-M "I 41/A M D"
_symmetry_group_IT_number 141
_space_group.IT_coordinate_system_code '2'
_symmetry_cell_setting 'tetragonal'
loop_
_space_group_symop_operation_xyz
x,y,z
1/4-y,3/4+x,1/4+z
-x,1/2-y,z
1/4+y,1/4-x,3/4+z
x,-y,-z
-x,1/2+y,-z
1/4+y,3/4+x,1/4-z
1/4-y,1/4-x,3/4-z
-x,-y,-z
3/4+y,1/4-x,3/4-z
x,1/2+y,-z
3/4-y,3/4+x,1/4-z
-x,y,z
x,1/2-y,z
3/4-y,1/4-x,3/4+z
3/4+y,3/4+x,1/4+z
1/2+x,1/2+y,1/2+z
3/4-y,1/4+x,3/4+z
1/2-x,-y,1/2+z
3/4+y,3/4-x,1/4+z
1/2+x,1/2-y,1/2-z
1/2-x,y,1/2-z
3/4+y,1/4+x,3/4-z
3/4-y,3/4-x,1/4-z
1/2-x,1/2-y,1/2-z
1/4+y,3/4-x,1/4-z
1/2+x,y,1/2-z
1/4-y,1/4+x,3/4-z
1/2-x,1/2+y,1/2+z
1/2+x,-y,1/2+z
1/4-y,3/4-x,1/4+z
1/4+y,1/4+x,3/4+z
loop_
_atom_site_type_symbol
_atom_site_label
_atom_site_fract_x
_atom_site_fract_y
_atom_site_fract_z
Si Si1 0.613903 0.139007 0.367263
Si Si2 0.239679 0.888834 0.163792
Si Si3 0.500000 0.568144 0.039078
Si Si4 0.162922 0.250000 0.515567
Si Si5 0.391306 0.750000 0.861829
Si Si6 0.075294 0.750000 0.985717
Si Si7 0.697461 0.250000 0.598638
O O1 0.671748 0.185095 0.337344
O O2 0.561141 0.126271 0.302324
O O3 0.584454 0.184124 0.433990
O O4 0.636387 0.065372 0.386371
O O5 0.194556 0.944556 0.125000
O O6 0.250000 0.899988 0.250000
O O7 0.205903 0.817125 0.146499
O O8 0.500000 0.500000 0.000000
O O9 0.500000 0.619256 0.971850
O O10 0.161982 0.250000 0.427559
O O11 0.238024 0.250000 0.545303
O O12 0.436301 0.813699 0.875000
O O13 0.000000 0.750000 0.014183
O O14 0.131100 0.750000 0.049268
#
# Coordination Sequence:
#
# PCOD9572905 Si02
#       7
#    32  32  16  16  16  16  16
#     4  10  22  40  65  93 132 170 221 273 340 398
#     4  11  24  47  73  97 133 180 230 278 339 411
#     4  11  24  39  56  95 134 175 212 278 332 396
#     4  10  19  38  61  91 124 170 212 273 333 391
#     4  11  21  34  60  90 125 165 219 261 325 403
#     4  11  21  39  71 102 133 180 225 284 345 410
#     4  10  24  42  67 101 135 167 222 285 341 395
#
# _framework density 19.443621
#
# number of rings (size 3 to 8) (size 9 to 14) (size 15 to 20)
#    0.000    1.444    3.333    1.667    3.111    0.889 
#    6.000    1.111    0.000    0.000    0.000    0.000 
#    0.000    0.000    0.000    0.000    0.000    0.000 
#
# Total GULP energy -401743.182231 kJ/mol
# GULP energy per Si atom -5579.766420 kJ/mol
# Density = 1.939937 g / cm^3
# Si number density = 19.443621 Si / 1000 Ang^3
#
#
#
# Elastic Constant Matrix: (Units=GPa)
#
#
# Indices 1 2 3 4 5 6 
#
# 1 127.3796 58.1916 41.6931 0.0000 0.0000 0.0000
# 2 58.1916 127.3779 41.6927 0.0000 0.0000 0.0000
# 3 41.6931 41.6927 98.6879 0.0000 0.0000 0.0000
# 4 0.0000 0.0000 0.0000 25.9035 0.0000 0.0000
# 5 0.0000 0.0000 0.0000 0.0000 25.9031 0.0000
# 6 0.0000 0.0000 0.0000 0.0000 0.0000 -2.2883
#
#
#
# Elastic Compliance Matrix: (Units=1/GPa)
#
#
# Indices 1 2 3 4 5 6 
#
# 1 0.010552 -0.003901 -0.002810 0.000000 0.000000 0.000000
# 2 -0.003901 0.010553 -0.002810 0.000000 0.000000 0.000000
# 3 -0.002810 -0.002810 0.012507 0.000000 0.000000 0.000000
# 4 0.000000 0.000000 0.000000 0.038605 0.000000 0.000000
# 5 0.000000 0.000000 0.000000 0.000000 0.038605 0.000000
# 6 0.000000 0.000000 0.000000 0.000000 0.000000 -0.436997
#
#
# Mechanical properties :
#
#
# Convention : Reuss Voigt Hill
#
# Bulk Modulus (GPa) = 68.63415 70.73338 69.68376
# Shear Modulus (GPa) = -16.54122 24.02819 3.74349
#
# Velocity S-wave (km/s) = -2.91989 3.51919 1.38906
# Velocity P-wave (km/s) = 4.89980 7.27809 6.20398
#
# Compressibility (1/GPa) = 0.01457001
#
# Stress axis : x y z
#
# Youngs Moduli (GPa) = 94.76468 94.76351 79.95326
#
# Poissons Ratio (x) = 0.36967 0.22467
# Poissons Ratio (y) = 0.36968 0.22467
# Poissons Ratio (z) = 0.26630 0.26629
#
# Static dielectric constant tensor:
#      x y z
#    x 1.673210 0.000000 0.000000 
#    y 0.000000 1.673210 0.000000 
#    z 0.000000 0.000000 1.650150 
# 
# From -- ./inp_files/8515.got.cif
#   From: 2010.05.17/outbox.cif.g08.bks.cpg/sg141_5_cif.got.tgz:8515.got - 2010.05.20 13:30:51.
