data_PCOD9572997
_publ_section_title
;
Structure prediction by ZEFSAII (Michael W. Deem and Ramdas Pophale) SiO2 
 PCOD9572997
Probable space group: I 41/A M D
;
_chemical_formula_sum "Si O2"
_cell_formula_units_Z 160
_cell_length_a 22.562935
_cell_length_b 22.562935
_cell_length_c 16.325077
_cell_angle_alpha 90.000000
_cell_angle_beta 90.000000
_cell_angle_gamma 90.000000
_cell_volume 8310.868734
_symmetry_space_group_name_H-M "I 41/A M D"
_symmetry_group_IT_number 141
_space_group.IT_coordinate_system_code '2'
_symmetry_cell_setting 'tetragonal'
loop_
_space_group_symop_operation_xyz
x,y,z
1/4-y,3/4+x,1/4+z
-x,1/2-y,z
1/4+y,1/4-x,3/4+z
x,-y,-z
-x,1/2+y,-z
1/4+y,3/4+x,1/4-z
1/4-y,1/4-x,3/4-z
-x,-y,-z
3/4+y,1/4-x,3/4-z
x,1/2+y,-z
3/4-y,3/4+x,1/4-z
-x,y,z
x,1/2-y,z
3/4-y,1/4-x,3/4+z
3/4+y,3/4+x,1/4+z
1/2+x,1/2+y,1/2+z
3/4-y,1/4+x,3/4+z
1/2-x,-y,1/2+z
3/4+y,3/4-x,1/4+z
1/2+x,1/2-y,1/2-z
1/2-x,y,1/2-z
3/4+y,1/4+x,3/4-z
3/4-y,3/4-x,1/4-z
1/2-x,1/2-y,1/2-z
1/4+y,3/4-x,1/4-z
1/2+x,y,1/2-z
1/4-y,1/4+x,3/4-z
1/2-x,1/2+y,1/2+z
1/2+x,-y,1/2+z
1/4-y,3/4-x,1/4+z
1/4+y,1/4+x,3/4+z
loop_
_atom_site_type_symbol
_atom_site_label
_atom_site_fract_x
_atom_site_fract_y
_atom_site_fract_z
Si Si1 0.067839 0.911649 0.594630
Si Si2 0.431818 0.882232 0.303068
Si Si3 0.351273 0.918704 0.056698
Si Si4 0.430418 0.182265 0.381736
Si Si5 0.118672 0.494946 0.710683
O O1 0.104018 0.854018 0.625000
O O2 0.103446 0.935618 0.515950
O O3 0.000000 0.899066 0.576206
O O4 0.073365 0.960522 0.665835
O O5 0.389471 0.860530 0.375000
O O6 0.500000 0.884635 0.331107
O O7 0.428622 0.835995 0.227636
O O8 0.412409 0.945044 0.265217
O O9 0.381576 0.857539 0.087948
O O10 0.349576 0.961572 0.134924
O O11 0.287537 0.909409 0.015538
O O12 0.500000 0.175248 0.367821
O O13 0.413284 0.250000 0.356375
#
# Coordination Sequence:
#
# PCOD9572997 Si02
#       5
#    32  32  32  32  32
#     4  10  21  37  58  85 115 148 186 230 281 336
#     4  10  20  36  59  86 114 147 187 228 274 331
#     4  10  21  38  59  83 109 148 194 234 279 332
#     4   9  18  33  55  85 119 149 178 222 281 339
#     4  10  22  40  58  80 112 149 188 233 283 332
#
# _framework density 19.251899000000002
#
# number of rings (size 3 to 8) (size 9 to 14) (size 15 to 20)
#    0.000    2.200    0.000    2.400    0.000    8.400 
#    0.000   13.000    0.000    6.000    0.000    0.000 
#    0.000    0.000    0.000    0.000    0.000    0.000 
#
# Total GULP energy -446497.039735 kJ/mol
# GULP energy per Si atom -5581.212997 kJ/mol
# Density = 1.920808 g / cm^3
# Si number density = 19.251899 Si / 1000 Ang^3
#
#
#
# Elastic Constant Matrix: (Units=GPa)
#
#
# Indices 1 2 3 4 5 6 
#
# 1 101.7169 60.6433 56.4894 0.0000 0.0000 0.0000
# 2 60.6433 101.7071 56.4824 0.0000 0.0000 0.0000
# 3 56.4894 56.4824 96.2197 0.0000 0.0000 0.0000
# 4 0.0000 0.0000 0.0000 -0.7286 0.0000 0.0000
# 5 0.0000 0.0000 0.0000 0.0000 -0.7189 0.0000
# 6 0.0000 0.0000 0.0000 0.0000 0.0000 -1.0289
#
#
#
# Elastic Compliance Matrix: (Units=1/GPa)
#
#
# Indices 1 2 3 4 5 6 
#
# 1 0.017381 -0.006968 -0.006114 0.000000 0.000000 0.000000
# 2 -0.006968 0.017381 -0.006112 0.000000 0.000000 0.000000
# 3 -0.006114 -0.006112 0.017570 0.000000 0.000000 0.000000
# 4 0.000000 0.000000 0.000000 -1.372492 0.000000 0.000000
# 5 0.000000 0.000000 0.000000 0.000000 -1.391099 0.000000
# 6 0.000000 0.000000 0.000000 0.000000 0.000000 -0.971889
#
#
# Mechanical properties :
#
#
# Convention : Reuss Voigt Hill
#
# Bulk Modulus (GPa) = 71.71430 71.87489 71.79459
# Shear Modulus (GPa) = -1.37358 7.90662 3.26652
#
# Velocity S-wave (km/s) = -0.84559 2.02876 1.30400
# Velocity P-wave (km/s) = 6.03142 6.55002 6.29606
#
# Compressibility (1/GPa) = 0.01394422
#
# Stress axis : x y z
#
# Youngs Moduli (GPa) = 57.53415 57.53287 56.91508
#
# Poissons Ratio (x) = 0.40091 0.34796
# Poissons Ratio (y) = 0.40092 0.34787
# Poissons Ratio (z) = 0.35174 0.35165
#
# Static dielectric constant tensor:
#      x y z
#    x 1.663840 0.000000 0.000000 
#    y 0.000000 1.663840 0.000000 
#    z 0.000000 0.000000 1.681500 
# 
# From -- ./inp_files/8545.got.cif
#   From: 2010.05.17/outbox.cif.g08.bks.cpg/sg141_5_cif.got.tgz:8545.got - 2010.05.20 13:30:51.
