data_PCOD9572529
_publ_section_title
;
Structure prediction by ZEFSAII (Michael W. Deem and Ramdas Pophale) SiO2 
 PCOD9572529
Probable space group: I 4/M C M
;
_chemical_formula_sum "Si O2"
_cell_formula_units_Z 160
_cell_length_a 22.226229
_cell_length_b 22.226229
_cell_length_c 15.961054
_cell_angle_alpha 90.000000
_cell_angle_beta 90.000000
_cell_angle_gamma 90.000000
_cell_volume 7884.844560
_symmetry_space_group_name_H-M "I 4/M C M"
_symmetry_group_IT_number 140
_symmetry_cell_setting 'tetragonal'
loop_
_space_group_symop_operation_xyz
x,y,z
-y,x,z
-x,-y,z
y,-x,z
x,-y,1/2-z
-x,y,1/2-z
y,x,1/2-z
-y,-x,1/2-z
-x,-y,-z
y,-x,-z
x,y,-z
-y,x,-z
-x,y,1/2+z
x,-y,1/2+z
-y,-x,1/2+z
y,x,1/2+z
1/2+x,1/2+y,1/2+z
1/2-y,1/2+x,1/2+z
1/2-x,1/2-y,1/2+z
1/2+y,1/2-x,1/2+z
1/2+x,1/2-y,-z
1/2-x,1/2+y,-z
1/2+y,1/2+x,-z
1/2-y,1/2-x,-z
1/2-x,1/2-y,1/2-z
1/2+y,1/2-x,1/2-z
1/2+x,1/2+y,1/2-z
1/2-y,1/2+x,1/2-z
1/2-x,1/2+y,z
1/2+x,1/2-y,z
1/2-y,1/2-x,z
1/2+y,1/2+x,z
loop_
_atom_site_type_symbol
_atom_site_label
_atom_site_fract_x
_atom_site_fract_y
_atom_site_fract_z
Si Si1 0.375531 0.307551 0.824425
Si Si2 0.704947 0.692515 0.500000
Si Si3 0.419191 0.174589 0.816573
Si Si4 0.611072 0.787437 0.500000
Si Si5 0.048487 0.087532 0.400488
Si Si6 0.360716 0.043009 0.630544
O O1 0.330413 0.330413 0.750000
O O2 0.411193 0.245812 0.806453
O O3 0.421157 0.361597 0.844941
O O4 0.342438 0.292832 0.912396
O O5 0.757644 0.742356 0.500000
O O6 0.638505 0.722291 0.500000
O O7 0.356005 0.143996 0.839425
O O8 0.471671 0.148687 0.876526
O O9 0.438950 0.150122 0.726085
O O10 0.667899 0.832102 0.500000
O O11 0.572850 0.806672 0.420668
O O12 0.055903 0.101343 0.500000
O O13 0.977429 0.078929 0.385140
O O14 0.423362 0.076639 0.604791
#
# Coordination Sequence:
#
# PCOD9572529 Si02
#       6
#    32  16  32  16  32  32
#     4  12  25  40  63  93 127 168 211 259 318 380
#     4  11  24  41  60  88 126 172 215 252 310 379
#     4  10  22  39  59  87 123 160 203 255 306 366
#     4   9  18  35  59  84 114 152 198 248 302 372
#     4   9  20  42  67  92 126 163 205 259 314 372
#     4   9  19  38  62  88 116 154 203 256 312 364
#
# _framework density 20.292093999999999
#
# number of rings (size 3 to 8) (size 9 to 14) (size 15 to 20)
#    0.000    2.000    1.000    2.400    0.000   10.000 
#    0.000    4.500    0.000    1.800    0.000    0.000 
#    0.000    0.000    0.000    0.000    0.000    0.000 
#
# Total GULP energy -445954.374111 kJ/mol
# GULP energy per Si atom -5574.429676 kJ/mol
# Density = 2.024591 g / cm^3
# Si number density = 20.292094 Si / 1000 Ang^3
#
#
#
# Elastic Constant Matrix: (Units=GPa)
#
#
# Indices 1 2 3 4 5 6 
#
# 1 100.7113 48.1877 25.1903 0.0000 0.0000 0.0000
# 2 48.1877 100.7114 25.1903 0.0000 0.0000 0.0000
# 3 25.1903 25.1903 52.7986 0.0000 0.0000 0.0000
# 4 0.0000 0.0000 0.0000 19.8629 0.0000 0.0000
# 5 0.0000 0.0000 0.0000 0.0000 19.8613 0.0000
# 6 0.0000 0.0000 0.0000 0.0000 0.0000 29.3107
#
#
#
# Elastic Compliance Matrix: (Units=1/GPa)
#
#
# Indices 1 2 3 4 5 6 
#
# 1 0.013524 -0.005515 -0.003821 0.000000 0.000000 0.000000
# 2 -0.005515 0.013524 -0.003821 0.000000 0.000000 0.000000
# 3 -0.003821 -0.003821 0.022586 0.000000 0.000000 0.000000
# 4 0.000000 0.000000 0.000000 0.050345 0.000000 0.000000
# 5 0.000000 0.000000 0.000000 0.000000 0.050349 0.000000
# 6 0.000000 0.000000 0.000000 0.000000 0.000000 0.034117
#
#
# Mechanical properties :
#
#
# Convention : Reuss Voigt Hill
#
# Bulk Modulus (GPa) = 42.88258 50.15086 46.51672
# Shear Modulus (GPa) = 22.87987 24.18386 23.53187
#
# Velocity S-wave (km/s) = 3.36151 3.45597 3.40907
# Velocity P-wave (km/s) = 6.02037 6.37912 6.20234
#
# Compressibility (1/GPa) = 0.02331949
#
# Stress axis : x y z
#
# Youngs Moduli (GPa) = 73.94302 73.94309 44.27534
#
# Poissons Ratio (x) = 0.40780 0.16918
# Poissons Ratio (y) = 0.40780 0.16918
# Poissons Ratio (z) = 0.28254 0.28254
#
# Static dielectric constant tensor:
#      x y z
#    x 1.738290 0.000000 0.000000 
#    y 0.000000 1.738290 0.000000 
#    z 0.000000 0.000000 1.717350 
# 
# From -- ./inp_files/6918.got.cif
#   From: 2010.05.17/outbox.cif.g08.bks.cpg/sg140_4_cif.got.tgz:6918.got - 2010.06.21 00:45:31.
