data_PCOD9572943
_publ_section_title
;
Structure prediction by ZEFSAII (Michael W. Deem and Ramdas Pophale) SiO2 
 PCOD9572943
Probable space group: I 41/A M D
;
_chemical_formula_sum "Si O2"
_cell_formula_units_Z 192
_cell_length_a 20.874090
_cell_length_b 20.874090
_cell_length_c 22.844507
_cell_angle_alpha 90.000000
_cell_angle_beta 90.000000
_cell_angle_gamma 90.000000
_cell_volume 9953.982970
_symmetry_space_group_name_H-M "I 41/A M D"
_symmetry_group_IT_number 141
_space_group.IT_coordinate_system_code '2'
_symmetry_cell_setting 'tetragonal'
loop_
_space_group_symop_operation_xyz
x,y,z
1/4-y,3/4+x,1/4+z
-x,1/2-y,z
1/4+y,1/4-x,3/4+z
x,-y,-z
-x,1/2+y,-z
1/4+y,3/4+x,1/4-z
1/4-y,1/4-x,3/4-z
-x,-y,-z
3/4+y,1/4-x,3/4-z
x,1/2+y,-z
3/4-y,3/4+x,1/4-z
-x,y,z
x,1/2-y,z
3/4-y,1/4-x,3/4+z
3/4+y,3/4+x,1/4+z
1/2+x,1/2+y,1/2+z
3/4-y,1/4+x,3/4+z
1/2-x,-y,1/2+z
3/4+y,3/4-x,1/4+z
1/2+x,1/2-y,1/2-z
1/2-x,y,1/2-z
3/4+y,1/4+x,3/4-z
3/4-y,3/4-x,1/4-z
1/2-x,1/2-y,1/2-z
1/4+y,3/4-x,1/4-z
1/2+x,y,1/2-z
1/4-y,1/4+x,3/4-z
1/2-x,1/2+y,1/2+z
1/2+x,-y,1/2+z
1/4-y,3/4-x,1/4+z
1/4+y,1/4+x,3/4+z
loop_
_atom_site_type_symbol
_atom_site_label
_atom_site_fract_x
_atom_site_fract_y
_atom_site_fract_z
Si Si1 0.181025 0.084695 0.232829
Si Si2 0.924861 0.047859 0.628327
Si Si3 0.376307 0.321879 0.494937
Si Si4 0.340519 0.676368 0.843223
Si Si5 0.752184 0.677286 0.074208
Si Si6 0.297915 0.173912 0.701621
O O1 0.250000 0.053029 0.250000
O O2 0.189163 0.131232 0.177257
O O3 0.166767 0.129974 0.287987
O O4 0.123581 0.039196 0.212307
O O5 0.909655 0.094625 0.682393
O O6 0.000000 0.057963 0.615258
O O7 0.917289 0.970944 0.636606
O O8 0.406428 0.250000 0.490003
O O9 0.316563 0.315068 0.537829
O O10 0.414687 0.380005 0.524477
O O11 0.340320 0.750000 0.824904
O O12 0.404774 0.654774 0.875000
O O13 0.723287 0.750000 0.079485
O O14 0.774930 0.651004 0.137659
O O15 0.288305 0.250000 0.697714
O O16 0.250000 0.146068 0.750000
#
# Coordination Sequence:
#
# PCOD9572943 Si02
#       6
#    32  32  32  32  32  32
#     4  10  20  35  57  83 108 142 192 239 281 337
#     4   9  18  34  55  78 106 142 183 229 281 333
#     4  10  20  35  56  80 108 144 185 227 276 338
#     4  10  20  34  53  78 111 148 187 232 281 338
#     4  10  21  37  55  78 111 147 181 225 287 348
#     4  10  21  37  57  81 110 145 183 226 283 344
#
# _framework density 19.288761999999998
#
# number of rings (size 3 to 8) (size 9 to 14) (size 15 to 20)
#    0.000    2.167    0.000    3.000    0.000    5.167 
#    0.000    8.333    0.000    5.500    0.000    0.000 
#    0.000    0.000    0.000    0.000    0.000    0.000 
#
# Total GULP energy -534459.539232 kJ/mol
# GULP energy per Si atom -5567.286867 kJ/mol
# Density = 1.924486 g / cm^3
# Si number density = 19.288762 Si / 1000 Ang^3
#
#
#
# Elastic Constant Matrix: (Units=GPa)
#
#
# Indices 1 2 3 4 5 6 
#
# 1 52.5494 28.9510 19.4725 0.0000 0.0000 0.0000
# 2 28.9510 52.5494 19.4725 0.0000 0.0000 0.0000
# 3 19.4725 19.4725 87.8543 0.0000 0.0000 0.0000
# 4 0.0000 0.0000 0.0000 28.3296 0.0000 0.0000
# 5 0.0000 0.0000 0.0000 0.0000 28.3296 0.0000
# 6 0.0000 0.0000 0.0000 0.0000 0.0000 25.3242
#
#
#
# Elastic Compliance Matrix: (Units=1/GPa)
#
#
# Indices 1 2 3 4 5 6 
#
# 1 0.028050 -0.014326 -0.003042 0.000000 0.000000 0.000000
# 2 -0.014326 0.028050 -0.003042 0.000000 0.000000 0.000000
# 3 -0.003042 -0.003042 0.012731 0.000000 0.000000 0.000000
# 4 0.000000 0.000000 0.000000 0.035299 0.000000 0.000000
# 5 0.000000 0.000000 0.000000 0.000000 0.035299 0.000000
# 6 0.000000 0.000000 0.000000 0.000000 0.000000 0.039488
#
#
# Mechanical properties :
#
#
# Convention : Reuss Voigt Hill
#
# Bulk Modulus (GPa) = 35.70064 36.52723 36.11394
# Shear Modulus (GPa) = 21.82723 24.73380 23.28052
#
# Velocity S-wave (km/s) = 3.36758 3.58479 3.47788
# Velocity P-wave (km/s) = 5.80254 6.00937 5.90686
#
# Compressibility (1/GPa) = 0.02801070
#
# Stress axis : x y z
#
# Youngs Moduli (GPa) = 35.65120 35.65120 78.54934
#
# Poissons Ratio (x) = 0.51074 0.23893
# Poissons Ratio (y) = 0.51074 0.23893
# Poissons Ratio (z) = 0.10844 0.10844
#
# Static dielectric constant tensor:
#      x y z
#    x 1.702170 0.000000 0.000000 
#    y 0.000000 1.702170 0.000000 
#    z 0.000000 0.000000 1.707670 
# 
# From -- ./inp_files/11682.got.cif
#   From: 2010.05.17/outbox.cif.g08.bks.cpg/sg141_6_cif.got.tgz:11682.got - 2010.05.20 13:30:51.
