data_PCOD9572388
_publ_section_title
;
Structure prediction by ZEFSAII (Michael W. Deem and Ramdas Pophale) SiO2 
 PCOD9572388
Probable space group: I 4/M C M
;
_chemical_formula_sum "Si O2"
_cell_formula_units_Z 176
_cell_length_a 18.302644
_cell_length_b 18.302644
_cell_length_c 30.677736
_cell_angle_alpha 90.000000
_cell_angle_beta 90.000000
_cell_angle_gamma 90.000000
_cell_volume 10276.635920
_symmetry_space_group_name_H-M "I 4/M C M"
_symmetry_group_IT_number 140
_symmetry_cell_setting 'tetragonal'
loop_
_space_group_symop_operation_xyz
x,y,z
-y,x,z
-x,-y,z
y,-x,z
x,-y,1/2-z
-x,y,1/2-z
y,x,1/2-z
-y,-x,1/2-z
-x,-y,-z
y,-x,-z
x,y,-z
-y,x,-z
-x,y,1/2+z
x,-y,1/2+z
-y,-x,1/2+z
y,x,1/2+z
1/2+x,1/2+y,1/2+z
1/2-y,1/2+x,1/2+z
1/2-x,1/2-y,1/2+z
1/2+y,1/2-x,1/2+z
1/2+x,1/2-y,-z
1/2-x,1/2+y,-z
1/2+y,1/2+x,-z
1/2-y,1/2-x,-z
1/2-x,1/2-y,1/2-z
1/2+y,1/2-x,1/2-z
1/2+x,1/2+y,1/2-z
1/2-y,1/2+x,1/2-z
1/2-x,1/2+y,z
1/2+x,1/2-y,z
1/2-y,1/2-x,z
1/2+y,1/2+x,z
loop_
_atom_site_type_symbol
_atom_site_label
_atom_site_fract_x
_atom_site_fract_y
_atom_site_fract_z
Si Si1 0.254946 0.626356 0.000000
Si Si2 0.674574 0.289396 0.351500
Si Si3 0.369795 0.746800 0.000000
Si Si4 0.604145 0.777246 0.404316
Si Si5 0.281369 0.052066 0.090311
Si Si6 0.911583 0.918944 0.197557
Si Si7 0.938973 0.561028 0.447893
O O1 0.331558 0.668845 0.000000
O O2 0.251674 0.578941 0.043968
O O3 0.187637 0.687637 0.000000
O O4 0.735588 0.235588 0.330404
O O5 0.718819 0.337754 0.386896
O O6 0.616837 0.238655 0.376801
O O7 0.631931 0.348183 0.322056
O O8 0.409961 0.764268 0.044411
O O9 0.302492 0.802492 0.000000
O O10 0.644434 0.855567 0.397992
O O11 0.524050 0.762109 0.386045
O O12 0.364939 0.039635 0.076210
O O13 0.911816 0.911816 0.250000
O O14 0.995627 0.899948 0.184803
O O15 0.927328 0.572673 0.500000
O O16 0.000000 0.500000 0.443684
#
# Coordination Sequence:
#
# PCOD9572388 Si02
#       7
#    16  32  16  32  32  32  16
#     4  11  17  30  48  67  92 131 182 222 268 309
#     4  11  21  34  53  79 108 140 172 208 266 326
#     4   9  17  30  46  64  95 130 175 224 266 312
#     4  10  21  32  47  71  98 132 177 224 259 305
#     4  12  19  33  49  69 100 139 180 226 270 312
#     4   9  19  38  62  86 110 135 166 212 268 323
#     4  11  22  32  46  70  99 140 190 235 276 311
#
# _framework density 17.126227
#
# number of rings (size 3 to 8) (size 9 to 14) (size 15 to 20)
#    0.000    1.545    4.545    2.727    0.000    0.364 
#    0.000    0.000    0.000    0.000    0.000    1.273 
#    0.000    0.000    0.000    0.000    0.000    0.000 
#
# Total GULP energy -489885.989114 kJ/mol
# GULP energy per Si atom -5566.886240 kJ/mol
# Density = 1.708725 g / cm^3
# Si number density = 17.126227 Si / 1000 Ang^3
#
#
#
# Elastic Constant Matrix: (Units=GPa)
#
#
# Indices 1 2 3 4 5 6 
#
# 1 109.8011 38.5691 22.2685 0.0000 0.0000 0.0000
# 2 38.5691 109.8001 22.2687 0.0000 0.0000 0.0000
# 3 22.2685 22.2687 37.1513 0.0000 0.0000 0.0000
# 4 0.0000 0.0000 0.0000 23.4799 0.0000 0.0000
# 5 0.0000 0.0000 0.0000 0.0000 23.4800 0.0000
# 6 0.0000 0.0000 0.0000 0.0000 0.0000 29.7363
#
#
#
# Elastic Compliance Matrix: (Units=1/GPa)
#
#
# Indices 1 2 3 4 5 6 
#
# 1 0.011129 -0.002910 -0.004926 0.000000 0.000000 0.000000
# 2 -0.002910 0.011129 -0.004926 0.000000 0.000000 0.000000
# 3 -0.004926 -0.004926 0.032823 0.000000 0.000000 0.000000
# 4 0.000000 0.000000 0.000000 0.042590 0.000000 0.000000
# 5 0.000000 0.000000 0.000000 0.000000 0.042590 0.000000
# 6 0.000000 0.000000 0.000000 0.000000 0.000000 0.033629
#
#
# Mechanical properties :
#
#
# Convention : Reuss Voigt Hill
#
# Bulk Modulus (GPa) = 33.83543 46.99612 40.41578
# Shear Modulus (GPa) = 23.89314 26.91564 25.40439
#
# Velocity S-wave (km/s) = 3.73918 3.96865 3.85562
# Velocity P-wave (km/s) = 6.20011 6.96425 6.59326
#
# Compressibility (1/GPa) = 0.02955482
#
# Stress axis : x y z
#
# Youngs Moduli (GPa) = 89.85825 89.85707 30.46672
#
# Poissons Ratio (x) = 0.26149 0.15009
# Poissons Ratio (y) = 0.26149 0.15009
# Poissons Ratio (z) = 0.44266 0.44267
#
# Static dielectric constant tensor:
#      x y z
#    x 1.628440 0.000000 0.000000 
#    y 0.000000 1.628440 0.000000 
#    z 0.000000 0.000000 -9.579070 
# 
# From -- ./inp_files/10782.got.cif
#   From: 2010.05.17/outbox.cif.g08.bks.cpg/sg140_6_cif.got.tgz:10782.got - 2010.06.21 00:45:31.
