data_PCOD9572352
_publ_section_title
;
Structure prediction by ZEFSAII (Michael W. Deem and Ramdas Pophale) SiO2 
 PCOD9572352
Probable space group: I 4/M C M
;
_chemical_formula_sum "Si O2"
_cell_formula_units_Z 160
_cell_length_a 23.059421
_cell_length_b 23.059421
_cell_length_c 15.958480
_cell_angle_alpha 90.000000
_cell_angle_beta 90.000000
_cell_angle_gamma 90.000000
_cell_volume 8485.712634
_symmetry_space_group_name_H-M "I 4/M C M"
_symmetry_group_IT_number 140
_symmetry_cell_setting 'tetragonal'
loop_
_space_group_symop_operation_xyz
x,y,z
-y,x,z
-x,-y,z
y,-x,z
x,-y,1/2-z
-x,y,1/2-z
y,x,1/2-z
-y,-x,1/2-z
-x,-y,-z
y,-x,-z
x,y,-z
-y,x,-z
-x,y,1/2+z
x,-y,1/2+z
-y,-x,1/2+z
y,x,1/2+z
1/2+x,1/2+y,1/2+z
1/2-y,1/2+x,1/2+z
1/2-x,1/2-y,1/2+z
1/2+y,1/2-x,1/2+z
1/2+x,1/2-y,-z
1/2-x,1/2+y,-z
1/2+y,1/2+x,-z
1/2-y,1/2-x,-z
1/2-x,1/2-y,1/2-z
1/2+y,1/2-x,1/2-z
1/2+x,1/2+y,1/2-z
1/2-y,1/2+x,1/2-z
1/2-x,1/2+y,z
1/2+x,1/2-y,z
1/2-y,1/2-x,z
1/2+y,1/2+x,z
loop_
_atom_site_type_symbol
_atom_site_label
_atom_site_fract_x
_atom_site_fract_y
_atom_site_fract_z
Si Si1 0.161105 0.933606 0.500000
Si Si2 0.166884 0.067753 0.500000
Si Si3 0.250571 0.934769 0.158620
Si Si4 0.747353 0.568543 0.345220
Si Si5 0.070899 0.429102 0.337276
Si Si6 0.346512 0.846512 0.593784
Si Si7 0.130985 0.630985 0.673757
Si Si8 0.053096 0.446905 0.903965
O O1 0.110213 0.887380 0.500000
O O2 0.200460 0.924984 0.582306
O O3 0.144949 0.001380 0.500000
O O4 0.207343 0.076485 0.417932
O O5 0.222515 0.930418 0.251143
O O6 0.302951 0.889009 0.166707
O O7 0.272403 0.002124 0.147256
O O8 0.794041 0.619855 0.360261
O O9 0.104318 0.395683 0.409791
O O10 0.099669 0.400332 0.254596
O O11 0.076858 0.497548 0.353040
O O12 0.328933 0.828933 0.500000
O O13 0.101130 0.601130 0.595416
O O14 0.039524 0.460477 0.000000
#
# Coordination Sequence:
#
# PCOD9572352 Si02
#       8
#    16  16  32  32  16  16  16  16
#     4  10  22  44  69  99 124 152 186 248 315 394
#     4  10  24  44  71  95 124 154 192 246 321 390
#     4  10  22  38  59  89 125 169 212 261 308 368
#     4  10  20  37  59  90 126 163 212 257 307 354
#     4  11  21  35  48  72 113 162 223 272 325 343
#     4  12  19  31  57  84 112 167 217 266 294 349
#     4  12  22  34  55  79 118 166 219 254 306 362
#     4  11  24  34  45  76 114 164 216 293 332 345
#
# _framework density 18.855222999999999
#
# number of rings (size 3 to 8) (size 9 to 14) (size 15 to 20)
#    0.000    1.400    3.000    3.000    4.200    1.800 
#    0.000    2.000    0.000    2.400    0.000    5.600 
#    0.000    0.000    0.000    0.000    0.000    0.000 
#
# Total GULP energy -445625.920750 kJ/mol
# GULP energy per Si atom -5570.324009 kJ/mol
# Density = 1.881231 g / cm^3
# Si number density = 18.855223 Si / 1000 Ang^3
#
#
#
# Elastic Constant Matrix: (Units=GPa)
#
#
# Indices 1 2 3 4 5 6 
#
# 1 92.9205 75.2024 67.6767 0.0000 0.0000 0.0000
# 2 75.2024 92.9205 67.6767 0.0000 0.0000 0.0000
# 3 67.6767 67.6767 168.2547 0.0000 0.0000 0.0000
# 4 0.0000 0.0000 0.0000 13.6123 0.0000 0.0000
# 5 0.0000 0.0000 0.0000 0.0000 13.6123 0.0000
# 6 0.0000 0.0000 0.0000 0.0000 0.0000 38.4713
#
#
#
# Elastic Compliance Matrix: (Units=1/GPa)
#
#
# Indices 1 2 3 4 5 6 
#
# 1 0.032618 -0.023822 -0.003538 0.000000 0.000000 0.000000
# 2 -0.023822 0.032618 -0.003538 0.000000 0.000000 0.000000
# 3 -0.003538 -0.003538 0.008790 0.000000 0.000000 0.000000
# 4 0.000000 0.000000 0.000000 0.073463 0.000000 0.000000
# 5 0.000000 0.000000 0.000000 0.000000 0.073463 0.000000
# 6 0.000000 0.000000 0.000000 0.000000 0.000000 0.025993
#
#
# Mechanical properties :
#
#
# Convention : Reuss Voigt Hill
#
# Bulk Modulus (GPa) = 81.76620 86.13416 83.95018
# Shear Modulus (GPa) = 15.98372 22.70849 19.34610
#
# Velocity S-wave (km/s) = 2.91470 3.47415 3.20665
# Velocity P-wave (km/s) = 7.40181 7.86600 7.63743
#
# Compressibility (1/GPa) = 0.01222999
#
# Stress axis : x y z
#
# Youngs Moduli (GPa) = 30.65774 30.65774 113.76911
#
# Poissons Ratio (x) = 0.73032 0.40254
# Poissons Ratio (y) = 0.73032 0.40254
# Poissons Ratio (z) = 0.10847 0.10847
#
# Static dielectric constant tensor:
#      x y z
#    x 1.661360 0.000000 0.000000 
#    y 0.000000 1.661360 0.000000 
#    z 0.000000 0.000000 1.707920 
# 
# From -- ./inp_files/6979.got.cif
#   From: 2010.05.17/outbox.cif.g08.bks.cpg/sg140_4_cif.got.tgz:6979.got - 2010.06.21 00:45:31.
