data_PCOD9572571
_publ_section_title
;
Structure prediction by ZEFSAII (Michael W. Deem and Ramdas Pophale) SiO2 
 PCOD9572571
Probable space group: I 4/M C M
;
_chemical_formula_sum "Si O2"
_cell_formula_units_Z 176
_cell_length_a 17.189773
_cell_length_b 17.189773
_cell_length_c 27.522216
_cell_angle_alpha 90.000000
_cell_angle_beta 90.000000
_cell_angle_gamma 90.000000
_cell_volume 8132.492702
_symmetry_space_group_name_H-M "I 4/M C M"
_symmetry_group_IT_number 140
_symmetry_cell_setting 'tetragonal'
loop_
_space_group_symop_operation_xyz
x,y,z
-y,x,z
-x,-y,z
y,-x,z
x,-y,1/2-z
-x,y,1/2-z
y,x,1/2-z
-y,-x,1/2-z
-x,-y,-z
y,-x,-z
x,y,-z
-y,x,-z
-x,y,1/2+z
x,-y,1/2+z
-y,-x,1/2+z
y,x,1/2+z
1/2+x,1/2+y,1/2+z
1/2-y,1/2+x,1/2+z
1/2-x,1/2-y,1/2+z
1/2+y,1/2-x,1/2+z
1/2+x,1/2-y,-z
1/2-x,1/2+y,-z
1/2+y,1/2+x,-z
1/2-y,1/2-x,-z
1/2-x,1/2-y,1/2-z
1/2+y,1/2-x,1/2-z
1/2+x,1/2+y,1/2-z
1/2-y,1/2+x,1/2-z
1/2-x,1/2+y,z
1/2+x,1/2-y,z
1/2-y,1/2-x,z
1/2+y,1/2+x,z
loop_
_atom_site_type_symbol
_atom_site_label
_atom_site_fract_x
_atom_site_fract_y
_atom_site_fract_z
Si Si1 0.314022 0.054675 0.500000
Si Si2 0.714220 0.090882 0.680418
Si Si3 0.312865 0.316137 0.500000
Si Si4 0.310024 0.684163 0.394793
Si Si5 0.884319 0.949522 0.350504
Si Si6 0.998354 0.369643 0.400316
Si Si7 0.000000 0.173303 0.250000
O O1 0.390931 0.109070 0.500000
O O2 0.241474 0.112809 0.500000
O O3 0.319802 0.008190 0.449692
O O4 0.643877 0.143877 0.699869
O O5 0.764220 0.144354 0.644051
O O6 0.678257 0.022891 0.647139
O O7 0.770503 0.058803 0.721375
O O8 0.234470 0.265530 0.500000
O O9 0.314211 0.353135 0.446932
O O10 0.225124 0.725124 0.400855
O O11 0.313495 0.596563 0.374723
O O12 0.873755 0.955549 0.292316
O O13 0.961690 0.901348 0.364463
O O14 0.919561 0.419561 0.393222
O O15 0.067645 0.432356 0.407867
#
# Coordination Sequence:
#
# PCOD9572571 Si02
#       7
#    16  32  16  32  32  32  16
#     4   9  17  29  51  86 119 155 206 255 301 375
#     4  10  23  40  59  90 127 165 214 268 329 390
#     4   9  20  36  60  94 130 168 203 247 317 389
#     4  10  22  43  66  94 131 166 209 262 321 389
#     4  11  24  43  67  95 125 167 220 274 325 381
#     4   9  18  34  56  85 124 166 206 254 315 387
#     4  12  24  41  64  93 118 164 222 272 328 379
#
# _framework density 21.641580999999999
#
# number of rings (size 3 to 8) (size 9 to 14) (size 15 to 20)
#    0.000    2.000    1.818    0.818    2.545    4.000 
#    0.000    5.455    0.000    1.091    0.000    0.000 
#    0.000    0.000    0.000    0.000    0.000    0.000 
#
# Total GULP energy -491314.280885 kJ/mol
# GULP energy per Si atom -5583.116828 kJ/mol
# Density = 2.159232 g / cm^3
# Si number density = 21.641581 Si / 1000 Ang^3
#
#
#
# Elastic Constant Matrix: (Units=GPa)
#
#
# Indices 1 2 3 4 5 6 
#
# 1 63.5995 33.6258 21.9639 0.0000 0.0000 0.0000
# 2 33.6258 63.5991 21.9639 0.0000 0.0000 0.0000
# 3 21.9639 21.9639 79.5427 0.0000 0.0000 0.0000
# 4 0.0000 0.0000 0.0000 23.5360 0.0000 0.0000
# 5 0.0000 0.0000 0.0000 0.0000 23.5361 0.0000
# 6 0.0000 0.0000 0.0000 0.0000 0.0000 29.7625
#
#
#
# Elastic Compliance Matrix: (Units=1/GPa)
#
#
# Indices 1 2 3 4 5 6 
#
# 1 0.022557 -0.010806 -0.003245 0.000000 0.000000 0.000000
# 2 -0.010806 0.022557 -0.003245 0.000000 0.000000 0.000000
# 3 -0.003245 -0.003245 0.014364 0.000000 0.000000 0.000000
# 4 0.000000 0.000000 0.000000 0.042488 0.000000 0.000000
# 5 0.000000 0.000000 0.000000 0.000000 0.042488 0.000000
# 6 0.000000 0.000000 0.000000 0.000000 0.000000 0.033599
#
#
# Mechanical properties :
#
#
# Convention : Reuss Voigt Hill
#
# Bulk Modulus (GPa) = 40.18120 40.20539 40.19330
# Shear Modulus (GPa) = 22.63058 23.97945 23.30501
#
# Velocity S-wave (km/s) = 3.23723 3.33231 3.28512
# Velocity P-wave (km/s) = 5.70788 5.78134 5.74473
#
# Compressibility (1/GPa) = 0.02488726
#
# Stress axis : x y z
#
# Youngs Moduli (GPa) = 44.33204 44.33171 69.61908
#
# Poissons Ratio (x) = 0.47903 0.22591
# Poissons Ratio (y) = 0.47904 0.22591
# Poissons Ratio (z) = 0.14385 0.14385
#
# Static dielectric constant tensor:
#      x y z
#    x 1.819100 0.000000 0.000000 
#    y 0.000000 1.819100 0.000000 
#    z 0.000000 0.000000 1.770820 
# 
# From -- ./inp_files/10736.got.cif
#   From: 2010.05.17/outbox.cif.g08.bks.cpg/sg140_6_cif.got.tgz:10736.got - 2010.06.21 00:45:31.
