data_PCOD9572808
_publ_section_title
;
Structure prediction by ZEFSAII (Michael W. Deem and Ramdas Pophale) SiO2 
 PCOD9572808
Probable space group: I 41/A M D
;
_chemical_formula_sum "Si O2"
_cell_formula_units_Z 128
_cell_length_a 19.857662
_cell_length_b 19.857662
_cell_length_c 16.059586
_cell_angle_alpha 90.000000
_cell_angle_beta 90.000000
_cell_angle_gamma 90.000000
_cell_volume 6332.724195
_symmetry_space_group_name_H-M "I 41/A M D"
_symmetry_group_IT_number 141
_space_group.IT_coordinate_system_code '2'
_symmetry_cell_setting 'tetragonal'
loop_
_space_group_symop_operation_xyz
x,y,z
1/4-y,3/4+x,1/4+z
-x,1/2-y,z
1/4+y,1/4-x,3/4+z
x,-y,-z
-x,1/2+y,-z
1/4+y,3/4+x,1/4-z
1/4-y,1/4-x,3/4-z
-x,-y,-z
3/4+y,1/4-x,3/4-z
x,1/2+y,-z
3/4-y,3/4+x,1/4-z
-x,y,z
x,1/2-y,z
3/4-y,1/4-x,3/4+z
3/4+y,3/4+x,1/4+z
1/2+x,1/2+y,1/2+z
3/4-y,1/4+x,3/4+z
1/2-x,-y,1/2+z
3/4+y,3/4-x,1/4+z
1/2+x,1/2-y,1/2-z
1/2-x,y,1/2-z
3/4+y,1/4+x,3/4-z
3/4-y,3/4-x,1/4-z
1/2-x,1/2-y,1/2-z
1/4+y,3/4-x,1/4-z
1/2+x,y,1/2-z
1/4-y,1/4+x,3/4-z
1/2-x,1/2+y,1/2+z
1/2+x,-y,1/2+z
1/4-y,3/4-x,1/4+z
1/4+y,1/4+x,3/4+z
loop_
_atom_site_type_symbol
_atom_site_label
_atom_site_fract_x
_atom_site_fract_y
_atom_site_fract_z
Si Si1 0.874931 0.870224 0.400478
Si Si2 0.000000 0.576433 0.288215
Si Si3 0.815056 0.750000 0.305698
Si Si4 0.750000 0.133349 0.250000
Si Si5 0.422760 0.750000 0.981599
Si Si6 0.000000 0.945126 0.615564
Si Si7 0.389735 0.750000 0.362037
O O1 0.822064 0.820201 0.355669
O O2 0.905775 0.817623 0.466492
O O3 0.934239 0.892705 0.335846
O O4 0.849593 0.938887 0.446951
O O5 0.000000 0.497272 0.307911
O O6 0.000000 0.587854 0.189267
O O7 0.750000 0.750000 0.250000
O O8 0.871790 0.750000 0.234736
O O9 0.711616 0.184069 0.187719
O O10 0.500000 0.750000 0.967421
O O11 0.378621 0.750000 0.899769
O O12 0.434668 0.815333 0.375000
#
# Coordination Sequence:
#
# PCOD9572808 Si02
#       7
#    32  16  16  16  16  16  16
#     4  10  21  39  61  89 132 166 210 264 328 402
#     4  10  18  37  60  87 124 175 213 251 312 420
#     4  11  24  39  60 104 131 162 215 294 343 376
#     4   9  20  44  58  80 120 188 208 245 320 415
#     4  11  22  35  58 103 132 155 205 287 349 377
#     4   9  21  36  59  90 126 166 212 255 323 397
#     4  11  21  33  60  95 122 164 216 260 341 408
#
# _framework density 20.21247
#
# number of rings (size 3 to 8) (size 9 to 14) (size 15 to 20)
#    0.000    1.875    3.750    0.750    3.500    1.000 
#    4.500    0.000    0.000    0.000   61.750    0.000 
#    0.000    0.000    0.000    0.000    0.000    0.000 
#
# Total GULP energy -356906.541847 kJ/mol
# GULP energy per Si atom -5576.664716 kJ/mol
# Density = 2.016647 g / cm^3
# Si number density = 20.212470 Si / 1000 Ang^3
#
#
#
# Elastic Constant Matrix: (Units=GPa)
#
#
# Indices 1 2 3 4 5 6 
#
# 1 95.4654 36.7159 33.5544 0.0000 0.0000 0.0000
# 2 36.7159 95.4630 33.5536 0.0000 0.0000 0.0000
# 3 33.5544 33.5536 90.4207 0.0000 0.0000 0.0000
# 4 0.0000 0.0000 0.0000 34.3444 0.0000 0.0000
# 5 0.0000 0.0000 0.0000 0.0000 34.3449 0.0000
# 6 0.0000 0.0000 0.0000 0.0000 0.0000 26.1318
#
#
#
# Elastic Compliance Matrix: (Units=1/GPa)
#
#
# Indices 1 2 3 4 5 6 
#
# 1 0.013172 -0.003850 -0.003459 0.000000 0.000000 0.000000
# 2 -0.003850 0.013172 -0.003459 0.000000 0.000000 0.000000
# 3 -0.003459 -0.003459 0.013627 0.000000 0.000000 0.000000
# 4 0.000000 0.000000 0.000000 0.029117 0.000000 0.000000
# 5 0.000000 0.000000 0.000000 0.000000 0.029116 0.000000
# 6 0.000000 0.000000 0.000000 0.000000 0.000000 0.038267
#
#
# Mechanical properties :
#
#
# Convention : Reuss Voigt Hill
#
# Bulk Modulus (GPa) = 54.24931 54.33299 54.29115
# Shear Modulus (GPa) = 30.45956 30.79923 30.62939
#
# Velocity S-wave (km/s) = 3.88618 3.90779 3.89700
# Velocity P-wave (km/s) = 6.85816 6.87753 6.86785
#
# Compressibility (1/GPa) = 0.01843341
#
# Stress axis : x y z
#
# Youngs Moduli (GPa) = 75.92108 75.91941 73.38529
#
# Poissons Ratio (x) = 0.29230 0.25385
# Poissons Ratio (y) = 0.29230 0.25385
# Poissons Ratio (z) = 0.26262 0.26262
#
# Static dielectric constant tensor:
#      x y z
#    x 1.701800 0.000000 0.000000 
#    y 0.000000 1.701800 0.000000 
#    z 0.000000 0.000000 1.684270 
# 
# From -- ./inp_files/6335.got.cif
#   From: 2010.05.17/outbox.cif.g08.bks.cpg/sg141_4_cif.got.tgz:6335.got - 2010.05.20 13:30:51.
