data_PCOD9572968
_publ_section_title
;
Structure prediction by ZEFSAII (Michael W. Deem and Ramdas Pophale) SiO2 
 PCOD9572968
Probable space group: I 41/A M D
;
_chemical_formula_sum "Si O2"
_cell_formula_units_Z 144
_cell_length_a 17.772277
_cell_length_b 17.772277
_cell_length_c 25.588372
_cell_angle_alpha 90.000000
_cell_angle_beta 90.000000
_cell_angle_gamma 90.000000
_cell_volume 8082.185294
_symmetry_space_group_name_H-M "I 41/A M D"
_symmetry_group_IT_number 141
_space_group.IT_coordinate_system_code '2'
_symmetry_cell_setting 'tetragonal'
loop_
_space_group_symop_operation_xyz
x,y,z
1/4-y,3/4+x,1/4+z
-x,1/2-y,z
1/4+y,1/4-x,3/4+z
x,-y,-z
-x,1/2+y,-z
1/4+y,3/4+x,1/4-z
1/4-y,1/4-x,3/4-z
-x,-y,-z
3/4+y,1/4-x,3/4-z
x,1/2+y,-z
3/4-y,3/4+x,1/4-z
-x,y,z
x,1/2-y,z
3/4-y,1/4-x,3/4+z
3/4+y,3/4+x,1/4+z
1/2+x,1/2+y,1/2+z
3/4-y,1/4+x,3/4+z
1/2-x,-y,1/2+z
3/4+y,3/4-x,1/4+z
1/2+x,1/2-y,1/2-z
1/2-x,y,1/2-z
3/4+y,1/4+x,3/4-z
3/4-y,3/4-x,1/4-z
1/2-x,1/2-y,1/2-z
1/4+y,3/4-x,1/4-z
1/2+x,y,1/2-z
1/4-y,1/4+x,3/4-z
1/2-x,1/2+y,1/2+z
1/2+x,-y,1/2+z
1/4-y,3/4-x,1/4+z
1/4+y,1/4+x,3/4+z
loop_
_atom_site_type_symbol
_atom_site_label
_atom_site_fract_x
_atom_site_fract_y
_atom_site_fract_z
Si Si1 0.086906 0.836906 0.125000
Si Si2 0.283284 0.402181 0.693930
Si Si3 0.910979 0.068388 0.415534
Si Si4 0.412313 0.334784 0.982729
Si Si5 0.331338 0.562311 0.658294
O O1 0.097024 0.750000 0.108744
O O2 0.105363 0.896053 0.078697
O O3 0.250000 0.381120 0.750000
O O4 0.311064 0.488978 0.692849
O O5 0.219640 0.399494 0.648831
O O6 0.879251 0.129251 0.375000
O O7 0.897694 0.103263 0.472854
O O8 0.000000 0.056667 0.409297
O O9 0.865492 0.991706 0.407176
O O10 0.500000 0.341406 0.967731
O O11 0.400673 0.250000 0.003055
O O12 0.358578 0.352177 0.934624
#
# Coordination Sequence:
#
# PCOD9572968 Si02
#       5
#    16  32  32  32  32
#     4   9  20  40  62  86 116 148 181 222 280 338
#     4  10  21  38  60  84 113 141 186 235 277 332
#     4  11  20  33  51  77 111 150 189 229 270 320
#     4  10  21  35  52  77 111 149 187 227 275 330
#     4  10  20  35  57  78 108 145 185 230 280 330
#
# _framework density 17.816965
#
# number of rings (size 3 to 8) (size 9 to 14) (size 15 to 20)
#    0.000    2.111    2.222    3.333    0.000    6.889 
#    0.000    2.222    0.000    2.667    0.000    0.000 
#    0.000    0.000    0.000    0.000    0.000    0.000 
#
# Total GULP energy -401722.913145 kJ/mol
# GULP energy per Si atom -5579.484905 kJ/mol
# Density = 1.777641 g / cm^3
# Si number density = 17.816965 Si / 1000 Ang^3
#
#
#
# Elastic Constant Matrix: (Units=GPa)
#
#
# Indices 1 2 3 4 5 6 
#
# 1 68.5649 66.8315 45.5291 0.0000 0.0000 0.0000
# 2 66.8315 68.5649 45.5291 0.0000 0.0000 0.0000
# 3 45.5291 45.5291 88.2150 0.0000 0.0000 0.0000
# 4 0.0000 0.0000 0.0000 9.8644 0.0000 0.0000
# 5 0.0000 0.0000 0.0000 0.0000 9.8644 0.0000
# 6 0.0000 0.0000 0.0000 0.0000 0.0000 34.1051
#
#
#
# Elastic Compliance Matrix: (Units=1/GPa)
#
#
# Indices 1 2 3 4 5 6 
#
# 1 0.294116 -0.282804 -0.005838 0.000000 0.000000 0.000000
# 2 -0.282804 0.294116 -0.005838 0.000000 0.000000 0.000000
# 3 -0.005838 -0.005838 0.017363 0.000000 0.000000 0.000000
# 4 0.000000 0.000000 0.000000 0.101375 0.000000 0.000000
# 5 0.000000 0.000000 0.000000 0.000000 0.101375 0.000000
# 6 0.000000 0.000000 0.000000 0.000000 0.000000 0.029321
#
#
# Mechanical properties :
#
#
# Convention : Reuss Voigt Hill
#
# Bulk Modulus (GPa) = 60.12026 60.12493 60.12259
# Shear Modulus (GPa) = 3.49120 15.26377 9.37749
#
# Velocity S-wave (km/s) = 1.40133 2.93012 2.29666
# Velocity P-wave (km/s) = 6.03613 6.72805 6.39146
#
# Compressibility (1/GPa) = 0.01663333
#
# Stress axis : x y z
#
# Youngs Moduli (GPa) = 3.40002 3.40002 57.59528
#
# Poissons Ratio (x) = 0.96154 0.33627
# Poissons Ratio (y) = 0.96154 0.33627
# Poissons Ratio (z) = 0.01985 0.01985
#
# Static dielectric constant tensor:
#      x y z
#    x 1.605370 0.000000 0.000000 
#    y 0.000000 1.605370 0.000000 
#    z 0.000000 0.000000 1.606880 
# 
# From -- ./inp_files/12636.got.cif
#   From: 2010.05.17/outbox.cif.g08.bks.cpg/sg141_7_cif.got.tgz:12636.got - 2010.05.20 13:30:51.
