data_PCOD9572701
_publ_section_title
;
Structure prediction by ZEFSAII (Michael W. Deem and Ramdas Pophale) SiO2 
 PCOD9572701
Probable space group: I 4/M C M
;
_chemical_formula_sum "Si O2"
_cell_formula_units_Z 160
_cell_length_a 23.719494
_cell_length_b 23.719494
_cell_length_c 15.972267
_cell_angle_alpha 90.000000
_cell_angle_beta 90.000000
_cell_angle_gamma 90.000000
_cell_volume 8986.227345
_symmetry_space_group_name_H-M "I 4/M C M"
_symmetry_group_IT_number 140
_symmetry_cell_setting 'tetragonal'
loop_
_space_group_symop_operation_xyz
x,y,z
-y,x,z
-x,-y,z
y,-x,z
x,-y,1/2-z
-x,y,1/2-z
y,x,1/2-z
-y,-x,1/2-z
-x,-y,-z
y,-x,-z
x,y,-z
-y,x,-z
-x,y,1/2+z
x,-y,1/2+z
-y,-x,1/2+z
y,x,1/2+z
1/2+x,1/2+y,1/2+z
1/2-y,1/2+x,1/2+z
1/2-x,1/2-y,1/2+z
1/2+y,1/2-x,1/2+z
1/2+x,1/2-y,-z
1/2-x,1/2+y,-z
1/2+y,1/2+x,-z
1/2-y,1/2-x,-z
1/2-x,1/2-y,1/2-z
1/2+y,1/2-x,1/2-z
1/2+x,1/2+y,1/2-z
1/2-y,1/2+x,1/2-z
1/2-x,1/2+y,z
1/2+x,1/2-y,z
1/2-y,1/2-x,z
1/2+y,1/2+x,z
loop_
_atom_site_type_symbol
_atom_site_label
_atom_site_fract_x
_atom_site_fract_y
_atom_site_fract_z
Si Si1 0.614033 0.203309 0.733513
Si Si2 0.203000 0.448175 0.093164
Si Si3 0.789219 0.036287 0.335305
Si Si4 0.974365 0.610702 0.337953
Si Si5 0.586508 0.472727 0.898912
O O1 0.675350 0.175350 0.725223
O O2 0.595993 0.209159 0.830836
O O3 0.596073 0.259990 0.685667
O O4 0.570082 0.158413 0.692923
O O5 0.250246 0.497310 0.104820
O O6 0.142987 0.479100 0.108442
O O7 0.206536 0.424505 0.000000
O O8 0.852234 0.042690 0.367044
O O9 0.789176 0.000000 0.250000
O O10 0.939426 0.560575 0.379397
O O11 0.000000 0.590579 0.250000
O O12 0.568495 0.535867 0.871772
O O13 0.586942 0.472350 0.000000
#
# Coordination Sequence:
#
# PCOD9572701 Si02
#       5
#    32  32  32  32  32
#     4   8  15  28  43  60  86 121 162 205 244 281
#     4   9  16  25  40  62  86 116 158 205 249 293
#     4   9  17  29  46  69  96 128 166 202 237 283
#     4   8  14  24  36  51  76 112 151 192 241 296
#     4   9  18  32  50  75 107 136 157 184 231 289
#
# _framework density 17.805024
#
# number of rings (size 3 to 8) (size 9 to 14) (size 15 to 20)
#    0.000    3.400    0.000    3.600    0.000    1.800 
#    0.000    1.000    0.000    1.800    0.000   16.800 
#    0.000    6.400    0.000    0.200    0.000    1.200 
#
# Total GULP energy -445363.940381 kJ/mol
# GULP energy per Si atom -5567.049255 kJ/mol
# Density = 1.776450 g / cm^3
# Si number density = 17.805024 Si / 1000 Ang^3
#
#
#
# Elastic Constant Matrix: (Units=GPa)
#
#
# Indices 1 2 3 4 5 6 
#
# 1 81.8055 59.7139 12.9725 0.0000 0.0000 0.0000
# 2 59.7139 81.8055 12.9725 0.0000 0.0000 0.0000
# 3 12.9725 12.9725 19.7753 0.0000 0.0000 0.0000
# 4 0.0000 0.0000 0.0000 14.4930 0.0000 0.0000
# 5 0.0000 0.0000 0.0000 0.0000 14.4930 0.0000
# 6 0.0000 0.0000 0.0000 0.0000 0.0000 8.8801
#
#
#
# Elastic Compliance Matrix: (Units=1/GPa)
#
#
# Indices 1 2 3 4 5 6 
#
# 1 0.026649 -0.018617 -0.005269 0.000000 0.000000 0.000000
# 2 -0.018617 0.026649 -0.005269 0.000000 0.000000 0.000000
# 3 -0.005269 -0.005269 0.057481 0.000000 0.000000 0.000000
# 4 0.000000 0.000000 0.000000 0.068999 0.000000 0.000000
# 5 0.000000 0.000000 0.000000 0.000000 0.068999 0.000000
# 6 0.000000 0.000000 0.000000 0.000000 0.000000 0.112611
#
#
# Mechanical properties :
#
#
# Convention : Reuss Voigt Hill
#
# Bulk Modulus (GPa) = 19.05878 39.41155 29.23517
# Shear Modulus (GPa) = 11.43673 14.08839 12.76256
#
# Velocity S-wave (km/s) = 2.53718 2.81598 2.68021
# Velocity P-wave (km/s) = 4.39436 5.72330 5.10228
#
# Compressibility (1/GPa) = 0.05246925
#
# Stress axis : x y z
#
# Youngs Moduli (GPa) = 37.52466 37.52466 17.39699
#
# Poissons Ratio (x) = 0.69860 0.09167
# Poissons Ratio (y) = 0.69860 0.09167
# Poissons Ratio (z) = 0.19772 0.19772
#
# Static dielectric constant tensor:
#      x y z
#    x 1.625630 0.000000 0.000000 
#    y 0.000000 1.625630 0.000000 
#    z 0.000000 0.000000 1.614280 
# 
# From -- ./inp_files/4720.got.cif
#   From: 2010.05.17/outbox.cif.g08.bks.cpg/sg140_3_cif.got.tgz:4720.got - 2010.06.21 00:45:31.
