data_PCOD9572677
_publ_section_title
;
Structure prediction by ZEFSAII (Michael W. Deem and Ramdas Pophale) SiO2 
 PCOD9572677
Probable space group: I 4/M C M
;
_chemical_formula_sum "Si O2"
_cell_formula_units_Z 144
_cell_length_a 23.773579
_cell_length_b 23.773579
_cell_length_c 17.038147
_cell_angle_alpha 90.000000
_cell_angle_beta 90.000000
_cell_angle_gamma 90.000000
_cell_volume 9629.672032
_symmetry_space_group_name_H-M "I 4/M C M"
_symmetry_group_IT_number 140
_symmetry_cell_setting 'tetragonal'
loop_
_space_group_symop_operation_xyz
x,y,z
-y,x,z
-x,-y,z
y,-x,z
x,-y,1/2-z
-x,y,1/2-z
y,x,1/2-z
-y,-x,1/2-z
-x,-y,-z
y,-x,-z
x,y,-z
-y,x,-z
-x,y,1/2+z
x,-y,1/2+z
-y,-x,1/2+z
y,x,1/2+z
1/2+x,1/2+y,1/2+z
1/2-y,1/2+x,1/2+z
1/2-x,1/2-y,1/2+z
1/2+y,1/2-x,1/2+z
1/2+x,1/2-y,-z
1/2-x,1/2+y,-z
1/2+y,1/2+x,-z
1/2-y,1/2-x,-z
1/2-x,1/2-y,1/2-z
1/2+y,1/2-x,1/2-z
1/2+x,1/2+y,1/2-z
1/2-y,1/2+x,1/2-z
1/2-x,1/2+y,z
1/2+x,1/2-y,z
1/2-y,1/2-x,z
1/2+y,1/2+x,z
loop_
_atom_site_type_symbol
_atom_site_label
_atom_site_fract_x
_atom_site_fract_y
_atom_site_fract_z
Si Si1 0.952770 0.547231 0.593465
Si Si2 0.281076 0.124308 0.904880
Si Si3 0.289220 0.692615 0.408777
Si Si4 0.200259 0.391193 0.905267
Si Si5 0.511876 0.831159 0.841934
O O1 0.945521 0.554479 0.500000
O O2 0.893788 0.527095 0.628775
O O3 0.000000 0.500000 0.607156
O O4 0.333420 0.166581 0.889293
O O5 0.224530 0.156224 0.876337
O O6 0.293076 0.065109 0.865095
O O7 0.278519 0.117994 0.000000
O O8 0.302337 0.680468 0.500000
O O9 0.240443 0.740443 0.408724
O O10 0.257860 0.638051 0.374903
O O11 0.147786 0.352215 0.878611
O O12 0.190480 0.454901 0.881935
O O13 0.201708 0.387440 0.000000
O O14 0.500000 0.832121 0.750000
#
# Coordination Sequence:
#
# PCOD9572677 Si02
#       5
#    16  32  32  32  32
#     4  11  24  38  50  60  79 124 174 204 231 265
#     4   9  16  30  50  68  87 114 154 194 232 278
#     4   7  12  25  48  71  85 105 144 194 236 276
#     4   9  17  31  49  67  88 117 154 192 235 281
#     4  12  24  31  44  65  96 124 157 194 235 265
#
# _framework density 14.953780999999999
#
# number of rings (size 3 to 8) (size 9 to 14) (size 15 to 20)
#    0.000    2.556    1.111    5.333    3.111    1.778 
#    0.000    1.111    0.000    4.000    0.000    0.000 
#    0.000    0.889    0.000   10.222    0.000    4.000 
#
# Total GULP energy -401043.850240 kJ/mol
# GULP energy per Si atom -5570.053476 kJ/mol
# Density = 1.491975 g / cm^3
# Si number density = 14.953781 Si / 1000 Ang^3
#
#
#
# Elastic Constant Matrix: (Units=GPa)
#
#
# Indices 1 2 3 4 5 6 
#
# 1 104.3901 88.4348 30.7150 0.0000 0.0000 0.0000
# 2 88.4348 104.3894 30.7158 0.0000 0.0000 0.0000
# 3 30.7150 30.7158 22.0208 0.0000 0.0000 0.0000
# 4 0.0000 0.0000 0.0000 25.5060 0.0000 0.0000
# 5 0.0000 0.0000 0.0000 0.0000 25.5064 0.0000
# 6 0.0000 0.0000 0.0000 0.0000 0.0000 20.1983
#
#
#
# Elastic Compliance Matrix: (Units=1/GPa)
#
#
# Indices 1 2 3 4 5 6 
#
# 1 0.036004 -0.026671 -0.013017 0.000000 0.000000 0.000000
# 2 -0.026671 0.036006 -0.013021 0.000000 0.000000 0.000000
# 3 -0.013017 -0.013021 0.081730 0.000000 0.000000 0.000000
# 4 0.000000 0.000000 0.000000 0.039206 0.000000 0.000000
# 5 0.000000 0.000000 0.000000 0.000000 0.039206 0.000000
# 6 0.000000 0.000000 0.000000 0.000000 0.000000 0.049509
#
#
# Mechanical properties :
#
#
# Convention : Reuss Voigt Hill
#
# Bulk Modulus (GPa) = 20.69463 58.94795 39.82129
# Shear Modulus (GPa) = 12.40117 19.63778 16.01948
#
# Velocity S-wave (km/s) = 2.88288 3.62779 3.27657
# Velocity P-wave (km/s) = 4.99504 7.55337 6.40328
#
# Compressibility (1/GPa) = 0.04832172
#
# Stress axis : x y z
#
# Youngs Moduli (GPa) = 27.77448 27.77323 12.23539
#
# Poissons Ratio (x) = 0.74075 0.15926
# Poissons Ratio (y) = 0.74078 0.15932
# Poissons Ratio (z) = 0.36153 0.36164
#
# Static dielectric constant tensor:
#      x y z
#    x 1.501120 0.000000 0.000000 
#    y 0.000000 1.501120 0.000000 
#    z 0.000000 0.000000 1.630550 
# 
# From -- ./inp_files/7031.got.cif
#   From: 2010.05.17/outbox.cif.g08.bks.cpg/sg140_4_cif.got.tgz:7031.got - 2010.06.21 00:45:31.
