data_PCOD9572726
_publ_section_title
;
Structure prediction by ZEFSAII (Michael W. Deem and Ramdas Pophale) SiO2 
 PCOD9572726
Probable space group: I 4/M C M
;
_chemical_formula_sum "Si O2"
_cell_formula_units_Z 88
_cell_length_a 24.000000
_cell_length_b 24.000000
_cell_length_c 15.000000
_cell_angle_alpha 90.000000
_cell_angle_beta 90.000000
_cell_angle_gamma 90.000000
_cell_volume 8640.000000
_symmetry_space_group_name_H-M "I 4/M C M"
_symmetry_group_IT_number 140
_symmetry_cell_setting 'tetragonal'
loop_
_space_group_symop_operation_xyz
x,y,z
-y,x,z
-x,-y,z
y,-x,z
x,-y,1/2-z
-x,y,1/2-z
y,x,1/2-z
-y,-x,1/2-z
-x,-y,-z
y,-x,-z
x,y,-z
-y,x,-z
-x,y,1/2+z
x,-y,1/2+z
-y,-x,1/2+z
y,x,1/2+z
1/2+x,1/2+y,1/2+z
1/2-y,1/2+x,1/2+z
1/2-x,1/2-y,1/2+z
1/2+y,1/2-x,1/2+z
1/2+x,1/2-y,-z
1/2-x,1/2+y,-z
1/2+y,1/2+x,-z
1/2-y,1/2-x,-z
1/2-x,1/2-y,1/2-z
1/2+y,1/2-x,1/2-z
1/2+x,1/2+y,1/2-z
1/2-y,1/2+x,1/2-z
1/2-x,1/2+y,z
1/2+x,1/2-y,z
1/2-y,1/2-x,z
1/2+y,1/2+x,z
loop_
_atom_site_type_symbol
_atom_site_label
_atom_site_fract_x
_atom_site_fract_y
_atom_site_fract_z
Si Si1 0.974855 0.089152 0.000000
Si Si2 0.537424 0.871400 0.326175
Si Si3 0.568591 0.068591 0.603809
Si Si4 0.257989 0.933977 0.899791
Si Si5 0.229844 0.138791 0.769920
Si Si6 0.029262 0.172186 0.661156
Si Si7 0.163718 0.336283 0.607485
O O1 0.966495 0.126617 0.914080
O O2 0.037289 0.066157 0.000000
O O3 0.500000 0.840968 0.250000
O O4 0.591960 0.908041 0.301912
O O5 0.490678 0.913477 0.359343
O O6 0.552484 0.823475 0.394884
O O7 0.562717 0.062717 0.500000
O O8 0.616151 0.116151 0.617159
O O9 0.248966 0.886986 0.824830
O O10 0.222201 0.988706 0.872722
O O11 0.241949 0.917344 0.000000
O O12 0.194271 0.194271 0.750000
O O13 0.192455 0.090468 0.813132
O O14 0.280779 0.146240 0.838699
O O15 0.000000 0.149612 0.750000
O O16 0.171937 0.328064 0.500000
#
# Coordination Sequence:
#
# PCOD9572726 Si02
#       7
#    16  32  16  32  32  32  16
#     4  11  26  42  70 109 147 181 226 288 354 430
#     4  12  24  40  63  94 133 177 224 276 346 405
#     4  11  23  39  64  92 127 165 221 271 335 407
#     4  11  24  44  68 100 136 181 230 287 347 412
#     4  11  26  44  69 101 134 181 235 288 351 423
#     4  10  23  43  71  98 138 184 231 282 346 423
#     4  11  25  46  70  99 133 178 232 299 350 415
#
# _framework density 10.185185000000001
#
# number of rings (size 3 to 8) (size 9 to 14) (size 15 to 20)
#    0.000    1.000    1.818    4.909    7.636    4.000 
#    0.000    0.909    0.000    0.000    0.000    0.000 
#    0.000    0.000    0.000    0.000    0.000    0.000 
#
# Total GULP energy -491531.100314 kJ/mol
# GULP energy per Si atom -5585.580685 kJ/mol
# Density = 1.016200 g / cm^3
# Si number density = 10.185185 Si / 1000 Ang^3
#
#
#
# Elastic Constant Matrix: (Units=GPa)
#
#
# Indices 1 2 3 4 5 6 
#
# 1 36.6084 9.0211 36.4143 0.0000 0.0000 0.0000
# 2 9.0211 36.6085 36.4148 0.0000 0.0000 0.0000
# 3 36.4143 36.4148 163.9914 0.0000 0.0000 0.0000
# 4 0.0000 0.0000 0.0000 18.6809 0.0000 0.0000
# 5 0.0000 0.0000 0.0000 0.0000 18.6812 0.0000
# 6 0.0000 0.0000 0.0000 0.0000 0.0000 18.4066
#
#
#
# Elastic Compliance Matrix: (Units=1/GPa)
#
#
# Indices 1 2 3 4 5 6 
#
# 1 0.035098 -0.001151 -0.007538 0.000000 0.000000 0.000000
# 2 -0.001151 0.035098 -0.007538 0.000000 0.000000 0.000000
# 3 -0.007538 -0.007538 0.009446 0.000000 0.000000 0.000000
# 4 0.000000 0.000000 0.000000 0.053531 0.000000 0.000000
# 5 0.000000 0.000000 0.000000 0.000000 0.053530 0.000000
# 6 0.000000 0.000000 0.000000 0.000000 0.000000 0.054328
#
#
# Mechanical properties :
#
#
# Convention : Reuss Voigt Hill
#
# Bulk Modulus (GPa) = 21.19202 44.54540 32.86871
# Shear Modulus (GPa) = 17.28832 21.51092 19.39962
#
# Velocity S-wave (km/s) = 2.91640 3.25313 3.08936
# Velocity P-wave (km/s) = 4.66546 6.00214 5.37551
#
# Compressibility (1/GPa) = 0.04718758
#
# Stress axis : x y z
#
# Youngs Moduli (GPa) = 28.49190 28.49182 105.87025
#
# Poissons Ratio (x) = 0.03279 0.79804
# Poissons Ratio (y) = 0.03279 0.79805
# Poissons Ratio (z) = 0.21477 0.21477
#
# Static dielectric constant tensor:
#      x y z
#    x 1.697860 0.000000 0.000000 
#    y 0.000000 1.697860 0.000000 
#    z 0.000000 0.000000 1.754590 
# 
# From -- ./inp_files/4993.got.cif
#   From: 2010.05.17/outbox.ucp.g08.bks.cvg/sg140_3_cif.got.tgz:4993.got - 2010.06.11 11:42:50.
