data_PCOD9572491
_publ_section_title
;
Structure prediction by ZEFSAII (Michael W. Deem and Ramdas Pophale) SiO2 
 PCOD9572491
Probable space group: I 4/M C M
;
_chemical_formula_sum "Si O2"
_cell_formula_units_Z 176
_cell_length_a 25.156347
_cell_length_b 25.156347
_cell_length_c 14.215712
_cell_angle_alpha 90.000000
_cell_angle_beta 90.000000
_cell_angle_gamma 90.000000
_cell_volume 8996.296691
_symmetry_space_group_name_H-M "I 4/M C M"
_symmetry_group_IT_number 140
_symmetry_cell_setting 'tetragonal'
loop_
_space_group_symop_operation_xyz
x,y,z
-y,x,z
-x,-y,z
y,-x,z
x,-y,1/2-z
-x,y,1/2-z
y,x,1/2-z
-y,-x,1/2-z
-x,-y,-z
y,-x,-z
x,y,-z
-y,x,-z
-x,y,1/2+z
x,-y,1/2+z
-y,-x,1/2+z
y,x,1/2+z
1/2+x,1/2+y,1/2+z
1/2-y,1/2+x,1/2+z
1/2-x,1/2-y,1/2+z
1/2+y,1/2-x,1/2+z
1/2+x,1/2-y,-z
1/2-x,1/2+y,-z
1/2+y,1/2+x,-z
1/2-y,1/2-x,-z
1/2-x,1/2-y,1/2-z
1/2+y,1/2-x,1/2-z
1/2+x,1/2+y,1/2-z
1/2-y,1/2+x,1/2-z
1/2-x,1/2+y,z
1/2+x,1/2-y,z
1/2-y,1/2-x,z
1/2+y,1/2+x,z
loop_
_atom_site_type_symbol
_atom_site_label
_atom_site_fract_x
_atom_site_fract_y
_atom_site_fract_z
Si Si1 0.985889 0.087883 0.000000
Si Si2 0.529262 0.884024 0.385241
Si Si3 0.589938 0.089938 0.614657
Si Si4 0.265755 0.935024 0.891672
Si Si5 0.220580 0.133572 0.777997
Si Si6 0.023867 0.179513 0.648866
Si Si7 0.178283 0.321718 0.613855
O O1 0.980308 0.127355 0.912943
O O2 0.042466 0.058595 0.000000
O O3 0.528189 0.885733 0.500000
O O4 0.570910 0.929091 0.354785
O O5 0.469207 0.894760 0.353098
O O6 0.548321 0.824945 0.361083
O O7 0.588539 0.088539 0.500000
O O8 0.633815 0.133815 0.638820
O O9 0.243796 0.892346 0.817845
O O10 0.227584 0.986814 0.888356
O O11 0.267176 0.915865 0.000000
O O12 0.175090 0.175090 0.750000
O O13 0.197896 0.084231 0.838027
O O14 0.266677 0.160663 0.838908
O O15 0.000000 0.166767 0.750000
O O16 0.181760 0.318241 0.500000
#
# Coordination Sequence:
#
# PCOD9572491 Si02
#       7
#    16  32  16  32  32  32  16
#     4  11  26  42  68 103 139 173 216 280 346 418
#     4   9  17  30  56  93 128 163 207 257 318 384
#     4   9  17  33  60  88 125 165 213 255 316 388
#     4  10  21  40  64  96 129 173 219 271 332 398
#     4  11  26  43  66  95 127 173 226 281 338 404
#     4  10  23  41  68  96 133 176 225 273 335 411
#     4  11  25  44  66  95 128 173 225 288 341 398
#
# _framework density 19.563606
#
# number of rings (size 3 to 8) (size 9 to 14) (size 15 to 20)
#    0.000    1.909    0.909    1.636    7.636    3.273 
#    0.000    0.909    0.000    0.000    2.364    0.000 
#    0.000    0.000    0.000    0.000    0.000    0.000 
#
# Total GULP energy -491981.727407 kJ/mol
# GULP energy per Si atom -5590.701448 kJ/mol
# Density = 1.951908 g / cm^3
# Si number density = 19.563606 Si / 1000 Ang^3
#
#
#
# Elastic Constant Matrix: (Units=GPa)
#
#
# Indices 1 2 3 4 5 6 
#
# 1 113.3587 69.4122 34.3060 0.0000 0.0000 0.0000
# 2 69.4122 113.3598 34.3064 0.0000 0.0000 0.0000
# 3 34.3060 34.3064 73.0007 0.0000 0.0000 0.0000
# 4 0.0000 0.0000 0.0000 -76.2653 0.0000 0.0000
# 5 0.0000 0.0000 0.0000 0.0000 -76.2669 0.0000
# 6 0.0000 0.0000 0.0000 0.0000 0.0000 23.2313
#
#
#
# Elastic Compliance Matrix: (Units=1/GPa)
#
#
# Indices 1 2 3 4 5 6 
#
# 1 0.014699 -0.008056 -0.003122 0.000000 0.000000 0.000000
# 2 -0.008056 0.014699 -0.003122 0.000000 0.000000 0.000000
# 3 -0.003122 -0.003122 0.016633 0.000000 0.000000 0.000000
# 4 0.000000 0.000000 0.000000 -0.013112 0.000000 0.000000
# 5 0.000000 0.000000 0.000000 0.000000 -0.013112 0.000000
# 6 0.000000 0.000000 0.000000 0.000000 0.000000 0.043045
#
#
# Mechanical properties :
#
#
# Convention : Reuss Voigt Hill
#
# Bulk Modulus (GPa) = 57.36740 63.97428 60.67084
# Shear Modulus (GPa) = 51.40749 -15.08057 18.16346
#
# Velocity S-wave (km/s) = 5.13168 -2.77943 3.05032
# Velocity P-wave (km/s) = 8.03115 4.74040 6.59434
#
# Compressibility (1/GPa) = 0.01743150
#
# Stress axis : x y z
#
# Youngs Moduli (GPa) = 68.03161 68.03214 60.12211
#
# Poissons Ratio (x) = 0.54805 0.18770
# Poissons Ratio (y) = 0.54804 0.18770
# Poissons Ratio (z) = 0.21239 0.21240
#
# Static dielectric constant tensor:
#      x y z
#    x 1.650380 0.000000 0.000000 
#    y 0.000000 1.650380 0.000000 
#    z 0.000000 0.000000 1.689600 
# 
# From -- ./inp_files/4994.got.cif
#   From: 2010.05.17/outbox.cif.g08.bks.cpg/sg140_3_cif.got.tgz:4994.got - 2010.06.21 00:45:31.
