data_PCOD9572732
_publ_section_title
;
Structure prediction by ZEFSAII (Michael W. Deem and Ramdas Pophale) SiO2 
 PCOD9572732
Probable space group: I 41/A M D
;
_chemical_formula_sum "Si O2"
_cell_formula_units_Z 144
_cell_length_a 24.895445
_cell_length_b 24.895445
_cell_length_c 17.845929
_cell_angle_alpha 90.000000
_cell_angle_beta 90.000000
_cell_angle_gamma 90.000000
_cell_volume 11060.606657
_symmetry_space_group_name_H-M "I 41/A M D"
_symmetry_group_IT_number 141
_space_group.IT_coordinate_system_code '2'
_symmetry_cell_setting 'tetragonal'
loop_
_space_group_symop_operation_xyz
x,y,z
1/4-y,3/4+x,1/4+z
-x,1/2-y,z
1/4+y,1/4-x,3/4+z
x,-y,-z
-x,1/2+y,-z
1/4+y,3/4+x,1/4-z
1/4-y,1/4-x,3/4-z
-x,-y,-z
3/4+y,1/4-x,3/4-z
x,1/2+y,-z
3/4-y,3/4+x,1/4-z
-x,y,z
x,1/2-y,z
3/4-y,1/4-x,3/4+z
3/4+y,3/4+x,1/4+z
1/2+x,1/2+y,1/2+z
3/4-y,1/4+x,3/4+z
1/2-x,-y,1/2+z
3/4+y,3/4-x,1/4+z
1/2+x,1/2-y,1/2-z
1/2-x,y,1/2-z
3/4+y,1/4+x,3/4-z
3/4-y,3/4-x,1/4-z
1/2-x,1/2-y,1/2-z
1/4+y,3/4-x,1/4-z
1/2+x,y,1/2-z
1/4-y,1/4+x,3/4-z
1/2-x,1/2+y,1/2+z
1/2+x,-y,1/2+z
1/4-y,3/4-x,1/4+z
1/4+y,1/4+x,3/4+z
loop_
_atom_site_type_symbol
_atom_site_label
_atom_site_fract_x
_atom_site_fract_y
_atom_site_fract_z
Si Si1 0.256799 0.993202 0.375000
Si Si2 0.161924 0.476161 0.738291
Si Si3 0.854168 0.191430 0.854122
Si Si4 0.808939 0.142367 0.713771
Si Si5 0.738826 0.687688 0.064233
O O1 0.257107 0.047655 0.422525
O O2 0.263166 0.944146 0.433716
O O3 0.157564 0.412354 0.723314
O O4 0.105437 0.506543 0.747208
O O5 0.877873 0.250000 0.868326
O O6 0.894443 0.144443 0.875000
O O7 0.836145 0.185390 0.767997
O O8 0.798925 0.186778 0.900551
O O9 0.750000 0.129950 0.750000
O O10 0.799047 0.164513 0.630615
O O11 0.726057 0.750000 0.046641
#
# Coordination Sequence:
#
# PCOD9572732 Si02
#       5
#    16  32  32  32  32
#     4  10  18  24  42  64  86 108 141 169 226 248
#     4  11  16  27  41  63  84 113 135 181 208 261
#     4  10  18  26  36  51  74 109 147 178 204 230
#     4  10  16  25  40  54  80 107 140 176 208 243
#     4  10  19  28  40  58  81 112 143 170 208 253
#
# _framework density 13.019177000000001
#
# number of rings (size 3 to 8) (size 9 to 14) (size 15 to 20)
#    0.000    1.778    6.667    2.000    0.000    2.889 
#    0.000    0.000    0.000    0.000    0.000    3.111 
#    0.000    0.000    0.000    0.444    0.000    0.000 
#
# Total GULP energy -400839.727912 kJ/mol
# GULP energy per Si atom -5567.218443 kJ/mol
# Density = 1.298954 g / cm^3
# Si number density = 13.019177 Si / 1000 Ang^3
#
#
#
# Elastic Constant Matrix: (Units=GPa)
#
#
# Indices 1 2 3 4 5 6 
#
# 1 56.7604 6.5586 21.0788 0.0000 0.0000 0.0000
# 2 6.5586 56.7601 21.0798 0.0000 0.0000 0.0000
# 3 21.0788 21.0798 34.2467 0.0000 0.0000 0.0000
# 4 0.0000 0.0000 0.0000 13.2617 0.0000 0.0000
# 5 0.0000 0.0000 0.0000 0.0000 13.2616 0.0000
# 6 0.0000 0.0000 0.0000 0.0000 0.0000 12.1253
#
#
#
# Elastic Compliance Matrix: (Units=1/GPa)
#
#
# Indices 1 2 3 4 5 6 
#
# 1 0.023339 0.003420 -0.016470 0.000000 0.000000 0.000000
# 2 0.003420 0.023340 -0.016472 0.000000 0.000000 0.000000
# 3 -0.016470 -0.016472 0.049476 0.000000 0.000000 0.000000
# 4 0.000000 0.000000 0.000000 0.075405 0.000000 0.000000
# 5 0.000000 0.000000 0.000000 0.000000 0.075406 0.000000
# 6 0.000000 0.000000 0.000000 0.000000 0.000000 0.082472
#
#
# Mechanical properties :
#
#
# Convention : Reuss Voigt Hill
#
# Bulk Modulus (GPa) = 26.94572 27.24463 27.09518
# Shear Modulus (GPa) = 12.47340 14.33304 13.40322
#
# Velocity S-wave (km/s) = 3.09864 3.32161 3.21206
# Velocity P-wave (km/s) = 5.79172 5.97350 5.88331
#
# Compressibility (1/GPa) = 0.03711164
#
# Stress axis : x y z
#
# Youngs Moduli (GPa) = 42.84624 42.84474 20.21177
#
# Poissons Ratio (x) = -0.14653 0.33290
# Poissons Ratio (y) = -0.14654 0.33292
# Poissons Ratio (z) = 0.70570 0.70572
#
# Static dielectric constant tensor:
#      x y z
#    x 1.440960 0.000000 0.000000 
#    y 0.000000 1.440950 0.000000 
#    z 0.000000 0.000000 1.422920 
# 
# From -- ./inp_files/8780.got.cif
#   From: 2010.05.17/outbox.cif.g08.bks.cpg/sg141_5_cif.got.tgz:8780.got - 2010.05.20 13:30:51.
