data_PCOD9572287
_publ_section_title
;
Structure prediction by ZEFSAII (Michael W. Deem and Ramdas Pophale) SiO2 
 PCOD9572287
Probable space group: I 4/M C M
;
_chemical_formula_sum "Si O2"
_cell_formula_units_Z 192
_cell_length_a 19.461179
_cell_length_b 19.461179
_cell_length_c 23.476350
_cell_angle_alpha 90.000000
_cell_angle_beta 90.000000
_cell_angle_gamma 90.000000
_cell_volume 8891.373828
_symmetry_space_group_name_H-M "I 4/M C M"
_symmetry_group_IT_number 140
_symmetry_cell_setting 'tetragonal'
loop_
_space_group_symop_operation_xyz
x,y,z
-y,x,z
-x,-y,z
y,-x,z
x,-y,1/2-z
-x,y,1/2-z
y,x,1/2-z
-y,-x,1/2-z
-x,-y,-z
y,-x,-z
x,y,-z
-y,x,-z
-x,y,1/2+z
x,-y,1/2+z
-y,-x,1/2+z
y,x,1/2+z
1/2+x,1/2+y,1/2+z
1/2-y,1/2+x,1/2+z
1/2-x,1/2-y,1/2+z
1/2+y,1/2-x,1/2+z
1/2+x,1/2-y,-z
1/2-x,1/2+y,-z
1/2+y,1/2+x,-z
1/2-y,1/2-x,-z
1/2-x,1/2-y,1/2-z
1/2+y,1/2-x,1/2-z
1/2+x,1/2+y,1/2-z
1/2-y,1/2+x,1/2-z
1/2-x,1/2+y,z
1/2+x,1/2-y,z
1/2-y,1/2-x,z
1/2+y,1/2+x,z
loop_
_atom_site_type_symbol
_atom_site_label
_atom_site_fract_x
_atom_site_fract_y
_atom_site_fract_z
Si Si1 0.607458 0.466283 0.674144
Si Si2 0.683523 0.921040 0.380965
Si Si3 0.307626 0.498966 0.935000
Si Si4 0.344886 0.042640 0.194572
Si Si5 0.290615 0.356945 0.802952
Si Si6 0.364231 0.249491 0.879971
O O1 0.582273 0.542664 0.686412
O O2 0.633481 0.475002 0.608966
O O3 0.669361 0.428724 0.705771
O O4 0.631461 0.868540 0.409158
O O5 0.718204 0.882403 0.326629
O O6 0.743892 0.948734 0.420825
O O7 0.645208 0.987397 0.355631
O O8 0.279210 0.575953 0.920688
O O9 0.329255 0.494689 0.000000
O O10 0.411801 0.088200 0.205408
O O11 0.285458 0.093434 0.172156
O O12 0.325942 0.000000 0.250000
O O13 0.306838 0.306838 0.750000
O O14 0.322703 0.313880 0.855438
O O15 0.309770 0.190231 0.900086
#
# Coordination Sequence:
#
# PCOD9572287 Si02
#       6
#    32  32  32  32  32  32
#     4  10  21  40  61  88 122 153 196 243 295 357
#     4  10  22  38  56  86 123 155 198 251 297 351
#     4  10  22  41  63  86 115 154 202 253 304 357
#     4  10  20  34  56  84 116 155 198 240 290 350
#     4  11  22  37  61  88 123 164 199 236 291 360
#     4  10  21  39  59  84 119 156 198 248 297 356
#
# _framework density 21.593964
#
# number of rings (size 3 to 8) (size 9 to 14) (size 15 to 20)
#    0.000    1.833    1.667    2.000    0.000    5.833 
#    0.000    1.667    0.000    2.000    0.000    4.667 
#    0.000    0.000    0.000    0.000    0.000    0.000 
#
# Total GULP energy -535860.347954 kJ/mol
# GULP energy per Si atom -5581.878625 kJ/mol
# Density = 2.154482 g / cm^3
# Si number density = 21.593964 Si / 1000 Ang^3
#
#
#
# Elastic Constant Matrix: (Units=GPa)
#
#
# Indices 1 2 3 4 5 6 
#
# 1 73.8250 60.2446 7.1182 0.0000 0.0000 0.0000
# 2 60.2446 73.8250 7.1182 0.0000 0.0000 0.0000
# 3 7.1182 7.1182 66.3104 0.0000 0.0000 0.0000
# 4 0.0000 0.0000 0.0000 3.9890 0.0000 0.0000
# 5 0.0000 0.0000 0.0000 0.0000 3.9890 0.0000
# 6 0.0000 0.0000 0.0000 0.0000 0.0000 36.0594
#
#
#
# Elastic Compliance Matrix: (Units=1/GPa)
#
#
# Indices 1 2 3 4 5 6 
#
# 1 0.040590 -0.033045 -0.000810 0.000000 0.000000 0.000000
# 2 -0.033045 0.040590 -0.000810 0.000000 0.000000 0.000000
# 3 -0.000810 -0.000810 0.015254 0.000000 0.000000 0.000000
# 4 0.000000 0.000000 0.000000 0.250688 0.000000 0.000000
# 5 0.000000 0.000000 0.000000 0.000000 0.250688 0.000000
# 6 0.000000 0.000000 0.000000 0.000000 0.000000 0.027732
#
#
# Mechanical properties :
#
#
# Convention : Reuss Voigt Hill
#
# Bulk Modulus (GPa) = 36.89431 40.32474 38.60953
# Shear Modulus (GPa) = 7.10319 18.10611 12.60465
#
# Velocity S-wave (km/s) = 1.81565 2.89879 2.41863
# Velocity P-wave (km/s) = 4.63875 5.46979 5.07132
#
# Compressibility (1/GPa) = 0.02710445
#
# Stress axis : x y z
#
# Youngs Moduli (GPa) = 24.63651 24.63651 65.55450
#
# Poissons Ratio (x) = 0.81412 0.05309
# Poissons Ratio (y) = 0.81412 0.05309
# Poissons Ratio (z) = 0.01995 0.01995
#
# Static dielectric constant tensor:
#      x y z
#    x 1.795990 0.000000 0.000000 
#    y 0.000000 1.795990 0.000000 
#    z 0.000000 0.000000 1.793930 
# 
# From -- ./inp_files/9780.got.cif
#   From: 2010.05.17/outbox.cif.g08.bks.cpg/sg140_5_cif.got.tgz:9780.got - 2010.06.21 00:45:31.
