data_PCOD9572937
_publ_section_title
;
Structure prediction by ZEFSAII (Michael W. Deem and Ramdas Pophale) SiO2 
 PCOD9572937
Probable space group: I 41/A M D
;
_chemical_formula_sum "Si O2"
_cell_formula_units_Z 128
_cell_length_a 13.848634
_cell_length_b 13.848634
_cell_length_c 28.186800
_cell_angle_alpha 90.000000
_cell_angle_beta 90.000000
_cell_angle_gamma 90.000000
_cell_volume 5405.795958
_symmetry_space_group_name_H-M "I 41/A M D"
_symmetry_group_IT_number 141
_space_group.IT_coordinate_system_code '2'
_symmetry_cell_setting 'tetragonal'
loop_
_space_group_symop_operation_xyz
x,y,z
1/4-y,3/4+x,1/4+z
-x,1/2-y,z
1/4+y,1/4-x,3/4+z
x,-y,-z
-x,1/2+y,-z
1/4+y,3/4+x,1/4-z
1/4-y,1/4-x,3/4-z
-x,-y,-z
3/4+y,1/4-x,3/4-z
x,1/2+y,-z
3/4-y,3/4+x,1/4-z
-x,y,z
x,1/2-y,z
3/4-y,1/4-x,3/4+z
3/4+y,3/4+x,1/4+z
1/2+x,1/2+y,1/2+z
3/4-y,1/4+x,3/4+z
1/2-x,-y,1/2+z
3/4+y,3/4-x,1/4+z
1/2+x,1/2-y,1/2-z
1/2-x,y,1/2-z
3/4+y,1/4+x,3/4-z
3/4-y,3/4-x,1/4-z
1/2-x,1/2-y,1/2-z
1/4+y,3/4-x,1/4-z
1/2+x,y,1/2-z
1/4-y,1/4+x,3/4-z
1/2-x,1/2+y,1/2+z
1/2+x,-y,1/2+z
1/4-y,3/4-x,1/4+z
1/4+y,1/4+x,3/4+z
loop_
_atom_site_type_symbol
_atom_site_label
_atom_site_fract_x
_atom_site_fract_y
_atom_site_fract_z
Si Si1 0.223682 0.633260 0.374923
Si Si2 0.144211 0.858452 0.272333
Si Si3 0.886401 0.365910 0.324698
Si Si4 0.691111 0.642376 0.021475
O O1 0.240924 0.750000 0.375265
O O2 0.323102 0.573102 0.375000
O O3 0.159526 0.614932 0.327873
O O4 0.176608 0.605680 0.425437
O O5 0.102997 0.750000 0.269409
O O6 0.250000 0.851875 0.250000
O O7 0.100252 0.945160 0.241818
O O8 0.846815 0.403186 0.375000
O O9 0.884112 0.250000 0.326093
O O10 0.842271 0.399633 0.275352
O O11 0.000000 0.395521 0.323879
O O12 0.647669 0.750000 0.022801
#
# Coordination Sequence:
#
# PCOD9572937 Si02
#       4
#    32  32  32  32
#     4  10  20  34  51  75 103 135 178 222 269 323
#     4  10  20  35  52  73 104 139 175 217 269 321
#     4   8  15  31  55  81 109 140 174 217 269 324
#     4  10  20  34  55  81 105 136 182 223 264 324
#
# _framework density 23.678290000000001
#
# number of rings (size 3 to 8) (size 9 to 14) (size 15 to 20)
#    0.000    2.500    2.500    0.750    0.000    1.750 
#    0.000    3.750    0.000    5.250    0.000    0.000 
#    0.000    0.000    0.000    0.000    0.000    0.000 
#
# Total GULP energy -356942.162515 kJ/mol
# GULP energy per Si atom -5577.221289 kJ/mol
# Density = 2.362440 g / cm^3
# Si number density = 23.678290 Si / 1000 Ang^3
#
#
#
# Elastic Constant Matrix: (Units=GPa)
#
#
# Indices 1 2 3 4 5 6 
#
# 1 43.0039 -15.8344 12.6039 0.0000 0.0000 0.0000
# 2 -15.8344 43.0047 12.6044 0.0000 0.0000 0.0000
# 3 12.6039 12.6044 236.0440 0.0000 0.0000 0.0000
# 4 0.0000 0.0000 0.0000 24.1633 0.0000 0.0000
# 5 0.0000 0.0000 0.0000 0.0000 24.1634 0.0000
# 6 0.0000 0.0000 0.0000 0.0000 0.0000 20.0644
#
#
#
# Elastic Compliance Matrix: (Units=1/GPa)
#
#
# Indices 1 2 3 4 5 6 
#
# 1 0.027860 0.010864 -0.002068 0.000000 0.000000 0.000000
# 2 0.010864 0.027860 -0.002068 0.000000 0.000000 0.000000
# 3 -0.002068 -0.002068 0.004457 0.000000 0.000000 0.000000
# 4 0.000000 0.000000 0.000000 0.041385 0.000000 0.000000
# 5 0.000000 0.000000 0.000000 0.000000 0.041385 0.000000
# 6 0.000000 0.000000 0.000000 0.000000 0.000000 0.049840
#
#
# Mechanical properties :
#
#
# Convention : Reuss Voigt Hill
#
# Bulk Modulus (GPa) = 13.58066 37.86673 25.72370
# Shear Modulus (GPa) = 24.52498 34.52347 29.52423
#
# Velocity S-wave (km/s) = 3.22181 3.82255 3.53496
# Velocity P-wave (km/s) = 4.42584 5.95898 5.24869
#
# Compressibility (1/GPa) = 0.07363410
#
# Stress axis : x y z
#
# Youngs Moduli (GPa) = 35.89374 35.89438 224.34983
#
# Poissons Ratio (x) = -0.38996 0.46390
# Poissons Ratio (y) = -0.38996 0.46390
# Poissons Ratio (z) = 0.07422 0.07422
#
# Static dielectric constant tensor:
#      x y z
#    x 1.924030 0.000000 0.000000 
#    y 0.000000 1.924030 0.000000 
#    z 0.000000 0.000000 1.940100 
# 
# From -- ./inp_files/11353.got.cif
#   From: 2010.05.17/outbox.cif.g08.bks.cpg/sg141_6_cif.got.tgz:11353.got - 2010.05.20 13:30:51.
