data_PCOD9572836
_publ_section_title
;
Structure prediction by ZEFSAII (Michael W. Deem and Ramdas Pophale) SiO2 
 PCOD9572836
Probable space group: I 41/A M D
;
_chemical_formula_sum "Si O2"
_cell_formula_units_Z 128
_cell_length_a 21.162670
_cell_length_b 21.162670
_cell_length_c 16.245433
_cell_angle_alpha 90.000000
_cell_angle_beta 90.000000
_cell_angle_gamma 90.000000
_cell_volume 7275.656905
_symmetry_space_group_name_H-M "I 41/A M D"
_symmetry_group_IT_number 141
_space_group.IT_coordinate_system_code '2'
_symmetry_cell_setting 'tetragonal'
loop_
_space_group_symop_operation_xyz
x,y,z
1/4-y,3/4+x,1/4+z
-x,1/2-y,z
1/4+y,1/4-x,3/4+z
x,-y,-z
-x,1/2+y,-z
1/4+y,3/4+x,1/4-z
1/4-y,1/4-x,3/4-z
-x,-y,-z
3/4+y,1/4-x,3/4-z
x,1/2+y,-z
3/4-y,3/4+x,1/4-z
-x,y,z
x,1/2-y,z
3/4-y,1/4-x,3/4+z
3/4+y,3/4+x,1/4+z
1/2+x,1/2+y,1/2+z
3/4-y,1/4+x,3/4+z
1/2-x,-y,1/2+z
3/4+y,3/4-x,1/4+z
1/2+x,1/2-y,1/2-z
1/2-x,y,1/2-z
3/4+y,1/4+x,3/4-z
3/4-y,3/4-x,1/4-z
1/2-x,1/2-y,1/2-z
1/4+y,3/4-x,1/4-z
1/2+x,y,1/2-z
1/4-y,1/4+x,3/4-z
1/2-x,1/2+y,1/2+z
1/2+x,-y,1/2+z
1/4-y,3/4-x,1/4+z
1/4+y,1/4+x,3/4+z
loop_
_atom_site_type_symbol
_atom_site_label
_atom_site_fract_x
_atom_site_fract_y
_atom_site_fract_z
Si Si1 0.322179 0.529530 0.730180
Si Si2 0.359281 0.939160 0.543789
Si Si3 0.925782 0.377786 0.292026
Si Si4 0.930207 0.174986 0.637537
O O1 0.250000 0.550500 0.750000
O O2 0.337869 0.542225 0.635608
O O3 0.324510 0.455068 0.745463
O O4 0.375456 0.565175 0.783692
O O5 0.398600 0.875608 0.555923
O O6 0.390619 0.000000 0.500000
O O7 0.910336 0.339665 0.375000
O O8 0.914420 0.337158 0.208807
O O9 0.000000 0.396862 0.291711
O O10 0.932035 0.250000 0.648369
O O11 0.000000 0.148504 0.654890
#
# Coordination Sequence:
#
# PCOD9572836 Si02
#       4
#    32  32  32  32
#     4  10  19  33  51  73 102 133 166 206 254 302
#     4  10  19  32  53  75  97 130 168 208 253 302
#     4  10  19  31  50  76 105 137 171 204 242 297
#     4   9  19  34  50  71 100 133 167 206 256 306
#
# _framework density 17.592912999999999
#
# number of rings (size 3 to 8) (size 9 to 14) (size 15 to 20)
#    0.000    2.250    0.000    5.250    0.000    2.750 
#    0.000    0.000    0.000   12.750    0.000    7.000 
#    0.000    0.000    0.000    0.000    0.000    0.000 
#
# Total GULP energy -356697.426237 kJ/mol
# GULP energy per Si atom -5573.397285 kJ/mol
# Density = 1.755287 g / cm^3
# Si number density = 17.592913 Si / 1000 Ang^3
#
#
#
# Elastic Constant Matrix: (Units=GPa)
#
#
# Indices 1 2 3 4 5 6 
#
# 1 89.9188 57.8388 19.5389 0.0000 0.0000 0.0000
# 2 57.8388 89.9194 19.5394 0.0000 0.0000 0.0000
# 3 19.5389 19.5394 27.9349 0.0000 0.0000 0.0000
# 4 0.0000 0.0000 0.0000 23.5410 0.0000 0.0000
# 5 0.0000 0.0000 0.0000 0.0000 23.5418 0.0000
# 6 0.0000 0.0000 0.0000 0.0000 0.0000 29.5257
#
#
#
# Elastic Compliance Matrix: (Units=1/GPa)
#
#
# Indices 1 2 3 4 5 6 
#
# 1 0.019738 -0.011434 -0.005808 0.000000 0.000000 0.000000
# 2 -0.011434 0.019738 -0.005809 0.000000 0.000000 0.000000
# 3 -0.005808 -0.005809 0.043923 0.000000 0.000000 0.000000
# 4 0.000000 0.000000 0.000000 0.042479 0.000000 0.000000
# 5 0.000000 0.000000 0.000000 0.000000 0.042478 0.000000
# 6 0.000000 0.000000 0.000000 0.000000 0.000000 0.033869
#
#
# Mechanical properties :
#
#
# Convention : Reuss Voigt Hill
#
# Bulk Modulus (GPa) = 26.81128 44.62302 35.71715
# Shear Modulus (GPa) = 19.17493 22.71211 20.94352
#
# Velocity S-wave (km/s) = 3.30498 3.59692 3.45404
# Velocity P-wave (km/s) = 5.46230 6.53221 6.02107
#
# Compressibility (1/GPa) = 0.03729774
#
# Stress axis : x y z
#
# Youngs Moduli (GPa) = 50.66413 50.66404 22.76726
#
# Poissons Ratio (x) = 0.57929 0.13223
# Poissons Ratio (y) = 0.57929 0.13224
# Poissons Ratio (z) = 0.29425 0.29428
#
# Static dielectric constant tensor:
#      x y z
#    x 1.614480 0.000000 0.000000 
#    y 0.000000 1.614480 0.000000 
#    z 0.000000 0.000000 1.633780 
# 
# From -- ./inp_files/8231.got.cif
#   From: 2010.05.17/outbox.cif.g08.bks.cpg/sg141_5_cif.got.tgz:8231.got - 2010.05.20 13:30:51.
