data_PCOD9572631
_publ_section_title
;
Structure prediction by ZEFSAII (Michael W. Deem and Ramdas Pophale) SiO2 
 PCOD9572631
Probable space group: I 4/M C M
;
_chemical_formula_sum "Si O2"
_cell_formula_units_Z 176
_cell_length_a 22.429685
_cell_length_b 22.429685
_cell_length_c 17.508950
_cell_angle_alpha 90.000000
_cell_angle_beta 90.000000
_cell_angle_gamma 90.000000
_cell_volume 8808.591123
_symmetry_space_group_name_H-M "I 4/M C M"
_symmetry_group_IT_number 140
_symmetry_cell_setting 'tetragonal'
loop_
_space_group_symop_operation_xyz
x,y,z
-y,x,z
-x,-y,z
y,-x,z
x,-y,1/2-z
-x,y,1/2-z
y,x,1/2-z
-y,-x,1/2-z
-x,-y,-z
y,-x,-z
x,y,-z
-y,x,-z
-x,y,1/2+z
x,-y,1/2+z
-y,-x,1/2+z
y,x,1/2+z
1/2+x,1/2+y,1/2+z
1/2-y,1/2+x,1/2+z
1/2-x,1/2-y,1/2+z
1/2+y,1/2-x,1/2+z
1/2+x,1/2-y,-z
1/2-x,1/2+y,-z
1/2+y,1/2+x,-z
1/2-y,1/2-x,-z
1/2-x,1/2-y,1/2-z
1/2+y,1/2-x,1/2-z
1/2+x,1/2+y,1/2-z
1/2-y,1/2+x,1/2-z
1/2-x,1/2+y,z
1/2+x,1/2-y,z
1/2-y,1/2-x,z
1/2+y,1/2+x,z
loop_
_atom_site_type_symbol
_atom_site_label
_atom_site_fract_x
_atom_site_fract_y
_atom_site_fract_z
Si Si1 0.857615 0.458872 0.913561
Si Si2 0.548484 0.048484 0.906835
Si Si3 0.029873 0.859274 0.827202
Si Si4 0.065085 0.729133 0.782011
Si Si5 0.331048 0.262416 0.681732
Si Si6 0.909419 0.856709 0.090722
O O1 0.912545 0.412545 0.917039
O O2 0.887305 0.521430 0.885611
O O3 0.809100 0.430679 0.858371
O O4 0.834964 0.467253 0.000000
O O5 0.500000 0.000000 0.878916
O O6 0.547457 0.047457 0.000000
O O7 0.062988 0.799460 0.800007
O O8 0.078791 0.897676 0.870836
O O9 0.000000 0.885576 0.750000
O O10 0.976073 0.840391 0.882575
O O11 0.117893 0.722337 0.721831
O O12 0.000000 0.714303 0.750000
O O13 0.299158 0.299158 0.750000
O O14 0.280690 0.219311 0.646743
O O15 0.363545 0.308473 0.625370
O O16 0.904345 0.860024 0.000000
#
# Coordination Sequence:
#
# PCOD9572631 Si02
#       6
#    32  16  32  32  32  32
#     4   9  18  34  56  82 114 153 202 259 312 364
#     4   7  12  28  52  74 106 150 188 239 315 373
#     4  11  22  43  69  90 126 168 210 248 319 384
#     4  11  21  38  61  85 120 161 211 254 305 371
#     4  11  22  42  67  90 124 173 217 256 309 377
#     4  12  24  42  67 100 132 163 208 266 322 380
#
# _framework density 19.980494
#
# number of rings (size 3 to 8) (size 9 to 14) (size 15 to 20)
#    0.000    1.545    5.455    2.727    0.000    2.182 
#    3.273    1.818    0.000    0.000    0.000    0.000 
#    0.000    0.000    0.000    0.000    0.000    0.000 
#
# Total GULP energy -490916.707984 kJ/mol
# GULP energy per Si atom -5578.598954 kJ/mol
# Density = 1.993502 g / cm^3
# Si number density = 19.980494 Si / 1000 Ang^3
#
#
#
# Elastic Constant Matrix: (Units=GPa)
#
#
# Indices 1 2 3 4 5 6 
#
# 1 54.0279 28.1683 30.1940 0.0000 0.0000 0.0000
# 2 28.1683 54.0279 30.1940 0.0000 0.0000 0.0000
# 3 30.1940 30.1940 105.6733 0.0000 0.0000 0.0000
# 4 0.0000 0.0000 0.0000 15.8877 0.0000 0.0000
# 5 0.0000 0.0000 0.0000 0.0000 15.8877 0.0000
# 6 0.0000 0.0000 0.0000 0.0000 0.0000 27.2574
#
#
#
# Elastic Compliance Matrix: (Units=1/GPa)
#
#
# Indices 1 2 3 4 5 6 
#
# 1 0.027034 -0.011636 -0.004400 0.000000 0.000000 0.000000
# 2 -0.011636 0.027034 -0.004400 0.000000 0.000000 0.000000
# 3 -0.004400 -0.004400 0.011977 0.000000 0.000000 0.000000
# 4 0.000000 0.000000 0.000000 0.062942 0.000000 0.000000
# 5 0.000000 0.000000 0.000000 0.000000 0.062942 0.000000
# 6 0.000000 0.000000 0.000000 0.000000 0.000000 0.036687
#
#
# Mechanical properties :
#
#
# Convention : Reuss Voigt Hill
#
# Bulk Modulus (GPa) = 39.72170 43.42685 41.57428
# Shear Modulus (GPa) = 17.99342 20.15145 19.07243
#
# Velocity S-wave (km/s) = 3.00417 3.17922 3.09294
# Velocity P-wave (km/s) = 5.65303 5.93788 5.79721
#
# Compressibility (1/GPa) = 0.02517516
#
# Stress axis : x y z
#
# Youngs Moduli (GPa) = 36.98994 36.98994 83.49041
#
# Poissons Ratio (x) = 0.43041 0.36734
# Poissons Ratio (y) = 0.43041 0.36734
# Poissons Ratio (z) = 0.16275 0.16275
#
# Static dielectric constant tensor:
#      x y z
#    x 1.724300 0.000000 0.000000 
#    y 0.000000 1.724300 0.000000 
#    z 0.000000 0.000000 1.693180 
# 
# From -- ./inp_files/4894.got.cif
#   From: 2010.05.17/outbox.cif.g08.bks.cpg/sg140_3_cif.got.tgz:4894.got - 2010.06.21 00:45:31.
