data_PCOD9572277
_publ_section_title
;
Structure prediction by ZEFSAII (Michael W. Deem and Ramdas Pophale) SiO2 
 PCOD9572277
Probable space group: I 4/M C M
;
_chemical_formula_sum "Si O2"
_cell_formula_units_Z 160
_cell_length_a 31.001942
_cell_length_b 31.001942
_cell_length_c 8.675738
_cell_angle_alpha 90.000000
_cell_angle_beta 90.000000
_cell_angle_gamma 90.000000
_cell_volume 8338.428844
_symmetry_space_group_name_H-M "I 4/M C M"
_symmetry_group_IT_number 140
_symmetry_cell_setting 'tetragonal'
loop_
_space_group_symop_operation_xyz
x,y,z
-y,x,z
-x,-y,z
y,-x,z
x,-y,1/2-z
-x,y,1/2-z
y,x,1/2-z
-y,-x,1/2-z
-x,-y,-z
y,-x,-z
x,y,-z
-y,x,-z
-x,y,1/2+z
x,-y,1/2+z
-y,-x,1/2+z
y,x,1/2+z
1/2+x,1/2+y,1/2+z
1/2-y,1/2+x,1/2+z
1/2-x,1/2-y,1/2+z
1/2+y,1/2-x,1/2+z
1/2+x,1/2-y,-z
1/2-x,1/2+y,-z
1/2+y,1/2+x,-z
1/2-y,1/2-x,-z
1/2-x,1/2-y,1/2-z
1/2+y,1/2-x,1/2-z
1/2+x,1/2+y,1/2-z
1/2-y,1/2+x,1/2-z
1/2-x,1/2+y,z
1/2+x,1/2-y,z
1/2-y,1/2-x,z
1/2+y,1/2+x,z
loop_
_atom_site_type_symbol
_atom_site_label
_atom_site_fract_x
_atom_site_fract_y
_atom_site_fract_z
Si Si1 0.709047 0.548044 0.185561
Si Si2 0.885420 0.614580 0.317741
Si Si3 0.882543 0.950925 0.814679
Si Si4 0.547174 0.952827 0.316519
Si Si5 0.790973 0.605257 0.818597
Si Si6 0.256073 0.316468 0.327237
O O1 0.712195 0.500000 0.250000
O O2 0.664474 0.565749 0.257383
O O3 0.753492 0.571842 0.227163
O O4 0.704982 0.548468 0.000000
O O5 0.889909 0.610092 0.500000
O O6 0.917906 0.582095 0.234420
O O7 0.836247 0.603899 0.269512
O O8 0.919976 0.919976 0.750000
O O9 0.887325 0.000000 0.750000
O O10 0.883555 0.952167 0.000000
O O11 0.500000 0.941518 0.250000
O O12 0.544551 0.955450 0.500000
O O13 0.768611 0.650595 0.781369
O O14 0.799817 0.600682 0.000000
O O15 0.299736 0.299736 0.250000
O O16 0.262601 0.334145 0.500000
O O17 0.224362 0.275639 0.342400
#
# Coordination Sequence:
#
# PCOD9572277 Si02
#       6
#    32  16  32  16  32  32
#     4  10  22  40  61  86 116 156 200 245 298 354
#     4  12  25  41  63  93 127 163 204 251 305 363
#     4  11  22  39  63  91 124 161 203 252 306 364
#     4  11  23  44  71  99 129 161 198 243 299 363
#     4  11  23  39  60  86 120 158 201 252 304 358
#     4  10  20  34  54  80 110 148 190 235 289 345
#
# _framework density 19.188265999999999
#
# number of rings (size 3 to 8) (size 9 to 14) (size 15 to 20)
#    0.000    1.300    1.000    6.900    0.000    5.800 
#    0.000    3.000    0.000    0.000    0.000    0.000 
#    0.000    0.000    0.000    0.000    0.000    0.000 
#
# Total GULP energy -446794.305073 kJ/mol
# GULP energy per Si atom -5584.928813 kJ/mol
# Density = 1.914459 g / cm^3
# Si number density = 19.188266 Si / 1000 Ang^3
#
#
#
# Elastic Constant Matrix: (Units=GPa)
#
#
# Indices 1 2 3 4 5 6 
#
# 1 2.6388 167.9003 47.8027 0.0000 0.0000 0.0000
# 2 167.9003 2.6234 47.7959 0.0000 0.0000 0.0000
# 3 47.8027 47.7959 115.2764 0.0000 0.0000 0.0000
# 4 0.0000 0.0000 0.0000 21.3655 0.0000 0.0000
# 5 0.0000 0.0000 0.0000 0.0000 21.3649 0.0000
# 6 0.0000 0.0000 0.0000 0.0000 0.0000 33.6437
#
#
#
# Elastic Compliance Matrix: (Units=1/GPa)
#
#
# Indices 1 2 3 4 5 6 
#
# 1 0.000795 0.006845 -0.003168 0.000000 0.000000 0.000000
# 2 0.006845 0.000794 -0.003168 0.000000 0.000000 0.000000
# 3 -0.003168 -0.003168 0.011302 0.000000 0.000000 0.000000
# 4 0.000000 0.000000 0.000000 0.046804 0.000000 0.000000
# 5 0.000000 0.000000 0.000000 0.000000 0.046806 0.000000
# 6 0.000000 0.000000 0.000000 0.000000 0.000000 0.029723
#
#
# Mechanical properties :
#
#
# Convention : Reuss Voigt Hill
#
# Bulk Modulus (GPa) = 71.88963 71.94849 71.91906
# Shear Modulus (GPa) = 35.75459 5.74414 20.74937
#
# Velocity S-wave (km/s) = 4.32135 1.73207 3.29197
# Velocity P-wave (km/s) = 7.90224 6.44807 7.21190
#
# Compressibility (1/GPa) = 0.01391021
#
# Stress axis : x y z
#
# Youngs Moduli (GPa) = 1258.15425 1258.87116 88.48047
#
# Poissons Ratio (x) = -8.61738 0.28029
# Poissons Ratio (y) = -8.61247 0.28030
# Poissons Ratio (z) = 3.98558 3.98807
#
# Static dielectric constant tensor:
#      x y z
#    x 1.675190 0.000000 0.000000 
#    y 0.000000 1.675190 0.000000 
#    z 0.000000 0.000000 1.665870 
# 
# From -- ./inp_files/1841.got.cif
#   From: 2010.05.17/outbox.cif.g08.bks.cpg/sg140_1_cif.got.tgz:1841.got - 2010.06.21 00:45:31.
