data_PCOD9572120
_publ_section_title
;
Structure prediction by ZEFSAII (Michael W. Deem and Ramdas Pophale) SiO2 
 PCOD9572120
Probable space group: I 4/M C M
;
_chemical_formula_sum "Si O2"
_cell_formula_units_Z 144
_cell_length_a 23.521418
_cell_length_b 23.521418
_cell_length_c 16.128495
_cell_angle_alpha 90.000000
_cell_angle_beta 90.000000
_cell_angle_gamma 90.000000
_cell_volume 8923.204447
_symmetry_space_group_name_H-M "I 4/M C M"
_symmetry_group_IT_number 140
_symmetry_cell_setting 'tetragonal'
loop_
_space_group_symop_operation_xyz
x,y,z
-y,x,z
-x,-y,z
y,-x,z
x,-y,1/2-z
-x,y,1/2-z
y,x,1/2-z
-y,-x,1/2-z
-x,-y,-z
y,-x,-z
x,y,-z
-y,x,-z
-x,y,1/2+z
x,-y,1/2+z
-y,-x,1/2+z
y,x,1/2+z
1/2+x,1/2+y,1/2+z
1/2-y,1/2+x,1/2+z
1/2-x,1/2-y,1/2+z
1/2+y,1/2-x,1/2+z
1/2+x,1/2-y,-z
1/2-x,1/2+y,-z
1/2+y,1/2+x,-z
1/2-y,1/2-x,-z
1/2-x,1/2-y,1/2-z
1/2+y,1/2-x,1/2-z
1/2+x,1/2+y,1/2-z
1/2-y,1/2+x,1/2-z
1/2-x,1/2+y,z
1/2+x,1/2-y,z
1/2-y,1/2-x,z
1/2+y,1/2+x,z
loop_
_atom_site_type_symbol
_atom_site_label
_atom_site_fract_x
_atom_site_fract_y
_atom_site_fract_z
Si Si1 0.826235 0.673766 0.904241
Si Si2 0.593924 0.509609 0.000000
Si Si3 0.853218 0.823373 0.345125
Si Si4 0.763178 0.263178 0.846811
Si Si5 0.585519 0.262386 0.902269
Si Si6 0.512082 0.330962 0.342278
O O1 0.777856 0.722145 0.899075
O O2 0.793468 0.618960 0.869205
O O3 0.838784 0.661217 0.000000
O O4 0.549171 0.559904 0.000000
O O5 0.629805 0.510602 0.083724
O O6 0.840149 0.840149 0.250000
O O7 0.825903 0.761174 0.362109
O O8 0.815744 0.870481 0.393621
O O9 0.920703 0.823732 0.356578
O O10 0.750000 0.250000 0.750000
O O11 0.528288 0.275958 0.852500
O O12 0.573435 0.255367 0.000000
O O13 0.500000 0.354267 0.250000
#
# Coordination Sequence:
#
# PCOD9572120 Si02
#       6
#    16  16  32  16  32  32
#     4   8  16  30  50  68  94 117 154 204 247 300
#     4  11  26  40  50  64  90 134 178 217 250 284
#     4  10  19  32  50  70  95 128 161 207 249 300
#     4   8  16  30  48  70  92 119 158 194 253 307
#     4  10  19  33  49  72  94 127 164 203 251 294
#     4  12  23  34  51  73  98 128 168 210 252 298
#
# _framework density 16.137701
#
# number of rings (size 3 to 8) (size 9 to 14) (size 15 to 20)
#    0.000    1.889    3.333    1.333    1.556    0.000 
#    0.000    1.111    0.000    0.000    0.000    0.000 
#    0.000    0.889    0.000    6.000    0.000    0.889 
#
# Total GULP energy -400904.586862 kJ/mol
# GULP energy per Si atom -5568.119262 kJ/mol
# Density = 1.610097 g / cm^3
# Si number density = 16.137701 Si / 1000 Ang^3
#
#
#
# Elastic Constant Matrix: (Units=GPa)
#
#
# Indices 1 2 3 4 5 6 
#
# 1 64.6694 34.2415 3.2685 0.0000 0.0000 0.0000
# 2 34.2415 64.6690 3.2686 0.0000 0.0000 0.0000
# 3 3.2685 3.2686 65.6093 0.0000 0.0000 0.0000
# 4 0.0000 0.0000 0.0000 7.3244 0.0000 0.0000
# 5 0.0000 0.0000 0.0000 0.0000 7.3244 0.0000
# 6 0.0000 0.0000 0.0000 0.0000 0.0000 151.9118
#
#
#
# Elastic Compliance Matrix: (Units=1/GPa)
#
#
# Indices 1 2 3 4 5 6 
#
# 1 0.021504 -0.011361 -0.000505 0.000000 0.000000 0.000000
# 2 -0.011361 0.021504 -0.000505 0.000000 0.000000 0.000000
# 3 -0.000505 -0.000505 0.015292 0.000000 0.000000 0.000000
# 4 0.000000 0.000000 0.000000 0.136530 0.000000 0.000000
# 5 0.000000 0.000000 0.000000 0.000000 0.136531 0.000000
# 6 0.000000 0.000000 0.000000 0.000000 0.000000 0.006583
#
#
# Mechanical properties :
#
#
# Convention : Reuss Voigt Hill
#
# Bulk Modulus (GPa) = 29.79931 30.72276 30.26104
# Shear Modulus (GPa) = 13.37356 43.59006 28.48181
#
# Velocity S-wave (km/s) = 2.88186 5.20288 4.20566
# Velocity P-wave (km/s) = 5.43868 7.42782 6.50968
#
# Compressibility (1/GPa) = 0.03355782
#
# Stress axis : x y z
#
# Youngs Moduli (GPa) = 46.50279 46.50249 65.39324
#
# Poissons Ratio (x) = 0.52830 0.03304
# Poissons Ratio (y) = 0.52830 0.03305
# Poissons Ratio (z) = 0.02350 0.02350
#
# Static dielectric constant tensor:
#      x y z
#    x 1.570850 0.000000 0.000000 
#    y 0.000000 1.570850 0.000000 
#    z 0.000000 0.000000 1.647080 
# 
# From -- ./inp_files/7056.got.cif
#   From: 2010.05.17/outbox.cif.g08.bks.cpg/sg140_4_cif.got.tgz:7056.got - 2010.06.21 00:45:31.
