data_PCOD9572887
_publ_section_title
;
Structure prediction by ZEFSAII (Michael W. Deem and Ramdas Pophale) SiO2 
 PCOD9572887
Probable space group: I 41/A M D
;
_chemical_formula_sum "Si O2"
_cell_formula_units_Z 160
_cell_length_a 26.535387
_cell_length_b 26.535387
_cell_length_c 11.929029
_cell_angle_alpha 90.000000
_cell_angle_beta 90.000000
_cell_angle_gamma 90.000000
_cell_volume 8399.548578
_symmetry_space_group_name_H-M "I 41/A M D"
_symmetry_group_IT_number 141
_space_group.IT_coordinate_system_code '2'
_symmetry_cell_setting 'tetragonal'
loop_
_space_group_symop_operation_xyz
x,y,z
1/4-y,3/4+x,1/4+z
-x,1/2-y,z
1/4+y,1/4-x,3/4+z
x,-y,-z
-x,1/2+y,-z
1/4+y,3/4+x,1/4-z
1/4-y,1/4-x,3/4-z
-x,-y,-z
3/4+y,1/4-x,3/4-z
x,1/2+y,-z
3/4-y,3/4+x,1/4-z
-x,y,z
x,1/2-y,z
3/4-y,1/4-x,3/4+z
3/4+y,3/4+x,1/4+z
1/2+x,1/2+y,1/2+z
3/4-y,1/4+x,3/4+z
1/2-x,-y,1/2+z
3/4+y,3/4-x,1/4+z
1/2+x,1/2-y,1/2-z
1/2-x,y,1/2-z
3/4+y,1/4+x,3/4-z
3/4-y,3/4-x,1/4-z
1/2-x,1/2-y,1/2-z
1/4+y,3/4-x,1/4-z
1/2+x,y,1/2-z
1/4-y,1/4+x,3/4-z
1/2-x,1/2+y,1/2+z
1/2+x,-y,1/2+z
1/4-y,3/4-x,1/4+z
1/4+y,1/4+x,3/4+z
loop_
_atom_site_type_symbol
_atom_site_label
_atom_site_fract_x
_atom_site_fract_y
_atom_site_fract_z
Si Si1 0.626133 0.162632 0.801195
Si Si2 0.440130 0.531156 0.677269
Si Si3 0.836687 0.693695 0.067993
Si Si4 0.799823 0.310716 0.312094
Si Si5 0.941137 0.661977 0.500905
O O1 0.682063 0.157839 0.850394
O O2 0.596866 0.112619 0.761955
O O3 0.633781 0.192937 0.685884
O O4 0.592790 0.185404 0.902456
O O5 0.500000 0.540651 0.654374
O O6 0.432083 0.471853 0.661169
O O7 0.429596 0.545003 0.806067
O O8 0.838995 0.750000 0.017854
O O9 0.799810 0.250000 0.299438
O O10 0.750000 0.330323 0.250000
O O11 0.853837 0.326863 0.265168
O O12 0.934997 0.684997 0.625000
O O13 0.000000 0.663964 0.470531
#
# Coordination Sequence:
#
# PCOD9572887 Si02
#       5
#    32  32  32  32  32
#     4  11  21  35  58  85 114 152 195 242 291 357
#     4  10  19  35  59  85 113 147 191 246 302 352
#     4  10  22  38  58  86 117 151 195 251 305 353
#     4   9  17  31  54  81 109 141 183 237 295 344
#     4  11  22  36  53  79 116 156 194 235 283 346
#
# _framework density 19.048642000000001
#
# number of rings (size 3 to 8) (size 9 to 14) (size 15 to 20)
#    0.000    1.800    2.000    3.000    0.000    5.800 
#    0.000    0.000    0.000   22.200    0.000   28.000 
#    0.000    0.000    0.000    0.000    0.000    0.000 
#
# Total GULP energy -446416.258048 kJ/mol
# GULP energy per Si atom -5580.203226 kJ/mol
# Density = 1.900529 g / cm^3
# Si number density = 19.048642 Si / 1000 Ang^3
#
#
#
# Elastic Constant Matrix: (Units=GPa)
#
#
# Indices 1 2 3 4 5 6 
#
# 1 84.7052 51.2277 33.8771 0.0000 0.0000 0.0000
# 2 51.2277 84.7052 33.8771 0.0000 0.0000 0.0000
# 3 33.8771 33.8771 103.4984 0.0000 0.0000 0.0000
# 4 0.0000 0.0000 0.0000 28.4617 0.0000 0.0000
# 5 0.0000 0.0000 0.0000 0.0000 28.4617 0.0000
# 6 0.0000 0.0000 0.0000 0.0000 0.0000 9.0953
#
#
#
# Elastic Compliance Matrix: (Units=1/GPa)
#
#
# Indices 1 2 3 4 5 6 
#
# 1 0.019331 -0.010540 -0.002877 0.000000 0.000000 0.000000
# 2 -0.010540 0.019331 -0.002877 0.000000 0.000000 0.000000
# 3 -0.002877 -0.002877 0.011546 0.000000 0.000000 0.000000
# 4 0.000000 0.000000 0.000000 0.035135 0.000000 0.000000
# 5 0.000000 0.000000 0.000000 0.000000 0.035135 0.000000
# 6 0.000000 0.000000 0.000000 0.000000 0.000000 0.109946
#
#
# Mechanical properties :
#
#
# Convention : Reuss Voigt Hill
#
# Bulk Modulus (GPa) = 56.76137 56.76359 56.76248
# Shear Modulus (GPa) = 18.59526 23.46553 21.03039
#
# Velocity S-wave (km/s) = 3.12781 3.51361 3.32631
# Velocity P-wave (km/s) = 6.55035 6.80622 6.67951
#
# Compressibility (1/GPa) = 0.01761762
#
# Stress axis : x y z
#
# Youngs Moduli (GPa) = 51.73096 51.73096 86.61276
#
# Poissons Ratio (x) = 0.54524 0.24922
# Poissons Ratio (y) = 0.54524 0.24922
# Poissons Ratio (z) = 0.14885 0.14885
#
# Static dielectric constant tensor:
#      x y z
#    x 1.652660 0.000000 0.000000 
#    y 0.000000 1.652660 0.000000 
#    z 0.000000 0.000000 1.710310 
# 
# From -- ./inp_files/4899.got.cif
#   From: 2010.05.17/outbox.cif.g08.bks.cpg/sg141_3_cif.got.tgz:4899.got - 2010.05.20 13:30:51.
