data_PCOD9572383
_publ_section_title
;
Structure prediction by ZEFSAII (Michael W. Deem and Ramdas Pophale) SiO2 
 PCOD9572383
Probable space group: I 4/M C M
;
_chemical_formula_sum "Si O2"
_cell_formula_units_Z 120
_cell_length_a 17.442313
_cell_length_b 17.442313
_cell_length_c 19.183407
_cell_angle_alpha 90.000000
_cell_angle_beta 90.000000
_cell_angle_gamma 90.000000
_cell_volume 5836.250070
_symmetry_space_group_name_H-M "I 4/M C M"
_symmetry_group_IT_number 140
_symmetry_cell_setting 'tetragonal'
loop_
_space_group_symop_operation_xyz
x,y,z
-y,x,z
-x,-y,z
y,-x,z
x,-y,1/2-z
-x,y,1/2-z
y,x,1/2-z
-y,-x,1/2-z
-x,-y,-z
y,-x,-z
x,y,-z
-y,x,-z
-x,y,1/2+z
x,-y,1/2+z
-y,-x,1/2+z
y,x,1/2+z
1/2+x,1/2+y,1/2+z
1/2-y,1/2+x,1/2+z
1/2-x,1/2-y,1/2+z
1/2+y,1/2-x,1/2+z
1/2+x,1/2-y,-z
1/2-x,1/2+y,-z
1/2+y,1/2+x,-z
1/2-y,1/2-x,-z
1/2-x,1/2-y,1/2-z
1/2+y,1/2-x,1/2-z
1/2+x,1/2+y,1/2-z
1/2-y,1/2+x,1/2-z
1/2-x,1/2+y,z
1/2+x,1/2-y,z
1/2-y,1/2-x,z
1/2+y,1/2+x,z
loop_
_atom_site_type_symbol
_atom_site_label
_atom_site_fract_x
_atom_site_fract_y
_atom_site_fract_z
Si Si1 0.428327 0.769578 0.636992
Si Si2 0.357594 0.022747 0.000000
Si Si3 0.500000 0.879450 0.750000
Si Si4 0.235280 0.735280 0.918191
Si Si5 0.994411 0.127718 0.919512
Si Si6 0.158158 0.341843 0.000000
O O1 0.444070 0.819783 0.569006
O O2 0.450672 0.824388 0.700250
O O3 0.341144 0.740378 0.623927
O O4 0.484313 0.697005 0.632806
O O5 0.443996 0.056005 0.000000
O O6 0.335693 0.933202 0.000000
O O7 0.437707 0.937707 0.785046
O O8 0.300049 0.800049 0.933728
O O9 0.215743 0.715743 0.000000
O O10 0.069900 0.076947 0.911478
O O11 0.992613 0.155768 0.000000
#
# Coordination Sequence:
#
# PCOD9572383 Si02
#       6
#    32  16  16  16  32   8
#     4  12  21  40  67  91 131 175 218 281 340 400
#     4  12  22  40  63  99 129 171 221 278 332 397
#     4  11  26  46  64  89 128 182 234 279 344 412
#     4  10  20  41  60  95 126 173 209 269 338 393
#     4   9  19  35  64 101 131 165 216 272 332 400
#     4  10  27  34  64 100 135 164 220 284 338 396
#
# _framework density 20.561146999999998
#
# number of rings (size 3 to 8) (size 9 to 14) (size 15 to 20)
#    0.400    0.933    5.333    1.000    5.600    0.000 
#    0.000    1.333    0.000    4.800    0.000    0.000 
#    0.000    0.000    0.000    0.000    0.000    0.000 
#
# Total GULP energy -334267.283032 kJ/mol
# GULP energy per Si atom -5571.121384 kJ/mol
# Density = 2.051435 g / cm^3
# Si number density = 20.561147 Si / 1000 Ang^3
#
#
#
# Elastic Constant Matrix: (Units=GPa)
#
#
# Indices 1 2 3 4 5 6 
#
# 1 119.7435 42.4280 22.9890 0.0000 0.0000 0.0000
# 2 42.4280 119.7458 22.9890 0.0000 0.0000 0.0000
# 3 22.9890 22.9890 36.4320 0.0000 0.0000 0.0000
# 4 0.0000 0.0000 0.0000 1.0880 0.0000 0.0000
# 5 0.0000 0.0000 0.0000 0.0000 1.0333 0.0000
# 6 0.0000 0.0000 0.0000 0.0000 0.0000 38.1727
#
#
#
# Elastic Compliance Matrix: (Units=1/GPa)
#
#
# Indices 1 2 3 4 5 6 
#
# 1 0.010222 -0.002712 -0.004739 0.000000 0.000000 0.000000
# 2 -0.002712 0.010222 -0.004739 0.000000 0.000000 0.000000
# 3 -0.004739 -0.004739 0.033429 0.000000 0.000000 0.000000
# 4 0.000000 0.000000 0.000000 0.919087 -0.000002 0.000000
# 5 0.000000 0.000000 0.000000 -0.000002 0.967769 0.000000
# 6 0.000000 0.000000 0.000000 0.000000 0.000000 0.026197
#
#
# Mechanical properties :
#
#
# Convention : Reuss Voigt Hill
#
# Bulk Modulus (GPa) = 33.90596 50.30373 42.10484
# Shear Modulus (GPa) = 2.49858 20.55982 11.52920
#
# Velocity S-wave (km/s) = 1.10355 3.16561 2.37054
# Velocity P-wave (km/s) = 4.26027 6.15467 5.29291
#
# Compressibility (1/GPa) = 0.02949334
#
# Stress axis : x y z
#
# Youngs Moduli (GPa) = 97.82914 97.83123 29.91431
#
# Poissons Ratio (x) = 0.26532 0.14176
# Poissons Ratio (y) = 0.26532 0.14175
# Poissons Ratio (z) = 0.46359 0.46359
#
# Static dielectric constant tensor:
#      x y z
#    x 1.777980 0.000000 0.000000 
#    y 0.000000 1.777970 0.000000 
#    z 0.000000 0.000000 1.698260 
# 
# From -- ./inp_files/8063.got.cif
#   From: 2010.05.17/outbox.cif.g08.bks.cpg/sg140_5_cif.got.tgz:8063.got - 2010.06.21 00:45:31.
