data_PCOD9572962
_publ_section_title
;
Structure prediction by ZEFSAII (Michael W. Deem and Ramdas Pophale) SiO2 
 PCOD9572962
Probable space group: I 41/A M D
;
_chemical_formula_sum "Si O2"
_cell_formula_units_Z 128
_cell_length_a 23.939923
_cell_length_b 23.939923
_cell_length_c 13.337288
_cell_angle_alpha 90.000000
_cell_angle_beta 90.000000
_cell_angle_gamma 90.000000
_cell_volume 7643.865341
_symmetry_space_group_name_H-M "I 41/A M D"
_symmetry_group_IT_number 141
_space_group.IT_coordinate_system_code '2'
_symmetry_cell_setting 'tetragonal'
loop_
_space_group_symop_operation_xyz
x,y,z
1/4-y,3/4+x,1/4+z
-x,1/2-y,z
1/4+y,1/4-x,3/4+z
x,-y,-z
-x,1/2+y,-z
1/4+y,3/4+x,1/4-z
1/4-y,1/4-x,3/4-z
-x,-y,-z
3/4+y,1/4-x,3/4-z
x,1/2+y,-z
3/4-y,3/4+x,1/4-z
-x,y,z
x,1/2-y,z
3/4-y,1/4-x,3/4+z
3/4+y,3/4+x,1/4+z
1/2+x,1/2+y,1/2+z
3/4-y,1/4+x,3/4+z
1/2-x,-y,1/2+z
3/4+y,3/4-x,1/4+z
1/2+x,1/2-y,1/2-z
1/2-x,y,1/2-z
3/4+y,1/4+x,3/4-z
3/4-y,3/4-x,1/4-z
1/2-x,1/2-y,1/2-z
1/4+y,3/4-x,1/4-z
1/2+x,y,1/2-z
1/4-y,1/4+x,3/4-z
1/2-x,1/2+y,1/2+z
1/2+x,-y,1/2+z
1/4-y,3/4-x,1/4+z
1/4+y,1/4+x,3/4+z
loop_
_atom_site_type_symbol
_atom_site_label
_atom_site_fract_x
_atom_site_fract_y
_atom_site_fract_z
Si Si1 0.791673 0.958328 0.125000
Si Si2 0.265970 0.686510 0.633076
Si Si3 0.333801 0.424211 0.411817
Si Si4 0.565644 0.184357 0.125000
Si Si5 0.663724 0.685170 0.022508
O O1 0.725902 0.948070 0.108079
O O2 0.811501 0.923668 0.221354
O O3 0.287366 0.750000 0.615246
O O4 0.250000 0.683050 0.750000
O O5 0.307171 0.635946 0.608880
O O6 0.211813 0.679058 0.561932
O O7 0.395402 0.424900 0.365896
O O8 0.574299 0.250000 0.148087
O O9 0.605590 0.170140 0.032312
O O10 0.661700 0.750000 0.051582
#
# Coordination Sequence:
#
# PCOD9572962 Si02
#       5
#    16  32  32  16  32
#     4  10  24  37  56  83 104 145 192 233 281 326
#     4  10  21  34  52  80 112 146 180 222 277 335
#     4  11  21  39  56  78 110 143 186 234 275 336
#     4   9  18  33  54  83 118 152 186 224 271 336
#     4  10  20  35  55  81 112 147 184 227 280 330
#
# _framework density 16.745453999999999
#
# number of rings (size 3 to 8) (size 9 to 14) (size 15 to 20)
#    0.000    1.875    2.500    1.500    3.500    4.000 
#    0.000    3.750    0.000    0.000    0.000    0.000 
#    0.000    2.000    0.000    0.000    0.000    0.000 
#
# Total GULP energy -356952.176281 kJ/mol
# GULP energy per Si atom -5577.377754 kJ/mol
# Density = 1.670734 g / cm^3
# Si number density = 16.745454 Si / 1000 Ang^3
#
#
#
# Elastic Constant Matrix: (Units=GPa)
#
#
# Indices 1 2 3 4 5 6 
#
# 1 90.8509 47.7485 43.7045 0.0000 0.0000 0.0000
# 2 47.7485 90.8527 43.7039 0.0000 0.0000 0.0000
# 3 43.7045 43.7039 92.2862 0.0000 0.0000 0.0000
# 4 0.0000 0.0000 0.0000 20.8175 0.0000 0.0000
# 5 0.0000 0.0000 0.0000 0.0000 20.8195 0.0000
# 6 0.0000 0.0000 0.0000 0.0000 0.0000 25.2581
#
#
#
# Elastic Compliance Matrix: (Units=1/GPa)
#
#
# Indices 1 2 3 4 5 6 
#
# 1 0.016744 -0.006456 -0.004872 0.000000 0.000000 0.000000
# 2 -0.006456 0.016743 -0.004872 0.000000 0.000000 0.000000
# 3 -0.004872 -0.004872 0.015450 0.000000 0.000000 0.000000
# 4 0.000000 0.000000 0.000000 0.048037 0.000000 0.000000
# 5 0.000000 0.000000 0.000000 0.000000 0.048032 0.000000
# 6 0.000000 0.000000 0.000000 0.000000 0.000000 0.039591
#
#
# Mechanical properties :
#
#
# Convention : Reuss Voigt Hill
#
# Bulk Modulus (GPa) = 60.46797 60.47817 60.47307
# Shear Modulus (GPa) = 22.47089 22.63453 22.55271
#
# Velocity S-wave (km/s) = 3.66718 3.68051 3.67385
# Velocity P-wave (km/s) = 7.35659 7.36588 7.36124
#
# Compressibility (1/GPa) = 0.01653768
#
# Stress axis : x y z
#
# Youngs Moduli (GPa) = 59.72278 59.72475 64.72412
#
# Poissons Ratio (x) = 0.38560 0.31534
# Poissons Ratio (y) = 0.38559 0.31531
# Poissons Ratio (z) = 0.29097 0.29096
#
# Static dielectric constant tensor:
#      x y z
#    x 1.569970 0.000000 0.000000 
#    y 0.000000 1.569960 0.000000 
#    z 0.000000 0.000000 1.546700 
# 
# From -- ./inp_files/6228.got.cif
#   From: 2010.05.17/outbox.cif.g08.bks.cpg/sg141_4_cif.got.tgz:6228.got - 2010.05.20 13:30:51.
