data_PCOD9572773
_publ_section_title
;
Structure prediction by ZEFSAII (Michael W. Deem and Ramdas Pophale) SiO2 
 PCOD9572773
Probable space group: I 41/A M D
;
_chemical_formula_sum "Si O2"
_cell_formula_units_Z 120
_cell_length_a 15.606051
_cell_length_b 15.606051
_cell_length_c 30.475196
_cell_angle_alpha 90.000000
_cell_angle_beta 90.000000
_cell_angle_gamma 90.000000
_cell_volume 7422.198263
_symmetry_space_group_name_H-M "I 41/A M D"
_symmetry_group_IT_number 141
_space_group.IT_coordinate_system_code '2'
_symmetry_cell_setting 'tetragonal'
loop_
_space_group_symop_operation_xyz
x,y,z
1/4-y,3/4+x,1/4+z
-x,1/2-y,z
1/4+y,1/4-x,3/4+z
x,-y,-z
-x,1/2+y,-z
1/4+y,3/4+x,1/4-z
1/4-y,1/4-x,3/4-z
-x,-y,-z
3/4+y,1/4-x,3/4-z
x,1/2+y,-z
3/4-y,3/4+x,1/4-z
-x,y,z
x,1/2-y,z
3/4-y,1/4-x,3/4+z
3/4+y,3/4+x,1/4+z
1/2+x,1/2+y,1/2+z
3/4-y,1/4+x,3/4+z
1/2-x,-y,1/2+z
3/4+y,3/4-x,1/4+z
1/2+x,1/2-y,1/2-z
1/2-x,y,1/2-z
3/4+y,1/4+x,3/4-z
3/4-y,3/4-x,1/4-z
1/2-x,1/2-y,1/2-z
1/4+y,3/4-x,1/4-z
1/2+x,y,1/2-z
1/4-y,1/4+x,3/4-z
1/2-x,1/2+y,1/2+z
1/2+x,-y,1/2+z
1/4-y,3/4-x,1/4+z
1/4+y,1/4+x,3/4+z
loop_
_atom_site_type_symbol
_atom_site_label
_atom_site_fract_x
_atom_site_fract_y
_atom_site_fract_z
Si Si1 0.500000 0.250000 0.387250
Si Si2 0.000000 0.962590 0.764759
Si Si3 0.683458 0.250000 0.429698
Si Si4 0.399092 0.586737 0.026943
Si Si5 0.500000 0.939446 0.635922
Si Si6 0.687877 0.918014 0.624139
O O1 0.582936 0.250000 0.417901
O O2 0.500000 0.164655 0.358080
O O3 0.084609 0.905349 0.758137
O O4 0.000000 0.984680 0.816734
O O5 0.000000 0.039409 0.730179
O O6 0.714281 0.161658 0.406770
O O7 0.500000 0.606302 0.025998
O O8 0.369818 0.571524 0.076901
O O9 0.384106 0.500000 0.000000
O O10 0.591756 0.953194 0.612635
O O11 0.757028 0.992973 0.625000
#
# Coordination Sequence:
#
# PCOD9572773 Si02
#       6
#     8  16  16  32  16  32
#     4   8  16  32  54  68  96 124 174 214 244 294
#     4  10  19  28  48  71  98 119 162 204 244 288
#     4  10  18  31  47  75  95 129 165 208 257 293
#     4  10  19  31  46  68  95 133 165 196 240 298
#     4   8  18  30  50  73  88 125 166 206 245 292
#     4  10  18  31  51  70  98 126 167 212 246 298
#
# _framework density 16.167717
#
# number of rings (size 3 to 8) (size 9 to 14) (size 15 to 20)
#    0.000    2.400    1.333    2.000    5.600    0.000 
#    0.000    0.000    0.000    6.800    0.000   24.267 
#    0.000    0.000    0.000    0.000    0.000    0.000 
#
# Total GULP energy -334140.593673 kJ/mol
# GULP energy per Si atom -5569.009895 kJ/mol
# Density = 1.613092 g / cm^3
# Si number density = 16.167717 Si / 1000 Ang^3
#
#
#
# Elastic Constant Matrix: (Units=GPa)
#
#
# Indices 1 2 3 4 5 6 
#
# 1 61.4129 34.8803 10.2147 0.0000 0.0000 0.0000
# 2 34.8803 61.4118 10.2145 0.0000 0.0000 0.0000
# 3 10.2147 10.2145 60.6617 0.0000 0.0000 0.0000
# 4 0.0000 0.0000 0.0000 22.2520 0.0000 0.0000
# 5 0.0000 0.0000 0.0000 0.0000 22.2527 0.0000
# 6 0.0000 0.0000 0.0000 0.0000 0.0000 17.3520
#
#
#
# Elastic Compliance Matrix: (Units=1/GPa)
#
#
# Indices 1 2 3 4 5 6 
#
# 1 0.024230 -0.013460 -0.001813 0.000000 0.000000 0.000000
# 2 -0.013460 0.024230 -0.001813 0.000000 0.000000 0.000000
# 3 -0.001813 -0.001813 0.017096 0.000000 0.000000 0.000000
# 4 0.000000 0.000000 0.000000 0.044940 0.000000 0.000000
# 5 0.000000 0.000000 0.000000 0.000000 0.044938 0.000000
# 6 0.000000 0.000000 0.000000 0.000000 0.000000 0.057630
#
#
# Mechanical properties :
#
#
# Convention : Reuss Voigt Hill
#
# Bulk Modulus (GPa) = 31.86624 32.67839 32.27231
# Shear Modulus (GPa) = 19.40249 20.91647 20.15948
#
# Velocity S-wave (km/s) = 3.46797 3.60073 3.53497
# Velocity P-wave (km/s) = 5.98233 6.12724 6.05522
#
# Compressibility (1/GPa) = 0.03138118
#
# Stress axis : x y z
#
# Youngs Moduli (GPa) = 41.27147 41.27074 58.49458
#
# Poissons Ratio (x) = 0.55552 0.10608
# Poissons Ratio (y) = 0.55553 0.10608
# Poissons Ratio (z) = 0.07485 0.07484
#
# Static dielectric constant tensor:
#      x y z
#    x 1.560390 0.000000 0.000000 
#    y 0.000000 1.560390 0.000000 
#    z 0.000000 0.000000 1.528390 
# 
# From -- ./inp_files/14144.got.cif
#   From: 2010.05.17/outbox.cif.g08.bks.cpg/sg141_8_cif.got.tgz:14144.got - 2010.05.20 13:30:51.
