data_PCOD9572362
_publ_section_title
;
Structure prediction by ZEFSAII (Michael W. Deem and Ramdas Pophale) SiO2 
 PCOD9572362
Probable space group: I 4/M C M
;
_chemical_formula_sum "Si O2"
_cell_formula_units_Z 112
_cell_length_a 14.175267
_cell_length_b 14.175267
_cell_length_c 25.200786
_cell_angle_alpha 90.000000
_cell_angle_beta 90.000000
_cell_angle_gamma 90.000000
_cell_volume 5063.800439
_symmetry_space_group_name_H-M "I 4/M C M"
_symmetry_group_IT_number 140
_symmetry_cell_setting 'tetragonal'
loop_
_space_group_symop_operation_xyz
x,y,z
-y,x,z
-x,-y,z
y,-x,z
x,-y,1/2-z
-x,y,1/2-z
y,x,1/2-z
-y,-x,1/2-z
-x,-y,-z
y,-x,-z
x,y,-z
-y,x,-z
-x,y,1/2+z
x,-y,1/2+z
-y,-x,1/2+z
y,x,1/2+z
1/2+x,1/2+y,1/2+z
1/2-y,1/2+x,1/2+z
1/2-x,1/2-y,1/2+z
1/2+y,1/2-x,1/2+z
1/2+x,1/2-y,-z
1/2-x,1/2+y,-z
1/2+y,1/2+x,-z
1/2-y,1/2-x,-z
1/2-x,1/2-y,1/2-z
1/2+y,1/2-x,1/2-z
1/2+x,1/2+y,1/2-z
1/2-y,1/2+x,1/2-z
1/2-x,1/2+y,z
1/2+x,1/2-y,z
1/2-y,1/2-x,z
1/2+y,1/2+x,z
loop_
_atom_site_type_symbol
_atom_site_label
_atom_site_fract_x
_atom_site_fract_y
_atom_site_fract_z
Si Si1 0.581216 0.918785 0.832454
Si Si2 0.057127 0.147558 0.836867
Si Si3 0.116464 0.616464 0.057088
Si Si4 0.729994 0.923783 0.557541
Si Si5 0.771395 0.500000 0.250000
O O1 0.634404 0.865597 0.880975
O O2 0.535435 0.839768 0.796116
O O3 0.500000 0.000000 0.845905
O O4 0.071055 0.204747 0.891248
O O5 0.072102 0.207122 0.783364
O O6 0.947319 0.117335 0.836081
O O7 0.151670 0.507738 0.056898
O O8 0.154644 0.654644 0.000000
O O9 0.780077 0.930531 0.500000
O O10 0.672995 0.827006 0.559654
#
# Coordination Sequence:
#
# PCOD9572362 Si02
#       5
#    16  32  16  32  16
#     4  12  22  37  66 103 140 176 208 268 351 408
#     4  11  26  47  67  88 127 184 230 269 327 396
#     4  10  20  37  67 100 133 168 207 264 338 400
#     4  10  21  40  68 102 134 166 213 275 336 394
#     4  12  23  41  64  96 130 172 218 271 319 396
#
# _framework density 22.117775999999999
#
# number of rings (size 3 to 8) (size 9 to 14) (size 15 to 20)
#    0.000    1.143    4.286    2.143    2.000    5.429 
#    5.143    2.857    0.000    0.000    0.000    0.000 
#    0.000    0.000    0.000    0.000    0.000    0.000 
#
# Total GULP energy -312014.022540 kJ/mol
# GULP energy per Si atom -5571.678974 kJ/mol
# Density = 2.206743 g / cm^3
# Si number density = 22.117776 Si / 1000 Ang^3
#
#
#
# Elastic Constant Matrix: (Units=GPa)
#
#
# Indices 1 2 3 4 5 6 
#
# 1 46.7427 14.4184 19.3351 0.0000 0.0000 0.0000
# 2 14.4184 46.7427 19.3351 0.0000 0.0000 0.0000
# 3 19.3351 19.3351 172.5983 0.0000 0.0000 0.0000
# 4 0.0000 0.0000 0.0000 26.1131 0.0000 0.0000
# 5 0.0000 0.0000 0.0000 0.0000 26.1131 0.0000
# 6 0.0000 0.0000 0.0000 0.0000 0.0000 10.3461
#
#
#
# Elastic Compliance Matrix: (Units=1/GPa)
#
#
# Indices 1 2 3 4 5 6 
#
# 1 0.024267 -0.006670 -0.001971 0.000000 0.000000 0.000000
# 2 -0.006670 0.024267 -0.001971 0.000000 0.000000 0.000000
# 3 -0.001971 -0.001971 0.006235 0.000000 0.000000 0.000000
# 4 0.000000 0.000000 0.000000 0.038295 0.000000 0.000000
# 5 0.000000 0.000000 0.000000 0.000000 0.038295 0.000000
# 6 0.000000 0.000000 0.000000 0.000000 0.000000 0.096655
#
#
# Mechanical properties :
#
#
# Convention : Reuss Voigt Hill
#
# Bulk Modulus (GPa) = 29.81184 41.36233 35.58708
# Shear Modulus (GPa) = 19.19983 26.71414 22.95698
#
# Velocity S-wave (km/s) = 2.94950 3.47913 3.22521
# Velocity P-wave (km/s) = 5.01072 5.90599 5.47668
#
# Compressibility (1/GPa) = 0.03354372
#
# Stress axis : x y z
#
# Youngs Moduli (GPa) = 41.20905 41.20905 160.37329
#
# Poissons Ratio (x) = 0.27486 0.31613
# Poissons Ratio (y) = 0.27486 0.31613
# Poissons Ratio (z) = 0.08123 0.08123
#
# Static dielectric constant tensor:
#      x y z
#    x 1.840050 0.000000 0.000000 
#    y 0.000000 1.840050 0.000000 
#    z 0.000000 0.000000 1.873620 
# 
# From -- ./inp_files/9100.got.cif
#   From: 2010.05.17/outbox.cif.g08.bks.cpg/sg140_5_cif.got.tgz:9100.got - 2010.06.21 00:45:31.
