data_PCOD9572024
_publ_section_title
;
Structure prediction by ZEFSAII (Michael W. Deem and Ramdas Pophale) SiO2 
 PCOD9572024
Probable space group: I 4/M C M
;
_chemical_formula_sum "Si O2"
_cell_formula_units_Z 192
_cell_length_a 16.989602
_cell_length_b 16.989602
_cell_length_c 30.206894
_cell_angle_alpha 90.000000
_cell_angle_beta 90.000000
_cell_angle_gamma 90.000000
_cell_volume 8719.116528
_symmetry_space_group_name_H-M "I 4/M C M"
_symmetry_group_IT_number 140
_symmetry_cell_setting 'tetragonal'
loop_
_space_group_symop_operation_xyz
x,y,z
-y,x,z
-x,-y,z
y,-x,z
x,-y,1/2-z
-x,y,1/2-z
y,x,1/2-z
-y,-x,1/2-z
-x,-y,-z
y,-x,-z
x,y,-z
-y,x,-z
-x,y,1/2+z
x,-y,1/2+z
-y,-x,1/2+z
y,x,1/2+z
1/2+x,1/2+y,1/2+z
1/2-y,1/2+x,1/2+z
1/2-x,1/2-y,1/2+z
1/2+y,1/2-x,1/2+z
1/2+x,1/2-y,-z
1/2-x,1/2+y,-z
1/2+y,1/2+x,-z
1/2-y,1/2-x,-z
1/2-x,1/2-y,1/2-z
1/2+y,1/2-x,1/2-z
1/2+x,1/2+y,1/2-z
1/2-y,1/2+x,1/2-z
1/2-x,1/2+y,z
1/2+x,1/2-y,z
1/2-y,1/2-x,z
1/2+y,1/2+x,z
loop_
_atom_site_type_symbol
_atom_site_label
_atom_site_fract_x
_atom_site_fract_y
_atom_site_fract_z
Si Si1 0.373400 0.005421 0.332250
Si Si2 0.941259 0.881480 0.051334
Si Si3 0.280104 0.000000 0.250000
Si Si4 0.304048 0.935063 0.586481
Si Si5 0.677189 0.305774 0.889636
Si Si6 0.848621 0.776831 0.705903
Si Si7 0.133166 0.496699 0.000000
O O1 0.428511 0.071490 0.353505
O O2 0.432198 0.932198 0.321500
O O3 0.335630 0.037590 0.287327
O O4 0.307789 0.981019 0.367402
O O5 0.903760 0.819038 0.084733
O O6 0.033525 0.898976 0.058053
O O7 0.928776 0.859371 0.000000
O O8 0.232229 0.937881 0.278883
O O9 0.384562 0.884562 0.587650
O O10 0.235914 0.870133 0.587874
O O11 0.313087 0.987792 0.543035
O O12 0.721754 0.221754 0.892829
O O13 0.673341 0.329743 0.837852
O O14 0.808994 0.808994 0.750000
O O15 0.807909 0.692092 0.695888
O O16 0.085390 0.414611 0.000000
O O17 0.065022 0.565022 0.000000
#
# Coordination Sequence:
#
# PCOD9572024 Si02
#       7
#    32  32  16  32  32  32  16
#     4  10  18  28  46  73 104 138 180 232 282 331
#     4   9  20  40  66  94 121 154 198 250 305 357
#     4  12  20  33  54  75 102 142 194 244 290 344
#     4   9  17  29  45  71 107 145 185 227 274 334
#     4  10  20  36  59  88 120 155 199 248 303 365
#     4  10  22  39  56  79 115 154 192 239 299 361
#     4   9  16  26  42  66 102 149 190 222 273 344
#
# _framework density 22.020578
#
# number of rings (size 3 to 8) (size 9 to 14) (size 15 to 20)
#    0.000    2.250    1.667    2.500    1.167    4.333 
#    0.000    0.000    0.000    1.250    0.000    0.000 
#    0.000    0.000    0.000    0.000    0.000    0.000 
#
# Total GULP energy -536029.361687 kJ/mol
# GULP energy per Si atom -5583.639184 kJ/mol
# Density = 2.197046 g / cm^3
# Si number density = 22.020578 Si / 1000 Ang^3
#
#
#
# Elastic Constant Matrix: (Units=GPa)
#
#
# Indices 1 2 3 4 5 6 
#
# 1 38.6142 29.6107 35.9488 0.0000 0.0000 0.0000
# 2 29.6107 38.6147 35.9490 0.0000 0.0000 0.0000
# 3 35.9488 35.9490 139.3497 0.0000 0.0000 0.0000
# 4 0.0000 0.0000 0.0000 31.6918 0.0000 0.0000
# 5 0.0000 0.0000 0.0000 0.0000 31.6919 0.0000
# 6 0.0000 0.0000 0.0000 0.0000 0.0000 18.1835
#
#
#
# Elastic Compliance Matrix: (Units=1/GPa)
#
#
# Indices 1 2 3 4 5 6 
#
# 1 0.065598 -0.045467 -0.005193 0.000000 0.000000 0.000000
# 2 -0.045467 0.065597 -0.005193 0.000000 0.000000 0.000000
# 3 -0.005193 -0.005193 0.009856 0.000000 0.000000 0.000000
# 4 0.000000 0.000000 0.000000 0.031554 0.000000 0.000000
# 5 0.000000 0.000000 0.000000 0.000000 0.031554 0.000000
# 6 0.000000 0.000000 0.000000 0.000000 0.000000 0.054995
#
#
# Mechanical properties :
#
#
# Convention : Reuss Voigt Hill
#
# Bulk Modulus (GPa) = 34.07937 46.62173 40.35055
# Shear Modulus (GPa) = 13.13577 23.98478 18.56027
#
# Velocity S-wave (km/s) = 2.44503 3.30388 2.90636
# Velocity P-wave (km/s) = 4.84568 5.98097 5.44301
#
# Compressibility (1/GPa) = 0.02934326
#
# Stress axis : x y z
#
# Youngs Moduli (GPa) = 15.24447 15.24466 101.46572
#
# Poissons Ratio (x) = 0.69313 0.52692
# Poissons Ratio (y) = 0.69312 0.52691
# Poissons Ratio (z) = 0.07917 0.07917
#
# Static dielectric constant tensor:
#      x y z
#    x 1.871400 0.000000 0.000000 
#    y 0.000000 1.871400 0.000000 
#    z 0.000000 0.000000 1.799640 
# 
# From -- ./inp_files/11633.got.cif
#   From: 2010.05.17/outbox.cif.g08.bks.cpg/sg140_6_cif.got.tgz:11633.got - 2010.06.21 00:45:31.
