data_PCOD9572841
_publ_section_title
;
Structure prediction by ZEFSAII (Michael W. Deem and Ramdas Pophale) SiO2 
 PCOD9572841
Probable space group: I 41/A M D
;
_chemical_formula_sum "Si O2"
_cell_formula_units_Z 176
_cell_length_a 17.982537
_cell_length_b 17.982537
_cell_length_c 28.145278
_cell_angle_alpha 90.000000
_cell_angle_beta 90.000000
_cell_angle_gamma 90.000000
_cell_volume 9101.384619
_symmetry_space_group_name_H-M "I 41/A M D"
_symmetry_group_IT_number 141
_space_group.IT_coordinate_system_code '2'
_symmetry_cell_setting 'tetragonal'
loop_
_space_group_symop_operation_xyz
x,y,z
1/4-y,3/4+x,1/4+z
-x,1/2-y,z
1/4+y,1/4-x,3/4+z
x,-y,-z
-x,1/2+y,-z
1/4+y,3/4+x,1/4-z
1/4-y,1/4-x,3/4-z
-x,-y,-z
3/4+y,1/4-x,3/4-z
x,1/2+y,-z
3/4-y,3/4+x,1/4-z
-x,y,z
x,1/2-y,z
3/4-y,1/4-x,3/4+z
3/4+y,3/4+x,1/4+z
1/2+x,1/2+y,1/2+z
3/4-y,1/4+x,3/4+z
1/2-x,-y,1/2+z
3/4+y,3/4-x,1/4+z
1/2+x,1/2-y,1/2-z
1/2-x,y,1/2-z
3/4+y,1/4+x,3/4-z
3/4-y,3/4-x,1/4-z
1/2-x,1/2-y,1/2-z
1/4+y,3/4-x,1/4-z
1/2+x,y,1/2-z
1/4-y,1/4+x,3/4-z
1/2-x,1/2+y,1/2+z
1/2+x,-y,1/2+z
1/4-y,3/4-x,1/4+z
1/4+y,1/4+x,3/4+z
loop_
_atom_site_type_symbol
_atom_site_label
_atom_site_fract_x
_atom_site_fract_y
_atom_site_fract_z
Si Si1 0.155095 0.091292 0.199712
Si Si2 0.914077 0.912473 0.699137
Si Si3 0.224540 0.983981 0.321327
Si Si4 0.500000 0.336295 0.853736
Si Si5 0.163254 0.663200 0.343849
Si Si6 0.500000 0.069488 0.949474
Si Si7 0.412125 0.750000 0.796342
O O1 0.098844 0.096161 0.243812
O O2 0.110956 0.085977 0.149860
O O3 0.209513 0.164876 0.198230
O O4 0.208373 0.021250 0.207233
O O5 0.897820 0.829223 0.679121
O O6 0.000000 0.931975 0.688809
O O7 0.853632 0.972713 0.683715
O O8 0.213078 0.896242 0.316362
O O9 0.250038 0.999963 0.375000
O O10 0.500000 0.250000 0.867668
O O11 0.422402 0.349444 0.827797
O O12 0.500000 0.381101 0.902459
O O13 0.181894 0.750000 0.339148
O O14 0.500000 0.113579 0.998821
O O15 0.500000 0.750000 0.784571
#
# Coordination Sequence:
#
# PCOD9572841 Si02
#       7
#    32  32  32  16  32  16  16
#     4   9  17  31  50  72  95 123 163 209 244 275
#     4  10  19  32  50  69  95 131 169 202 236 287
#     4  10  21  33  45  70 102 128 155 198 247 298
#     4   8  13  22  41  67  90 113 147 194 244 280
#     4   9  17  30  49  71  95 123 160 203 248 291
#     4   8  13  23  44  69  88 114 151 201 243 268
#     4   8  15  27  43  64  89 118 163 202 227 263
#
# _framework density 19.337717000000001
#
# number of rings (size 3 to 8) (size 9 to 14) (size 15 to 20)
#    0.000    2.909    0.000    1.364    1.273    5.091 
#    3.273    2.727    0.000    2.182    0.000    0.000 
#    0.000   42.545    0.000    0.000    0.000    0.000 
#
# Total GULP energy -489934.671191 kJ/mol
# GULP energy per Si atom -5567.439445 kJ/mol
# Density = 1.929370 g / cm^3
# Si number density = 19.337717 Si / 1000 Ang^3
#
#
#
# Elastic Constant Matrix: (Units=GPa)
#
#
# Indices 1 2 3 4 5 6 
#
# 1 103.6180 52.5594 0.4631 0.0000 0.0000 0.0000
# 2 52.5594 103.6175 0.4634 0.0000 0.0000 0.0000
# 3 0.4631 0.4634 11.9605 0.0000 0.0000 0.0000
# 4 0.0000 0.0000 0.0000 16.8773 0.0000 0.0000
# 5 0.0000 0.0000 0.0000 0.0000 16.8776 0.0000
# 6 0.0000 0.0000 0.0000 0.0000 0.0000 28.7789
#
#
#
# Elastic Compliance Matrix: (Units=1/GPa)
#
#
# Indices 1 2 3 4 5 6 
#
# 1 0.012995 -0.006590 -0.000248 0.000000 0.000000 0.000000
# 2 -0.006590 0.012995 -0.000248 0.000000 0.000000 0.000000
# 3 -0.000248 -0.000248 0.083628 0.000000 0.000000 0.000000
# 4 0.000000 0.000000 0.000000 0.059251 0.000000 0.000000
# 5 0.000000 0.000000 0.000000 0.000000 0.059250 0.000000
# 6 0.000000 0.000000 0.000000 0.000000 0.000000 0.034748
#
#
# Mechanical properties :
#
#
# Convention : Reuss Voigt Hill
#
# Bulk Modulus (GPa) = 10.47729 36.24087 23.35908
# Shear Modulus (GPa) = 16.18884 23.55409 19.87147
#
# Velocity S-wave (km/s) = 2.89652 3.49383 3.20910
# Velocity P-wave (km/s) = 4.07630 5.92094 5.08300
#
# Compressibility (1/GPa) = 0.09544449
#
# Stress axis : x y z
#
# Youngs Moduli (GPa) = 76.95314 76.95277 11.95775
#
# Poissons Ratio (x) = 0.50716 0.00296
# Poissons Ratio (y) = 0.50716 0.00297
# Poissons Ratio (z) = 0.01907 0.01910
#
# Static dielectric constant tensor:
#      x y z
#    x 1.711810 0.000000 0.000000 
#    y 0.000000 1.711810 0.000000 
#    z 0.000000 0.000000 1.704130 
# 
# From -- ./inp_files/14395.got.cif
#   From: 2010.05.17/outbox.cif.g08.bks.cpg/sg141_8_cif.got.tgz:14395.got - 2010.05.20 13:30:51.
