data_PCOD9572461
_publ_section_title
;
Structure prediction by ZEFSAII (Michael W. Deem and Ramdas Pophale) SiO2 
 PCOD9572461
Probable space group: I 4/M C M
;
_chemical_formula_sum "Si O2"
_cell_formula_units_Z 160
_cell_length_a 20.744856
_cell_length_b 20.744856
_cell_length_c 18.021333
_cell_angle_alpha 90.000000
_cell_angle_beta 90.000000
_cell_angle_gamma 90.000000
_cell_volume 7755.463545
_symmetry_space_group_name_H-M "I 4/M C M"
_symmetry_group_IT_number 140
_symmetry_cell_setting 'tetragonal'
loop_
_space_group_symop_operation_xyz
x,y,z
-y,x,z
-x,-y,z
y,-x,z
x,-y,1/2-z
-x,y,1/2-z
y,x,1/2-z
-y,-x,1/2-z
-x,-y,-z
y,-x,-z
x,y,-z
-y,x,-z
-x,y,1/2+z
x,-y,1/2+z
-y,-x,1/2+z
y,x,1/2+z
1/2+x,1/2+y,1/2+z
1/2-y,1/2+x,1/2+z
1/2-x,1/2-y,1/2+z
1/2+y,1/2-x,1/2+z
1/2+x,1/2-y,-z
1/2-x,1/2+y,-z
1/2+y,1/2+x,-z
1/2-y,1/2-x,-z
1/2-x,1/2-y,1/2-z
1/2+y,1/2-x,1/2-z
1/2+x,1/2+y,1/2-z
1/2-y,1/2+x,1/2-z
1/2-x,1/2+y,z
1/2+x,1/2-y,z
1/2-y,1/2-x,z
1/2+y,1/2+x,z
loop_
_atom_site_type_symbol
_atom_site_label
_atom_site_fract_x
_atom_site_fract_y
_atom_site_fract_z
Si Si1 0.207139 0.598430 0.138743
Si Si2 0.630129 0.026477 0.165119
Si Si3 0.578267 0.573987 0.667722
Si Si4 0.659358 0.667462 0.918473
Si Si5 0.368901 0.234315 0.297560
O O1 0.152401 0.652401 0.143849
O O2 0.165934 0.533363 0.124616
O O3 0.262862 0.625260 0.086174
O O4 0.244846 0.595999 0.218368
O O5 0.563088 0.063088 0.142758
O O6 0.684038 0.082176 0.164603
O O7 0.620369 0.000000 0.250000
O O8 0.502424 0.587504 0.664745
O O9 0.598482 0.598482 0.750000
O O10 0.615279 0.605167 0.600110
O O11 0.710075 0.652495 0.853103
O O12 0.688424 0.659485 0.000000
O O13 0.303583 0.196418 0.279945
#
# Coordination Sequence:
#
# PCOD9572461 Si02
#       5
#    32  32  32  32  32
#     4  10  21  37  59  88 121 158 205 259 311 369
#     4   9  18  34  61  95 124 152 195 257 321 373
#     4   9  20  40  64  87 111 145 191 242 299 363
#     4  12  25  37  56  85 123 164 203 247 299 363
#     4   9  19  37  59  84 115 155 203 252 304 363
#
# _framework density 20.630617999999998
#
# number of rings (size 3 to 8) (size 9 to 14) (size 15 to 20)
#    0.000    2.200    0.000    4.800    2.800    5.400 
#    0.000    1.000    0.000    1.800    0.000    1.400 
#    0.000    7.200    0.000   43.800    0.000    0.000 
#
# Total GULP energy -445433.310870 kJ/mol
# GULP energy per Si atom -5567.916386 kJ/mol
# Density = 2.058366 g / cm^3
# Si number density = 20.630618 Si / 1000 Ang^3
#
#
#
# Elastic Constant Matrix: (Units=GPa)
#
#
# Indices 1 2 3 4 5 6 
#
# 1 126.6656 6.6923 22.9156 0.0000 0.0000 0.0000
# 2 6.6923 126.6656 22.9156 0.0000 0.0000 0.0000
# 3 22.9156 22.9156 52.6501 0.0000 0.0000 0.0000
# 4 0.0000 0.0000 0.0000 -2.2164 0.0000 0.0000
# 5 0.0000 0.0000 0.0000 0.0000 -2.2164 0.0000
# 6 0.0000 0.0000 0.0000 0.0000 0.0000 36.6404
#
#
#
# Elastic Compliance Matrix: (Units=1/GPa)
#
#
# Indices 1 2 3 4 5 6 
#
# 1 0.008576 0.000241 -0.003838 0.000000 0.000000 0.000000
# 2 0.000241 0.008576 -0.003838 0.000000 0.000000 0.000000
# 3 -0.003838 -0.003838 0.022334 0.000000 0.000000 0.000000
# 4 0.000000 0.000000 0.000000 -0.451192 0.000000 0.000000
# 5 0.000000 0.000000 0.000000 0.000000 -0.451192 0.000000
# 6 0.000000 0.000000 0.000000 0.000000 0.000000 0.027292
#
#
# Mechanical properties :
#
#
# Convention : Reuss Voigt Hill
#
# Bulk Modulus (GPa) = 40.62060 45.66980 43.14520
# Shear Modulus (GPa) = -6.15362 23.33873 8.59255
#
# Velocity S-wave (km/s) = -1.72894 3.36708 2.04304
# Velocity P-wave (km/s) = 3.96819 6.10748 5.15014
#
# Compressibility (1/GPa) = 0.02461805
#
# Stress axis : x y z
#
# Youngs Moduli (GPa) = 116.59952 116.59952 44.77470
#
# Poissons Ratio (x) = -0.02812 0.17183
# Poissons Ratio (y) = -0.02812 0.17183
# Poissons Ratio (z) = 0.44748 0.44748
#
# Static dielectric constant tensor:
#      x y z
#    x 1.779800 0.000000 0.000000 
#    y 0.000000 1.779800 0.000000 
#    z 0.000000 0.000000 1.742690 
# 
# From -- ./inp_files/6853.got.cif
#   From: 2010.05.17/outbox.cif.g08.bks.cpg/sg140_4_cif.got.tgz:6853.got - 2010.06.21 00:45:31.
