data_PCOD9572049
_publ_section_title
;
Structure prediction by ZEFSAII (Michael W. Deem and Ramdas Pophale) SiO2 
 PCOD9572049
Probable space group: I 4/M C M
;
_chemical_formula_sum "Si O2"
_cell_formula_units_Z 192
_cell_length_a 21.722799
_cell_length_b 21.722799
_cell_length_c 23.968888
_cell_angle_alpha 90.000000
_cell_angle_beta 90.000000
_cell_angle_gamma 90.000000
_cell_volume 11310.438783
_symmetry_space_group_name_H-M "I 4/M C M"
_symmetry_group_IT_number 140
_symmetry_cell_setting 'tetragonal'
loop_
_space_group_symop_operation_xyz
x,y,z
-y,x,z
-x,-y,z
y,-x,z
x,-y,1/2-z
-x,y,1/2-z
y,x,1/2-z
-y,-x,1/2-z
-x,-y,-z
y,-x,-z
x,y,-z
-y,x,-z
-x,y,1/2+z
x,-y,1/2+z
-y,-x,1/2+z
y,x,1/2+z
1/2+x,1/2+y,1/2+z
1/2-y,1/2+x,1/2+z
1/2-x,1/2-y,1/2+z
1/2+y,1/2-x,1/2+z
1/2+x,1/2-y,-z
1/2-x,1/2+y,-z
1/2+y,1/2+x,-z
1/2-y,1/2-x,-z
1/2-x,1/2-y,1/2-z
1/2+y,1/2-x,1/2-z
1/2+x,1/2+y,1/2-z
1/2-y,1/2+x,1/2-z
1/2-x,1/2+y,z
1/2+x,1/2-y,z
1/2-y,1/2-x,z
1/2+y,1/2+x,z
loop_
_atom_site_type_symbol
_atom_site_label
_atom_site_fract_x
_atom_site_fract_y
_atom_site_fract_z
Si Si1 0.810362 0.407035 0.500000
Si Si2 0.500896 0.600009 0.182193
Si Si3 0.875910 0.529017 0.500000
Si Si4 0.911666 0.310689 0.107868
Si Si5 0.873962 0.731114 0.117329
Si Si6 0.008276 0.242764 0.183714
Si Si7 0.786169 0.181068 0.436928
O O1 0.838627 0.338627 0.500000
O O2 0.863542 0.457326 0.500000
O O3 0.776349 0.410912 0.558755
O O4 0.440463 0.560522 0.164948
O O5 0.500000 0.600346 0.250000
O O6 0.501051 0.671338 0.164828
O O7 0.944712 0.555289 0.500000
O O8 0.842874 0.555926 0.554996
O O9 0.859208 0.359208 0.127990
O O10 0.877783 0.250207 0.084336
O O11 0.960128 0.288101 0.153498
O O12 0.826533 0.673468 0.124059
O O13 0.923183 0.737189 0.165880
O O14 0.834869 0.792808 0.106936
O O15 0.000000 0.245270 0.250000
O O16 0.810939 0.173019 0.500000
O O17 0.734623 0.234623 0.440582
#
# Coordination Sequence:
#
# PCOD9572049 Si02
#       7
#    16  32  16  32  32  32  32
#     4  10  18  32  53  77 103 129 165 217 272 319
#     4   8  16  33  53  71  95 129 172 219 257 291
#     4  10  18  32  53  77 103 129 165 217 272 319
#     4  10  20  34  53  78 108 138 173 217 267 321
#     4  10  20  34  53  78 108 138 173 217 267 321
#     4  11  23  35  52  76 105 145 188 223 254 304
#     4   9  16  30  53  81 108 133 163 210 274 332
#
# _framework density 16.975469
#
# number of rings (size 3 to 8) (size 9 to 14) (size 15 to 20)
#    0.000    2.333    3.333    0.500    2.333    0.833 
#    0.000    0.000    0.000    3.500    0.000    1.167 
#    0.000    4.000    0.000    0.000    0.000    0.000 
#
# Total GULP energy -534547.743582 kJ/mol
# GULP energy per Si atom -5568.205662 kJ/mol
# Density = 1.693683 g / cm^3
# Si number density = 16.975469 Si / 1000 Ang^3
#
#
#
# Elastic Constant Matrix: (Units=GPa)
#
#
# Indices 1 2 3 4 5 6 
#
# 1 77.0381 23.5105 25.9894 0.0000 0.0000 0.0000
# 2 23.5105 77.0387 25.9896 0.0000 0.0000 0.0000
# 3 25.9894 25.9896 65.5908 0.0000 0.0000 0.0000
# 4 0.0000 0.0000 0.0000 -6.4547 0.0000 0.0000
# 5 0.0000 0.0000 0.0000 0.0000 -6.4512 0.0000
# 6 0.0000 0.0000 0.0000 0.0000 0.0000 24.3589
#
#
#
# Elastic Compliance Matrix: (Units=1/GPa)
#
#
# Indices 1 2 3 4 5 6 
#
# 1 0.015595 -0.003087 -0.004956 0.000000 0.000000 0.000000
# 2 -0.003087 0.015595 -0.004956 0.000000 0.000000 0.000000
# 3 -0.004956 -0.004956 0.019173 0.000000 0.000000 0.000000
# 4 0.000000 0.000000 0.000000 -0.154926 0.000000 0.000000
# 5 0.000000 0.000000 0.000000 0.000000 -0.155009 0.000000
# 6 0.000000 0.000000 0.000000 0.000000 0.000000 0.041053
#
#
# Mechanical properties :
#
#
# Convention : Reuss Voigt Hill
#
# Bulk Modulus (GPa) = 41.04306 41.18296 41.11301
# Shear Modulus (GPa) = -27.11496 11.90246 -7.60625
#
# Velocity S-wave (km/s) = -4.00096 2.65081 -2.11907
# Velocity P-wave (km/s) = 1.69904 5.80362 4.27602
#
# Compressibility (1/GPa) = 0.02436465
#
# Stress axis : x y z
#
# Youngs Moduli (GPa) = 64.12450 64.12502 52.15545
#
# Poissons Ratio (x) = 0.19797 0.25848
# Poissons Ratio (y) = 0.19797 0.25848
# Poissons Ratio (z) = 0.31779 0.31780
#
# Static dielectric constant tensor:
#      x y z
#    x 1.588160 0.000000 0.000000 
#    y 0.000000 1.588160 0.000000 
#    z 0.000000 0.000000 1.581540 
# 
# From -- ./inp_files/9850.got.cif
#   From: 2010.05.17/outbox.cif.g08.bks.cpg/sg140_5_cif.got.tgz:9850.got - 2010.06.21 00:45:31.
