data_PCOD9572310
_publ_section_title
;
Structure prediction by ZEFSAII (Michael W. Deem and Ramdas Pophale) SiO2 
 PCOD9572310
Probable space group: I 4/M C M
;
_chemical_formula_sum "Si O2"
_cell_formula_units_Z 160
_cell_length_a 16.978235
_cell_length_b 16.978235
_cell_length_c 30.054969
_cell_angle_alpha 90.000000
_cell_angle_beta 90.000000
_cell_angle_gamma 90.000000
_cell_volume 8663.659301
_symmetry_space_group_name_H-M "I 4/M C M"
_symmetry_group_IT_number 140
_symmetry_cell_setting 'tetragonal'
loop_
_space_group_symop_operation_xyz
x,y,z
-y,x,z
-x,-y,z
y,-x,z
x,-y,1/2-z
-x,y,1/2-z
y,x,1/2-z
-y,-x,1/2-z
-x,-y,-z
y,-x,-z
x,y,-z
-y,x,-z
-x,y,1/2+z
x,-y,1/2+z
-y,-x,1/2+z
y,x,1/2+z
1/2+x,1/2+y,1/2+z
1/2-y,1/2+x,1/2+z
1/2-x,1/2-y,1/2+z
1/2+y,1/2-x,1/2+z
1/2+x,1/2-y,-z
1/2-x,1/2+y,-z
1/2+y,1/2+x,-z
1/2-y,1/2-x,-z
1/2-x,1/2-y,1/2-z
1/2+y,1/2-x,1/2-z
1/2+x,1/2+y,1/2-z
1/2-y,1/2+x,1/2-z
1/2-x,1/2+y,z
1/2+x,1/2-y,z
1/2-y,1/2-x,z
1/2+y,1/2+x,z
loop_
_atom_site_type_symbol
_atom_site_label
_atom_site_fract_x
_atom_site_fract_y
_atom_site_fract_z
Si Si1 0.943967 0.685890 0.109575
Si Si2 0.003362 0.367614 0.701408
Si Si3 0.275775 0.090366 0.949074
Si Si4 0.316034 0.313338 0.124093
Si Si5 0.096926 0.910633 0.698301
O O1 0.895221 0.604780 0.104864
O O2 0.985079 0.683521 0.158252
O O3 0.881178 0.755905 0.108864
O O4 0.008639 0.696270 0.071926
O O5 0.935128 0.435128 0.703719
O O6 0.000000 0.327378 0.750000
O O7 0.085116 0.414885 0.695729
O O8 0.348423 0.151578 0.948484
O O9 0.210902 0.126985 0.916157
O O10 0.249034 0.082340 0.000000
O O11 0.262547 0.237453 0.135772
O O12 0.363424 0.346542 0.165815
O O13 0.109918 0.890083 0.750000
O O14 0.004240 0.893016 0.690643
#
# Coordination Sequence:
#
# PCOD9572310 Si02
#       5
#    32  32  32  32  32
#     4  10  20  35  57  83 109 141 186 232 275 332
#     4   8  14  27  48  75 109 145 178 216 266 322
#     4  10  22  39  57  79 109 145 184 231 287 334
#     4  10  21  37  54  78 114 148 178 219 277 341
#     4   9  18  35  59  82 105 140 187 233 271 311
#
# _framework density 18.467946000000001
#
# number of rings (size 3 to 8) (size 9 to 14) (size 15 to 20)
#    0.000    2.600    0.000    3.000    0.000    2.800 
#    7.200    3.000    0.000    0.000    0.000    4.200 
#    0.000    0.000    0.000    0.000    0.000    0.000 
#
# Total GULP energy -446595.028535 kJ/mol
# GULP energy per Si atom -5582.437857 kJ/mol
# Density = 1.842591 g / cm^3
# Si number density = 18.467946 Si / 1000 Ang^3
#
#
#
# Elastic Constant Matrix: (Units=GPa)
#
#
# Indices 1 2 3 4 5 6 
#
# 1 64.0429 35.5383 75.4474 0.0000 0.0000 0.0000
# 2 35.5383 64.0434 75.4480 0.0000 0.0000 0.0000
# 3 75.4474 75.4480 163.1053 0.0000 0.0000 0.0000
# 4 0.0000 0.0000 0.0000 19.7031 0.0000 0.0000
# 5 0.0000 0.0000 0.0000 0.0000 19.7033 0.0000
# 6 0.0000 0.0000 0.0000 0.0000 0.0000 12.2650
#
#
#
# Elastic Compliance Matrix: (Units=1/GPa)
#
#
# Indices 1 2 3 4 5 6 
#
# 1 0.034330 -0.000752 -0.015532 0.000000 0.000000 0.000000
# 2 -0.000752 0.034330 -0.015532 0.000000 0.000000 0.000000
# 3 -0.015532 -0.015532 0.020500 0.000000 0.000000 0.000000
# 4 0.000000 0.000000 0.000000 0.050754 0.000000 0.000000
# 5 0.000000 0.000000 0.000000 0.000000 0.050753 0.000000
# 6 0.000000 0.000000 0.000000 0.000000 0.000000 0.081533
#
#
# Mechanical properties :
#
#
# Convention : Reuss Voigt Hill
#
# Bulk Modulus (GPa) = 39.17344 73.78434 56.47889
# Shear Modulus (GPa) = 14.52052 17.31813 15.91933
#
# Velocity S-wave (km/s) = 2.80707 3.06558 2.93916
# Velocity P-wave (km/s) = 5.63594 7.25050 6.49359
#
# Compressibility (1/GPa) = 0.02552750
#
# Stress axis : x y z
#
# Youngs Moduli (GPa) = 29.12930 29.12931 48.77968
#
# Poissons Ratio (x) = 0.02191 0.75765
# Poissons Ratio (y) = 0.02191 0.75765
# Poissons Ratio (z) = 0.45244 0.45244
#
# Static dielectric constant tensor:
#      x y z
#    x 1.635700 0.000000 0.000000 
#    y 0.000000 1.635700 0.000000 
#    z 0.000000 0.000000 1.617850 
# 
# From -- ./inp_files/10534.got.cif
#   From: 2010.05.17/outbox.cif.g08.bks.cpg/sg140_6_cif.got.tgz:10534.got - 2010.06.21 00:45:31.
