data_PCOD9572621
_publ_section_title
;
Structure prediction by ZEFSAII (Michael W. Deem and Ramdas Pophale) SiO2 
 PCOD9572621
Probable space group: I 4/M C M
;
_chemical_formula_sum "Si O2"
_cell_formula_units_Z 128
_cell_length_a 20.017094
_cell_length_b 20.017094
_cell_length_c 17.901226
_cell_angle_alpha 90.000000
_cell_angle_beta 90.000000
_cell_angle_gamma 90.000000
_cell_volume 7172.735773
_symmetry_space_group_name_H-M "I 4/M C M"
_symmetry_group_IT_number 140
_symmetry_cell_setting 'tetragonal'
loop_
_space_group_symop_operation_xyz
x,y,z
-y,x,z
-x,-y,z
y,-x,z
x,-y,1/2-z
-x,y,1/2-z
y,x,1/2-z
-y,-x,1/2-z
-x,-y,-z
y,-x,-z
x,y,-z
-y,x,-z
-x,y,1/2+z
x,-y,1/2+z
-y,-x,1/2+z
y,x,1/2+z
1/2+x,1/2+y,1/2+z
1/2-y,1/2+x,1/2+z
1/2-x,1/2-y,1/2+z
1/2+y,1/2-x,1/2+z
1/2+x,1/2-y,-z
1/2-x,1/2+y,-z
1/2+y,1/2+x,-z
1/2-y,1/2-x,-z
1/2-x,1/2-y,1/2-z
1/2+y,1/2-x,1/2-z
1/2+x,1/2+y,1/2-z
1/2-y,1/2+x,1/2-z
1/2-x,1/2+y,z
1/2+x,1/2-y,z
1/2-y,1/2-x,z
1/2+y,1/2+x,z
loop_
_atom_site_type_symbol
_atom_site_label
_atom_site_fract_x
_atom_site_fract_y
_atom_site_fract_z
Si Si1 0.236582 0.372058 0.913494
Si Si2 0.119749 0.483015 0.085672
Si Si3 0.324780 0.929685 0.706534
Si Si4 0.186578 0.921172 0.232649
O O1 0.198402 0.301599 0.896663
O O2 0.178031 0.427536 0.912613
O O3 0.287478 0.398883 0.850207
O O4 0.261596 0.368811 0.000000
O O5 0.053850 0.446151 0.118158
O O6 0.148585 0.546945 0.126911
O O7 0.105842 0.497860 0.000000
O O8 0.375140 0.875140 0.738529
O O9 0.249738 0.903686 0.713866
O O10 0.327240 0.000000 0.750000
O O11 0.121803 0.878198 0.250000
O O12 0.175378 0.000000 0.250000
#
# Coordination Sequence:
#
# PCOD9572621 Si02
#       4
#    32  32  32  32
#     4   9  17  34  60  86 114 151 188 221 275 354
#     4   9  17  31  52  78 112 153 190 221 261 324
#     4  11  21  33  50  78 113 148 187 225 270 330
#     4  11  23  40  60  84 109 145 191 249 307 349
#
# _framework density 17.845351999999998
#
# number of rings (size 3 to 8) (size 9 to 14) (size 15 to 20)
#    0.000    2.000    5.000    3.000    0.000    4.500 
#    0.000    3.750    0.000    0.000    0.000    1.750 
#    0.000    0.000    0.000    0.000    0.000    0.000 
#
# Total GULP energy -356310.113753 kJ/mol
# GULP energy per Si atom -5567.345527 kJ/mol
# Density = 1.780474 g / cm^3
# Si number density = 17.845352 Si / 1000 Ang^3
#
#
#
# Elastic Constant Matrix: (Units=GPa)
#
#
# Indices 1 2 3 4 5 6 
#
# 1 -99.4304 250.4362 40.3108 0.0000 0.0000 0.0000
# 2 250.4362 -99.3892 40.3261 0.0000 0.0000 0.0000
# 3 40.3108 40.3261 107.8024 0.0000 0.0000 0.0000
# 4 0.0000 0.0000 0.0000 10.5661 0.0000 0.0000
# 5 0.0000 0.0000 0.0000 0.0000 10.5684 0.0000
# 6 0.0000 0.0000 0.0000 0.0000 0.0000 32.9097
#
#
#
# Elastic Compliance Matrix: (Units=1/GPa)
#
#
# Indices 1 2 3 4 5 6 
#
# 1 0.002707 0.005566 -0.003094 0.000000 0.000000 0.000000
# 2 0.005566 0.002708 -0.003094 0.000000 0.000000 0.000000
# 3 -0.003094 -0.003094 0.011591 0.000000 0.000000 0.000000
# 4 0.000000 0.000000 0.000000 0.094642 0.000000 0.000000
# 5 0.000000 0.000000 0.000000 0.000000 0.094622 0.000000
# 6 0.000000 0.000000 0.000000 0.000000 0.000000 0.030386
#
#
# Mechanical properties :
#
#
# Convention : Reuss Voigt Hill
#
# Bulk Modulus (GPa) = 63.44965 63.45878 63.45421
# Shear Modulus (GPa) = 20.56299 -17.33053 1.61623
#
# Velocity S-wave (km/s) = 3.39822 -3.11971 0.95271
# Velocity P-wave (km/s) = 7.14350 4.76034 6.07003
#
# Compressibility (1/GPa) = 0.01576053
#
# Stress axis : x y z
#
# Youngs Moduli (GPa) = 369.38610 369.29018 86.27536
#
# Poissons Ratio (x) = -2.05545 0.26697
# Poissons Ratio (y) = -2.05598 0.26696
# Poissons Ratio (z) = 1.14302 1.14267
#
# Static dielectric constant tensor:
#      x y z
#    x 1.614870 0.000000 0.000000 
#    y 0.000000 1.614870 0.000000 
#    z 0.000000 0.000000 1.689090 
# 
# From -- ./inp_files/6470.got.cif
#   From: 2010.05.17/outbox.cif.g08.bks.cpg/sg140_4_cif.got.tgz:6470.got - 2010.06.21 00:45:31.
