data_PCOD9572792
_publ_section_title
;
Structure prediction by ZEFSAII (Michael W. Deem and Ramdas Pophale) SiO2 
 PCOD9572792
Probable space group: I 41/A M D
;
_chemical_formula_sum "Si O2"
_cell_formula_units_Z 192
_cell_length_a 19.907273
_cell_length_b 19.907273
_cell_length_c 28.252958
_cell_angle_alpha 90.000000
_cell_angle_beta 90.000000
_cell_angle_gamma 90.000000
_cell_volume 11196.633646
_symmetry_space_group_name_H-M "I 41/A M D"
_symmetry_group_IT_number 141
_space_group.IT_coordinate_system_code '2'
_symmetry_cell_setting 'tetragonal'
loop_
_space_group_symop_operation_xyz
x,y,z
1/4-y,3/4+x,1/4+z
-x,1/2-y,z
1/4+y,1/4-x,3/4+z
x,-y,-z
-x,1/2+y,-z
1/4+y,3/4+x,1/4-z
1/4-y,1/4-x,3/4-z
-x,-y,-z
3/4+y,1/4-x,3/4-z
x,1/2+y,-z
3/4-y,3/4+x,1/4-z
-x,y,z
x,1/2-y,z
3/4-y,1/4-x,3/4+z
3/4+y,3/4+x,1/4+z
1/2+x,1/2+y,1/2+z
3/4-y,1/4+x,3/4+z
1/2-x,-y,1/2+z
3/4+y,3/4-x,1/4+z
1/2+x,1/2-y,1/2-z
1/2-x,y,1/2-z
3/4+y,1/4+x,3/4-z
3/4-y,3/4-x,1/4-z
1/2-x,1/2-y,1/2-z
1/4+y,3/4-x,1/4-z
1/2+x,y,1/2-z
1/4-y,1/4+x,3/4-z
1/2-x,1/2+y,1/2+z
1/2+x,-y,1/2+z
1/4-y,3/4-x,1/4+z
1/4+y,1/4+x,3/4+z
loop_
_atom_site_type_symbol
_atom_site_label
_atom_site_fract_x
_atom_site_fract_y
_atom_site_fract_z
Si Si1 0.675948 0.578910 0.009487
Si Si2 0.168139 0.825791 0.247170
Si Si3 0.251611 0.081717 0.083829
Si Si4 0.080159 0.623830 0.336160
Si Si5 0.579465 0.323500 0.940308
Si Si6 0.190334 0.555359 0.180583
O O1 0.613826 0.618590 0.029782
O O2 0.735271 0.586397 0.048396
O O3 0.663035 0.500000 0.000000
O O4 0.702358 0.605469 0.959264
O O5 0.148334 0.750000 0.233328
O O6 0.250000 0.824820 0.250000
O O7 0.125337 0.845350 0.293886
O O8 0.157462 0.884268 0.209051
O O9 0.296160 0.046160 0.125000
O O10 0.200496 0.140287 0.097660
O O11 0.204998 0.020952 0.063088
O O12 0.090185 0.665120 0.384400
O O13 0.000000 0.622536 0.325202
O O14 0.500000 0.324904 0.947947
O O15 0.606131 0.250000 0.953740
O O16 0.182983 0.567018 0.125000
#
# Coordination Sequence:
#
# PCOD9572792 Si02
#       6
#    32  32  32  32  32  32
#     4  10  19  34  57  82 111 146 185 236 287 339
#     4  11  21  35  55  80 113 154 198 243 293 347
#     4  10  19  35  59  85 114 146 185 238 294 344
#     4  11  21  37  57  83 118 155 195 242 295 353
#     4  10  22  38  56  82 116 149 185 233 289 352
#     4  10  18  34  55  80 115 145 189 241 287 336
#
# _framework density 17.148011
#
# number of rings (size 3 to 8) (size 9 to 14) (size 15 to 20)
#    0.000    1.667    3.333    4.000    0.000    2.000 
#    0.000    1.667    0.000    0.000    0.000    1.167 
#    0.000    0.000    0.000    0.000    0.000    0.000 
#
# Total GULP energy -534887.908382 kJ/mol
# GULP energy per Si atom -5571.749046 kJ/mol
# Density = 1.710898 g / cm^3
# Si number density = 17.148011 Si / 1000 Ang^3
#
#
#
# Elastic Constant Matrix: (Units=GPa)
#
#
# Indices 1 2 3 4 5 6 
#
# 1 73.2484 46.6025 41.1359 0.0000 0.0000 0.0000
# 2 46.6025 73.2486 41.1360 0.0000 0.0000 0.0000
# 3 41.1359 41.1360 84.3507 0.0000 0.0000 0.0000
# 4 0.0000 0.0000 0.0000 22.7968 0.0000 0.0000
# 5 0.0000 0.0000 0.0000 0.0000 22.7968 0.0000
# 6 0.0000 0.0000 0.0000 0.0000 0.0000 16.7913
#
#
#
# Elastic Compliance Matrix: (Units=1/GPa)
#
#
# Indices 1 2 3 4 5 6 
#
# 1 0.025036 -0.012493 -0.006117 0.000000 0.000000 0.000000
# 2 -0.012493 0.025036 -0.006117 0.000000 0.000000 0.000000
# 3 -0.006117 -0.006117 0.017821 0.000000 0.000000 0.000000
# 4 0.000000 0.000000 0.000000 0.043866 0.000000 0.000000
# 5 0.000000 0.000000 0.000000 0.000000 0.043866 0.000000
# 6 0.000000 0.000000 0.000000 0.000000 0.000000 0.059555
#
#
# Mechanical properties :
#
#
# Convention : Reuss Voigt Hill
#
# Bulk Modulus (GPa) = 54.23156 54.28847 54.26002
# Shear Modulus (GPa) = 18.46525 19.27521 18.87023
#
# Velocity S-wave (km/s) = 3.28505 3.35632 3.32088
# Velocity P-wave (km/s) = 6.78844 6.83720 6.81287
#
# Compressibility (1/GPa) = 0.01843945
#
# Stress axis : x y z
#
# Youngs Moduli (GPa) = 39.94274 39.94282 56.11282
#
# Poissons Ratio (x) = 0.49902 0.34323
# Poissons Ratio (y) = 0.49902 0.34323
# Poissons Ratio (z) = 0.24432 0.24432
#
# Static dielectric constant tensor:
#      x y z
#    x 1.592560 0.000000 0.000000 
#    y 0.000000 1.592560 0.000000 
#    z 0.000000 0.000000 1.595280 
# 
# From -- ./inp_files/13056.got.cif
#   From: 2010.05.17/outbox.cif.g08.bks.cpg/sg141_7_cif.got.tgz:13056.got - 2010.05.20 13:30:51.
