data_PCOD9572057
_publ_section_title
;
Structure prediction by ZEFSAII (Michael W. Deem and Ramdas Pophale) SiO2 
 PCOD9572057
Probable space group: I 4/M C M
;
_chemical_formula_sum "Si O2"
_cell_formula_units_Z 160
_cell_length_a 30.787816
_cell_length_b 30.787816
_cell_length_c 10.288511
_cell_angle_alpha 90.000000
_cell_angle_beta 90.000000
_cell_angle_gamma 90.000000
_cell_volume 9752.372721
_symmetry_space_group_name_H-M "I 4/M C M"
_symmetry_group_IT_number 140
_symmetry_cell_setting 'tetragonal'
loop_
_space_group_symop_operation_xyz
x,y,z
-y,x,z
-x,-y,z
y,-x,z
x,-y,1/2-z
-x,y,1/2-z
y,x,1/2-z
-y,-x,1/2-z
-x,-y,-z
y,-x,-z
x,y,-z
-y,x,-z
-x,y,1/2+z
x,-y,1/2+z
-y,-x,1/2+z
y,x,1/2+z
1/2+x,1/2+y,1/2+z
1/2-y,1/2+x,1/2+z
1/2-x,1/2-y,1/2+z
1/2+y,1/2-x,1/2+z
1/2+x,1/2-y,-z
1/2-x,1/2+y,-z
1/2+y,1/2+x,-z
1/2-y,1/2-x,-z
1/2-x,1/2-y,1/2-z
1/2+y,1/2-x,1/2-z
1/2+x,1/2+y,1/2-z
1/2-y,1/2+x,1/2-z
1/2-x,1/2+y,z
1/2+x,1/2-y,z
1/2-y,1/2-x,z
1/2+y,1/2+x,z
loop_
_atom_site_type_symbol
_atom_site_label
_atom_site_fract_x
_atom_site_fract_y
_atom_site_fract_z
Si Si1 0.046000 0.749688 0.000000
Si Si2 0.612797 0.112797 0.348294
Si Si3 0.836857 0.905980 0.000000
Si Si4 0.450307 0.186675 0.753574
Si Si5 0.380234 0.448631 0.751059
Si Si6 0.040012 0.540012 0.156695
Si Si7 0.663996 0.404919 0.500000
Si Si8 0.552800 0.246165 0.000000
O O1 0.082961 0.786168 0.000000
O O2 0.049882 0.719547 0.125572
O O3 0.996038 0.767179 0.000000
O O4 0.623587 0.123587 0.500000
O O5 0.588519 0.152640 0.277300
O O6 0.576079 0.076079 0.350038
O O7 0.856327 0.929616 0.125601
O O8 0.856541 0.857118 0.000000
O O9 0.500000 0.167615 0.750000
O O10 0.444038 0.215167 0.624753
O O11 0.379956 0.500000 0.750000
O O12 0.428339 0.428339 0.750000
O O13 0.355315 0.429382 0.874947
O O14 0.055216 0.500000 0.250000
O O15 0.030954 0.530954 0.000000
O O16 0.715533 0.411918 0.500000
#
# Coordination Sequence:
#
# PCOD9572057 Si02
#       8
#    16  16  16  32  32  16  16  16
#     4  10  18  33  55  76 105 138 177 215 267 325
#     4  11  21  37  56  75 110 143 173 223 258 307
#     4  10  20  32  52  77  99 137 177 215 269 325
#     4  10  21  36  54  82 107 139 180 213 264 316
#     4  10  19  30  45  67  98 135 177 215 257 312
#     4  10  20  35  52  76 106 145 188 217 249 296
#     4  10  20  34  50  75 105 133 173 223 273 317
#     4  10  20  33  53  78 109 136 171 229 269 315
#
# _framework density 16.406262999999999
#
# number of rings (size 3 to 8) (size 9 to 14) (size 15 to 20)
#    0.000    1.900    1.000    4.200    0.000    2.200 
#    3.600    0.000    0.000    3.600    0.000    4.200 
#    0.000    0.000    0.000    0.000    0.000    0.000 
#
# Total GULP energy -445629.599079 kJ/mol
# GULP energy per Si atom -5570.369988 kJ/mol
# Density = 1.636892 g / cm^3
# Si number density = 16.406263 Si / 1000 Ang^3
#
#
#
# Elastic Constant Matrix: (Units=GPa)
#
#
# Indices 1 2 3 4 5 6 
#
# 1 93.9499 44.5299 32.5682 0.0000 0.0000 0.0000
# 2 44.5299 93.9499 32.5682 0.0000 0.0000 0.0000
# 3 32.5682 32.5682 144.9043 0.0000 0.0000 0.0000
# 4 0.0000 0.0000 0.0000 18.6485 0.0000 0.0000
# 5 0.0000 0.0000 0.0000 0.0000 18.6485 0.0000
# 6 0.0000 0.0000 0.0000 0.0000 0.0000 33.5040
#
#
#
# Elastic Compliance Matrix: (Units=1/GPa)
#
#
# Indices 1 2 3 4 5 6 
#
# 1 0.014155 -0.006080 -0.001815 0.000000 0.000000 0.000000
# 2 -0.006080 0.014155 -0.001815 0.000000 0.000000 0.000000
# 3 -0.001815 -0.001815 0.007717 0.000000 0.000000 0.000000
# 4 0.000000 0.000000 0.000000 0.053624 0.000000 0.000000
# 5 0.000000 0.000000 0.000000 0.000000 0.053624 0.000000
# 6 0.000000 0.000000 0.000000 0.000000 0.000000 0.029847
#
#
# Mechanical properties :
#
#
# Convention : Reuss Voigt Hill
#
# Bulk Modulus (GPa) = 60.21481 61.34855 60.78168
# Shear Modulus (GPa) = 25.24281 29.03605 27.13943
#
# Velocity S-wave (km/s) = 3.92676 4.21148 4.07161
# Velocity P-wave (km/s) = 7.57240 7.81814 7.69625
#
# Compressibility (1/GPa) = 0.01660721
#
# Stress axis : x y z
#
# Youngs Moduli (GPa) = 70.64728 70.64728 129.58528
#
# Poissons Ratio (x) = 0.42953 0.23518
# Poissons Ratio (y) = 0.42953 0.23518
# Poissons Ratio (z) = 0.12822 0.12822
#
# Static dielectric constant tensor:
#      x y z
#    x 1.558300 0.000000 0.000000 
#    y 0.000000 1.558300 0.000000 
#    z 0.000000 0.000000 1.527320 
# 
# From -- ./inp_files/1923.got.cif
#   From: 2010.05.17/outbox.cif.g08.bks.cpg/sg140_1_cif.got.tgz:1923.got - 2010.06.21 00:45:31.
