data_PCOD9572941
_publ_section_title
;
Structure prediction by ZEFSAII (Michael W. Deem and Ramdas Pophale) SiO2 
 PCOD9572941
Probable space group: I 41/A M D
;
_chemical_formula_sum "Si O2"
_cell_formula_units_Z 160
_cell_length_a 21.286136
_cell_length_b 21.286136
_cell_length_c 18.065011
_cell_angle_alpha 90.000000
_cell_angle_beta 90.000000
_cell_angle_gamma 90.000000
_cell_volume 8185.249002
_symmetry_space_group_name_H-M "I 41/A M D"
_symmetry_group_IT_number 141
_space_group.IT_coordinate_system_code '2'
_symmetry_cell_setting 'tetragonal'
loop_
_space_group_symop_operation_xyz
x,y,z
1/4-y,3/4+x,1/4+z
-x,1/2-y,z
1/4+y,1/4-x,3/4+z
x,-y,-z
-x,1/2+y,-z
1/4+y,3/4+x,1/4-z
1/4-y,1/4-x,3/4-z
-x,-y,-z
3/4+y,1/4-x,3/4-z
x,1/2+y,-z
3/4-y,3/4+x,1/4-z
-x,y,z
x,1/2-y,z
3/4-y,1/4-x,3/4+z
3/4+y,3/4+x,1/4+z
1/2+x,1/2+y,1/2+z
3/4-y,1/4+x,3/4+z
1/2-x,-y,1/2+z
3/4+y,3/4-x,1/4+z
1/2+x,1/2-y,1/2-z
1/2-x,y,1/2-z
3/4+y,1/4+x,3/4-z
3/4-y,3/4-x,1/4-z
1/2-x,1/2-y,1/2-z
1/4+y,3/4-x,1/4-z
1/2+x,y,1/2-z
1/4-y,1/4+x,3/4-z
1/2-x,1/2+y,1/2+z
1/2+x,-y,1/2+z
1/4-y,3/4-x,1/4+z
1/4+y,1/4+x,3/4+z
loop_
_atom_site_type_symbol
_atom_site_label
_atom_site_fract_x
_atom_site_fract_y
_atom_site_fract_z
Si Si1 0.203331 0.821528 0.567127
Si Si2 0.675097 0.323646 0.654105
Si Si3 0.841993 0.317922 0.115207
Si Si4 0.619929 0.067216 0.017860
Si Si5 0.572176 0.934591 0.583190
O O1 0.185729 0.750000 0.547930
O O2 0.278878 0.826279 0.566958
O O3 0.185753 0.836224 0.652782
O O4 0.168194 0.875000 0.521136
O O5 0.621965 0.371965 0.625000
O O6 0.663926 0.250000 0.631867
O O7 0.747258 0.342233 0.635071
O O8 0.680034 0.323822 0.743577
O O9 0.869913 0.250000 0.096793
O O10 0.823952 0.320714 0.201648
O O11 0.886353 0.376621 0.106487
O O12 0.652409 0.000000 0.000000
O O13 0.500000 0.926953 0.605759
#
# Coordination Sequence:
#
# PCOD9572941 Si02
#       5
#    32  32  32  32  32
#     4   9  18  34  54  76 106 141 182 228 267 315
#     4   9  19  38  60  81 106 143 182 221 272 324
#     4  10  20  34  53  78 106 143 182 219 270 325
#     4   9  18  34  53  77 106 141 180 224 270 319
#     4   9  20  38  54  76 111 143 174 221 276 323
#
# _framework density 19.547357999999999
#
# number of rings (size 3 to 8) (size 9 to 14) (size 15 to 20)
#    0.000    2.800    0.000    1.800    0.000    6.200 
#   10.800    6.000    0.000    9.600    0.000    0.000 
#    0.000    0.000    0.000    0.000    0.000    0.000 
#
# Total GULP energy -445766.292992 kJ/mol
# GULP energy per Si atom -5572.078662 kJ/mol
# Density = 1.950287 g / cm^3
# Si number density = 19.547358 Si / 1000 Ang^3
#
#
#
# Elastic Constant Matrix: (Units=GPa)
#
#
# Indices 1 2 3 4 5 6 
#
# 1 147.1337 114.5380 24.0448 0.0000 0.0000 0.0000
# 2 114.5380 147.1337 24.0448 0.0000 0.0000 0.0000
# 3 24.0448 24.0448 33.3466 0.0000 0.0000 0.0000
# 4 0.0000 0.0000 0.0000 17.3480 0.0000 0.0000
# 5 0.0000 0.0000 0.0000 0.0000 17.3480 0.0000
# 6 0.0000 0.0000 0.0000 0.0000 0.0000 44.0720
#
#
#
# Elastic Compliance Matrix: (Units=1/GPa)
#
#
# Indices 1 2 3 4 5 6 
#
# 1 0.017542 -0.013137 -0.003177 0.000000 0.000000 0.000000
# 2 -0.013137 0.017542 -0.003177 0.000000 0.000000 0.000000
# 3 -0.003177 -0.003177 0.034569 0.000000 0.000000 0.000000
# 4 0.000000 0.000000 0.000000 0.057643 0.000000 0.000000
# 5 0.000000 0.000000 0.000000 0.000000 0.057643 0.000000
# 6 0.000000 0.000000 0.000000 0.000000 0.000000 0.022690
#
#
# Mechanical properties :
#
#
# Convention : Reuss Voigt Hill
#
# Bulk Modulus (GPa) = 32.60135 72.54103 52.57119
# Shear Modulus (GPa) = 19.46780 26.75270 23.11025
#
# Velocity S-wave (km/s) = 3.15926 3.70349 3.44215
# Velocity P-wave (km/s) = 5.47925 7.44840 6.53838
#
# Compressibility (1/GPa) = 0.03067358
#
# Stress axis : x y z
#
# Youngs Moduli (GPa) = 57.00560 57.00560 28.92772
#
# Poissons Ratio (x) = 0.74887 0.09189
# Poissons Ratio (y) = 0.74887 0.09189
# Poissons Ratio (z) = 0.18108 0.18108
#
# Static dielectric constant tensor:
#      x y z
#    x 1.678200 0.000000 0.000000 
#    y 0.000000 1.678200 0.000000 
#    z 0.000000 0.000000 1.783660 
# 
# From -- ./inp_files/8548.got.cif
#   From: 2010.05.17/outbox.cif.g08.bks.cpg/sg141_5_cif.got.tgz:8548.got - 2010.05.20 13:30:51.
