data_PCOD9572076
_publ_section_title
;
Structure prediction by ZEFSAII (Michael W. Deem and Ramdas Pophale) SiO2 
 PCOD9572076
Probable space group: I 4/M C M
;
_chemical_formula_sum "Si O2"
_cell_formula_units_Z 224
_cell_length_a 24.464802
_cell_length_b 24.464802
_cell_length_c 25.970430
_cell_angle_alpha 90.000000
_cell_angle_beta 90.000000
_cell_angle_gamma 90.000000
_cell_volume 15543.991530
_symmetry_space_group_name_H-M "I 4/M C M"
_symmetry_group_IT_number 140
_symmetry_cell_setting 'tetragonal'
loop_
_space_group_symop_operation_xyz
x,y,z
-y,x,z
-x,-y,z
y,-x,z
x,-y,1/2-z
-x,y,1/2-z
y,x,1/2-z
-y,-x,1/2-z
-x,-y,-z
y,-x,-z
x,y,-z
-y,x,-z
-x,y,1/2+z
x,-y,1/2+z
-y,-x,1/2+z
y,x,1/2+z
1/2+x,1/2+y,1/2+z
1/2-y,1/2+x,1/2+z
1/2-x,1/2-y,1/2+z
1/2+y,1/2-x,1/2+z
1/2+x,1/2-y,-z
1/2-x,1/2+y,-z
1/2+y,1/2+x,-z
1/2-y,1/2-x,-z
1/2-x,1/2-y,1/2-z
1/2+y,1/2-x,1/2-z
1/2+x,1/2+y,1/2-z
1/2-y,1/2+x,1/2-z
1/2-x,1/2+y,z
1/2+x,1/2-y,z
1/2-y,1/2-x,z
1/2+y,1/2+x,z
loop_
_atom_site_type_symbol
_atom_site_label
_atom_site_fract_x
_atom_site_fract_y
_atom_site_fract_z
Si Si1 0.364844 0.229367 0.354832
Si Si2 0.048879 0.361828 0.289775
Si Si3 0.169876 0.422572 0.056957
Si Si4 0.682556 0.723158 0.856758
Si Si5 0.125201 0.535908 0.909273
Si Si6 0.633981 0.226740 0.737298
Si Si7 0.215678 0.622588 0.942179
O O1 0.320239 0.179761 0.354208
O O2 0.410274 0.211527 0.396209
O O3 0.331357 0.283914 0.368708
O O4 0.383733 0.237697 0.295834
O O5 0.089070 0.410931 0.272791
O O6 0.029923 0.374660 0.347487
O O7 0.086454 0.307922 0.290084
O O8 0.000000 0.356213 0.250000
O O9 0.127940 0.372061 0.056550
O O10 0.134670 0.477100 0.066313
O O11 0.195840 0.425623 0.000000
O O12 0.728436 0.771565 0.855739
O O13 0.654142 0.725486 0.800585
O O14 0.639088 0.739484 0.900261
O O15 0.071397 0.571397 0.923985
O O16 0.177429 0.572628 0.924895
O O17 0.685879 0.185879 0.741581
O O18 0.173895 0.673895 0.943884
O O19 0.236715 0.613692 0.000000
#
# Coordination Sequence:
#
# PCOD9572076 Si02
#       7
#    32  32  32  32  32  32  32
#     4   9  17  27  42  60  80 105 129 160 209 261
#     4  10  19  29  42  58  81 109 140 183 229 266
#     4  10  21  34  44  57  79 107 143 182 218 261
#     4   9  15  25  41  62  82 101 127 162 206 255
#     4  10  19  32  46  59  77 105 144 188 223 253
#     4   9  15  26  41  59  81 101 128 167 208 256
#     4   9  16  26  41  60  79  99 129 171 212 244
#
# _framework density 14.410712999999999
#
# number of rings (size 3 to 8) (size 9 to 14) (size 15 to 20)
#    0.000    2.571    1.429    1.714    0.000    5.286 
#    0.000    5.000    0.000    0.000    0.000    0.000 
#    0.000    0.000    0.000    0.000    0.000    0.714 
#
# Total GULP energy -623509.549791 kJ/mol
# GULP energy per Si atom -5567.049552 kJ/mol
# Density = 1.437791 g / cm^3
# Si number density = 14.410713 Si / 1000 Ang^3
#
#
#
# Elastic Constant Matrix: (Units=GPa)
#
#
# Indices 1 2 3 4 5 6 
#
# 1 16.6415 19.0275 21.5735 0.0000 0.0000 0.0000
# 2 19.0275 16.6415 21.5735 0.0000 0.0000 0.0000
# 3 21.5735 21.5735 95.4316 0.0000 0.0000 0.0000
# 4 0.0000 0.0000 0.0000 14.3312 0.0000 0.0000
# 5 0.0000 0.0000 0.0000 0.0000 14.3312 0.0000
# 6 0.0000 0.0000 0.0000 0.0000 0.0000 10.1041
#
#
#
# Elastic Compliance Matrix: (Units=1/GPa)
#
#
# Indices 1 2 3 4 5 6 
#
# 1 -0.190262 0.228849 -0.008723 0.000000 0.000000 0.000000
# 2 0.228849 -0.190262 -0.008723 0.000000 0.000000 0.000000
# 3 -0.008723 -0.008723 0.014423 0.000000 0.000000 0.000000
# 4 0.000000 0.000000 0.000000 0.069778 0.000000 0.000000
# 5 0.000000 0.000000 0.000000 0.000000 0.069778 0.000000
# 6 0.000000 0.000000 0.000000 0.000000 0.000000 0.098969
#
#
# Mechanical properties :
#
#
# Convention : Reuss Voigt Hill
#
# Bulk Modulus (GPa) = 17.63514 28.11818 22.87666
# Shear Modulus (GPa) = -9.40769 12.18932 1.39082
#
# Velocity S-wave (km/s) = -2.55782 2.91151 0.98348
# Velocity P-wave (km/s) = 1.88171 5.55490 4.14715
#
# Compressibility (1/GPa) = 0.05670495
#
# Stress axis : x y z
#
# Youngs Moduli (GPa) = -5.25592 -5.25592 69.33526
#
# Poissons Ratio (x) = 1.20281 0.60482
# Poissons Ratio (y) = 1.20281 0.60482
# Poissons Ratio (z) = -0.04585 -0.04585
#
# Static dielectric constant tensor:
#      x y z
#    x 1.462410 0.000000 0.000000 
#    y 0.000000 1.462410 0.000000 
#    z 0.000000 0.000000 1.526400 
# 
# From -- ./inp_files/9959.got.cif
#   From: 2010.05.17/outbox.cif.g08.bks.cpg/sg140_5_cif.got.tgz:9959.got - 2010.06.21 00:45:31.
