data_PCOD9572916
_publ_section_title
;
Structure prediction by ZEFSAII (Michael W. Deem and Ramdas Pophale) SiO2 
 PCOD9572916
Probable space group: I 41/A M D
;
_chemical_formula_sum "Si O2"
_cell_formula_units_Z 128
_cell_length_a 20.420915
_cell_length_b 20.420915
_cell_length_c 19.974571
_cell_angle_alpha 90.000000
_cell_angle_beta 90.000000
_cell_angle_gamma 90.000000
_cell_volume 8329.671146
_symmetry_space_group_name_H-M "I 41/A M D"
_symmetry_group_IT_number 141
_space_group.IT_coordinate_system_code '2'
_symmetry_cell_setting 'tetragonal'
loop_
_space_group_symop_operation_xyz
x,y,z
1/4-y,3/4+x,1/4+z
-x,1/2-y,z
1/4+y,1/4-x,3/4+z
x,-y,-z
-x,1/2+y,-z
1/4+y,3/4+x,1/4-z
1/4-y,1/4-x,3/4-z
-x,-y,-z
3/4+y,1/4-x,3/4-z
x,1/2+y,-z
3/4-y,3/4+x,1/4-z
-x,y,z
x,1/2-y,z
3/4-y,1/4-x,3/4+z
3/4+y,3/4+x,1/4+z
1/2+x,1/2+y,1/2+z
3/4-y,1/4+x,3/4+z
1/2-x,-y,1/2+z
3/4+y,3/4-x,1/4+z
1/2+x,1/2-y,1/2-z
1/2-x,y,1/2-z
3/4+y,1/4+x,3/4-z
3/4-y,3/4-x,1/4-z
1/2-x,1/2-y,1/2-z
1/4+y,3/4-x,1/4-z
1/2+x,y,1/2-z
1/4-y,1/4+x,3/4-z
1/2-x,1/2+y,1/2+z
1/2+x,-y,1/2+z
1/4-y,3/4-x,1/4+z
1/4+y,1/4+x,3/4+z
loop_
_atom_site_type_symbol
_atom_site_label
_atom_site_fract_x
_atom_site_fract_y
_atom_site_fract_z
Si Si1 0.607774 0.822052 0.299924
Si Si2 0.072442 0.459612 0.743607
Si Si3 0.427056 0.505070 0.602043
Si Si4 0.216241 0.043081 0.067078
O O1 0.592249 0.750000 0.273879
O O2 0.579028 0.829028 0.375000
O O3 0.582387 0.881914 0.256284
O O4 0.685992 0.827740 0.312317
O O5 0.075702 0.488392 0.819003
O O6 0.132630 0.485261 0.700038
O O7 0.000000 0.472385 0.716492
O O8 0.500000 0.532684 0.587767
O O9 0.361021 0.543066 0.585480
O O10 0.257645 0.007645 0.125000
O O11 0.223403 0.000000 0.000000
#
# Coordination Sequence:
#
# PCOD9572916 Si02
#       4
#    32  32  32  32
#     4   9  15  24  39  62  97 139 174 197 224 274
#     4  10  20  32  45  67 101 131 163 208 254 292
#     4   9  17  29  46  72 103 136 170 203 237 285
#     4  12  20  33  53  75  99 132 174 211 246 295
#
# _framework density 15.366752
#
# number of rings (size 3 to 8) (size 9 to 14) (size 15 to 20)
#    0.000    2.000    5.000    3.000    0.000    3.250 
#    0.000    0.000    0.000    0.750    0.000    0.000 
#    0.000    0.500    0.000    0.000    0.000    0.000 
#
# Total GULP energy -357027.253640 kJ/mol
# GULP energy per Si atom -5578.550838 kJ/mol
# Density = 1.533178 g / cm^3
# Si number density = 15.366752 Si / 1000 Ang^3
#
#
#
# Elastic Constant Matrix: (Units=GPa)
#
#
# Indices 1 2 3 4 5 6 
#
# 1 78.3946 25.9016 37.2722 0.0000 0.0000 0.0000
# 2 25.9016 78.3946 37.2722 0.0000 0.0000 0.0000
# 3 37.2722 37.2722 63.5385 0.0000 0.0000 0.0000
# 4 0.0000 0.0000 0.0000 17.3955 0.0000 0.0000
# 5 0.0000 0.0000 0.0000 0.0000 17.3955 0.0000
# 6 0.0000 0.0000 0.0000 0.0000 0.0000 8.3598
#
#
#
# Elastic Compliance Matrix: (Units=1/GPa)
#
#
# Indices 1 2 3 4 5 6 
#
# 1 0.017780 -0.001270 -0.009685 0.000000 0.000000 0.000000
# 2 -0.001270 0.017780 -0.009685 0.000000 0.000000 0.000000
# 3 -0.009685 -0.009685 0.027101 0.000000 0.000000 0.000000
# 4 0.000000 0.000000 0.000000 0.057486 0.000000 0.000000
# 5 0.000000 0.000000 0.000000 0.000000 0.057486 0.000000
# 6 0.000000 0.000000 0.000000 0.000000 0.000000 0.119621
#
#
# Mechanical properties :
#
#
# Convention : Reuss Voigt Hill
#
# Bulk Modulus (GPa) = 46.76939 46.80220 46.78580
# Shear Modulus (GPa) = 14.46497 16.62224 15.54360
#
# Velocity S-wave (km/s) = 3.07142 3.29249 3.18387
# Velocity P-wave (km/s) = 6.56351 6.70648 6.63538
#
# Compressibility (1/GPa) = 0.02138150
#
# Stress axis : x y z
#
# Youngs Moduli (GPa) = 56.24201 56.24201 36.89860
#
# Poissons Ratio (x) = 0.07142 0.35737
# Poissons Ratio (y) = 0.07142 0.35737
# Poissons Ratio (z) = 0.54471 0.54471
#
# Static dielectric constant tensor:
#      x y z
#    x 1.534830 0.000000 0.000000 
#    y 0.000000 1.534830 0.000000 
#    z 0.000000 0.000000 1.510980 
# 
# From -- ./inp_files/8220.got.cif
#   From: 2010.05.17/outbox.cif.g08.bks.cpg/sg141_5_cif.got.tgz:8220.got - 2010.05.20 13:30:51.
