data_PCOD9572939
_publ_section_title
;
Structure prediction by ZEFSAII (Michael W. Deem and Ramdas Pophale) SiO2 
 PCOD9572939
Probable space group: I 41/A M D
;
_chemical_formula_sum "Si O2"
_cell_formula_units_Z 160
_cell_length_a 19.032171
_cell_length_b 19.032171
_cell_length_c 24.741315
_cell_angle_alpha 90.000000
_cell_angle_beta 90.000000
_cell_angle_gamma 90.000000
_cell_volume 8961.886530
_symmetry_space_group_name_H-M "I 41/A M D"
_symmetry_group_IT_number 141
_space_group.IT_coordinate_system_code '2'
_symmetry_cell_setting 'tetragonal'
loop_
_space_group_symop_operation_xyz
x,y,z
1/4-y,3/4+x,1/4+z
-x,1/2-y,z
1/4+y,1/4-x,3/4+z
x,-y,-z
-x,1/2+y,-z
1/4+y,3/4+x,1/4-z
1/4-y,1/4-x,3/4-z
-x,-y,-z
3/4+y,1/4-x,3/4-z
x,1/2+y,-z
3/4-y,3/4+x,1/4-z
-x,y,z
x,1/2-y,z
3/4-y,1/4-x,3/4+z
3/4+y,3/4+x,1/4+z
1/2+x,1/2+y,1/2+z
3/4-y,1/4+x,3/4+z
1/2-x,-y,1/2+z
3/4+y,3/4-x,1/4+z
1/2+x,1/2-y,1/2-z
1/2-x,y,1/2-z
3/4+y,1/4+x,3/4-z
3/4-y,3/4-x,1/4-z
1/2-x,1/2-y,1/2-z
1/4+y,3/4-x,1/4-z
1/2+x,y,1/2-z
1/4-y,1/4+x,3/4-z
1/2-x,1/2+y,1/2+z
1/2+x,-y,1/2+z
1/4-y,3/4-x,1/4+z
1/4+y,1/4+x,3/4+z
loop_
_atom_site_type_symbol
_atom_site_label
_atom_site_fract_x
_atom_site_fract_y
_atom_site_fract_z
Si Si1 0.290488 0.333362 0.994400
Si Si2 0.312293 0.667803 0.586077
Si Si3 0.300618 0.669149 0.201427
Si Si4 0.808444 0.669449 0.103251
Si Si5 0.680363 0.831153 0.713841
O O1 0.301363 0.250000 0.986600
O O2 0.259675 0.346090 0.053890
O O3 0.228987 0.354394 0.952085
O O4 0.361376 0.374431 0.982443
O O5 0.330031 0.750000 0.576879
O O6 0.371037 0.617184 0.560931
O O7 0.305265 0.656952 0.650165
O O8 0.321240 0.750000 0.213822
O O9 0.250000 0.644367 0.250000
O O10 0.252858 0.669391 0.147960
O O11 0.869320 0.619320 0.125000
O O12 0.833144 0.750000 0.096395
O O13 0.656242 0.750000 0.719750
O O14 0.750000 0.839219 0.750000
#
# Coordination Sequence:
#
# PCOD9572939 Si02
#       5
#    32  32  32  32  32
#     4  10  21  38  58  84 115 147 189 237 283 339
#     4  10  21  38  59  84 115 151 191 236 288 344
#     4  10  20  35  55  83 116 149 189 236 280 330
#     4  10  20  34  52  77 112 151 190 232 276 330
#     4  10  22  40  60  85 115 147 189 241 294 347
#
# _framework density 17.853383999999998
#
# number of rings (size 3 to 8) (size 9 to 14) (size 15 to 20)
#    0.000    2.000    2.000    1.200    0.000    4.200 
#    0.000    2.000    0.000    7.200    0.000    5.600 
#    0.000    0.000    0.000    0.000    0.000    0.000 
#
# Total GULP energy -446400.497390 kJ/mol
# GULP energy per Si atom -5580.006217 kJ/mol
# Density = 1.781275 g / cm^3
# Si number density = 17.853384 Si / 1000 Ang^3
#
#
#
# Elastic Constant Matrix: (Units=GPa)
#
#
# Indices 1 2 3 4 5 6 
#
# 1 101.5622 88.5309 59.9440 0.0000 0.0000 0.0000
# 2 88.5309 101.5622 59.9440 0.0000 0.0000 0.0000
# 3 59.9440 59.9440 99.0077 0.0000 0.0000 0.0000
# 4 0.0000 0.0000 0.0000 23.7623 0.0000 0.0000
# 5 0.0000 0.0000 0.0000 0.0000 23.7623 0.0000
# 6 0.0000 0.0000 0.0000 0.0000 0.0000 48.3369
#
#
#
# Elastic Compliance Matrix: (Units=1/GPa)
#
#
# Indices 1 2 3 4 5 6 
#
# 1 0.042624 -0.034114 -0.005152 0.000000 0.000000 0.000000
# 2 -0.034114 0.042624 -0.005152 0.000000 0.000000 0.000000
# 3 -0.005152 -0.005152 0.016339 0.000000 0.000000 0.000000
# 4 0.000000 0.000000 0.000000 0.042083 0.000000 0.000000
# 5 0.000000 0.000000 0.000000 0.000000 0.042083 0.000000
# 6 0.000000 0.000000 0.000000 0.000000 0.000000 0.020688
#
#
# Mechanical properties :
#
#
# Convention : Reuss Voigt Hill
#
# Bulk Modulus (GPa) = 78.43271 79.88558 79.15914
# Shear Modulus (GPa) = 16.69276 25.41985 21.05630
#
# Velocity S-wave (km/s) = 3.06108 3.77744 3.43797
# Velocity P-wave (km/s) = 7.51801 7.99174 7.75849
#
# Compressibility (1/GPa) = 0.01274978
#
# Stress axis : x y z
#
# Youngs Moduli (GPa) = 23.46077 23.46077 61.20217
#
# Poissons Ratio (x) = 0.80035 0.31534
# Poissons Ratio (y) = 0.80035 0.31534
# Poissons Ratio (z) = 0.12088 0.12088
#
# Static dielectric constant tensor:
#      x y z
#    x 1.592240 0.000000 0.000000 
#    y 0.000000 1.592240 0.000000 
#    z 0.000000 0.000000 1.638240 
# 
# From -- ./inp_files/12675.got.cif
#   From: 2010.05.17/outbox.cif.g08.bks.cpg/sg141_7_cif.got.tgz:12675.got - 2010.05.20 13:30:51.
