data_PCOD9572597
_publ_section_title
;
Structure prediction by ZEFSAII (Michael W. Deem and Ramdas Pophale) SiO2 
 PCOD9572597
Probable space group: I 4/M C M
;
_chemical_formula_sum "Si O2"
_cell_formula_units_Z 132
_cell_length_a 21.291072
_cell_length_b 21.291072
_cell_length_c 14.381600
_cell_angle_alpha 90.000000
_cell_angle_beta 90.000000
_cell_angle_gamma 90.000000
_cell_volume 6519.319456
_symmetry_space_group_name_H-M "I 4/M C M"
_symmetry_group_IT_number 140
_symmetry_cell_setting 'tetragonal'
loop_
_space_group_symop_operation_xyz
x,y,z
-y,x,z
-x,-y,z
y,-x,z
x,-y,1/2-z
-x,y,1/2-z
y,x,1/2-z
-y,-x,1/2-z
-x,-y,-z
y,-x,-z
x,y,-z
-y,x,-z
-x,y,1/2+z
x,-y,1/2+z
-y,-x,1/2+z
y,x,1/2+z
1/2+x,1/2+y,1/2+z
1/2-y,1/2+x,1/2+z
1/2-x,1/2-y,1/2+z
1/2+y,1/2-x,1/2+z
1/2+x,1/2-y,-z
1/2-x,1/2+y,-z
1/2+y,1/2+x,-z
1/2-y,1/2-x,-z
1/2-x,1/2-y,1/2-z
1/2+y,1/2-x,1/2-z
1/2+x,1/2+y,1/2-z
1/2-y,1/2+x,1/2-z
1/2-x,1/2+y,z
1/2+x,1/2-y,z
1/2-y,1/2-x,z
1/2+y,1/2+x,z
loop_
_atom_site_type_symbol
_atom_site_label
_atom_site_fract_x
_atom_site_fract_y
_atom_site_fract_z
Si Si1 0.730279 0.667144 0.000000
Si Si2 0.500000 0.500000 0.500000
Si Si3 0.916618 0.123008 0.000000
Si Si4 0.226099 0.624457 0.297160
Si Si5 0.053263 0.553263 0.105575
Si Si6 0.158535 0.933225 0.705264
Si Si7 0.151709 0.500000 0.250000
O O1 0.755887 0.637584 0.904002
O O2 0.761162 0.738839 0.000000
O O3 0.656839 0.646037 0.000000
O O4 0.438295 0.549529 0.500000
O O5 0.941476 0.151158 0.903924
O O6 0.180735 0.680735 0.265618
O O7 0.286881 0.615076 0.233191
O O8 0.190326 0.558721 0.287852
O O9 0.109754 0.525303 0.165451
O O10 0.000000 0.500000 0.102307
O O11 0.070355 0.570355 0.000000
O O12 0.094917 0.905084 0.750000
O O13 0.172322 0.000000 0.750000
#
# Coordination Sequence:
#
# PCOD9572597 Si02
#       7
#    16   4  16  32  16  32  16
#     4  10  24  46  76 103 138 196 250 299 374 454
#     4  12  28  44  78 108 156 190 236 312 366 468
#     4  12  26  48  74 108 143 190 249 300 376 458
#     4  11  24  44  70 102 141 188 242 299 364 440
#     4  11  22  38  62  92 133 180 228 291 361 420
#     4  12  26  46  71 103 142 188 236 300 369 436
#     4  12  21  42  62  96 139 178 234 296 348 430
#
# _framework density 20.247512
#
# number of rings (size 3 to 8) (size 9 to 14) (size 15 to 20)
#    0.000    0.606    6.061    1.455    1.697    1.697 
#    2.182    0.000    0.000    0.000    0.000    0.000 
#    0.000    0.000    0.000    0.000    0.000    0.000 
#
# Total GULP energy -367996.520710 kJ/mol
# GULP energy per Si atom -5575.704859 kJ/mol
# Density = 2.020143 g / cm^3
# Si number density = 20.247512 Si / 1000 Ang^3
#
#
#
# Elastic Constant Matrix: (Units=GPa)
#
#
# Indices 1 2 3 4 5 6 
#
# 1 113.1582 55.0026 46.0531 0.0000 0.0000 0.0000
# 2 55.0026 113.1519 46.0524 0.0000 0.0000 0.0000
# 3 46.0531 46.0524 168.9905 0.0000 0.0000 0.0000
# 4 0.0000 0.0000 0.0000 32.8275 0.0000 0.0000
# 5 0.0000 0.0000 0.0000 0.0000 32.8344 0.0000
# 6 0.0000 0.0000 0.0000 0.0000 0.0000 24.3333
#
#
#
# Elastic Compliance Matrix: (Units=1/GPa)
#
#
# Indices 1 2 3 4 5 6 
#
# 1 0.012093 -0.005103 -0.001905 0.000000 0.000000 0.000000
# 2 -0.005103 0.012094 -0.001905 0.000000 0.000000 0.000000
# 3 -0.001905 -0.001905 0.006956 0.000000 0.000000 0.000000
# 4 0.000000 0.000000 0.000000 0.030462 0.000000 0.000000
# 5 0.000000 0.000000 0.000000 0.000000 0.030456 0.000000
# 6 0.000000 0.000000 0.000000 0.000000 0.000000 0.041096
#
#
# Mechanical properties :
#
#
# Convention : Reuss Voigt Hill
#
# Bulk Modulus (GPa) = 75.09556 76.61298 75.85427
# Shear Modulus (GPa) = 32.17074 34.54521 33.35797
#
# Velocity S-wave (km/s) = 3.99039 4.13503 4.06336
# Velocity P-wave (km/s) = 7.64201 7.79220 7.71747
#
# Compressibility (1/GPa) = 0.01331637
#
# Stress axis : x y z
#
# Youngs Moduli (GPa) = 82.69354 82.68867 143.76584
#
# Poissons Ratio (x) = 0.42196 0.27386
# Poissons Ratio (y) = 0.42198 0.27388
# Poissons Ratio (z) = 0.15752 0.15752
#
# Static dielectric constant tensor:
#      x y z
#    x 1.814980 0.000000 0.000000 
#    y 0.000000 1.815010 0.000000 
#    z 0.000000 0.000000 1.679340 
# 
# From -- ./inp_files/4477.got.cif
#   From: 2010.05.17/outbox.cif.g08.bks.cpg/sg140_3_cif.got.tgz:4477.got - 2010.06.21 00:45:31.
