data_PCOD9572066
_publ_section_title
;
Structure prediction by ZEFSAII (Michael W. Deem and Ramdas Pophale) SiO2 
 PCOD9572066
Probable space group: I 4/M C M
;
_chemical_formula_sum "Si O2"
_cell_formula_units_Z 128
_cell_length_a 20.947997
_cell_length_b 20.947997
_cell_length_c 14.564720
_cell_angle_alpha 90.000000
_cell_angle_beta 90.000000
_cell_angle_gamma 90.000000
_cell_volume 6391.269724
_symmetry_space_group_name_H-M "I 4/M C M"
_symmetry_group_IT_number 140
_symmetry_cell_setting 'tetragonal'
loop_
_space_group_symop_operation_xyz
x,y,z
-y,x,z
-x,-y,z
y,-x,z
x,-y,1/2-z
-x,y,1/2-z
y,x,1/2-z
-y,-x,1/2-z
-x,-y,-z
y,-x,-z
x,y,-z
-y,x,-z
-x,y,1/2+z
x,-y,1/2+z
-y,-x,1/2+z
y,x,1/2+z
1/2+x,1/2+y,1/2+z
1/2-y,1/2+x,1/2+z
1/2-x,1/2-y,1/2+z
1/2+y,1/2-x,1/2+z
1/2+x,1/2-y,-z
1/2-x,1/2+y,-z
1/2+y,1/2+x,-z
1/2-y,1/2-x,-z
1/2-x,1/2-y,1/2-z
1/2+y,1/2-x,1/2-z
1/2+x,1/2+y,1/2-z
1/2-y,1/2+x,1/2-z
1/2-x,1/2+y,z
1/2+x,1/2-y,z
1/2-y,1/2-x,z
1/2+y,1/2+x,z
loop_
_atom_site_type_symbol
_atom_site_label
_atom_site_fract_x
_atom_site_fract_y
_atom_site_fract_z
Si Si1 0.808945 0.950338 0.000000
Si Si2 0.120832 0.479374 0.106917
Si Si3 0.225994 0.442619 0.316515
Si Si4 0.228274 0.629191 0.643886
Si Si5 0.333727 0.597910 0.500000
O O1 0.764779 0.941338 0.089766
O O2 0.865620 0.899863 0.000000
O O3 0.836153 0.021726 0.000000
O O4 0.056744 0.443257 0.139359
O O5 0.152484 0.538245 0.160525
O O6 0.177160 0.425614 0.112600
O O7 0.111950 0.495876 0.000000
O O8 0.250294 0.500000 0.250000
O O9 0.233146 0.381113 0.252941
O O10 0.196079 0.696079 0.621389
O O11 0.292358 0.618193 0.588630
#
# Coordination Sequence:
#
# PCOD9572066 Si02
#       5
#    16  32  32  32  16
#     4  12  24  41  60  88 120 168 202 268 321 371
#     4   9  14  26  57  89 116 154 200 245 293 366
#     4  10  18  36  60  88 128 161 206 246 314 383
#     4  10  19  36  63  93 121 160 203 254 310 379
#     4  12  23  41  64  88 124 158 212 263 320 387
#
# _framework density 20.027318000000001
#
# number of rings (size 3 to 8) (size 9 to 14) (size 15 to 20)
#    0.000    1.750    7.500    0.375    0.000    1.250 
#    0.000    4.375    0.000    0.750    0.000    7.875 
#    0.000    2.000    0.000    0.000    0.000    0.000 
#
# Total GULP energy -357262.028771 kJ/mol
# GULP energy per Si atom -5582.219200 kJ/mol
# Density = 1.998174 g / cm^3
# Si number density = 20.027318 Si / 1000 Ang^3
#
#
#
# Elastic Constant Matrix: (Units=GPa)
#
#
# Indices 1 2 3 4 5 6 
#
# 1 74.5620 91.3405 48.3596 0.0000 0.0000 0.0000
# 2 91.3405 74.5620 48.3596 0.0000 0.0000 0.0000
# 3 48.3596 48.3596 143.0562 0.0000 0.0000 0.0000
# 4 0.0000 0.0000 0.0000 -5.6624 0.0000 0.0000
# 5 0.0000 0.0000 0.0000 0.0000 -5.6624 0.0000
# 6 0.0000 0.0000 0.0000 0.0000 0.0000 25.3614
#
#
#
# Elastic Compliance Matrix: (Units=1/GPa)
#
#
# Indices 1 2 3 4 5 6 
#
# 1 -0.026046 0.033554 -0.002538 0.000000 0.000000 0.000000
# 2 0.033554 -0.026046 -0.002538 0.000000 0.000000 0.000000
# 3 -0.002538 -0.002538 0.008706 0.000000 0.000000 0.000000
# 4 0.000000 0.000000 0.000000 -0.176603 0.000000 0.000000
# 5 0.000000 0.000000 0.000000 0.000000 -0.176603 0.000000
# 6 0.000000 0.000000 0.000000 0.000000 0.000000 0.039430
#
#
# Mechanical properties :
#
#
# Convention : Reuss Voigt Hill
#
# Bulk Modulus (GPa) = 73.69607 74.25549 73.97578
# Shear Modulus (GPa) = -12.20714 9.74868 -1.22923
#
# Velocity S-wave (km/s) = -2.47153 2.20868 -0.78429
# Velocity P-wave (km/s) = 5.36032 6.60772 6.01643
#
# Compressibility (1/GPa) = 0.01356924
#
# Stress axis : x y z
#
# Youngs Moduli (GPa) = -38.39290 -38.39290 114.86311
#
# Poissons Ratio (x) = 1.28822 0.29149
# Poissons Ratio (y) = 1.28822 0.29149
# Poissons Ratio (z) = -0.09743 -0.09743
#
# Static dielectric constant tensor:
#      x y z
#    x 1.720270 0.000000 0.000000 
#    y 0.000000 1.720270 0.000000 
#    z 0.000000 0.000000 1.750900 
# 
# From -- ./inp_files/4414.got.cif
#   From: 2010.05.17/outbox.cif.g08.bks.cpg/sg140_3_cif.got.tgz:4414.got - 2010.06.21 00:45:31.
