data_PCOD9572851
_publ_section_title
;
Structure prediction by ZEFSAII (Michael W. Deem and Ramdas Pophale) SiO2 
 PCOD9572851
Probable space group: I 41/A M D
;
_chemical_formula_sum "Si O2"
_cell_formula_units_Z 160
_cell_length_a 22.124821
_cell_length_b 22.124821
_cell_length_c 18.245831
_cell_angle_alpha 90.000000
_cell_angle_beta 90.000000
_cell_angle_gamma 90.000000
_cell_volume 8931.474846
_symmetry_space_group_name_H-M "I 41/A M D"
_symmetry_group_IT_number 141
_space_group.IT_coordinate_system_code '2'
_symmetry_cell_setting 'tetragonal'
loop_
_space_group_symop_operation_xyz
x,y,z
1/4-y,3/4+x,1/4+z
-x,1/2-y,z
1/4+y,1/4-x,3/4+z
x,-y,-z
-x,1/2+y,-z
1/4+y,3/4+x,1/4-z
1/4-y,1/4-x,3/4-z
-x,-y,-z
3/4+y,1/4-x,3/4-z
x,1/2+y,-z
3/4-y,3/4+x,1/4-z
-x,y,z
x,1/2-y,z
3/4-y,1/4-x,3/4+z
3/4+y,3/4+x,1/4+z
1/2+x,1/2+y,1/2+z
3/4-y,1/4+x,3/4+z
1/2-x,-y,1/2+z
3/4+y,3/4-x,1/4+z
1/2+x,1/2-y,1/2-z
1/2-x,y,1/2-z
3/4+y,1/4+x,3/4-z
3/4-y,3/4-x,1/4-z
1/2-x,1/2-y,1/2-z
1/4+y,3/4-x,1/4-z
1/2+x,y,1/2-z
1/4-y,1/4+x,3/4-z
1/2-x,1/2+y,1/2+z
1/2+x,-y,1/2+z
1/4-y,3/4-x,1/4+z
1/4+y,1/4+x,3/4+z
loop_
_atom_site_type_symbol
_atom_site_label
_atom_site_fract_x
_atom_site_fract_y
_atom_site_fract_z
Si Si1 0.775221 0.819622 0.980393
Si Si2 0.567506 0.321164 0.908551
Si Si3 0.345889 0.632013 0.210599
Si Si4 0.927777 0.884094 0.694295
Si Si5 0.781001 0.178894 0.844969
O O1 0.791557 0.750000 0.959149
O O2 0.816562 0.873900 0.951228
O O3 0.705675 0.828392 0.958141
O O4 0.785537 0.823220 0.067881
O O5 0.500000 0.346481 0.901606
O O6 0.562586 0.250000 0.920969
O O7 0.606973 0.328596 0.835717
O O8 0.601376 0.344343 0.981120
O O9 0.280113 0.643083 0.175793
O O10 0.334670 0.651852 0.294909
O O11 0.891622 0.858379 0.625000
O O12 0.000000 0.872338 0.683644
O O13 0.774308 0.250000 0.825999
#
# Coordination Sequence:
#
# PCOD9572851 Si02
#       5
#    32  32  32  32  32
#     4  10  21  37  55  80 115 152 188 232 284 345
#     4  10  19  32  55  85 112 139 183 244 297 347
#     4  11  19  33  56  83 110 145 190 230 279 339
#     4  10  20  37  58  81 110 147 192 242 299 355
#     4  10  20  36  59  82 113 153 191 233 282 341
#
# _framework density 17.914173999999999
#
# number of rings (size 3 to 8) (size 9 to 14) (size 15 to 20)
#    0.000    1.800    2.000    4.200    0.000    1.000 
#    0.000    5.000    0.000    3.600    0.000   14.000 
#    0.000    0.000    0.000    0.000    0.000    0.000 
#
# Total GULP energy -445532.319005 kJ/mol
# GULP energy per Si atom -5569.153988 kJ/mol
# Density = 1.787340 g / cm^3
# Si number density = 17.914174 Si / 1000 Ang^3
#
#
#
# Elastic Constant Matrix: (Units=GPa)
#
#
# Indices 1 2 3 4 5 6 
#
# 1 103.1263 55.7977 40.6248 0.0000 0.0000 0.0000
# 2 55.7977 103.1245 40.6254 0.0000 0.0000 0.0000
# 3 40.6248 40.6254 64.2488 0.0000 0.0000 0.0000
# 4 0.0000 0.0000 0.0000 27.3552 0.0000 0.0000
# 5 0.0000 0.0000 0.0000 0.0000 27.3553 0.0000
# 6 0.0000 0.0000 0.0000 0.0000 0.0000 29.1406
#
#
#
# Elastic Compliance Matrix: (Units=1/GPa)
#
#
# Indices 1 2 3 4 5 6 
#
# 1 0.015213 -0.005916 -0.005879 0.000000 0.000000 0.000000
# 2 -0.005916 0.015214 -0.005880 0.000000 0.000000 0.000000
# 3 -0.005879 -0.005880 0.023000 0.000000 0.000000 0.000000
# 4 0.000000 0.000000 0.000000 0.036556 0.000000 0.000000
# 5 0.000000 0.000000 0.000000 0.000000 0.036556 0.000000
# 6 0.000000 0.000000 0.000000 0.000000 0.000000 0.034316
#
#
# Mechanical properties :
#
#
# Convention : Reuss Voigt Hill
#
# Bulk Modulus (GPa) = 55.31385 60.51060 57.91222
# Shear Modulus (GPa) = 24.72433 25.66702 25.19568
#
# Velocity S-wave (km/s) = 3.71907 3.78931 3.75436
# Velocity P-wave (km/s) = 7.02753 7.27987 7.15481
#
# Compressibility (1/GPa) = 0.01807866
#
# Stress axis : x y z
#
# Youngs Moduli (GPa) = 65.73121 65.72907 43.47905
#
# Poissons Ratio (x) = 0.38882 0.25562
# Poissons Ratio (y) = 0.38884 0.25564
# Poissons Ratio (z) = 0.38644 0.38646
#
# Static dielectric constant tensor:
#      x y z
#    x 1.622460 0.000000 0.000000 
#    y 0.000000 1.622460 0.000000 
#    z 0.000000 0.000000 1.639330 
# 
# From -- ./inp_files/8552.got.cif
#   From: 2010.05.17/outbox.cif.g08.bks.cpg/sg141_5_cif.got.tgz:8552.got - 2010.05.20 13:30:51.
