data_PCOD9572822
_publ_section_title
;
Structure prediction by ZEFSAII (Michael W. Deem and Ramdas Pophale) SiO2 
 PCOD9572822
Probable space group: I 41/A M D
;
_chemical_formula_sum "Si O2"
_cell_formula_units_Z 192
_cell_length_a 17.652066
_cell_length_b 17.652066
_cell_length_c 32.423517
_cell_angle_alpha 90.000000
_cell_angle_beta 90.000000
_cell_angle_gamma 90.000000
_cell_volume 10103.019854
_symmetry_space_group_name_H-M "I 41/A M D"
_symmetry_group_IT_number 141
_space_group.IT_coordinate_system_code '2'
_symmetry_cell_setting 'tetragonal'
loop_
_space_group_symop_operation_xyz
x,y,z
1/4-y,3/4+x,1/4+z
-x,1/2-y,z
1/4+y,1/4-x,3/4+z
x,-y,-z
-x,1/2+y,-z
1/4+y,3/4+x,1/4-z
1/4-y,1/4-x,3/4-z
-x,-y,-z
3/4+y,1/4-x,3/4-z
x,1/2+y,-z
3/4-y,3/4+x,1/4-z
-x,y,z
x,1/2-y,z
3/4-y,1/4-x,3/4+z
3/4+y,3/4+x,1/4+z
1/2+x,1/2+y,1/2+z
3/4-y,1/4+x,3/4+z
1/2-x,-y,1/2+z
3/4+y,3/4-x,1/4+z
1/2+x,1/2-y,1/2-z
1/2-x,y,1/2-z
3/4+y,1/4+x,3/4-z
3/4-y,3/4-x,1/4-z
1/2-x,1/2-y,1/2-z
1/4+y,3/4-x,1/4-z
1/2+x,y,1/2-z
1/4-y,1/4+x,3/4-z
1/2-x,1/2+y,1/2+z
1/2+x,-y,1/2+z
1/4-y,3/4-x,1/4+z
1/4+y,1/4+x,3/4+z
loop_
_atom_site_type_symbol
_atom_site_label
_atom_site_fract_x
_atom_site_fract_y
_atom_site_fract_z
Si Si1 0.087854 0.657727 0.035322
Si Si2 0.409778 0.918055 0.043196
Si Si3 0.407899 0.563239 0.205701
Si Si4 0.590868 0.659133 0.375000
Si Si5 0.591878 0.835344 0.127228
Si Si6 0.351775 0.413614 0.043636
Si Si7 0.412428 0.162428 0.125000
O O1 0.086728 0.750000 0.036758
O O2 0.118391 0.631437 0.080228
O O3 0.000000 0.633995 0.030051
O O4 0.138188 0.637246 0.996189
O O5 0.500000 0.934585 0.045773
O O6 0.388086 0.866735 0.082108
O O7 0.363470 0.996146 0.044835
O O8 0.392021 0.884419 0.998218
O O9 0.500000 0.552633 0.205365
O O10 0.386397 0.609411 0.164461
O O11 0.365522 0.483736 0.206739
O O12 0.500000 0.647448 0.376436
O O13 0.500000 0.832441 0.128302
O O14 0.620436 0.750000 0.133472
O O15 0.390218 0.383823 0.084915
O O16 0.500000 0.149554 0.134644
#
# Coordination Sequence:
#
# PCOD9572822 Si02
#       7
#    32  32  32  16  32  32  16
#     4   8  13  23  42  71 107 144 184 230 278 329
#     4  10  21  38  59  79 104 144 190 235 280 327
#     4  10  19  30  49  79 114 149 184 226 275 328
#     4   7  10  18  36  63  94 132 180 235 288 327
#     4   9  18  33  54  81 110 140 180 229 277 326
#     4  11  21  35  53  77 110 146 183 225 275 330
#     4  11  22  34  52  79 110 142 176 217 264 317
#
# _framework density 19.004218000000002
#
# number of rings (size 3 to 8) (size 9 to 14) (size 15 to 20)
#    0.000    2.500    0.000    5.000    0.000    4.667 
#    0.000    1.667    0.000    8.000    0.000   14.000 
#    0.000    0.000    0.000    0.000    0.000    7.333 
#
# Total GULP energy -535287.681756 kJ/mol
# GULP energy per Si atom -5575.913352 kJ/mol
# Density = 1.896096 g / cm^3
# Si number density = 19.004218 Si / 1000 Ang^3
#
#
#
# Elastic Constant Matrix: (Units=GPa)
#
#
# Indices 1 2 3 4 5 6 
#
# 1 61.3678 8.1168 18.0008 0.0000 0.0000 0.0000
# 2 8.1168 61.3684 18.0008 0.0000 0.0000 0.0000
# 3 18.0008 18.0008 114.1733 0.0000 0.0000 0.0000
# 4 0.0000 0.0000 0.0000 -2.9443 0.0000 0.0000
# 5 0.0000 0.0000 0.0000 0.0000 -2.9438 0.0000
# 6 0.0000 0.0000 0.0000 0.0000 0.0000 21.8227
#
#
#
# Elastic Compliance Matrix: (Units=1/GPa)
#
#
# Indices 1 2 3 4 5 6 
#
# 1 0.017225 -0.001554 -0.002471 0.000000 0.000000 0.000000
# 2 -0.001554 0.017225 -0.002471 0.000000 0.000000 0.000000
# 3 -0.002471 -0.002471 0.009538 0.000000 0.000000 0.000000
# 4 0.000000 0.000000 0.000000 -0.339636 0.000000 0.000000
# 5 0.000000 0.000000 0.000000 0.000000 -0.339701 0.000000
# 6 0.000000 0.000000 0.000000 0.000000 0.000000 0.045824
#
#
# Mechanical properties :
#
#
# Convention : Reuss Voigt Hill
#
# Bulk Modulus (GPa) = 32.26018 36.12737 34.19378
# Shear Modulus (GPa) = -8.83077 16.03967 3.60445
#
# Velocity S-wave (km/s) = -2.15797 2.90833 1.37869
# Velocity P-wave (km/s) = 3.28679 5.50720 4.53499
#
# Compressibility (1/GPa) = 0.03099796
#
# Stress axis : x y z
#
# Youngs Moduli (GPa) = 58.05372 58.05427 104.84672
#
# Poissons Ratio (x) = 0.09019 0.25906
# Poissons Ratio (y) = 0.09019 0.25906
# Poissons Ratio (z) = 0.14344 0.14344
#
# Static dielectric constant tensor:
#      x y z
#    x 1.642130 0.000000 0.000000 
#    y 0.000000 1.642130 0.000000 
#    z 0.000000 0.000000 1.686360 
# 
# From -- ./inp_files/14476.got.cif
#   From: 2010.05.17/outbox.cif.g08.bks.cpg/sg141_8_cif.got.tgz:14476.got - 2010.05.20 13:30:51.
