data_PCOD9572083
_publ_section_title
;
Structure prediction by ZEFSAII (Michael W. Deem and Ramdas Pophale) SiO2 
 PCOD9572083
Probable space group: I 4/M C M
;
_chemical_formula_sum "Si O2"
_cell_formula_units_Z 160
_cell_length_a 30.252085
_cell_length_b 30.252085
_cell_length_c 9.827347
_cell_angle_alpha 90.000000
_cell_angle_beta 90.000000
_cell_angle_gamma 90.000000
_cell_volume 8993.876403
_symmetry_space_group_name_H-M "I 4/M C M"
_symmetry_group_IT_number 140
_symmetry_cell_setting 'tetragonal'
loop_
_space_group_symop_operation_xyz
x,y,z
-y,x,z
-x,-y,z
y,-x,z
x,-y,1/2-z
-x,y,1/2-z
y,x,1/2-z
-y,-x,1/2-z
-x,-y,-z
y,-x,-z
x,y,-z
-y,x,-z
-x,y,1/2+z
x,-y,1/2+z
-y,-x,1/2+z
y,x,1/2+z
1/2+x,1/2+y,1/2+z
1/2-y,1/2+x,1/2+z
1/2-x,1/2-y,1/2+z
1/2+y,1/2-x,1/2+z
1/2+x,1/2-y,-z
1/2-x,1/2+y,-z
1/2+y,1/2+x,-z
1/2-y,1/2-x,-z
1/2-x,1/2-y,1/2-z
1/2+y,1/2-x,1/2-z
1/2+x,1/2+y,1/2-z
1/2-y,1/2+x,1/2-z
1/2-x,1/2+y,z
1/2+x,1/2-y,z
1/2-y,1/2-x,z
1/2+y,1/2+x,z
loop_
_atom_site_type_symbol
_atom_site_label
_atom_site_fract_x
_atom_site_fract_y
_atom_site_fract_z
Si Si1 0.877447 0.047903 0.500000
Si Si2 0.052435 0.874054 0.500000
Si Si3 0.173504 0.673504 0.341261
Si Si4 0.657039 0.960765 0.842133
Si Si5 0.385710 0.768028 0.657287
Si Si6 0.809873 0.050586 0.253804
Si Si7 0.902833 0.402833 0.659555
O O1 0.914085 0.085432 0.500000
O O2 0.844912 0.052609 0.374115
O O3 0.893643 0.997275 0.500000
O O4 0.058051 0.840532 0.375593
O O5 0.183467 0.683467 0.500000
O O6 0.214201 0.652910 0.255763
O O7 0.135305 0.635305 0.343593
O O8 0.692085 0.921128 0.850054
O O9 0.616856 0.942731 0.749332
O O10 0.676428 0.000000 0.750000
O O11 0.646419 0.972891 0.000000
O O12 0.371926 0.758935 0.500000
O O13 0.412870 0.727321 0.720718
O O14 0.791507 0.000000 0.250000
O O15 0.912797 0.412797 0.500000
#
# Coordination Sequence:
#
# PCOD9572083 Si02
#       7
#    16  16  16  32  32  32  16
#     4  10  20  39  56  85 117 151 193 231 282 334
#     4  10  22  35  60  83 117 153 189 237 278 336
#     4   9  19  31  49  77 107 139 181 222 269 333
#     4  10  19  30  46  69  96 131 168 209 263 322
#     4  10  19  33  51  75 110 146 179 222 277 334
#     4  10  20  35  54  83 115 149 189 238 288 337
#     4   9  17  31  45  64  94 128 166 213 260 314
#
# _framework density 17.789881000000001
#
# number of rings (size 3 to 8) (size 9 to 14) (size 15 to 20)
#    0.000    2.200    1.000    2.400    1.400    3.400 
#    0.000    0.000    0.000    3.900    0.000    6.300 
#    0.000    0.000    0.000    0.000    0.000    0.000 
#
# Total GULP energy -445577.998906 kJ/mol
# GULP energy per Si atom -5569.724986 kJ/mol
# Density = 1.774939 g / cm^3
# Si number density = 17.789881 Si / 1000 Ang^3
#
#
#
# Elastic Constant Matrix: (Units=GPa)
#
#
# Indices 1 2 3 4 5 6 
#
# 1 75.6085 59.1244 54.9671 0.0000 0.0000 0.0000
# 2 59.1244 75.6085 54.9671 0.0000 0.0000 0.0000
# 3 54.9671 54.9671 188.7050 0.0000 0.0000 0.0000
# 4 0.0000 0.0000 0.0000 94.7495 0.0000 0.0000
# 5 0.0000 0.0000 0.0000 0.0000 94.7495 0.0000
# 6 0.0000 0.0000 0.0000 0.0000 0.0000 38.3070
#
#
#
# Elastic Compliance Matrix: (Units=1/GPa)
#
#
# Indices 1 2 3 4 5 6 
#
# 1 0.035200 -0.025464 -0.002836 0.000000 0.000000 0.000000
# 2 -0.025464 0.035200 -0.002836 0.000000 0.000000 0.000000
# 3 -0.002836 -0.002836 0.006951 0.000000 0.000000 0.000000
# 4 0.000000 0.000000 0.000000 0.010554 0.000000 0.000000
# 5 0.000000 0.000000 0.000000 0.000000 0.010554 0.000000
# 6 0.000000 0.000000 0.000000 0.000000 0.000000 0.026105
#
#
# Mechanical properties :
#
#
# Convention : Reuss Voigt Hill
#
# Bulk Modulus (GPa) = 66.31441 75.33768 70.82604
# Shear Modulus (GPa) = 26.06014 56.95210 41.50612
#
# Velocity S-wave (km/s) = 3.83153 5.66421 4.83549
# Velocity P-wave (km/s) = 7.54530 9.23137 8.43059
#
# Compressibility (1/GPa) = 0.01507968
#
# Stress axis : x y z
#
# Youngs Moduli (GPa) = 28.40890 28.40890 143.85516
#
# Poissons Ratio (x) = 0.72341 0.40797
# Poissons Ratio (y) = 0.72341 0.40797
# Poissons Ratio (z) = 0.08057 0.08057
#
# Static dielectric constant tensor:
#      x y z
#    x 1.652960 0.000000 0.000000 
#    y 0.000000 1.652960 0.000000 
#    z 0.000000 0.000000 1.594190 
# 
# From -- ./inp_files/1897.got.cif
#   From: 2010.05.17/outbox.cif.g08.bks.cpg/sg140_1_cif.got.tgz:1897.got - 2010.06.21 00:45:31.
