data_PCOD9572778
_publ_section_title
;
Structure prediction by ZEFSAII (Michael W. Deem and Ramdas Pophale) SiO2 
 PCOD9572778
Probable space group: I 41/A M D
;
_chemical_formula_sum "Si O2"
_cell_formula_units_Z 128
_cell_length_a 15.241624
_cell_length_b 15.241624
_cell_length_c 25.463889
_cell_angle_alpha 90.000000
_cell_angle_beta 90.000000
_cell_angle_gamma 90.000000
_cell_volume 5915.442263
_symmetry_space_group_name_H-M "I 41/A M D"
_symmetry_group_IT_number 141
_space_group.IT_coordinate_system_code '2'
_symmetry_cell_setting 'tetragonal'
loop_
_space_group_symop_operation_xyz
x,y,z
1/4-y,3/4+x,1/4+z
-x,1/2-y,z
1/4+y,1/4-x,3/4+z
x,-y,-z
-x,1/2+y,-z
1/4+y,3/4+x,1/4-z
1/4-y,1/4-x,3/4-z
-x,-y,-z
3/4+y,1/4-x,3/4-z
x,1/2+y,-z
3/4-y,3/4+x,1/4-z
-x,y,z
x,1/2-y,z
3/4-y,1/4-x,3/4+z
3/4+y,3/4+x,1/4+z
1/2+x,1/2+y,1/2+z
3/4-y,1/4+x,3/4+z
1/2-x,-y,1/2+z
3/4+y,3/4-x,1/4+z
1/2+x,1/2-y,1/2-z
1/2-x,y,1/2-z
3/4+y,1/4+x,3/4-z
3/4-y,3/4-x,1/4-z
1/2-x,1/2-y,1/2-z
1/4+y,3/4-x,1/4-z
1/2+x,y,1/2-z
1/4-y,1/4+x,3/4-z
1/2-x,1/2+y,1/2+z
1/2+x,-y,1/2+z
1/4-y,3/4-x,1/4+z
1/4+y,1/4+x,3/4+z
loop_
_atom_site_type_symbol
_atom_site_label
_atom_site_fract_x
_atom_site_fract_y
_atom_site_fract_z
Si Si1 0.092380 0.103973 0.926303
Si Si2 0.097484 0.399371 0.520186
Si Si3 0.143420 0.470845 0.736232
Si Si4 0.396699 0.097278 0.388753
O O1 0.089066 0.160935 0.875000
O O2 0.166192 0.139364 0.964341
O O3 0.000000 0.100079 0.956092
O O4 0.107792 0.006791 0.902052
O O5 0.092183 0.500000 0.500000
O O6 0.179432 0.361929 0.487643
O O7 0.126358 0.388943 0.581304
O O8 0.000000 0.361315 0.514056
O O9 0.250000 0.470620 0.750000
O O10 0.118462 0.417969 0.684200
O O11 0.500000 0.122583 0.392476
#
# Coordination Sequence:
#
# PCOD9572778 Si02
#       4
#    32  32  32  32
#     4  10  18  31  53  85 122 164 207 254 312 373
#     4  10  21  37  60  88 119 159 209 260 317 375
#     4   9  18  33  59  86 120 160 208 260 312 364
#     4  10  20  36  60  89 122 164 213 257 307 376
#
# _framework density 21.638280000000002
#
# number of rings (size 3 to 8) (size 9 to 14) (size 15 to 20)
#    0.000    2.250    2.500    0.750    0.000    3.750 
#    0.000    2.500    0.000    4.500    0.000    0.000 
#    0.000    0.000    0.000    0.000    0.000    0.000 
#
# Total GULP energy -356537.163622 kJ/mol
# GULP energy per Si atom -5570.893182 kJ/mol
# Density = 2.158903 g / cm^3
# Si number density = 21.638280 Si / 1000 Ang^3
#
#
#
# Elastic Constant Matrix: (Units=GPa)
#
#
# Indices 1 2 3 4 5 6 
#
# 1 126.4900 26.8510 51.4065 0.0000 0.0000 0.0000
# 2 26.8510 126.4905 51.4068 0.0000 0.0000 0.0000
# 3 51.4065 51.4068 122.9769 0.0000 0.0000 0.0000
# 4 0.0000 0.0000 0.0000 -16.1845 0.0000 0.0000
# 5 0.0000 0.0000 0.0000 0.0000 -16.1817 0.0000
# 6 0.0000 0.0000 0.0000 0.0000 0.0000 -18.6803
#
#
#
# Elastic Compliance Matrix: (Units=1/GPa)
#
#
# Indices 1 2 3 4 5 6 
#
# 1 0.009549 -0.000488 -0.003788 0.000000 0.000000 0.000000
# 2 -0.000488 0.009549 -0.003788 0.000000 0.000000 0.000000
# 3 -0.003788 -0.003788 0.011298 0.000000 0.000000 0.000000
# 4 0.000000 0.000000 0.000000 -0.061788 0.000000 0.000000
# 5 0.000000 0.000000 0.000000 0.000000 -0.061798 0.000000
# 6 0.000000 0.000000 0.000000 0.000000 0.000000 -0.053532
#
#
# Mechanical properties :
#
#
# Convention : Reuss Voigt Hill
#
# Bulk Modulus (GPa) = 70.07927 70.58733 70.33330
# Shear Modulus (GPa) = -39.73291 6.21023 -16.76134
#
# Velocity S-wave (km/s) = -4.28978 1.69595 -2.78621
# Velocity P-wave (km/s) = 2.81439 6.04378 4.71424
#
# Compressibility (1/GPa) = 0.01426955
#
# Stress axis : x y z
#
# Youngs Moduli (GPa) = 104.72728 104.72760 88.50938
#
# Poissons Ratio (x) = 0.05107 0.33524
# Poissons Ratio (y) = 0.05107 0.33524
# Poissons Ratio (z) = 0.39667 0.39667
#
# Static dielectric constant tensor:
#      x y z
#    x 1.888840 0.000000 0.000000 
#    y 0.000000 1.888840 0.000000 
#    z 0.000000 0.000000 1.741820 
# 
# From -- ./inp_files/11341.got.cif
#   From: 2010.05.17/outbox.cif.g08.bks.cpg/sg141_6_cif.got.tgz:11341.got - 2010.05.20 13:30:51.
