data_PCOD9572813
_publ_section_title
;
Structure prediction by ZEFSAII (Michael W. Deem and Ramdas Pophale) SiO2 
 PCOD9572813
Probable space group: I 41/A M D
;
_chemical_formula_sum "Si O2"
_cell_formula_units_Z 164
_cell_length_a 23.287832
_cell_length_b 23.287832
_cell_length_c 14.296600
_cell_angle_alpha 90.000000
_cell_angle_beta 90.000000
_cell_angle_gamma 90.000000
_cell_volume 7753.376707
_symmetry_space_group_name_H-M "I 41/A M D"
_symmetry_group_IT_number 141
_space_group.IT_coordinate_system_code '2'
_symmetry_cell_setting 'tetragonal'
loop_
_space_group_symop_operation_xyz
x,y,z
1/4-y,3/4+x,1/4+z
-x,1/2-y,z
1/4+y,1/4-x,3/4+z
x,-y,-z
-x,1/2+y,-z
1/4+y,3/4+x,1/4-z
1/4-y,1/4-x,3/4-z
-x,-y,-z
3/4+y,1/4-x,3/4-z
x,1/2+y,-z
3/4-y,3/4+x,1/4-z
-x,y,z
x,1/2-y,z
3/4-y,1/4-x,3/4+z
3/4+y,3/4+x,1/4+z
1/2+x,1/2+y,1/2+z
3/4-y,1/4+x,3/4+z
1/2-x,-y,1/2+z
3/4+y,3/4-x,1/4+z
1/2+x,1/2-y,1/2-z
1/2-x,y,1/2-z
3/4+y,1/4+x,3/4-z
3/4-y,3/4-x,1/4-z
1/2-x,1/2-y,1/2-z
1/4+y,3/4-x,1/4-z
1/2+x,y,1/2-z
1/4-y,1/4+x,3/4-z
1/2-x,1/2+y,1/2+z
1/2+x,-y,1/2+z
1/4-y,3/4-x,1/4+z
1/4+y,1/4+x,3/4+z
loop_
_atom_site_type_symbol
_atom_site_label
_atom_site_fract_x
_atom_site_fract_y
_atom_site_fract_z
Si Si1 0.874111 0.819546 0.491028
Si Si2 0.500000 0.250000 0.625000
Si Si3 0.199657 0.686741 0.174973
Si Si4 0.623825 0.610315 0.198557
Si Si5 0.247745 0.182420 0.035358
Si Si6 0.434292 0.750000 0.746653
Si Si7 0.500000 0.655398 0.220267
O O1 0.878227 0.750000 0.478153
O O2 0.864564 0.850278 0.391192
O O3 0.815482 0.829775 0.547116
O O4 0.937642 0.840175 0.524801
O O5 0.552062 0.250000 0.554998
O O6 0.169596 0.750000 0.175316
O O7 0.250000 0.690361 0.250000
O O8 0.161159 0.635086 0.216047
O O9 0.230562 0.679190 0.075134
O O10 0.617522 0.543139 0.172417
O O11 0.558058 0.620907 0.226672
O O12 0.239261 0.250000 0.065210
O O13 0.500000 0.750000 0.776813
O O14 0.432693 0.750000 0.633408
#
# Coordination Sequence:
#
# PCOD9572813 Si02
#       7
#    32   4  32  32  32  16  16
#     4   9  17  29  44  55  76 104 136 177 220 248
#     4  12  24  24  24  44  72  88 108 184 228 224
#     4  10  19  29  40  49  67 102 139 170 213 258
#     4  11  19  29  39  52  69  96 134 172 213 255
#     4  10  19  29  38  56  72  95 131 178 216 250
#     4   8  14  28  40  52  63  94 130 159 204 248
#     4  10  22  26  32  49  69  89 124 174 219 234
#
# _framework density 21.152073000000001
#
# number of rings (size 3 to 8) (size 9 to 14) (size 15 to 20)
#    0.000    2.146    3.415    1.171    5.463    0.000 
#    0.000    0.000    0.000    0.000    0.000    0.000 
#    0.000    0.000    0.000    0.878    0.390    1.073 
#
# Total GULP energy -456728.311213 kJ/mol
# GULP energy per Si atom -5569.857454 kJ/mol
# Density = 2.110393 g / cm^3
# Si number density = 21.152073 Si / 1000 Ang^3
#
#
#
# Elastic Constant Matrix: (Units=GPa)
#
#
# Indices 1 2 3 4 5 6 
#
# 1 114.2044 36.5623 3.4083 0.0000 0.0000 0.0000
# 2 36.5623 114.2044 3.4083 0.0000 0.0000 0.0000
# 3 3.4083 3.4083 42.0639 0.0000 0.0000 0.0000
# 4 0.0000 0.0000 0.0000 8.0890 0.0000 0.0000
# 5 0.0000 0.0000 0.0000 0.0000 8.0890 0.0000
# 6 0.0000 0.0000 0.0000 0.0000 0.0000 24.3336
#
#
#
# Elastic Compliance Matrix: (Units=1/GPa)
#
#
# Indices 1 2 3 4 5 6 
#
# 1 0.009768 -0.003111 -0.000539 0.000000 0.000000 0.000000
# 2 -0.003111 0.009768 -0.000539 0.000000 0.000000 0.000000
# 3 -0.000539 -0.000539 0.023861 0.000000 0.000000 0.000000
# 4 0.000000 0.000000 0.000000 0.123625 0.000000 0.000000
# 5 0.000000 0.000000 0.000000 0.000000 0.123625 0.000000
# 6 0.000000 0.000000 0.000000 0.000000 0.000000 0.041096
#
#
# Mechanical properties :
#
#
# Convention : Reuss Voigt Hill
#
# Bulk Modulus (GPa) = 28.55720 39.69228 34.12474
# Shear Modulus (GPa) = 14.21278 23.24190 18.72734
#
# Velocity S-wave (km/s) = 2.59498 3.31841 2.97874
# Velocity P-wave (km/s) = 4.74434 5.78692 5.29137
#
# Compressibility (1/GPa) = 0.03501744
#
# Stress axis : x y z
#
# Youngs Moduli (GPa) = 102.37117 102.37117 41.90983
#
# Poissons Ratio (x) = 0.31850 0.02261
# Poissons Ratio (y) = 0.31850 0.02261
# Poissons Ratio (z) = 0.05522 0.05522
#
# Static dielectric constant tensor:
#      x y z
#    x 1.890760 0.000000 0.000000 
#    y 0.000000 1.890760 0.000000 
#    z 0.000000 0.000000 1.791730 
# 
# From -- ./inp_files/8834.got.cif
#   From: 2010.05.17/outbox.cif.g08.bks.cpg/sg141_5_cif.got.tgz:8834.got - 2010.05.20 13:30:51.
