data_PCOD9572114
_publ_section_title
;
Structure prediction by ZEFSAII (Michael W. Deem and Ramdas Pophale) SiO2 
 PCOD9572114
Probable space group: I 4/M C M
;
_chemical_formula_sum "Si O2"
_cell_formula_units_Z 128
_cell_length_a 20.384641
_cell_length_b 20.384641
_cell_length_c 15.352438
_cell_angle_alpha 90.000000
_cell_angle_beta 90.000000
_cell_angle_gamma 90.000000
_cell_volume 6379.453657
_symmetry_space_group_name_H-M "I 4/M C M"
_symmetry_group_IT_number 140
_symmetry_cell_setting 'tetragonal'
loop_
_space_group_symop_operation_xyz
x,y,z
-y,x,z
-x,-y,z
y,-x,z
x,-y,1/2-z
-x,y,1/2-z
y,x,1/2-z
-y,-x,1/2-z
-x,-y,-z
y,-x,-z
x,y,-z
-y,x,-z
-x,y,1/2+z
x,-y,1/2+z
-y,-x,1/2+z
y,x,1/2+z
1/2+x,1/2+y,1/2+z
1/2-y,1/2+x,1/2+z
1/2-x,1/2-y,1/2+z
1/2+y,1/2-x,1/2+z
1/2+x,1/2-y,-z
1/2-x,1/2+y,-z
1/2+y,1/2+x,-z
1/2-y,1/2-x,-z
1/2-x,1/2-y,1/2-z
1/2+y,1/2-x,1/2-z
1/2+x,1/2+y,1/2-z
1/2-y,1/2+x,1/2-z
1/2-x,1/2+y,z
1/2+x,1/2-y,z
1/2-y,1/2-x,z
1/2+y,1/2+x,z
loop_
_atom_site_type_symbol
_atom_site_label
_atom_site_fract_x
_atom_site_fract_y
_atom_site_fract_z
Si Si1 0.592630 0.724086 0.598382
Si Si2 0.222293 0.171019 0.843980
Si Si3 0.577672 0.185260 0.744206
Si Si4 0.482733 0.603477 0.106342
O O1 0.578542 0.744700 0.500000
O O2 0.657887 0.678590 0.598307
O O3 0.600109 0.784282 0.663158
O O4 0.535931 0.675993 0.634095
O O5 0.195840 0.195840 0.750000
O O6 0.276519 0.223482 0.874169
O O7 0.260686 0.103441 0.826192
O O8 0.500000 0.176120 0.750000
O O9 0.619300 0.119300 0.728055
O O10 0.427073 0.551519 0.134765
O O11 0.482474 0.603845 0.000000
#
# Coordination Sequence:
#
# PCOD9572114 Si02
#       4
#    32  32  32  32
#     4  10  19  31  57  87 111 143 187 236 283 331
#     4   8  16  32  50  72 104 137 169 215 276 333
#     4  10  22  39  58  80 110 149 193 239 289 350
#     4   8  15  27  42  68 110 149 175 206 256 320
#
# _framework density 20.064413999999999
#
# number of rings (size 3 to 8) (size 9 to 14) (size 15 to 20)
#    0.000    3.000    0.000    3.000    3.500    2.250 
#    0.000    0.000    0.000    2.250    0.000    1.750 
#    0.000    0.000    0.000    0.000    0.000    0.000 
#
# Total GULP energy -356732.105729 kJ/mol
# GULP energy per Si atom -5573.939152 kJ/mol
# Density = 2.001875 g / cm^3
# Si number density = 20.064414 Si / 1000 Ang^3
#
#
#
# Elastic Constant Matrix: (Units=GPa)
#
#
# Indices 1 2 3 4 5 6 
#
# 1 99.2485 29.5096 3.2293 0.0000 0.0000 0.0000
# 2 29.5096 99.2485 3.2293 0.0000 0.0000 0.0000
# 3 3.2293 3.2293 35.3672 0.0000 0.0000 0.0000
# 4 0.0000 0.0000 0.0000 10.1793 0.0000 0.0000
# 5 0.0000 0.0000 0.0000 0.0000 10.1793 0.0000
# 6 0.0000 0.0000 0.0000 0.0000 0.0000 21.8533
#
#
#
# Elastic Compliance Matrix: (Units=1/GPa)
#
#
# Indices 1 2 3 4 5 6 
#
# 1 0.011071 -0.003268 -0.000712 0.000000 0.000000 0.000000
# 2 -0.003268 0.011071 -0.000712 0.000000 0.000000 0.000000
# 3 -0.000712 -0.000712 0.028405 0.000000 0.000000 0.000000
# 4 0.000000 0.000000 0.000000 0.098238 0.000000 0.000000
# 5 0.000000 0.000000 0.000000 0.000000 0.098238 0.000000
# 6 0.000000 0.000000 0.000000 0.000000 0.000000 0.045760
#
#
# Mechanical properties :
#
#
# Convention : Reuss Voigt Hill
#
# Bulk Modulus (GPa) = 24.29559 33.97785 29.13672
# Shear Modulus (GPa) = 15.82833 21.63546 18.73189
#
# Velocity S-wave (km/s) = 2.81174 3.28731 3.05878
# Velocity P-wave (km/s) = 4.76196 5.60176 5.19884
#
# Compressibility (1/GPa) = 0.04115974
#
# Stress axis : x y z
#
# Youngs Moduli (GPa) = 90.32841 90.32841 35.20519
#
# Poissons Ratio (x) = 0.29524 0.02508
# Poissons Ratio (y) = 0.29524 0.02508
# Poissons Ratio (z) = 0.06435 0.06435
#
# Static dielectric constant tensor:
#      x y z
#    x 1.723640 0.000000 0.000000 
#    y 0.000000 1.723640 0.000000 
#    z 0.000000 0.000000 1.733230 
# 
# From -- ./inp_files/6457.got.cif
#   From: 2010.05.17/outbox.cif.g08.bks.cpg/sg140_4_cif.got.tgz:6457.got - 2010.06.21 00:45:31.
