data_PCOD9572354
_publ_section_title
;
Structure prediction by ZEFSAII (Michael W. Deem and Ramdas Pophale) SiO2 
 PCOD9572354
Probable space group: I 4/M C M
;
_chemical_formula_sum "Si O2"
_cell_formula_units_Z 176
_cell_length_a 20.688513
_cell_length_b 20.688513
_cell_length_c 16.730408
_cell_angle_alpha 90.000000
_cell_angle_beta 90.000000
_cell_angle_gamma 90.000000
_cell_volume 7160.858389
_symmetry_space_group_name_H-M "I 4/M C M"
_symmetry_group_IT_number 140
_symmetry_cell_setting 'tetragonal'
loop_
_space_group_symop_operation_xyz
x,y,z
-y,x,z
-x,-y,z
y,-x,z
x,-y,1/2-z
-x,y,1/2-z
y,x,1/2-z
-y,-x,1/2-z
-x,-y,-z
y,-x,-z
x,y,-z
-y,x,-z
-x,y,1/2+z
x,-y,1/2+z
-y,-x,1/2+z
y,x,1/2+z
1/2+x,1/2+y,1/2+z
1/2-y,1/2+x,1/2+z
1/2-x,1/2-y,1/2+z
1/2+y,1/2-x,1/2+z
1/2+x,1/2-y,-z
1/2-x,1/2+y,-z
1/2+y,1/2+x,-z
1/2-y,1/2-x,-z
1/2-x,1/2-y,1/2-z
1/2+y,1/2-x,1/2-z
1/2+x,1/2+y,1/2-z
1/2-y,1/2+x,1/2-z
1/2-x,1/2+y,z
1/2+x,1/2-y,z
1/2-y,1/2-x,z
1/2+y,1/2+x,z
loop_
_atom_site_type_symbol
_atom_site_label
_atom_site_fract_x
_atom_site_fract_y
_atom_site_fract_z
Si Si1 0.467257 0.864636 0.500000
Si Si2 0.014352 0.354856 0.168338
Si Si3 0.834272 0.221530 0.500000
Si Si4 0.765127 0.916229 0.165516
Si Si5 0.634626 0.764397 0.329008
Si Si6 0.526328 0.602778 0.903461
Si Si7 0.887788 0.751622 0.500000
O O1 0.395418 0.895418 0.500000
O O2 0.500794 0.885135 0.581928
O O3 0.456295 0.786486 0.500000
O O4 0.084034 0.323134 0.168810
O O5 0.000000 0.392809 0.250000
O O6 0.965773 0.293783 0.174312
O O7 0.769092 0.269092 0.500000
O O8 0.869753 0.234924 0.582894
O O9 0.821517 0.145309 0.500000
O O10 0.775927 0.883619 0.250856
O O11 0.829261 0.952612 0.134877
O O12 0.739397 0.869757 0.093652
O O13 0.705302 0.794699 0.318872
O O14 0.454832 0.576318 0.881188
O O15 0.524174 0.609255 0.000000
#
# Coordination Sequence:
#
# PCOD9572354 Si02
#       7
#    16  32  16  32  32  32  16
#     4  10  20  37  62  90 122 157 196 252 317 384
#     4   9  20  36  58  89 120 158 210 256 309 387
#     4  10  22  39  57  82 112 154 208 261 319 379
#     4  10  20  37  60  94 126 163 215 262 321 381
#     4  10  22  41  63  85 117 163 213 263 319 387
#     4   9  18  35  61  95 134 176 222 269 316 372
#     4  10  21  34  54  86 122 159 196 253 315 376
#
# _framework density 24.578060000000001
#
# number of rings (size 3 to 8) (size 9 to 14) (size 15 to 20)
#    0.000    2.364    0.909    1.364    0.000    9.455 
#    0.000    9.091    0.000    1.091    0.000   15.273 
#    0.000    1.455    0.000    0.000    0.000    0.000 
#
# Total GULP energy -490164.967234 kJ/mol
# GULP energy per Si atom -5570.056446 kJ/mol
# Density = 2.452212 g / cm^3
# Si number density = 24.578060 Si / 1000 Ang^3
#
#
#
# Elastic Constant Matrix: (Units=GPa)
#
#
# Indices 1 2 3 4 5 6 
#
# 1 287.3677 -187.3009 38.5423 0.0000 0.0000 0.0000
# 2 -187.3009 287.3677 38.5423 0.0000 0.0000 0.0000
# 3 38.5423 38.5423 242.0777 0.0000 0.0000 0.0000
# 4 0.0000 0.0000 0.0000 -5.6001 0.0000 0.0000
# 5 0.0000 0.0000 0.0000 0.0000 -5.6001 0.0000
# 6 0.0000 0.0000 0.0000 0.0000 0.0000 37.3470
#
#
#
# Elastic Compliance Matrix: (Units=1/GPa)
#
#
# Indices 1 2 3 4 5 6 
#
# 1 0.006749 0.004642 -0.001814 0.000000 0.000000 0.000000
# 2 0.004642 0.006749 -0.001814 0.000000 0.000000 0.000000
# 3 -0.001814 -0.001814 0.004708 0.000000 0.000000 0.000000
# 4 0.000000 0.000000 0.000000 -0.178569 0.000000 0.000000
# 5 0.000000 0.000000 0.000000 0.000000 -0.178569 0.000000
# 6 0.000000 0.000000 0.000000 0.000000 0.000000 0.026776
#
#
# Mechanical properties :
#
#
# Convention : Reuss Voigt Hill
#
# Bulk Modulus (GPa) = 49.41933 66.26452 57.84193
# Shear Modulus (GPa) = -16.26332 67.03133 25.38401
#
# Velocity S-wave (km/s) = -2.57514 5.22801 3.21719
# Velocity P-wave (km/s) = 3.36287 7.96631 6.11437
#
# Compressibility (1/GPa) = 0.02023500
#
# Stress axis : x y z
#
# Youngs Moduli (GPa) = 148.18047 148.18047 212.38730
#
# Poissons Ratio (x) = -0.68782 0.38517
# Poissons Ratio (y) = -0.68782 0.38517
# Poissons Ratio (z) = 0.26873 0.26873
#
# Static dielectric constant tensor:
#      x y z
#    x 2.087940 0.000000 0.000000 
#    y 0.000000 2.087940 0.000000 
#    z 0.000000 0.000000 2.019460 
# 
# From -- ./inp_files/4977.got.cif
#   From: 2010.05.17/outbox.cif.g08.bks.cpg/sg140_3_cif.got.tgz:4977.got - 2010.06.21 00:45:31.
