data_PCOD9572394
_publ_section_title
;
Structure prediction by ZEFSAII (Michael W. Deem and Ramdas Pophale) SiO2 
 PCOD9572394
Probable space group: I 4/M C M
;
_chemical_formula_sum "Si O2"
_cell_formula_units_Z 192
_cell_length_a 21.314846
_cell_length_b 21.314846
_cell_length_c 24.339976
_cell_angle_alpha 90.000000
_cell_angle_beta 90.000000
_cell_angle_gamma 90.000000
_cell_volume 11058.202641
_symmetry_space_group_name_H-M "I 4/M C M"
_symmetry_group_IT_number 140
_symmetry_cell_setting 'tetragonal'
loop_
_space_group_symop_operation_xyz
x,y,z
-y,x,z
-x,-y,z
y,-x,z
x,-y,1/2-z
-x,y,1/2-z
y,x,1/2-z
-y,-x,1/2-z
-x,-y,-z
y,-x,-z
x,y,-z
-y,x,-z
-x,y,1/2+z
x,-y,1/2+z
-y,-x,1/2+z
y,x,1/2+z
1/2+x,1/2+y,1/2+z
1/2-y,1/2+x,1/2+z
1/2-x,1/2-y,1/2+z
1/2+y,1/2-x,1/2+z
1/2+x,1/2-y,-z
1/2-x,1/2+y,-z
1/2+y,1/2+x,-z
1/2-y,1/2-x,-z
1/2-x,1/2-y,1/2-z
1/2+y,1/2-x,1/2-z
1/2+x,1/2+y,1/2-z
1/2-y,1/2+x,1/2-z
1/2-x,1/2+y,z
1/2+x,1/2-y,z
1/2-y,1/2-x,z
1/2+y,1/2+x,z
loop_
_atom_site_type_symbol
_atom_site_label
_atom_site_fract_x
_atom_site_fract_y
_atom_site_fract_z
Si Si1 0.854180 0.252599 0.241076
Si Si2 0.600420 0.533046 0.563497
Si Si3 0.331380 0.932762 0.065896
Si Si4 0.822462 0.576412 0.433951
Si Si5 0.394301 0.699763 0.369000
Si Si6 0.148829 0.754480 0.362252
O O1 0.800112 0.199889 0.250000
O O2 0.816295 0.316295 0.225852
O O3 0.898436 0.227081 0.192979
O O4 0.881567 0.257802 0.302253
O O5 0.538337 0.576407 0.569599
O O6 0.623128 0.540497 0.500000
O O7 0.651858 0.553972 0.607697
O O8 0.393191 0.893191 0.082091
O O9 0.272862 0.896397 0.091699
O O10 0.331691 0.004614 0.083754
O O11 0.327368 0.931250 0.000000
O O12 0.817628 0.577187 0.500000
O O13 0.881134 0.618867 0.417793
O O14 0.759730 0.604252 0.408274
O O15 0.326670 0.665811 0.371119
O O16 0.212737 0.712737 0.362648
#
# Coordination Sequence:
#
# PCOD9572394 Si02
#       6
#    32  32  32  32  32  32
#     4   8  15  30  51  75 104 137 169 207 259 317
#     4   9  20  37  53  72 102 143 182 211 253 316
#     4   9  19  35  54  76 104 140 180 215 253 314
#     4  10  21  34  49  76 110 138 171 217 267 315
#     4  11  19  30  55  79 103 133 169 217 265 308
#     4   9  18  33  54  78 106 136 170 216 265 311
#
# _framework density 17.362677999999999
#
# number of rings (size 3 to 8) (size 9 to 14) (size 15 to 20)
#    0.000    2.667    0.000    3.500    2.333    1.667 
#    0.000    4.167    3.667    0.000    0.000   10.500 
#    0.000    4.000    0.000    0.000    0.000    0.000 
#
# Total GULP energy -534996.190263 kJ/mol
# GULP energy per Si atom -5572.876982 kJ/mol
# Density = 1.732316 g / cm^3
# Si number density = 17.362678 Si / 1000 Ang^3
#
#
#
# Elastic Constant Matrix: (Units=GPa)
#
#
# Indices 1 2 3 4 5 6 
#
# 1 54.1334 10.0902 22.5104 0.0000 0.0000 0.0000
# 2 10.0902 54.1337 22.5106 0.0000 0.0000 0.0000
# 3 22.5104 22.5106 34.9719 0.0000 0.0000 0.0000
# 4 0.0000 0.0000 0.0000 12.0400 0.0000 0.0000
# 5 0.0000 0.0000 0.0000 0.0000 12.0395 0.0000
# 6 0.0000 0.0000 0.0000 0.0000 0.0000 16.8967
#
#
#
# Elastic Compliance Matrix: (Units=1/GPa)
#
#
# Indices 1 2 3 4 5 6 
#
# 1 0.025539 0.002834 -0.018263 0.000000 0.000000 0.000000
# 2 0.002834 0.025539 -0.018263 0.000000 0.000000 0.000000
# 3 -0.018263 -0.018263 0.052105 0.000000 0.000000 0.000000
# 4 0.000000 0.000000 0.000000 0.083057 0.000000 0.000000
# 5 0.000000 0.000000 0.000000 0.000000 0.083060 0.000000
# 6 0.000000 0.000000 0.000000 0.000000 0.000000 0.059183
#
#
# Mechanical properties :
#
#
# Convention : Reuss Voigt Hill
#
# Bulk Modulus (GPa) = 27.93352 28.16238 28.04795
# Shear Modulus (GPa) = 12.26094 14.07042 13.16568
#
# Velocity S-wave (km/s) = 2.66026 2.84981 2.75667
# Velocity P-wave (km/s) = 5.05561 5.20421 5.13045
#
# Compressibility (1/GPa) = 0.03579929
#
# Stress axis : x y z
#
# Youngs Moduli (GPa) = 39.15595 39.15598 19.19202
#
# Poissons Ratio (x) = -0.11097 0.35050
# Poissons Ratio (y) = -0.11097 0.35050
# Poissons Ratio (z) = 0.71510 0.71510
#
# Static dielectric constant tensor:
#      x y z
#    x 1.589380 0.000000 0.000000 
#    y 0.000000 1.589380 0.000000 
#    z 0.000000 0.000000 1.621570 
# 
# From -- ./inp_files/9791.got.cif
#   From: 2010.05.17/outbox.cif.g08.bks.cpg/sg140_5_cif.got.tgz:9791.got - 2010.06.21 00:45:31.
