data_PCOD9572869
_publ_section_title
;
Structure prediction by ZEFSAII (Michael W. Deem and Ramdas Pophale) SiO2 
 PCOD9572869
Probable space group: I 41/A M D
;
_chemical_formula_sum "Si O2"
_cell_formula_units_Z 160
_cell_length_a 22.581116
_cell_length_b 22.581116
_cell_length_c 13.866663
_cell_angle_alpha 90.000000
_cell_angle_beta 90.000000
_cell_angle_gamma 90.000000
_cell_volume 7070.705754
_symmetry_space_group_name_H-M "I 41/A M D"
_symmetry_group_IT_number 141
_space_group.IT_coordinate_system_code '2'
_symmetry_cell_setting 'tetragonal'
loop_
_space_group_symop_operation_xyz
x,y,z
1/4-y,3/4+x,1/4+z
-x,1/2-y,z
1/4+y,1/4-x,3/4+z
x,-y,-z
-x,1/2+y,-z
1/4+y,3/4+x,1/4-z
1/4-y,1/4-x,3/4-z
-x,-y,-z
3/4+y,1/4-x,3/4-z
x,1/2+y,-z
3/4-y,3/4+x,1/4-z
-x,y,z
x,1/2-y,z
3/4-y,1/4-x,3/4+z
3/4+y,3/4+x,1/4+z
1/2+x,1/2+y,1/2+z
3/4-y,1/4+x,3/4+z
1/2-x,-y,1/2+z
3/4+y,3/4-x,1/4+z
1/2+x,1/2-y,1/2-z
1/2-x,y,1/2-z
3/4+y,1/4+x,3/4-z
3/4-y,3/4-x,1/4-z
1/2-x,1/2-y,1/2-z
1/4+y,3/4-x,1/4-z
1/2+x,y,1/2-z
1/4-y,1/4+x,3/4-z
1/2-x,1/2+y,1/2+z
1/2+x,-y,1/2+z
1/4-y,3/4-x,1/4+z
1/4+y,1/4+x,3/4+z
loop_
_atom_site_type_symbol
_atom_site_label
_atom_site_fract_x
_atom_site_fract_y
_atom_site_fract_z
Si Si1 0.225559 0.929572 0.911898
Si Si2 0.936414 0.073136 0.609652
Si Si3 0.221905 0.138552 0.589670
Si Si4 0.570052 0.355201 0.233402
Si Si5 0.843206 0.186281 0.910740
O O1 0.219116 0.870309 0.846504
O O2 0.156858 0.948297 0.919252
O O3 0.270525 0.979475 0.875000
O O4 0.250362 0.907624 0.012994
O O5 0.930553 0.133611 0.549762
O O6 0.935512 0.089520 0.722999
O O7 0.000000 0.044579 0.589783
O O8 0.171094 0.172437 0.529532
O O9 0.275543 0.178741 0.622874
O O10 0.595151 0.345151 0.125000
O O11 0.500000 0.339327 0.235448
O O12 0.866789 0.250000 0.878679
O O13 0.883879 0.133879 0.875000
#
# Coordination Sequence:
#
# PCOD9572869 Si02
#       5
#    32  32  32  32  32
#     4  10  19  33  58  85 111 149 196 243 294 354
#     4   9  21  40  59  85 123 160 196 245 305 362
#     4  10  21  38  58  84 122 158 197 251 309 363
#     4  11  23  39  61  89 121 163 212 255 297 351
#     4  10  21  39  63  89 118 156 199 246 303 366
#
# _framework density 22.628574
#
# number of rings (size 3 to 8) (size 9 to 14) (size 15 to 20)
#    0.000    2.000    0.000    3.000    0.000    6.400 
#    0.000    8.000    0.000   27.600    0.000    0.000 
#    0.000    0.400    0.000    0.000    0.000    0.000 
#
# Total GULP energy -446594.810834 kJ/mol
# GULP energy per Si atom -5582.435135 kJ/mol
# Density = 2.257707 g / cm^3
# Si number density = 22.628574 Si / 1000 Ang^3
#
#
#
# Elastic Constant Matrix: (Units=GPa)
#
#
# Indices 1 2 3 4 5 6 
#
# 1 123.6395 52.5107 21.5493 0.0000 0.0000 0.0000
# 2 52.5107 123.6383 21.5486 0.0000 0.0000 0.0000
# 3 21.5493 21.5486 36.9167 0.0000 0.0000 0.0000
# 4 0.0000 0.0000 0.0000 39.4218 0.0000 0.0000
# 5 0.0000 0.0000 0.0000 0.0000 39.4138 0.0000
# 6 0.0000 0.0000 0.0000 0.0000 0.0000 8.2831
#
#
#
# Elastic Compliance Matrix: (Units=1/GPa)
#
#
# Indices 1 2 3 4 5 6 
#
# 1 0.010341 -0.003718 -0.003866 0.000000 0.000000 0.000000
# 2 -0.003718 0.010341 -0.003866 0.000000 0.000000 0.000000
# 3 -0.003866 -0.003866 0.031601 0.000000 0.000000 0.000000
# 4 0.000000 0.000000 0.000000 0.025367 0.000000 0.000000
# 5 0.000000 0.000000 0.000000 0.000000 0.025372 0.000000
# 6 0.000000 0.000000 0.000000 0.000000 0.000000 0.120727
#
#
# Mechanical properties :
#
#
# Convention : Reuss Voigt Hill
#
# Bulk Modulus (GPa) = 34.03283 52.82349 43.42816
# Shear Modulus (GPa) = 19.49751 29.99616 24.74684
#
# Velocity S-wave (km/s) = 2.93854 3.64481 3.31057
# Velocity P-wave (km/s) = 5.15614 6.41149 5.81778
#
# Compressibility (1/GPa) = 0.02938339
#
# Stress axis : x y z
#
# Youngs Moduli (GPa) = 96.70279 96.70250 31.64439
#
# Poissons Ratio (x) = 0.35955 0.12234
# Poissons Ratio (y) = 0.35955 0.12233
# Poissons Ratio (z) = 0.37385 0.37383
#
# Static dielectric constant tensor:
#      x y z
#    x 1.881090 0.000000 0.000000 
#    y 0.000000 1.881090 0.000000 
#    z 0.000000 0.000000 1.861120 
# 
# From -- ./inp_files/8597.got.cif
#   From: 2010.05.17/outbox.cif.g08.bks.cpg/sg141_5_cif.got.tgz:8597.got - 2010.05.20 13:30:51.
