data_PCOD9572176
_publ_section_title
;
Structure prediction by ZEFSAII (Michael W. Deem and Ramdas Pophale) SiO2 
 PCOD9572176
Probable space group: I 4/M C M
;
_chemical_formula_sum "Si O2"
_cell_formula_units_Z 192
_cell_length_a 21.452389
_cell_length_b 21.452389
_cell_length_c 21.378983
_cell_angle_alpha 90.000000
_cell_angle_beta 90.000000
_cell_angle_gamma 90.000000
_cell_volume 9838.714739
_symmetry_space_group_name_H-M "I 4/M C M"
_symmetry_group_IT_number 140
_symmetry_cell_setting 'tetragonal'
loop_
_space_group_symop_operation_xyz
x,y,z
-y,x,z
-x,-y,z
y,-x,z
x,-y,1/2-z
-x,y,1/2-z
y,x,1/2-z
-y,-x,1/2-z
-x,-y,-z
y,-x,-z
x,y,-z
-y,x,-z
-x,y,1/2+z
x,-y,1/2+z
-y,-x,1/2+z
y,x,1/2+z
1/2+x,1/2+y,1/2+z
1/2-y,1/2+x,1/2+z
1/2-x,1/2-y,1/2+z
1/2+y,1/2-x,1/2+z
1/2+x,1/2-y,-z
1/2-x,1/2+y,-z
1/2+y,1/2+x,-z
1/2-y,1/2-x,-z
1/2-x,1/2-y,1/2-z
1/2+y,1/2-x,1/2-z
1/2+x,1/2+y,1/2-z
1/2-y,1/2+x,1/2-z
1/2-x,1/2+y,z
1/2+x,1/2-y,z
1/2-y,1/2-x,z
1/2+y,1/2+x,z
loop_
_atom_site_type_symbol
_atom_site_label
_atom_site_fract_x
_atom_site_fract_y
_atom_site_fract_z
Si Si1 0.090498 0.307870 0.365485
Si Si2 0.520468 0.123451 0.926938
Si Si3 0.251931 0.645869 0.255711
Si Si4 0.875881 0.274485 0.603886
Si Si5 0.550031 0.681480 0.075244
Si Si6 0.146994 0.085031 0.570686
O O1 0.154169 0.345832 0.378025
O O2 0.099800 0.273429 0.298373
O O3 0.074928 0.249628 0.409218
O O4 0.034985 0.357570 0.379751
O O5 0.560246 0.060246 0.913380
O O6 0.570178 0.179901 0.920613
O O7 0.499521 0.120254 0.000000
O O8 0.319572 0.680428 0.250000
O O9 0.202386 0.702386 0.253780
O O10 0.243063 0.615039 0.323385
O O11 0.812066 0.312066 0.597766
O O12 0.875308 0.209863 0.568446
O O13 0.594848 0.627614 0.101223
O O14 0.480638 0.667442 0.099167
O O15 0.625302 0.571347 0.000000
O O16 0.178441 0.950937 0.500000
#
# Coordination Sequence:
#
# PCOD9572176 Si02
#       6
#    32  32  32  32  32  32
#     4  11  22  37  59  86 118 152 194 249 303 359
#     4  10  21  37  57  84 121 162 203 246 296 359
#     4   9  19  35  55  83 117 150 190 243 300 354
#     4  10  19  34  58  82 109 149 195 237 288 353
#     4  10  21  36  54  80 112 148 191 239 295 355
#     4  10  20  35  55  80 113 148 189 239 289 352
#
# _framework density 19.514744
#
# number of rings (size 3 to 8) (size 9 to 14) (size 15 to 20)
#    0.000    2.000    1.667    2.000    0.000    5.667 
#    0.000    4.167    0.000    0.000    0.000    4.667 
#    0.000    4.000    0.000    0.000    0.000    0.000 
#
# Total GULP energy -534662.526540 kJ/mol
# GULP energy per Si atom -5569.401318 kJ/mol
# Density = 1.947033 g / cm^3
# Si number density = 19.514744 Si / 1000 Ang^3
#
#
#
# Elastic Constant Matrix: (Units=GPa)
#
#
# Indices 1 2 3 4 5 6 
#
# 1 83.9366 67.1046 27.4575 0.0000 0.0000 0.0000
# 2 67.1046 83.9360 27.4582 0.0000 0.0000 0.0000
# 3 27.4575 27.4582 74.4003 0.0000 0.0000 0.0000
# 4 0.0000 0.0000 0.0000 -47.0014 0.0000 0.0000
# 5 0.0000 0.0000 0.0000 0.0000 -46.9657 0.0000
# 6 0.0000 0.0000 0.0000 0.0000 0.0000 35.0269
#
#
#
# Elastic Compliance Matrix: (Units=1/GPa)
#
#
# Indices 1 2 3 4 5 6 
#
# 1 0.033529 -0.025882 -0.002822 0.000000 0.000000 0.000000
# 2 -0.025882 0.033529 -0.002822 0.000000 0.000000 0.000000
# 3 -0.002822 -0.002822 0.015524 0.000000 0.000000 0.000000
# 4 0.000000 0.000000 0.000000 -0.021276 0.000000 0.000000
# 5 0.000000 0.000000 0.000000 0.000000 -0.021292 0.000000
# 6 0.000000 0.000000 0.000000 0.000000 0.000000 0.028550
#
#
# Mechanical properties :
#
#
# Convention : Reuss Voigt Hill
#
# Bulk Modulus (GPa) = 51.20582 54.03484 52.62033
# Shear Modulus (GPa) = 36.19866 -3.77121 16.21373
#
# Velocity S-wave (km/s) = 4.31157 -1.39165 2.88557
# Velocity P-wave (km/s) = 7.14722 5.01668 6.17454
#
# Compressibility (1/GPa) = 0.01952903
#
# Stress axis : x y z
#
# Youngs Moduli (GPa) = 29.82493 29.82450 64.41709
#
# Poissons Ratio (x) = 0.77193 0.18177
# Poissons Ratio (y) = 0.77194 0.18182
# Poissons Ratio (z) = 0.08416 0.08418
#
# Static dielectric constant tensor:
#      x y z
#    x 1.706780 0.000000 0.000000 
#    y 0.000000 1.706770 0.000000 
#    z 0.000000 0.000000 1.768820 
# 
# From -- ./inp_files/9766.got.cif
#   From: 2010.05.17/outbox.cif.g08.bks.cpg/sg140_5_cif.got.tgz:9766.got - 2010.06.21 00:45:31.
