data_PCOD9572201
_publ_section_title
;
Structure prediction by ZEFSAII (Michael W. Deem and Ramdas Pophale) SiO2 
 PCOD9572201
Probable space group: I 4/M C M
;
_chemical_formula_sum "Si O2"
_cell_formula_units_Z 176
_cell_length_a 23.567771
_cell_length_b 23.567771
_cell_length_c 15.709059
_cell_angle_alpha 90.000000
_cell_angle_beta 90.000000
_cell_angle_gamma 90.000000
_cell_volume 8725.437059
_symmetry_space_group_name_H-M "I 4/M C M"
_symmetry_group_IT_number 140
_symmetry_cell_setting 'tetragonal'
loop_
_space_group_symop_operation_xyz
x,y,z
-y,x,z
-x,-y,z
y,-x,z
x,-y,1/2-z
-x,y,1/2-z
y,x,1/2-z
-y,-x,1/2-z
-x,-y,-z
y,-x,-z
x,y,-z
-y,x,-z
-x,y,1/2+z
x,-y,1/2+z
-y,-x,1/2+z
y,x,1/2+z
1/2+x,1/2+y,1/2+z
1/2-y,1/2+x,1/2+z
1/2-x,1/2-y,1/2+z
1/2+y,1/2-x,1/2+z
1/2+x,1/2-y,-z
1/2-x,1/2+y,-z
1/2+y,1/2+x,-z
1/2-y,1/2-x,-z
1/2-x,1/2-y,1/2-z
1/2+y,1/2-x,1/2-z
1/2+x,1/2+y,1/2-z
1/2-y,1/2+x,1/2-z
1/2-x,1/2+y,z
1/2+x,1/2-y,z
1/2-y,1/2-x,z
1/2+y,1/2+x,z
loop_
_atom_site_type_symbol
_atom_site_label
_atom_site_fract_x
_atom_site_fract_y
_atom_site_fract_z
Si Si1 0.547108 0.343405 0.397692
Si Si2 0.914679 0.500000 0.750000
Si Si3 0.444408 0.770670 0.311918
Si Si4 0.369017 0.224183 0.342579
Si Si5 0.585783 0.344803 0.896985
Si Si6 0.843111 0.527245 0.907609
O O1 0.546992 0.338935 0.500000
O O2 0.571527 0.288138 0.353362
O O3 0.480744 0.344341 0.372038
O O4 0.592131 0.392071 0.375276
O O5 0.953970 0.453970 0.794543
O O6 0.881165 0.530287 0.824095
O O7 0.500000 0.764912 0.250000
O O8 0.392999 0.789447 0.252104
O O9 0.469156 0.809200 0.387602
O O10 0.309350 0.190651 0.355773
O O11 0.377969 0.292180 0.357505
O O12 0.417520 0.196902 0.403212
O O13 0.589117 0.338202 0.000000
O O14 0.870613 0.525228 0.000000
#
# Coordination Sequence:
#
# PCOD9572201 Si02
#       6
#    32  16  32  32  32  32
#     4  10  20  38  60  87 124 162 208 258 311 377
#     4  11  24  40  56  84 126 160 201 262 320 380
#     4  10  19  36  59  87 117 160 198 250 314 373
#     4  11  22  38  61  91 124 158 208 265 310 368
#     4  10  21  37  61  91 123 165 210 258 314 374
#     4  11  21  37  63  88 117 160 207 257 316 381
#
# _framework density 20.170909999999999
#
# number of rings (size 3 to 8) (size 9 to 14) (size 15 to 20)
#    0.000    1.545    6.364    1.636    0.000    4.000 
#    0.000    4.545    0.000    2.727    0.000    0.000 
#    0.000    0.000    0.000    0.000    0.000    0.000 
#
# Total GULP energy -489924.750207 kJ/mol
# GULP energy per Si atom -5567.326707 kJ/mol
# Density = 2.012500 g / cm^3
# Si number density = 20.170910 Si / 1000 Ang^3
#
#
#
# Elastic Constant Matrix: (Units=GPa)
#
#
# Indices 1 2 3 4 5 6 
#
# 1 78.1258 58.9693 24.4064 0.0000 0.0000 0.0000
# 2 58.9693 78.1258 24.4064 0.0000 0.0000 0.0000
# 3 24.4064 24.4064 46.1050 0.0000 0.0000 0.0000
# 4 0.0000 0.0000 0.0000 65.3787 0.0000 0.0000
# 5 0.0000 0.0000 0.0000 0.0000 65.3787 0.0000
# 6 0.0000 0.0000 0.0000 0.0000 0.0000 29.1033
#
#
#
# Elastic Compliance Matrix: (Units=1/GPa)
#
#
# Indices 1 2 3 4 5 6 
#
# 1 0.030595 -0.021607 -0.004758 0.000000 0.000000 0.000000
# 2 -0.021607 0.030595 -0.004758 0.000000 0.000000 0.000000
# 3 -0.004758 -0.004758 0.026727 0.000000 0.000000 0.000000
# 4 0.000000 0.000000 0.000000 0.015296 0.000000 0.000000
# 5 0.000000 0.000000 0.000000 0.000000 0.015296 0.000000
# 6 0.000000 0.000000 0.000000 0.000000 0.000000 0.034360
#
#
# Mechanical properties :
#
#
# Convention : Reuss Voigt Hill
#
# Bulk Modulus (GPa) = 38.95384 46.43563 42.69473
# Shear Modulus (GPa) = 22.35419 38.27708 30.31564
#
# Velocity S-wave (km/s) = 3.33263 4.36091 3.88098
# Velocity P-wave (km/s) = 5.84486 6.95901 6.42613
#
# Compressibility (1/GPa) = 0.02567141
#
# Stress axis : x y z
#
# Youngs Moduli (GPa) = 32.68505 32.68505 37.41508
#
# Poissons Ratio (x) = 0.70622 0.17803
# Poissons Ratio (y) = 0.70622 0.17803
# Poissons Ratio (z) = 0.15552 0.15552
#
# Static dielectric constant tensor:
#      x y z
#    x 1.819150 0.000000 0.000000 
#    y 0.000000 1.819150 0.000000 
#    z 0.000000 0.000000 1.737760 
# 
# From -- ./inp_files/4917.got.cif
#   From: 2010.05.17/outbox.cif.g08.bks.cpg/sg140_3_cif.got.tgz:4917.got - 2010.06.21 00:45:31.
