data_PCOD9572878
_publ_section_title
;
Structure prediction by ZEFSAII (Michael W. Deem and Ramdas Pophale) SiO2 
 PCOD9572878
Probable space group: I 41/A M D
;
_chemical_formula_sum "Si O2"
_cell_formula_units_Z 160
_cell_length_a 26.628807
_cell_length_b 26.628807
_cell_length_c 12.448365
_cell_angle_alpha 90.000000
_cell_angle_beta 90.000000
_cell_angle_gamma 90.000000
_cell_volume 8827.052992
_symmetry_space_group_name_H-M "I 41/A M D"
_symmetry_group_IT_number 141
_space_group.IT_coordinate_system_code '2'
_symmetry_cell_setting 'tetragonal'
loop_
_space_group_symop_operation_xyz
x,y,z
1/4-y,3/4+x,1/4+z
-x,1/2-y,z
1/4+y,1/4-x,3/4+z
x,-y,-z
-x,1/2+y,-z
1/4+y,3/4+x,1/4-z
1/4-y,1/4-x,3/4-z
-x,-y,-z
3/4+y,1/4-x,3/4-z
x,1/2+y,-z
3/4-y,3/4+x,1/4-z
-x,y,z
x,1/2-y,z
3/4-y,1/4-x,3/4+z
3/4+y,3/4+x,1/4+z
1/2+x,1/2+y,1/2+z
3/4-y,1/4+x,3/4+z
1/2-x,-y,1/2+z
3/4+y,3/4-x,1/4+z
1/2+x,1/2-y,1/2-z
1/2-x,y,1/2-z
3/4+y,1/4+x,3/4-z
3/4-y,3/4-x,1/4-z
1/2-x,1/2-y,1/2-z
1/4+y,3/4-x,1/4-z
1/2+x,y,1/2-z
1/4-y,1/4+x,3/4-z
1/2-x,1/2+y,1/2+z
1/2+x,-y,1/2+z
1/4-y,3/4-x,1/4+z
1/4+y,1/4+x,3/4+z
loop_
_atom_site_type_symbol
_atom_site_label
_atom_site_fract_x
_atom_site_fract_y
_atom_site_fract_z
Si Si1 0.809557 0.861542 0.743126
Si Si2 0.313296 0.647752 0.002719
Si Si3 0.444000 0.885385 0.186791
Si Si4 0.442338 0.392852 0.453391
Si Si5 0.720079 0.807430 0.383882
O O1 0.750000 0.870013 0.750000
O O2 0.842025 0.912630 0.758200
O O3 0.816229 0.839828 0.622912
O O4 0.833137 0.825391 0.833402
O O5 0.346144 0.684025 0.077575
O O6 0.259013 0.655411 0.057341
O O7 0.500000 0.865435 0.166286
O O8 0.404337 0.843278 0.221861
O O9 0.446046 0.924181 0.284002
O O10 0.500000 0.382958 0.479752
O O11 0.427686 0.442955 0.521861
O O12 0.741285 0.750000 0.374363
#
# Coordination Sequence:
#
# PCOD9572878 Si02
#       5
#    32  32  32  32  32
#     4  10  20  37  57  80 111 142 182 232 278 329
#     4  10  20  34  59  80 108 143 181 231 278 329
#     4  10  21  35  56  83 110 145 187 229 275 330
#     4  10  21  36  55  81 114 147 183 229 279 330
#     4  10  19  34  57  82 108 142 185 227 271 325
#
# _framework density 18.126094999999999
#
# number of rings (size 3 to 8) (size 9 to 14) (size 15 to 20)
#    0.000    2.000    2.000    1.800    0.000    4.000 
#    0.000    0.000    8.800    3.600    0.000    5.600 
#    0.000    0.000    0.000    0.000    0.000    0.000 
#
# Total GULP energy -445548.181128 kJ/mol
# GULP energy per Si atom -5569.352264 kJ/mol
# Density = 1.808484 g / cm^3
# Si number density = 18.126095 Si / 1000 Ang^3
#
#
#
# Elastic Constant Matrix: (Units=GPa)
#
#
# Indices 1 2 3 4 5 6 
#
# 1 85.6768 46.0561 26.3464 0.0000 0.0000 0.0000
# 2 46.0561 85.6768 26.3464 0.0000 0.0000 0.0000
# 3 26.3464 26.3464 120.5269 0.0000 0.0000 0.0000
# 4 0.0000 0.0000 0.0000 23.8419 0.0000 0.0000
# 5 0.0000 0.0000 0.0000 0.0000 23.8419 0.0000
# 6 0.0000 0.0000 0.0000 0.0000 0.0000 24.4103
#
#
#
# Elastic Compliance Matrix: (Units=1/GPa)
#
#
# Indices 1 2 3 4 5 6 
#
# 1 0.016779 -0.008460 -0.001818 0.000000 0.000000 0.000000
# 2 -0.008460 0.016779 -0.001818 0.000000 0.000000 0.000000
# 3 -0.001818 -0.001818 0.009092 0.000000 0.000000 0.000000
# 4 0.000000 0.000000 0.000000 0.041943 0.000000 0.000000
# 5 0.000000 0.000000 0.000000 0.000000 0.041943 0.000000
# 6 0.000000 0.000000 0.000000 0.000000 0.000000 0.040966
#
#
# Mechanical properties :
#
#
# Convention : Reuss Voigt Hill
#
# Bulk Modulus (GPa) = 54.18485 54.37535 54.28010
# Shear Modulus (GPa) = 25.27191 27.29425 26.28308
#
# Velocity S-wave (km/s) = 3.73799 3.88467 3.81204
# Velocity P-wave (km/s) = 6.97053 7.08410 7.02754
#
# Compressibility (1/GPa) = 0.01845534
#
# Stress axis : x y z
#
# Youngs Moduli (GPa) = 59.59861 59.59861 109.98840
#
# Poissons Ratio (x) = 0.50423 0.20000
# Poissons Ratio (y) = 0.50423 0.20000
# Poissons Ratio (z) = 0.10837 0.10837
#
# Static dielectric constant tensor:
#      x y z
#    x 1.635690 0.000000 0.000000 
#    y 0.000000 1.635690 0.000000 
#    z 0.000000 0.000000 1.647990 
# 
# From -- ./inp_files/4845.got.cif
#   From: 2010.05.17/outbox.cif.g08.bks.cpg/sg141_3_cif.got.tgz:4845.got - 2010.05.20 13:30:51.
