data_PCOD9572473
_publ_section_title
;
Structure prediction by ZEFSAII (Michael W. Deem and Ramdas Pophale) SiO2 
 PCOD9572473
Probable space group: I 4/M C M
;
_chemical_formula_sum "Si O2"
_cell_formula_units_Z 168
_cell_length_a 23.017655
_cell_length_b 23.017655
_cell_length_c 15.691731
_cell_angle_alpha 90.000000
_cell_angle_beta 90.000000
_cell_angle_gamma 90.000000
_cell_volume 8313.674316
_symmetry_space_group_name_H-M "I 4/M C M"
_symmetry_group_IT_number 140
_symmetry_cell_setting 'tetragonal'
loop_
_space_group_symop_operation_xyz
x,y,z
-y,x,z
-x,-y,z
y,-x,z
x,-y,1/2-z
-x,y,1/2-z
y,x,1/2-z
-y,-x,1/2-z
-x,-y,-z
y,-x,-z
x,y,-z
-y,x,-z
-x,y,1/2+z
x,-y,1/2+z
-y,-x,1/2+z
y,x,1/2+z
1/2+x,1/2+y,1/2+z
1/2-y,1/2+x,1/2+z
1/2-x,1/2-y,1/2+z
1/2+y,1/2-x,1/2+z
1/2+x,1/2-y,-z
1/2-x,1/2+y,-z
1/2+y,1/2+x,-z
1/2-y,1/2-x,-z
1/2-x,1/2-y,1/2-z
1/2+y,1/2-x,1/2-z
1/2+x,1/2+y,1/2-z
1/2-y,1/2+x,1/2-z
1/2-x,1/2+y,z
1/2+x,1/2-y,z
1/2-y,1/2-x,z
1/2+y,1/2+x,z
loop_
_atom_site_type_symbol
_atom_site_label
_atom_site_fract_x
_atom_site_fract_y
_atom_site_fract_z
Si Si1 0.485372 0.327318 0.345849
Si Si2 0.924391 0.424391 0.000000
Si Si3 0.304825 0.714704 0.150251
Si Si4 0.417883 0.217618 0.402213
Si Si5 0.622941 0.392597 0.097012
Si Si6 0.893801 0.512994 0.148798
O O1 0.500000 0.309202 0.250000
O O2 0.462877 0.271131 0.395755
O O3 0.431147 0.371854 0.345847
O O4 0.542986 0.355647 0.383974
O O5 0.891021 0.462236 0.077710
O O6 0.296512 0.703489 0.250000
O O7 0.247137 0.747137 0.116879
O O8 0.358731 0.758528 0.138465
O O9 0.325338 0.654227 0.109274
O O10 0.405631 0.203913 0.500000
O O11 0.445860 0.162060 0.359140
O O12 0.602180 0.388205 0.000000
O O13 0.899484 0.500000 0.250000
O O14 0.950712 0.549289 0.122887
#
# Coordination Sequence:
#
# PCOD9572473 Si02
#       6
#    32   8  32  32  32  32
#     4  11  22  40  62  88 120 159 201 249 311 378
#     4  12  25  44  64  92 136 172 218 290 340 402
#     4  10  21  38  61  89 121 160 207 258 309 372
#     4  11  23  40  64  92 123 166 217 272 324 387
#     4  11  22  38  62  89 121 156 196 250 307 368
#     4  12  24  40  65  94 128 173 224 276 339 400
#
# _framework density 20.207671999999999
#
# number of rings (size 3 to 8) (size 9 to 14) (size 15 to 20)
#    0.000    0.952    1.905    8.286    0.000    2.667 
#    0.000    1.905    2.095    0.000    0.000    0.000 
#    0.000    0.000    0.000    0.000    0.000    0.000 
#
# Total GULP energy -468190.922529 kJ/mol
# GULP energy per Si atom -5573.701459 kJ/mol
# Density = 2.016168 g / cm^3
# Si number density = 20.207672 Si / 1000 Ang^3
#
#
#
# Elastic Constant Matrix: (Units=GPa)
#
#
# Indices 1 2 3 4 5 6 
#
# 1 82.5430 38.1725 5.4538 0.0000 0.0000 0.0000
# 2 38.1725 82.5458 5.4537 0.0000 0.0000 0.0000
# 3 5.4538 5.4537 95.0102 0.0000 0.0000 0.0000
# 4 0.0000 0.0000 0.0000 39.8633 0.0000 0.0000
# 5 0.0000 0.0000 0.0000 0.0000 39.8720 0.0000
# 6 0.0000 0.0000 0.0000 0.0000 0.0000 26.1600
#
#
#
# Elastic Compliance Matrix: (Units=1/GPa)
#
#
# Indices 1 2 3 4 5 6 
#
# 1 0.015432 -0.007105 -0.000478 0.000000 0.000000 0.000000
# 2 -0.007105 0.015432 -0.000478 0.000000 0.000000 0.000000
# 3 -0.000478 -0.000478 0.010580 0.000000 0.000000 0.000000
# 4 0.000000 0.000000 0.000000 0.025086 0.000000 0.000000
# 5 0.000000 0.000000 0.000000 0.000000 0.025080 0.000000
# 6 0.000000 0.000000 0.000000 0.000000 0.000000 0.038226
#
#
# Mechanical properties :
#
#
# Convention : Reuss Voigt Hill
#
# Bulk Modulus (GPa) = 39.49106 39.80654 39.64880
# Shear Modulus (GPa) = 32.38373 35.24700 33.81536
#
# Velocity S-wave (km/s) = 4.00752 4.18094 4.09515
# Velocity P-wave (km/s) = 6.40302 6.56114 6.48256
#
# Compressibility (1/GPa) = 0.02532219
#
# Stress axis : x y z
#
# Youngs Moduli (GPa) = 64.79976 64.80194 94.51744
#
# Poissons Ratio (x) = 0.46041 0.04518
# Poissons Ratio (y) = 0.46039 0.04517
# Poissons Ratio (z) = 0.03098 0.03097
#
# Static dielectric constant tensor:
#      x y z
#    x 1.745990 0.000000 0.000000 
#    y 0.000000 1.745990 0.000000 
#    z 0.000000 0.000000 1.723320 
# 
# From -- ./inp_files/4916.got.cif
#   From: 2010.05.17/outbox.cif.g08.bks.cpg/sg140_3_cif.got.tgz:4916.got - 2010.06.21 00:45:31.
