data_PCOD9572636
_publ_section_title
;
Structure prediction by ZEFSAII (Michael W. Deem and Ramdas Pophale) SiO2 
 PCOD9572636
Probable space group: I 4/M C M
;
_chemical_formula_sum "Si O2"
_cell_formula_units_Z 120
_cell_length_a 17.277558
_cell_length_b 17.277558
_cell_length_c 20.528831
_cell_angle_alpha 90.000000
_cell_angle_beta 90.000000
_cell_angle_gamma 90.000000
_cell_volume 6128.143672
_symmetry_space_group_name_H-M "I 4/M C M"
_symmetry_group_IT_number 140
_symmetry_cell_setting 'tetragonal'
loop_
_space_group_symop_operation_xyz
x,y,z
-y,x,z
-x,-y,z
y,-x,z
x,-y,1/2-z
-x,y,1/2-z
y,x,1/2-z
-y,-x,1/2-z
-x,-y,-z
y,-x,-z
x,y,-z
-y,x,-z
-x,y,1/2+z
x,-y,1/2+z
-y,-x,1/2+z
y,x,1/2+z
1/2+x,1/2+y,1/2+z
1/2-y,1/2+x,1/2+z
1/2-x,1/2-y,1/2+z
1/2+y,1/2-x,1/2+z
1/2+x,1/2-y,-z
1/2-x,1/2+y,-z
1/2+y,1/2+x,-z
1/2-y,1/2-x,-z
1/2-x,1/2-y,1/2-z
1/2+y,1/2-x,1/2-z
1/2+x,1/2+y,1/2-z
1/2-y,1/2+x,1/2-z
1/2-x,1/2+y,z
1/2+x,1/2-y,z
1/2-y,1/2-x,z
1/2+y,1/2+x,z
loop_
_atom_site_type_symbol
_atom_site_label
_atom_site_fract_x
_atom_site_fract_y
_atom_site_fract_z
Si Si1 0.000000 0.500000 0.876934
Si Si2 0.500000 0.758842 0.750000
Si Si3 0.616948 0.116948 0.573467
Si Si4 0.217925 0.911350 0.371846
Si Si5 0.262773 0.762773 0.172245
Si Si6 0.548321 0.379527 0.500000
Si Si7 0.618084 0.881917 0.306290
O O1 0.052668 0.552668 0.921540
O O2 0.056666 0.443335 0.835350
O O3 0.531070 0.708530 0.810564
O O4 0.569698 0.817644 0.732893
O O5 0.638129 0.138129 0.500000
O O6 0.691939 0.083627 0.608740
O O7 0.209851 0.820981 0.353382
O O8 0.167870 0.932661 0.434564
O O9 0.250000 0.750000 0.250000
O O10 0.326368 0.826368 0.151060
O O11 0.597256 0.458429 0.500000
#
# Coordination Sequence:
#
# PCOD9572636 Si02
#       7
#     8  16  16  32  16  16  16
#     4  12  23  35  66  96 144 184 224 272 348 424
#     4  12  22  39  68 101 136 182 226 284 344 419
#     4  11  21  41  62  95 137 185 219 273 336 417
#     4  11  24  43  70  95 135 182 227 282 355 414
#     4  11  23  41  64 104 140 175 232 281 337 421
#     4  11  28  49  70  93 124 173 236 298 358 422
#     4  12  23  39  61 103 144 179 222 280 345 413
#
# _framework density 19.581786000000001
#
# number of rings (size 3 to 8) (size 9 to 14) (size 15 to 20)
#    0.000    0.667    6.667    1.800    3.733    0.000 
#    0.000    0.000    2.933    1.600    0.000    0.000 
#    0.000    0.000    0.000    0.000    0.000    0.000 
#
# Total GULP energy -334994.738915 kJ/mol
# GULP energy per Si atom -5583.245649 kJ/mol
# Density = 1.953722 g / cm^3
# Si number density = 19.581786 Si / 1000 Ang^3
#
#
#
# Elastic Constant Matrix: (Units=GPa)
#
#
# Indices 1 2 3 4 5 6 
#
# 1 58.9965 103.9456 58.9816 0.0000 0.0000 0.0000
# 2 103.9456 58.9965 58.9816 0.0000 0.0000 0.0000
# 3 58.9816 58.9816 151.5592 0.0000 0.0000 0.0000
# 4 0.0000 0.0000 0.0000 30.6730 0.0000 0.0000
# 5 0.0000 0.0000 0.0000 0.0000 30.6730 0.0000
# 6 0.0000 0.0000 0.0000 0.0000 0.0000 40.8330
#
#
#
# Elastic Compliance Matrix: (Units=1/GPa)
#
#
# Indices 1 2 3 4 5 6 
#
# 1 -0.006851 0.015396 -0.003325 0.000000 0.000000 0.000000
# 2 0.015396 -0.006851 -0.003325 0.000000 0.000000 0.000000
# 3 -0.003325 -0.003325 0.009186 0.000000 0.000000 0.000000
# 4 0.000000 0.000000 0.000000 0.032602 0.000000 0.000000
# 5 0.000000 0.000000 0.000000 0.000000 0.032602 0.000000
# 6 0.000000 0.000000 0.000000 0.000000 0.000000 0.024490
#
#
# Mechanical properties :
#
#
# Convention : Reuss Voigt Hill
#
# Bulk Modulus (GPa) = 77.07559 79.26332 78.16945
# Shear Modulus (GPa) = 69.43396 23.61204 46.52300
#
# Velocity S-wave (km/s) = 5.96116 3.47625 4.87954
# Velocity P-wave (km/s) = 9.31809 7.52851 8.47069
#
# Compressibility (1/GPa) = 0.01297428
#
# Stress axis : x y z
#
# Youngs Moduli (GPa) = -145.95419 -145.95420 108.85906
#
# Poissons Ratio (x) = 2.24710 0.36198
# Poissons Ratio (y) = 2.24710 0.36198
# Poissons Ratio (z) = -0.48533 -0.48533
#
# Static dielectric constant tensor:
#      x y z
#    x 1.666230 0.000000 0.000000 
#    y 0.000000 1.666230 0.000000 
#    z 0.000000 0.000000 1.701820 
# 
# From -- ./inp_files/8074.got.cif
#   From: 2010.05.17/outbox.cif.g08.bks.cpg/sg140_5_cif.got.tgz:8074.got - 2010.06.21 00:45:31.
