data_PCOD9572190
_publ_section_title
;
Structure prediction by ZEFSAII (Michael W. Deem and Ramdas Pophale) SiO2 
 PCOD9572190
Probable space group: I 4/M C M
;
_chemical_formula_sum "Si O2"
_cell_formula_units_Z 168
_cell_length_a 24.905480
_cell_length_b 24.905480
_cell_length_c 14.142506
_cell_angle_alpha 90.000000
_cell_angle_beta 90.000000
_cell_angle_gamma 90.000000
_cell_volume 8772.355116
_symmetry_space_group_name_H-M "I 4/M C M"
_symmetry_group_IT_number 140
_symmetry_cell_setting 'tetragonal'
loop_
_space_group_symop_operation_xyz
x,y,z
-y,x,z
-x,-y,z
y,-x,z
x,-y,1/2-z
-x,y,1/2-z
y,x,1/2-z
-y,-x,1/2-z
-x,-y,-z
y,-x,-z
x,y,-z
-y,x,-z
-x,y,1/2+z
x,-y,1/2+z
-y,-x,1/2+z
y,x,1/2+z
1/2+x,1/2+y,1/2+z
1/2-y,1/2+x,1/2+z
1/2-x,1/2-y,1/2+z
1/2+y,1/2-x,1/2+z
1/2+x,1/2-y,-z
1/2-x,1/2+y,-z
1/2+y,1/2+x,-z
1/2-y,1/2-x,-z
1/2-x,1/2-y,1/2-z
1/2+y,1/2-x,1/2-z
1/2+x,1/2+y,1/2-z
1/2-y,1/2+x,1/2-z
1/2-x,1/2+y,z
1/2+x,1/2-y,z
1/2-y,1/2-x,z
1/2+y,1/2+x,z
loop_
_atom_site_type_symbol
_atom_site_label
_atom_site_fract_x
_atom_site_fract_y
_atom_site_fract_z
Si Si1 0.713953 0.987226 0.386820
Si Si2 0.772181 0.160846 0.677578
Si Si3 0.659799 0.474718 0.614698
Si Si4 0.276173 0.776173 0.500000
Si Si5 0.908471 0.871662 0.385102
Si Si6 0.825187 0.411901 0.767956
O O1 0.710180 0.985636 0.500000
O O2 0.680965 0.940967 0.332994
O O3 0.777064 0.979263 0.359323
O O4 0.690365 0.042858 0.345505
O O5 0.797728 0.202273 0.750000
O O6 0.755288 0.190026 0.582406
O O7 0.817053 0.117040 0.652501
O O8 0.721032 0.132272 0.722757
O O9 0.659885 0.472914 0.500000
O O10 0.628153 0.421712 0.646726
O O11 0.628936 0.529029 0.642642
O O12 0.906961 0.870867 0.500000
O O13 0.881738 0.381738 0.781855
#
# Coordination Sequence:
#
# PCOD9572190 Si02
#       6
#    32  32  32   8  32  32
#     4  10  22  42  65  94 134 173 211 268 338 399
#     4  12  24  41  60  91 128 172 217 277 337 398
#     4   9  18  33  58  86 119 168 217 267 322 382
#     4  12  26  40  64  86 128 170 223 282 341 412
#     4  10  19  35  58  85 122 169 220 269 327 381
#     4  11  24  40  66  99 129 166 223 271 323 403
#
# _framework density 19.151071999999999
#
# number of rings (size 3 to 8) (size 9 to 14) (size 15 to 20)
#    0.000    1.524    3.810    1.429    1.333    1.143 
#    1.714    1.905    0.000    4.571    0.000    6.667 
#    0.000    0.000    0.000    0.000    0.000    0.000 
#
# Total GULP energy -468347.810958 kJ/mol
# GULP energy per Si atom -5575.569178 kJ/mol
# Density = 1.910748 g / cm^3
# Si number density = 19.151072 Si / 1000 Ang^3
#
#
#
# Elastic Constant Matrix: (Units=GPa)
#
#
# Indices 1 2 3 4 5 6 
#
# 1 90.5095 70.7437 24.3616 0.0000 0.0000 0.0000
# 2 70.7437 90.5113 24.3740 0.0000 0.0000 0.0000
# 3 24.3616 24.3740 95.5914 0.0000 0.0000 0.0000
# 4 0.0000 0.0000 0.0000 -0.8813 0.0000 0.0000
# 5 0.0000 0.0000 0.0000 0.0000 -0.9162 0.0000
# 6 0.0000 0.0000 0.0000 0.0000 0.0000 40.4882
#
#
#
# Elastic Compliance Matrix: (Units=1/GPa)
#
#
# Indices 1 2 3 4 5 6 
#
# 1 0.028654 -0.021936 -0.001709 0.000000 0.000000 0.000000
# 2 -0.021936 0.028655 -0.001716 0.000000 0.000000 0.000000
# 3 -0.001709 -0.001716 0.011334 0.000000 0.000000 0.000000
# 4 0.000000 0.000000 0.000000 -1.134739 0.000000 0.000000
# 5 0.000000 0.000000 0.000000 0.000000 -1.091415 0.000000
# 6 0.000000 0.000000 0.000000 0.000000 0.000000 0.024699
#
#
# Mechanical properties :
#
#
# Convention : Reuss Voigt Hill
#
# Bulk Modulus (GPa) = 55.79937 57.28565 56.54251
# Shear Modulus (GPa) = -2.40834 18.21366 7.90266
#
# Velocity S-wave (km/s) = -1.12262 3.08726 2.03358
# Velocity P-wave (km/s) = 5.24588 6.53343 5.92473
#
# Compressibility (1/GPa) = 0.01792135
#
# Stress axis : x y z
#
# Youngs Moduli (GPa) = 34.89932 34.89743 88.22670
#
# Poissons Ratio (x) = 0.76550 0.15081
# Poissons Ratio (y) = 0.76554 0.15142
# Poissons Ratio (z) = 0.05965 0.05989
#
# Static dielectric constant tensor:
#      x y z
#    x 1.667890 0.000000 0.000000 
#    y 0.000000 1.667900 0.000000 
#    z 0.000000 0.000000 1.684170 
# 
# From -- ./inp_files/4941.got.cif
#   From: 2010.05.17/outbox.cif.g08.bks.cpg/sg140_3_cif.got.tgz:4941.got - 2010.06.21 00:45:31.
