data_PCOD9572928
_publ_section_title
;
Structure prediction by ZEFSAII (Michael W. Deem and Ramdas Pophale) SiO2 
 PCOD9572928
Probable space group: I 41/A M D
;
_chemical_formula_sum "Si O2"
_cell_formula_units_Z 96
_cell_length_a 14.139294
_cell_length_b 14.139294
_cell_length_c 17.062274
_cell_angle_alpha 90.000000
_cell_angle_beta 90.000000
_cell_angle_gamma 90.000000
_cell_volume 3411.083587
_symmetry_space_group_name_H-M "I 41/A M D"
_symmetry_group_IT_number 141
_space_group.IT_coordinate_system_code '2'
_symmetry_cell_setting 'tetragonal'
loop_
_space_group_symop_operation_xyz
x,y,z
1/4-y,3/4+x,1/4+z
-x,1/2-y,z
1/4+y,1/4-x,3/4+z
x,-y,-z
-x,1/2+y,-z
1/4+y,3/4+x,1/4-z
1/4-y,1/4-x,3/4-z
-x,-y,-z
3/4+y,1/4-x,3/4-z
x,1/2+y,-z
3/4-y,3/4+x,1/4-z
-x,y,z
x,1/2-y,z
3/4-y,1/4-x,3/4+z
3/4+y,3/4+x,1/4+z
1/2+x,1/2+y,1/2+z
3/4-y,1/4+x,3/4+z
1/2-x,-y,1/2+z
3/4+y,3/4-x,1/4+z
1/2+x,1/2-y,1/2-z
1/2-x,y,1/2-z
3/4+y,1/4+x,3/4-z
3/4-y,3/4-x,1/4-z
1/2-x,1/2-y,1/2-z
1/4+y,3/4-x,1/4-z
1/2+x,y,1/2-z
1/4-y,1/4+x,3/4-z
1/2-x,1/2+y,1/2+z
1/2+x,-y,1/2+z
1/4-y,3/4-x,1/4+z
1/4+y,1/4+x,3/4+z
loop_
_atom_site_type_symbol
_atom_site_label
_atom_site_fract_x
_atom_site_fract_y
_atom_site_fract_z
Si Si1 0.647073 0.642281 0.786860
Si Si2 0.115966 0.638558 0.208891
Si Si3 0.109127 0.141309 0.123946
O O1 0.646177 0.603824 0.875000
O O2 0.609041 0.750000 0.794965
O O3 0.750000 0.646813 0.750000
O O4 0.602300 0.594370 0.709858
O O5 0.142853 0.750000 0.203521
O O6 0.150377 0.599624 0.125000
O O7 0.149467 0.598454 0.293172
O O8 0.000000 0.634805 0.210939
O O9 0.147344 0.250000 0.132687
O O10 0.000000 0.152138 0.102587
#
# Coordination Sequence:
#
# PCOD9572928 Si02
#       3
#    32  32  32
#     4  10  20  33  51  76 105 139 180 226 277 336
#     4   7   9  14  27  51  83 114 143 180 230 287
#     4   8  13  22  39  65  96 128 161 201 253 307
#
# _framework density 28.143547999999999
#
# number of rings (size 3 to 8) (size 9 to 14) (size 15 to 20)
#    0.000    3.667    0.000    4.000    0.000    1.667 
#    0.000    0.000    0.000    2.000    0.000    0.000 
#    0.000   18.667    0.000    0.000    0.000    0.000 
#
# Total GULP energy -267253.785030 kJ/mol
# GULP energy per Si atom -5567.787188 kJ/mol
# Density = 2.807949 g / cm^3
# Si number density = 28.143548 Si / 1000 Ang^3
#
#
#
# Elastic Constant Matrix: (Units=GPa)
#
#
# Indices 1 2 3 4 5 6 
#
# 1 70.7503 -4.5330 51.0751 0.0000 0.0000 0.0000
# 2 -4.5330 70.7491 51.0750 0.0000 0.0000 0.0000
# 3 51.0751 51.0750 467.2361 0.0000 0.0000 0.0000
# 4 0.0000 0.0000 0.0000 41.9659 0.0000 0.0000
# 5 0.0000 0.0000 0.0000 0.0000 41.9663 0.0000
# 6 0.0000 0.0000 0.0000 0.0000 0.0000 -6.4079
#
#
#
# Elastic Compliance Matrix: (Units=1/GPa)
#
#
# Indices 1 2 3 4 5 6 
#
# 1 0.015724 0.002441 -0.001986 0.000000 0.000000 0.000000
# 2 0.002441 0.015724 -0.001986 0.000000 0.000000 0.000000
# 3 -0.001986 -0.001986 0.002574 0.000000 0.000000 0.000000
# 4 0.000000 0.000000 0.000000 0.023829 0.000000 0.000000
# 5 0.000000 0.000000 0.000000 0.000000 0.023829 0.000000
# 6 0.000000 0.000000 0.000000 0.000000 0.000000 -0.156058
#
#
# Mechanical properties :
#
#
# Convention : Reuss Voigt Hill
#
# Bulk Modulus (GPa) = 32.29772 89.32998 60.81385
# Shear Modulus (GPa) = -81.97223 49.57944 -16.19640
#
# Velocity S-wave (km/s) = -5.40275 4.20177 -2.40154
# Velocity P-wave (km/s) = 5.23628 7.43973 3.73704
#
# Compressibility (1/GPa) = 0.03096194
#
# Stress axis : x y z
#
# Youngs Moduli (GPa) = 63.59677 63.59556 388.44459
#
# Poissons Ratio (x) = -0.15523 0.77133
# Poissons Ratio (y) = -0.15524 0.77134
# Poissons Ratio (z) = 0.12628 0.12628
#
# Static dielectric constant tensor:
#      x y z
#    x 1.747280 0.000000 0.000000 
#    y 0.000000 1.747200 0.000000 
#    z 0.000000 0.000000 2.445670 
# 
# From -- ./inp_files/5982.got.cif
#   From: 2010.05.17/outbox.cif.g08.bks.cpg/sg141_3_cif.got.tgz:5982.got - 2010.05.20 13:30:51.
