data_PCOD9572238
_publ_section_title
;
Structure prediction by ZEFSAII (Michael W. Deem and Ramdas Pophale) SiO2 
 PCOD9572238
Probable space group: I 4/M C M
;
_chemical_formula_sum "Si O2"
_cell_formula_units_Z 160
_cell_length_a 24.700229
_cell_length_b 24.700229
_cell_length_c 14.696031
_cell_angle_alpha 90.000000
_cell_angle_beta 90.000000
_cell_angle_gamma 90.000000
_cell_volume 8966.067804
_symmetry_space_group_name_H-M "I 4/M C M"
_symmetry_group_IT_number 140
_symmetry_cell_setting 'tetragonal'
loop_
_space_group_symop_operation_xyz
x,y,z
-y,x,z
-x,-y,z
y,-x,z
x,-y,1/2-z
-x,y,1/2-z
y,x,1/2-z
-y,-x,1/2-z
-x,-y,-z
y,-x,-z
x,y,-z
-y,x,-z
-x,y,1/2+z
x,-y,1/2+z
-y,-x,1/2+z
y,x,1/2+z
1/2+x,1/2+y,1/2+z
1/2-y,1/2+x,1/2+z
1/2-x,1/2-y,1/2+z
1/2+y,1/2-x,1/2+z
1/2+x,1/2-y,-z
1/2-x,1/2+y,-z
1/2+y,1/2+x,-z
1/2-y,1/2-x,-z
1/2-x,1/2-y,1/2-z
1/2+y,1/2-x,1/2-z
1/2+x,1/2+y,1/2-z
1/2-y,1/2+x,1/2-z
1/2-x,1/2+y,z
1/2+x,1/2-y,z
1/2-y,1/2-x,z
1/2+y,1/2+x,z
loop_
_atom_site_type_symbol
_atom_site_label
_atom_site_fract_x
_atom_site_fract_y
_atom_site_fract_z
Si Si1 0.126397 0.710619 0.202633
Si Si2 0.297633 0.709354 0.602876
Si Si3 0.897251 0.739379 0.103208
Si Si4 0.000093 0.586654 0.389584
Si Si5 0.485884 0.209585 0.892960
O O1 0.157677 0.657677 0.165124
O O2 0.164622 0.761149 0.175416
O O3 0.119963 0.704531 0.310386
O O4 0.068096 0.722363 0.160991
O O5 0.317474 0.721963 0.500000
O O6 0.238992 0.738992 0.610624
O O7 0.288970 0.645115 0.608767
O O8 0.961537 0.747640 0.116203
O O9 0.891092 0.716630 0.000000
O O10 0.001374 0.585953 0.500000
O O11 0.945581 0.554420 0.362804
O O12 0.002460 0.648843 0.362754
O O13 0.050517 0.550517 0.357752
O O14 0.472410 0.207490 0.000000
#
# Coordination Sequence:
#
# PCOD9572238 Si02
#       5
#    32  32  32  32  32
#     4  11  21  33  52  76 101 129 165 210 256 299
#     4   9  18  33  53  76  99 124 158 202 252 303
#     4  10  21  35  49  68  98 133 167 202 245 302
#     4   8  14  25  41  61  86 119 160 202 241 280
#     4  10  20  33  49  70  98 131 165 203 248 295
#
# _framework density 17.845058000000002
#
# number of rings (size 3 to 8) (size 9 to 14) (size 15 to 20)
#    0.000    2.400    0.000    3.600    0.000    6.400 
#    0.000    6.000    0.000    0.000    0.000    2.800 
#    0.000    0.800    0.000   11.400    0.000   16.400 
#
# Total GULP energy -445851.749850 kJ/mol
# GULP energy per Si atom -5573.146873 kJ/mol
# Density = 1.780444 g / cm^3
# Si number density = 17.845058 Si / 1000 Ang^3
#
#
#
# Elastic Constant Matrix: (Units=GPa)
#
#
# Indices 1 2 3 4 5 6 
#
# 1 83.2283 41.2711 31.6750 0.0000 0.0000 0.0000
# 2 41.2711 83.2283 31.6750 0.0000 0.0000 0.0000
# 3 31.6750 31.6750 94.0205 0.0000 0.0000 0.0000
# 4 0.0000 0.0000 0.0000 15.7898 0.0000 0.0000
# 5 0.0000 0.0000 0.0000 0.0000 15.7898 0.0000
# 6 0.0000 0.0000 0.0000 0.0000 0.0000 16.6015
#
#
#
# Elastic Compliance Matrix: (Units=1/GPa)
#
#
# Indices 1 2 3 4 5 6 
#
# 1 0.016764 -0.007070 -0.003266 0.000000 0.000000 0.000000
# 2 -0.007070 0.016764 -0.003266 0.000000 0.000000 0.000000
# 3 -0.003266 -0.003266 0.012836 0.000000 0.000000 0.000000
# 4 0.000000 0.000000 0.000000 0.063332 0.000000 0.000000
# 5 0.000000 0.000000 0.000000 0.000000 0.063332 0.000000
# 6 0.000000 0.000000 0.000000 0.000000 0.000000 0.060236
#
#
# Mechanical properties :
#
#
# Convention : Reuss Voigt Hill
#
# Bulk Modulus (GPa) = 52.18929 52.19100 52.19015
# Shear Modulus (GPa) = 18.73686 20.02663 19.38175
#
# Velocity S-wave (km/s) = 3.24385 3.35364 3.29920
# Velocity P-wave (km/s) = 6.58326 6.65628 6.61987
#
# Compressibility (1/GPa) = 0.01916102
#
# Stress axis : x y z
#
# Youngs Moduli (GPa) = 59.65201 59.65201 77.90307
#
# Poissons Ratio (x) = 0.42174 0.25442
# Poissons Ratio (y) = 0.42174 0.25442
# Poissons Ratio (z) = 0.19481 0.19481
#
# Static dielectric constant tensor:
#      x y z
#    x 1.603220 0.000000 0.000000 
#    y 0.000000 1.603220 0.000000 
#    z 0.000000 0.000000 1.685350 
# 
# From -- ./inp_files/4680.got.cif
#   From: 2010.05.17/outbox.cif.g08.bks.cpg/sg140_3_cif.got.tgz:4680.got - 2010.06.21 00:45:31.
