data_PCOD9572271
_publ_section_title
;
Structure prediction by ZEFSAII (Michael W. Deem and Ramdas Pophale) SiO2 
 PCOD9572271
Probable space group: I 4/M C M
;
_chemical_formula_sum "Si O2"
_cell_formula_units_Z 160
_cell_length_a 22.002522
_cell_length_b 22.002522
_cell_length_c 17.600293
_cell_angle_alpha 90.000000
_cell_angle_beta 90.000000
_cell_angle_gamma 90.000000
_cell_volume 8520.494993
_symmetry_space_group_name_H-M "I 4/M C M"
_symmetry_group_IT_number 140
_symmetry_cell_setting 'tetragonal'
loop_
_space_group_symop_operation_xyz
x,y,z
-y,x,z
-x,-y,z
y,-x,z
x,-y,1/2-z
-x,y,1/2-z
y,x,1/2-z
-y,-x,1/2-z
-x,-y,-z
y,-x,-z
x,y,-z
-y,x,-z
-x,y,1/2+z
x,-y,1/2+z
-y,-x,1/2+z
y,x,1/2+z
1/2+x,1/2+y,1/2+z
1/2-y,1/2+x,1/2+z
1/2-x,1/2-y,1/2+z
1/2+y,1/2-x,1/2+z
1/2+x,1/2-y,-z
1/2-x,1/2+y,-z
1/2+y,1/2+x,-z
1/2-y,1/2-x,-z
1/2-x,1/2-y,1/2-z
1/2+y,1/2-x,1/2-z
1/2+x,1/2+y,1/2-z
1/2-y,1/2+x,1/2-z
1/2-x,1/2+y,z
1/2+x,1/2-y,z
1/2-y,1/2-x,z
1/2+y,1/2+x,z
loop_
_atom_site_type_symbol
_atom_site_label
_atom_site_fract_x
_atom_site_fract_y
_atom_site_fract_z
Si Si1 0.663325 0.933010 0.908830
Si Si2 0.568745 0.660603 0.723710
Si Si3 0.155859 0.246894 0.321853
Si Si4 0.367918 0.707898 0.090204
Si Si5 0.929673 0.335992 0.408235
O O1 0.598218 0.901783 0.892471
O O2 0.713642 0.889575 0.872944
O O3 0.669738 0.001688 0.879746
O O4 0.670875 0.933014 0.000000
O O5 0.500000 0.669196 0.750000
O O6 0.596242 0.596242 0.750000
O O7 0.613574 0.710600 0.762695
O O8 0.581087 0.668596 0.634278
O O9 0.205862 0.294139 0.289722
O O10 0.189873 0.196487 0.373094
O O11 0.388254 0.777150 0.104839
O O12 0.366741 0.698091 0.000000
O O13 0.934195 0.341853 0.500000
O O14 0.894733 0.394733 0.377969
#
# Coordination Sequence:
#
# PCOD9572271 Si02
#       5
#    32  32  32  32  32
#     4   9  17  29  46  69  99 137 178 217 259 311
#     4  10  22  39  58  81 109 144 184 225 275 332
#     4  10  20  34  53  78 108 140 177 224 279 335
#     4  10  20  34  55  82 110 138 174 223 276 329
#     4   9  17  28  44  69 100 134 172 214 260 309
#
# _framework density 18.778251999999998
#
# number of rings (size 3 to 8) (size 9 to 14) (size 15 to 20)
#    0.000    2.400    0.000    2.400    0.000    7.000 
#    0.000    6.000    0.000    0.000    0.000    5.600 
#    0.000    4.800    0.000    0.200    0.000    0.000 
#
# Total GULP energy -446211.352184 kJ/mol
# GULP energy per Si atom -5577.641902 kJ/mol
# Density = 1.873551 g / cm^3
# Si number density = 18.778252 Si / 1000 Ang^3
#
#
#
# Elastic Constant Matrix: (Units=GPa)
#
#
# Indices 1 2 3 4 5 6 
#
# 1 117.6808 84.1222 37.3846 0.0000 0.0000 0.0000
# 2 84.1222 117.6808 37.3846 0.0000 0.0000 0.0000
# 3 37.3846 37.3846 53.7375 0.0000 0.0000 0.0000
# 4 0.0000 0.0000 0.0000 14.9607 0.0000 0.0000
# 5 0.0000 0.0000 0.0000 0.0000 14.9607 0.0000
# 6 0.0000 0.0000 0.0000 0.0000 0.0000 17.0974
#
#
#
# Elastic Compliance Matrix: (Units=1/GPa)
#
#
# Indices 1 2 3 4 5 6 
#
# 1 0.018237 -0.011561 -0.004645 0.000000 0.000000 0.000000
# 2 -0.011561 0.018237 -0.004645 0.000000 0.000000 0.000000
# 3 -0.004645 -0.004645 0.025071 0.000000 0.000000 0.000000
# 4 0.000000 0.000000 0.000000 0.066842 0.000000 0.000000
# 5 0.000000 0.000000 0.000000 0.000000 0.066842 0.000000
# 6 0.000000 0.000000 0.000000 0.000000 0.000000 0.058488
#
#
# Mechanical properties :
#
#
# Convention : Reuss Voigt Hill
#
# Bulk Modulus (GPa) = 50.38933 67.43131 58.91032
# Shear Modulus (GPa) = 16.55445 18.08429 17.31937
#
# Velocity S-wave (km/s) = 2.97236 3.10666 3.04025
# Velocity P-wave (km/s) = 6.21868 6.98968 6.61542
#
# Compressibility (1/GPa) = 0.01984547
#
# Stress axis : x y z
#
# Youngs Moduli (GPa) = 54.83239 54.83239 39.88631
#
# Poissons Ratio (x) = 0.63393 0.18525
# Poissons Ratio (y) = 0.63393 0.18525
# Poissons Ratio (z) = 0.25467 0.25467
#
# Static dielectric constant tensor:
#      x y z
#    x 1.651510 0.000000 0.000000 
#    y 0.000000 1.651510 0.000000 
#    z 0.000000 0.000000 1.675630 
# 
# From -- ./inp_files/6860.got.cif
#   From: 2010.05.17/outbox.cif.g08.bks.cpg/sg140_4_cif.got.tgz:6860.got - 2010.06.21 00:45:31.
