data_PCOD9572864
_publ_section_title
;
Structure prediction by ZEFSAII (Michael W. Deem and Ramdas Pophale) SiO2 
 PCOD9572864
Probable space group: I 41/A M D
;
_chemical_formula_sum "Si O2"
_cell_formula_units_Z 96
_cell_length_a 13.856972
_cell_length_b 13.856972
_cell_length_c 27.308553
_cell_angle_alpha 90.000000
_cell_angle_beta 90.000000
_cell_angle_gamma 90.000000
_cell_volume 5243.670183
_symmetry_space_group_name_H-M "I 41/A M D"
_symmetry_group_IT_number 141
_space_group.IT_coordinate_system_code '2'
_symmetry_cell_setting 'tetragonal'
loop_
_space_group_symop_operation_xyz
x,y,z
1/4-y,3/4+x,1/4+z
-x,1/2-y,z
1/4+y,1/4-x,3/4+z
x,-y,-z
-x,1/2+y,-z
1/4+y,3/4+x,1/4-z
1/4-y,1/4-x,3/4-z
-x,-y,-z
3/4+y,1/4-x,3/4-z
x,1/2+y,-z
3/4-y,3/4+x,1/4-z
-x,y,z
x,1/2-y,z
3/4-y,1/4-x,3/4+z
3/4+y,3/4+x,1/4+z
1/2+x,1/2+y,1/2+z
3/4-y,1/4+x,3/4+z
1/2-x,-y,1/2+z
3/4+y,3/4-x,1/4+z
1/2+x,1/2-y,1/2-z
1/2-x,y,1/2-z
3/4+y,1/4+x,3/4-z
3/4-y,3/4-x,1/4-z
1/2-x,1/2-y,1/2-z
1/4+y,3/4-x,1/4-z
1/2+x,y,1/2-z
1/4-y,1/4+x,3/4-z
1/2-x,1/2+y,1/2+z
1/2+x,-y,1/2+z
1/4-y,3/4-x,1/4+z
1/4+y,1/4+x,3/4+z
loop_
_atom_site_type_symbol
_atom_site_label
_atom_site_fract_x
_atom_site_fract_y
_atom_site_fract_z
Si Si1 0.253341 0.033577 0.318525
Si Si2 0.890522 0.640180 0.184435
Si Si3 0.386706 0.637942 0.745748
O O1 0.224969 0.025032 0.375000
O O2 0.335836 0.112140 0.305637
O O3 0.164260 0.069141 0.285608
O O4 0.305831 0.933862 0.302921
O O5 0.891903 0.641903 0.125000
O O6 0.873780 0.750000 0.201218
O O7 0.000000 0.611134 0.199848
O O8 0.500000 0.622316 0.743578
O O9 0.368763 0.750000 0.758179
#
# Coordination Sequence:
#
# PCOD9572864 Si02
#       3
#    32  32  32
#     4  10  19  33  57  83 108 141 185 230 270 320
#     4   8  14  26  47  76 107 139 176 217 264 318
#     4  10  22  39  56  78 112 148 181 223 275 327
#
# _framework density 18.307786
#
# number of rings (size 3 to 8) (size 9 to 14) (size 15 to 20)
#    0.000    2.667    0.000    4.000    0.000    4.000 
#    0.000    5.000    0.000    3.000    0.000    4.667 
#    0.000    0.000    0.000    0.000    0.000    0.000 
#
# Total GULP energy -267276.022429 kJ/mol
# GULP energy per Si atom -5568.250467 kJ/mol
# Density = 1.826612 g / cm^3
# Si number density = 18.307786 Si / 1000 Ang^3
#
#
#
# Elastic Constant Matrix: (Units=GPa)
#
#
# Indices 1 2 3 4 5 6 
#
# 1 116.4100 59.7359 56.6047 0.0000 0.0000 0.0000
# 2 59.7359 116.4086 56.6044 0.0000 0.0000 0.0000
# 3 56.6047 56.6044 100.1935 0.0000 0.0000 0.0000
# 4 0.0000 0.0000 0.0000 20.1943 0.0000 0.0000
# 5 0.0000 0.0000 0.0000 0.0000 20.1939 0.0000
# 6 0.0000 0.0000 0.0000 0.0000 0.0000 41.2017
#
#
#
# Elastic Compliance Matrix: (Units=1/GPa)
#
#
# Indices 1 2 3 4 5 6 
#
# 1 0.013279 -0.004366 -0.005036 0.000000 0.000000 0.000000
# 2 -0.004366 0.013279 -0.005036 0.000000 0.000000 0.000000
# 3 -0.005036 -0.005036 0.015671 0.000000 0.000000 0.000000
# 4 0.000000 0.000000 0.000000 0.049519 0.000000 0.000000
# 5 0.000000 0.000000 0.000000 0.000000 0.049520 0.000000
# 6 0.000000 0.000000 0.000000 0.000000 0.000000 0.024271
#
#
# Mechanical properties :
#
#
# Convention : Reuss Voigt Hill
#
# Bulk Modulus (GPa) = 74.87944 75.43355 75.15649
# Shear Modulus (GPa) = 25.14269 26.98912 26.06591
#
# Velocity S-wave (km/s) = 3.70987 3.84368 3.77737
# Velocity P-wave (km/s) = 7.70324 7.80967 7.75664
#
# Compressibility (1/GPa) = 0.01335480
#
# Stress axis : x y z
#
# Youngs Moduli (GPa) = 75.30558 75.30463 63.81351
#
# Poissons Ratio (x) = 0.32875 0.32135
# Poissons Ratio (y) = 0.32876 0.32135
# Poissons Ratio (z) = 0.37922 0.37922
#
# Static dielectric constant tensor:
#      x y z
#    x 1.657200 0.000000 0.000000 
#    y 0.000000 1.657200 0.000000 
#    z 0.000000 0.000000 1.631130 
# 
# From -- ./inp_files/13921.got.cif
#   From: 2010.05.17/outbox.cif.g08.bks.cpg/sg141_7_cif.got.tgz:13921.got - 2010.05.20 13:30:51.
