data_PCOD9572022
_publ_section_title
;
Structure prediction by ZEFSAII (Michael W. Deem and Ramdas Pophale) SiO2 
 PCOD9572022
Probable space group: I 4/M C M
;
_chemical_formula_sum "Si O2"
_cell_formula_units_Z 160
_cell_length_a 23.511150
_cell_length_b 23.511150
_cell_length_c 14.652146
_cell_angle_alpha 90.000000
_cell_angle_beta 90.000000
_cell_angle_gamma 90.000000
_cell_volume 8099.327907
_symmetry_space_group_name_H-M "I 4/M C M"
_symmetry_group_IT_number 140
_symmetry_cell_setting 'tetragonal'
loop_
_space_group_symop_operation_xyz
x,y,z
-y,x,z
-x,-y,z
y,-x,z
x,-y,1/2-z
-x,y,1/2-z
y,x,1/2-z
-y,-x,1/2-z
-x,-y,-z
y,-x,-z
x,y,-z
-y,x,-z
-x,y,1/2+z
x,-y,1/2+z
-y,-x,1/2+z
y,x,1/2+z
1/2+x,1/2+y,1/2+z
1/2-y,1/2+x,1/2+z
1/2-x,1/2-y,1/2+z
1/2+y,1/2-x,1/2+z
1/2+x,1/2-y,-z
1/2-x,1/2+y,-z
1/2+y,1/2+x,-z
1/2-y,1/2-x,-z
1/2-x,1/2-y,1/2-z
1/2+y,1/2-x,1/2-z
1/2+x,1/2+y,1/2-z
1/2-y,1/2+x,1/2-z
1/2-x,1/2+y,z
1/2+x,1/2-y,z
1/2-y,1/2-x,z
1/2+y,1/2+x,z
loop_
_atom_site_type_symbol
_atom_site_label
_atom_site_fract_x
_atom_site_fract_y
_atom_site_fract_z
Si Si1 0.882364 0.704754 0.707010
Si Si2 0.305584 0.065953 0.394106
Si Si3 0.007245 0.090903 0.640278
Si Si4 0.617155 0.968752 0.891318
Si Si5 0.719204 0.460345 0.103020
O O1 0.820809 0.679192 0.681164
O O2 0.888582 0.704598 0.816036
O O3 0.927721 0.659453 0.664555
O O4 0.908179 0.763237 0.668202
O O5 0.304357 0.084239 0.500000
O O6 0.365007 0.033266 0.374132
O O7 0.258627 0.015903 0.380932
O O8 0.019353 0.154700 0.611276
O O9 0.949641 0.059237 0.610217
O O10 0.000000 0.091225 0.750000
O O11 0.553982 0.946019 0.873333
O O12 0.628334 0.960473 0.000000
O O13 0.730989 0.441325 0.000000
#
# Coordination Sequence:
#
# PCOD9572022 Si02
#       5
#    32  32  32  32  32
#     4  10  18  28  45  67  95 132 174 224 272 312
#     4   9  17  28  43  65  93 128 173 221 270 326
#     4   9  18  33  54  82 117 153 182 208 247 308
#     4   8  13  22  38  60  86 119 160 206 258 317
#     4  10  19  31  50  76 107 143 182 223 265 313
#
# _framework density 19.754726000000002
#
# number of rings (size 3 to 8) (size 9 to 14) (size 15 to 20)
#    0.000    2.800    0.000    6.000    0.000    2.400 
#    0.000    1.000    0.000    0.600    0.000   19.600 
#    0.000    9.600    0.000    2.000    0.000    0.000 
#
# Total GULP energy -445630.832628 kJ/mol
# GULP energy per Si atom -5570.385408 kJ/mol
# Density = 1.970976 g / cm^3
# Si number density = 19.754726 Si / 1000 Ang^3
#
#
#
# Elastic Constant Matrix: (Units=GPa)
#
#
# Indices 1 2 3 4 5 6 
#
# 1 48.2087 69.8232 17.8240 0.0000 0.0000 0.0000
# 2 69.8232 48.2087 17.8240 0.0000 0.0000 0.0000
# 3 17.8240 17.8240 57.2775 0.0000 0.0000 0.0000
# 4 0.0000 0.0000 0.0000 6.1395 0.0000 0.0000
# 5 0.0000 0.0000 0.0000 0.0000 6.1395 0.0000
# 6 0.0000 0.0000 0.0000 0.0000 0.0000 8.7927
#
#
#
# Elastic Compliance Matrix: (Units=1/GPa)
#
#
# Indices 1 2 3 4 5 6 
#
# 1 -0.018457 0.027808 -0.002910 0.000000 0.000000 0.000000
# 2 0.027808 -0.018457 -0.002910 0.000000 0.000000 0.000000
# 3 -0.002910 -0.002910 0.019270 0.000000 0.000000 0.000000
# 4 0.000000 0.000000 0.000000 0.162879 0.000000 0.000000
# 5 0.000000 0.000000 0.000000 0.000000 0.162879 0.000000
# 6 0.000000 0.000000 0.000000 0.000000 0.000000 0.113730
#
#
# Mechanical properties :
#
#
# Convention : Reuss Voigt Hill
#
# Bulk Modulus (GPa) = 37.97600 40.51525 39.24562
# Shear Modulus (GPa) = 12.93173 7.42926 10.18049
#
# Velocity S-wave (km/s) = 2.56132 1.94137 2.27258
# Velocity P-wave (km/s) = 5.29270 5.05756 5.17646
#
# Compressibility (1/GPa) = 0.02633242
#
# Stress axis : x y z
#
# Youngs Moduli (GPa) = -54.17985 -54.17985 51.89432
#
# Poissons Ratio (x) = 1.50664 0.15101
# Poissons Ratio (y) = 1.50664 0.15101
# Poissons Ratio (z) = -0.15766 -0.15766
#
# Static dielectric constant tensor:
#      x y z
#    x 1.707950 0.000000 0.000000 
#    y 0.000000 1.707950 0.000000 
#    z 0.000000 0.000000 1.735590 
# 
# From -- ./inp_files/4722.got.cif
#   From: 2010.05.17/outbox.cif.g08.bks.cpg/sg140_3_cif.got.tgz:4722.got - 2010.06.21 00:45:31.
