data_PCOD9572424
_publ_section_title
;
Structure prediction by ZEFSAII (Michael W. Deem and Ramdas Pophale) SiO2 
 PCOD9572424
Probable space group: I 4/M C M
;
_chemical_formula_sum "Si O2"
_cell_formula_units_Z 112
_cell_length_a 16.565921
_cell_length_b 16.565921
_cell_length_c 21.724417
_cell_angle_alpha 90.000000
_cell_angle_beta 90.000000
_cell_angle_gamma 90.000000
_cell_volume 5961.826078
_symmetry_space_group_name_H-M "I 4/M C M"
_symmetry_group_IT_number 140
_symmetry_cell_setting 'tetragonal'
loop_
_space_group_symop_operation_xyz
x,y,z
-y,x,z
-x,-y,z
y,-x,z
x,-y,1/2-z
-x,y,1/2-z
y,x,1/2-z
-y,-x,1/2-z
-x,-y,-z
y,-x,-z
x,y,-z
-y,x,-z
-x,y,1/2+z
x,-y,1/2+z
-y,-x,1/2+z
y,x,1/2+z
1/2+x,1/2+y,1/2+z
1/2-y,1/2+x,1/2+z
1/2-x,1/2-y,1/2+z
1/2+y,1/2-x,1/2+z
1/2+x,1/2-y,-z
1/2-x,1/2+y,-z
1/2+y,1/2+x,-z
1/2-y,1/2-x,-z
1/2-x,1/2-y,1/2-z
1/2+y,1/2-x,1/2-z
1/2+x,1/2+y,1/2-z
1/2-y,1/2+x,1/2-z
1/2-x,1/2+y,z
1/2+x,1/2-y,z
1/2-y,1/2-x,z
1/2+y,1/2+x,z
loop_
_atom_site_type_symbol
_atom_site_label
_atom_site_fract_x
_atom_site_fract_y
_atom_site_fract_z
Si Si1 0.431535 0.068466 0.427252
Si Si2 0.449052 0.624670 0.071460
Si Si3 0.745506 0.624720 0.274239
Si Si4 0.533949 0.226617 0.151559
O O1 0.416061 0.083940 0.500000
O O2 0.462111 0.148551 0.391795
O O3 0.500000 0.000000 0.422960
O O4 0.399432 0.542751 0.081366
O O5 0.428114 0.698240 0.115018
O O6 0.439737 0.647642 0.000000
O O7 0.659951 0.659951 0.250000
O O8 0.799324 0.700677 0.294604
O O9 0.785251 0.583935 0.214042
O O10 0.748054 0.555784 0.325919
#
# Coordination Sequence:
#
# PCOD9572424 Si02
#       4
#    16  32  32  32
#     4  11  24  40  57  80 112 152 199 245 283 328
#     4   9  18  33  55  83 112 143 181 228 283 342
#     4  10  21  36  54  81 112 143 182 232 284 333
#     4  11  20  36  57  81 108 151 187 231 279 346
#
# _framework density 18.786190999999999
#
# number of rings (size 3 to 8) (size 9 to 14) (size 15 to 20)
#    0.000    1.857    1.429    4.286    0.000    0.000 
#    0.000    0.000    0.000    6.857    0.000    0.000 
#    0.000    0.000    0.000    0.000    0.000    0.000 
#
# Total GULP energy -312315.380994 kJ/mol
# GULP energy per Si atom -5577.060375 kJ/mol
# Density = 1.874343 g / cm^3
# Si number density = 18.786191 Si / 1000 Ang^3
#
#
#
# Elastic Constant Matrix: (Units=GPa)
#
#
# Indices 1 2 3 4 5 6 
#
# 1 59.4162 -12.3623 27.7404 0.0000 0.0000 0.0000
# 2 -12.3623 59.4163 27.7404 0.0000 0.0000 0.0000
# 3 27.7404 27.7404 99.5367 0.0000 0.0000 0.0000
# 4 0.0000 0.0000 0.0000 23.5526 0.0000 0.0000
# 5 0.0000 0.0000 0.0000 0.0000 23.5525 0.0000
# 6 0.0000 0.0000 0.0000 0.0000 0.0000 24.0263
#
#
#
# Elastic Compliance Matrix: (Units=1/GPa)
#
#
# Indices 1 2 3 4 5 6 
#
# 1 0.022793 0.008861 -0.008822 0.000000 0.000000 0.000000
# 2 0.008861 0.022793 -0.008822 0.000000 0.000000 0.000000
# 3 -0.008822 -0.008822 0.014964 0.000000 0.000000 0.000000
# 4 0.000000 0.000000 0.000000 0.042458 0.000000 0.000000
# 5 0.000000 0.000000 0.000000 0.000000 0.042458 0.000000
# 6 0.000000 0.000000 0.000000 0.000000 0.000000 0.041621
#
#
# Mechanical properties :
#
#
# Convention : Reuss Voigt Hill
#
# Bulk Modulus (GPa) = 23.26432 33.84516 28.55474
# Shear Modulus (GPa) = 22.83313 25.90965 24.37139
#
# Velocity S-wave (km/s) = 3.49007 3.71777 3.60572
# Velocity P-wave (km/s) = 5.35270 6.04021 5.70682
#
# Compressibility (1/GPa) = 0.04298428
#
# Stress axis : x y z
#
# Youngs Moduli (GPa) = 43.87348 43.87352 66.82822
#
# Poissons Ratio (x) = -0.38877 0.58954
# Poissons Ratio (y) = -0.38877 0.58954
# Poissons Ratio (z) = 0.38704 0.38704
#
# Static dielectric constant tensor:
#      x y z
#    x 1.646710 0.000000 0.000000 
#    y 0.000000 1.646710 0.000000 
#    z 0.000000 0.000000 1.640970 
# 
# From -- ./inp_files/6073.got.cif
#   From: 2010.05.17/outbox.cif.g08.bks.cpg/sg140_4_cif.got.tgz:6073.got - 2010.06.21 00:45:31.
