data_PCOD9572775
_publ_section_title
;
Structure prediction by ZEFSAII (Michael W. Deem and Ramdas Pophale) SiO2 
 PCOD9572775
Probable space group: I 41/A M D
;
_chemical_formula_sum "Si O2"
_cell_formula_units_Z 144
_cell_length_a 19.362437
_cell_length_b 19.362437
_cell_length_c 18.622453
_cell_angle_alpha 90.000000
_cell_angle_beta 90.000000
_cell_angle_gamma 90.000000
_cell_volume 6981.631497
_symmetry_space_group_name_H-M "I 41/A M D"
_symmetry_group_IT_number 141
_space_group.IT_coordinate_system_code '2'
_symmetry_cell_setting 'tetragonal'
loop_
_space_group_symop_operation_xyz
x,y,z
1/4-y,3/4+x,1/4+z
-x,1/2-y,z
1/4+y,1/4-x,3/4+z
x,-y,-z
-x,1/2+y,-z
1/4+y,3/4+x,1/4-z
1/4-y,1/4-x,3/4-z
-x,-y,-z
3/4+y,1/4-x,3/4-z
x,1/2+y,-z
3/4-y,3/4+x,1/4-z
-x,y,z
x,1/2-y,z
3/4-y,1/4-x,3/4+z
3/4+y,3/4+x,1/4+z
1/2+x,1/2+y,1/2+z
3/4-y,1/4+x,3/4+z
1/2-x,-y,1/2+z
3/4+y,3/4-x,1/4+z
1/2+x,1/2-y,1/2-z
1/2-x,y,1/2-z
3/4+y,1/4+x,3/4-z
3/4-y,3/4-x,1/4-z
1/2-x,1/2-y,1/2-z
1/4+y,3/4-x,1/4-z
1/2+x,y,1/2-z
1/4-y,1/4+x,3/4-z
1/2-x,1/2+y,1/2+z
1/2+x,-y,1/2+z
1/4-y,3/4-x,1/4+z
1/4+y,1/4+x,3/4+z
loop_
_atom_site_type_symbol
_atom_site_label
_atom_site_fract_x
_atom_site_fract_y
_atom_site_fract_z
Si Si1 0.750000 0.062149 0.750000
Si Si2 0.331563 0.326963 0.236243
Si Si3 0.222825 0.634592 0.522378
Si Si4 0.073023 0.608234 0.347106
Si Si5 0.421763 0.968485 0.605539
O O1 0.735997 0.113394 0.683229
O O2 0.688304 0.010978 0.766375
O O3 0.338943 0.250000 0.202708
O O4 0.250000 0.340739 0.250000
O O5 0.369824 0.394058 0.204126
O O6 0.360738 0.322175 0.316975
O O7 0.277395 0.672767 0.573789
O O8 0.221371 0.665305 0.441852
O O9 0.141616 0.650428 0.327796
O O10 0.000000 0.635849 0.318830
O O11 0.500000 0.985412 0.585879
#
# Coordination Sequence:
#
# PCOD9572775 Si02
#       5
#    16  32  32  32  32
#     4  10  19  32  49  74  98 126 164 212 255 304
#     4   9  17  30  47  72 103 130 159 201 252 301
#     4  10  18  31  51  73  99 129 166 206 253 304
#     4   9  19  32  48  70  96 129 168 205 244 294
#     4  10  20  32  49  70  98 130 162 206 258 305
#
# _framework density 20.625551000000002
#
# number of rings (size 3 to 8) (size 9 to 14) (size 15 to 20)
#    0.000    2.444    1.111    1.667    0.000    1.333 
#    0.000    0.000    0.000    2.000    0.000    0.000 
#    0.000   42.667    0.000    0.000    0.000    0.000 
#
# Total GULP energy -400964.666024 kJ/mol
# GULP energy per Si atom -5568.953695 kJ/mol
# Density = 2.057861 g / cm^3
# Si number density = 20.625551 Si / 1000 Ang^3
#
#
#
# Elastic Constant Matrix: (Units=GPa)
#
#
# Indices 1 2 3 4 5 6 
#
# 1 75.6405 5.5225 12.8566 0.0000 0.0000 0.0000
# 2 5.5225 75.6405 12.8566 0.0000 0.0000 0.0000
# 3 12.8566 12.8566 69.7628 0.0000 0.0000 0.0000
# 4 0.0000 0.0000 0.0000 6.1522 0.0000 0.0000
# 5 0.0000 0.0000 0.0000 0.0000 6.1522 0.0000
# 6 0.0000 0.0000 0.0000 0.0000 0.0000 8.8985
#
#
#
# Elastic Compliance Matrix: (Units=1/GPa)
#
#
# Indices 1 2 3 4 5 6 
#
# 1 0.013673 -0.000588 -0.002411 0.000000 0.000000 0.000000
# 2 -0.000588 0.013673 -0.002411 0.000000 0.000000 0.000000
# 3 -0.002411 -0.002411 0.015223 0.000000 0.000000 0.000000
# 4 0.000000 0.000000 0.000000 0.162543 0.000000 0.000000
# 5 0.000000 0.000000 0.000000 0.000000 0.162543 0.000000
# 6 0.000000 0.000000 0.000000 0.000000 0.000000 0.112379
#
#
# Mechanical properties :
#
#
# Convention : Reuss Voigt Hill
#
# Bulk Modulus (GPa) = 31.49890 31.50169 31.50029
# Shear Modulus (GPa) = 9.97131 16.89445 13.43288
#
# Velocity S-wave (km/s) = 2.20112 2.86510 2.55478
# Velocity P-wave (km/s) = 4.66528 5.12361 4.89981
#
# Compressibility (1/GPa) = 0.03174714
#
# Stress axis : x y z
#
# Youngs Moduli (GPa) = 73.13541 73.13541 65.68970
#
# Poissons Ratio (x) = 0.04303 0.15840
# Poissons Ratio (y) = 0.04303 0.15840
# Poissons Ratio (z) = 0.17636 0.17636
#
# Static dielectric constant tensor:
#      x y z
#    x 1.770550 0.000000 0.000000 
#    y 0.000000 1.770550 0.000000 
#    z 0.000000 0.000000 1.787090 
# 
# From -- ./inp_files/10318.got.cif
#   From: 2010.05.17/outbox.cif.g08.bks.cpg/sg141_6_cif.got.tgz:10318.got - 2010.05.20 13:30:51.
