data_PCOD9572306
_publ_section_title
;
Structure prediction by ZEFSAII (Michael W. Deem and Ramdas Pophale) SiO2 
 PCOD9572306
Probable space group: I 4/M C M
;
_chemical_formula_sum "Si O2"
_cell_formula_units_Z 160
_cell_length_a 23.009845
_cell_length_b 23.009845
_cell_length_c 14.682915
_cell_angle_alpha 90.000000
_cell_angle_beta 90.000000
_cell_angle_gamma 90.000000
_cell_volume 7773.912910
_symmetry_space_group_name_H-M "I 4/M C M"
_symmetry_group_IT_number 140
_symmetry_cell_setting 'tetragonal'
loop_
_space_group_symop_operation_xyz
x,y,z
-y,x,z
-x,-y,z
y,-x,z
x,-y,1/2-z
-x,y,1/2-z
y,x,1/2-z
-y,-x,1/2-z
-x,-y,-z
y,-x,-z
x,y,-z
-y,x,-z
-x,y,1/2+z
x,-y,1/2+z
-y,-x,1/2+z
y,x,1/2+z
1/2+x,1/2+y,1/2+z
1/2-y,1/2+x,1/2+z
1/2-x,1/2-y,1/2+z
1/2+y,1/2-x,1/2+z
1/2+x,1/2-y,-z
1/2-x,1/2+y,-z
1/2+y,1/2+x,-z
1/2-y,1/2-x,-z
1/2-x,1/2-y,1/2-z
1/2+y,1/2-x,1/2-z
1/2+x,1/2+y,1/2-z
1/2-y,1/2+x,1/2-z
1/2-x,1/2+y,z
1/2+x,1/2-y,z
1/2-y,1/2-x,z
1/2+y,1/2+x,z
loop_
_atom_site_type_symbol
_atom_site_label
_atom_site_fract_x
_atom_site_fract_y
_atom_site_fract_z
Si Si1 0.829394 0.002846 0.388717
Si Si2 0.114015 0.117950 0.894511
Si Si3 0.175539 0.766209 0.339850
Si Si4 0.940326 0.286628 0.606778
Si Si5 0.497898 0.907902 0.359675
O O1 0.829376 0.003397 0.500000
O O2 0.870653 0.950270 0.357441
O O3 0.764632 0.983893 0.364388
O O4 0.850077 0.064883 0.353779
O O5 0.149647 0.177727 0.889997
O O6 0.105142 0.103380 0.000000
O O7 0.204536 0.795465 0.250000
O O8 0.226786 0.726786 0.381580
O O9 0.118866 0.723301 0.334884
O O10 0.923172 0.278794 0.500000
O O11 0.976612 0.345967 0.612088
O O12 0.500000 0.907534 0.250000
O O13 0.544781 0.955220 0.391409
O O14 0.434581 0.934581 0.385831
#
# Coordination Sequence:
#
# PCOD9572306 Si02
#       5
#    32  32  32  32  32
#     4   8  16  30  49  74 100 128 165 210 258 310
#     4   9  17  32  52  73 100 131 166 209 258 314
#     4  10  21  35  51  75 105 137 178 224 272 332
#     4  10  20  35  56  81 109 143 188 238 285 340
#     4   9  19  35  53  76 108 145 186 234 290 349
#
# _framework density 20.581655999999999
#
# number of rings (size 3 to 8) (size 9 to 14) (size 15 to 20)
#    0.000    2.800    0.000    3.000    0.000    5.200 
#    0.000    9.000    0.000    3.600    0.000    5.600 
#    0.000    0.000    0.000    0.000    0.000    0.000 
#
# Total GULP energy -445339.907243 kJ/mol
# GULP energy per Si atom -5566.748841 kJ/mol
# Density = 2.053481 g / cm^3
# Si number density = 20.581656 Si / 1000 Ang^3
#
#
#
# Elastic Constant Matrix: (Units=GPa)
#
#
# Indices 1 2 3 4 5 6 
#
# 1 142.5819 92.1773 4.5543 0.0000 0.0000 0.0000
# 2 92.1773 142.5826 4.5542 0.0000 0.0000 0.0000
# 3 4.5543 4.5542 54.4732 0.0000 0.0000 0.0000
# 4 0.0000 0.0000 0.0000 13.6759 0.0000 0.0000
# 5 0.0000 0.0000 0.0000 0.0000 13.6756 0.0000
# 6 0.0000 0.0000 0.0000 0.0000 0.0000 39.6413
#
#
#
# Elastic Compliance Matrix: (Units=1/GPa)
#
#
# Indices 1 2 3 4 5 6 
#
# 1 0.012056 -0.007783 -0.000357 0.000000 0.000000 0.000000
# 2 -0.007783 0.012056 -0.000357 0.000000 0.000000 0.000000
# 3 -0.000357 -0.000357 0.018417 0.000000 0.000000 0.000000
# 4 0.000000 0.000000 0.000000 0.073121 0.000000 0.000000
# 5 0.000000 0.000000 0.000000 0.000000 0.073123 0.000000
# 6 0.000000 0.000000 0.000000 0.000000 0.000000 0.025226
#
#
# Mechanical properties :
#
#
# Convention : Reuss Voigt Hill
#
# Bulk Modulus (GPa) = 39.16148 60.24548 49.70348
# Shear Modulus (GPa) = 20.87617 29.28869 25.08243
#
# Velocity S-wave (km/s) = 3.18828 3.77642 3.49475
# Velocity P-wave (km/s) = 5.71158 6.95343 6.36287
#
# Compressibility (1/GPa) = 0.02553530
#
# Stress axis : x y z
#
# Youngs Moduli (GPa) = 82.94304 82.94346 54.29654
#
# Poissons Ratio (x) = 0.64554 0.01940
# Poissons Ratio (y) = 0.64554 0.01940
# Poissons Ratio (z) = 0.02964 0.02963
#
# Static dielectric constant tensor:
#      x y z
#    x 1.746550 0.000000 0.000000 
#    y 0.000000 1.746550 0.000000 
#    z 0.000000 0.000000 1.798730 
# 
# From -- ./inp_files/4744.got.cif
#   From: 2010.05.17/outbox.cif.g08.bks.cpg/sg140_3_cif.got.tgz:4744.got - 2010.06.21 00:45:31.
