data_PCOD9572092
_publ_section_title
;
Structure prediction by ZEFSAII (Michael W. Deem and Ramdas Pophale) SiO2 
 PCOD9572092
Probable space group: I 4/M C M
;
_chemical_formula_sum "Si O2"
_cell_formula_units_Z 160
_cell_length_a 21.614342
_cell_length_b 21.614342
_cell_length_c 14.379494
_cell_angle_alpha 90.000000
_cell_angle_beta 90.000000
_cell_angle_gamma 90.000000
_cell_volume 6717.808845
_symmetry_space_group_name_H-M "I 4/M C M"
_symmetry_group_IT_number 140
_symmetry_cell_setting 'tetragonal'
loop_
_space_group_symop_operation_xyz
x,y,z
-y,x,z
-x,-y,z
y,-x,z
x,-y,1/2-z
-x,y,1/2-z
y,x,1/2-z
-y,-x,1/2-z
-x,-y,-z
y,-x,-z
x,y,-z
-y,x,-z
-x,y,1/2+z
x,-y,1/2+z
-y,-x,1/2+z
y,x,1/2+z
1/2+x,1/2+y,1/2+z
1/2-y,1/2+x,1/2+z
1/2-x,1/2-y,1/2+z
1/2+y,1/2-x,1/2+z
1/2+x,1/2-y,-z
1/2-x,1/2+y,-z
1/2+y,1/2+x,-z
1/2-y,1/2-x,-z
1/2-x,1/2-y,1/2-z
1/2+y,1/2-x,1/2-z
1/2+x,1/2+y,1/2-z
1/2-y,1/2+x,1/2-z
1/2-x,1/2+y,z
1/2+x,1/2-y,z
1/2-y,1/2-x,z
1/2+y,1/2+x,z
loop_
_atom_site_type_symbol
_atom_site_label
_atom_site_fract_x
_atom_site_fract_y
_atom_site_fract_z
Si Si1 0.554656 0.152050 0.386534
Si Si2 0.083707 0.684606 0.612365
Si Si3 0.086195 0.784501 0.895402
Si Si4 0.477990 0.597540 0.386078
Si Si5 0.180434 0.219322 0.852952
O O1 0.554476 0.147039 0.500000
O O2 0.591832 0.091832 0.353051
O O3 0.484356 0.164577 0.357160
O O4 0.590115 0.214993 0.357402
O O5 0.082970 0.686840 0.500000
O O6 0.132041 0.632041 0.641662
O O7 0.113219 0.749578 0.643363
O O8 0.041915 0.835391 0.850237
O O9 0.153781 0.814132 0.902019
O O10 0.061209 0.775272 0.000000
O O11 0.428136 0.545015 0.358950
O O12 0.477088 0.599340 0.500000
O O13 0.201747 0.201747 0.750000
O O14 0.229504 0.270497 0.889534
#
# Coordination Sequence:
#
# PCOD9572092 Si02
#       5
#    32  32  32  32  32
#     4   9  18  31  49  79 113 140 176 228 281 328
#     4   9  18  33  55  80 106 142 185 224 268 331
#     4  10  19  30  53  79 103 134 171 220 273 323
#     4   8  15  27  44  71 103 133 167 207 255 313
#     4  10  21  36  52  73 104 139 175 219 270 323
#
# _framework density 23.81729
#
# number of rings (size 3 to 8) (size 9 to 14) (size 15 to 20)
#    0.000    2.800    0.000    1.800    2.800    2.400 
#    0.000    3.000    0.000    0.000    0.000    1.400 
#    0.000    4.800    0.000    0.200    0.000    0.200 
#
# Total GULP energy -446845.284166 kJ/mol
# GULP energy per Si atom -5585.566052 kJ/mol
# Density = 2.376308 g / cm^3
# Si number density = 23.817290 Si / 1000 Ang^3
#
#
#
# Elastic Constant Matrix: (Units=GPa)
#
#
# Indices 1 2 3 4 5 6 
#
# 1 137.8745 57.1328 -0.3283 0.0000 0.0000 0.0000
# 2 57.1328 137.8745 -0.3283 0.0000 0.0000 0.0000
# 3 -0.3283 -0.3283 60.7275 0.0000 0.0000 0.0000
# 4 0.0000 0.0000 0.0000 5.3344 0.0000 0.0000
# 5 0.0000 0.0000 0.0000 0.0000 5.3344 0.0000
# 6 0.0000 0.0000 0.0000 0.0000 0.0000 41.8349
#
#
#
# Elastic Compliance Matrix: (Units=1/GPa)
#
#
# Indices 1 2 3 4 5 6 
#
# 1 0.008757 -0.003629 0.000028 0.000000 0.000000 0.000000
# 2 -0.003629 0.008757 0.000028 0.000000 0.000000 0.000000
# 3 0.000028 0.000028 0.016467 0.000000 0.000000 0.000000
# 4 0.000000 0.000000 0.000000 0.187462 0.000000 0.000000
# 5 0.000000 0.000000 0.000000 0.000000 0.187462 0.000000
# 6 0.000000 0.000000 0.000000 0.000000 0.000000 0.023904
#
#
# Mechanical properties :
#
#
# Convention : Reuss Voigt Hill
#
# Bulk Modulus (GPa) = 37.26559 49.93654 43.60106
# Shear Modulus (GPa) = 11.13836 29.16742 20.15289
#
# Velocity S-wave (km/s) = 2.16489 3.50327 2.91201
# Velocity P-wave (km/s) = 4.68288 6.11358 5.44542
#
# Compressibility (1/GPa) = 0.02683440
#
# Stress axis : x y z
#
# Youngs Moduli (GPa) = 114.19903 114.19903 60.72641
#
# Poissons Ratio (x) = 0.41437 -0.00168
# Poissons Ratio (y) = 0.41437 -0.00168
# Poissons Ratio (z) = -0.00317 -0.00317
#
# Static dielectric constant tensor:
#      x y z
#    x 1.883190 0.000000 0.000000 
#    y 0.000000 1.883190 0.000000 
#    z 0.000000 0.000000 2.025200 
# 
# From -- ./inp_files/6774.got.cif
#   From: 2010.05.17/outbox.cif.g08.bks.cpg/sg140_4_cif.got.tgz:6774.got - 2010.06.21 00:45:31.
