data_PCOD9572367
_publ_section_title
;
Structure prediction by ZEFSAII (Michael W. Deem and Ramdas Pophale) SiO2 
 PCOD9572367
Probable space group: I 4/M C M
;
_chemical_formula_sum "Si O2"
_cell_formula_units_Z 160
_cell_length_a 24.354866
_cell_length_b 24.354866
_cell_length_c 14.037397
_cell_angle_alpha 90.000000
_cell_angle_beta 90.000000
_cell_angle_gamma 90.000000
_cell_volume 8326.415356
_symmetry_space_group_name_H-M "I 4/M C M"
_symmetry_group_IT_number 140
_symmetry_cell_setting 'tetragonal'
loop_
_space_group_symop_operation_xyz
x,y,z
-y,x,z
-x,-y,z
y,-x,z
x,-y,1/2-z
-x,y,1/2-z
y,x,1/2-z
-y,-x,1/2-z
-x,-y,-z
y,-x,-z
x,y,-z
-y,x,-z
-x,y,1/2+z
x,-y,1/2+z
-y,-x,1/2+z
y,x,1/2+z
1/2+x,1/2+y,1/2+z
1/2-y,1/2+x,1/2+z
1/2-x,1/2-y,1/2+z
1/2+y,1/2-x,1/2+z
1/2+x,1/2-y,-z
1/2-x,1/2+y,-z
1/2+y,1/2+x,-z
1/2-y,1/2-x,-z
1/2-x,1/2-y,1/2-z
1/2+y,1/2-x,1/2-z
1/2+x,1/2+y,1/2-z
1/2-y,1/2+x,1/2-z
1/2-x,1/2+y,z
1/2+x,1/2-y,z
1/2-y,1/2-x,z
1/2+y,1/2+x,z
loop_
_atom_site_type_symbol
_atom_site_label
_atom_site_fract_x
_atom_site_fract_y
_atom_site_fract_z
Si Si1 0.758306 0.921365 0.888996
Si Si2 0.942828 0.149331 0.260852
Si Si3 0.210374 0.794946 0.387080
Si Si4 0.936427 0.342046 0.752749
Si Si5 0.592789 0.743250 0.386587
O O1 0.804087 0.947866 0.821407
O O2 0.776718 0.858277 0.879274
O O3 0.697771 0.929129 0.844940
O O4 0.760166 0.937663 0.000000
O O5 0.891083 0.108918 0.250000
O O6 0.936281 0.186581 0.355310
O O7 0.000000 0.117464 0.250000
O O8 0.204925 0.785456 0.500000
O O9 0.261748 0.761748 0.350414
O O10 0.154364 0.769678 0.348370
O O11 0.890867 0.390867 0.750048
O O12 0.927990 0.297867 0.666566
O O13 0.000000 0.361658 0.750000
O O14 0.590608 0.750573 0.500000
#
# Coordination Sequence:
#
# PCOD9572367 Si02
#       5
#    32  32  32  32  32
#     4  10  20  38  61  89 121 151 191 243 298 356
#     4  11  23  38  57  85 118 157 202 241 285 343
#     4   9  16  27  51  85 116 146 174 214 284 357
#     4  11  25  41  60  88 119 158 205 248 295 351
#     4  10  20  38  61  89 121 151 191 243 298 356
#
# _framework density 19.215952999999999
#
# number of rings (size 3 to 8) (size 9 to 14) (size 15 to 20)
#    0.000    1.800    2.000    3.600    0.000    6.000 
#    0.000    3.000    0.000    0.000    0.000    5.600 
#    0.000    0.000    0.000    0.000    0.000    0.000 
#
# Total GULP energy -445817.046259 kJ/mol
# GULP energy per Si atom -5572.713078 kJ/mol
# Density = 1.917222 g / cm^3
# Si number density = 19.215953 Si / 1000 Ang^3
#
#
#
# Elastic Constant Matrix: (Units=GPa)
#
#
# Indices 1 2 3 4 5 6 
#
# 1 80.1930 48.0407 1.4582 0.0000 0.0000 0.0000
# 2 48.0407 80.1893 1.4573 0.0000 0.0000 0.0000
# 3 1.4582 1.4573 108.5847 0.0000 0.0000 0.0000
# 4 0.0000 0.0000 0.0000 11.4073 0.0000 0.0000
# 5 0.0000 0.0000 0.0000 0.0000 11.4070 0.0000
# 6 0.0000 0.0000 0.0000 0.0000 0.0000 6.2869
#
#
#
# Elastic Compliance Matrix: (Units=1/GPa)
#
#
# Indices 1 2 3 4 5 6 
#
# 1 0.019452 -0.011652 -0.000105 0.000000 0.000000 0.000000
# 2 -0.011652 0.019453 -0.000105 0.000000 0.000000 0.000000
# 3 -0.000105 -0.000105 0.009212 0.000000 0.000000 0.000000
# 4 0.000000 0.000000 0.000000 0.087664 0.000000 0.000000
# 5 0.000000 0.000000 0.000000 0.000000 0.087665 0.000000
# 6 0.000000 0.000000 0.000000 0.000000 0.000000 0.159061
#
#
# Mechanical properties :
#
#
# Convention : Reuss Voigt Hill
#
# Bulk Modulus (GPa) = 40.99230 41.20882 41.10056
# Shear Modulus (GPa) = 12.06680 20.35429 16.21054
#
# Velocity S-wave (km/s) = 2.50863 3.25813 2.90763
# Velocity P-wave (km/s) = 5.45616 5.97039 5.71906
#
# Compressibility (1/GPa) = 0.02439482
#
# Stress axis : x y z
#
# Youngs Moduli (GPa) = 51.40898 51.40663 108.55161
#
# Poissons Ratio (x) = 0.59897 0.01138
# Poissons Ratio (y) = 0.59899 0.01136
# Poissons Ratio (z) = 0.00539 0.00538
#
# Static dielectric constant tensor:
#      x y z
#    x 1.721540 0.000000 0.000000 
#    y 0.000000 1.721540 0.000000 
#    z 0.000000 0.000000 1.704700 
# 
# From -- ./inp_files/4746.got.cif
#   From: 2010.05.17/outbox.cif.g08.bks.cpg/sg140_3_cif.got.tgz:4746.got - 2010.06.21 00:45:31.
