data_PCOD9572061
_publ_section_title
;
Structure prediction by ZEFSAII (Michael W. Deem and Ramdas Pophale) SiO2 
 PCOD9572061
Probable space group: I 4/M C M
;
_chemical_formula_sum "Si O2"
_cell_formula_units_Z 192
_cell_length_a 18.323237
_cell_length_b 18.323237
_cell_length_c 28.953833
_cell_angle_alpha 90.000000
_cell_angle_beta 90.000000
_cell_angle_gamma 90.000000
_cell_volume 9720.989255
_symmetry_space_group_name_H-M "I 4/M C M"
_symmetry_group_IT_number 140
_symmetry_cell_setting 'tetragonal'
loop_
_space_group_symop_operation_xyz
x,y,z
-y,x,z
-x,-y,z
y,-x,z
x,-y,1/2-z
-x,y,1/2-z
y,x,1/2-z
-y,-x,1/2-z
-x,-y,-z
y,-x,-z
x,y,-z
-y,x,-z
-x,y,1/2+z
x,-y,1/2+z
-y,-x,1/2+z
y,x,1/2+z
1/2+x,1/2+y,1/2+z
1/2-y,1/2+x,1/2+z
1/2-x,1/2-y,1/2+z
1/2+y,1/2-x,1/2+z
1/2+x,1/2-y,-z
1/2-x,1/2+y,-z
1/2+y,1/2+x,-z
1/2-y,1/2-x,-z
1/2-x,1/2-y,1/2-z
1/2+y,1/2-x,1/2-z
1/2+x,1/2+y,1/2-z
1/2-y,1/2+x,1/2-z
1/2-x,1/2+y,z
1/2+x,1/2-y,z
1/2-y,1/2-x,z
1/2+y,1/2+x,z
loop_
_atom_site_type_symbol
_atom_site_label
_atom_site_fract_x
_atom_site_fract_y
_atom_site_fract_z
Si Si1 0.834657 0.451283 0.096330
Si Si2 0.413900 0.913900 0.758391
Si Si3 0.999789 0.122693 0.449987
Si Si4 0.835263 0.110444 0.199635
Si Si5 0.036097 0.811211 0.147567
Si Si6 0.444029 0.944029 0.852491
Si Si7 0.125024 0.501584 0.500000
Si Si8 0.195145 0.304856 0.223954
O O1 0.873039 0.373039 0.090886
O O2 0.771907 0.446554 0.134496
O O3 0.892775 0.507131 0.117315
O O4 0.826031 0.485349 0.045218
O O5 0.500000 0.897345 0.750000
O O6 0.402275 0.902275 0.813072
O O7 0.354861 0.854861 0.741235
O O8 0.999764 0.161541 0.500000
O O9 0.003708 0.163724 0.401830
O O10 0.929973 0.070120 0.449596
O O11 0.870033 0.129968 0.250000
O O12 0.891238 0.146786 0.163282
O O13 0.753906 0.144359 0.197812
O O14 0.825752 0.025531 0.186254
O O15 0.500000 0.000000 0.827673
O O16 0.060345 0.439656 0.500000
O O17 0.078671 0.578671 0.500000
O O18 0.250000 0.250000 0.250000
#
# Coordination Sequence:
#
# PCOD9572061 Si02
#       8
#    32  16  32  32  32  16  16  16
#     4  10  22  35  61  93 126 171 214 261 319 399
#     4  11  22  40  66  96 123 161 216 284 328 384
#     4   9  18  36  61  87 118 154 201 263 318 366
#     4  11  26  46  65  92 126 173 220 272 337 391
#     4  12  23  40  66  93 127 167 222 272 322 395
#     4  10  18  35  54  87 119 152 209 261 314 364
#     4   9  16  36  62  90 134 171 206 266 331 395
#     4  10  25  43  62  87 128 172 211 261 336 404
#
# _framework density 19.751076999999999
#
# number of rings (size 3 to 8) (size 9 to 14) (size 15 to 20)
#    0.000    1.667    3.333    2.000    2.333    5.667 
#    0.000    0.833    0.000    0.000    0.000    2.333 
#    0.000    0.000    0.000    0.000    0.000    0.000 
#
# Total GULP energy -534474.106208 kJ/mol
# GULP energy per Si atom -5567.438606 kJ/mol
# Density = 1.970612 g / cm^3
# Si number density = 19.751077 Si / 1000 Ang^3
#
#
#
# Elastic Constant Matrix: (Units=GPa)
#
#
# Indices 1 2 3 4 5 6 
#
# 1 76.9025 54.6144 13.4098 0.0000 0.0000 0.0000
# 2 54.6144 76.9023 13.4094 0.0000 0.0000 0.0000
# 3 13.4098 13.4094 95.6765 0.0000 0.0000 0.0000
# 4 0.0000 0.0000 0.0000 21.9125 0.0000 0.0000
# 5 0.0000 0.0000 0.0000 0.0000 21.9125 0.0000
# 6 0.0000 0.0000 0.0000 0.0000 0.0000 22.6228
#
#
#
# Elastic Compliance Matrix: (Units=1/GPa)
#
#
# Indices 1 2 3 4 5 6 
#
# 1 0.026347 -0.018520 -0.001097 0.000000 0.000000 0.000000
# 2 -0.018520 0.026347 -0.001097 0.000000 0.000000 0.000000
# 3 -0.001097 -0.001097 0.010759 0.000000 0.000000 0.000000
# 4 0.000000 0.000000 0.000000 0.045636 0.000000 0.000000
# 5 0.000000 0.000000 0.000000 0.000000 0.045636 0.000000
# 6 0.000000 0.000000 0.000000 0.000000 0.000000 0.044203
#
#
# Mechanical properties :
#
#
# Convention : Reuss Voigt Hill
#
# Bulk Modulus (GPa) = 45.40123 45.81651 45.60887
# Shear Modulus (GPa) = 20.18575 24.49273 22.33924
#
# Velocity S-wave (km/s) = 3.20035 3.52528 3.36674
# Velocity P-wave (km/s) = 6.05747 6.31011 6.18508
#
# Compressibility (1/GPa) = 0.02202584
#
# Stress axis : x y z
#
# Youngs Moduli (GPa) = 37.95454 37.95450 92.94193
#
# Poissons Ratio (x) = 0.70292 0.10197
# Poissons Ratio (y) = 0.70292 0.10195
# Poissons Ratio (z) = 0.04164 0.04163
#
# Static dielectric constant tensor:
#      x y z
#    x 1.748970 0.000000 0.000000 
#    y 0.000000 1.748970 0.000000 
#    z 0.000000 0.000000 1.745670 
# 
# From -- ./inp_files/11677.got.cif
#   From: 2010.05.17/outbox.cif.g08.bks.cpg/sg140_6_cif.got.tgz:11677.got - 2010.06.21 00:45:31.
