data_PCOD9572255
_publ_section_title
;
Structure prediction by ZEFSAII (Michael W. Deem and Ramdas Pophale) SiO2 
 PCOD9572255
Probable space group: I 4/M C M
;
_chemical_formula_sum "Si O2"
_cell_formula_units_Z 160
_cell_length_a 21.219013
_cell_length_b 21.219013
_cell_length_c 19.612471
_cell_angle_alpha 90.000000
_cell_angle_beta 90.000000
_cell_angle_gamma 90.000000
_cell_volume 8830.446673
_symmetry_space_group_name_H-M "I 4/M C M"
_symmetry_group_IT_number 140
_symmetry_cell_setting 'tetragonal'
loop_
_space_group_symop_operation_xyz
x,y,z
-y,x,z
-x,-y,z
y,-x,z
x,-y,1/2-z
-x,y,1/2-z
y,x,1/2-z
-y,-x,1/2-z
-x,-y,-z
y,-x,-z
x,y,-z
-y,x,-z
-x,y,1/2+z
x,-y,1/2+z
-y,-x,1/2+z
y,x,1/2+z
1/2+x,1/2+y,1/2+z
1/2-y,1/2+x,1/2+z
1/2-x,1/2-y,1/2+z
1/2+y,1/2-x,1/2+z
1/2+x,1/2-y,-z
1/2-x,1/2+y,-z
1/2+y,1/2+x,-z
1/2-y,1/2-x,-z
1/2-x,1/2-y,1/2-z
1/2+y,1/2-x,1/2-z
1/2+x,1/2+y,1/2-z
1/2-y,1/2+x,1/2-z
1/2-x,1/2+y,z
1/2+x,1/2-y,z
1/2-y,1/2-x,z
1/2+y,1/2+x,z
loop_
_atom_site_type_symbol
_atom_site_label
_atom_site_fract_x
_atom_site_fract_y
_atom_site_fract_z
Si Si1 0.358614 0.035709 0.177282
Si Si2 0.923125 0.683522 0.078307
Si Si3 0.567667 0.576037 0.667635
Si Si4 0.361326 0.302825 0.650833
Si Si5 0.641621 0.241702 0.708279
O O1 0.421274 0.078727 0.164248
O O2 0.300191 0.084900 0.180355
O O3 0.365557 0.000000 0.250000
O O4 0.339529 0.982285 0.123192
O O5 0.871905 0.628096 0.081754
O O6 0.887652 0.746053 0.105820
O O7 0.942289 0.693148 0.000000
O O8 0.494810 0.585902 0.649256
O O9 0.576275 0.576275 0.750000
O O10 0.606808 0.631097 0.634078
O O11 0.287377 0.320624 0.656940
O O12 0.380912 0.283277 0.728170
O O13 0.692147 0.192147 0.737716
#
# Coordination Sequence:
#
# PCOD9572255 Si02
#       5
#    32  32  32  32  32
#     4  11  23  39  63  94 125 158 205 265 316 369
#     4  11  25  43  61  85 122 165 208 255 313 382
#     4   9  18  29  46  82 121 147 179 229 287 347
#     4  11  19  33  61  84 118 156 195 240 299 364
#     4  10  20  33  55  90 120 144 188 250 305 353
#
# _framework density 18.119129999999998
#
# number of rings (size 3 to 8) (size 9 to 14) (size 15 to 20)
#    0.000    1.600    4.000    3.600    2.800    1.800 
#    0.000    2.000    0.000    1.200    0.000    1.400 
#    0.000    0.000    0.000    0.000    0.000    0.000 
#
# Total GULP energy -445865.357290 kJ/mol
# GULP energy per Si atom -5573.316966 kJ/mol
# Density = 1.807789 g / cm^3
# Si number density = 18.119130 Si / 1000 Ang^3
#
#
#
# Elastic Constant Matrix: (Units=GPa)
#
#
# Indices 1 2 3 4 5 6 
#
# 1 231.3290 -84.8508 40.9374 0.0000 0.0000 0.0000
# 2 -84.8508 231.3290 40.9374 0.0000 0.0000 0.0000
# 3 40.9374 40.9374 83.5198 0.0000 0.0000 0.0000
# 4 0.0000 0.0000 0.0000 16.1127 0.0000 0.0000
# 5 0.0000 0.0000 0.0000 0.0000 16.1127 0.0000
# 6 0.0000 0.0000 0.0000 0.0000 0.0000 53.8021
#
#
#
# Elastic Compliance Matrix: (Units=1/GPa)
#
#
# Indices 1 2 3 4 5 6 
#
# 1 0.006283 0.003120 -0.004609 0.000000 0.000000 0.000000
# 2 0.003120 0.006283 -0.004609 0.000000 0.000000 0.000000
# 3 -0.004609 -0.004609 0.016491 0.000000 0.000000 0.000000
# 4 0.000000 0.000000 0.000000 0.062063 0.000000 0.000000
# 5 0.000000 0.000000 0.000000 0.000000 0.062063 0.000000
# 6 0.000000 0.000000 0.000000 0.000000 0.000000 0.018587
#
#
# Mechanical properties :
#
#
# Convention : Reuss Voigt Hill
#
# Bulk Modulus (GPa) = 59.30558 60.02509 59.66533
# Shear Modulus (GPa) = 26.37331 53.81576 40.09453
#
# Velocity S-wave (km/s) = 3.81931 5.45578 4.70917
# Velocity P-wave (km/s) = 7.22852 8.53741 7.91008
#
# Compressibility (1/GPa) = 0.01686182
#
# Stress axis : x y z
#
# Youngs Moduli (GPa) = 159.16048 159.16048 60.63761
#
# Poissons Ratio (x) = -0.49661 0.27948
# Poissons Ratio (y) = -0.49661 0.27948
# Poissons Ratio (z) = 0.73357 0.73357
#
# Static dielectric constant tensor:
#      x y z
#    x 1.627740 0.000000 0.000000 
#    y 0.000000 1.627740 0.000000 
#    z 0.000000 0.000000 1.617200 
# 
# From -- ./inp_files/6858.got.cif
#   From: 2010.05.17/outbox.cif.g08.bks.cpg/sg140_4_cif.got.tgz:6858.got - 2010.06.21 00:45:31.
