data_PCOD9572894
_publ_section_title
;
Structure prediction by ZEFSAII (Michael W. Deem and Ramdas Pophale) SiO2 
 PCOD9572894
Probable space group: I 41/A M D
;
_chemical_formula_sum "Si O2"
_cell_formula_units_Z 144
_cell_length_a 30.728439
_cell_length_b 30.728439
_cell_length_c 8.897009
_cell_angle_alpha 90.000000
_cell_angle_beta 90.000000
_cell_angle_gamma 90.000000
_cell_volume 8400.884761
_symmetry_space_group_name_H-M "I 41/A M D"
_symmetry_group_IT_number 141
_space_group.IT_coordinate_system_code '2'
_symmetry_cell_setting 'tetragonal'
loop_
_space_group_symop_operation_xyz
x,y,z
1/4-y,3/4+x,1/4+z
-x,1/2-y,z
1/4+y,1/4-x,3/4+z
x,-y,-z
-x,1/2+y,-z
1/4+y,3/4+x,1/4-z
1/4-y,1/4-x,3/4-z
-x,-y,-z
3/4+y,1/4-x,3/4-z
x,1/2+y,-z
3/4-y,3/4+x,1/4-z
-x,y,z
x,1/2-y,z
3/4-y,1/4-x,3/4+z
3/4+y,3/4+x,1/4+z
1/2+x,1/2+y,1/2+z
3/4-y,1/4+x,3/4+z
1/2-x,-y,1/2+z
3/4+y,3/4-x,1/4+z
1/2+x,1/2-y,1/2-z
1/2-x,y,1/2-z
3/4+y,1/4+x,3/4-z
3/4-y,3/4-x,1/4-z
1/2-x,1/2-y,1/2-z
1/4+y,3/4-x,1/4-z
1/2+x,y,1/2-z
1/4-y,1/4+x,3/4-z
1/2-x,1/2+y,1/2+z
1/2+x,-y,1/2+z
1/4-y,3/4-x,1/4+z
1/4+y,1/4+x,3/4+z
loop_
_atom_site_type_symbol
_atom_site_label
_atom_site_fract_x
_atom_site_fract_y
_atom_site_fract_z
Si Si1 0.117327 0.198847 0.304630
Si Si2 0.204293 0.799128 0.501658
Si Si3 0.106617 0.000000 0.500000
Si Si4 0.620155 0.415470 0.844073
Si Si5 0.389278 0.548722 0.487485
O O1 0.075274 0.174727 0.375000
O O2 0.110212 0.250000 0.264275
O O3 0.155833 0.198294 0.428784
O O4 0.136852 0.168149 0.171229
O O5 0.219526 0.750000 0.508863
O O6 0.234799 0.827379 0.609844
O O7 0.204295 0.816829 0.333576
O O8 0.130878 0.043233 0.551313
O O9 0.605884 0.434466 0.682186
O O10 0.664069 0.388637 0.819460
O O11 0.369606 0.500000 0.500000
#
# Coordination Sequence:
#
# PCOD9572894 Si02
#       5
#    32  32  16  32  32
#     4  10  20  37  60  87 114 152 194 236 289 353
#     4  10  20  34  56  84 114 142 188 237 287 350
#     4  10  19  36  56  82 108 152 180 240 297 338
#     4  10  22  37  59  80 116 150 192 240 292 350
#     4  11  21  38  57  82 113 153 192 235 291 351
#
# _framework density 17.141051000000001
#
# number of rings (size 3 to 8) (size 9 to 14) (size 15 to 20)
#    0.000    1.778    4.444    0.333    0.000    2.444 
#    0.000    0.000    9.778    0.000    0.000    0.000 
#    0.000    0.000    0.000    0.000    0.000    0.000 
#
# Total GULP energy -401162.842065 kJ/mol
# GULP energy per Si atom -5571.706140 kJ/mol
# Density = 1.710204 g / cm^3
# Si number density = 17.141051 Si / 1000 Ang^3
#
#
#
# Elastic Constant Matrix: (Units=GPa)
#
#
# Indices 1 2 3 4 5 6 
#
# 1 91.0345 39.2390 37.0270 0.0000 0.0000 0.0000
# 2 39.2390 91.0332 37.0258 0.0000 0.0000 0.0000
# 3 37.0270 37.0258 68.9453 0.0000 0.0000 0.0000
# 4 0.0000 0.0000 0.0000 20.0836 0.0000 0.0000
# 5 0.0000 0.0000 0.0000 0.0000 20.0840 0.0000
# 6 0.0000 0.0000 0.0000 0.0000 0.0000 6.4187
#
#
#
# Elastic Compliance Matrix: (Units=1/GPa)
#
#
# Indices 1 2 3 4 5 6 
#
# 1 0.015178 -0.004129 -0.005934 0.000000 0.000000 0.000000
# 2 -0.004129 0.015178 -0.005934 0.000000 0.000000 0.000000
# 3 -0.005934 -0.005934 0.020878 0.000000 0.000000 0.000000
# 4 0.000000 0.000000 0.000000 0.049792 0.000000 0.000000
# 5 0.000000 0.000000 0.000000 0.000000 0.049791 0.000000
# 6 0.000000 0.000000 0.000000 0.000000 0.000000 0.155795
#
#
# Mechanical properties :
#
#
# Convention : Reuss Voigt Hill
#
# Bulk Modulus (GPa) = 51.97322 53.06629 52.51976
# Shear Modulus (GPa) = 14.49198 18.49867 16.49532
#
# Velocity S-wave (km/s) = 2.91082 3.28869 3.10551
# Velocity P-wave (km/s) = 6.45631 6.74140 6.60039
#
# Compressibility (1/GPa) = 0.01924068
#
# Stress axis : x y z
#
# Youngs Moduli (GPa) = 65.88435 65.88433 47.89786
#
# Poissons Ratio (x) = 0.27202 0.28423
# Poissons Ratio (y) = 0.27202 0.28421
# Poissons Ratio (z) = 0.39096 0.39094
#
# Static dielectric constant tensor:
#      x y z
#    x 1.581980 0.000000 0.000000 
#    y 0.000000 1.581980 0.000000 
#    z 0.000000 0.000000 1.591540 
# 
# From -- ./inp_files/3184.got.cif
#   From: 2010.05.17/outbox.cif.g08.bks.cpg/sg141_2_cif.got.tgz:3184.got - 2010.05.20 13:30:51.
