data_PCOD9572053
_publ_section_title
;
Structure prediction by ZEFSAII (Michael W. Deem and Ramdas Pophale) SiO2 
 PCOD9572053
Probable space group: I 4/M C M
;
_chemical_formula_sum "Si O2"
_cell_formula_units_Z 160
_cell_length_a 23.574893
_cell_length_b 23.574893
_cell_length_c 14.369601
_cell_angle_alpha 90.000000
_cell_angle_beta 90.000000
_cell_angle_gamma 90.000000
_cell_volume 7986.273330
_symmetry_space_group_name_H-M "I 4/M C M"
_symmetry_group_IT_number 140
_symmetry_cell_setting 'tetragonal'
loop_
_space_group_symop_operation_xyz
x,y,z
-y,x,z
-x,-y,z
y,-x,z
x,-y,1/2-z
-x,y,1/2-z
y,x,1/2-z
-y,-x,1/2-z
-x,-y,-z
y,-x,-z
x,y,-z
-y,x,-z
-x,y,1/2+z
x,-y,1/2+z
-y,-x,1/2+z
y,x,1/2+z
1/2+x,1/2+y,1/2+z
1/2-y,1/2+x,1/2+z
1/2-x,1/2-y,1/2+z
1/2+y,1/2-x,1/2+z
1/2+x,1/2-y,-z
1/2-x,1/2+y,-z
1/2+y,1/2+x,-z
1/2-y,1/2-x,-z
1/2-x,1/2-y,1/2-z
1/2+y,1/2-x,1/2-z
1/2+x,1/2+y,1/2-z
1/2-y,1/2+x,1/2-z
1/2-x,1/2+y,z
1/2+x,1/2-y,z
1/2-y,1/2-x,z
1/2+y,1/2+x,z
loop_
_atom_site_type_symbol
_atom_site_label
_atom_site_fract_x
_atom_site_fract_y
_atom_site_fract_z
Si Si1 0.736007 0.670346 0.500000
Si Si2 0.603182 0.319912 0.000000
Si Si3 0.530687 0.409916 0.500000
Si Si4 0.156793 0.248248 0.716658
Si Si5 0.042545 0.709779 0.679595
Si Si6 0.508591 0.331200 0.855621
Si Si7 0.184435 0.405133 0.000000
O O1 0.767775 0.732225 0.500000
O O2 0.668452 0.667189 0.500000
O O3 0.750376 0.647013 0.395733
O O4 0.568696 0.339670 0.091622
O O5 0.600589 0.252000 0.000000
O O6 0.566204 0.466510 0.500000
O O7 0.535930 0.367860 0.586586
O O8 0.190289 0.190289 0.750000
O O9 0.201405 0.298596 0.739388
O O10 0.098424 0.262159 0.771463
O O11 0.004920 0.763140 0.642121
O O12 0.062230 0.671569 0.594663
O O13 0.000000 0.679773 0.750000
O O14 0.500000 0.348647 0.750000
O O15 0.154965 0.345036 0.000000
#
# Coordination Sequence:
#
# PCOD9572053 Si02
#       7
#    16  16  16  32  32  32  16
#     4  10  20  34  52  81 112 141 176 225 285 351
#     4   9  17  33  53  79 107 137 179 224 284 353
#     4  10  22  41  55  68  88 121 184 257 307 346
#     4  10  20  35  57  84 115 150 196 242 290 356
#     4  10  21  37  53  82 121 154 190 237 295 361
#     4   9  19  37  51  73  98 132 174 227 290 355
#     4  10  18  32  60  83 111 152 195 234 275 340
#
# _framework density 20.034376000000002
#
# number of rings (size 3 to 8) (size 9 to 14) (size 15 to 20)
#    0.000    2.300    0.000    3.900    0.000    3.200 
#   25.200    2.000    0.000    0.000    0.000    0.000 
#    0.000    9.600    0.000    0.000    0.000    0.000 
#
# Total GULP energy -445361.233343 kJ/mol
# GULP energy per Si atom -5567.015417 kJ/mol
# Density = 1.998878 g / cm^3
# Si number density = 20.034376 Si / 1000 Ang^3
#
#
#
# Elastic Constant Matrix: (Units=GPa)
#
#
# Indices 1 2 3 4 5 6 
#
# 1 62.4093 26.8759 34.6466 0.0000 0.0000 0.0000
# 2 26.8759 62.4161 34.6490 0.0000 0.0000 0.0000
# 3 34.6466 34.6490 157.1311 0.0000 0.0000 0.0000
# 4 0.0000 0.0000 0.0000 26.3683 0.0000 0.0000
# 5 0.0000 0.0000 0.0000 0.0000 26.3678 0.0000
# 6 0.0000 0.0000 0.0000 0.0000 0.0000 21.9517
#
#
#
# Elastic Compliance Matrix: (Units=1/GPa)
#
#
# Indices 1 2 3 4 5 6 
#
# 1 0.020827 -0.007314 -0.002979 0.000000 0.000000 0.000000
# 2 -0.007314 0.020825 -0.002979 0.000000 0.000000 0.000000
# 3 -0.002979 -0.002979 0.007678 0.000000 0.000000 0.000000
# 4 0.000000 0.000000 0.000000 0.037924 0.000000 0.000000
# 5 0.000000 0.000000 0.000000 0.000000 0.037925 0.000000
# 6 0.000000 0.000000 0.000000 0.000000 0.000000 0.045555
#
#
# Mechanical properties :
#
#
# Convention : Reuss Voigt Hill
#
# Bulk Modulus (GPa) = 43.88999 52.69995 48.29497
# Shear Modulus (GPa) = 24.40524 27.32323 25.86424
#
# Velocity S-wave (km/s) = 3.49401 3.69700 3.59694
# Velocity P-wave (km/s) = 6.18324 6.67724 6.43498
#
# Compressibility (1/GPa) = 0.02278424
#
# Stress axis : x y z
#
# Youngs Moduli (GPa) = 48.01465 48.01968 130.24146
#
# Poissons Ratio (x) = 0.35121 0.38805
# Poissons Ratio (y) = 0.35118 0.38804
# Poissons Ratio (z) = 0.14306 0.14307
#
# Static dielectric constant tensor:
#      x y z
#    x 1.724700 0.000000 0.000000 
#    y 0.000000 1.724700 0.000000 
#    z 0.000000 0.000000 1.760850 
# 
# From -- ./inp_files/4860.got.cif
#   From: 2010.05.17/outbox.cif.g08.bks.cpg/sg140_3_cif.got.tgz:4860.got - 2010.06.21 00:45:31.
