data_PCOD9572611
_publ_section_title
;
Structure prediction by ZEFSAII (Michael W. Deem and Ramdas Pophale) SiO2 
 PCOD9572611
Probable space group: I 4/M C M
;
_chemical_formula_sum "Si O2"
_cell_formula_units_Z 128
_cell_length_a 22.577712
_cell_length_b 22.577712
_cell_length_c 14.429628
_cell_angle_alpha 90.000000
_cell_angle_beta 90.000000
_cell_angle_gamma 90.000000
_cell_volume 7355.547304
_symmetry_space_group_name_H-M "I 4/M C M"
_symmetry_group_IT_number 140
_symmetry_cell_setting 'tetragonal'
loop_
_space_group_symop_operation_xyz
x,y,z
-y,x,z
-x,-y,z
y,-x,z
x,-y,1/2-z
-x,y,1/2-z
y,x,1/2-z
-y,-x,1/2-z
-x,-y,-z
y,-x,-z
x,y,-z
-y,x,-z
-x,y,1/2+z
x,-y,1/2+z
-y,-x,1/2+z
y,x,1/2+z
1/2+x,1/2+y,1/2+z
1/2-y,1/2+x,1/2+z
1/2-x,1/2-y,1/2+z
1/2+y,1/2-x,1/2+z
1/2+x,1/2-y,-z
1/2-x,1/2+y,-z
1/2+y,1/2+x,-z
1/2-y,1/2-x,-z
1/2-x,1/2-y,1/2-z
1/2+y,1/2-x,1/2-z
1/2+x,1/2+y,1/2-z
1/2-y,1/2+x,1/2-z
1/2-x,1/2+y,z
1/2+x,1/2-y,z
1/2-y,1/2-x,z
1/2+y,1/2+x,z
loop_
_atom_site_type_symbol
_atom_site_label
_atom_site_fract_x
_atom_site_fract_y
_atom_site_fract_z
Si Si1 0.735185 0.764816 0.891935
Si Si2 0.915166 0.153402 0.500000
Si Si3 0.316354 0.548520 0.000000
Si Si4 0.366225 0.866225 0.392544
Si Si5 0.200084 0.136990 0.315907
Si Si6 0.729706 0.943346 0.182822
O O1 0.684937 0.815064 0.886541
O O2 0.796864 0.784810 0.848143
O O3 0.745848 0.754153 0.000000
O O4 0.866848 0.099743 0.500000
O O5 0.900492 0.189101 0.406988
O O6 0.986254 0.148034 0.500000
O O7 0.273398 0.553140 0.908170
O O8 0.377307 0.877307 0.500000
O O9 0.335694 0.924130 0.349604
O O10 0.142397 0.142397 0.250000
O O11 0.248739 0.108460 0.251099
O O12 0.731939 0.000000 0.250000
#
# Coordination Sequence:
#
# PCOD9572611 Si02
#       6
#    16  16  16  16  32  32
#     4  11  20  32  56  92 126 150 190 250 325 391
#     4  12  24  38  57  81 121 164 215 266 298 354
#     4  12  24  40  59  89 119 163 218 259 303 357
#     4  11  21  37  63  94 126 154 198 256 309 381
#     4  12  21  35  57  84 121 161 195 248 314 378
#     4  12  24  39  63  90 123 164 204 247 311 374
#
# _framework density 17.401831999999999
#
# number of rings (size 3 to 8) (size 9 to 14) (size 15 to 20)
#    0.000    0.250   10.000    1.125    0.000    0.250 
#    0.000    0.000    0.000    0.375    0.000    0.875 
#    0.000    0.000    0.000    0.000    0.000    0.000 
#
# Total GULP energy -356765.744358 kJ/mol
# GULP energy per Si atom -5574.464756 kJ/mol
# Density = 1.736222 g / cm^3
# Si number density = 17.401832 Si / 1000 Ang^3
#
#
#
# Elastic Constant Matrix: (Units=GPa)
#
#
# Indices 1 2 3 4 5 6 
#
# 1 52.9752 11.3909 30.0460 0.0000 0.0000 0.0000
# 2 11.3909 52.9755 30.0459 0.0000 0.0000 0.0000
# 3 30.0460 30.0459 147.6671 0.0000 0.0000 0.0000
# 4 0.0000 0.0000 0.0000 26.6442 0.0000 0.0000
# 5 0.0000 0.0000 0.0000 0.0000 26.6443 0.0000
# 6 0.0000 0.0000 0.0000 0.0000 0.0000 21.1801
#
#
#
# Elastic Compliance Matrix: (Units=1/GPa)
#
#
# Indices 1 2 3 4 5 6 
#
# 1 0.021613 -0.002434 -0.003902 0.000000 0.000000 0.000000
# 2 -0.002434 0.021613 -0.003902 0.000000 0.000000 0.000000
# 3 -0.003902 -0.003902 0.008360 0.000000 0.000000 0.000000
# 4 0.000000 0.000000 0.000000 0.037532 0.000000 0.000000
# 5 0.000000 0.000000 0.000000 0.000000 0.037531 0.000000
# 6 0.000000 0.000000 0.000000 0.000000 0.000000 0.047214
#
#
# Mechanical properties :
#
#
# Convention : Reuss Voigt Hill
#
# Bulk Modulus (GPa) = 32.14502 44.06484 38.10493
# Shear Modulus (GPa) = 24.42460 27.03605 25.73033
#
# Velocity S-wave (km/s) = 3.75048 3.94589 3.84943
# Velocity P-wave (km/s) = 6.10468 6.79242 6.45771
#
# Compressibility (1/GPa) = 0.03110902
#
# Stress axis : x y z
#
# Youngs Moduli (GPa) = 46.26741 46.26771 119.61642
#
# Poissons Ratio (x) = 0.11262 0.46680
# Poissons Ratio (y) = 0.11262 0.46679
# Poissons Ratio (z) = 0.18056 0.18056
#
# Static dielectric constant tensor:
#      x y z
#    x 1.611450 0.000000 0.000000 
#    y 0.000000 1.611450 0.000000 
#    z 0.000000 0.000000 1.629320 
# 
# From -- ./inp_files/4457.got.cif
#   From: 2010.05.17/outbox.cif.g08.bks.cpg/sg140_3_cif.got.tgz:4457.got - 2010.06.21 00:45:31.
