data_PCOD9572319
_publ_section_title
;
Structure prediction by ZEFSAII (Michael W. Deem and Ramdas Pophale) SiO2 
 PCOD9572319
Probable space group: I 4/M C M
;
_chemical_formula_sum "Si O2"
_cell_formula_units_Z 160
_cell_length_a 21.869226
_cell_length_b 21.869226
_cell_length_c 16.000670
_cell_angle_alpha 90.000000
_cell_angle_beta 90.000000
_cell_angle_gamma 90.000000
_cell_volume 7652.529170
_symmetry_space_group_name_H-M "I 4/M C M"
_symmetry_group_IT_number 140
_symmetry_cell_setting 'tetragonal'
loop_
_space_group_symop_operation_xyz
x,y,z
-y,x,z
-x,-y,z
y,-x,z
x,-y,1/2-z
-x,y,1/2-z
y,x,1/2-z
-y,-x,1/2-z
-x,-y,-z
y,-x,-z
x,y,-z
-y,x,-z
-x,y,1/2+z
x,-y,1/2+z
-y,-x,1/2+z
y,x,1/2+z
1/2+x,1/2+y,1/2+z
1/2-y,1/2+x,1/2+z
1/2-x,1/2-y,1/2+z
1/2+y,1/2-x,1/2+z
1/2+x,1/2-y,-z
1/2-x,1/2+y,-z
1/2+y,1/2+x,-z
1/2-y,1/2-x,-z
1/2-x,1/2-y,1/2-z
1/2+y,1/2-x,1/2-z
1/2+x,1/2+y,1/2-z
1/2-y,1/2+x,1/2-z
1/2-x,1/2+y,z
1/2+x,1/2-y,z
1/2-y,1/2-x,z
1/2+y,1/2+x,z
loop_
_atom_site_type_symbol
_atom_site_label
_atom_site_fract_x
_atom_site_fract_y
_atom_site_fract_z
Si Si1 0.417230 0.346520 0.900826
Si Si2 0.116469 0.711668 0.138463
Si Si3 0.188766 0.593286 0.666059
Si Si4 0.983463 0.385127 0.904364
Si Si5 0.178604 0.053796 0.601191
O O1 0.386473 0.281135 0.887312
O O2 0.372608 0.398849 0.867270
O O3 0.486026 0.338525 0.867320
O O4 0.423241 0.358144 0.000000
O O5 0.181225 0.681225 0.119855
O O6 0.102155 0.702719 0.236366
O O7 0.065046 0.670511 0.094547
O O8 0.155441 0.655441 0.635314
O O9 0.139601 0.539292 0.650246
O O10 0.252967 0.574199 0.625346
O O11 0.944687 0.444687 0.875918
O O12 0.003653 0.395579 0.000000
O O13 0.177347 0.052706 0.500000
#
# Coordination Sequence:
#
# PCOD9572319 Si02
#       5
#    32  32  32  32  32
#     4  10  21  39  63  89 119 154 197 247 298 356
#     4  10  21  37  59  86 118 159 200 238 288 350
#     4  11  23  38  58  87 124 161 200 246 297 351
#     4  10  20  35  58  87 118 156 200 243 291 347
#     4  10  22  39  61  89 118 155 198 244 300 356
#
# _framework density 20.908118999999999
#
# number of rings (size 3 to 8) (size 9 to 14) (size 15 to 20)
#    0.000    1.800    2.000    1.800    0.000    5.200 
#    0.000    7.000    0.000    3.600    0.000    2.800 
#    0.000    0.000    0.000    0.000    0.000    0.000 
#
# Total GULP energy -446852.244063 kJ/mol
# GULP energy per Si atom -5585.653051 kJ/mol
# Density = 2.086053 g / cm^3
# Si number density = 20.908119 Si / 1000 Ang^3
#
#
#
# Elastic Constant Matrix: (Units=GPa)
#
#
# Indices 1 2 3 4 5 6 
#
# 1 112.6761 118.5625 3.6028 0.0000 0.0000 0.0000
# 2 118.5625 112.6761 3.6028 0.0000 0.0000 0.0000
# 3 3.6028 3.6028 17.2669 0.0000 0.0000 0.0000
# 4 0.0000 0.0000 0.0000 277.5166 0.0000 0.0000
# 5 0.0000 0.0000 0.0000 0.0000 277.5166 0.0000
# 6 0.0000 0.0000 0.0000 0.0000 0.0000 34.9579
#
#
#
# Elastic Compliance Matrix: (Units=1/GPa)
#
#
# Indices 1 2 3 4 5 6 
#
# 1 -0.082765 0.087117 -0.000908 0.000000 0.000000 0.000000
# 2 0.087117 -0.082765 -0.000908 0.000000 0.000000 0.000000
# 3 -0.000908 -0.000908 0.058293 0.000000 0.000000 0.000000
# 4 0.000000 0.000000 0.000000 0.003603 0.000000 0.000000
# 5 0.000000 0.000000 0.000000 0.000000 0.003603 0.000000
# 6 0.000000 0.000000 0.000000 0.000000 0.000000 0.028606
#
#
# Mechanical properties :
#
#
# Convention : Reuss Voigt Hill
#
# Bulk Modulus (GPa) = 15.78130 54.90615 35.34372
# Shear Modulus (GPa) = -22.63437 125.78828 51.57695
#
# Velocity S-wave (km/s) = -3.29380 7.76486 4.97212
# Velocity P-wave (km/s) = 2.62701 10.32997 7.06425
#
# Compressibility (1/GPa) = 0.06336615
#
# Stress axis : x y z
#
# Youngs Moduli (GPa) = -12.08246 -12.08246 17.15459
#
# Poissons Ratio (x) = 1.05259 0.01558
# Poissons Ratio (y) = 1.05259 0.01558
# Poissons Ratio (z) = -0.01097 -0.01097
#
# Static dielectric constant tensor:
#      x y z
#    x 1.744190 0.000000 0.000000 
#    y 0.000000 1.744190 0.000000 
#    z 0.000000 0.000000 1.766830 
# 
# From -- ./inp_files/6790.got.cif
#   From: 2010.05.17/outbox.cif.g08.bks.cpg/sg140_4_cif.got.tgz:6790.got - 2010.06.21 00:45:31.
