data_PCOD9572576
_publ_section_title
;
Structure prediction by ZEFSAII (Michael W. Deem and Ramdas Pophale) SiO2 
 PCOD9572576
Probable space group: I 4/M C M
;
_chemical_formula_sum "Si O2"
_cell_formula_units_Z 52
_cell_length_a 16.380576
_cell_length_b 16.380576
_cell_length_c 8.835961
_cell_angle_alpha 90.000000
_cell_angle_beta 90.000000
_cell_angle_gamma 90.000000
_cell_volume 2370.893950
_symmetry_space_group_name_H-M "I 4/M C M"
_symmetry_group_IT_number 140
_symmetry_cell_setting 'tetragonal'
loop_
_space_group_symop_operation_xyz
x,y,z
-y,x,z
-x,-y,z
y,-x,z
x,-y,1/2-z
-x,y,1/2-z
y,x,1/2-z
-y,-x,1/2-z
-x,-y,-z
y,-x,-z
x,y,-z
-y,x,-z
-x,y,1/2+z
x,-y,1/2+z
-y,-x,1/2+z
y,x,1/2+z
1/2+x,1/2+y,1/2+z
1/2-y,1/2+x,1/2+z
1/2-x,1/2-y,1/2+z
1/2+y,1/2-x,1/2+z
1/2+x,1/2-y,-z
1/2-x,1/2+y,-z
1/2+y,1/2+x,-z
1/2-y,1/2-x,-z
1/2-x,1/2-y,1/2-z
1/2+y,1/2-x,1/2-z
1/2+x,1/2+y,1/2-z
1/2-y,1/2+x,1/2-z
1/2-x,1/2+y,z
1/2+x,1/2-y,z
1/2-y,1/2-x,z
1/2+y,1/2+x,z
loop_
_atom_site_type_symbol
_atom_site_label
_atom_site_fract_x
_atom_site_fract_y
_atom_site_fract_z
Si Si1 0.916106 0.209050 0.318744
Si Si2 0.500000 0.000000 0.000000
Si Si3 0.379180 0.120821 0.167461
O O1 0.840963 0.159038 0.250000
O O2 0.916633 0.206466 0.500000
O O3 0.910787 0.302036 0.261135
O O4 0.000000 0.174230 0.250000
O O5 0.446389 0.053612 0.875039
O O6 0.349816 0.150185 0.000000
#
# Coordination Sequence:
#
# PCOD9572576 Si02
#       3
#    32   4  16
#     4  12  26  47  75 110 153 208 272 336 410 491
#     4   8  24  44  80 104 162 188 262 326 398 490
#     4  10  22  47  74 110 152 207 261 331 414 490
#
# _framework density 21.932655
#
# number of rings (size 3 to 8) (size 9 to 14) (size 15 to 20)
#    0.923    0.000    0.000    7.385    0.000    3.077 
#    0.000    9.231    0.000    0.000    0.000    0.000 
#    0.000    0.000    0.000    0.000    0.000    0.000 
#
# Total GULP energy -144805.187971 kJ/mol
# GULP energy per Si atom -5569.430307 kJ/mol
# Density = 2.188274 g / cm^3
# Si number density = 21.932655 Si / 1000 Ang^3
#
#
#
# Elastic Constant Matrix: (Units=GPa)
#
#
# Indices 1 2 3 4 5 6 
#
# 1 209.2653 20.2221 73.6031 0.0000 0.0000 0.0000
# 2 20.2221 209.2885 73.5949 0.0000 0.0000 0.0000
# 3 73.6031 73.5949 277.2792 0.0000 0.0000 0.0000
# 4 0.0000 0.0000 0.0000 -8.7255 0.0000 0.0000
# 5 0.0000 0.0000 0.0000 0.0000 -8.7213 0.0000
# 6 0.0000 0.0000 0.0000 0.0000 0.0000 51.1190
#
#
#
# Elastic Compliance Matrix: (Units=1/GPa)
#
#
# Indices 1 2 3 4 5 6 
#
# 1 0.005271 -0.000019 -0.001394 0.000000 0.000000 0.000000
# 2 -0.000019 0.005270 -0.001394 0.000000 0.000000 0.000000
# 3 -0.001394 -0.001394 0.004346 0.000000 0.000000 0.000000
# 4 0.000000 0.000000 0.000000 -0.114607 0.000000 0.000000
# 5 0.000000 0.000000 0.000000 0.000000 -0.114662 0.000000
# 6 0.000000 0.000000 0.000000 0.000000 0.000000 0.019562
#
#
# Mechanical properties :
#
#
# Convention : Reuss Voigt Hill
#
# Bulk Modulus (GPa) = 107.83303 114.51924 111.17613
# Shear Modulus (GPa) = -26.86517 41.96196 7.54840
#
# Velocity S-wave (km/s) = -3.50364 4.37878 1.85717
# Velocity P-wave (km/s) = 5.73628 8.82566 7.44302
#
# Compressibility (1/GPa) = 0.00927360
#
# Stress axis : x y z
#
# Youngs Moduli (GPa) = 189.72499 189.75261 230.07368
#
# Poissons Ratio (x) = 0.00362 0.32074
# Poissons Ratio (y) = 0.00362 0.32065
# Poissons Ratio (z) = 0.26449 0.26446
#
# Static dielectric constant tensor:
#      x y z
#    x 1.889580 0.000000 0.000000 
#    y 0.000000 1.889570 0.000000 
#    z 0.000000 0.000000 1.787330 
# 
# From -- ./inp_files/425.got.cif
#   From: 2010.05.17/outbox.cif.g08.bks.cpg/sg140_1_cif.got.tgz:425.got - 2010.06.21 00:45:31.
