data_PCOD9572047
_publ_section_title
;
Structure prediction by ZEFSAII (Michael W. Deem and Ramdas Pophale) SiO2 
 PCOD9572047
Probable space group: I 4/M C M
;
_chemical_formula_sum "Si O2"
_cell_formula_units_Z 192
_cell_length_a 17.312866
_cell_length_b 17.312866
_cell_length_c 31.469009
_cell_angle_alpha 90.000000
_cell_angle_beta 90.000000
_cell_angle_gamma 90.000000
_cell_volume 9432.373770
_symmetry_space_group_name_H-M "I 4/M C M"
_symmetry_group_IT_number 140
_symmetry_cell_setting 'tetragonal'
loop_
_space_group_symop_operation_xyz
x,y,z
-y,x,z
-x,-y,z
y,-x,z
x,-y,1/2-z
-x,y,1/2-z
y,x,1/2-z
-y,-x,1/2-z
-x,-y,-z
y,-x,-z
x,y,-z
-y,x,-z
-x,y,1/2+z
x,-y,1/2+z
-y,-x,1/2+z
y,x,1/2+z
1/2+x,1/2+y,1/2+z
1/2-y,1/2+x,1/2+z
1/2-x,1/2-y,1/2+z
1/2+y,1/2-x,1/2+z
1/2+x,1/2-y,-z
1/2-x,1/2+y,-z
1/2+y,1/2+x,-z
1/2-y,1/2-x,-z
1/2-x,1/2-y,1/2-z
1/2+y,1/2-x,1/2-z
1/2+x,1/2+y,1/2-z
1/2-y,1/2+x,1/2-z
1/2-x,1/2+y,z
1/2+x,1/2-y,z
1/2-y,1/2-x,z
1/2+y,1/2+x,z
loop_
_atom_site_type_symbol
_atom_site_label
_atom_site_fract_x
_atom_site_fract_y
_atom_site_fract_z
Si Si1 0.710813 0.664741 0.359967
Si Si2 0.903474 0.087455 0.200261
Si Si3 0.500000 0.129087 0.750000
Si Si4 0.315898 0.683826 0.952004
Si Si5 0.695631 0.063868 0.079671
Si Si6 0.666274 0.039867 0.339644
Si Si7 0.127254 0.506227 0.000000
O O1 0.748865 0.751136 0.359895
O O2 0.634178 0.650407 0.332511
O O3 0.704487 0.637256 0.409300
O O4 0.773343 0.608900 0.339399
O O5 0.890544 0.109457 0.250000
O O6 0.995099 0.105342 0.193766
O O7 0.425575 0.074426 0.751348
O O8 0.500821 0.172281 0.794253
O O9 0.248847 0.748847 0.955439
O O10 0.393101 0.727474 0.935805
O O11 0.324606 0.651319 0.000000
O O12 0.630168 0.130168 0.080168
O O13 0.688707 0.019314 0.123603
O O14 0.674823 0.005350 0.042243
O O15 0.581481 0.081481 0.346098
O O16 0.088195 0.588195 0.000000
O O17 0.059995 0.440006 0.000000
#
# Coordination Sequence:
#
# PCOD9572047 Si02
#       7
#    32  32  16  32  32  32  16
#     4  10  22  38  58  87 120 152 188 242 302 352
#     4   9  20  40  66  91 115 151 198 247 298 349
#     4   9  18  34  54  74 110 165 204 230 280 353
#     4   9  18  36  56  75 106 149 195 233 280 352
#     4  10  18  31  53  78 107 147 193 235 278 345
#     4  10  21  35  51  81 119 152 193 237 284 344
#     4   9  16  26  44  74 108 138 175 232 283 317
#
# _framework density 20.355429000000001
#
# number of rings (size 3 to 8) (size 9 to 14) (size 15 to 20)
#    0.000    2.500    0.833    1.500    2.333    3.333 
#    1.500    0.000    0.000    0.000    0.000    1.167 
#    0.000    0.000    0.000    0.000    0.000    0.000 
#
# Total GULP energy -535126.162875 kJ/mol
# GULP energy per Si atom -5574.230863 kJ/mol
# Density = 2.030910 g / cm^3
# Si number density = 20.355429 Si / 1000 Ang^3
#
#
#
# Elastic Constant Matrix: (Units=GPa)
#
#
# Indices 1 2 3 4 5 6 
#
# 1 30.1185 9.1873 32.5546 0.0000 0.0000 0.0000
# 2 9.1873 30.1184 32.5545 0.0000 0.0000 0.0000
# 3 32.5546 32.5545 186.2635 0.0000 0.0000 0.0000
# 4 0.0000 0.0000 0.0000 115.9613 0.0000 0.0000
# 5 0.0000 0.0000 0.0000 0.0000 115.9846 0.0000
# 6 0.0000 0.0000 0.0000 0.0000 0.0000 25.3687
#
#
#
# Elastic Compliance Matrix: (Units=1/GPa)
#
#
# Indices 1 2 3 4 5 6 
#
# 1 0.041792 -0.005983 -0.006259 0.000000 0.000000 0.000000
# 2 -0.005983 0.041792 -0.006259 0.000000 0.000000 0.000000
# 3 -0.006259 -0.006259 0.007556 0.000000 0.000000 0.000000
# 4 0.000000 0.000000 0.000000 0.008624 0.000000 0.000000
# 5 0.000000 0.000000 0.000000 0.000000 0.008622 0.000000
# 6 0.000000 0.000000 0.000000 0.000000 0.000000 0.039419
#
#
# Mechanical properties :
#
#
# Convention : Reuss Voigt Hill
#
# Bulk Modulus (GPa) = 18.47072 43.89924 31.18498
# Shear Modulus (GPa) = 24.64845 62.94319 43.79582
#
# Velocity S-wave (km/s) = 3.48358 5.56679 4.64352
# Velocity P-wave (km/s) = 5.02735 7.93298 6.64102
#
# Compressibility (1/GPa) = 0.05413974
#
# Stress axis : x y z
#
# Youngs Moduli (GPa) = 23.92798 23.92784 132.33749
#
# Poissons Ratio (x) = 0.14317 0.82824
# Poissons Ratio (y) = 0.14317 0.82824
# Poissons Ratio (z) = 0.14975 0.14975
#
# Static dielectric constant tensor:
#      x y z
#    x 1.751960 0.000000 0.000000 
#    y 0.000000 1.751960 0.000000 
#    z 0.000000 0.000000 1.685860 
# 
# From -- ./inp_files/11662.got.cif
#   From: 2010.05.17/outbox.cif.g08.bks.cpg/sg140_6_cif.got.tgz:11662.got - 2010.06.21 00:45:31.
