data_PCOD9572403
_publ_section_title
;
Structure prediction by ZEFSAII (Michael W. Deem and Ramdas Pophale) SiO2 
 PCOD9572403
Probable space group: I 4/M C M
;
_chemical_formula_sum "Si O2"
_cell_formula_units_Z 160
_cell_length_a 24.308702
_cell_length_b 24.308702
_cell_length_c 15.078582
_cell_angle_alpha 90.000000
_cell_angle_beta 90.000000
_cell_angle_gamma 90.000000
_cell_volume 8910.130019
_symmetry_space_group_name_H-M "I 4/M C M"
_symmetry_group_IT_number 140
_symmetry_cell_setting 'tetragonal'
loop_
_space_group_symop_operation_xyz
x,y,z
-y,x,z
-x,-y,z
y,-x,z
x,-y,1/2-z
-x,y,1/2-z
y,x,1/2-z
-y,-x,1/2-z
-x,-y,-z
y,-x,-z
x,y,-z
-y,x,-z
-x,y,1/2+z
x,-y,1/2+z
-y,-x,1/2+z
y,x,1/2+z
1/2+x,1/2+y,1/2+z
1/2-y,1/2+x,1/2+z
1/2-x,1/2-y,1/2+z
1/2+y,1/2-x,1/2+z
1/2+x,1/2-y,-z
1/2-x,1/2+y,-z
1/2+y,1/2+x,-z
1/2-y,1/2-x,-z
1/2-x,1/2-y,1/2-z
1/2+y,1/2-x,1/2-z
1/2+x,1/2+y,1/2-z
1/2-y,1/2+x,1/2-z
1/2-x,1/2+y,z
1/2+x,1/2-y,z
1/2-y,1/2-x,z
1/2+y,1/2+x,z
loop_
_atom_site_type_symbol
_atom_site_label
_atom_site_fract_x
_atom_site_fract_y
_atom_site_fract_z
Si Si1 0.999771 0.589516 0.142702
Si Si2 0.484827 0.213377 0.597645
Si Si3 0.104793 0.741298 0.100355
Si Si4 0.212093 0.198043 0.399136
Si Si5 0.877429 0.291604 0.291526
O O1 0.050825 0.550825 0.117957
O O2 0.000000 0.594650 0.250000
O O3 0.944654 0.555347 0.118572
O O4 0.003402 0.649685 0.102654
O O5 0.461208 0.224127 0.500000
O O6 0.539314 0.250132 0.608407
O O7 0.437685 0.217572 0.670089
O O8 0.147115 0.792173 0.108886
O O9 0.119275 0.705563 0.185878
O O10 0.113866 0.719332 0.000000
O O11 0.223946 0.178579 0.500000
O O12 0.242672 0.257329 0.390848
O O13 0.241295 0.159749 0.327284
O O14 0.846801 0.346801 0.324890
#
# Coordination Sequence:
#
# PCOD9572403 Si02
#       5
#    32  32  32  32  32
#     4   9  18  32  47  62  84 119 164 209 248 286
#     4  11  23  35  48  69  97 130 167 206 249 295
#     4  10  21  35  50  71 100 131 165 204 248 303
#     4   9  18  33  53  77 102 127 159 201 249 301
#     4  11  21  34  54  76 100 131 167 209 256 301
#
# _framework density 17.957090000000001
#
# number of rings (size 3 to 8) (size 9 to 14) (size 15 to 20)
#    0.000    2.000    0.000    4.800    0.000    8.800 
#    0.000    5.000    0.000    0.000    0.000    0.000 
#    0.000    0.800    0.000   11.400    0.000   16.400 
#
# Total GULP energy -446195.408507 kJ/mol
# GULP energy per Si atom -5577.442606 kJ/mol
# Density = 1.791622 g / cm^3
# Si number density = 17.957090 Si / 1000 Ang^3
#
#
#
# Elastic Constant Matrix: (Units=GPa)
#
#
# Indices 1 2 3 4 5 6 
#
# 1 72.1717 36.9471 32.2742 0.0000 0.0000 0.0000
# 2 36.9471 72.1717 32.2742 0.0000 0.0000 0.0000
# 3 32.2742 32.2742 108.1748 0.0000 0.0000 0.0000
# 4 0.0000 0.0000 0.0000 21.3479 0.0000 0.0000
# 5 0.0000 0.0000 0.0000 0.0000 21.3479 0.0000
# 6 0.0000 0.0000 0.0000 0.0000 0.0000 16.5342
#
#
#
# Elastic Compliance Matrix: (Units=1/GPa)
#
#
# Indices 1 2 3 4 5 6 
#
# 1 0.019759 -0.008630 -0.003320 0.000000 0.000000 0.000000
# 2 -0.008630 0.019759 -0.003320 0.000000 0.000000 0.000000
# 3 -0.003320 -0.003320 0.011225 0.000000 0.000000 0.000000
# 4 0.000000 0.000000 0.000000 0.046843 0.000000 0.000000
# 5 0.000000 0.000000 0.000000 0.000000 0.046843 0.000000
# 6 0.000000 0.000000 0.000000 0.000000 0.000000 0.060481
#
#
# Mechanical properties :
#
#
# Convention : Reuss Voigt Hill
#
# Bulk Modulus (GPa) = 49.50133 50.61213 50.05673
# Shear Modulus (GPa) = 20.64535 21.91417 21.27976
#
# Velocity S-wave (km/s) = 3.39441 3.49716 3.44617
# Velocity P-wave (km/s) = 6.55660 6.67481 6.61597
#
# Compressibility (1/GPa) = 0.02020148
#
# Stress axis : x y z
#
# Youngs Moduli (GPa) = 50.61032 50.61032 89.08323
#
# Poissons Ratio (x) = 0.43679 0.29577
# Poissons Ratio (y) = 0.43679 0.29577
# Poissons Ratio (z) = 0.16803 0.16803
#
# Static dielectric constant tensor:
#      x y z
#    x 1.612030 0.000000 0.000000 
#    y 0.000000 1.612030 0.000000 
#    z 0.000000 0.000000 1.673450 
# 
# From -- ./inp_files/4681.got.cif
#   From: 2010.05.17/outbox.cif.g08.bks.cpg/sg140_3_cif.got.tgz:4681.got - 2010.06.21 00:45:31.
