data_PCOD9572888
_publ_section_title
;
Structure prediction by ZEFSAII (Michael W. Deem and Ramdas Pophale) SiO2 
 PCOD9572888
Probable space group: I 41/A M D
;
_chemical_formula_sum "Si O2"
_cell_formula_units_Z 104
_cell_length_a 14.175743
_cell_length_b 14.175743
_cell_length_c 30.513337
_cell_angle_alpha 90.000000
_cell_angle_beta 90.000000
_cell_angle_gamma 90.000000
_cell_volume 6131.706626
_symmetry_space_group_name_H-M "I 41/A M D"
_symmetry_group_IT_number 141
_space_group.IT_coordinate_system_code '2'
_symmetry_cell_setting 'tetragonal'
loop_
_space_group_symop_operation_xyz
x,y,z
1/4-y,3/4+x,1/4+z
-x,1/2-y,z
1/4+y,1/4-x,3/4+z
x,-y,-z
-x,1/2+y,-z
1/4+y,3/4+x,1/4-z
1/4-y,1/4-x,3/4-z
-x,-y,-z
3/4+y,1/4-x,3/4-z
x,1/2+y,-z
3/4-y,3/4+x,1/4-z
-x,y,z
x,1/2-y,z
3/4-y,1/4-x,3/4+z
3/4+y,3/4+x,1/4+z
1/2+x,1/2+y,1/2+z
3/4-y,1/4+x,3/4+z
1/2-x,-y,1/2+z
3/4+y,3/4-x,1/4+z
1/2+x,1/2-y,1/2-z
1/2-x,y,1/2-z
3/4+y,1/4+x,3/4-z
3/4-y,3/4-x,1/4-z
1/2-x,1/2-y,1/2-z
1/4+y,3/4-x,1/4-z
1/2+x,y,1/2-z
1/4-y,1/4+x,3/4-z
1/2-x,1/2+y,1/2+z
1/2+x,-y,1/2+z
1/4-y,3/4-x,1/4+z
1/4+y,1/4+x,3/4+z
loop_
_atom_site_type_symbol
_atom_site_label
_atom_site_fract_x
_atom_site_fract_y
_atom_site_fract_z
Si Si1 0.208128 0.953918 0.416004
Si Si2 0.000000 0.250000 0.560049
Si Si3 0.699257 0.750000 0.704549
Si Si4 0.500000 0.634838 0.532504
Si Si5 0.161826 0.500000 0.000000
Si Si6 0.500000 0.436644 0.367229
O O1 0.097407 0.963074 0.428264
O O2 0.232410 0.847820 0.398827
O O3 0.229977 0.020024 0.375000
O O4 0.271955 0.979803 0.457985
O O5 0.000000 0.159138 0.531353
O O6 0.088472 0.250000 0.591566
O O7 0.750000 0.750000 0.750000
O O8 0.500000 0.750000 0.533327
O O9 0.407602 0.589042 0.509457
O O10 0.500000 0.589703 0.581531
#
# Coordination Sequence:
#
# PCOD9572888 Si02
#       6
#    32   8  16  16  16  16
#     4  11  22  39  61  90 123 158 201 247 297 354
#     4   8  18  32  54  82 109 150 193 234 278 344
#     4  10  20  38  60  89 117 155 199 241 292 353
#     4  11  23  40  61  87 118 156 204 251 302 357
#     4  11  24  39  58  92 122 155 198 253 302 362
#     4  10  19  35  60  83 115 157 201 236 291 355
#
# _framework density 16.961020000000001
#
# number of rings (size 3 to 8) (size 9 to 14) (size 15 to 20)
#    0.000    1.538    5.385    0.000    2.154    0.000 
#    0.000    1.538    0.000    0.000    0.000    0.000 
#    0.000    0.000    0.000    0.000    0.000    0.000 
#
# Total GULP energy -289552.228243 kJ/mol
# GULP energy per Si atom -5568.312082 kJ/mol
# Density = 1.692242 g / cm^3
# Si number density = 16.961020 Si / 1000 Ang^3
#
#
#
# Elastic Constant Matrix: (Units=GPa)
#
#
# Indices 1 2 3 4 5 6 
#
# 1 120.5962 54.9092 66.3780 0.0000 0.0000 0.0000
# 2 54.9092 120.5940 66.3777 0.0000 0.0000 0.0000
# 3 66.3780 66.3777 133.5994 0.0000 0.0000 0.0000
# 4 0.0000 0.0000 0.0000 51.6096 0.0000 0.0000
# 5 0.0000 0.0000 0.0000 0.0000 51.6111 0.0000
# 6 0.0000 0.0000 0.0000 0.0000 0.0000 20.6872
#
#
#
# Elastic Compliance Matrix: (Units=1/GPa)
#
#
# Indices 1 2 3 4 5 6 
#
# 1 0.012176 -0.003048 -0.004535 0.000000 0.000000 0.000000
# 2 -0.003048 0.012176 -0.004536 0.000000 0.000000 0.000000
# 3 -0.004535 -0.004536 0.011992 0.000000 0.000000 0.000000
# 4 0.000000 0.000000 0.000000 0.019376 0.000000 0.000000
# 5 0.000000 0.000000 0.000000 0.000000 0.019376 0.000000
# 6 0.000000 0.000000 0.000000 0.000000 0.000000 0.048339
#
#
# Mechanical properties :
#
#
# Convention : Reuss Voigt Hill
#
# Bulk Modulus (GPa) = 82.59548 83.34661 82.97104
# Shear Modulus (GPa) = 32.95794 37.25657 35.10725
#
# Velocity S-wave (km/s) = 4.41291 4.69187 4.55453
# Velocity P-wave (km/s) = 8.64685 8.86557 8.75689
#
# Compressibility (1/GPa) = 0.01210720
#
# Stress axis : x y z
#
# Youngs Moduli (GPa) = 82.12771 82.12595 83.38961
#
# Poissons Ratio (x) = 0.25029 0.37821
# Poissons Ratio (y) = 0.25030 0.37822
# Poissons Ratio (z) = 0.37249 0.37248
#
# Static dielectric constant tensor:
#      x y z
#    x 1.620040 0.000000 0.000000 
#    y 0.000000 1.620040 0.000000 
#    z 0.000000 0.000000 1.549040 
# 
# From -- ./inp_files/11208.got.cif
#   From: 2010.05.17/outbox.cif.g08.bks.cpg/sg141_6_cif.got.tgz:11208.got - 2010.05.20 13:30:51.
