data_PCOD9572612
_publ_section_title
;
Structure prediction by ZEFSAII (Michael W. Deem and Ramdas Pophale) SiO2 
 PCOD9572612
Probable space group: I 4/M C M
;
_chemical_formula_sum "Si O2"
_cell_formula_units_Z 240
_cell_length_a 27.244266
_cell_length_b 27.244266
_cell_length_c 21.877211
_cell_angle_alpha 90.000000
_cell_angle_beta 90.000000
_cell_angle_gamma 90.000000
_cell_volume 16238.360518
_symmetry_space_group_name_H-M "I 4/M C M"
_symmetry_group_IT_number 140
_symmetry_cell_setting 'tetragonal'
loop_
_space_group_symop_operation_xyz
x,y,z
-y,x,z
-x,-y,z
y,-x,z
x,-y,1/2-z
-x,y,1/2-z
y,x,1/2-z
-y,-x,1/2-z
-x,-y,-z
y,-x,-z
x,y,-z
-y,x,-z
-x,y,1/2+z
x,-y,1/2+z
-y,-x,1/2+z
y,x,1/2+z
1/2+x,1/2+y,1/2+z
1/2-y,1/2+x,1/2+z
1/2-x,1/2-y,1/2+z
1/2+y,1/2-x,1/2+z
1/2+x,1/2-y,-z
1/2-x,1/2+y,-z
1/2+y,1/2+x,-z
1/2-y,1/2-x,-z
1/2-x,1/2-y,1/2-z
1/2+y,1/2-x,1/2-z
1/2+x,1/2+y,1/2-z
1/2-y,1/2+x,1/2-z
1/2-x,1/2+y,z
1/2+x,1/2-y,z
1/2-y,1/2-x,z
1/2+y,1/2+x,z
loop_
_atom_site_type_symbol
_atom_site_label
_atom_site_fract_x
_atom_site_fract_y
_atom_site_fract_z
Si Si1 0.869262 0.164501 0.067921
Si Si2 0.080272 0.012593 0.500000
Si Si3 0.846840 0.948206 0.404570
Si Si4 0.289921 0.288515 0.845981
Si Si5 0.946504 0.134902 0.261317
Si Si6 0.547802 0.257565 0.291604
Si Si7 0.223167 0.967671 0.429516
Si Si8 0.270578 0.848919 0.241843
O O1 0.857555 0.107128 0.074843
O O2 0.833561 0.193641 0.112077
O O3 0.926109 0.180139 0.075326
O O4 0.855716 0.179664 0.000000
O O5 0.112004 0.020090 0.439285
O O6 0.039231 0.054296 0.500000
O O7 0.849162 0.947264 0.331756
O O8 0.797943 0.977121 0.424158
O O9 0.249125 0.250876 0.871912
O O10 0.317374 0.258742 0.792502
O O11 0.260488 0.335288 0.818762
O O12 0.902208 0.097793 0.250000
O O13 0.942969 0.183768 0.219757
O O14 0.000000 0.111573 0.250000
O O15 0.500000 0.246382 0.250000
O O16 0.541067 0.248449 0.364633
O O17 0.595251 0.230985 0.263237
O O18 0.243176 0.961881 0.500000
O O19 0.323842 0.823842 0.236044
#
# Coordination Sequence:
#
# PCOD9572612 Si02
#       8
#    32  16  32  32  32  32  32  32
#     4  11  21  32  50  66  87 124 154 199 245 286
#     4  11  24  36  48  58  75 112 156 202 239 292
#     4  12  21  35  48  61  85 112 152 194 242 296
#     4   9  18  31  49  71  93 121 156 192 234 283
#     4  11  24  34  47  64  84 113 149 201 252 288
#     4  11  20  34  51  77  94 120 158 197 235 280
#     4  11  21  34  47  67  93 119 157 200 247 294
#     4   9  18  33  52  71  96 125 152 192 240 286
#
# _framework density 14.779817
#
# number of rings (size 3 to 8) (size 9 to 14) (size 15 to 20)
#    0.000    1.400    5.333    3.200    3.733    0.400 
#    0.000    0.000    0.000    0.400    0.000    0.000 
#    0.000    0.267    0.000    0.000    0.000    0.000 
#
# Total GULP energy -668279.954108 kJ/mol
# GULP energy per Si atom -5568.999618 kJ/mol
# Density = 1.474618 g / cm^3
# Si number density = 14.779817 Si / 1000 Ang^3
#
#
#
# Elastic Constant Matrix: (Units=GPa)
#
#
# Indices 1 2 3 4 5 6 
#
# 1 43.5923 15.3819 12.5872 0.0000 0.0000 0.0000
# 2 15.3819 43.5918 12.5874 0.0000 0.0000 0.0000
# 3 12.5872 12.5874 87.6787 0.0000 0.0000 0.0000
# 4 0.0000 0.0000 0.0000 -23.2212 0.0000 0.0000
# 5 0.0000 0.0000 0.0000 0.0000 -23.2818 0.0000
# 6 0.0000 0.0000 0.0000 0.0000 0.0000 30.7697
#
#
#
# Elastic Compliance Matrix: (Units=1/GPa)
#
#
# Indices 1 2 3 4 5 6 
#
# 1 0.026756 -0.008692 -0.002593 0.000000 0.000000 0.000000
# 2 -0.008692 0.026756 -0.002593 0.000000 0.000000 0.000000
# 3 -0.002593 -0.002593 0.012150 0.000000 0.000000 0.000000
# 4 0.000000 0.000000 0.000000 -0.043064 0.000000 0.000000
# 5 0.000000 0.000000 0.000000 0.000000 -0.042952 0.000000
# 6 0.000000 0.000000 0.000000 0.000000 0.000000 0.032500
#
#
# Mechanical properties :
#
#
# Convention : Reuss Voigt Hill
#
# Bulk Modulus (GPa) = 26.38236 28.44177 27.41206
# Shear Modulus (GPa) = 95.16997 5.80708 50.48853
#
# Velocity S-wave (km/s) = 8.03316 1.98434 5.85104
# Velocity P-wave (km/s) = 10.19466 4.95334 8.01457
#
# Compressibility (1/GPa) = 0.03790412
#
# Stress axis : x y z
#
# Youngs Moduli (GPa) = 37.37508 37.37463 82.30549
#
# Poissons Ratio (x) = 0.32487 0.21343
# Poissons Ratio (y) = 0.32488 0.21344
# Poissons Ratio (z) = 0.09692 0.09692
#
# Static dielectric constant tensor:
#      x y z
#    x 1.490500 0.000000 0.000000 
#    y 0.000000 1.490500 0.000000 
#    z 0.000000 0.000000 1.590160 
# 
# From -- ./inp_files/8770.got.cif
#   From: 2010.05.17/outbox.cif.g08.bks.cpg/sg140_5_cif.got.tgz:8770.got - 2010.06.21 00:45:31.
