data_PCOD9572039
_publ_section_title
;
Structure prediction by ZEFSAII (Michael W. Deem and Ramdas Pophale) SiO2 
 PCOD9572039
Probable space group: I 4/M C M
;
_chemical_formula_sum "Si O2"
_cell_formula_units_Z 160
_cell_length_a 32.741318
_cell_length_b 32.741318
_cell_length_c 8.864849
_cell_angle_alpha 90.000000
_cell_angle_beta 90.000000
_cell_angle_gamma 90.000000
_cell_volume 9503.064091
_symmetry_space_group_name_H-M "I 4/M C M"
_symmetry_group_IT_number 140
_symmetry_cell_setting 'tetragonal'
loop_
_space_group_symop_operation_xyz
x,y,z
-y,x,z
-x,-y,z
y,-x,z
x,-y,1/2-z
-x,y,1/2-z
y,x,1/2-z
-y,-x,1/2-z
-x,-y,-z
y,-x,-z
x,y,-z
-y,x,-z
-x,y,1/2+z
x,-y,1/2+z
-y,-x,1/2+z
y,x,1/2+z
1/2+x,1/2+y,1/2+z
1/2-y,1/2+x,1/2+z
1/2-x,1/2-y,1/2+z
1/2+y,1/2-x,1/2+z
1/2+x,1/2-y,-z
1/2-x,1/2+y,-z
1/2+y,1/2+x,-z
1/2-y,1/2-x,-z
1/2-x,1/2-y,1/2-z
1/2+y,1/2-x,1/2-z
1/2+x,1/2+y,1/2-z
1/2-y,1/2+x,1/2-z
1/2-x,1/2+y,z
1/2+x,1/2-y,z
1/2-y,1/2-x,z
1/2+y,1/2+x,z
loop_
_atom_site_type_symbol
_atom_site_label
_atom_site_fract_x
_atom_site_fract_y
_atom_site_fract_z
Si Si1 0.115090 0.264139 0.181317
Si Si2 0.174991 0.674991 0.820705
Si Si3 0.044613 0.107204 0.320109
Si Si4 0.111458 0.611458 0.318562
Si Si5 0.671272 0.044304 0.820173
Si Si6 0.887853 0.174950 0.180404
O O1 0.156316 0.284012 0.249117
O O2 0.076778 0.293461 0.224621
O O3 0.108762 0.219156 0.245460
O O4 0.117665 0.264077 0.000000
O O5 0.141320 0.641320 0.772298
O O6 0.178414 0.678414 0.000000
O O7 0.069180 0.069180 0.250000
O O8 0.042013 0.102330 0.500000
O O9 0.072252 0.147163 0.288297
O O10 0.000000 0.110831 0.250000
O O11 0.118161 0.618161 0.500000
O O12 0.066300 0.627856 0.284586
O O13 0.675776 0.000000 0.750000
O O14 0.673733 0.040204 0.000000
O O15 0.849919 0.150082 0.250000
O O16 0.883236 0.178290 0.000000
#
# Coordination Sequence:
#
# PCOD9572039 Si02
#       6
#    32  16  32  16  32  32
#     4  10  20  35  53  74 104 139 170 208 256 304
#     4  10  18  30  51  77 101 129 170 215 254 299
#     4  10  21  37  57  80 107 137 173 214 258 307
#     4   8  16  32  48  66  98 138 169 203 256 309
#     4   9  18  31  49  73 101 131 167 209 254 301
#     4  10  21  37  56  78 104 137 173 209 251 304
#
# _framework density 16.836675
#
# number of rings (size 3 to 8) (size 9 to 14) (size 15 to 20)
#    0.000    2.400    0.000    3.900    0.000    7.400 
#    0.000    5.500    0.000    0.300    0.000    2.100 
#    0.000    0.000    0.000    0.000    0.000    0.000 
#
# Total GULP energy -446023.477125 kJ/mol
# GULP energy per Si atom -5575.293464 kJ/mol
# Density = 1.679835 g / cm^3
# Si number density = 16.836675 Si / 1000 Ang^3
#
#
#
# Elastic Constant Matrix: (Units=GPa)
#
#
# Indices 1 2 3 4 5 6 
#
# 1 81.5373 122.9340 55.8644 0.0000 0.0000 0.0000
# 2 122.9340 81.5123 55.8490 0.0000 0.0000 0.0000
# 3 55.8644 55.8490 67.7439 0.0000 0.0000 0.0000
# 4 0.0000 0.0000 0.0000 31.8415 0.0000 0.0000
# 5 0.0000 0.0000 0.0000 0.0000 31.8416 0.0000
# 6 0.0000 0.0000 0.0000 0.0000 0.0000 9.0646
#
#
#
# Elastic Compliance Matrix: (Units=1/GPa)
#
#
# Indices 1 2 3 4 5 6 
#
# 1 -0.007624 0.016525 -0.007336 0.000000 0.000000 0.000000
# 2 0.016525 -0.007624 -0.007342 0.000000 0.000000 0.000000
# 3 -0.007336 -0.007342 0.026864 0.000000 0.000000 0.000000
# 4 0.000000 0.000000 0.000000 0.031406 0.000000 0.000000
# 5 0.000000 0.000000 0.000000 0.000000 0.031405 0.000000
# 6 0.000000 0.000000 0.000000 0.000000 0.000000 0.110320
#
#
# Mechanical properties :
#
#
# Convention : Reuss Voigt Hill
#
# Bulk Modulus (GPa) = 65.31848 77.78758 71.55303
# Shear Modulus (GPa) = 26.85924 14.29261 20.57593
#
# Velocity S-wave (km/s) = 3.99843 2.91675 3.49963
# Velocity P-wave (km/s) = 7.75862 7.59242 7.67597
#
# Compressibility (1/GPa) = 0.01530960
#
# Stress axis : x y z
#
# Youngs Moduli (GPa) = -131.16136 -131.16282 37.22467
#
# Poissons Ratio (x) = 2.16747 0.27309
# Poissons Ratio (y) = 2.16745 0.27330
# Poissons Ratio (z) = -0.96223 -0.96297
#
# Static dielectric constant tensor:
#      x y z
#    x 1.563940 0.000000 0.000000 
#    y 0.000000 1.563940 0.000000 
#    z 0.000000 0.000000 1.559840 
# 
# From -- ./inp_files/1832.got.cif
#   From: 2010.05.17/outbox.cif.g08.bks.cpg/sg140_1_cif.got.tgz:1832.got - 2010.06.21 00:45:31.
