data_PCOD9572673
_publ_section_title
;
Structure prediction by ZEFSAII (Michael W. Deem and Ramdas Pophale) SiO2 
 PCOD9572673
Probable space group: I 4/M C M
;
_chemical_formula_sum "Si O2"
_cell_formula_units_Z 96
_cell_length_a 14.253552
_cell_length_b 14.253552
_cell_length_c 21.946309
_cell_angle_alpha 90.000000
_cell_angle_beta 90.000000
_cell_angle_gamma 90.000000
_cell_volume 4458.694317
_symmetry_space_group_name_H-M "I 4/M C M"
_symmetry_group_IT_number 140
_symmetry_cell_setting 'tetragonal'
loop_
_space_group_symop_operation_xyz
x,y,z
-y,x,z
-x,-y,z
y,-x,z
x,-y,1/2-z
-x,y,1/2-z
y,x,1/2-z
-y,-x,1/2-z
-x,-y,-z
y,-x,-z
x,y,-z
-y,x,-z
-x,y,1/2+z
x,-y,1/2+z
-y,-x,1/2+z
y,x,1/2+z
1/2+x,1/2+y,1/2+z
1/2-y,1/2+x,1/2+z
1/2-x,1/2-y,1/2+z
1/2+y,1/2-x,1/2+z
1/2+x,1/2-y,-z
1/2-x,1/2+y,-z
1/2+y,1/2+x,-z
1/2-y,1/2-x,-z
1/2-x,1/2-y,1/2-z
1/2+y,1/2-x,1/2-z
1/2+x,1/2+y,1/2-z
1/2-y,1/2+x,1/2-z
1/2-x,1/2+y,z
1/2+x,1/2-y,z
1/2-y,1/2-x,z
1/2+y,1/2+x,z
loop_
_atom_site_type_symbol
_atom_site_label
_atom_site_fract_x
_atom_site_fract_y
_atom_site_fract_z
Si Si1 0.136597 0.136597 0.750000
Si Si2 0.428792 0.928792 0.642886
Si Si3 0.709190 0.790811 0.072341
Si Si4 0.393098 0.603687 0.888728
Si Si5 0.000000 0.303589 0.250000
O O1 0.097766 0.104785 0.684772
O O2 0.094834 0.241393 0.753451
O O3 0.364396 0.864396 0.601089
O O4 0.363434 0.987709 0.689191
O O5 0.500000 0.000000 0.610682
O O6 0.676441 0.687775 0.093954
O O7 0.706061 0.793940 0.000000
O O8 0.370658 0.497723 0.910536
#
# Coordination Sequence:
#
# PCOD9572673 Si02
#       5
#    16  16  16  32  16
#     4  12  20  38  66 108 142 166 216 292 354 424
#     4  12  24  47  66  96 141 189 226 288 361 431
#     4  12  28  49  68 101 142 192 251 289 338 430
#     4  11  23  44  73 105 141 182 231 294 363 422
#     4  12  23  37  68 104 140 172 218 281 371 420
#
# _framework density 21.530967
#
# number of rings (size 3 to 8) (size 9 to 14) (size 15 to 20)
#    0.000    0.333    8.333    0.000    0.000    6.000 
#    9.000    1.667    0.000    0.000    0.000    0.000 
#    0.000    0.000    0.000    0.000    0.000    0.000 
#
# Total GULP energy -267896.666785 kJ/mol
# GULP energy per Si atom -5581.180558 kJ/mol
# Density = 2.148196 g / cm^3
# Si number density = 21.530967 Si / 1000 Ang^3
#
#
#
# Elastic Constant Matrix: (Units=GPa)
#
#
# Indices 1 2 3 4 5 6 
#
# 1 132.8048 74.5457 21.5368 0.0000 0.0000 0.0000
# 2 74.5457 132.8055 21.5375 0.0000 0.0000 0.0000
# 3 21.5368 21.5375 85.7625 0.0000 0.0000 0.0000
# 4 0.0000 0.0000 0.0000 -5.2488 0.0000 0.0000
# 5 0.0000 0.0000 0.0000 0.0000 -5.2491 0.0000
# 6 0.0000 0.0000 0.0000 0.0000 0.0000 65.9312
#
#
#
# Elastic Compliance Matrix: (Units=1/GPa)
#
#
# Indices 1 2 3 4 5 6 
#
# 1 0.011126 -0.006038 -0.001278 0.000000 0.000000 0.000000
# 2 -0.006038 0.011126 -0.001278 0.000000 0.000000 0.000000
# 3 -0.001278 -0.001278 0.012302 0.000000 0.000000 0.000000
# 4 0.000000 0.000000 0.000000 -0.190518 0.000000 0.000000
# 5 0.000000 0.000000 0.000000 0.000000 -0.190510 0.000000
# 6 0.000000 0.000000 0.000000 0.000000 0.000000 0.015167
#
#
# Mechanical properties :
#
#
# Convention : Reuss Voigt Hill
#
# Bulk Modulus (GPa) = 57.57998 65.17921 61.37959
# Shear Modulus (GPa) = -16.21644 26.67017 5.22687
#
# Velocity S-wave (km/s) = -2.74737 3.52332 1.55977
# Velocity P-wave (km/s) = 4.09107 6.84761 5.64033
#
# Compressibility (1/GPa) = 0.01736715
#
# Stress axis : x y z
#
# Youngs Moduli (GPa) = 89.87628 89.87655 81.28840
#
# Poissons Ratio (x) = 0.54269 0.10386
# Poissons Ratio (y) = 0.54269 0.10387
# Poissons Ratio (z) = 0.11484 0.11485
#
# Static dielectric constant tensor:
#      x y z
#    x 1.831820 0.000000 0.000000 
#    y 0.000000 1.831820 0.000000 
#    z 0.000000 0.000000 1.729510 
# 
# From -- ./inp_files/7746.got.cif
#   From: 2010.05.17/outbox.cif.g08.bks.cpg/sg140_4_cif.got.tgz:7746.got - 2010.06.21 00:45:31.
