data_PCOD9572284
_publ_section_title
;
Structure prediction by ZEFSAII (Michael W. Deem and Ramdas Pophale) SiO2 
 PCOD9572284
Probable space group: I 4/M C M
;
_chemical_formula_sum "Si O2"
_cell_formula_units_Z 240
_cell_length_a 20.884258
_cell_length_b 20.884258
_cell_length_c 30.100255
_cell_angle_alpha 90.000000
_cell_angle_beta 90.000000
_cell_angle_gamma 90.000000
_cell_volume 13128.293408
_symmetry_space_group_name_H-M "I 4/M C M"
_symmetry_group_IT_number 140
_symmetry_cell_setting 'tetragonal'
loop_
_space_group_symop_operation_xyz
x,y,z
-y,x,z
-x,-y,z
y,-x,z
x,-y,1/2-z
-x,y,1/2-z
y,x,1/2-z
-y,-x,1/2-z
-x,-y,-z
y,-x,-z
x,y,-z
-y,x,-z
-x,y,1/2+z
x,-y,1/2+z
-y,-x,1/2+z
y,x,1/2+z
1/2+x,1/2+y,1/2+z
1/2-y,1/2+x,1/2+z
1/2-x,1/2-y,1/2+z
1/2+y,1/2-x,1/2+z
1/2+x,1/2-y,-z
1/2-x,1/2+y,-z
1/2+y,1/2+x,-z
1/2-y,1/2-x,-z
1/2-x,1/2-y,1/2-z
1/2+y,1/2-x,1/2-z
1/2+x,1/2+y,1/2-z
1/2-y,1/2+x,1/2-z
1/2-x,1/2+y,z
1/2+x,1/2-y,z
1/2-y,1/2-x,z
1/2+y,1/2+x,z
loop_
_atom_site_type_symbol
_atom_site_label
_atom_site_fract_x
_atom_site_fract_y
_atom_site_fract_z
Si Si1 0.897738 0.704936 0.357971
Si Si2 0.000000 0.891521 0.250000
Si Si3 0.093245 0.832596 0.630313
Si Si4 0.339106 0.265603 0.285910
Si Si5 0.570008 0.834419 0.763729
Si Si6 0.813307 0.793306 0.051420
Si Si7 0.337852 0.545770 0.157596
Si Si8 0.795357 0.402733 0.047214
O O1 0.826626 0.673375 0.362974
O O2 0.927574 0.668755 0.316715
O O3 0.904886 0.778445 0.344082
O O4 0.934135 0.697986 0.404740
O O5 0.014396 0.850340 0.205971
O O6 0.938722 0.938722 0.250000
O O7 0.123520 0.794214 0.672240
O O8 0.131483 0.808386 0.586861
O O9 0.105380 0.908396 0.640408
O O10 0.016766 0.823849 0.627950
O O11 0.318713 0.318713 0.250000
O O12 0.275149 0.224852 0.298773
O O13 0.383521 0.217337 0.258296
O O14 0.500000 0.819666 0.750000
O O15 0.597131 0.902870 0.748964
O O16 0.768732 0.731269 0.062126
O O17 0.764853 0.854284 0.051917
O O18 0.835105 0.786508 0.000000
O O19 0.857180 0.357180 0.043950
O O20 0.789102 0.438001 0.000000
#
# Coordination Sequence:
#
# PCOD9572284 Si02
#       8
#    32  16  32  32  32  32  32  32
#     4  10  20  34  55  83 113 144 179 234 304 360
#     4  11  24  42  56  74 108 160 217 260 270 316
#     4  12  24  37  54  81 111 151 198 241 284 338
#     4  10  22  35  51  78 109 141 177 228 294 349
#     4  10  21  36  53  76 110 149 187 227 273 336
#     4   9  18  36  62  86 111 145 186 239 302 361
#     4  12  25  36  57  79 111 157 200 245 290 332
#     4   8  14  27  51  81 107 134 171 217 281 352
#
# _framework density 18.281127000000001
#
# number of rings (size 3 to 8) (size 9 to 14) (size 15 to 20)
#    0.000    1.800    2.667    2.800    4.667    2.000 
#    0.000    1.333    0.000    0.400    0.000    0.933 
#    0.000    0.533    0.000    6.667    0.000    0.000 
#
# Total GULP energy -668554.710151 kJ/mol
# GULP energy per Si atom -5571.289251 kJ/mol
# Density = 1.823952 g / cm^3
# Si number density = 18.281127 Si / 1000 Ang^3
#
#
#
# Elastic Constant Matrix: (Units=GPa)
#
#
# Indices 1 2 3 4 5 6 
#
# 1 72.0711 17.3487 31.5122 0.0000 0.0000 0.0000
# 2 17.3487 72.0711 31.5122 0.0000 0.0000 0.0000
# 3 31.5122 31.5122 138.1888 0.0000 0.0000 0.0000
# 4 0.0000 0.0000 0.0000 82.1547 0.0000 0.0000
# 5 0.0000 0.0000 0.0000 0.0000 82.1547 0.0000
# 6 0.0000 0.0000 0.0000 0.0000 0.0000 16.7209
#
#
#
# Elastic Compliance Matrix: (Units=1/GPa)
#
#
# Indices 1 2 3 4 5 6 
#
# 1 0.015799 -0.002475 -0.003039 0.000000 0.000000 0.000000
# 2 -0.002475 0.015799 -0.003039 0.000000 0.000000 0.000000
# 3 -0.003039 -0.003039 0.008622 0.000000 0.000000 0.000000
# 4 0.000000 0.000000 0.000000 0.012172 0.000000 0.000000
# 5 0.000000 0.000000 0.000000 0.000000 0.012172 0.000000
# 6 0.000000 0.000000 0.000000 0.000000 0.000000 0.059806
#
#
# Mechanical properties :
#
#
# Convention : Reuss Voigt Hill
#
# Bulk Modulus (GPa) = 43.25684 49.23077 46.24381
# Shear Modulus (GPa) = 33.51647 49.66989 41.59318
#
# Velocity S-wave (km/s) = 4.28646 5.21814 4.77508
# Velocity P-wave (km/s) = 6.94346 7.95573 7.46677
#
# Compressibility (1/GPa) = 0.02311773
#
# Stress axis : x y z
#
# Youngs Moduli (GPa) = 63.29336 63.29336 115.97848
#
# Poissons Ratio (x) = 0.15663 0.35241
# Poissons Ratio (y) = 0.15663 0.35241
# Poissons Ratio (z) = 0.19232 0.19232
#
# Static dielectric constant tensor:
#      x y z
#    x 1.656570 0.000000 0.000000 
#    y 0.000000 1.656570 0.000000 
#    z 0.000000 0.000000 1.747620 
# 
# From -- ./inp_files/11788.got.cif
#   From: 2010.05.17/outbox.cif.g08.bks.cpg/sg140_6_cif.got.tgz:11788.got - 2010.06.21 00:45:31.
