data_PCOD9572140
_publ_section_title
;
Structure prediction by ZEFSAII (Michael W. Deem and Ramdas Pophale) SiO2 
 PCOD9572140
Probable space group: I 4/M C M
;
_chemical_formula_sum "Si O2"
_cell_formula_units_Z 144
_cell_length_a 23.156586
_cell_length_b 23.156586
_cell_length_c 17.685239
_cell_angle_alpha 90.000000
_cell_angle_beta 90.000000
_cell_angle_gamma 90.000000
_cell_volume 9483.311057
_symmetry_space_group_name_H-M "I 4/M C M"
_symmetry_group_IT_number 140
_symmetry_cell_setting 'tetragonal'
loop_
_space_group_symop_operation_xyz
x,y,z
-y,x,z
-x,-y,z
y,-x,z
x,-y,1/2-z
-x,y,1/2-z
y,x,1/2-z
-y,-x,1/2-z
-x,-y,-z
y,-x,-z
x,y,-z
-y,x,-z
-x,y,1/2+z
x,-y,1/2+z
-y,-x,1/2+z
y,x,1/2+z
1/2+x,1/2+y,1/2+z
1/2-y,1/2+x,1/2+z
1/2-x,1/2-y,1/2+z
1/2+y,1/2-x,1/2+z
1/2+x,1/2-y,-z
1/2-x,1/2+y,-z
1/2+y,1/2+x,-z
1/2-y,1/2-x,-z
1/2-x,1/2-y,1/2-z
1/2+y,1/2-x,1/2-z
1/2+x,1/2+y,1/2-z
1/2-y,1/2+x,1/2-z
1/2-x,1/2+y,z
1/2+x,1/2-y,z
1/2-y,1/2-x,z
1/2+y,1/2+x,z
loop_
_atom_site_type_symbol
_atom_site_label
_atom_site_fract_x
_atom_site_fract_y
_atom_site_fract_z
Si Si1 0.279832 0.878025 0.588823
Si Si2 0.293464 0.305644 0.163607
Si Si3 0.048920 0.548920 0.088220
Si Si4 0.389896 0.206909 0.590232
Si Si5 0.169539 0.510622 0.160700
O O1 0.278130 0.892390 0.500000
O O2 0.333239 0.833239 0.600335
O O3 0.222435 0.844297 0.614316
O O4 0.291583 0.934432 0.638316
O O5 0.313007 0.313007 0.250000
O O6 0.242938 0.257063 0.163656
O O7 0.263116 0.361668 0.128776
O O8 0.106261 0.525814 0.128414
O O9 0.000000 0.500000 0.090745
O O10 0.061922 0.561922 0.000000
O O11 0.390684 0.214206 0.500000
O O12 0.347250 0.152751 0.607132
O O13 0.452884 0.192608 0.621078
O O14 0.167220 0.500000 0.250000
#
# Coordination Sequence:
#
# PCOD9572140 Si02
#       5
#    32  32  16  32  32
#     4  10  19  33  51  70  94 127 166 205 251 302
#     4   9  17  30  50  72  96 119 156 203 253 300
#     4  11  24  38  50  64  91 132 174 212 250 293
#     4  10  20  34  50  69  96 130 165 202 252 304
#     4  12  24  33  50  70  98 128 171 213 253 288
#
# _framework density 15.184570000000001
#
# number of rings (size 3 to 8) (size 9 to 14) (size 15 to 20)
#    0.000    1.667    1.111    4.667    3.111    6.222 
#    0.000    0.000    0.000    0.000    0.000    0.000 
#    0.000    0.889    0.000    8.889    0.000    5.333 
#
# Total GULP energy -402032.457327 kJ/mol
# GULP energy per Si atom -5583.784130 kJ/mol
# Density = 1.515001 g / cm^3
# Si number density = 15.184570 Si / 1000 Ang^3
#
#
#
# Elastic Constant Matrix: (Units=GPa)
#
#
# Indices 1 2 3 4 5 6 
#
# 1 82.8249 65.9069 51.2739 0.0000 0.0000 0.0000
# 2 65.9069 82.8249 51.2739 0.0000 0.0000 0.0000
# 3 51.2739 51.2739 101.7933 0.0000 0.0000 0.0000
# 4 0.0000 0.0000 0.0000 26.2815 0.0000 0.0000
# 5 0.0000 0.0000 0.0000 0.0000 26.2815 0.0000
# 6 0.0000 0.0000 0.0000 0.0000 0.0000 29.1708
#
#
#
# Elastic Compliance Matrix: (Units=1/GPa)
#
#
# Indices 1 2 3 4 5 6 
#
# 1 0.034705 -0.024404 -0.005189 0.000000 0.000000 0.000000
# 2 -0.024404 0.034705 -0.005189 0.000000 0.000000 0.000000
# 3 -0.005189 -0.005189 0.015051 0.000000 0.000000 0.000000
# 4 0.000000 0.000000 0.000000 0.038050 0.000000 0.000000
# 5 0.000000 0.000000 0.000000 0.000000 0.038050 0.000000
# 6 0.000000 0.000000 0.000000 0.000000 0.000000 0.034281
#
#
# Mechanical properties :
#
#
# Convention : Reuss Voigt Hill
#
# Bulk Modulus (GPa) = 67.12191 67.15028 67.13610
# Shear Modulus (GPa) = 18.56188 22.94597 20.75393
#
# Velocity S-wave (km/s) = 3.50010 3.89155 3.70101
# Velocity P-wave (km/s) = 7.78680 8.03187 7.91029
#
# Compressibility (1/GPa) = 0.01489826
#
# Stress axis : x y z
#
# Youngs Moduli (GPa) = 28.81441 28.81441 66.44091
#
# Poissons Ratio (x) = 0.70318 0.34474
# Poissons Ratio (y) = 0.70318 0.34474
# Poissons Ratio (z) = 0.14951 0.14951
#
# Static dielectric constant tensor:
#      x y z
#    x 1.486370 0.000000 0.000000 
#    y 0.000000 1.486370 0.000000 
#    z 0.000000 0.000000 1.499470 
# 
# From -- ./inp_files/6636.got.cif
#   From: 2010.05.17/outbox.cif.g08.bks.cpg/sg140_4_cif.got.tgz:6636.got - 2010.06.21 00:45:31.
