data_PCOD9572494
_publ_section_title
;
Structure prediction by ZEFSAII (Michael W. Deem and Ramdas Pophale) SiO2 
 PCOD9572494
Probable space group: I 4/M C M
;
_chemical_formula_sum "Si O2"
_cell_formula_units_Z 192
_cell_length_a 17.886926
_cell_length_b 17.886926
_cell_length_c 28.742510
_cell_angle_alpha 90.000000
_cell_angle_beta 90.000000
_cell_angle_gamma 90.000000
_cell_volume 9195.939633
_symmetry_space_group_name_H-M "I 4/M C M"
_symmetry_group_IT_number 140
_symmetry_cell_setting 'tetragonal'
loop_
_space_group_symop_operation_xyz
x,y,z
-y,x,z
-x,-y,z
y,-x,z
x,-y,1/2-z
-x,y,1/2-z
y,x,1/2-z
-y,-x,1/2-z
-x,-y,-z
y,-x,-z
x,y,-z
-y,x,-z
-x,y,1/2+z
x,-y,1/2+z
-y,-x,1/2+z
y,x,1/2+z
1/2+x,1/2+y,1/2+z
1/2-y,1/2+x,1/2+z
1/2-x,1/2-y,1/2+z
1/2+y,1/2-x,1/2+z
1/2+x,1/2-y,-z
1/2-x,1/2+y,-z
1/2+y,1/2+x,-z
1/2-y,1/2-x,-z
1/2-x,1/2-y,1/2-z
1/2+y,1/2-x,1/2-z
1/2+x,1/2+y,1/2-z
1/2-y,1/2+x,1/2-z
1/2-x,1/2+y,z
1/2+x,1/2-y,z
1/2-y,1/2-x,z
1/2+y,1/2+x,z
loop_
_atom_site_type_symbol
_atom_site_label
_atom_site_fract_x
_atom_site_fract_y
_atom_site_fract_z
Si Si1 0.882230 0.987523 0.682112
Si Si2 0.114321 0.500000 0.250000
Si Si3 0.519050 0.789546 0.074453
Si Si4 0.878816 0.990136 0.431008
Si Si5 0.225679 0.446172 0.825785
Si Si6 0.889188 0.389188 0.450062
Si Si7 0.203988 0.703988 0.375467
Si Si8 0.804901 0.304901 0.055108
O O1 0.799740 0.975846 0.698102
O O2 0.936273 0.920860 0.696276
O O3 0.879704 0.988253 0.625416
O O4 0.060744 0.560744 0.225985
O O5 0.161120 0.457046 0.211240
O O6 0.488453 0.708618 0.055950
O O7 0.497789 0.790021 0.129092
O O8 0.474552 0.861503 0.054726
O O9 0.606906 0.790944 0.064300
O O10 0.921475 0.066958 0.445322
O O11 0.240705 0.361502 0.844025
O O12 0.862586 0.362586 0.500000
O O13 0.844386 0.344386 0.411514
O O14 0.257012 0.757012 0.406677
O O15 0.788569 0.288569 0.000000
#
# Coordination Sequence:
#
# PCOD9572494 Si02
#       8
#    32  16  32  32  32  16  16  16
#     4   8  15  29  57  90 123 162 207 255 317 400
#     4  11  24  44  68  93 136 174 232 301 346 410
#     4  10  23  37  66  92 128 175 225 273 341 429
#     4   8  15  30  55  89 119 157 213 264 322 398
#     4  10  21  40  65  97 127 173 223 279 347 411
#     4  10  21  41  62  88 123 168 220 282 338 397
#     4  10  23  40  64  95 128 171 220 274 343 418
#     4  12  27  43  63  98 136 175 227 290 345 418
#
# _framework density 20.878779999999999
#
# number of rings (size 3 to 8) (size 9 to 14) (size 15 to 20)
#    0.000    2.417    0.833    1.750   12.833    0.333 
#    0.000    1.667    0.000    3.000    0.000    4.667 
#    0.000    0.000    0.000    0.000    0.000    0.000 
#
# Total GULP energy -535156.783389 kJ/mol
# GULP energy per Si atom -5574.549827 kJ/mol
# Density = 2.083126 g / cm^3
# Si number density = 20.878780 Si / 1000 Ang^3
#
#
#
# Elastic Constant Matrix: (Units=GPa)
#
#
# Indices 1 2 3 4 5 6 
#
# 1 114.3733 52.1852 38.0542 0.0000 0.0000 0.0000
# 2 52.1852 114.3733 38.0542 0.0000 0.0000 0.0000
# 3 38.0542 38.0542 90.4366 0.0000 0.0000 0.0000
# 4 0.0000 0.0000 0.0000 49.5924 0.0000 0.0000
# 5 0.0000 0.0000 0.0000 0.0000 49.5924 0.0000
# 6 0.0000 0.0000 0.0000 0.0000 0.0000 -49.0818
#
#
#
# Elastic Compliance Matrix: (Units=1/GPa)
#
#
# Indices 1 2 3 4 5 6 
#
# 1 0.011757 -0.004324 -0.003128 0.000000 0.000000 0.000000
# 2 -0.004324 0.011757 -0.003128 0.000000 0.000000 0.000000
# 3 -0.003128 -0.003128 0.013690 0.000000 0.000000 0.000000
# 4 0.000000 0.000000 0.000000 0.020164 0.000000 0.000000
# 5 0.000000 0.000000 0.000000 0.000000 0.020164 0.000000
# 6 0.000000 0.000000 0.000000 0.000000 0.000000 -0.020374
#
#
# Mechanical properties :
#
#
# Convention : Reuss Voigt Hill
#
# Bulk Modulus (GPa) = 62.32485 63.97449 63.14967
# Shear Modulus (GPa) = 59.76288 22.74658 41.25473
#
# Velocity S-wave (km/s) = 5.35592 3.30428 4.44995
# Velocity P-wave (km/s) = 8.25612 6.72793 7.53089
#
# Compressibility (1/GPa) = 0.01604496
#
# Stress axis : x y z
#
# Youngs Moduli (GPa) = 85.05804 85.05804 73.04786
#
# Poissons Ratio (x) = 0.36776 0.22847
# Poissons Ratio (y) = 0.36776 0.22847
# Poissons Ratio (z) = 0.26604 0.26604
#
# Static dielectric constant tensor:
#      x y z
#    x 1.754570 0.000000 0.000000 
#    y 0.000000 1.754570 0.000000 
#    z 0.000000 0.000000 1.822190 
# 
# From -- ./inp_files/11685.got.cif
#   From: 2010.05.17/outbox.cif.g08.bks.cpg/sg140_6_cif.got.tgz:11685.got - 2010.06.21 00:45:31.
