data_PCOD9572471
_publ_section_title
;
Structure prediction by ZEFSAII (Michael W. Deem and Ramdas Pophale) SiO2 
 PCOD9572471
Probable space group: I 4/M C M
;
_chemical_formula_sum "Si O2"
_cell_formula_units_Z 240
_cell_length_a 20.819004
_cell_length_b 20.819004
_cell_length_c 27.318112
_cell_angle_alpha 90.000000
_cell_angle_beta 90.000000
_cell_angle_gamma 90.000000
_cell_volume 11840.514623
_symmetry_space_group_name_H-M "I 4/M C M"
_symmetry_group_IT_number 140
_symmetry_cell_setting 'tetragonal'
loop_
_space_group_symop_operation_xyz
x,y,z
-y,x,z
-x,-y,z
y,-x,z
x,-y,1/2-z
-x,y,1/2-z
y,x,1/2-z
-y,-x,1/2-z
-x,-y,-z
y,-x,-z
x,y,-z
-y,x,-z
-x,y,1/2+z
x,-y,1/2+z
-y,-x,1/2+z
y,x,1/2+z
1/2+x,1/2+y,1/2+z
1/2-y,1/2+x,1/2+z
1/2-x,1/2-y,1/2+z
1/2+y,1/2-x,1/2+z
1/2+x,1/2-y,-z
1/2-x,1/2+y,-z
1/2+y,1/2+x,-z
1/2-y,1/2-x,-z
1/2-x,1/2-y,1/2-z
1/2+y,1/2-x,1/2-z
1/2+x,1/2+y,1/2-z
1/2-y,1/2+x,1/2-z
1/2-x,1/2+y,z
1/2+x,1/2-y,z
1/2-y,1/2-x,z
1/2+y,1/2+x,z
loop_
_atom_site_type_symbol
_atom_site_label
_atom_site_fract_x
_atom_site_fract_y
_atom_site_fract_z
Si Si1 0.977658 0.106116 0.642928
Si Si2 0.551396 0.948605 0.059557
Si Si3 0.824348 0.569223 0.266991
Si Si4 0.593012 0.686688 0.281424
Si Si5 0.183780 0.211784 0.870814
Si Si6 0.921966 0.193188 0.442349
Si Si7 0.512162 0.804468 0.942792
Si Si8 0.711327 0.110188 0.371186
O O1 0.965008 0.148383 0.691847
O O2 0.963145 0.147652 0.594039
O O3 0.047831 0.074206 0.643370
O O4 0.525357 0.877773 0.073623
O O5 0.500000 0.000000 0.077224
O O6 0.551393 0.948608 0.000000
O O7 0.849336 0.500000 0.250000
O O8 0.871767 0.628234 0.252693
O O9 0.751313 0.576160 0.247642
O O10 0.817719 0.572624 0.325570
O O11 0.637592 0.637592 0.250000
O O12 0.631947 0.713435 0.328270
O O13 0.222962 0.277039 0.876314
O O14 0.149655 0.191123 0.920928
O O15 0.233370 0.157305 0.853904
O O16 0.927523 0.177207 0.500000
O O17 0.945540 0.267359 0.435813
O O18 0.562782 0.763884 0.911981
O O19 0.526451 0.802338 0.000000
O O20 0.656819 0.156819 0.392951
#
# Coordination Sequence:
#
# PCOD9572471 Si02
#       8
#    32  16  32  32  32  32  32  32
#     4  10  25  45  65  95 131 166 214 268 325 398
#     4   9  18  36  62  90 122 161 202 262 336 384
#     4  11  26  43  67  97 133 176 220 268 323 392
#     4  11  23  39  69  96 128 163 214 271 338 387
#     4  10  22  39  61  90 126 163 208 267 323 378
#     4  10  24  39  60  92 128 172 217 262 318 386
#     4  10  21  38  60  90 124 160 213 267 315 381
#     4  10  21  39  63  90 120 160 211 260 312 382
#
# _framework density 20.269389
#
# number of rings (size 3 to 8) (size 9 to 14) (size 15 to 20)
#    0.000    1.800    2.000    0.400    9.333    2.533 
#    0.000    4.667    0.000    0.000    0.000    0.000 
#    0.000    0.000    0.000    0.000    0.000    0.000 
#
# Total GULP energy -669184.661426 kJ/mol
# GULP energy per Si atom -5576.538845 kJ/mol
# Density = 2.022326 g / cm^3
# Si number density = 20.269389 Si / 1000 Ang^3
#
#
#
# Elastic Constant Matrix: (Units=GPa)
#
#
# Indices 1 2 3 4 5 6 
#
# 1 72.0474 36.9275 30.5758 0.0000 0.0000 0.0000
# 2 36.9275 72.0472 30.5759 0.0000 0.0000 0.0000
# 3 30.5758 30.5759 70.5693 0.0000 0.0000 0.0000
# 4 0.0000 0.0000 0.0000 25.7835 0.0000 0.0000
# 5 0.0000 0.0000 0.0000 0.0000 25.7835 0.0000
# 6 0.0000 0.0000 0.0000 0.0000 0.0000 25.9744
#
#
#
# Elastic Compliance Matrix: (Units=1/GPa)
#
#
# Indices 1 2 3 4 5 6 
#
# 1 0.020299 -0.008175 -0.005253 0.000000 0.000000 0.000000
# 2 -0.008175 0.020299 -0.005253 0.000000 0.000000 0.000000
# 3 -0.005253 -0.005253 0.018723 0.000000 0.000000 0.000000
# 4 0.000000 0.000000 0.000000 0.038785 0.000000 0.000000
# 5 0.000000 0.000000 0.000000 0.000000 0.038784 0.000000
# 6 0.000000 0.000000 0.000000 0.000000 0.000000 0.038499
#
#
# Mechanical properties :
#
#
# Convention : Reuss Voigt Hill
#
# Bulk Modulus (GPa) = 45.54033 45.64692 45.59363
# Shear Modulus (GPa) = 22.71995 23.28060 23.00028
#
# Velocity S-wave (km/s) = 3.35162 3.39272 3.37223
# Velocity P-wave (km/s) = 6.12324 6.15763 6.14046
#
# Compressibility (1/GPa) = 0.02195856
#
# Stress axis : x y z
#
# Youngs Moduli (GPa) = 49.26332 49.26314 53.41156
#
# Poissons Ratio (x) = 0.40272 0.28057
# Poissons Ratio (y) = 0.40272 0.28058
# Poissons Ratio (z) = 0.25878 0.25879
#
# Static dielectric constant tensor:
#      x y z
#    x 1.745430 0.000000 0.000000 
#    y 0.000000 1.745430 0.000000 
#    z 0.000000 0.000000 1.699820 
# 
# From -- ./inp_files/10954.got.cif
#   From: 2010.05.17/outbox.cif.g08.bks.cpg/sg140_6_cif.got.tgz:10954.got - 2010.06.21 00:45:31.
