data_PCOD9572511
_publ_section_title
;
Structure prediction by ZEFSAII (Michael W. Deem and Ramdas Pophale) SiO2 
 PCOD9572511
Probable space group: I 4/M C M
;
_chemical_formula_sum "Si O2"
_cell_formula_units_Z 128
_cell_length_a 19.550570
_cell_length_b 19.550570
_cell_length_c 17.757341
_cell_angle_alpha 90.000000
_cell_angle_beta 90.000000
_cell_angle_gamma 90.000000
_cell_volume 6787.295887
_symmetry_space_group_name_H-M "I 4/M C M"
_symmetry_group_IT_number 140
_symmetry_cell_setting 'tetragonal'
loop_
_space_group_symop_operation_xyz
x,y,z
-y,x,z
-x,-y,z
y,-x,z
x,-y,1/2-z
-x,y,1/2-z
y,x,1/2-z
-y,-x,1/2-z
-x,-y,-z
y,-x,-z
x,y,-z
-y,x,-z
-x,y,1/2+z
x,-y,1/2+z
-y,-x,1/2+z
y,x,1/2+z
1/2+x,1/2+y,1/2+z
1/2-y,1/2+x,1/2+z
1/2-x,1/2-y,1/2+z
1/2+y,1/2-x,1/2+z
1/2+x,1/2-y,-z
1/2-x,1/2+y,-z
1/2+y,1/2+x,-z
1/2-y,1/2-x,-z
1/2-x,1/2-y,1/2-z
1/2+y,1/2-x,1/2-z
1/2+x,1/2+y,1/2-z
1/2-y,1/2+x,1/2-z
1/2-x,1/2+y,z
1/2+x,1/2-y,z
1/2-y,1/2-x,z
1/2+y,1/2+x,z
loop_
_atom_site_type_symbol
_atom_site_label
_atom_site_fract_x
_atom_site_fract_y
_atom_site_fract_z
Si Si1 0.759861 0.959943 0.412915
Si Si2 0.681790 0.702415 0.664980
Si Si3 0.385596 0.500848 0.833621
Si Si4 0.398533 0.212355 0.909194
O O1 0.745584 0.944335 0.500000
O O2 0.770190 0.889706 0.367663
O O3 0.832991 0.996380 0.400938
O O4 0.710693 0.021674 0.385427
O O5 0.675571 0.675571 0.750000
O O6 0.733969 0.766032 0.665004
O O7 0.720717 0.642565 0.619390
O O8 0.434344 0.434838 0.837395
O O9 0.352250 0.500000 0.750000
O O10 0.352812 0.147189 0.884991
O O11 0.398875 0.214442 0.000000
#
# Coordination Sequence:
#
# PCOD9572511 Si02
#       4
#    32  32  32  32
#     4  11  22  33  54  82 105 142 191 234 280 336
#     4  10  22  37  55  82 112 144 185 232 287 346
#     4   9  19  32  46  69 104 144 178 215 271 325
#     4   9  19  36  54  75 109 148 185 231 286 339
#
# _framework density 18.858761999999999
#
# number of rings (size 3 to 8) (size 9 to 14) (size 15 to 20)
#    0.000    2.250    0.000    3.000    7.000    4.500 
#    0.000    1.250    0.000    0.750    0.000    3.500 
#    0.000    6.000    0.000    0.250    0.000    0.000 
#
# Total GULP energy -356768.949620 kJ/mol
# GULP energy per Si atom -5574.514838 kJ/mol
# Density = 1.881584 g / cm^3
# Si number density = 18.858762 Si / 1000 Ang^3
#
#
#
# Elastic Constant Matrix: (Units=GPa)
#
#
# Indices 1 2 3 4 5 6 
#
# 1 82.3214 56.0860 32.7573 0.0000 0.0000 0.0000
# 2 56.0860 82.3214 32.7573 0.0000 0.0000 0.0000
# 3 32.7573 32.7573 40.3968 0.0000 0.0000 0.0000
# 4 0.0000 0.0000 0.0000 21.0455 0.0000 0.0000
# 5 0.0000 0.0000 0.0000 0.0000 21.0455 0.0000
# 6 0.0000 0.0000 0.0000 0.0000 0.0000 15.2427
#
#
#
# Elastic Compliance Matrix: (Units=1/GPa)
#
#
# Indices 1 2 3 4 5 6 
#
# 1 0.024921 -0.013195 -0.009508 0.000000 0.000000 0.000000
# 2 -0.013195 0.024921 -0.009508 0.000000 0.000000 0.000000
# 3 -0.009508 -0.009508 0.040175 0.000000 0.000000 0.000000
# 4 0.000000 0.000000 0.000000 0.047516 0.000000 0.000000
# 5 0.000000 0.000000 0.000000 0.000000 0.047516 0.000000
# 6 0.000000 0.000000 0.000000 0.000000 0.000000 0.065605
#
#
# Mechanical properties :
#
#
# Convention : Reuss Voigt Hill
#
# Bulk Modulus (GPa) = 39.07299 49.80452 44.43875
# Shear Modulus (GPa) = 15.45075 17.02935 16.24005
#
# Velocity S-wave (km/s) = 2.86543 3.00825 2.93770
# Velocity P-wave (km/s) = 5.63128 6.20746 5.92638
#
# Compressibility (1/GPa) = 0.02559313
#
# Stress axis : x y z
#
# Youngs Moduli (GPa) = 40.12662 40.12662 24.89133
#
# Poissons Ratio (x) = 0.52949 0.23667
# Poissons Ratio (y) = 0.52949 0.23667
# Poissons Ratio (z) = 0.38153 0.38153
#
# Static dielectric constant tensor:
#      x y z
#    x 1.688030 0.000000 0.000000 
#    y 0.000000 1.688030 0.000000 
#    z 0.000000 0.000000 1.664690 
# 
# From -- ./inp_files/6473.got.cif
#   From: 2010.05.17/outbox.cif.g08.bks.cpg/sg140_4_cif.got.tgz:6473.got - 2010.06.21 00:45:31.
