data_PCOD9572108
_publ_section_title
;
Structure prediction by ZEFSAII (Michael W. Deem and Ramdas Pophale) SiO2 
 PCOD9572108
Probable space group: I 4/M C M
;
_chemical_formula_sum "Si O2"
_cell_formula_units_Z 112
_cell_length_a 17.897646
_cell_length_b 17.897646
_cell_length_c 15.456736
_cell_angle_alpha 90.000000
_cell_angle_beta 90.000000
_cell_angle_gamma 90.000000
_cell_volume 4951.190279
_symmetry_space_group_name_H-M "I 4/M C M"
_symmetry_group_IT_number 140
_symmetry_cell_setting 'tetragonal'
loop_
_space_group_symop_operation_xyz
x,y,z
-y,x,z
-x,-y,z
y,-x,z
x,-y,1/2-z
-x,y,1/2-z
y,x,1/2-z
-y,-x,1/2-z
-x,-y,-z
y,-x,-z
x,y,-z
-y,x,-z
-x,y,1/2+z
x,-y,1/2+z
-y,-x,1/2+z
y,x,1/2+z
1/2+x,1/2+y,1/2+z
1/2-y,1/2+x,1/2+z
1/2-x,1/2-y,1/2+z
1/2+y,1/2-x,1/2+z
1/2+x,1/2-y,-z
1/2-x,1/2+y,-z
1/2+y,1/2+x,-z
1/2-y,1/2-x,-z
1/2-x,1/2-y,1/2-z
1/2+y,1/2-x,1/2-z
1/2+x,1/2+y,1/2-z
1/2-y,1/2+x,1/2-z
1/2-x,1/2+y,z
1/2+x,1/2-y,z
1/2-y,1/2-x,z
1/2+y,1/2+x,z
loop_
_atom_site_type_symbol
_atom_site_label
_atom_site_fract_x
_atom_site_fract_y
_atom_site_fract_z
Si Si1 0.682789 0.058396 0.174858
Si Si2 0.178623 0.793666 0.601364
Si Si3 0.094410 0.071491 0.853162
Si Si4 0.124252 0.504073 0.000000
O O1 0.607945 0.107945 0.192947
O O2 0.747911 0.118211 0.157196
O O3 0.698973 0.000000 0.250000
O O4 0.669568 0.012740 0.086583
O O5 0.163752 0.778424 0.500000
O O6 0.259557 0.759557 0.621601
O O7 0.163863 0.879595 0.618556
O O8 0.082142 0.082142 0.750000
O O9 0.013529 0.100920 0.884361
O O10 0.058381 0.441620 0.000000
O O11 0.084065 0.584065 0.000000
#
# Coordination Sequence:
#
# PCOD9572108 Si02
#       4
#    32  32  32  16
#     4  10  19  31  50  79 113 158 214 265 317 378
#     4  10  21  38  60  89 127 167 204 250 317 392
#     4   9  20  39  65  97 125 155 205 265 315 366
#     4   9  16  28  46  70 106 151 206 270 319 364
#
# _framework density 22.620823000000001
#
# number of rings (size 3 to 8) (size 9 to 14) (size 15 to 20)
#    0.000    2.429    1.429    1.714    4.000    3.143 
#    0.000    1.429    0.000    0.000    0.000    0.000 
#    0.000    0.000    0.000    0.000    0.000    0.000 
#
# Total GULP energy -312994.150347 kJ/mol
# GULP energy per Si atom -5589.181256 kJ/mol
# Density = 2.256934 g / cm^3
# Si number density = 22.620823 Si / 1000 Ang^3
#
#
#
# Elastic Constant Matrix: (Units=GPa)
#
#
# Indices 1 2 3 4 5 6 
#
# 1 67.8953 35.4121 -1.0993 0.0000 0.0000 0.0000
# 2 35.4121 67.8953 -1.0994 0.0000 0.0000 0.0000
# 3 -1.0993 -1.0994 66.4532 0.0000 0.0000 0.0000
# 4 0.0000 0.0000 0.0000 20.3046 0.0000 0.0000
# 5 0.0000 0.0000 0.0000 0.0000 20.3054 0.0000
# 6 0.0000 0.0000 0.0000 0.0000 0.0000 21.3527
#
#
#
# Elastic Compliance Matrix: (Units=1/GPa)
#
#
# Indices 1 2 3 4 5 6 
#
# 1 0.020234 -0.010551 0.000160 0.000000 0.000000 0.000000
# 2 -0.010551 0.020234 0.000160 0.000000 0.000000 0.000000
# 3 0.000160 0.000160 0.015053 0.000000 0.000000 0.000000
# 4 0.000000 0.000000 0.000000 0.049250 0.000000 0.000000
# 5 0.000000 0.000000 0.000000 0.000000 0.049248 0.000000
# 6 0.000000 0.000000 0.000000 0.000000 0.000000 0.046833
#
#
# Mechanical properties :
#
#
# Convention : Reuss Voigt Hill
#
# Bulk Modulus (GPa) = 28.52192 29.85230 29.18711
# Shear Modulus (GPa) = 21.45920 23.66124 22.56022
#
# Velocity S-wave (km/s) = 3.08335 3.23769 3.16147
# Velocity P-wave (km/s) = 5.03112 5.21559 5.12418
#
# Compressibility (1/GPa) = 0.03506076
#
# Stress axis : x y z
#
# Youngs Moduli (GPa) = 49.42127 49.42120 66.42983
#
# Poissons Ratio (x) = 0.52144 -0.01064
# Poissons Ratio (y) = 0.52144 -0.01064
# Poissons Ratio (z) = -0.00791 -0.00792
#
# Static dielectric constant tensor:
#      x y z
#    x 1.838520 0.000000 0.000000 
#    y 0.000000 1.838520 0.000000 
#    z 0.000000 0.000000 1.837810 
# 
# From -- ./inp_files/6090.got.cif
#   From: 2010.05.17/outbox.cif.g08.bks.cpg/sg140_4_cif.got.tgz:6090.got - 2010.06.21 00:45:31.
