data_PCOD9572369
_publ_section_title
;
Structure prediction by ZEFSAII (Michael W. Deem and Ramdas Pophale) SiO2 
 PCOD9572369
Probable space group: I 4/M C M
;
_chemical_formula_sum "Si O2"
_cell_formula_units_Z 176
_cell_length_a 24.606383
_cell_length_b 24.606383
_cell_length_c 14.960585
_cell_angle_alpha 90.000000
_cell_angle_beta 90.000000
_cell_angle_gamma 90.000000
_cell_volume 9058.246504
_symmetry_space_group_name_H-M "I 4/M C M"
_symmetry_group_IT_number 140
_symmetry_cell_setting 'tetragonal'
loop_
_space_group_symop_operation_xyz
x,y,z
-y,x,z
-x,-y,z
y,-x,z
x,-y,1/2-z
-x,y,1/2-z
y,x,1/2-z
-y,-x,1/2-z
-x,-y,-z
y,-x,-z
x,y,-z
-y,x,-z
-x,y,1/2+z
x,-y,1/2+z
-y,-x,1/2+z
y,x,1/2+z
1/2+x,1/2+y,1/2+z
1/2-y,1/2+x,1/2+z
1/2-x,1/2-y,1/2+z
1/2+y,1/2-x,1/2+z
1/2+x,1/2-y,-z
1/2-x,1/2+y,-z
1/2+y,1/2+x,-z
1/2-y,1/2-x,-z
1/2-x,1/2-y,1/2-z
1/2+y,1/2-x,1/2-z
1/2+x,1/2+y,1/2-z
1/2-y,1/2+x,1/2-z
1/2-x,1/2+y,z
1/2+x,1/2-y,z
1/2-y,1/2-x,z
1/2+y,1/2+x,z
loop_
_atom_site_type_symbol
_atom_site_label
_atom_site_fract_x
_atom_site_fract_y
_atom_site_fract_z
Si Si1 0.725198 0.681772 0.500000
Si Si2 0.487801 0.664929 0.146687
Si Si3 0.588239 0.521526 0.500000
Si Si4 0.363707 0.679357 0.156700
Si Si5 0.497079 0.207147 0.143798
Si Si6 0.883796 0.705226 0.897986
Si Si7 0.819214 0.409017 0.000000
O O1 0.761780 0.738221 0.500000
O O2 0.685230 0.675647 0.414476
O O3 0.768724 0.632998 0.500000
O O4 0.500000 0.654046 0.250000
O O5 0.524039 0.626306 0.086071
O O6 0.423289 0.658013 0.127205
O O7 0.502155 0.727657 0.128330
O O8 0.538518 0.562101 0.500000
O O9 0.347185 0.652816 0.250000
O O10 0.374570 0.744034 0.167025
O O11 0.500000 0.197965 0.250000
O O12 0.554498 0.186247 0.107050
O O13 0.447160 0.184206 0.087630
O O14 0.842174 0.657827 0.878307
O O15 0.873803 0.724880 0.000000
O O16 0.873163 0.373163 0.000000
#
# Coordination Sequence:
#
# PCOD9572369 Si02
#       7
#    16  32  16  32  32  32  16
#     4  11  25  40  59  92 134 171 201 253 323 387
#     4  10  24  41  63  91 118 162 213 266 315 369
#     4  11  26  42  60  83 112 157 210 268 330 376
#     4  11  24  39  61  96 125 164 207 253 316 380
#     4  10  22  41  62  92 123 160 212 252 301 384
#     4  10  20  38  63  88 121 162 202 248 300 361
#     4  11  25  42  64  94 133 171 206 265 328 378
#
# _framework density 19.429808999999999
#
# number of rings (size 3 to 8) (size 9 to 14) (size 15 to 20)
#    0.000    1.545    1.818    1.636   12.727    3.636 
#    0.000    0.909    0.000    1.091    0.000    1.273 
#    0.000    0.000    0.000    0.000    0.000    0.000 
#
# Total GULP energy -491684.664849 kJ/mol
# GULP energy per Si atom -5587.325737 kJ/mol
# Density = 1.938559 g / cm^3
# Si number density = 19.429809 Si / 1000 Ang^3
#
#
#
# Elastic Constant Matrix: (Units=GPa)
#
#
# Indices 1 2 3 4 5 6 
#
# 1 75.2920 26.5536 28.1480 0.0000 0.0000 0.0000
# 2 26.5536 75.2926 28.1487 0.0000 0.0000 0.0000
# 3 28.1480 28.1487 64.3434 0.0000 0.0000 0.0000
# 4 0.0000 0.0000 0.0000 28.6576 0.0000 0.0000
# 5 0.0000 0.0000 0.0000 0.0000 28.6581 0.0000
# 6 0.0000 0.0000 0.0000 0.0000 0.0000 25.0304
#
#
#
# Elastic Compliance Matrix: (Units=1/GPa)
#
#
# Indices 1 2 3 4 5 6 
#
# 1 0.016734 -0.003784 -0.005665 0.000000 0.000000 0.000000
# 2 -0.003784 0.016734 -0.005666 0.000000 0.000000 0.000000
# 3 -0.005665 -0.005666 0.020499 0.000000 0.000000 0.000000
# 4 0.000000 0.000000 0.000000 0.034895 0.000000 0.000000
# 5 0.000000 0.000000 0.000000 0.000000 0.034894 0.000000
# 6 0.000000 0.000000 0.000000 0.000000 0.000000 0.039951
#
#
# Mechanical properties :
#
#
# Convention : Reuss Voigt Hill
#
# Bulk Modulus (GPa) = 42.12722 42.29208 42.20965
# Shear Modulus (GPa) = 24.77108 25.27439 25.02274
#
# Velocity S-wave (km/s) = 3.57445 3.61058 3.59256
# Velocity P-wave (km/s) = 6.22611 6.26064 6.24340
#
# Compressibility (1/GPa) = 0.02373762
#
# Stress axis : x y z
#
# Youngs Moduli (GPa) = 59.75865 59.75855 48.78398
#
# Poissons Ratio (x) = 0.22610 0.27638
# Poissons Ratio (y) = 0.22610 0.27639
# Poissons Ratio (z) = 0.33855 0.33857
#
# Static dielectric constant tensor:
#      x y z
#    x 1.672590 0.000000 0.000000 
#    y 0.000000 1.672600 0.000000 
#    z 0.000000 0.000000 1.739700 
# 
# From -- ./inp_files/5005.got.cif
#   From: 2010.05.17/outbox.cif.g08.bks.cpg/sg140_3_cif.got.tgz:5005.got - 2010.06.21 00:45:31.
