data_PCOD9572164
_publ_section_title
;
Structure prediction by ZEFSAII (Michael W. Deem and Ramdas Pophale) SiO2 
 PCOD9572164
Probable space group: I 4/M C M
;
_chemical_formula_sum "Si O2"
_cell_formula_units_Z 224
_cell_length_a 23.030070
_cell_length_b 23.030070
_cell_length_c 23.494917
_cell_angle_alpha 90.000000
_cell_angle_beta 90.000000
_cell_angle_gamma 90.000000
_cell_volume 12461.330976
_symmetry_space_group_name_H-M "I 4/M C M"
_symmetry_group_IT_number 140
_symmetry_cell_setting 'tetragonal'
loop_
_space_group_symop_operation_xyz
x,y,z
-y,x,z
-x,-y,z
y,-x,z
x,-y,1/2-z
-x,y,1/2-z
y,x,1/2-z
-y,-x,1/2-z
-x,-y,-z
y,-x,-z
x,y,-z
-y,x,-z
-x,y,1/2+z
x,-y,1/2+z
-y,-x,1/2+z
y,x,1/2+z
1/2+x,1/2+y,1/2+z
1/2-y,1/2+x,1/2+z
1/2-x,1/2-y,1/2+z
1/2+y,1/2-x,1/2+z
1/2+x,1/2-y,-z
1/2-x,1/2+y,-z
1/2+y,1/2+x,-z
1/2-y,1/2-x,-z
1/2-x,1/2-y,1/2-z
1/2+y,1/2-x,1/2-z
1/2+x,1/2+y,1/2-z
1/2-y,1/2+x,1/2-z
1/2-x,1/2+y,z
1/2+x,1/2-y,z
1/2-y,1/2-x,z
1/2+y,1/2+x,z
loop_
_atom_site_type_symbol
_atom_site_label
_atom_site_fract_x
_atom_site_fract_y
_atom_site_fract_z
Si Si1 0.076458 0.759077 0.167664
Si Si2 0.093541 0.012805 0.916889
Si Si3 0.621331 0.450021 0.788963
Si Si4 0.884122 0.712120 0.124805
Si Si5 0.505504 0.732116 0.564903
Si Si6 0.799855 0.205289 0.181857
Si Si7 0.838533 0.567680 0.758435
O O1 0.044190 0.809683 0.202622
O O2 0.137436 0.789568 0.153778
O O3 0.088317 0.706749 0.210403
O O4 0.039608 0.744123 0.112115
O O5 0.161626 0.003993 0.932387
O O6 0.062518 0.952564 0.935295
O O7 0.096746 0.034823 0.850857
O O8 0.597090 0.500000 0.750000
O O9 0.605877 0.394124 0.750000
O O10 0.839205 0.660796 0.103711
O O11 0.931072 0.742749 0.083369
O O12 0.844240 0.762235 0.152190
O O13 0.918324 0.685612 0.178845
O O14 0.493792 0.749843 0.500000
O O15 0.803492 0.196509 0.250000
O O16 0.764949 0.264949 0.173761
O O17 0.845782 0.500000 0.750000
O O18 0.897330 0.602671 0.751209
#
# Coordination Sequence:
#
# PCOD9572164 Si02
#       7
#    32  32  32  32  32  32  32
#     4  11  22  34  57  86 122 153 194 235 295 351
#     4  10  22  37  53  77 112 157 200 244 295 341
#     4  11  21  29  48  78 115 152 190 238 288 346
#     4  10  22  39  62  91 121 151 193 243 303 363
#     4  11  26  42  59  80 110 158 216 258 286 328
#     4  10  19  33  58  93 127 154 178 225 301 375
#     4  11  21  37  61  94 127 153 179 227 299 375
#
# _framework density 17.975608000000001
#
# number of rings (size 3 to 8) (size 9 to 14) (size 15 to 20)
#    0.000    1.429    4.286    1.286    6.000    1.143 
#    0.000    0.714    0.000    2.571    0.000    0.000 
#    0.000    2.286    0.000    0.000    0.000    0.000 
#
# Total GULP energy -623575.764581 kJ/mol
# GULP energy per Si atom -5567.640755 kJ/mol
# Density = 1.793469 g / cm^3
# Si number density = 17.975608 Si / 1000 Ang^3
#
#
#
# Elastic Constant Matrix: (Units=GPa)
#
#
# Indices 1 2 3 4 5 6 
#
# 1 347.2310 -261.7401 14.9134 0.0000 0.0000 0.0000
# 2 -261.7401 347.2441 14.9109 0.0000 0.0000 0.0000
# 3 14.9134 14.9109 87.9613 0.0000 0.0000 0.0000
# 4 0.0000 0.0000 0.0000 6.1989 0.0000 0.0000
# 5 0.0000 0.0000 0.0000 0.0000 6.1993 0.0000
# 6 0.0000 0.0000 0.0000 0.0000 0.0000 27.8913
#
#
#
# Elastic Compliance Matrix: (Units=1/GPa)
#
#
# Indices 1 2 3 4 5 6 
#
# 1 0.007037 0.005395 -0.002108 0.000000 0.000000 0.000000
# 2 0.005395 0.007037 -0.002107 0.000000 0.000000 0.000000
# 3 -0.002108 -0.002107 0.012083 0.000000 0.000000 0.000000
# 4 0.000000 0.000000 0.000000 0.161318 0.000000 0.000000
# 5 0.000000 0.000000 0.000000 0.000000 0.161310 0.000000
# 6 0.000000 0.000000 0.000000 0.000000 0.000000 0.035854
#
#
# Mechanical properties :
#
#
# Convention : Reuss Voigt Hill
#
# Bulk Modulus (GPa) = 35.06802 35.40054 35.23428
# Shear Modulus (GPa) = 12.76215 75.68138 44.22177
#
# Velocity S-wave (km/s) = 2.66742 6.49567 4.96532
# Velocity P-wave (km/s) = 5.38868 8.71749 7.24681
#
# Compressibility (1/GPa) = 0.02851601
#
# Stress axis : x y z
#
# Youngs Moduli (GPa) = 142.10810 142.11387 82.75952
#
# Poissons Ratio (x) = -0.76666 0.17442
# Poissons Ratio (y) = -0.76662 0.17441
# Poissons Ratio (z) = 0.29950 0.29950
#
# Static dielectric constant tensor:
#      x y z
#    x 1.811620 0.000000 0.000000 
#    y 0.000000 1.811800 0.000000 
#    z 0.000000 0.000000 1.620680 
# 
# From -- ./inp_files/9984.got.cif
#   From: 2010.05.17/outbox.cif.g08.bks.cpg/sg140_5_cif.got.tgz:9984.got - 2010.06.21 00:45:31.
