data_PCOD9572578
_publ_section_title
;
Structure prediction by ZEFSAII (Michael W. Deem and Ramdas Pophale) SiO2 
 PCOD9572578
Probable space group: I 4/M C M
;
_chemical_formula_sum "Si O2"
_cell_formula_units_Z 160
_cell_length_a 19.590838
_cell_length_b 19.590838
_cell_length_c 20.717385
_cell_angle_alpha 90.000000
_cell_angle_beta 90.000000
_cell_angle_gamma 90.000000
_cell_volume 7951.351704
_symmetry_space_group_name_H-M "I 4/M C M"
_symmetry_group_IT_number 140
_symmetry_cell_setting 'tetragonal'
loop_
_space_group_symop_operation_xyz
x,y,z
-y,x,z
-x,-y,z
y,-x,z
x,-y,1/2-z
-x,y,1/2-z
y,x,1/2-z
-y,-x,1/2-z
-x,-y,-z
y,-x,-z
x,y,-z
-y,x,-z
-x,y,1/2+z
x,-y,1/2+z
-y,-x,1/2+z
y,x,1/2+z
1/2+x,1/2+y,1/2+z
1/2-y,1/2+x,1/2+z
1/2-x,1/2-y,1/2+z
1/2+y,1/2-x,1/2+z
1/2+x,1/2-y,-z
1/2-x,1/2+y,-z
1/2+y,1/2+x,-z
1/2-y,1/2-x,-z
1/2-x,1/2-y,1/2-z
1/2+y,1/2-x,1/2-z
1/2+x,1/2+y,1/2-z
1/2-y,1/2+x,1/2-z
1/2-x,1/2+y,z
1/2+x,1/2-y,z
1/2-y,1/2-x,z
1/2+y,1/2+x,z
loop_
_atom_site_type_symbol
_atom_site_label
_atom_site_fract_x
_atom_site_fract_y
_atom_site_fract_z
Si Si1 0.390850 0.466422 0.926065
Si Si2 0.593258 0.906743 0.577321
Si Si3 0.068527 0.784396 0.782039
Si Si4 0.209611 0.709611 0.426138
Si Si5 0.312505 0.370629 0.157091
Si Si6 0.861160 0.474313 0.824147
O O1 0.457318 0.418370 0.917073
O O2 0.332372 0.439655 0.879911
O O3 0.368290 0.459613 0.000000
O O4 0.578460 0.921541 0.500000
O O5 0.651359 0.848642 0.577043
O O6 0.529729 0.878552 0.620407
O O7 0.112506 0.764817 0.718172
O O8 0.117417 0.836798 0.818023
O O9 0.048151 0.718028 0.822238
O O10 0.000000 0.815512 0.750000
O O11 0.224744 0.724744 0.500000
O O12 0.275178 0.680473 0.390223
O O13 0.874168 0.500000 0.750000
O O14 0.910112 0.410112 0.835091
#
# Coordination Sequence:
#
# PCOD9572578 Si02
#       6
#    32  16  32  16  32  32
#     4   9  18  34  58  85 113 152 202 255 314 375
#     4  11  25  44  66  96 129 165 213 270 324 381
#     4  10  23  38  60  90 122 158 208 256 315 371
#     4  11  24  40  59  85 121 165 206 244 300 377
#     4  11  22  37  61  86 123 163 205 257 305 370
#     4  11  22  39  66  93 122 164 212 261 320 387
#
# _framework density 20.122366
#
# number of rings (size 3 to 8) (size 9 to 14) (size 15 to 20)
#    0.000    1.600    1.000    5.100    2.800    1.600 
#    0.000    4.000    0.000    4.800    0.000    0.000 
#    0.000    0.000    0.000    0.000    0.000    0.000 
#
# Total GULP energy -446522.695702 kJ/mol
# GULP energy per Si atom -5581.533696 kJ/mol
# Density = 2.007657 g / cm^3
# Si number density = 20.122366 Si / 1000 Ang^3
#
#
#
# Elastic Constant Matrix: (Units=GPa)
#
#
# Indices 1 2 3 4 5 6 
#
# 1 64.0175 27.6030 43.5081 0.0000 0.0000 0.0000
# 2 27.6030 64.0173 43.5081 0.0000 0.0000 0.0000
# 3 43.5081 43.5081 142.3716 0.0000 0.0000 0.0000
# 4 0.0000 0.0000 0.0000 31.1227 0.0000 0.0000
# 5 0.0000 0.0000 0.0000 0.0000 31.1226 0.0000
# 6 0.0000 0.0000 0.0000 0.0000 0.0000 40.2381
#
#
#
# Elastic Compliance Matrix: (Units=1/GPa)
#
#
# Indices 1 2 3 4 5 6 
#
# 1 0.021420 -0.006042 -0.004699 0.000000 0.000000 0.000000
# 2 -0.006042 0.021420 -0.004699 0.000000 0.000000 0.000000
# 3 -0.004699 -0.004699 0.009896 0.000000 0.000000 0.000000
# 4 0.000000 0.000000 0.000000 0.032131 0.000000 0.000000
# 5 0.000000 0.000000 0.000000 0.000000 0.032131 0.000000
# 6 0.000000 0.000000 0.000000 0.000000 0.000000 0.024852
#
#
# Mechanical properties :
#
#
# Convention : Reuss Voigt Hill
#
# Bulk Modulus (GPa) = 45.75778 55.51608 50.63693
# Shear Modulus (GPa) = 27.77533 30.88246 29.32890
#
# Velocity S-wave (km/s) = 3.71930 3.92182 3.82190
# Velocity P-wave (km/s) = 6.42132 6.93950 6.68543
#
# Compressibility (1/GPa) = 0.02185421
#
# Stress axis : x y z
#
# Youngs Moduli (GPa) = 46.68597 46.68577 101.04986
#
# Poissons Ratio (x) = 0.28207 0.47487
# Poissons Ratio (y) = 0.28207 0.47488
# Poissons Ratio (z) = 0.21940 0.21940
#
# Static dielectric constant tensor:
#      x y z
#    x 1.705120 0.000000 0.000000 
#    y 0.000000 1.705120 0.000000 
#    z 0.000000 0.000000 1.742510 
# 
# From -- ./inp_files/6895.got.cif
#   From: 2010.05.17/outbox.cif.g08.bks.cpg/sg140_4_cif.got.tgz:6895.got - 2010.06.21 00:45:31.
