data_PCOD9572593
_publ_section_title
;
Structure prediction by ZEFSAII (Michael W. Deem and Ramdas Pophale) SiO2 
 PCOD9572593
Probable space group: I 4/M C M
;
_chemical_formula_sum "Si O2"
_cell_formula_units_Z 176
_cell_length_a 24.845607
_cell_length_b 24.845607
_cell_length_c 14.150512
_cell_angle_alpha 90.000000
_cell_angle_beta 90.000000
_cell_angle_gamma 90.000000
_cell_volume 8735.170309
_symmetry_space_group_name_H-M "I 4/M C M"
_symmetry_group_IT_number 140
_symmetry_cell_setting 'tetragonal'
loop_
_space_group_symop_operation_xyz
x,y,z
-y,x,z
-x,-y,z
y,-x,z
x,-y,1/2-z
-x,y,1/2-z
y,x,1/2-z
-y,-x,1/2-z
-x,-y,-z
y,-x,-z
x,y,-z
-y,x,-z
-x,y,1/2+z
x,-y,1/2+z
-y,-x,1/2+z
y,x,1/2+z
1/2+x,1/2+y,1/2+z
1/2-y,1/2+x,1/2+z
1/2-x,1/2-y,1/2+z
1/2+y,1/2-x,1/2+z
1/2+x,1/2-y,-z
1/2-x,1/2+y,-z
1/2+y,1/2+x,-z
1/2-y,1/2-x,-z
1/2-x,1/2-y,1/2-z
1/2+y,1/2-x,1/2-z
1/2+x,1/2+y,1/2-z
1/2-y,1/2+x,1/2-z
1/2-x,1/2+y,z
1/2+x,1/2-y,z
1/2-y,1/2-x,z
1/2+y,1/2+x,z
loop_
_atom_site_type_symbol
_atom_site_label
_atom_site_fract_x
_atom_site_fract_y
_atom_site_fract_z
Si Si1 0.085890 0.585890 0.612007
Si Si2 0.842256 0.954463 0.000000
Si Si3 0.519040 0.155625 0.387111
Si Si4 0.729199 0.460447 0.180543
Si Si5 0.705224 0.630794 0.817951
Si Si6 0.581634 0.354701 0.000000
Si Si7 0.867505 0.367505 0.788390
Si Si8 0.709398 0.209398 0.200442
O O1 0.092593 0.592593 0.500000
O O2 0.108930 0.525419 0.634374
O O3 0.122624 0.622624 0.677245
O O4 0.804882 0.944441 0.909410
O O5 0.891380 0.913386 0.000000
O O6 0.857254 0.017233 0.000000
O O7 0.524771 0.156029 0.500000
O O8 0.507825 0.216836 0.352865
O O9 0.576083 0.146093 0.337768
O O10 0.696990 0.500000 0.250000
O O11 0.736574 0.409066 0.246692
O O12 0.663484 0.663484 0.750000
O O13 0.675963 0.601817 0.905122
O O14 0.752182 0.669427 0.856176
O O15 0.822212 0.322212 0.784569
O O16 0.750000 0.250000 0.250000
#
# Coordination Sequence:
#
# PCOD9572593 Si02
#       8
#    16  16  32  32  32  16  16  16
#     4  10  24  42  61  93 134 174 231 298 349 407
#     4  12  26  43  70 102 136 177 224 281 350 419
#     4  11  24  41  65  98 134 181 241 296 355 424
#     4  12  22  40  69  98 132 182 234 282 342 429
#     4  11  23  43  69  99 141 183 230 287 352 416
#     4  12  26  44  72 106 136 182 227 284 351 424
#     4  12  21  41  67  94 131 182 225 291 366 421
#     4  10  24  42  63  96 137 177 226 287 353 415
#
# _framework density 20.148433000000001
#
# number of rings (size 3 to 8) (size 9 to 14) (size 15 to 20)
#    0.000    0.727    6.364    1.909    0.000    0.909 
#    1.636    2.273    2.000    0.000    0.000    0.000 
#    0.000    0.000    0.000    0.000    0.000    0.000 
#
# Total GULP energy -490600.357994 kJ/mol
# GULP energy per Si atom -5575.004068 kJ/mol
# Density = 2.010257 g / cm^3
# Si number density = 20.148433 Si / 1000 Ang^3
#
#
#
# Elastic Constant Matrix: (Units=GPa)
#
#
# Indices 1 2 3 4 5 6 
#
# 1 116.6324 67.0011 44.9643 0.0000 0.0000 0.0000
# 2 67.0011 116.6324 44.9643 0.0000 0.0000 0.0000
# 3 44.9643 44.9643 107.5544 0.0000 0.0000 0.0000
# 4 0.0000 0.0000 0.0000 20.4304 0.0000 0.0000
# 5 0.0000 0.0000 0.0000 0.0000 20.4304 0.0000
# 6 0.0000 0.0000 0.0000 0.0000 0.0000 45.2462
#
#
#
# Elastic Compliance Matrix: (Units=1/GPa)
#
#
# Indices 1 2 3 4 5 6 
#
# 1 0.013498 -0.006651 -0.002863 0.000000 0.000000 0.000000
# 2 -0.006651 0.013498 -0.002863 0.000000 0.000000 0.000000
# 3 -0.002863 -0.002863 0.011691 0.000000 0.000000 0.000000
# 4 0.000000 0.000000 0.000000 0.048947 0.000000 0.000000
# 5 0.000000 0.000000 0.000000 0.000000 0.048947 0.000000
# 6 0.000000 0.000000 0.000000 0.000000 0.000000 0.022101
#
#
# Mechanical properties :
#
#
# Convention : Reuss Voigt Hill
#
# Bulk Modulus (GPa) = 71.75920 72.74209 72.25064
# Shear Modulus (GPa) = 26.58457 29.48070 28.03263
#
# Velocity S-wave (km/s) = 3.63634 3.82930 3.73407
# Velocity P-wave (km/s) = 7.30228 7.46544 7.38431
#
# Compressibility (1/GPa) = 0.01393550
#
# Stress axis : x y z
#
# Youngs Moduli (GPa) = 74.08479 74.08479 85.53461
#
# Poissons Ratio (x) = 0.49270 0.24486
# Poissons Ratio (y) = 0.49270 0.24486
# Poissons Ratio (z) = 0.21208 0.21208
#
# Static dielectric constant tensor:
#      x y z
#    x 1.774440 0.000000 0.000000 
#    y 0.000000 1.774440 0.000000 
#    z 0.000000 0.000000 1.686860 
# 
# From -- ./inp_files/5022.got.cif
#   From: 2010.05.17/outbox.cif.g08.bks.cpg/sg140_3_cif.got.tgz:5022.got - 2010.06.21 00:45:31.
