data_PCOD9572897
_publ_section_title
;
Structure prediction by ZEFSAII (Michael W. Deem and Ramdas Pophale) SiO2 
 PCOD9572897
Probable space group: I 41/A M D
;
_chemical_formula_sum "Si O2"
_cell_formula_units_Z 192
_cell_length_a 17.713179
_cell_length_b 17.713179
_cell_length_c 25.484883
_cell_angle_alpha 90.000000
_cell_angle_beta 90.000000
_cell_angle_gamma 90.000000
_cell_volume 7996.053052
_symmetry_space_group_name_H-M "I 41/A M D"
_symmetry_group_IT_number 141
_space_group.IT_coordinate_system_code '2'
_symmetry_cell_setting 'tetragonal'
loop_
_space_group_symop_operation_xyz
x,y,z
1/4-y,3/4+x,1/4+z
-x,1/2-y,z
1/4+y,1/4-x,3/4+z
x,-y,-z
-x,1/2+y,-z
1/4+y,3/4+x,1/4-z
1/4-y,1/4-x,3/4-z
-x,-y,-z
3/4+y,1/4-x,3/4-z
x,1/2+y,-z
3/4-y,3/4+x,1/4-z
-x,y,z
x,1/2-y,z
3/4-y,1/4-x,3/4+z
3/4+y,3/4+x,1/4+z
1/2+x,1/2+y,1/2+z
3/4-y,1/4+x,3/4+z
1/2-x,-y,1/2+z
3/4+y,3/4-x,1/4+z
1/2+x,1/2-y,1/2-z
1/2-x,y,1/2-z
3/4+y,1/4+x,3/4-z
3/4-y,3/4-x,1/4-z
1/2-x,1/2-y,1/2-z
1/4+y,3/4-x,1/4-z
1/2+x,y,1/2-z
1/4-y,1/4+x,3/4-z
1/2-x,1/2+y,1/2+z
1/2+x,-y,1/2+z
1/4-y,3/4-x,1/4+z
1/4+y,1/4+x,3/4+z
loop_
_atom_site_type_symbol
_atom_site_label
_atom_site_fract_x
_atom_site_fract_y
_atom_site_fract_z
Si Si1 0.357853 0.664518 0.300089
Si Si2 0.416734 0.159675 0.429156
Si Si3 0.799672 0.660982 0.839072
Si Si4 0.815663 0.500000 0.000000
Si Si5 0.797479 0.128406 0.509762
Si Si6 0.686669 0.750000 0.436294
Si Si7 0.621725 0.667603 0.820253
O O1 0.343078 0.750000 0.318585
O O2 0.374699 0.666440 0.237087
O O3 0.281479 0.615317 0.298877
O O4 0.431506 0.625482 0.323555
O O5 0.500000 0.142310 0.405208
O O6 0.413197 0.250000 0.438498
O O7 0.346265 0.142029 0.392059
O O8 0.814694 0.750000 0.829527
O O9 0.834392 0.606826 0.795716
O O10 0.709629 0.652178 0.835423
O O11 0.760716 0.431608 0.014305
O O12 0.747789 0.185263 0.543468
O O13 0.849856 0.160545 0.464200
O O14 0.580554 0.669447 0.875000
O O15 0.617677 0.750000 0.793986
#
# Coordination Sequence:
#
# PCOD9572897 Si02
#       7
#    32  32  32  16  32  16  32
#     4  10  19  36  58  86 118 149 182 236 293 347
#     4   9  18  31  52  82 113 145 187 233 282 342
#     4  10  21  36  58  78 111 156 199 239 299 352
#     4  10  21  34  57  84 116 144 190 232 297 352
#     4  11  22  40  54  83 116 154 194 249 295 348
#     4  10  23  32  61  80 116 151 190 231 295 349
#     4  11  25  40  59  80 112 156 206 251 298 345
#
# _framework density 24.011845999999998
#
# number of rings (size 3 to 8) (size 9 to 14) (size 15 to 20)
#    0.000    1.833    2.500    1.000    7.000    1.500 
#    0.000    0.833    0.000    0.000    0.000    0.000 
#    0.000    0.000    0.000    0.667    0.000    0.000 
#
# Total GULP energy -534650.635722 kJ/mol
# GULP energy per Si atom -5569.277455 kJ/mol
# Density = 2.395719 g / cm^3
# Si number density = 24.011846 Si / 1000 Ang^3
#
#
#
# Elastic Constant Matrix: (Units=GPa)
#
#
# Indices 1 2 3 4 5 6 
#
# 1 123.9688 54.7260 12.8645 0.0000 0.0000 0.0000
# 2 54.7260 123.9692 12.8646 0.0000 0.0000 0.0000
# 3 12.8645 12.8646 36.0896 0.0000 0.0000 0.0000
# 4 0.0000 0.0000 0.0000 -21.3481 0.0000 0.0000
# 5 0.0000 0.0000 0.0000 0.0000 -21.3168 0.0000
# 6 0.0000 0.0000 0.0000 0.0000 0.0000 10.1843
#
#
#
# Elastic Compliance Matrix: (Units=1/GPa)
#
#
# Indices 1 2 3 4 5 6 
#
# 1 0.010170 -0.004272 -0.002103 0.000000 0.000000 0.000000
# 2 -0.004272 0.010170 -0.002103 0.000000 0.000000 0.000000
# 3 -0.002103 -0.002103 0.029208 0.000000 0.000000 0.000000
# 4 0.000000 0.000000 0.000000 -0.046842 0.000000 0.000000
# 5 0.000000 0.000000 0.000000 0.000000 -0.046911 0.000000
# 6 0.000000 0.000000 0.000000 0.000000 0.000000 0.098190
#
#
# Mechanical properties :
#
#
# Convention : Reuss Voigt Hill
#
# Bulk Modulus (GPa) = 30.67979 49.43754 40.05867
# Shear Modulus (GPa) = 61.12160 7.07536 34.09848
#
# Velocity S-wave (km/s) = 5.05075 1.71843 3.77247
# Velocity P-wave (km/s) = 6.84237 4.95690 5.97448
#
# Compressibility (1/GPa) = 0.03259474
#
# Stress axis : x y z
#
# Youngs Moduli (GPa) = 98.32448 98.32475 34.23735
#
# Poissons Ratio (x) = 0.42000 0.07199
# Poissons Ratio (y) = 0.41999 0.07199
# Poissons Ratio (z) = 0.20675 0.20675
#
# Static dielectric constant tensor:
#      x y z
#    x 1.912040 0.000000 0.000000 
#    y 0.000000 1.912040 0.000000 
#    z 0.000000 0.000000 2.053240 
# 
# From -- ./inp_files/14466.got.cif
#   From: 2010.05.17/outbox.cif.g08.bks.cpg/sg141_8_cif.got.tgz:14466.got - 2010.05.20 13:30:51.
