data_PCOD9572796
_publ_section_title
;
Structure prediction by ZEFSAII (Michael W. Deem and Ramdas Pophale) SiO2 
 PCOD9572796
Probable space group: I 41/A M D
;
_chemical_formula_sum "Si O2"
_cell_formula_units_Z 176
_cell_length_a 27.457595
_cell_length_b 27.457595
_cell_length_c 12.735248
_cell_angle_alpha 90.000000
_cell_angle_beta 90.000000
_cell_angle_gamma 90.000000
_cell_volume 9601.352100
_symmetry_space_group_name_H-M "I 41/A M D"
_symmetry_group_IT_number 141
_space_group.IT_coordinate_system_code '2'
_symmetry_cell_setting 'tetragonal'
loop_
_space_group_symop_operation_xyz
x,y,z
1/4-y,3/4+x,1/4+z
-x,1/2-y,z
1/4+y,1/4-x,3/4+z
x,-y,-z
-x,1/2+y,-z
1/4+y,3/4+x,1/4-z
1/4-y,1/4-x,3/4-z
-x,-y,-z
3/4+y,1/4-x,3/4-z
x,1/2+y,-z
3/4-y,3/4+x,1/4-z
-x,y,z
x,1/2-y,z
3/4-y,1/4-x,3/4+z
3/4+y,3/4+x,1/4+z
1/2+x,1/2+y,1/2+z
3/4-y,1/4+x,3/4+z
1/2-x,-y,1/2+z
3/4+y,3/4-x,1/4+z
1/2+x,1/2-y,1/2-z
1/2-x,y,1/2-z
3/4+y,1/4+x,3/4-z
3/4-y,3/4-x,1/4-z
1/2-x,1/2-y,1/2-z
1/4+y,3/4-x,1/4-z
1/2+x,y,1/2-z
1/4-y,1/4+x,3/4-z
1/2-x,1/2+y,1/2+z
1/2+x,-y,1/2+z
1/4-y,3/4-x,1/4+z
1/4+y,1/4+x,3/4+z
loop_
_atom_site_type_symbol
_atom_site_label
_atom_site_fract_x
_atom_site_fract_y
_atom_site_fract_z
Si Si1 0.712196 0.307986 0.029058
Si Si2 0.102544 0.635341 0.814313
Si Si3 0.557465 0.642221 0.465199
Si Si4 0.557251 0.192750 0.125000
Si Si5 0.300809 0.113791 0.205160
Si Si6 0.058999 0.533069 0.097747
O O1 0.712947 0.250000 0.045290
O O2 0.709417 0.337655 0.136876
O O3 0.664024 0.322707 0.963062
O O4 0.758112 0.323402 0.957233
O O5 0.086249 0.673673 0.725768
O O6 0.159290 0.624711 0.794592
O O7 0.087638 0.651940 0.929427
O O8 0.569379 0.680622 0.375000
O O9 0.500000 0.641174 0.490183
O O10 0.572323 0.588932 0.421064
O O11 0.565606 0.250000 0.108624
O O12 0.326486 0.076486 0.125000
O O13 0.250000 0.095651 0.250000
O O14 0.000000 0.531188 0.096566
O O15 0.076165 0.500000 0.000000
#
# Coordination Sequence:
#
# PCOD9572796 Si02
#       6
#    32  32  32  16  32  32
#     4  10  18  34  61  89 118 147 187 250 316 355
#     4  11  21  38  61  88 117 160 201 251 301 365
#     4  11  24  39  57  84 123 166 210 248 290 356
#     4  11  22  36  58  88 120 158 204 246 294 368
#     4  10  23  40  63  88 123 155 190 247 311 368
#     4   9  17  32  57  85 111 147 194 249 299 341
#
# _framework density 18.330749999999998
#
# number of rings (size 3 to 8) (size 9 to 14) (size 15 to 20)
#    0.000    1.727    4.545    1.636    2.545    1.273 
#    0.000    0.000    8.000    0.000    0.000    0.000 
#    0.000    0.000    0.000    0.000    0.000    0.000 
#
# Total GULP energy -491242.018693 kJ/mol
# GULP energy per Si atom -5582.295667 kJ/mol
# Density = 1.828903 g / cm^3
# Si number density = 18.330750 Si / 1000 Ang^3
#
#
#
# Elastic Constant Matrix: (Units=GPa)
#
#
# Indices 1 2 3 4 5 6 
#
# 1 59.5972 33.8819 30.1871 0.0000 0.0000 0.0000
# 2 33.8819 59.5969 30.1851 0.0000 0.0000 0.0000
# 3 30.1871 30.1851 99.4366 0.0000 0.0000 0.0000
# 4 0.0000 0.0000 0.0000 19.4925 0.0000 0.0000
# 5 0.0000 0.0000 0.0000 0.0000 19.4939 0.0000
# 6 0.0000 0.0000 0.0000 0.0000 0.0000 12.6340
#
#
#
# Elastic Compliance Matrix: (Units=1/GPa)
#
#
# Indices 1 2 3 4 5 6 
#
# 1 0.026097 -0.012791 -0.004040 0.000000 0.000000 0.000000
# 2 -0.012791 0.026097 -0.004039 0.000000 0.000000 0.000000
# 3 -0.004040 -0.004039 0.012509 0.000000 0.000000 0.000000
# 4 0.000000 0.000000 0.000000 0.051302 0.000000 0.000000
# 5 0.000000 0.000000 0.000000 0.000000 0.051298 0.000000
# 6 0.000000 0.000000 0.000000 0.000000 0.000000 0.079152
#
#
# Mechanical properties :
#
#
# Convention : Reuss Voigt Hill
#
# Bulk Modulus (GPa) = 43.54599 45.23766 44.39182
# Shear Modulus (GPa) = 16.90053 18.61584 17.75819
#
# Velocity S-wave (km/s) = 3.03970 3.19023 3.11588
# Velocity P-wave (km/s) = 6.01057 6.18888 6.10038
#
# Compressibility (1/GPa) = 0.02296423
#
# Stress axis : x y z
#
# Youngs Moduli (GPa) = 38.31824 38.31893 79.94130
#
# Poissons Ratio (x) = 0.49012 0.32296
# Poissons Ratio (y) = 0.49011 0.32288
# Poissons Ratio (z) = 0.15480 0.15477
#
# Static dielectric constant tensor:
#      x y z
#    x 1.628380 0.000000 0.000000 
#    y 0.000000 1.628370 0.000000 
#    z 0.000000 0.000000 1.636560 
# 
# From -- ./inp_files/5005.got.cif
#   From: 2010.05.17/outbox.cif.g08.bks.cpg/sg141_3_cif.got.tgz:5005.got - 2010.05.20 13:30:51.
