data_PCOD9572167
_publ_section_title
;
Structure prediction by ZEFSAII (Michael W. Deem and Ramdas Pophale) SiO2 
 PCOD9572167
Probable space group: I 4/M C M
;
_chemical_formula_sum "Si O2"
_cell_formula_units_Z 128
_cell_length_a 30.395343
_cell_length_b 30.395343
_cell_length_c 8.478175
_cell_angle_alpha 90.000000
_cell_angle_beta 90.000000
_cell_angle_gamma 90.000000
_cell_volume 7832.789834
_symmetry_space_group_name_H-M "I 4/M C M"
_symmetry_group_IT_number 140
_symmetry_cell_setting 'tetragonal'
loop_
_space_group_symop_operation_xyz
x,y,z
-y,x,z
-x,-y,z
y,-x,z
x,-y,1/2-z
-x,y,1/2-z
y,x,1/2-z
-y,-x,1/2-z
-x,-y,-z
y,-x,-z
x,y,-z
-y,x,-z
-x,y,1/2+z
x,-y,1/2+z
-y,-x,1/2+z
y,x,1/2+z
1/2+x,1/2+y,1/2+z
1/2-y,1/2+x,1/2+z
1/2-x,1/2-y,1/2+z
1/2+y,1/2-x,1/2+z
1/2+x,1/2-y,-z
1/2-x,1/2+y,-z
1/2+y,1/2+x,-z
1/2-y,1/2-x,-z
1/2-x,1/2-y,1/2-z
1/2+y,1/2-x,1/2-z
1/2+x,1/2+y,1/2-z
1/2-y,1/2+x,1/2-z
1/2-x,1/2+y,z
1/2+x,1/2-y,z
1/2-y,1/2-x,z
1/2+y,1/2+x,z
loop_
_atom_site_type_symbol
_atom_site_label
_atom_site_fract_x
_atom_site_fract_y
_atom_site_fract_z
Si Si1 0.201526 0.701526 0.316828
Si Si2 0.646369 0.286091 0.192108
Si Si3 0.364060 0.135941 0.177406
Si Si4 0.662915 0.046544 0.817610
Si Si5 0.269155 0.547460 0.317927
O O1 0.210944 0.710944 0.500000
O O2 0.245556 0.677999 0.251034
O O3 0.164414 0.664414 0.298984
O O4 0.669839 0.330162 0.250000
O O5 0.595564 0.282606 0.248646
O O6 0.645501 0.283631 0.000000
O O7 0.354386 0.085527 0.210657
O O8 0.351424 0.148577 0.000000
O O9 0.716029 0.047726 0.811277
O O10 0.648238 0.000000 0.750000
O O11 0.649992 0.052555 0.000000
O O12 0.283604 0.500000 0.250000
O O13 0.282826 0.547410 0.500000
#
# Coordination Sequence:
#
# PCOD9572167 Si02
#       5
#    16  32  16  32  32
#     4  10  19  35  49  64  99 139 169 206 249 283
#     4  10  20  33  49  70  99 136 170 204 248 292
#     4  12  22  31  49  75  98 126 167 204 245 300
#     4  10  19  34  52  71  96 124 158 205 254 297
#     4   9  18  32  50  70  95 126 162 203 248 288
#
# _framework density 16.341560000000001
#
# number of rings (size 3 to 8) (size 9 to 14) (size 15 to 20)
#    0.000    2.000    2.500    2.250    0.000    3.000 
#    0.000    0.000    0.000    0.375    0.000    2.625 
#    0.000    0.500    0.000    5.500    0.000    4.000 
#
# Total GULP energy -356521.177532 kJ/mol
# GULP energy per Si atom -5570.643399 kJ/mol
# Density = 1.630437 g / cm^3
# Si number density = 16.341560 Si / 1000 Ang^3
#
#
#
# Elastic Constant Matrix: (Units=GPa)
#
#
# Indices 1 2 3 4 5 6 
#
# 1 -185.2083 304.6756 9.6352 0.0000 0.0000 0.0000
# 2 304.6756 -185.2918 9.6713 0.0000 0.0000 0.0000
# 3 9.6352 9.6713 22.9094 0.0000 0.0000 0.0000
# 4 0.0000 0.0000 0.0000 13.8989 0.0000 0.0000
# 5 0.0000 0.0000 0.0000 0.0000 13.9014 0.0000
# 6 0.0000 0.0000 0.0000 0.0000 0.0000 9.9718
#
#
#
# Elastic Compliance Matrix: (Units=1/GPa)
#
#
# Indices 1 2 3 4 5 6 
#
# 1 0.003473 0.005513 -0.003788 0.000000 0.000000 0.000000
# 2 0.005513 0.003471 -0.003784 0.000000 0.000000 0.000000
# 3 -0.003788 -0.003784 0.046841 0.000000 0.000000 0.000000
# 4 0.000000 0.000000 0.000000 0.071948 0.000000 0.000000
# 5 0.000000 0.000000 0.000000 0.000000 0.071935 0.000000
# 6 0.000000 0.000000 0.000000 0.000000 0.000000 0.100283
#
#
# Mechanical properties :
#
#
# Convention : Reuss Voigt Hill
#
# Bulk Modulus (GPa) = 20.13404 33.37486 26.75445
# Shear Modulus (GPa) = 15.69242 -37.21710 -10.76234
#
# Velocity S-wave (km/s) = 3.10220 -4.77744 -2.56908
# Velocity P-wave (km/s) = 5.01787 3.15663 2.75814
#
# Compressibility (1/GPa) = 0.04966713
#
# Stress axis : x y z
#
# Youngs Moduli (GPa) = 287.91666 288.08991 21.34888
#
# Poissons Ratio (x) = -1.58833 0.08087
# Poissons Ratio (y) = -1.58737 0.08079
# Poissons Ratio (z) = 1.09069 1.09017
#
# Static dielectric constant tensor:
#      x y z
#    x 1.557780 0.000000 0.000000 
#    y 0.000000 1.557780 0.000000 
#    z 0.000000 0.000000 1.586820 
# 
# From -- ./inp_files/1482.got.cif
#   From: 2010.05.17/outbox.cif.g08.bks.cpg/sg140_1_cif.got.tgz:1482.got - 2010.06.21 00:45:31.
