data_PCOD9572384
_publ_section_title
;
Structure prediction by ZEFSAII (Michael W. Deem and Ramdas Pophale) SiO2 
 PCOD9572384
Probable space group: I 4/M C M
;
_chemical_formula_sum "Si O2"
_cell_formula_units_Z 176
_cell_length_a 18.680572
_cell_length_b 18.680572
_cell_length_c 26.044039
_cell_angle_alpha 90.000000
_cell_angle_beta 90.000000
_cell_angle_gamma 90.000000
_cell_volume 9088.426042
_symmetry_space_group_name_H-M "I 4/M C M"
_symmetry_group_IT_number 140
_symmetry_cell_setting 'tetragonal'
loop_
_space_group_symop_operation_xyz
x,y,z
-y,x,z
-x,-y,z
y,-x,z
x,-y,1/2-z
-x,y,1/2-z
y,x,1/2-z
-y,-x,1/2-z
-x,-y,-z
y,-x,-z
x,y,-z
-y,x,-z
-x,y,1/2+z
x,-y,1/2+z
-y,-x,1/2+z
y,x,1/2+z
1/2+x,1/2+y,1/2+z
1/2-y,1/2+x,1/2+z
1/2-x,1/2-y,1/2+z
1/2+y,1/2-x,1/2+z
1/2+x,1/2-y,-z
1/2-x,1/2+y,-z
1/2+y,1/2+x,-z
1/2-y,1/2-x,-z
1/2-x,1/2-y,1/2-z
1/2+y,1/2-x,1/2-z
1/2+x,1/2+y,1/2-z
1/2-y,1/2+x,1/2-z
1/2-x,1/2+y,z
1/2+x,1/2-y,z
1/2-y,1/2-x,z
1/2+y,1/2+x,z
loop_
_atom_site_type_symbol
_atom_site_label
_atom_site_fract_x
_atom_site_fract_y
_atom_site_fract_z
Si Si1 0.681580 0.010225 0.361546
Si Si2 0.107865 0.052360 0.000000
Si Si3 0.084913 0.085941 0.693925
Si Si4 0.686477 0.401993 0.102656
Si Si5 0.847543 0.347543 0.329575
Si Si6 0.938952 0.561049 0.560031
Si Si7 0.767136 0.732865 0.629716
Si Si8 0.139368 0.639368 0.207493
O O1 0.760801 0.036341 0.376271
O O2 0.629730 0.032549 0.408702
O O3 0.657701 0.059751 0.313268
O O4 0.673206 0.926881 0.349448
O O5 0.149841 0.073351 0.949062
O O6 0.031767 0.091878 0.000000
O O7 0.110996 0.110996 0.750000
O O8 0.115719 0.128308 0.646475
O O9 0.999009 0.096537 0.691448
O O10 0.731323 0.329814 0.096872
O O11 0.789943 0.289943 0.349564
O O12 0.851285 0.351285 0.267784
O O13 0.924113 0.575888 0.500000
O O14 0.000000 0.500000 0.562617
O O15 0.807281 0.692720 0.676914
#
# Coordination Sequence:
#
# PCOD9572384 Si02
#       8
#    32  16  32  32  16  16  16  16
#     4  10  23  39  62  97 124 168 221 258 322 386
#     4  11  26  45  74 100 121 165 222 279 333 382
#     4   9  19  37  63  93 122 160 213 269 319 376
#     4  11  24  44  64  92 135 170 214 262 334 402
#     4  12  22  38  66  96 132 166 213 275 315 378
#     4  10  20  41  65  84 120 162 217 273 308 357
#     4  10  26  42  59  90 138 174 210 258 325 402
#     4   9  21  44  59  89 131 180 214 254 322 392
#
# _framework density 19.365289000000001
#
# number of rings (size 3 to 8) (size 9 to 14) (size 15 to 20)
#    0.000    1.818    0.909    3.000    6.364    4.727 
#    6.545    0.909    2.000    0.000    0.000    0.000 
#    0.000    0.000    0.000    0.000    0.000    0.000 
#
# Total GULP energy -491787.631665 kJ/mol
# GULP energy per Si atom -5588.495814 kJ/mol
# Density = 1.932121 g / cm^3
# Si number density = 19.365289 Si / 1000 Ang^3
#
#
#
# Elastic Constant Matrix: (Units=GPa)
#
#
# Indices 1 2 3 4 5 6 
#
# 1 121.0453 41.3034 39.9732 0.0000 0.0000 0.0000
# 2 41.3034 121.0452 39.9732 0.0000 0.0000 0.0000
# 3 39.9732 39.9732 93.2900 0.0000 0.0000 0.0000
# 4 0.0000 0.0000 0.0000 28.8624 0.0000 0.0000
# 5 0.0000 0.0000 0.0000 0.0000 28.8623 0.0000
# 6 0.0000 0.0000 0.0000 0.0000 0.0000 1.2889
#
#
#
# Elastic Compliance Matrix: (Units=1/GPa)
#
#
# Indices 1 2 3 4 5 6 
#
# 1 0.010174 -0.002367 -0.003345 0.000000 0.000000 0.000000
# 2 -0.002367 0.010174 -0.003345 0.000000 0.000000 0.000000
# 3 -0.003345 -0.003345 0.013586 0.000000 0.000000 0.000000
# 4 0.000000 0.000000 0.000000 0.034647 0.000000 0.000000
# 5 0.000000 0.000000 0.000000 0.000000 0.034647 0.000000
# 6 0.000000 0.000000 0.000000 0.000000 0.000000 0.775883
#
#
# Mechanical properties :
#
#
# Convention : Reuss Voigt Hill
#
# Bulk Modulus (GPa) = 63.21444 64.20892 63.71168
# Shear Modulus (GPa) = 5.54018 26.07808 15.80913
#
# Velocity S-wave (km/s) = 1.69325 3.67364 2.86031
# Velocity P-wave (km/s) = 6.04457 7.15702 6.62419
#
# Compressibility (1/GPa) = 0.01581917
#
# Stress axis : x y z
#
# Youngs Moduli (GPa) = 98.29316 98.29313 73.60573
#
# Poissons Ratio (x) = 0.23264 0.24622
# Poissons Ratio (y) = 0.23264 0.24622
# Poissons Ratio (z) = 0.32880 0.32880
#
# Static dielectric constant tensor:
#      x y z
#    x 1.676170 0.000000 0.000000 
#    y 0.000000 1.676170 0.000000 
#    z 0.000000 0.000000 1.640380 
# 
# From -- ./inp_files/10800.got.cif
#   From: 2010.05.17/outbox.cif.g08.bks.cpg/sg140_6_cif.got.tgz:10800.got - 2010.06.21 00:45:31.
