data_PCOD9572195
_publ_section_title
;
Structure prediction by ZEFSAII (Michael W. Deem and Ramdas Pophale) SiO2 
 PCOD9572195
Probable space group: I 4/M C M
;
_chemical_formula_sum "Si O2"
_cell_formula_units_Z 160
_cell_length_a 23.637636
_cell_length_b 23.637636
_cell_length_c 14.399437
_cell_angle_alpha 90.000000
_cell_angle_beta 90.000000
_cell_angle_gamma 90.000000
_cell_volume 8045.510264
_symmetry_space_group_name_H-M "I 4/M C M"
_symmetry_group_IT_number 140
_symmetry_cell_setting 'tetragonal'
loop_
_space_group_symop_operation_xyz
x,y,z
-y,x,z
-x,-y,z
y,-x,z
x,-y,1/2-z
-x,y,1/2-z
y,x,1/2-z
-y,-x,1/2-z
-x,-y,-z
y,-x,-z
x,y,-z
-y,x,-z
-x,y,1/2+z
x,-y,1/2+z
-y,-x,1/2+z
y,x,1/2+z
1/2+x,1/2+y,1/2+z
1/2-y,1/2+x,1/2+z
1/2-x,1/2-y,1/2+z
1/2+y,1/2-x,1/2+z
1/2+x,1/2-y,-z
1/2-x,1/2+y,-z
1/2+y,1/2+x,-z
1/2-y,1/2-x,-z
1/2-x,1/2-y,1/2-z
1/2+y,1/2-x,1/2-z
1/2+x,1/2+y,1/2-z
1/2-y,1/2+x,1/2-z
1/2-x,1/2+y,z
1/2+x,1/2-y,z
1/2-y,1/2-x,z
1/2+y,1/2+x,z
loop_
_atom_site_type_symbol
_atom_site_label
_atom_site_fract_x
_atom_site_fract_y
_atom_site_fract_z
Si Si1 0.500083 0.332608 0.862854
Si Si2 0.764665 0.826770 0.393701
Si Si3 0.202409 0.481029 0.604479
Si Si4 0.379855 0.621205 0.638594
Si Si5 0.685180 0.091089 0.783965
O O1 0.500000 0.330431 0.750000
O O2 0.495292 0.268834 0.896832
O O3 0.443050 0.364434 0.892039
O O4 0.559158 0.359960 0.892771
O O5 0.749208 0.842317 0.500000
O O6 0.733451 0.766550 0.375155
O O7 0.832239 0.832376 0.387263
O O8 0.737992 0.872738 0.323796
O O9 0.182897 0.468826 0.500000
O O10 0.175541 0.537230 0.649667
O O11 0.195175 0.431620 0.680184
O O12 0.380523 0.619478 0.750000
O O13 0.632499 0.132499 0.787009
#
# Coordination Sequence:
#
# PCOD9572195 Si02
#       5
#    32  32  32  32  32
#     4  10  19  36  56  83 119 164 208 257 314 362
#     4  10  20  36  60  88 119 161 213 264 316 381
#     4  11  21  37  62  90 124 162 204 252 313 377
#     4  10  20  34  56  82 119 163 211 260 312 366
#     4  10  20  37  62  91 123 158 204 257 307 368
#
# _framework density 19.886866999999999
#
# number of rings (size 3 to 8) (size 9 to 14) (size 15 to 20)
#    0.000    1.800    4.000    1.800    0.000    3.200 
#    0.000    3.000    0.000    4.800    0.000    8.400 
#    0.000    0.000    0.000    0.000    0.000    0.000 
#
# Total GULP energy -446803.712969 kJ/mol
# GULP energy per Si atom -5585.046412 kJ/mol
# Density = 1.984160 g / cm^3
# Si number density = 19.886867 Si / 1000 Ang^3
#
#
#
# Elastic Constant Matrix: (Units=GPa)
#
#
# Indices 1 2 3 4 5 6 
#
# 1 85.8853 56.0330 17.4266 0.0000 0.0000 0.0000
# 2 56.0330 85.8864 17.4270 0.0000 0.0000 0.0000
# 3 17.4266 17.4270 135.7295 0.0000 0.0000 0.0000
# 4 0.0000 0.0000 0.0000 1.1370 0.0000 0.0000
# 5 0.0000 0.0000 0.0000 0.0000 1.1369 0.0000
# 6 0.0000 0.0000 0.0000 0.0000 0.0000 23.7547
#
#
#
# Elastic Compliance Matrix: (Units=1/GPa)
#
#
# Indices 1 2 3 4 5 6 
#
# 1 0.020387 -0.013111 -0.000934 0.000000 0.000000 0.000000
# 2 -0.013111 0.020387 -0.000934 0.000000 0.000000 0.000000
# 3 -0.000934 -0.000934 0.007607 0.000000 0.000000 0.000000
# 4 0.000000 0.000000 0.000000 0.879541 0.000000 0.000000
# 5 0.000000 0.000000 0.000000 0.000000 0.879585 0.000000
# 6 0.000000 0.000000 0.000000 0.000000 0.000000 0.042097
#
#
# Mechanical properties :
#
#
# Convention : Reuss Voigt Hill
#
# Bulk Modulus (GPa) = 54.28217 54.36383 54.32300
# Shear Modulus (GPa) = 2.65153 19.64669 11.14911
#
# Velocity S-wave (km/s) = 1.15594 3.14653 2.37032
# Velocity P-wave (km/s) = 5.39781 6.37156 5.90479
#
# Compressibility (1/GPa) = 0.01842226
#
# Stress axis : x y z
#
# Youngs Moduli (GPa) = 49.05144 49.05204 131.44965
#
# Poissons Ratio (x) = 0.64312 0.12279
# Poissons Ratio (y) = 0.64311 0.12280
# Poissons Ratio (z) = 0.04582 0.04582
#
# Static dielectric constant tensor:
#      x y z
#    x 1.694270 0.000000 0.000000 
#    y 0.000000 1.694270 0.000000 
#    z 0.000000 0.000000 1.774190 
# 
# From -- ./inp_files/4704.got.cif
#   From: 2010.05.17/outbox.cif.g08.bks.cpg/sg140_3_cif.got.tgz:4704.got - 2010.06.21 00:45:31.
