data_PCOD9572881
_publ_section_title
;
Structure prediction by ZEFSAII (Michael W. Deem and Ramdas Pophale) SiO2 
 PCOD9572881
Probable space group: I 41/A M D
;
_chemical_formula_sum "Si O2"
_cell_formula_units_Z 160
_cell_length_a 20.723252
_cell_length_b 20.723252
_cell_length_c 19.848506
_cell_angle_alpha 90.000000
_cell_angle_beta 90.000000
_cell_angle_gamma 90.000000
_cell_volume 8524.003890
_symmetry_space_group_name_H-M "I 41/A M D"
_symmetry_group_IT_number 141
_space_group.IT_coordinate_system_code '2'
_symmetry_cell_setting 'tetragonal'
loop_
_space_group_symop_operation_xyz
x,y,z
1/4-y,3/4+x,1/4+z
-x,1/2-y,z
1/4+y,1/4-x,3/4+z
x,-y,-z
-x,1/2+y,-z
1/4+y,3/4+x,1/4-z
1/4-y,1/4-x,3/4-z
-x,-y,-z
3/4+y,1/4-x,3/4-z
x,1/2+y,-z
3/4-y,3/4+x,1/4-z
-x,y,z
x,1/2-y,z
3/4-y,1/4-x,3/4+z
3/4+y,3/4+x,1/4+z
1/2+x,1/2+y,1/2+z
3/4-y,1/4+x,3/4+z
1/2-x,-y,1/2+z
3/4+y,3/4-x,1/4+z
1/2+x,1/2-y,1/2-z
1/2-x,y,1/2-z
3/4+y,1/4+x,3/4-z
3/4-y,3/4-x,1/4-z
1/2-x,1/2-y,1/2-z
1/4+y,3/4-x,1/4-z
1/2+x,y,1/2-z
1/4-y,1/4+x,3/4-z
1/2-x,1/2+y,1/2+z
1/2+x,-y,1/2+z
1/4-y,3/4-x,1/4+z
1/4+y,1/4+x,3/4+z
loop_
_atom_site_type_symbol
_atom_site_label
_atom_site_fract_x
_atom_site_fract_y
_atom_site_fract_z
Si Si1 0.500000 0.350630 0.596116
Si Si2 0.741440 0.322326 0.138300
Si Si3 0.071921 0.643434 0.412041
Si Si4 0.176089 0.000000 0.500000
Si Si5 0.799042 0.359319 0.511309
Si Si6 0.000000 0.497738 0.858489
Si Si7 0.500000 0.372406 0.437528
O O1 0.561431 0.311431 0.625000
O O2 0.500000 0.424530 0.618621
O O3 0.500000 0.353368 0.515135
O O4 0.720494 0.250000 0.159487
O O5 0.819294 0.322496 0.138532
O O6 0.725136 0.378415 0.191020
O O7 0.715998 0.338335 0.064432
O O8 0.126073 0.650966 0.468959
O O9 0.092202 0.688474 0.350291
O O10 0.000000 0.659804 0.435124
O O11 0.214577 0.064115 0.520919
O O12 0.761302 0.312831 0.562403
O O13 0.000000 0.551261 0.918375
#
# Coordination Sequence:
#
# PCOD9572881 Si02
#       7
#    16  32  32  16  32  16  16
#     4  11  27  40  63  96 121 150 199 255 296 348
#     4  10  19  34  59  82 117 159 198 247 300 358
#     4   9  20  34  60  88 116 156 202 243 295 367
#     4  10  21  36  54  90 120 149 204 252 302 361
#     4  10  20  37  60  86 114 159 203 245 301 357
#     4  10  22  44  64  84 120 161 202 236 303 378
#     4  10  21  39  62  88 121 160 190 242 309 357
#
# _framework density 18.770520999999999
#
# number of rings (size 3 to 8) (size 9 to 14) (size 15 to 20)
#    0.000    2.100    1.000    1.500    5.600    0.800 
#    0.000    6.000    0.000    0.000    0.000    0.000 
#    0.000    0.000    0.000    0.000    0.000    0.000 
#
# Total GULP energy -446440.765074 kJ/mol
# GULP energy per Si atom -5580.509563 kJ/mol
# Density = 1.872780 g / cm^3
# Si number density = 18.770521 Si / 1000 Ang^3
#
#
#
# Elastic Constant Matrix: (Units=GPa)
#
#
# Indices 1 2 3 4 5 6 
#
# 1 51.1128 1.8853 -9.4679 0.0000 0.0000 0.0000
# 2 1.8853 51.1128 -9.4679 0.0000 0.0000 0.0000
# 3 -9.4679 -9.4679 76.3994 0.0000 0.0000 0.0000
# 4 0.0000 0.0000 0.0000 14.7708 0.0000 0.0000
# 5 0.0000 0.0000 0.0000 0.0000 14.7708 0.0000
# 6 0.0000 0.0000 0.0000 0.0000 0.0000 9.9861
#
#
#
# Elastic Compliance Matrix: (Units=1/GPa)
#
#
# Indices 1 2 3 4 5 6 
#
# 1 0.020028 -0.000286 0.002447 0.000000 0.000000 0.000000
# 2 -0.000286 0.020028 0.002447 0.000000 0.000000 0.000000
# 3 0.002447 0.002447 0.013696 0.000000 0.000000 0.000000
# 4 0.000000 0.000000 0.000000 0.067701 0.000000 0.000000
# 5 0.000000 0.000000 0.000000 0.000000 0.067701 0.000000
# 6 0.000000 0.000000 0.000000 0.000000 0.000000 0.100140
#
#
# Mechanical properties :
#
#
# Convention : Reuss Voigt Hill
#
# Bulk Modulus (GPa) = 15.88115 16.05820 15.96968
# Shear Modulus (GPa) = 16.60756 20.95057 18.77907
#
# Velocity S-wave (km/s) = 2.97773 3.34450 3.16643
# Velocity P-wave (km/s) = 4.50573 4.84642 4.67918
#
# Compressibility (1/GPa) = 0.06296772
#
# Stress axis : x y z
#
# Youngs Moduli (GPa) = 49.92932 49.92932 73.01651
#
# Poissons Ratio (x) = 0.01426 -0.17865
# Poissons Ratio (y) = 0.01426 -0.17865
# Poissons Ratio (z) = -0.12216 -0.12216
#
# Static dielectric constant tensor:
#      x y z
#    x 1.666380 0.000000 0.000000 
#    y 0.000000 1.666380 0.000000 
#    z 0.000000 0.000000 1.625960 
# 
# From -- ./inp_files/8727.got.cif
#   From: 2010.05.17/outbox.cif.g08.bks.cpg/sg141_5_cif.got.tgz:8727.got - 2010.05.20 13:30:51.
