data_PCOD9572512
_publ_section_title
;
Structure prediction by ZEFSAII (Michael W. Deem and Ramdas Pophale) SiO2 
 PCOD9572512
Probable space group: I 4/M C M
;
_chemical_formula_sum "Si O2"
_cell_formula_units_Z 112
_cell_length_a 13.764783
_cell_length_b 13.764783
_cell_length_c 32.455246
_cell_angle_alpha 90.000000
_cell_angle_beta 90.000000
_cell_angle_gamma 90.000000
_cell_volume 6149.271152
_symmetry_space_group_name_H-M "I 4/M C M"
_symmetry_group_IT_number 140
_symmetry_cell_setting 'tetragonal'
loop_
_space_group_symop_operation_xyz
x,y,z
-y,x,z
-x,-y,z
y,-x,z
x,-y,1/2-z
-x,y,1/2-z
y,x,1/2-z
-y,-x,1/2-z
-x,-y,-z
y,-x,-z
x,y,-z
-y,x,-z
-x,y,1/2+z
x,-y,1/2+z
-y,-x,1/2+z
y,x,1/2+z
1/2+x,1/2+y,1/2+z
1/2-y,1/2+x,1/2+z
1/2-x,1/2-y,1/2+z
1/2+y,1/2-x,1/2+z
1/2+x,1/2-y,-z
1/2-x,1/2+y,-z
1/2+y,1/2+x,-z
1/2-y,1/2-x,-z
1/2-x,1/2-y,1/2-z
1/2+y,1/2-x,1/2-z
1/2+x,1/2+y,1/2-z
1/2-y,1/2+x,1/2-z
1/2-x,1/2+y,z
1/2+x,1/2-y,z
1/2-y,1/2-x,z
1/2+y,1/2+x,z
loop_
_atom_site_type_symbol
_atom_site_label
_atom_site_fract_x
_atom_site_fract_y
_atom_site_fract_z
Si Si1 0.496177 0.161887 0.000000
Si Si2 0.277034 0.378810 0.620785
Si Si3 0.921635 0.741781 0.083558
Si Si4 0.112469 0.120139 0.295183
O O1 0.523013 0.222763 0.959390
O O2 0.573658 0.073658 0.000000
O O3 0.390286 0.109715 0.000000
O O4 0.176280 0.323721 0.615310
O O5 0.351524 0.335047 0.587016
O O6 0.259230 0.492417 0.615861
O O7 0.322683 0.351301 0.665034
O O8 0.850937 0.649064 0.091478
O O9 0.150392 0.150392 0.250000
O O10 0.995323 0.131011 0.297029
#
# Coordination Sequence:
#
# PCOD9572512 Si02
#       4
#    16  32  32  32
#     4   9  18  36  58  77 109 153 186 225 277 329
#     4  11  21  34  57  83 112 150 184 236 290 329
#     4  10  22  37  55  84 114 146 195 234 278 344
#     4   9  17  32  55  79 107 145 186 229 282 336
#
# _framework density 18.213539999999998
#
# number of rings (size 3 to 8) (size 9 to 14) (size 15 to 20)
#    0.000    2.143    2.857    1.714    0.000    4.000 
#    0.000    2.857    0.000    1.714    0.000    0.000 
#    0.000    0.000    0.000    0.000    0.000    0.000 
#
# Total GULP energy -311853.038380 kJ/mol
# GULP energy per Si atom -5568.804257 kJ/mol
# Density = 1.817209 g / cm^3
# Si number density = 18.213540 Si / 1000 Ang^3
#
#
#
# Elastic Constant Matrix: (Units=GPa)
#
#
# Indices 1 2 3 4 5 6 
#
# 1 70.6327 32.0535 18.5527 0.0000 0.0000 0.0000
# 2 32.0535 70.6326 18.5525 0.0000 0.0000 0.0000
# 3 18.5527 18.5525 97.8910 0.0000 0.0000 0.0000
# 4 0.0000 0.0000 0.0000 19.7726 0.0000 0.0000
# 5 0.0000 0.0000 0.0000 0.0000 19.7728 0.0000
# 6 0.0000 0.0000 0.0000 0.0000 0.0000 13.0708
#
#
#
# Elastic Compliance Matrix: (Units=1/GPa)
#
#
# Indices 1 2 3 4 5 6 
#
# 1 0.018188 -0.007733 -0.001981 0.000000 0.000000 0.000000
# 2 -0.007733 0.018188 -0.001981 0.000000 0.000000 0.000000
# 3 -0.001981 -0.001981 0.010966 0.000000 0.000000 0.000000
# 4 0.000000 0.000000 0.000000 0.050575 0.000000 0.000000
# 5 0.000000 0.000000 0.000000 0.000000 0.050575 0.000000
# 6 0.000000 0.000000 0.000000 0.000000 0.000000 0.076506
#
#
# Mechanical properties :
#
#
# Convention : Reuss Voigt Hill
#
# Bulk Modulus (GPa) = 41.75398 41.94153 41.84776
# Shear Modulus (GPa) = 19.50285 21.85640 20.67963
#
# Velocity S-wave (km/s) = 3.27584 3.46787 3.37322
# Velocity P-wave (km/s) = 6.10595 6.25400 6.18042
#
# Compressibility (1/GPa) = 0.02394981
#
# Stress axis : x y z
#
# Youngs Moduli (GPa) = 54.98264 54.98257 91.18714
#
# Poissons Ratio (x) = 0.42519 0.18067
# Poissons Ratio (y) = 0.42519 0.18067
# Poissons Ratio (z) = 0.10894 0.10894
#
# Static dielectric constant tensor:
#      x y z
#    x 1.603050 0.000000 0.000000 
#    y 0.000000 1.603050 0.000000 
#    z 0.000000 0.000000 1.684400 
# 
# From -- ./inp_files/11259.got.cif
#   From: 2010.05.17/outbox.cif.g08.bks.cpg/sg140_6_cif.got.tgz:11259.got - 2010.06.21 00:45:31.
