data_PCOD9572138
_publ_section_title
;
Structure prediction by ZEFSAII (Michael W. Deem and Ramdas Pophale) SiO2 
 PCOD9572138
Probable space group: I 4/M C M
;
_chemical_formula_sum "Si O2"
_cell_formula_units_Z 176
_cell_length_a 18.354598
_cell_length_b 18.354598
_cell_length_c 31.167909
_cell_angle_alpha 90.000000
_cell_angle_beta 90.000000
_cell_angle_gamma 90.000000
_cell_volume 10500.196376
_symmetry_space_group_name_H-M "I 4/M C M"
_symmetry_group_IT_number 140
_symmetry_cell_setting 'tetragonal'
loop_
_space_group_symop_operation_xyz
x,y,z
-y,x,z
-x,-y,z
y,-x,z
x,-y,1/2-z
-x,y,1/2-z
y,x,1/2-z
-y,-x,1/2-z
-x,-y,-z
y,-x,-z
x,y,-z
-y,x,-z
-x,y,1/2+z
x,-y,1/2+z
-y,-x,1/2+z
y,x,1/2+z
1/2+x,1/2+y,1/2+z
1/2-y,1/2+x,1/2+z
1/2-x,1/2-y,1/2+z
1/2+y,1/2-x,1/2+z
1/2+x,1/2-y,-z
1/2-x,1/2+y,-z
1/2+y,1/2+x,-z
1/2-y,1/2-x,-z
1/2-x,1/2-y,1/2-z
1/2+y,1/2-x,1/2-z
1/2+x,1/2+y,1/2-z
1/2-y,1/2+x,1/2-z
1/2-x,1/2+y,z
1/2+x,1/2-y,z
1/2-y,1/2-x,z
1/2+y,1/2+x,z
loop_
_atom_site_type_symbol
_atom_site_label
_atom_site_fract_x
_atom_site_fract_y
_atom_site_fract_z
Si Si1 0.561116 0.938885 0.550621
Si Si2 0.834137 0.782451 0.151317
Si Si3 0.065650 0.793774 0.500000
Si Si4 0.422014 0.590388 0.801548
Si Si5 0.953597 0.284253 0.410129
Si Si6 0.117981 0.267088 0.407802
Si Si7 0.397470 0.298591 0.000000
O O1 0.576992 0.923009 0.500000
O O2 0.632413 0.963510 0.576070
O O3 0.500000 0.000000 0.551174
O O4 0.774860 0.725141 0.170661
O O5 0.874542 0.842222 0.180966
O O6 0.894274 0.735473 0.125513
O O7 0.789479 0.831359 0.117296
O O8 0.072241 0.750799 0.455253
O O9 0.127384 0.853414 0.500000
O O10 0.982309 0.819215 0.500000
O O11 0.400279 0.507357 0.814865
O O12 0.413699 0.586302 0.750000
O O13 0.033563 0.258553 0.395601
O O14 0.153734 0.346267 0.400468
O O15 0.120051 0.248127 0.458056
#
# Coordination Sequence:
#
# PCOD9572138 Si02
#       7
#    16  32  16  32  32  32  16
#     4  11  22  34  50  70  97 142 194 243 278 315
#     4  11  21  33  54  81 110 140 169 216 272 325
#     4  10  20  32  49  65  98 137 181 227 268 312
#     4   9  19  38  62  85 110 141 173 211 263 327
#     4  11  20  35  49  71 102 138 184 228 275 318
#     4  10  21  33  49  71  98 136 178 223 265 312
#     4  10  19  33  47  66  95 138 180 224 264 320
#
# _framework density 16.761590999999999
#
# number of rings (size 3 to 8) (size 9 to 14) (size 15 to 20)
#    0.000    1.727    3.636    2.455    0.000    0.545 
#    1.636    0.000    0.000    0.000    0.000    0.000 
#    0.000    0.000    0.000    0.000    0.000    0.000 
#
# Total GULP energy -490245.672087 kJ/mol
# GULP energy per Si atom -5570.973546 kJ/mol
# Density = 1.672344 g / cm^3
# Si number density = 16.761591 Si / 1000 Ang^3
#
#
#
# Elastic Constant Matrix: (Units=GPa)
#
#
# Indices 1 2 3 4 5 6 
#
# 1 22.0292 110.8905 29.8622 0.0000 0.0000 0.0000
# 2 110.8905 22.0242 29.8654 0.0000 0.0000 0.0000
# 3 29.8622 29.8654 30.4591 0.0000 0.0000 0.0000
# 4 0.0000 0.0000 0.0000 28.5278 0.0000 0.0000
# 5 0.0000 0.0000 0.0000 0.0000 28.5286 0.0000
# 6 0.0000 0.0000 0.0000 0.0000 0.0000 -11.6506
#
#
#
# Elastic Compliance Matrix: (Units=1/GPa)
#
#
# Indices 1 2 3 4 5 6 
#
# 1 0.001099 0.012351 -0.013187 0.000000 0.000000 0.000000
# 2 0.012351 0.001097 -0.013184 0.000000 0.000000 0.000000
# 3 -0.013187 -0.013184 0.058687 0.000000 0.000000 0.000000
# 4 0.000000 0.000000 0.000000 0.035054 0.000000 0.000000
# 5 0.000000 0.000000 0.000000 0.000000 0.035053 0.000000
# 6 0.000000 0.000000 0.000000 0.000000 0.000000 -0.085832
#
#
# Mechanical properties :
#
#
# Convention : Reuss Voigt Hill
#
# Bulk Modulus (GPa) = 30.44956 46.19430 38.32193
# Shear Modulus (GPa) = 59.42128 2.67412 31.04770
#
# Velocity S-wave (km/s) = 5.96052 1.26446 4.30852
# Velocity P-wave (km/s) = 8.09791 5.45447 6.90389
#
# Compressibility (1/GPa) = 0.03284120
#
# Stress axis : x y z
#
# Youngs Moduli (GPa) = 910.25987 911.66877 17.03950
#
# Poissons Ratio (x) = -11.25995 0.22470
# Poissons Ratio (y) = -11.24254 0.22466
# Poissons Ratio (z) = 12.00382 12.01980
#
# Static dielectric constant tensor:
#      x y z
#    x 1.588690 0.000000 0.000000 
#    y 0.000000 1.588690 0.000000 
#    z 0.000000 0.000000 1.538550 
# 
# From -- ./inp_files/10771.got.cif
#   From: 2010.05.17/outbox.cif.g08.bks.cpg/sg140_6_cif.got.tgz:10771.got - 2010.06.21 00:45:31.
