data_PCOD9572624
_publ_section_title
;
Structure prediction by ZEFSAII (Michael W. Deem and Ramdas Pophale) SiO2 
 PCOD9572624
Probable space group: I 4/M C M
;
_chemical_formula_sum "Si O2"
_cell_formula_units_Z 96
_cell_length_a 23.072729
_cell_length_b 23.072729
_cell_length_c 8.439565
_cell_angle_alpha 90.000000
_cell_angle_beta 90.000000
_cell_angle_gamma 90.000000
_cell_volume 4492.809378
_symmetry_space_group_name_H-M "I 4/M C M"
_symmetry_group_IT_number 140
_symmetry_cell_setting 'tetragonal'
loop_
_space_group_symop_operation_xyz
x,y,z
-y,x,z
-x,-y,z
y,-x,z
x,-y,1/2-z
-x,y,1/2-z
y,x,1/2-z
-y,-x,1/2-z
-x,-y,-z
y,-x,-z
x,y,-z
-y,x,-z
-x,y,1/2+z
x,-y,1/2+z
-y,-x,1/2+z
y,x,1/2+z
1/2+x,1/2+y,1/2+z
1/2-y,1/2+x,1/2+z
1/2-x,1/2-y,1/2+z
1/2+y,1/2-x,1/2+z
1/2+x,1/2-y,-z
1/2-x,1/2+y,-z
1/2+y,1/2+x,-z
1/2-y,1/2-x,-z
1/2-x,1/2-y,1/2-z
1/2+y,1/2-x,1/2-z
1/2+x,1/2+y,1/2-z
1/2-y,1/2+x,1/2-z
1/2-x,1/2+y,z
1/2+x,1/2-y,z
1/2-y,1/2-x,z
1/2+y,1/2+x,z
loop_
_atom_site_type_symbol
_atom_site_label
_atom_site_fract_x
_atom_site_fract_y
_atom_site_fract_z
Si Si1 0.566679 0.158257 0.689711
Si Si2 0.562520 0.356147 0.688844
Si Si3 0.850882 0.761837 0.184909
O O1 0.500000 0.165894 0.750000
O O2 0.563782 0.161266 0.500000
O O3 0.596739 0.096739 0.736159
O O4 0.614366 0.206841 0.742566
O O5 0.500000 0.341391 0.750000
O O6 0.580669 0.419332 0.750000
O O7 0.568723 0.350494 0.500000
O O8 0.603961 0.312790 0.781645
O O9 0.791378 0.791378 0.250000
O O10 0.842996 0.751062 0.000000
#
# Coordination Sequence:
#
# PCOD9572624 Si02
#       3
#    32  32  32
#     4  11  25  45  69  98 133 174 221 273 330 392
#     4  11  21  35  53  77 110 151 200 253 312 375
#     4  11  22  39  64  94 128 166 210 261 319 383
#
# _framework density 21.367476
#
# number of rings (size 3 to 8) (size 9 to 14) (size 15 to 20)
#    0.000    1.000    0.000   10.000    0.000    4.000 
#    0.000    3.333    0.000    0.000    0.000    0.000 
#    0.000    0.000    0.000    0.000    0.000    0.000 
#
# Total GULP energy -267632.950099 kJ/mol
# GULP energy per Si atom -5575.686460 kJ/mol
# Density = 2.131884 g / cm^3
# Si number density = 21.367476 Si / 1000 Ang^3
#
#
#
# Elastic Constant Matrix: (Units=GPa)
#
#
# Indices 1 2 3 4 5 6 
#
# 1 81.0989 143.3788 34.3331 0.0000 0.0000 0.0000
# 2 143.3788 81.0989 34.3427 0.0000 0.0000 0.0000
# 3 34.3331 34.3427 114.3508 0.0000 0.0000 0.0000
# 4 0.0000 0.0000 0.0000 -15.9174 0.0000 0.0000
# 5 0.0000 0.0000 0.0000 0.0000 -15.9135 0.0000
# 6 0.0000 0.0000 0.0000 0.0000 0.0000 54.6665
#
#
#
# Elastic Compliance Matrix: (Units=1/GPa)
#
#
# Indices 1 2 3 4 5 6 
#
# 1 -0.005575 0.010481 -0.001474 0.000000 0.000000 0.000000
# 2 0.010481 -0.005576 -0.001472 0.000000 0.000000 0.000000
# 3 -0.001474 -0.001472 0.009630 0.000000 0.000000 0.000000
# 4 0.000000 0.000000 0.000000 -0.062824 0.000000 0.000000
# 5 0.000000 0.000000 0.000000 0.000000 -0.062840 0.000000
# 6 0.000000 0.000000 0.000000 0.000000 0.000000 0.018293
#
#
# Mechanical properties :
#
#
# Convention : Reuss Voigt Hill
#
# Bulk Modulus (GPa) = 73.80929 77.85085 75.83007
# Shear Modulus (GPa) = -41.85976 8.86673 -16.49652
#
# Velocity S-wave (km/s) = -4.43091 2.03928 -2.78157
# Velocity P-wave (km/s) = 2.90526 6.48523 5.02488
#
# Compressibility (1/GPa) = 0.01354843
#
# Stress axis : x y z
#
# Youngs Moduli (GPa) = -179.36158 -179.34691 103.84563
#
# Poissons Ratio (x) = 1.87973 0.15304
# Poissons Ratio (y) = 1.87989 0.15289
# Poissons Ratio (z) = -0.26434 -0.26405
#
# Static dielectric constant tensor:
#      x y z
#    x 1.761480 0.000000 0.000000 
#    y 0.000000 1.761490 0.000000 
#    z 0.000000 0.000000 1.726920 
# 
# From -- ./inp_files/926.got.cif
#   From: 2010.05.17/outbox.cif.g08.bks.cpg/sg140_1_cif.got.tgz:926.got - 2010.06.21 00:45:31.
