data_PCOD9572899
_publ_section_title
;
Structure prediction by ZEFSAII (Michael W. Deem and Ramdas Pophale) SiO2 
 PCOD9572899
Probable space group: I 41/A M D
;
_chemical_formula_sum "Si O2"
_cell_formula_units_Z 160
_cell_length_a 16.998782
_cell_length_b 16.998782
_cell_length_c 24.106065
_cell_angle_alpha 90.000000
_cell_angle_beta 90.000000
_cell_angle_gamma 90.000000
_cell_volume 6965.654540
_symmetry_space_group_name_H-M "I 41/A M D"
_symmetry_group_IT_number 141
_space_group.IT_coordinate_system_code '2'
_symmetry_cell_setting 'tetragonal'
loop_
_space_group_symop_operation_xyz
x,y,z
1/4-y,3/4+x,1/4+z
-x,1/2-y,z
1/4+y,1/4-x,3/4+z
x,-y,-z
-x,1/2+y,-z
1/4+y,3/4+x,1/4-z
1/4-y,1/4-x,3/4-z
-x,-y,-z
3/4+y,1/4-x,3/4-z
x,1/2+y,-z
3/4-y,3/4+x,1/4-z
-x,y,z
x,1/2-y,z
3/4-y,1/4-x,3/4+z
3/4+y,3/4+x,1/4+z
1/2+x,1/2+y,1/2+z
3/4-y,1/4+x,3/4+z
1/2-x,-y,1/2+z
3/4+y,3/4-x,1/4+z
1/2+x,1/2-y,1/2-z
1/2-x,y,1/2-z
3/4+y,1/4+x,3/4-z
3/4-y,3/4-x,1/4-z
1/2-x,1/2-y,1/2-z
1/4+y,3/4-x,1/4-z
1/2+x,y,1/2-z
1/4-y,1/4+x,3/4-z
1/2-x,1/2+y,1/2+z
1/2+x,-y,1/2+z
1/4-y,3/4-x,1/4+z
1/4+y,1/4+x,3/4+z
loop_
_atom_site_type_symbol
_atom_site_label
_atom_site_fract_x
_atom_site_fract_y
_atom_site_fract_z
Si Si1 0.907764 0.442264 0.754712
Si Si2 0.190942 0.902684 0.401591
Si Si3 0.500000 0.158095 0.328412
Si Si4 0.914039 0.475391 0.361576
Si Si5 0.500000 0.343133 0.195531
Si Si6 0.409822 0.427645 0.578765
O O1 0.866845 0.507355 0.794020
O O2 0.906492 0.467133 0.691319
O O3 0.859640 0.364750 0.770549
O O4 0.000000 0.436714 0.770875
O O5 0.129475 0.830650 0.399606
O O6 0.151275 0.988751 0.401943
O O7 0.248605 0.891416 0.349169
O O8 0.500000 0.250000 0.339814
O O9 0.500000 0.145858 0.261438
O O10 0.000000 0.485967 0.388753
O O11 0.925890 0.390702 0.330727
O O12 0.500000 0.250000 0.184443
O O13 0.500000 0.449413 0.581311
O O14 0.388523 0.361478 0.625000
#
# Coordination Sequence:
#
# PCOD9572899 Si02
#       6
#    32  32  16  32  16  32
#     4  10  19  37  53  76 124 167 211 265 312 369
#     4  11  17  33  52  80 120 157 210 260 312 372
#     4  11  18  30  58  85 117 173 213 254 305 384
#     4   9  19  34  53  84 123 151 203 269 322 381
#     4   9  18  36  60  85 120 168 204 258 327 402
#     4  10  20  32  52  74 112 170 215 254 299 369
#
# _framework density 22.969843999999998
#
# number of rings (size 3 to 8) (size 9 to 14) (size 15 to 20)
#    0.600    1.400    4.000    2.400    0.000    2.200 
#    1.800    1.000    0.000    0.000    0.000   28.000 
#    0.000    8.000    0.000    0.000    0.000    0.000 
#
# Total GULP energy -446467.923337 kJ/mol
# GULP energy per Si atom -5580.849042 kJ/mol
# Density = 2.291756 g / cm^3
# Si number density = 22.969844 Si / 1000 Ang^3
#
#
#
# Elastic Constant Matrix: (Units=GPa)
#
#
# Indices 1 2 3 4 5 6 
#
# 1 109.5284 45.1636 3.2675 0.0000 0.0000 0.0000
# 2 45.1636 109.5308 3.2675 0.0000 0.0000 0.0000
# 3 3.2675 3.2675 38.7538 0.0000 0.0000 0.0000
# 4 0.0000 0.0000 0.0000 26.2008 0.0000 0.0000
# 5 0.0000 0.0000 0.0000 0.0000 26.2006 0.0000
# 6 0.0000 0.0000 0.0000 0.0000 0.0000 49.9779
#
#
#
# Elastic Compliance Matrix: (Units=1/GPa)
#
#
# Indices 1 2 3 4 5 6 
#
# 1 0.011012 -0.004524 -0.000547 0.000000 0.000000 0.000000
# 2 -0.004524 0.011012 -0.000547 0.000000 0.000000 0.000000
# 3 -0.000547 -0.000547 0.025896 0.000000 0.000000 0.000000
# 4 0.000000 0.000000 0.000000 0.038167 0.000000 0.000000
# 5 0.000000 0.000000 0.000000 0.000000 0.038167 0.000000
# 6 0.000000 0.000000 0.000000 0.000000 0.000000 0.020009
#
#
# Mechanical properties :
#
#
# Convention : Reuss Voigt Hill
#
# Bulk Modulus (GPa) = 27.26040 40.13446 33.69743
# Shear Modulus (GPa) = 29.81037 34.21682 32.01360
#
# Velocity S-wave (km/s) = 3.60641 3.86377 3.73731
# Velocity P-wave (km/s) = 5.40697 6.11683 5.77282
#
# Compressibility (1/GPa) = 0.03668325
#
# Stress axis : x y z
#
# Youngs Moduli (GPa) = 90.81035 90.81233 38.61574
#
# Poissons Ratio (x) = 0.41086 0.02112
# Poissons Ratio (y) = 0.41086 0.02112
# Poissons Ratio (z) = 0.04967 0.04967
#
# Static dielectric constant tensor:
#      x y z
#    x 1.916930 0.000000 0.000000 
#    y 0.000000 1.916930 0.000000 
#    z 0.000000 0.000000 1.859220 
# 
# From -- ./inp_files/12812.got.cif
#   From: 2010.05.17/outbox.cif.g08.bks.cpg/sg141_7_cif.got.tgz:12812.got - 2010.05.20 13:30:51.
