data_PCOD9572443
_publ_section_title
;
Structure prediction by ZEFSAII (Michael W. Deem and Ramdas Pophale) SiO2 
 PCOD9572443
Probable space group: I 4/M C M
;
_chemical_formula_sum "Si O2"
_cell_formula_units_Z 176
_cell_length_a 23.236041
_cell_length_b 23.236041
_cell_length_c 16.496231
_cell_angle_alpha 90.000000
_cell_angle_beta 90.000000
_cell_angle_gamma 90.000000
_cell_volume 8906.539488
_symmetry_space_group_name_H-M "I 4/M C M"
_symmetry_group_IT_number 140
_symmetry_cell_setting 'tetragonal'
loop_
_space_group_symop_operation_xyz
x,y,z
-y,x,z
-x,-y,z
y,-x,z
x,-y,1/2-z
-x,y,1/2-z
y,x,1/2-z
-y,-x,1/2-z
-x,-y,-z
y,-x,-z
x,y,-z
-y,x,-z
-x,y,1/2+z
x,-y,1/2+z
-y,-x,1/2+z
y,x,1/2+z
1/2+x,1/2+y,1/2+z
1/2-y,1/2+x,1/2+z
1/2-x,1/2-y,1/2+z
1/2+y,1/2-x,1/2+z
1/2+x,1/2-y,-z
1/2-x,1/2+y,-z
1/2+y,1/2+x,-z
1/2-y,1/2-x,-z
1/2-x,1/2-y,1/2-z
1/2+y,1/2-x,1/2-z
1/2+x,1/2+y,1/2-z
1/2-y,1/2+x,1/2-z
1/2-x,1/2+y,z
1/2+x,1/2-y,z
1/2-y,1/2-x,z
1/2+y,1/2+x,z
loop_
_atom_site_type_symbol
_atom_site_label
_atom_site_fract_x
_atom_site_fract_y
_atom_site_fract_z
Si Si1 0.231319 0.636690 0.901995
Si Si2 0.285635 0.989467 0.660390
Si Si3 0.138897 0.170407 0.099216
Si Si4 0.517985 0.593883 0.000000
Si Si5 0.850391 0.984046 0.661681
Si Si6 0.300367 0.110113 0.595737
O O1 0.189449 0.689449 0.878136
O O2 0.208487 0.575698 0.869207
O O3 0.297992 0.647559 0.877547
O O4 0.231495 0.634155 0.000000
O O5 0.309044 0.000000 0.750000
O O6 0.217288 0.002144 0.663117
O O7 0.309244 0.042392 0.608380
O O8 0.083554 0.141784 0.141499
O O9 0.131961 0.237645 0.123789
O O10 0.133294 0.166140 0.000000
O O11 0.456164 0.563725 0.000000
O O12 0.519622 0.628018 0.916196
O O13 0.874929 0.000000 0.750000
O O14 0.298531 0.119251 0.500000
O O15 0.350673 0.149328 0.631787
#
# Coordination Sequence:
#
# PCOD9572443 Si02
#       6
#    32  32  32  16  32  32
#     4  10  21  36  61  94 124 155 193 249 313 371
#     4  10  22  37  54  82 116 157 199 233 295 360
#     4   9  17  33  60  90 121 157 193 245 309 364
#     4  11  26  42  58  82 110 158 216 261 317 347
#     4  10  22  39  60  87 117 161 209 255 303 362
#     4   9  17  32  56  84 113 149 194 237 281 346
#
# _framework density 19.760760999999999
#
# number of rings (size 3 to 8) (size 9 to 14) (size 15 to 20)
#    0.000    2.273    0.909    1.091    5.091    3.636 
#    3.273    3.636    0.000   11.455    0.000    3.818 
#    0.000    0.000    0.000    0.000    0.000    0.000 
#
# Total GULP energy -490966.909159 kJ/mol
# GULP energy per Si atom -5579.169422 kJ/mol
# Density = 1.971578 g / cm^3
# Si number density = 19.760761 Si / 1000 Ang^3
#
#
#
# Elastic Constant Matrix: (Units=GPa)
#
#
# Indices 1 2 3 4 5 6 
#
# 1 94.1700 47.6453 26.5320 0.0000 0.0000 0.0000
# 2 47.6453 94.1700 26.5320 0.0000 0.0000 0.0000
# 3 26.5320 26.5320 70.1421 0.0000 0.0000 0.0000
# 4 0.0000 0.0000 0.0000 10.9491 0.0000 0.0000
# 5 0.0000 0.0000 0.0000 0.0000 10.9491 0.0000
# 6 0.0000 0.0000 0.0000 0.0000 0.0000 26.0520
#
#
#
# Elastic Compliance Matrix: (Units=1/GPa)
#
#
# Indices 1 2 3 4 5 6 
#
# 1 0.014854 -0.006640 -0.003107 0.000000 0.000000 0.000000
# 2 -0.006640 0.014854 -0.003107 0.000000 0.000000 0.000000
# 3 -0.003107 -0.003107 0.016607 0.000000 0.000000 0.000000
# 4 0.000000 0.000000 0.000000 0.091332 0.000000 0.000000
# 5 0.000000 0.000000 0.000000 0.000000 0.091332 0.000000
# 6 0.000000 0.000000 0.000000 0.000000 0.000000 0.038385
#
#
# Mechanical properties :
#
#
# Convention : Reuss Voigt Hill
#
# Bulk Modulus (GPa) = 48.52674 51.10006 49.81340
# Shear Modulus (GPa) = 16.66996 20.10823 18.38909
#
# Velocity S-wave (km/s) = 2.90761 3.19342 3.05386
# Velocity P-wave (km/s) = 5.99022 6.28592 6.13985
#
# Compressibility (1/GPa) = 0.02060719
#
# Stress axis : x y z
#
# Youngs Moduli (GPa) = 67.32200 67.32200 60.21445
#
# Poissons Ratio (x) = 0.44702 0.18709
# Poissons Ratio (y) = 0.44702 0.18709
# Poissons Ratio (z) = 0.20917 0.20917
#
# Static dielectric constant tensor:
#      x y z
#    x 1.715600 0.000000 0.000000 
#    y 0.000000 1.715600 0.000000 
#    z 0.000000 0.000000 1.787380 
# 
# From -- ./inp_files/4889.got.cif
#   From: 2010.05.17/outbox.cif.g08.bks.cpg/sg140_3_cif.got.tgz:4889.got - 2010.06.21 00:45:31.
