data_PCOD9572767
_publ_section_title
;
Structure prediction by ZEFSAII (Michael W. Deem and Ramdas Pophale) SiO2 
 PCOD9572767
Probable space group: I 41/A M D
;
_chemical_formula_sum "Si O2"
_cell_formula_units_Z 160
_cell_length_a 17.647735
_cell_length_b 17.647735
_cell_length_c 25.597307
_cell_angle_alpha 90.000000
_cell_angle_beta 90.000000
_cell_angle_gamma 90.000000
_cell_volume 7972.090581
_symmetry_space_group_name_H-M "I 41/A M D"
_symmetry_group_IT_number 141
_space_group.IT_coordinate_system_code '2'
_symmetry_cell_setting 'tetragonal'
loop_
_space_group_symop_operation_xyz
x,y,z
1/4-y,3/4+x,1/4+z
-x,1/2-y,z
1/4+y,1/4-x,3/4+z
x,-y,-z
-x,1/2+y,-z
1/4+y,3/4+x,1/4-z
1/4-y,1/4-x,3/4-z
-x,-y,-z
3/4+y,1/4-x,3/4-z
x,1/2+y,-z
3/4-y,3/4+x,1/4-z
-x,y,z
x,1/2-y,z
3/4-y,1/4-x,3/4+z
3/4+y,3/4+x,1/4+z
1/2+x,1/2+y,1/2+z
3/4-y,1/4+x,3/4+z
1/2-x,-y,1/2+z
3/4+y,3/4-x,1/4+z
1/2+x,1/2-y,1/2-z
1/2-x,y,1/2-z
3/4+y,1/4+x,3/4-z
3/4-y,3/4-x,1/4-z
1/2-x,1/2-y,1/2-z
1/4+y,3/4-x,1/4-z
1/2+x,y,1/2-z
1/4-y,1/4+x,3/4-z
1/2-x,1/2+y,1/2+z
1/2+x,-y,1/2+z
1/4-y,3/4-x,1/4+z
1/4+y,1/4+x,3/4+z
loop_
_atom_site_type_symbol
_atom_site_label
_atom_site_fract_x
_atom_site_fract_y
_atom_site_fract_z
Si Si1 0.588785 0.035698 0.128879
Si Si2 0.408072 0.107726 0.680960
Si Si3 0.000000 0.841538 0.878003
Si Si4 0.089609 0.394046 0.556195
Si Si5 0.500000 0.157928 0.496935
Si Si6 0.090178 0.470089 0.254654
O O1 0.500000 0.056232 0.125691
O O2 0.642333 0.107668 0.125000
O O3 0.602150 0.000713 0.186699
O O4 0.603905 0.972478 0.085563
O O5 0.370061 0.120061 0.625000
O O6 0.500000 0.110115 0.673898
O O7 0.386891 0.176226 0.719838
O O8 0.388060 0.030629 0.710722
O O9 0.924854 0.861277 0.845467
O O10 0.000000 0.750000 0.881194
O O11 0.000000 0.870881 0.937373
O O12 0.141946 0.383071 0.506093
O O13 0.000000 0.388236 0.544653
O O14 0.500000 0.250000 0.494067
O O15 0.000000 0.456630 0.249945
#
# Coordination Sequence:
#
# PCOD9572767 Si02
#       6
#    32  32  16  32  16  32
#     4  10  23  42  62  87 118 151 192 240 296 359
#     4  10  18  30  51  81 120 157 200 237 276 333
#     4   9  16  30  55  87 113 144 193 242 290 329
#     4  10  20  37  62  88 115 147 195 245 287 354
#     4   9  16  26  49  79 113 155 196 242 273 326
#     4  10  21  37  58  86 118 154 190 240 301 342
#
# _framework density 20.070018999999998
#
# number of rings (size 3 to 8) (size 9 to 14) (size 15 to 20)
#    0.000    2.200    2.000    1.200    0.000    7.400 
#    0.000    4.000    0.000    4.800    0.000    0.000 
#    0.000    0.000    0.000    0.000    0.000    0.000 
#
# Total GULP energy -446730.175332 kJ/mol
# GULP energy per Si atom -5584.127192 kJ/mol
# Density = 2.002434 g / cm^3
# Si number density = 20.070019 Si / 1000 Ang^3
#
#
#
# Elastic Constant Matrix: (Units=GPa)
#
#
# Indices 1 2 3 4 5 6 
#
# 1 47.7788 27.5127 2.0886 0.0000 0.0000 0.0000
# 2 27.5127 47.7719 2.0904 0.0000 0.0000 0.0000
# 3 2.0886 2.0904 34.4746 0.0000 0.0000 0.0000
# 4 0.0000 0.0000 0.0000 21.8398 0.0000 0.0000
# 5 0.0000 0.0000 0.0000 0.0000 21.8398 0.0000
# 6 0.0000 0.0000 0.0000 0.0000 0.0000 21.8048
#
#
#
# Elastic Compliance Matrix: (Units=1/GPa)
#
#
# Indices 1 2 3 4 5 6 
#
# 1 0.031337 -0.018012 -0.000806 0.000000 0.000000 0.000000
# 2 -0.018012 0.031342 -0.000809 0.000000 0.000000 0.000000
# 3 -0.000806 -0.000809 0.029105 0.000000 0.000000 0.000000
# 4 0.000000 0.000000 0.000000 0.045788 0.000000 0.000000
# 5 0.000000 0.000000 0.000000 0.000000 0.045788 0.000000
# 6 0.000000 0.000000 0.000000 0.000000 0.000000 0.045861
#
#
# Mechanical properties :
#
#
# Convention : Reuss Voigt Hill
#
# Bulk Modulus (GPa) = 19.03744 21.48985 20.26364
# Shear Modulus (GPa) = 17.48333 19.65245 18.56789
#
# Velocity S-wave (km/s) = 2.95467 3.13260 3.04494
# Velocity P-wave (km/s) = 4.59850 4.88006 4.74137
#
# Compressibility (1/GPa) = 0.05252807
#
# Stress axis : x y z
#
# Youngs Moduli (GPa) = 31.91087 31.90611 34.35864
#
# Poissons Ratio (x) = 0.57471 0.02770
# Poissons Ratio (y) = 0.57479 0.02780
# Poissons Ratio (z) = 0.02573 0.02582
#
# Static dielectric constant tensor:
#      x y z
#    x 1.689770 0.000000 0.000000 
#    y 0.000000 1.689770 0.000000 
#    z 0.000000 0.000000 1.711740 
# 
# From -- ./inp_files/12774.got.cif
#   From: 2010.05.17/outbox.cif.g08.bks.cpg/sg141_7_cif.got.tgz:12774.got - 2010.05.20 13:30:51.
