data_PCOD9572754
_publ_section_title
;
Structure prediction by ZEFSAII (Michael W. Deem and Ramdas Pophale) SiO2 
 PCOD9572754
Probable space group: I 41/A M D
;
_chemical_formula_sum "Si O2"
_cell_formula_units_Z 128
_cell_length_a 18.453386
_cell_length_b 18.453386
_cell_length_c 25.751873
_cell_angle_alpha 90.000000
_cell_angle_beta 90.000000
_cell_angle_gamma 90.000000
_cell_volume 8769.219771
_symmetry_space_group_name_H-M "I 41/A M D"
_symmetry_group_IT_number 141
_space_group.IT_coordinate_system_code '2'
_symmetry_cell_setting 'tetragonal'
loop_
_space_group_symop_operation_xyz
x,y,z
1/4-y,3/4+x,1/4+z
-x,1/2-y,z
1/4+y,1/4-x,3/4+z
x,-y,-z
-x,1/2+y,-z
1/4+y,3/4+x,1/4-z
1/4-y,1/4-x,3/4-z
-x,-y,-z
3/4+y,1/4-x,3/4-z
x,1/2+y,-z
3/4-y,3/4+x,1/4-z
-x,y,z
x,1/2-y,z
3/4-y,1/4-x,3/4+z
3/4+y,3/4+x,1/4+z
1/2+x,1/2+y,1/2+z
3/4-y,1/4+x,3/4+z
1/2-x,-y,1/2+z
3/4+y,3/4-x,1/4+z
1/2+x,1/2-y,1/2-z
1/2-x,y,1/2-z
3/4+y,1/4+x,3/4-z
3/4-y,3/4-x,1/4-z
1/2-x,1/2-y,1/2-z
1/4+y,3/4-x,1/4-z
1/2+x,y,1/2-z
1/4-y,1/4+x,3/4-z
1/2-x,1/2+y,1/2+z
1/2+x,-y,1/2+z
1/4-y,3/4-x,1/4+z
1/4+y,1/4+x,3/4+z
loop_
_atom_site_type_symbol
_atom_site_label
_atom_site_fract_x
_atom_site_fract_y
_atom_site_fract_z
Si Si1 0.000000 0.990535 0.063449
Si Si2 0.300549 0.491985 0.294672
Si Si3 0.083212 0.093577 0.737198
Si Si4 0.500000 0.168150 0.541939
Si Si5 0.148271 0.560577 0.898930
O O1 0.930003 0.028232 0.087419
O O2 0.000000 0.904514 0.076395
O O3 0.000000 0.000000 0.000000
O O4 0.250000 0.457559 0.250000
O O5 0.363997 0.541290 0.269934
O O6 0.333861 0.440019 0.338209
O O7 0.245794 0.546805 0.323674
O O8 0.088188 0.175957 0.758767
O O9 0.113907 0.093603 0.678837
O O10 0.000000 0.070814 0.740835
O O11 0.500000 0.250000 0.564459
#
# Coordination Sequence:
#
# PCOD9572754 Si02
#       5
#    16  32  32  16  32
#     4  12  16  28  44  62  90 120 152 184 209 264
#     4   9  18  31  44  61  83 113 150 186 217 257
#     4  10  18  29  43  62  87 114 146 183 215 262
#     4  10  18  28  42  56  90 122 146 180 218 246
#     4  10  18  28  45  62  83 118 150 178 225 261
#
# _framework density 14.59651
#
# number of rings (size 3 to 8) (size 9 to 14) (size 15 to 20)
#    0.000    2.000    5.000    0.750    1.750    0.000 
#    0.000    0.000    2.750    0.750    0.000    0.000 
#    0.000    0.000    0.000    0.000    0.000    0.000 
#
# Total GULP energy -356484.827660 kJ/mol
# GULP energy per Si atom -5570.075432 kJ/mol
# Density = 1.456329 g / cm^3
# Si number density = 14.596510 Si / 1000 Ang^3
#
#
#
# Elastic Constant Matrix: (Units=GPa)
#
#
# Indices 1 2 3 4 5 6 
#
# 1 50.3486 1.0208 22.0694 0.0000 0.0000 0.0000
# 2 1.0208 50.3486 22.0694 0.0000 0.0000 0.0000
# 3 22.0694 22.0694 88.2018 0.0000 0.0000 0.0000
# 4 0.0000 0.0000 0.0000 9.1530 0.0000 0.0000
# 5 0.0000 0.0000 0.0000 0.0000 9.1530 0.0000
# 6 0.0000 0.0000 0.0000 0.0000 0.0000 11.6076
#
#
#
# Elastic Compliance Matrix: (Units=1/GPa)
#
#
# Indices 1 2 3 4 5 6 
#
# 1 0.022535 0.002263 -0.006205 0.000000 0.000000 0.000000
# 2 0.002263 0.022535 -0.006205 0.000000 0.000000 0.000000
# 3 -0.006205 -0.006205 0.014443 0.000000 0.000000 0.000000
# 4 0.000000 0.000000 0.000000 0.109254 0.000000 0.000000
# 5 0.000000 0.000000 0.000000 0.000000 0.109254 0.000000
# 6 0.000000 0.000000 0.000000 0.000000 0.000000 0.086150
#
#
# Mechanical properties :
#
#
# Convention : Reuss Voigt Hill
#
# Bulk Modulus (GPa) = 25.49728 31.02425 28.26077
# Shear Modulus (GPa) = 12.57739 15.56535 14.07137
#
# Velocity S-wave (km/s) = 2.93861 3.26908 3.10824
# Velocity P-wave (km/s) = 5.38701 5.96237 5.68198
#
# Compressibility (1/GPa) = 0.03921986
#
# Stress axis : x y z
#
# Youngs Moduli (GPa) = 44.37445 44.37445 69.23869
#
# Poissons Ratio (x) = -0.10042 0.42962
# Poissons Ratio (y) = -0.10042 0.42962
# Poissons Ratio (z) = 0.27534 0.27534
#
# Static dielectric constant tensor:
#      x y z
#    x 1.475700 0.000000 0.000000 
#    y 0.000000 1.475700 0.000000 
#    z 0.000000 0.000000 1.524110 
# 
# From -- ./inp_files/11379.got.cif
#   From: 2010.05.17/outbox.cif.g08.bks.cpg/sg141_6_cif.got.tgz:11379.got - 2010.05.20 13:30:51.
