data_PCOD9572694
_publ_section_title
;
Structure prediction by ZEFSAII (Michael W. Deem and Ramdas Pophale) SiO2 
 PCOD9572694
Probable space group: I 4/M C M
;
_chemical_formula_sum "Si O2"
_cell_formula_units_Z 160
_cell_length_a 22.075842
_cell_length_b 22.075842
_cell_length_c 18.326804
_cell_angle_alpha 90.000000
_cell_angle_beta 90.000000
_cell_angle_gamma 90.000000
_cell_volume 8931.435977
_symmetry_space_group_name_H-M "I 4/M C M"
_symmetry_group_IT_number 140
_symmetry_cell_setting 'tetragonal'
loop_
_space_group_symop_operation_xyz
x,y,z
-y,x,z
-x,-y,z
y,-x,z
x,-y,1/2-z
-x,y,1/2-z
y,x,1/2-z
-y,-x,1/2-z
-x,-y,-z
y,-x,-z
x,y,-z
-y,x,-z
-x,y,1/2+z
x,-y,1/2+z
-y,-x,1/2+z
y,x,1/2+z
1/2+x,1/2+y,1/2+z
1/2-y,1/2+x,1/2+z
1/2-x,1/2-y,1/2+z
1/2+y,1/2-x,1/2+z
1/2+x,1/2-y,-z
1/2-x,1/2+y,-z
1/2+y,1/2+x,-z
1/2-y,1/2-x,-z
1/2-x,1/2-y,1/2-z
1/2+y,1/2-x,1/2-z
1/2+x,1/2+y,1/2-z
1/2-y,1/2+x,1/2-z
1/2-x,1/2+y,z
1/2+x,1/2-y,z
1/2-y,1/2-x,z
1/2+y,1/2+x,z
loop_
_atom_site_type_symbol
_atom_site_label
_atom_site_fract_x
_atom_site_fract_y
_atom_site_fract_z
Si Si1 0.827731 0.429274 0.084698
Si Si2 0.067447 0.157205 0.778809
Si Si3 0.460836 0.865743 0.181432
Si Si4 0.776350 0.626248 0.727140
Si Si5 0.459624 0.592682 0.084861
O O1 0.889844 0.389844 0.087405
O O2 0.839612 0.494739 0.120267
O O3 0.784416 0.395690 0.143190
O O4 0.807966 0.431121 0.000000
O O5 0.093380 0.093380 0.750000
O O6 0.113113 0.208858 0.752736
O O7 0.000000 0.170366 0.750000
O O8 0.062350 0.146946 0.864912
O O9 0.500000 0.889741 0.250000
O O10 0.418303 0.918303 0.151476
O O11 0.418332 0.816082 0.220993
O O12 0.807966 0.692035 0.733441
O O13 0.423276 0.530158 0.099121
O O14 0.453333 0.606472 0.000000
#
# Coordination Sequence:
#
# PCOD9572694 Si02
#       5
#    32  32  32  32  32
#     4   9  17  30  49  73 102 137 182 237 291 344
#     4  12  22  34  58  89 117 146 186 238 286 343
#     4   9  16  28  46  67  98 137 179 229 285 342
#     4   9  20  38  54  72 104 150 199 234 269 325
#     4   9  18  35  57  84 122 156 177 215 282 353
#
# _framework density 17.914252000000001
#
# number of rings (size 3 to 8) (size 9 to 14) (size 15 to 20)
#    0.000    2.400    2.000    4.200    0.000    2.400 
#    0.000    6.000    0.000    1.800    0.000    0.000 
#    0.000    0.000    0.000    0.000    0.000    0.000 
#
# Total GULP energy -445692.501046 kJ/mol
# GULP energy per Si atom -5571.156263 kJ/mol
# Density = 1.787348 g / cm^3
# Si number density = 17.914252 Si / 1000 Ang^3
#
#
#
# Elastic Constant Matrix: (Units=GPa)
#
#
# Indices 1 2 3 4 5 6 
#
# 1 62.7772 32.9580 42.0691 0.0000 0.0000 0.0000
# 2 32.9580 62.7772 42.0691 0.0000 0.0000 0.0000
# 3 42.0691 42.0691 133.1683 0.0000 0.0000 0.0000
# 4 0.0000 0.0000 0.0000 20.6696 0.0000 0.0000
# 5 0.0000 0.0000 0.0000 0.0000 20.6696 0.0000
# 6 0.0000 0.0000 0.0000 0.0000 0.0000 12.9117
#
#
#
# Elastic Compliance Matrix: (Units=1/GPa)
#
#
# Indices 1 2 3 4 5 6 
#
# 1 0.023998 -0.009538 -0.004568 0.000000 0.000000 0.000000
# 2 -0.009538 0.023998 -0.004568 0.000000 0.000000 0.000000
# 3 -0.004568 -0.004568 0.010396 0.000000 0.000000 0.000000
# 4 0.000000 0.000000 0.000000 0.048380 0.000000 0.000000
# 5 0.000000 0.000000 0.000000 0.000000 0.048380 0.000000
# 6 0.000000 0.000000 0.000000 0.000000 0.000000 0.077449
#
#
# Mechanical properties :
#
#
# Convention : Reuss Voigt Hill
#
# Bulk Modulus (GPa) = 47.52061 54.76835 51.14448
# Shear Modulus (GPa) = 18.05296 20.29194 19.17245
#
# Velocity S-wave (km/s) = 3.17794 3.36925 3.27499
# Velocity P-wave (km/s) = 6.32851 6.76570 6.55075
#
# Compressibility (1/GPa) = 0.02104350
#
# Stress axis : x y z
#
# Youngs Moduli (GPa) = 41.67042 41.67042 96.19530
#
# Poissons Ratio (x) = 0.39744 0.43943
# Poissons Ratio (y) = 0.39744 0.43943
# Poissons Ratio (z) = 0.19036 0.19036
#
# Static dielectric constant tensor:
#      x y z
#    x 1.627130 0.000000 0.000000 
#    y 0.000000 1.627130 0.000000 
#    z 0.000000 0.000000 1.610420 
# 
# From -- ./inp_files/6872.got.cif
#   From: 2010.05.17/outbox.cif.g08.bks.cpg/sg140_4_cif.got.tgz:6872.got - 2010.06.21 00:45:31.
