data_PCOD9572266
_publ_section_title
;
Structure prediction by ZEFSAII (Michael W. Deem and Ramdas Pophale) SiO2 
 PCOD9572266
Probable space group: I 4/M C M
;
_chemical_formula_sum "Si O2"
_cell_formula_units_Z 160
_cell_length_a 22.080165
_cell_length_b 22.080165
_cell_length_c 15.738700
_cell_angle_alpha 90.000000
_cell_angle_beta 90.000000
_cell_angle_gamma 90.000000
_cell_volume 7673.146431
_symmetry_space_group_name_H-M "I 4/M C M"
_symmetry_group_IT_number 140
_symmetry_cell_setting 'tetragonal'
loop_
_space_group_symop_operation_xyz
x,y,z
-y,x,z
-x,-y,z
y,-x,z
x,-y,1/2-z
-x,y,1/2-z
y,x,1/2-z
-y,-x,1/2-z
-x,-y,-z
y,-x,-z
x,y,-z
-y,x,-z
-x,y,1/2+z
x,-y,1/2+z
-y,-x,1/2+z
y,x,1/2+z
1/2+x,1/2+y,1/2+z
1/2-y,1/2+x,1/2+z
1/2-x,1/2-y,1/2+z
1/2+y,1/2-x,1/2+z
1/2+x,1/2-y,-z
1/2-x,1/2+y,-z
1/2+y,1/2+x,-z
1/2-y,1/2-x,-z
1/2-x,1/2-y,1/2-z
1/2+y,1/2-x,1/2-z
1/2+x,1/2+y,1/2-z
1/2-y,1/2+x,1/2-z
1/2-x,1/2+y,z
1/2+x,1/2-y,z
1/2-y,1/2-x,z
1/2+y,1/2+x,z
loop_
_atom_site_type_symbol
_atom_site_label
_atom_site_fract_x
_atom_site_fract_y
_atom_site_fract_z
Si Si1 0.847826 0.249396 0.676960
Si Si2 0.300760 0.372300 0.358318
Si Si3 0.576509 0.440004 0.852574
Si Si4 0.656325 0.059552 0.102571
Si Si5 0.924055 0.328312 0.900552
O O1 0.797799 0.297799 0.707249
O O2 0.875497 0.214235 0.757285
O O3 0.813274 0.198304 0.622828
O O4 0.899585 0.286913 0.630553
O O5 0.362937 0.406065 0.379491
O O6 0.240344 0.400635 0.396368
O O7 0.582031 0.510085 0.880508
O O8 0.569222 0.430779 0.750000
O O9 0.595801 0.095801 0.129673
O O10 0.662769 0.991258 0.136156
O O11 0.656057 0.058202 0.000000
O O12 0.874025 0.374025 0.862601
O O13 0.929681 0.342879 0.000000
#
# Coordination Sequence:
#
# PCOD9572266 Si02
#       5
#    32  32  32  32  32
#     4  10  20  34  52  82 112 140 180 221 268 324
#     4  11  20  33  57  80 110 142 177 223 272 322
#     4   9  18  31  48  76 108 136 172 217 260 311
#     4   9  20  38  58  80 108 144 184 224 268 326
#     4  10  22  38  56  81 111 143 182 228 279 329
#
# _framework density 20.851939999999999
#
# number of rings (size 3 to 8) (size 9 to 14) (size 15 to 20)
#    0.000    2.200    2.000    3.000    2.800    2.000 
#    0.000    4.000    0.000    0.000    0.000    4.200 
#    0.000    0.000    0.000    0.000    0.000    0.000 
#
# Total GULP energy -446099.220960 kJ/mol
# GULP energy per Si atom -5576.240262 kJ/mol
# Density = 2.080448 g / cm^3
# Si number density = 20.851940 Si / 1000 Ang^3
#
#
#
# Elastic Constant Matrix: (Units=GPa)
#
#
# Indices 1 2 3 4 5 6 
#
# 1 88.9366 170.5772 12.3613 0.0000 0.0000 0.0000
# 2 170.5772 88.9422 12.3609 0.0000 0.0000 0.0000
# 3 12.3613 12.3609 16.1728 0.0000 0.0000 0.0000
# 4 0.0000 0.0000 0.0000 29.4961 0.0000 0.0000
# 5 0.0000 0.0000 0.0000 0.0000 29.4952 0.0000
# 6 0.0000 0.0000 0.0000 0.0000 0.0000 33.5992
#
#
#
# Elastic Compliance Matrix: (Units=1/GPa)
#
#
# Indices 1 2 3 4 5 6 
#
# 1 -0.004047 0.008203 -0.003176 0.000000 0.000000 0.000000
# 2 0.008203 -0.004047 -0.003177 0.000000 0.000000 0.000000
# 3 -0.003176 -0.003177 0.066688 0.000000 0.000000 0.000000
# 4 0.000000 0.000000 0.000000 0.033903 0.000000 0.000000
# 5 0.000000 0.000000 0.000000 0.000000 0.033904 0.000000
# 6 0.000000 0.000000 0.000000 0.000000 0.000000 0.029763
#
#
# Mechanical properties :
#
#
# Convention : Reuss Voigt Hill
#
# Bulk Modulus (GPa) = 16.05291 64.96115 40.50703
# Shear Modulus (GPa) = 28.86353 18.43492 23.64922
#
# Velocity S-wave (km/s) = 3.72454 2.97658 3.37137
# Velocity P-wave (km/s) = 5.11971 6.56007 5.88413
#
# Compressibility (1/GPa) = 0.06229401
#
# Stress axis : x y z
#
# Youngs Moduli (GPa) = -247.10786 -247.12702 14.99523
#
# Poissons Ratio (x) = 2.02708 0.04763
# Poissons Ratio (y) = 2.02692 0.04764
# Poissons Ratio (z) = -0.78485 -0.78504
#
# Static dielectric constant tensor:
#      x y z
#    x 1.746930 0.000000 0.000000 
#    y 0.000000 1.746930 0.000000 
#    z 0.000000 0.000000 1.815160 
# 
# From -- ./inp_files/6799.got.cif
#   From: 2010.05.17/outbox.cif.g08.bks.cpg/sg140_4_cif.got.tgz:6799.got - 2010.06.21 00:45:31.
