data_PCOD9572876
_publ_section_title
;
Structure prediction by ZEFSAII (Michael W. Deem and Ramdas Pophale) SiO2 
 PCOD9572876
Probable space group: I 41/A M D
;
_chemical_formula_sum "Si O2"
_cell_formula_units_Z 128
_cell_length_a 14.578219
_cell_length_b 14.578219
_cell_length_c 25.606350
_cell_angle_alpha 90.000000
_cell_angle_beta 90.000000
_cell_angle_gamma 90.000000
_cell_volume 5441.975942
_symmetry_space_group_name_H-M "I 41/A M D"
_symmetry_group_IT_number 141
_space_group.IT_coordinate_system_code '2'
_symmetry_cell_setting 'tetragonal'
loop_
_space_group_symop_operation_xyz
x,y,z
1/4-y,3/4+x,1/4+z
-x,1/2-y,z
1/4+y,1/4-x,3/4+z
x,-y,-z
-x,1/2+y,-z
1/4+y,3/4+x,1/4-z
1/4-y,1/4-x,3/4-z
-x,-y,-z
3/4+y,1/4-x,3/4-z
x,1/2+y,-z
3/4-y,3/4+x,1/4-z
-x,y,z
x,1/2-y,z
3/4-y,1/4-x,3/4+z
3/4+y,3/4+x,1/4+z
1/2+x,1/2+y,1/2+z
3/4-y,1/4+x,3/4+z
1/2-x,-y,1/2+z
3/4+y,3/4-x,1/4+z
1/2+x,1/2-y,1/2-z
1/2-x,y,1/2-z
3/4+y,1/4+x,3/4-z
3/4-y,3/4-x,1/4-z
1/2-x,1/2-y,1/2-z
1/4+y,3/4-x,1/4-z
1/2+x,y,1/2-z
1/4-y,1/4+x,3/4-z
1/2-x,1/2+y,1/2+z
1/2+x,-y,1/2+z
1/4-y,3/4-x,1/4+z
1/4+y,1/4+x,3/4+z
loop_
_atom_site_type_symbol
_atom_site_label
_atom_site_fract_x
_atom_site_fract_y
_atom_site_fract_z
Si Si1 0.190591 0.899470 0.569565
Si Si2 0.697605 0.392703 0.958829
Si Si3 0.392919 0.150360 0.687920
Si Si4 0.390580 0.150292 0.852326
O O1 0.166199 0.852854 0.514437
O O2 0.300749 0.887089 0.578799
O O3 0.138300 0.888300 0.625000
O O4 0.169217 0.003877 0.553993
O O5 0.808199 0.397203 0.960654
O O6 0.662609 0.343468 0.907185
O O7 0.390696 0.140696 0.625000
O O8 0.500000 0.151406 0.703422
O O9 0.352471 0.250000 0.700485
O O10 0.500000 0.144636 0.860380
O O11 0.373833 0.250000 0.824965
#
# Coordination Sequence:
#
# PCOD9572876 Si02
#       4
#    32  32  32  32
#     4   9  20  37  53  75 103 134 178 227 275 327
#     4  10  19  34  56  76 104 146 186 222 272 331
#     4   9  17  28  45  74 110 145 178 210 250 309
#     4  10  21  36  55  81 112 145 181 223 274 331
#
# _framework density 23.520868
#
# number of rings (size 3 to 8) (size 9 to 14) (size 15 to 20)
#    0.000    2.500    0.000    3.750    0.000    6.000 
#    0.000   15.000    0.000    0.000    0.000    1.750 
#    0.000    2.000    0.000    0.000    0.000    0.000 
#
# Total GULP energy -356363.179456 kJ/mol
# GULP energy per Si atom -5568.174679 kJ/mol
# Density = 2.346733 g / cm^3
# Si number density = 23.520868 Si / 1000 Ang^3
#
#
#
# Elastic Constant Matrix: (Units=GPa)
#
#
# Indices 1 2 3 4 5 6 
#
# 1 53.1089 -13.4403 7.3606 0.0000 0.0000 0.0000
# 2 -13.4403 53.1089 7.3606 0.0000 0.0000 0.0000
# 3 7.3606 7.3606 125.5435 0.0000 0.0000 0.0000
# 4 0.0000 0.0000 0.0000 30.9485 0.0000 0.0000
# 5 0.0000 0.0000 0.0000 0.0000 30.9485 0.0000
# 6 0.0000 0.0000 0.0000 0.0000 0.0000 14.7190
#
#
#
# Elastic Compliance Matrix: (Units=1/GPa)
#
#
# Indices 1 2 3 4 5 6 
#
# 1 0.020398 0.005372 -0.001511 0.000000 0.000000 0.000000
# 2 0.005372 0.020398 -0.001511 0.000000 0.000000 0.000000
# 3 -0.001511 -0.001511 0.008143 0.000000 0.000000 0.000000
# 4 0.000000 0.000000 0.000000 0.032312 0.000000 0.000000
# 5 0.000000 0.000000 0.000000 0.000000 0.032312 0.000000
# 6 0.000000 0.000000 0.000000 0.000000 0.000000 0.067939
#
#
# Mechanical properties :
#
#
# Convention : Reuss Voigt Hill
#
# Bulk Modulus (GPa) = 18.64343 26.03591 22.33967
# Shear Modulus (GPa) = 25.68300 30.68854 28.18577
#
# Velocity S-wave (km/s) = 3.30801 3.61603 3.46545
# Velocity P-wave (km/s) = 4.74701 5.34112 5.05281
#
# Compressibility (1/GPa) = 0.05363819
#
# Stress axis : x y z
#
# Youngs Moduli (GPa) = 49.02436 49.02436 122.81188
#
# Poissons Ratio (x) = -0.26334 0.18555
# Poissons Ratio (y) = -0.26334 0.18555
# Poissons Ratio (z) = 0.07407 0.07407
#
# Static dielectric constant tensor:
#      x y z
#    x 1.901850 0.000000 0.000000 
#    y 0.000000 1.901850 0.000000 
#    z 0.000000 0.000000 2.008340 
# 
# From -- ./inp_files/11345.got.cif
#   From: 2010.05.17/outbox.cif.g08.bks.cpg/sg141_6_cif.got.tgz:11345.got - 2010.05.20 13:30:51.
