data_PCOD9572833
_publ_section_title
;
Structure prediction by ZEFSAII (Michael W. Deem and Ramdas Pophale) SiO2 
 PCOD9572833
Probable space group: I 41/A M D
;
_chemical_formula_sum "Si O2"
_cell_formula_units_Z 160
_cell_length_a 26.176453
_cell_length_b 26.176453
_cell_length_c 13.862922
_cell_angle_alpha 90.000000
_cell_angle_beta 90.000000
_cell_angle_gamma 90.000000
_cell_volume 9498.966920
_symmetry_space_group_name_H-M "I 41/A M D"
_symmetry_group_IT_number 141
_space_group.IT_coordinate_system_code '2'
_symmetry_cell_setting 'tetragonal'
loop_
_space_group_symop_operation_xyz
x,y,z
1/4-y,3/4+x,1/4+z
-x,1/2-y,z
1/4+y,1/4-x,3/4+z
x,-y,-z
-x,1/2+y,-z
1/4+y,3/4+x,1/4-z
1/4-y,1/4-x,3/4-z
-x,-y,-z
3/4+y,1/4-x,3/4-z
x,1/2+y,-z
3/4-y,3/4+x,1/4-z
-x,y,z
x,1/2-y,z
3/4-y,1/4-x,3/4+z
3/4+y,3/4+x,1/4+z
1/2+x,1/2+y,1/2+z
3/4-y,1/4+x,3/4+z
1/2-x,-y,1/2+z
3/4+y,3/4-x,1/4+z
1/2+x,1/2-y,1/2-z
1/2-x,y,1/2-z
3/4+y,1/4+x,3/4-z
3/4-y,3/4-x,1/4-z
1/2-x,1/2-y,1/2-z
1/4+y,3/4-x,1/4-z
1/2+x,y,1/2-z
1/4-y,1/4+x,3/4-z
1/2-x,1/2+y,1/2+z
1/2+x,-y,1/2+z
1/4-y,3/4-x,1/4+z
1/4+y,1/4+x,3/4+z
loop_
_atom_site_type_symbol
_atom_site_label
_atom_site_fract_x
_atom_site_fract_y
_atom_site_fract_z
Si Si1 0.438578 0.589416 0.243121
Si Si2 0.133383 0.310369 0.435728
Si Si3 0.062027 0.504440 0.610719
Si Si4 0.441494 0.048502 0.552194
Si Si5 0.606449 0.692876 0.160366
O O1 0.500000 0.589054 0.246056
O O2 0.420815 0.544842 0.170786
O O3 0.419846 0.573065 0.349878
O O4 0.423617 0.645174 0.204753
O O5 0.128132 0.250000 0.411445
O O6 0.094203 0.344203 0.375000
O O7 0.191538 0.325770 0.409538
O O8 0.120461 0.315771 0.548683
O O9 0.079181 0.500000 0.500000
O O10 0.000000 0.503087 0.610348
O O11 0.500000 0.032171 0.578280
O O12 0.444467 0.092049 0.472410
O O13 0.416170 0.000000 0.500000
O O14 0.582362 0.750000 0.168728
#
# Coordination Sequence:
#
# PCOD9572833 Si02
#       5
#    32  32  32  32  32
#     4  10  19  31  49  72  99 133 170 207 251 301
#     4  10  20  33  49  71 100 133 169 210 258 311
#     4   9  17  30  48  69  93 124 168 217 255 291
#     4   9  17  31  50  70  93 123 163 209 252 295
#     4  10  20  32  47  71 102 132 163 201 249 308
#
# _framework density 16.843937
#
# number of rings (size 3 to 8) (size 9 to 14) (size 15 to 20)
#    0.000    2.400    0.000    3.000    0.000    7.800 
#    0.000    2.000    0.000    3.600    0.000    7.000 
#    0.000    0.000    0.000    0.000    0.000    0.000 
#
# Total GULP energy -445487.423911 kJ/mol
# GULP energy per Si atom -5568.592799 kJ/mol
# Density = 1.680560 g / cm^3
# Si number density = 16.843937 Si / 1000 Ang^3
#
#
#
# Elastic Constant Matrix: (Units=GPa)
#
#
# Indices 1 2 3 4 5 6 
#
# 1 80.5894 40.8083 55.8237 0.0000 0.0000 0.0000
# 2 40.8083 80.5894 55.8237 0.0000 0.0000 0.0000
# 3 55.8237 55.8237 146.4902 0.0000 0.0000 0.0000
# 4 0.0000 0.0000 0.0000 25.3371 0.0000 0.0000
# 5 0.0000 0.0000 0.0000 0.0000 25.3371 0.0000
# 6 0.0000 0.0000 0.0000 0.0000 0.0000 -4.1352
#
#
#
# Elastic Compliance Matrix: (Units=1/GPa)
#
#
# Indices 1 2 3 4 5 6 
#
# 1 0.018910 -0.006228 -0.004833 0.000000 0.000000 0.000000
# 2 -0.006228 0.018910 -0.004833 0.000000 0.000000 0.000000
# 3 -0.004833 -0.004833 0.010510 0.000000 0.000000 0.000000
# 4 0.000000 0.000000 0.000000 0.039468 0.000000 0.000000
# 5 0.000000 0.000000 0.000000 0.000000 0.039468 0.000000
# 6 0.000000 0.000000 0.000000 0.000000 0.000000 -0.241826
#
#
# Mechanical properties :
#
#
# Convention : Reuss Voigt Hill
#
# Bulk Modulus (GPa) = 60.45007 68.06446 64.25727
# Shear Modulus (GPa) = -64.71641 19.65538 -22.53052
#
# Velocity S-wave (km/s) = -6.20521 3.41971 -3.66129
# Velocity P-wave (km/s) = 3.92087 7.48927 4.51198
#
# Compressibility (1/GPa) = 0.01654258
#
# Stress axis : x y z
#
# Youngs Moduli (GPa) = 52.88265 52.88265 95.15012
#
# Poissons Ratio (x) = 0.32934 0.45984
# Poissons Ratio (y) = 0.32934 0.45984
# Poissons Ratio (z) = 0.25557 0.25557
#
# Static dielectric constant tensor:
#      x y z
#    x 1.573620 0.000000 0.000000 
#    y 0.000000 1.573620 0.000000 
#    z 0.000000 0.000000 1.590380 
# 
# From -- ./inp_files/4820.got.cif
#   From: 2010.05.17/outbox.cif.g08.bks.cpg/sg141_3_cif.got.tgz:4820.got - 2010.05.20 13:30:51.
