data_PCOD9572303
_publ_section_title
;
Structure prediction by ZEFSAII (Michael W. Deem and Ramdas Pophale) SiO2 
 PCOD9572303
Probable space group: I 4/M C M
;
_chemical_formula_sum "Si O2"
_cell_formula_units_Z 160
_cell_length_a 23.225940
_cell_length_b 23.225940
_cell_length_c 15.965241
_cell_angle_alpha 90.000000
_cell_angle_beta 90.000000
_cell_angle_gamma 90.000000
_cell_volume 8612.358078
_symmetry_space_group_name_H-M "I 4/M C M"
_symmetry_group_IT_number 140
_symmetry_cell_setting 'tetragonal'
loop_
_space_group_symop_operation_xyz
x,y,z
-y,x,z
-x,-y,z
y,-x,z
x,-y,1/2-z
-x,y,1/2-z
y,x,1/2-z
-y,-x,1/2-z
-x,-y,-z
y,-x,-z
x,y,-z
-y,x,-z
-x,y,1/2+z
x,-y,1/2+z
-y,-x,1/2+z
y,x,1/2+z
1/2+x,1/2+y,1/2+z
1/2-y,1/2+x,1/2+z
1/2-x,1/2-y,1/2+z
1/2+y,1/2-x,1/2+z
1/2+x,1/2-y,-z
1/2-x,1/2+y,-z
1/2+y,1/2+x,-z
1/2-y,1/2-x,-z
1/2-x,1/2-y,1/2-z
1/2+y,1/2-x,1/2-z
1/2+x,1/2+y,1/2-z
1/2-y,1/2+x,1/2-z
1/2-x,1/2+y,z
1/2+x,1/2-y,z
1/2-y,1/2-x,z
1/2+y,1/2+x,z
loop_
_atom_site_type_symbol
_atom_site_label
_atom_site_fract_x
_atom_site_fract_y
_atom_site_fract_z
Si Si1 0.116386 0.232758 0.098268
Si Si2 0.308109 0.808109 0.407492
Si Si3 0.370832 0.311054 0.906441
Si Si4 0.201244 0.701244 0.277215
Si Si5 0.715834 0.504347 0.341225
Si Si6 0.513058 0.594889 0.402819
O O1 0.135183 0.167086 0.123536
O O2 0.152115 0.270379 0.164701
O O3 0.047760 0.242367 0.104896
O O4 0.133293 0.240288 0.000000
O O5 0.330393 0.830393 0.500000
O O6 0.325075 0.741128 0.409045
O O7 0.323745 0.823745 0.310984
O O8 0.428602 0.286534 0.865616
O O9 0.389543 0.326415 0.000000
O O10 0.250000 0.750000 0.250000
O O11 0.741934 0.500000 0.250000
O O12 0.648681 0.487172 0.342984
O O13 0.452723 0.561776 0.391508
O O14 0.516735 0.614942 0.500000
#
# Coordination Sequence:
#
# PCOD9572303 Si02
#       6
#    32  16  32  16  32  32
#     4  11  23  38  57  80 108 146 188 233 286 335
#     4  10  20  35  56  79 104 139 178 223 279 340
#     4  10  20  36  54  73 100 139 183 225 279 338
#     4  12  21  35  62  81 109 133 183 229 280 338
#     4  12  24  32  47  73 106 137 176 228 282 331
#     4   9  18  33  48  61  85 129 180 226 271 320
#
# _framework density 18.577954999999999
#
# number of rings (size 3 to 8) (size 9 to 14) (size 15 to 20)
#    0.000    1.400    2.000    5.100    0.000    5.600 
#    0.000    1.000    0.000    0.000    0.000    0.000 
#    0.000    0.800    0.000    9.700    0.000   10.300 
#
# Total GULP energy -445527.722066 kJ/mol
# GULP energy per Si atom -5569.096526 kJ/mol
# Density = 1.853567 g / cm^3
# Si number density = 18.577955 Si / 1000 Ang^3
#
#
#
# Elastic Constant Matrix: (Units=GPa)
#
#
# Indices 1 2 3 4 5 6 
#
# 1 53.8647 37.4888 26.9420 0.0000 0.0000 0.0000
# 2 37.4888 53.8647 26.9420 0.0000 0.0000 0.0000
# 3 26.9420 26.9420 102.2406 0.0000 0.0000 0.0000
# 4 0.0000 0.0000 0.0000 25.4708 0.0000 0.0000
# 5 0.0000 0.0000 0.0000 0.0000 25.4708 0.0000
# 6 0.0000 0.0000 0.0000 0.0000 0.0000 19.1169
#
#
#
# Elastic Compliance Matrix: (Units=1/GPa)
#
#
# Indices 1 2 3 4 5 6 
#
# 1 0.037013 -0.024052 -0.003415 0.000000 0.000000 0.000000
# 2 -0.024052 0.037013 -0.003415 0.000000 0.000000 0.000000
# 3 -0.003415 -0.003415 0.011581 0.000000 0.000000 0.000000
# 4 0.000000 0.000000 0.000000 0.039261 0.000000 0.000000
# 5 0.000000 0.000000 0.000000 0.000000 0.039261 0.000000
# 6 0.000000 0.000000 0.000000 0.000000 0.000000 0.052310
#
#
# Mechanical properties :
#
#
# Convention : Reuss Voigt Hill
#
# Bulk Modulus (GPa) = 41.94412 43.63505 42.78958
# Shear Modulus (GPa) = 17.47327 21.91819 19.69573
#
# Velocity S-wave (km/s) = 3.07015 3.43854 3.25955
# Velocity P-wave (km/s) = 5.93246 6.26923 6.10317
#
# Compressibility (1/GPa) = 0.02384124
#
# Stress axis : x y z
#
# Youngs Moduli (GPa) = 27.01737 27.01737 86.34913
#
# Poissons Ratio (x) = 0.64983 0.29492
# Poissons Ratio (y) = 0.64983 0.29492
# Poissons Ratio (z) = 0.09228 0.09228
#
# Static dielectric constant tensor:
#      x y z
#    x 1.677940 0.000000 0.000000 
#    y 0.000000 1.677940 0.000000 
#    z 0.000000 0.000000 1.799290 
# 
# From -- ./inp_files/4789.got.cif
#   From: 2010.05.17/outbox.cif.g08.bks.cpg/sg140_3_cif.got.tgz:4789.got - 2010.06.21 00:45:31.
