data_PCOD9572515
_publ_section_title
;
Structure prediction by ZEFSAII (Michael W. Deem and Ramdas Pophale) SiO2 
 PCOD9572515
Probable space group: I 4/M C M
;
_chemical_formula_sum "Si O2"
_cell_formula_units_Z 96
_cell_length_a 14.062324
_cell_length_b 14.062324
_cell_length_c 27.743657
_cell_angle_alpha 90.000000
_cell_angle_beta 90.000000
_cell_angle_gamma 90.000000
_cell_volume 5486.279215
_symmetry_space_group_name_H-M "I 4/M C M"
_symmetry_group_IT_number 140
_symmetry_cell_setting 'tetragonal'
loop_
_space_group_symop_operation_xyz
x,y,z
-y,x,z
-x,-y,z
y,-x,z
x,-y,1/2-z
-x,y,1/2-z
y,x,1/2-z
-y,-x,1/2-z
-x,-y,-z
y,-x,-z
x,y,-z
-y,x,-z
-x,y,1/2+z
x,-y,1/2+z
-y,-x,1/2+z
y,x,1/2+z
1/2+x,1/2+y,1/2+z
1/2-y,1/2+x,1/2+z
1/2-x,1/2-y,1/2+z
1/2+y,1/2-x,1/2+z
1/2+x,1/2-y,-z
1/2-x,1/2+y,-z
1/2+y,1/2+x,-z
1/2-y,1/2-x,-z
1/2-x,1/2-y,1/2-z
1/2+y,1/2-x,1/2-z
1/2+x,1/2+y,1/2-z
1/2-y,1/2+x,1/2-z
1/2-x,1/2+y,z
1/2+x,1/2-y,z
1/2-y,1/2-x,z
1/2+y,1/2+x,z
loop_
_atom_site_type_symbol
_atom_site_label
_atom_site_fract_x
_atom_site_fract_y
_atom_site_fract_z
Si Si1 0.741967 0.085259 0.056044
Si Si2 0.393149 0.620601 0.303082
Si Si3 0.118412 0.772268 0.099534
O O1 0.650970 0.150970 0.069556
O O2 0.833357 0.153105 0.062948
O O3 0.756761 0.991783 0.087933
O O4 0.731860 0.058329 0.000000
O O5 0.371963 0.508042 0.306120
O O6 0.354076 0.645925 0.250000
O O7 0.359970 0.682281 0.348069
O O8 0.173727 0.673727 0.094866
#
# Coordination Sequence:
#
# PCOD9572515 Si02
#       3
#    32  32  32
#     4  10  22  38  55  80 113 147 187 232 275 329
#     4   9  17  32  55  81 109 139 177 224 280 334
#     4  11  21  35  57  82 109 146 187 229 279 331
#
# _framework density 17.498199
#
# number of rings (size 3 to 8) (size 9 to 14) (size 15 to 20)
#    0.000    2.000    3.333    2.000    0.000    4.000 
#    0.000    3.333    0.000    0.000    0.000    0.000 
#    0.000    0.000    0.000    0.000    0.000    0.000 
#
# Total GULP energy -267422.926192 kJ/mol
# GULP energy per Si atom -5571.310962 kJ/mol
# Density = 1.745837 g / cm^3
# Si number density = 17.498199 Si / 1000 Ang^3
#
#
#
# Elastic Constant Matrix: (Units=GPa)
#
#
# Indices 1 2 3 4 5 6 
#
# 1 77.3171 36.8408 23.8887 0.0000 0.0000 0.0000
# 2 36.8408 77.3169 23.8887 0.0000 0.0000 0.0000
# 3 23.8887 23.8887 89.3852 0.0000 0.0000 0.0000
# 4 0.0000 0.0000 0.0000 16.8740 0.0000 0.0000
# 5 0.0000 0.0000 0.0000 0.0000 16.8742 0.0000
# 6 0.0000 0.0000 0.0000 0.0000 0.0000 5.8729
#
#
#
# Elastic Compliance Matrix: (Units=1/GPa)
#
#
# Indices 1 2 3 4 5 6 
#
# 1 0.017284 -0.007421 -0.002636 0.000000 0.000000 0.000000
# 2 -0.007421 0.017284 -0.002636 0.000000 0.000000 0.000000
# 3 -0.002636 -0.002636 0.012596 0.000000 0.000000 0.000000
# 4 0.000000 0.000000 0.000000 0.059263 0.000000 0.000000
# 5 0.000000 0.000000 0.000000 0.000000 0.059262 0.000000
# 6 0.000000 0.000000 0.000000 0.000000 0.000000 0.170274
#
#
# Mechanical properties :
#
#
# Convention : Reuss Voigt Hill
#
# Bulk Modulus (GPa) = 45.91639 45.91727 45.91683
# Shear Modulus (GPa) = 13.56444 18.55094 16.05769
#
# Velocity S-wave (km/s) = 2.78725 3.25955 3.03260
# Velocity P-wave (km/s) = 6.05441 6.36116 6.20968
#
# Compressibility (1/GPa) = 0.02177872
#
# Stress axis : x y z
#
# Youngs Moduli (GPa) = 57.85566 57.85548 79.38727
#
# Poissons Ratio (x) = 0.42937 0.20926
# Poissons Ratio (y) = 0.42937 0.20926
# Poissons Ratio (z) = 0.15250 0.15250
#
# Static dielectric constant tensor:
#      x y z
#    x 1.571020 0.000000 0.000000 
#    y 0.000000 1.571020 0.000000 
#    z 0.000000 0.000000 1.650100 
# 
# From -- ./inp_files/11216.got.cif
#   From: 2010.05.17/outbox.cif.g08.bks.cpg/sg140_6_cif.got.tgz:11216.got - 2010.06.21 00:45:31.
