data_PCOD9572237
_publ_section_title
;
Structure prediction by ZEFSAII (Michael W. Deem and Ramdas Pophale) SiO2 
 PCOD9572237
Probable space group: I 4/M C M
;
_chemical_formula_sum "Si O2"
_cell_formula_units_Z 176
_cell_length_a 27.490754
_cell_length_b 27.490754
_cell_length_c 15.798073
_cell_angle_alpha 90.000000
_cell_angle_beta 90.000000
_cell_angle_gamma 90.000000
_cell_volume 11939.260263
_symmetry_space_group_name_H-M "I 4/M C M"
_symmetry_group_IT_number 140
_symmetry_cell_setting 'tetragonal'
loop_
_space_group_symop_operation_xyz
x,y,z
-y,x,z
-x,-y,z
y,-x,z
x,-y,1/2-z
-x,y,1/2-z
y,x,1/2-z
-y,-x,1/2-z
-x,-y,-z
y,-x,-z
x,y,-z
-y,x,-z
-x,y,1/2+z
x,-y,1/2+z
-y,-x,1/2+z
y,x,1/2+z
1/2+x,1/2+y,1/2+z
1/2-y,1/2+x,1/2+z
1/2-x,1/2-y,1/2+z
1/2+y,1/2-x,1/2+z
1/2+x,1/2-y,-z
1/2-x,1/2+y,-z
1/2+y,1/2+x,-z
1/2-y,1/2-x,-z
1/2-x,1/2-y,1/2-z
1/2+y,1/2-x,1/2-z
1/2+x,1/2+y,1/2-z
1/2-y,1/2+x,1/2-z
1/2-x,1/2+y,z
1/2+x,1/2-y,z
1/2-y,1/2-x,z
1/2+y,1/2+x,z
loop_
_atom_site_type_symbol
_atom_site_label
_atom_site_fract_x
_atom_site_fract_y
_atom_site_fract_z
Si Si1 0.279840 0.704953 0.149767
Si Si2 0.141980 0.715877 0.401293
Si Si3 0.646394 0.514463 0.659113
Si Si4 0.919444 0.004000 0.000000
Si Si5 0.929455 0.795175 0.103017
Si Si6 0.876549 0.847336 0.399359
O O1 0.289786 0.710215 0.250000
O O2 0.225800 0.725800 0.133687
O O3 0.316536 0.742501 0.104267
O O4 0.297546 0.652461 0.120302
O O5 0.132404 0.705823 0.500000
O O6 0.167727 0.667727 0.363274
O O7 0.095171 0.744605 0.367202
O O8 0.625962 0.500000 0.750000
O O9 0.612427 0.496206 0.583476
O O10 0.694229 0.481401 0.644444
O O11 0.651590 0.572182 0.648357
O O12 0.955365 0.048993 0.000000
O O13 0.891663 0.839555 0.123694
O O14 0.933088 0.794280 0.000000
O O15 0.885803 0.850832 0.500000
#
# Coordination Sequence:
#
# PCOD9572237 Si02
#       6
#    32  32  32  16  32  32
#     4   9  17  27  43  68  93 111 134 173 216 265
#     4   8  14  25  42  62  81 105 132 161 207 266
#     4  12  24  34  49  68  86 114 149 191 239 288
#     4  11  24  42  54  62  80 104 146 202 254 295
#     4   9  17  31  48  63  86 110 137 182 227 269
#     4  10  20  33  49  65  85 115 148 184 227 281
#
# _framework density 14.741282
#
# number of rings (size 3 to 8) (size 9 to 14) (size 15 to 20)
#    0.000    2.273    1.818    2.727    5.091    3.273 
#    0.000    0.909    0.000    0.000    0.000    0.000 
#    0.000    0.000    0.000    0.000    0.000    0.909 
#
# Total GULP energy -490092.112922 kJ/mol
# GULP energy per Si atom -5569.228556 kJ/mol
# Density = 1.470773 g / cm^3
# Si number density = 14.741282 Si / 1000 Ang^3
#
#
#
# Elastic Constant Matrix: (Units=GPa)
#
#
# Indices 1 2 3 4 5 6 
#
# 1 28.5863 14.1639 9.2702 0.0000 0.0000 0.0000
# 2 14.1639 28.5846 9.2699 0.0000 0.0000 0.0000
# 3 9.2702 9.2699 55.3641 0.0000 0.0000 0.0000
# 4 0.0000 0.0000 0.0000 2.4774 0.0000 0.0000
# 5 0.0000 0.0000 0.0000 0.0000 2.4777 0.0000
# 6 0.0000 0.0000 0.0000 0.0000 0.0000 42.5349
#
#
#
# Elastic Compliance Matrix: (Units=1/GPa)
#
#
# Indices 1 2 3 4 5 6 
#
# 1 0.047281 -0.022058 -0.004223 0.000000 0.000000 0.000000
# 2 -0.022058 0.047283 -0.004223 0.000000 0.000000 0.000000
# 3 -0.004223 -0.004223 0.019477 0.000000 0.000000 0.000000
# 4 0.000000 0.000000 0.000000 0.403654 0.000000 0.000000
# 5 0.000000 0.000000 0.000000 0.000000 0.403607 0.000000
# 6 0.000000 0.000000 0.000000 0.000000 0.000000 0.023510
#
#
# Mechanical properties :
#
#
# Convention : Reuss Voigt Hill
#
# Bulk Modulus (GPa) = 18.85704 19.77142 19.31423
# Shear Modulus (GPa) = 4.88520 14.82006 9.85263
#
# Velocity S-wave (km/s) = 1.82240 3.17416 2.58809
# Velocity P-wave (km/s) = 4.15307 5.18412 4.69697
#
# Compressibility (1/GPa) = 0.05303059
#
# Stress axis : x y z
#
# Youngs Moduli (GPa) = 21.15031 21.14903 51.34376
#
# Poissons Ratio (x) = 0.46651 0.21684
# Poissons Ratio (y) = 0.46654 0.21685
# Poissons Ratio (z) = 0.08933 0.08932
#
# Static dielectric constant tensor:
#      x y z
#    x 1.518780 0.000000 0.000000 
#    y 0.000000 1.518780 0.000000 
#    z 0.000000 0.000000 1.537090 
# 
# From -- ./inp_files/5110.got.cif
#   From: 2010.05.17/outbox.cif.g08.bks.cpg/sg140_3_cif.got.tgz:5110.got - 2010.06.21 00:45:31.
