data_PCOD9572804
_publ_section_title
;
Structure prediction by ZEFSAII (Michael W. Deem and Ramdas Pophale) SiO2 
 PCOD9572804
Probable space group: I 41/A M D
;
_chemical_formula_sum "Si O2"
_cell_formula_units_Z 96
_cell_length_a 13.478124
_cell_length_b 13.478124
_cell_length_c 27.150299
_cell_angle_alpha 90.000000
_cell_angle_beta 90.000000
_cell_angle_gamma 90.000000
_cell_volume 4932.118607
_symmetry_space_group_name_H-M "I 41/A M D"
_symmetry_group_IT_number 141
_space_group.IT_coordinate_system_code '2'
_symmetry_cell_setting 'tetragonal'
loop_
_space_group_symop_operation_xyz
x,y,z
1/4-y,3/4+x,1/4+z
-x,1/2-y,z
1/4+y,1/4-x,3/4+z
x,-y,-z
-x,1/2+y,-z
1/4+y,3/4+x,1/4-z
1/4-y,1/4-x,3/4-z
-x,-y,-z
3/4+y,1/4-x,3/4-z
x,1/2+y,-z
3/4-y,3/4+x,1/4-z
-x,y,z
x,1/2-y,z
3/4-y,1/4-x,3/4+z
3/4+y,3/4+x,1/4+z
1/2+x,1/2+y,1/2+z
3/4-y,1/4+x,3/4+z
1/2-x,-y,1/2+z
3/4+y,3/4-x,1/4+z
1/2+x,1/2-y,1/2-z
1/2-x,y,1/2-z
3/4+y,1/4+x,3/4-z
3/4-y,3/4-x,1/4-z
1/2-x,1/2-y,1/2-z
1/4+y,3/4-x,1/4-z
1/2+x,y,1/2-z
1/4-y,1/4+x,3/4-z
1/2-x,1/2+y,1/2+z
1/2+x,-y,1/2+z
1/4-y,3/4-x,1/4+z
1/4+y,1/4+x,3/4+z
loop_
_atom_site_type_symbol
_atom_site_label
_atom_site_fract_x
_atom_site_fract_y
_atom_site_fract_z
Si Si1 0.311044 0.000000 0.500000
Si Si2 0.386124 0.136124 0.125000
Si Si3 0.385572 0.494178 0.663001
Si Si4 0.887058 0.579531 0.332975
O O1 0.254007 0.075640 0.536040
O O2 0.367608 0.068952 0.461263
O O3 0.500000 0.128012 0.105046
O O4 0.291420 0.126133 0.088511
O O5 0.500000 0.470094 0.670953
O O6 0.333759 0.416242 0.625000
O O7 0.372833 0.597066 0.633989
O O8 0.000000 0.603028 0.324196
#
# Coordination Sequence:
#
# PCOD9572804 Si02
#       4
#    16  16  32  32
#     4  10  18  36  58  88 110 150 186 236 280 334
#     4   9  16  30  52  76 107 148 188 224 271 330
#     4  10  21  38  58  84 115 149 189 232 281 334
#     4  10  19  35  56  80 114 152 189 233 283 334
#
# _framework density 19.464251999999998
#
# number of rings (size 3 to 8) (size 9 to 14) (size 15 to 20)
#    0.000    2.167    5.000    1.000    0.000    1.000 
#    0.000   16.667    0.000   20.000    0.000    0.000 
#    0.000    0.000    0.000    0.000    0.000    0.000 
#
# Total GULP energy -267202.680642 kJ/mol
# GULP energy per Si atom -5566.722513 kJ/mol
# Density = 1.941995 g / cm^3
# Si number density = 19.464252 Si / 1000 Ang^3
#
#
#
# Elastic Constant Matrix: (Units=GPa)
#
#
# Indices 1 2 3 4 5 6 
#
# 1 101.1040 5.7941 24.0488 0.0000 0.0000 0.0000
# 2 5.7941 101.1023 24.0481 0.0000 0.0000 0.0000
# 3 24.0488 24.0481 113.2424 0.0000 0.0000 0.0000
# 4 0.0000 0.0000 0.0000 -0.0464 0.0000 0.0000
# 5 0.0000 0.0000 0.0000 0.0000 -0.0467 0.0000
# 6 0.0000 0.0000 0.0000 0.0000 0.0000 7.8699
#
#
#
# Elastic Compliance Matrix: (Units=1/GPa)
#
#
# Indices 1 2 3 4 5 6 
#
# 1 0.010418 -0.000075 -0.002196 0.000000 0.000000 0.000000
# 2 -0.000075 0.010418 -0.002196 0.000000 0.000000 0.000000
# 3 -0.002196 -0.002196 0.009764 0.000000 0.000000 0.000000
# 4 0.000000 0.000000 0.000000-21.566711 0.000002 0.000000
# 5 0.000000 0.000000 0.000000 0.000002-21.410225 0.000000
# 6 0.000000 0.000000 0.000000 0.000000 0.000000 0.127066
#
#
# Mechanical properties :
#
#
# Convention : Reuss Voigt Hill
#
# Bulk Modulus (GPa) = 46.16015 47.02563 46.59289
# Shear Modulus (GPa) = -0.11681 18.99254 9.43786
#
# Velocity S-wave (km/s) = -0.24524 3.12711 2.20439
# Velocity P-wave (km/s) = 4.86689 6.10335 5.51985
#
# Compressibility (1/GPa) = 0.02166371
#
# Stress axis : x y z
#
# Youngs Moduli (GPa) = 95.99192 95.99053 102.42216
#
# Poissons Ratio (x) = 0.00716 0.22497
# Poissons Ratio (y) = 0.00716 0.22497
# Poissons Ratio (z) = 0.21085 0.21084
#
# Static dielectric constant tensor:
#      x y z
#    x 1.703380 0.000000 0.000000 
#    y 0.000000 1.703380 0.000000 
#    z 0.000000 0.000000 1.674160 
# 
# From -- ./inp_files/9783.got.cif
#   From: 2010.05.17/outbox.cif.g08.bks.cpg/sg141_5_cif.got.tgz:9783.got - 2010.05.20 13:30:51.
