data_PCOD9572541
_publ_section_title
;
Structure prediction by ZEFSAII (Michael W. Deem and Ramdas Pophale) SiO2 
 PCOD9572541
Probable space group: I 4/M C M
;
_chemical_formula_sum "Si O2"
_cell_formula_units_Z 84
_cell_length_a 12.630470
_cell_length_b 12.630470
_cell_length_c 26.259168
_cell_angle_alpha 90.000000
_cell_angle_beta 90.000000
_cell_angle_gamma 90.000000
_cell_volume 4189.092836
_symmetry_space_group_name_H-M "I 4/M C M"
_symmetry_group_IT_number 140
_symmetry_cell_setting 'tetragonal'
loop_
_space_group_symop_operation_xyz
x,y,z
-y,x,z
-x,-y,z
y,-x,z
x,-y,1/2-z
-x,y,1/2-z
y,x,1/2-z
-y,-x,1/2-z
-x,-y,-z
y,-x,-z
x,y,-z
-y,x,-z
-x,y,1/2+z
x,-y,1/2+z
-y,-x,1/2+z
y,x,1/2+z
1/2+x,1/2+y,1/2+z
1/2-y,1/2+x,1/2+z
1/2-x,1/2-y,1/2+z
1/2+y,1/2-x,1/2+z
1/2+x,1/2-y,-z
1/2-x,1/2+y,-z
1/2+y,1/2+x,-z
1/2-y,1/2-x,-z
1/2-x,1/2-y,1/2-z
1/2+y,1/2-x,1/2-z
1/2+x,1/2+y,1/2-z
1/2-y,1/2+x,1/2-z
1/2-x,1/2+y,z
1/2+x,1/2-y,z
1/2-y,1/2-x,z
1/2+y,1/2+x,z
loop_
_atom_site_type_symbol
_atom_site_label
_atom_site_fract_x
_atom_site_fract_y
_atom_site_fract_z
Si Si1 0.219756 0.895262 0.000000
Si Si2 0.503980 0.827813 0.096676
Si Si3 0.006383 0.178520 0.306666
Si Si4 0.000000 0.000000 0.500000
O O1 0.262610 0.955170 0.949843
O O2 0.279778 0.779778 0.000000
O O3 0.093032 0.906517 0.000000
O O4 0.613702 0.886299 0.083287
O O5 0.514840 0.757773 0.146891
O O6 0.419090 0.919090 0.107821
O O7 0.104977 0.097819 0.310296
O O8 0.000000 0.227424 0.250000
#
# Coordination Sequence:
#
# PCOD9572541 Si02
#       4
#    16  32  32   4
#     4  10  25  45  65  99 136 168 216 274 326 384
#     4  10  22  40  62  88 126 171 210 264 333 395
#     4   9  20  38  59  85 120 160 208 270 330 390
#     4  12  28  44  76 104 126 188 236 260 324 410
#
# _framework density 20.052074999999999
#
# number of rings (size 3 to 8) (size 9 to 14) (size 15 to 20)
#    0.000    2.286    0.000    1.714    5.333    6.857 
#    0.000    5.714    0.000    0.000    0.000    0.000 
#    0.000    0.000    0.000    0.000    0.000    0.000 
#
# Total GULP energy -233950.540321 kJ/mol
# GULP energy per Si atom -5570.250960 kJ/mol
# Density = 2.000644 g / cm^3
# Si number density = 20.052075 Si / 1000 Ang^3
#
#
#
# Elastic Constant Matrix: (Units=GPa)
#
#
# Indices 1 2 3 4 5 6 
#
# 1 87.9736 24.9440 33.8379 0.0000 0.0000 0.0000
# 2 24.9440 87.9736 33.8379 0.0000 0.0000 0.0000
# 3 33.8379 33.8379 98.0920 0.0000 0.0000 0.0000
# 4 0.0000 0.0000 0.0000 39.7127 0.0000 0.0000
# 5 0.0000 0.0000 0.0000 0.0000 39.7127 0.0000
# 6 0.0000 0.0000 0.0000 0.0000 0.0000 10.7224
#
#
#
# Elastic Compliance Matrix: (Units=1/GPa)
#
#
# Indices 1 2 3 4 5 6 
#
# 1 0.013515 -0.002351 -0.003851 0.000000 0.000000 0.000000
# 2 -0.002351 0.013515 -0.003851 0.000000 0.000000 0.000000
# 3 -0.003851 -0.003851 0.012852 0.000000 0.000000 0.000000
# 4 0.000000 0.000000 0.000000 0.025181 0.000000 0.000000
# 5 0.000000 0.000000 0.000000 0.000000 0.025181 0.000000
# 6 0.000000 0.000000 0.000000 0.000000 0.000000 0.093262
#
#
# Mechanical properties :
#
#
# Convention : Reuss Voigt Hill
#
# Bulk Modulus (GPa) = 50.56867 51.03097 50.79982
# Shear Modulus (GPa) = 23.78650 30.12419 26.95535
#
# Velocity S-wave (km/s) = 3.44791 3.88015 3.67040
# Velocity P-wave (km/s) = 6.41282 6.75119 6.58418
#
# Compressibility (1/GPa) = 0.01977509
#
# Stress axis : x y z
#
# Youngs Moduli (GPa) = 73.99254 73.99254 77.81177
#
# Poissons Ratio (x) = 0.17393 0.29967
# Poissons Ratio (y) = 0.17393 0.29967
# Poissons Ratio (z) = 0.28496 0.28496
#
# Static dielectric constant tensor:
#      x y z
#    x 1.710310 0.000000 0.000000 
#    y 0.000000 1.710310 0.000000 
#    z 0.000000 0.000000 1.679580 
# 
# From -- ./inp_files/11132.got.cif
#   From: 2010.05.17/outbox.cif.g08.bks.cpg/sg140_6_cif.got.tgz:11132.got - 2010.06.21 00:45:31.
