data_PCOD9572847
_publ_section_title
;
Structure prediction by ZEFSAII (Michael W. Deem and Ramdas Pophale) SiO2 
 PCOD9572847
Probable space group: I 41/A M D
;
_chemical_formula_sum "Si O2"
_cell_formula_units_Z 160
_cell_length_a 25.111257
_cell_length_b 25.111257
_cell_length_c 12.156612
_cell_angle_alpha 90.000000
_cell_angle_beta 90.000000
_cell_angle_gamma 90.000000
_cell_volume 7665.658385
_symmetry_space_group_name_H-M "I 41/A M D"
_symmetry_group_IT_number 141
_space_group.IT_coordinate_system_code '2'
_symmetry_cell_setting 'tetragonal'
loop_
_space_group_symop_operation_xyz
x,y,z
1/4-y,3/4+x,1/4+z
-x,1/2-y,z
1/4+y,1/4-x,3/4+z
x,-y,-z
-x,1/2+y,-z
1/4+y,3/4+x,1/4-z
1/4-y,1/4-x,3/4-z
-x,-y,-z
3/4+y,1/4-x,3/4-z
x,1/2+y,-z
3/4-y,3/4+x,1/4-z
-x,y,z
x,1/2-y,z
3/4-y,1/4-x,3/4+z
3/4+y,3/4+x,1/4+z
1/2+x,1/2+y,1/2+z
3/4-y,1/4+x,3/4+z
1/2-x,-y,1/2+z
3/4+y,3/4-x,1/4+z
1/2+x,1/2-y,1/2-z
1/2-x,y,1/2-z
3/4+y,1/4+x,3/4-z
3/4-y,3/4-x,1/4-z
1/2-x,1/2-y,1/2-z
1/4+y,3/4-x,1/4-z
1/2+x,y,1/2-z
1/4-y,1/4+x,3/4-z
1/2-x,1/2+y,1/2+z
1/2+x,-y,1/2+z
1/4-y,3/4-x,1/4+z
1/4+y,1/4+x,3/4+z
loop_
_atom_site_type_symbol
_atom_site_label
_atom_site_fract_x
_atom_site_fract_y
_atom_site_fract_z
Si Si1 0.724370 0.560346 0.991466
Si Si2 0.641031 0.579101 0.188390
Si Si3 0.150599 0.309508 0.470074
Si Si4 0.061955 0.102421 0.516570
Si Si5 0.560981 0.940295 0.541901
O O1 0.692334 0.442334 0.125000
O O2 0.682720 0.571581 0.086989
O O3 0.745238 0.500000 0.000000
O O4 0.775333 0.597906 0.004366
O O5 0.584422 0.577147 0.127626
O O6 0.654720 0.636989 0.240002
O O7 0.128572 0.250000 0.463392
O O8 0.101087 0.347623 0.496257
O O9 0.177520 0.319037 0.351163
O O10 0.188479 0.311633 0.574982
O O11 0.000000 0.115074 0.528945
O O12 0.500000 0.922772 0.509999
O O13 0.568356 0.000000 0.500000
#
# Coordination Sequence:
#
# PCOD9572847 Si02
#       5
#    32  32  32  32  32
#     4   9  19  33  50  72  94 128 172 207 245 288
#     4  10  19  32  52  71 101 131 166 213 250 308
#     4   8  15  27  44  67  97 134 172 209 245 296
#     4   9  17  28  46  71  99 131 166 205 253 307
#     4   9  17  29  47  70  96 127 163 205 255 301
#
# _framework density 20.872309999999999
#
# number of rings (size 3 to 8) (size 9 to 14) (size 15 to 20)
#    0.000    3.000    0.000    0.600    5.600    0.400 
#    0.000    3.000    0.000    5.400    0.000    0.000 
#    0.000    0.000    0.000    2.400    0.000    0.200 
#
# Total GULP energy -445493.593411 kJ/mol
# GULP energy per Si atom -5568.669918 kJ/mol
# Density = 2.082480 g / cm^3
# Si number density = 20.872310 Si / 1000 Ang^3
#
#
#
# Elastic Constant Matrix: (Units=GPa)
#
#
# Indices 1 2 3 4 5 6 
#
# 1 98.7040 14.3002 19.8351 0.0000 0.0000 0.0000
# 2 14.3002 98.7040 19.8351 0.0000 0.0000 0.0000
# 3 19.8351 19.8351 28.6856 0.0000 0.0000 0.0000
# 4 0.0000 0.0000 0.0000 24.5938 0.0000 0.0000
# 5 0.0000 0.0000 0.0000 0.0000 24.5938 0.0000
# 6 0.0000 0.0000 0.0000 0.0000 0.0000 6.5800
#
#
#
# Elastic Compliance Matrix: (Units=1/GPa)
#
#
# Indices 1 2 3 4 5 6 
#
# 1 0.011767 -0.000081 -0.008080 0.000000 0.000000 0.000000
# 2 -0.000081 0.011767 -0.008080 0.000000 0.000000 0.000000
# 3 -0.008080 -0.008080 0.046035 0.000000 0.000000 0.000000
# 4 0.000000 0.000000 0.000000 0.040661 0.000000 0.000000
# 5 0.000000 0.000000 0.000000 0.000000 0.040661 0.000000
# 6 0.000000 0.000000 0.000000 0.000000 0.000000 0.151975
#
#
# Mechanical properties :
#
#
# Convention : Reuss Voigt Hill
#
# Bulk Modulus (GPa) = 26.96468 37.11494 32.03981
# Shear Modulus (GPa) = 14.37976 22.62841 18.50409
#
# Velocity S-wave (km/s) = 2.62761 3.29619 2.98071
# Velocity P-wave (km/s) = 4.70667 5.68393 5.21823
#
# Compressibility (1/GPa) = 0.03708555
#
# Stress axis : x y z
#
# Youngs Moduli (GPa) = 84.98471 84.98471 21.72247
#
# Poissons Ratio (x) = 0.00688 0.17553
# Poissons Ratio (y) = 0.00688 0.17553
# Poissons Ratio (z) = 0.68671 0.68671
#
# Static dielectric constant tensor:
#      x y z
#    x 1.791050 0.000000 0.000000 
#    y 0.000000 1.791050 0.000000 
#    z 0.000000 0.000000 1.867020 
# 
# From -- ./inp_files/6594.got.cif
#   From: 2010.05.17/outbox.cif.g08.bks.cpg/sg141_4_cif.got.tgz:6594.got - 2010.05.20 13:30:51.
