data_PCOD9572759
_publ_section_title
;
Structure prediction by ZEFSAII (Michael W. Deem and Ramdas Pophale) SiO2 
 PCOD9572759
Probable space group: I 41/A M D
;
_chemical_formula_sum "Si O2"
_cell_formula_units_Z 176
_cell_length_a 26.287747
_cell_length_b 26.287747
_cell_length_c 13.742885
_cell_angle_alpha 90.000000
_cell_angle_beta 90.000000
_cell_angle_gamma 90.000000
_cell_volume 9496.960792
_symmetry_space_group_name_H-M "I 41/A M D"
_symmetry_group_IT_number 141
_space_group.IT_coordinate_system_code '2'
_symmetry_cell_setting 'tetragonal'
loop_
_space_group_symop_operation_xyz
x,y,z
1/4-y,3/4+x,1/4+z
-x,1/2-y,z
1/4+y,1/4-x,3/4+z
x,-y,-z
-x,1/2+y,-z
1/4+y,3/4+x,1/4-z
1/4-y,1/4-x,3/4-z
-x,-y,-z
3/4+y,1/4-x,3/4-z
x,1/2+y,-z
3/4-y,3/4+x,1/4-z
-x,y,z
x,1/2-y,z
3/4-y,1/4-x,3/4+z
3/4+y,3/4+x,1/4+z
1/2+x,1/2+y,1/2+z
3/4-y,1/4+x,3/4+z
1/2-x,-y,1/2+z
3/4+y,3/4-x,1/4+z
1/2+x,1/2-y,1/2-z
1/2-x,y,1/2-z
3/4+y,1/4+x,3/4-z
3/4-y,3/4-x,1/4-z
1/2-x,1/2-y,1/2-z
1/4+y,3/4-x,1/4-z
1/2+x,y,1/2-z
1/4-y,1/4+x,3/4-z
1/2-x,1/2+y,1/2+z
1/2+x,-y,1/2+z
1/4-y,3/4-x,1/4+z
1/4+y,1/4+x,3/4+z
loop_
_atom_site_type_symbol
_atom_site_label
_atom_site_fract_x
_atom_site_fract_y
_atom_site_fract_z
Si Si1 0.057593 0.415446 0.088619
Si Si2 0.058245 0.834981 0.412911
Si Si3 0.561277 0.106521 0.618796
Si Si4 0.302180 0.811991 0.951161
Si Si5 0.089527 0.339527 0.375000
Si Si6 0.308580 0.810980 0.575926
O O1 0.057130 0.354346 0.108547
O O2 0.079673 0.440350 0.186371
O O3 0.000000 0.435025 0.083224
O O4 0.079274 0.421062 0.980449
O O5 0.062057 0.822157 0.526547
O O6 0.072563 0.894618 0.396979
O O7 0.000000 0.826891 0.378165
O O8 0.500000 0.112103 0.614679
O O9 0.589674 0.160326 0.625000
O O10 0.574216 0.076161 0.716649
O O11 0.303709 0.750000 0.952149
O O12 0.351077 0.829466 0.892111
O O13 0.248473 0.829914 0.908107
O O14 0.304702 0.750000 0.579328
#
# Coordination Sequence:
#
# PCOD9572759 Si02
#       6
#    32  32  32  32  16  32
#     4   9  18  30  46  69 102 133 160 196 233 283
#     4  10  19  32  48  69  98 130 165 200 237 285
#     4  10  18  29  46  71 103 135 165 195 233 285
#     4   9  18  33  49  70  98 125 157 200 249 292
#     4  10  20  32  48  67  94 122 162 200 244 292
#     4   9  18  31  49  71  97 125 157 200 245 289
#
# _framework density 18.532243999999999
#
# number of rings (size 3 to 8) (size 9 to 14) (size 15 to 20)
#    0.000    2.545    1.818    0.545    0.000    2.727 
#    0.000    8.182    0.000    3.545    0.000    0.000 
#   35.455    0.000    0.000    0.000    0.000    0.000 
#
# Total GULP energy -489982.755586 kJ/mol
# GULP energy per Si atom -5567.985859 kJ/mol
# Density = 1.849006 g / cm^3
# Si number density = 18.532244 Si / 1000 Ang^3
#
#
#
# Elastic Constant Matrix: (Units=GPa)
#
#
# Indices 1 2 3 4 5 6 
#
# 1 39.6439 11.5851 -11.6095 0.0000 0.0000 0.0000
# 2 11.5851 39.6422 -11.6055 0.0000 0.0000 0.0000
# 3 -11.6095 -11.6055 58.0761 0.0000 0.0000 0.0000
# 4 0.0000 0.0000 0.0000 6.8207 0.0000 0.0000
# 5 0.0000 0.0000 0.0000 0.0000 6.8210 0.0000
# 6 0.0000 0.0000 0.0000 0.0000 0.0000 -1.7081
#
#
#
# Elastic Compliance Matrix: (Units=1/GPa)
#
#
# Indices 1 2 3 4 5 6 
#
# 1 0.028553 -0.007088 0.004291 0.000000 0.000000 0.000000
# 2 -0.007088 0.028553 0.004289 0.000000 0.000000 0.000000
# 3 0.004291 0.004289 0.018934 0.000000 0.000000 0.000000
# 4 0.000000 0.000000 0.000000 0.146612 0.000000 0.000000
# 5 0.000000 0.000000 0.000000 0.000000 0.146606 0.000000
# 6 0.000000 0.000000 0.000000 0.000000 0.000000 -0.585459
#
#
# Mechanical properties :
#
#
# Convention : Reuss Voigt Hill
#
# Bulk Modulus (GPa) = 12.65450 12.67804 12.66627
# Shear Modulus (GPa) = -25.92756 12.31954 -6.80401
#
# Velocity S-wave (km/s) = -3.74445 2.58110 -1.91818
# Velocity P-wave (km/s) = 3.44257 3.96720 1.39416
#
# Compressibility (1/GPa) = 0.07902328
#
# Stress axis : x y z
#
# Youngs Moduli (GPa) = 35.02315 35.02301 52.81590
#
# Poissons Ratio (x) = 0.24824 -0.22665
# Poissons Ratio (y) = 0.24824 -0.22652
# Poissons Ratio (z) = -0.15029 -0.15021
#
# Static dielectric constant tensor:
#      x y z
#    x 1.649750 0.000000 0.000000 
#    y 0.000000 1.649750 0.000000 
#    z 0.000000 0.000000 1.698200 
# 
# From -- ./inp_files/6817.got.cif
#   From: 2010.05.17/outbox.cif.g08.bks.cpg/sg141_4_cif.got.tgz:6817.got - 2010.05.20 13:30:51.
