data_PCOD9572531
_publ_section_title
;
Structure prediction by ZEFSAII (Michael W. Deem and Ramdas Pophale) SiO2 
 PCOD9572531
Probable space group: I 4/M C M
;
_chemical_formula_sum "Si O2"
_cell_formula_units_Z 112
_cell_length_a 13.902404
_cell_length_b 13.902404
_cell_length_c 28.662649
_cell_angle_alpha 90.000000
_cell_angle_beta 90.000000
_cell_angle_gamma 90.000000
_cell_volume 5539.826138
_symmetry_space_group_name_H-M "I 4/M C M"
_symmetry_group_IT_number 140
_symmetry_cell_setting 'tetragonal'
loop_
_space_group_symop_operation_xyz
x,y,z
-y,x,z
-x,-y,z
y,-x,z
x,-y,1/2-z
-x,y,1/2-z
y,x,1/2-z
-y,-x,1/2-z
-x,-y,-z
y,-x,-z
x,y,-z
-y,x,-z
-x,y,1/2+z
x,-y,1/2+z
-y,-x,1/2+z
y,x,1/2+z
1/2+x,1/2+y,1/2+z
1/2-y,1/2+x,1/2+z
1/2-x,1/2-y,1/2+z
1/2+y,1/2-x,1/2+z
1/2+x,1/2-y,-z
1/2-x,1/2+y,-z
1/2+y,1/2+x,-z
1/2-y,1/2-x,-z
1/2-x,1/2-y,1/2-z
1/2+y,1/2-x,1/2-z
1/2+x,1/2+y,1/2-z
1/2-y,1/2+x,1/2-z
1/2-x,1/2+y,z
1/2+x,1/2-y,z
1/2-y,1/2-x,z
1/2+y,1/2+x,z
loop_
_atom_site_type_symbol
_atom_site_label
_atom_site_fract_x
_atom_site_fract_y
_atom_site_fract_z
Si Si1 0.152201 0.500000 0.250000
Si Si2 0.135341 0.795414 0.296763
Si Si3 0.235009 0.422067 0.445134
Si Si4 0.783480 0.878351 0.601277
O O1 0.083035 0.416965 0.269757
O O2 0.218737 0.449385 0.212094
O O3 0.140344 0.859657 0.250000
O O4 0.235922 0.735922 0.297683
O O5 0.120665 0.835943 0.348200
O O6 0.228080 0.444145 0.500000
O O7 0.141460 0.358541 0.431652
O O8 0.249626 0.518312 0.415885
O O9 0.326265 0.353590 0.435120
O O10 0.690287 0.809714 0.606402
#
# Coordination Sequence:
#
# PCOD9572531 Si02
#       4
#    16  32  32  32
#     4   9  18  32  54  83 112 146 190 235 280 340
#     4   9  19  34  54  81 116 155 188 230 289 344
#     4  10  22  40  63  89 118 155 199 252 308 360
#     4  10  22  39  60  89 122 157 199 246 297 358
#
# _framework density 20.217241000000001
#
# number of rings (size 3 to 8) (size 9 to 14) (size 15 to 20)
#    0.000    2.429    0.000    0.857    4.000    4.000 
#    0.000    5.714    0.000    0.429    0.000    0.000 
#    0.000    0.000    0.000    0.000    0.000    0.000 
#
# Total GULP energy -312290.947991 kJ/mol
# GULP energy per Si atom -5576.624071 kJ/mol
# Density = 2.017123 g / cm^3
# Si number density = 20.217241 Si / 1000 Ang^3
#
#
#
# Elastic Constant Matrix: (Units=GPa)
#
#
# Indices 1 2 3 4 5 6 
#
# 1 71.7818 23.8979 28.4487 0.0000 0.0000 0.0000
# 2 23.8979 71.7817 28.4486 0.0000 0.0000 0.0000
# 3 28.4487 28.4486 99.8387 0.0000 0.0000 0.0000
# 4 0.0000 0.0000 0.0000 19.7427 0.0000 0.0000
# 5 0.0000 0.0000 0.0000 0.0000 19.7427 0.0000
# 6 0.0000 0.0000 0.0000 0.0000 0.0000 10.6341
#
#
#
# Elastic Compliance Matrix: (Units=1/GPa)
#
#
# Indices 1 2 3 4 5 6 
#
# 1 0.016734 -0.004150 -0.003586 0.000000 0.000000 0.000000
# 2 -0.004150 0.016734 -0.003586 0.000000 0.000000 0.000000
# 3 -0.003586 -0.003586 0.012060 0.000000 0.000000 0.000000
# 4 0.000000 0.000000 0.000000 0.050652 0.000000 0.000000
# 5 0.000000 0.000000 0.000000 0.000000 0.050652 0.000000
# 6 0.000000 0.000000 0.000000 0.000000 0.000000 0.094037
#
#
# Mechanical properties :
#
#
# Convention : Reuss Voigt Hill
#
# Bulk Modulus (GPa) = 43.69778 44.99915 44.34846
# Shear Modulus (GPa) = 18.44072 20.86436 19.65254
#
# Velocity S-wave (km/s) = 3.02342 3.21597 3.12118
# Velocity P-wave (km/s) = 5.81800 6.00800 5.91377
#
# Compressibility (1/GPa) = 0.02288446
#
# Stress axis : x y z
#
# Youngs Moduli (GPa) = 59.75913 59.75910 82.92129
#
# Poissons Ratio (x) = 0.24800 0.29733
# Poissons Ratio (y) = 0.24800 0.29733
# Poissons Ratio (z) = 0.21428 0.21428
#
# Static dielectric constant tensor:
#      x y z
#    x 1.718520 0.000000 0.000000 
#    y 0.000000 1.718520 0.000000 
#    z 0.000000 0.000000 1.745440 
# 
# From -- ./inp_files/11256.got.cif
#   From: 2010.05.17/outbox.cif.g08.bks.cpg/sg140_6_cif.got.tgz:11256.got - 2010.06.21 00:45:31.
