data_PCOD9572724
_publ_section_title
;
Structure prediction by ZEFSAII (Michael W. Deem and Ramdas Pophale) SiO2 
 PCOD9572724
Probable space group: I 4/M C M
;
_chemical_formula_sum "Si O2"
_cell_formula_units_Z 84
_cell_length_a 24.000000
_cell_length_b 24.000000
_cell_length_c 15.000000
_cell_angle_alpha 90.000000
_cell_angle_beta 90.000000
_cell_angle_gamma 90.000000
_cell_volume 8640.000000
_symmetry_space_group_name_H-M "I 4/M C M"
_symmetry_group_IT_number 140
_symmetry_cell_setting 'tetragonal'
loop_
_space_group_symop_operation_xyz
x,y,z
-y,x,z
-x,-y,z
y,-x,z
x,-y,1/2-z
-x,y,1/2-z
y,x,1/2-z
-y,-x,1/2-z
-x,-y,-z
y,-x,-z
x,y,-z
-y,x,-z
-x,y,1/2+z
x,-y,1/2+z
-y,-x,1/2+z
y,x,1/2+z
1/2+x,1/2+y,1/2+z
1/2-y,1/2+x,1/2+z
1/2-x,1/2-y,1/2+z
1/2+y,1/2-x,1/2+z
1/2+x,1/2-y,-z
1/2-x,1/2+y,-z
1/2+y,1/2+x,-z
1/2-y,1/2-x,-z
1/2-x,1/2-y,1/2-z
1/2+y,1/2-x,1/2-z
1/2+x,1/2+y,1/2-z
1/2-y,1/2+x,1/2-z
1/2-x,1/2+y,z
1/2+x,1/2-y,z
1/2-y,1/2-x,z
1/2+y,1/2+x,z
loop_
_atom_site_type_symbol
_atom_site_label
_atom_site_fract_x
_atom_site_fract_y
_atom_site_fract_z
Si Si1 0.817902 0.817903 0.846617
Si Si2 0.750000 0.250000 0.000000
Si Si3 0.848598 0.437841 0.642084
Si Si4 0.561986 0.280932 0.603466
Si Si5 0.651402 0.937841 0.142086
Si Si6 0.438013 0.280932 0.396534
O O1 0.798472 0.798472 0.750000
O O2 0.784945 0.784946 0.922692
O O3 0.807298 0.883876 0.853729
O O4 0.883876 0.807298 0.853729
O O5 0.890172 0.390172 0.610562
O O6 0.867608 0.500000 0.616714
O O7 0.846798 0.435689 0.749999
O O8 0.785889 0.430471 0.609163
O O9 0.561950 0.297077 0.500000
O O10 0.569528 0.214111 0.609164
O O11 0.500000 0.292960 0.640486
O O12 0.609829 0.890172 0.110564
O O13 0.438050 0.297078 0.500000
#
# Coordination Sequence:
#
# PCOD9572724 Si02
#       6
#    32   8  32  32  32  32
#     4  12  25  41  65  93 126 168 206 258 314 366
#     4  12  26  44  56  98 136 162 208 256 304 382
#     4   9  18  31  48  72 103 144 195 246 296 351
#     4  10  21  39  60  84 118 158 200 249 306 369
#     4   9  18  31  48  72 103 144 195 246 296 351
#     4  10  21  39  60  84 118 158 200 249 306 369
#
# _framework density 9.7222220000000004
#
# number of rings (size 3 to 8) (size 9 to 14) (size 15 to 20)
#    0.000    1.905    1.905    1.429    2.667    3.429 
#    0.000    1.905    0.000    0.571    0.000    9.333 
#    0.000    0.000    0.000    0.000    0.000    0.000 
#
# Total GULP energy -467757.160577 kJ/mol
# GULP energy per Si atom -5568.537626 kJ/mol
# Density = 0.970009 g / cm^3
# Si number density = 9.722222 Si / 1000 Ang^3
#
#
#
# Elastic Constant Matrix: (Units=GPa)
#
#
# Indices 1 2 3 4 5 6 
#
# 1 90.4785 92.7979 32.0587 0.0000 0.0000 0.0000
# 2 92.7979 90.4785 32.0587 0.0000 0.0000 0.0000
# 3 32.0587 32.0587 126.0765 0.0000 0.0000 0.0000
# 4 0.0000 0.0000 0.0000 -20.2901 0.0000 0.0000
# 5 0.0000 0.0000 0.0000 0.0000 -20.2901 0.0000
# 6 0.0000 0.0000 0.0000 0.0000 0.0000 37.8760
#
#
#
# Elastic Compliance Matrix: (Units=1/GPa)
#
#
# Indices 1 2 3 4 5 6 
#
# 1 -0.212578 0.218567 -0.001523 0.000000 0.000000 0.000000
# 2 0.218567 -0.212578 -0.001523 0.000000 0.000000 0.000000
# 3 -0.001523 -0.001523 0.008706 0.000000 0.000000 0.000000
# 4 0.000000 0.000000 0.000000 -0.049285 0.000000 0.000000
# 5 0.000000 0.000000 0.000000 0.000000 -0.049285 0.000000
# 6 0.000000 0.000000 0.000000 0.000000 0.000000 0.026402
#
#
# Mechanical properties :
#
#
# Convention : Reuss Voigt Hill
#
# Bulk Modulus (GPa) = 68.52764 68.98488 68.75626
# Shear Modulus (GPa) = -5.46571 9.46705 2.00067
#
# Velocity S-wave (km/s) = -1.67840 2.20892 1.01546
# Velocity P-wave (km/s) = 5.61812 6.48543 6.06729
#
# Compressibility (1/GPa) = 0.01459265
#
# Stress axis : x y z
#
# Youngs Moduli (GPa) = -4.70416 -4.70416 114.86116
#
# Poissons Ratio (x) = 1.02817 0.17492
# Poissons Ratio (y) = 1.02817 0.17492
# Poissons Ratio (z) = -0.00716 -0.00716
#
# Static dielectric constant tensor:
#      x y z
#    x 1.663990 0.000000 0.000000 
#    y 0.000000 1.663990 0.000000 
#    z 0.000000 0.000000 1.742150 
# 
# From -- ./inp_files/4881.got.cif
#   From: 2010.05.17/outbox.ucp.g08.bks.cvg/sg140_3_cif.got.tgz:4881.got - 2010.06.11 11:42:50.
