data_PCOD9572623
_publ_section_title
;
Structure prediction by ZEFSAII (Michael W. Deem and Ramdas Pophale) SiO2 
 PCOD9572623
Probable space group: I 4/M C M
;
_chemical_formula_sum "Si O2"
_cell_formula_units_Z 112
_cell_length_a 15.506301
_cell_length_b 15.506301
_cell_length_c 24.130994
_cell_angle_alpha 90.000000
_cell_angle_beta 90.000000
_cell_angle_gamma 90.000000
_cell_volume 5802.185798
_symmetry_space_group_name_H-M "I 4/M C M"
_symmetry_group_IT_number 140
_symmetry_cell_setting 'tetragonal'
loop_
_space_group_symop_operation_xyz
x,y,z
-y,x,z
-x,-y,z
y,-x,z
x,-y,1/2-z
-x,y,1/2-z
y,x,1/2-z
-y,-x,1/2-z
-x,-y,-z
y,-x,-z
x,y,-z
-y,x,-z
-x,y,1/2+z
x,-y,1/2+z
-y,-x,1/2+z
y,x,1/2+z
1/2+x,1/2+y,1/2+z
1/2-y,1/2+x,1/2+z
1/2-x,1/2-y,1/2+z
1/2+y,1/2-x,1/2+z
1/2+x,1/2-y,-z
1/2-x,1/2+y,-z
1/2+y,1/2+x,-z
1/2-y,1/2-x,-z
1/2-x,1/2-y,1/2-z
1/2+y,1/2-x,1/2-z
1/2+x,1/2+y,1/2-z
1/2-y,1/2+x,1/2-z
1/2-x,1/2+y,z
1/2+x,1/2-y,z
1/2-y,1/2-x,z
1/2+y,1/2+x,z
loop_
_atom_site_type_symbol
_atom_site_label
_atom_site_fract_x
_atom_site_fract_y
_atom_site_fract_z
Si Si1 0.144929 0.030529 0.500000
Si Si2 0.895783 0.745328 0.900462
Si Si3 0.157995 0.522752 0.815227
Si Si4 0.805496 0.163688 0.309240
O O1 0.209164 0.049007 0.551719
O O2 0.064398 0.099631 0.500000
O O3 0.814433 0.685568 0.920273
O O4 0.864361 0.824627 0.862078
O O5 0.949246 0.685915 0.857527
O O6 0.150030 0.500000 0.750000
O O7 0.071029 0.571029 0.832245
O O8 0.234836 0.591606 0.817443
O O9 0.850062 0.149939 0.250000
O O10 0.755717 0.255717 0.305919
#
# Coordination Sequence:
#
# PCOD9572623 Si02
#       4
#    16  32  32  32
#     4  11  25  46  68  87 113 153 208 267 312 351
#     4  11  22  39  63  90 123 161 201 244 300 369
#     4  11  21  34  56  89 127 162 197 243 303 363
#     4   9  17  32  53  82 118 160 203 236 276 342
#
# _framework density 19.303072
#
# number of rings (size 3 to 8) (size 9 to 14) (size 15 to 20)
#    0.000    1.571    2.857    3.000    0.000    2.000 
#    0.000    2.143    0.000    1.714    0.000    0.000 
#    0.000    0.000    0.000    0.000    0.000    0.000 
#
# Total GULP energy -312133.987387 kJ/mol
# GULP energy per Si atom -5573.821203 kJ/mol
# Density = 1.925914 g / cm^3
# Si number density = 19.303072 Si / 1000 Ang^3
#
#
#
# Elastic Constant Matrix: (Units=GPa)
#
#
# Indices 1 2 3 4 5 6 
#
# 1 80.9203 34.7486 31.3447 0.0000 0.0000 0.0000
# 2 34.7486 80.9207 31.3448 0.0000 0.0000 0.0000
# 3 31.3447 31.3448 97.3317 0.0000 0.0000 0.0000
# 4 0.0000 0.0000 0.0000 9.9158 0.0000 0.0000
# 5 0.0000 0.0000 0.0000 0.0000 9.9153 0.0000
# 6 0.0000 0.0000 0.0000 0.0000 0.0000 40.8544
#
#
#
# Elastic Compliance Matrix: (Units=1/GPa)
#
#
# Indices 1 2 3 4 5 6 
#
# 1 0.016066 -0.005592 -0.003373 0.000000 0.000000 0.000000
# 2 -0.005592 0.016066 -0.003373 0.000000 0.000000 0.000000
# 3 -0.003373 -0.003373 0.012447 0.000000 0.000000 0.000000
# 4 0.000000 0.000000 0.000000 0.100849 0.000000 0.000000
# 5 0.000000 0.000000 0.000000 0.000000 0.100854 0.000000
# 6 0.000000 0.000000 0.000000 0.000000 0.000000 0.024477
#
#
# Mechanical properties :
#
#
# Convention : Reuss Voigt Hill
#
# Bulk Modulus (GPa) = 50.24659 50.44987 50.34823
# Shear Modulus (GPa) = 16.55254 22.91942 19.73598
#
# Velocity S-wave (km/s) = 2.93150 3.44953 3.20101
# Velocity P-wave (km/s) = 6.12741 6.48522 6.30885
#
# Compressibility (1/GPa) = 0.01990185
#
# Stress axis : x y z
#
# Youngs Moduli (GPa) = 62.24406 62.24437 80.34372
#
# Poissons Ratio (x) = 0.34810 0.27099
# Poissons Ratio (y) = 0.34809 0.27099
# Poissons Ratio (z) = 0.20994 0.20994
#
# Static dielectric constant tensor:
#      x y z
#    x 1.685700 0.000000 0.000000 
#    y 0.000000 1.685710 0.000000 
#    z 0.000000 0.000000 1.717590 
# 
# From -- ./inp_files/9078.got.cif
#   From: 2010.05.17/outbox.cif.g08.bks.cpg/sg140_5_cif.got.tgz:9078.got - 2010.06.21 00:45:31.
