data_PCOD9572457
_publ_section_title
;
Structure prediction by ZEFSAII (Michael W. Deem and Ramdas Pophale) SiO2 
 PCOD9572457
Probable space group: I 4/M C M
;
_chemical_formula_sum "Si O2"
_cell_formula_units_Z 192
_cell_length_a 20.147808
_cell_length_b 20.147808
_cell_length_c 25.179252
_cell_angle_alpha 90.000000
_cell_angle_beta 90.000000
_cell_angle_gamma 90.000000
_cell_volume 10221.118691
_symmetry_space_group_name_H-M "I 4/M C M"
_symmetry_group_IT_number 140
_symmetry_cell_setting 'tetragonal'
loop_
_space_group_symop_operation_xyz
x,y,z
-y,x,z
-x,-y,z
y,-x,z
x,-y,1/2-z
-x,y,1/2-z
y,x,1/2-z
-y,-x,1/2-z
-x,-y,-z
y,-x,-z
x,y,-z
-y,x,-z
-x,y,1/2+z
x,-y,1/2+z
-y,-x,1/2+z
y,x,1/2+z
1/2+x,1/2+y,1/2+z
1/2-y,1/2+x,1/2+z
1/2-x,1/2-y,1/2+z
1/2+y,1/2-x,1/2+z
1/2+x,1/2-y,-z
1/2-x,1/2+y,-z
1/2+y,1/2+x,-z
1/2-y,1/2-x,-z
1/2-x,1/2-y,1/2-z
1/2+y,1/2-x,1/2-z
1/2+x,1/2+y,1/2-z
1/2-y,1/2+x,1/2-z
1/2-x,1/2+y,z
1/2+x,1/2-y,z
1/2-y,1/2-x,z
1/2+y,1/2+x,z
loop_
_atom_site_type_symbol
_atom_site_label
_atom_site_fract_x
_atom_site_fract_y
_atom_site_fract_z
Si Si1 0.000000 0.244679 0.250000
Si Si2 0.002147 0.604652 0.589160
Si Si3 0.211966 0.399058 0.558743
Si Si4 0.565206 0.319741 0.648040
Si Si5 0.421581 0.337489 0.389775
Si Si6 0.089763 0.303869 0.161465
Si Si7 0.064847 0.093087 0.000000
O O1 0.958981 0.205269 0.205156
O O2 0.944783 0.283971 0.283577
O O3 0.946828 0.553173 0.609543
O O4 0.960461 0.659922 0.558132
O O5 0.058356 0.558356 0.561874
O O6 0.039854 0.643984 0.634699
O O7 0.244277 0.396430 0.500000
O O8 0.167015 0.332986 0.565607
O O9 0.261469 0.410687 0.607809
O O10 0.498664 0.349375 0.622248
O O11 0.621603 0.374706 0.649550
O O12 0.408276 0.260158 0.377347
O O13 0.410675 0.366427 0.448419
O O14 0.160268 0.339733 0.167338
O O15 0.983687 0.089196 0.000000
#
# Coordination Sequence:
#
# PCOD9572457 Si02
#       7
#    16  32  32  32  32  32  16
#     4  10  22  42  62  90 122 168 210 260 308 376
#     4   9  17  33  58  88 120 154 199 252 306 365
#     4  10  21  37  58  87 122 159 201 249 311 383
#     4  11  24  40  62  90 122 162 208 260 319 372
#     4  11  23  40  62  92 127 160 206 264 320 380
#     4  10  22  40  62  93 127 164 211 261 314 372
#     4  11  22  38  67  98 122 161 217 268 328 388
#
# _framework density 18.784637
#
# number of rings (size 3 to 8) (size 9 to 14) (size 15 to 20)
#    0.000    1.750    5.000    0.000    2.333    5.333 
#    0.000    2.917    0.000    4.000    0.000    0.000 
#    0.000    0.000    0.000    0.000    0.000    0.000 
#
# Total GULP energy -534982.137127 kJ/mol
# GULP energy per Si atom -5572.730595 kJ/mol
# Density = 1.874188 g / cm^3
# Si number density = 18.784637 Si / 1000 Ang^3
#
#
#
# Elastic Constant Matrix: (Units=GPa)
#
#
# Indices 1 2 3 4 5 6 
#
# 1 61.5514 55.6452 37.5057 0.0000 0.0000 0.0000
# 2 55.6452 61.5514 37.5057 0.0000 0.0000 0.0000
# 3 37.5057 37.5057 119.5836 0.0000 0.0000 0.0000
# 4 0.0000 0.0000 0.0000 9.5986 0.0000 0.0000
# 5 0.0000 0.0000 0.0000 0.0000 9.5986 0.0000
# 6 0.0000 0.0000 0.0000 0.0000 0.0000 33.2034
#
#
#
# Elastic Compliance Matrix: (Units=1/GPa)
#
#
# Indices 1 2 3 4 5 6 
#
# 1 0.089995 -0.079319 -0.003348 0.000000 0.000000 0.000000
# 2 -0.079319 0.089995 -0.003348 0.000000 0.000000 0.000000
# 3 -0.003348 -0.003348 0.010463 0.000000 0.000000 0.000000
# 4 0.000000 0.000000 0.000000 0.104182 0.000000 0.000000
# 5 0.000000 0.000000 0.000000 0.000000 0.104182 0.000000
# 6 0.000000 0.000000 0.000000 0.000000 0.000000 0.030117
#
#
# Mechanical properties :
#
#
# Convention : Reuss Voigt Hill
#
# Bulk Modulus (GPa) = 54.28602 55.99993 55.14297
# Shear Modulus (GPa) = 8.23582 17.94879 13.09230
#
# Velocity S-wave (km/s) = 2.09615 3.09448 2.64288
# Velocity P-wave (km/s) = 5.90088 6.53024 6.22352
#
# Compressibility (1/GPa) = 0.01842095
#
# Stress axis : x y z
#
# Youngs Moduli (GPa) = 11.11176 11.11176 95.57825
#
# Poissons Ratio (x) = 0.88137 0.32002
# Poissons Ratio (y) = 0.88137 0.32002
# Poissons Ratio (z) = 0.03721 0.03721
#
# Static dielectric constant tensor:
#      x y z
#    x 1.662400 0.000000 0.000000 
#    y 0.000000 1.662400 0.000000 
#    z 0.000000 0.000000 1.665190 
# 
# From -- ./inp_files/9867.got.cif
#   From: 2010.05.17/outbox.cif.g08.bks.cpg/sg140_5_cif.got.tgz:9867.got - 2010.06.21 00:45:31.
