data_PCOD9572663
_publ_section_title
;
Structure prediction by ZEFSAII (Michael W. Deem and Ramdas Pophale) SiO2 
 PCOD9572663
Probable space group: I 4/M C M
;
_chemical_formula_sum "Si O2"
_cell_formula_units_Z 128
_cell_length_a 15.000436
_cell_length_b 15.000436
_cell_length_c 24.173715
_cell_angle_alpha 90.000000
_cell_angle_beta 90.000000
_cell_angle_gamma 90.000000
_cell_volume 5439.402072
_symmetry_space_group_name_H-M "I 4/M C M"
_symmetry_group_IT_number 140
_symmetry_cell_setting 'tetragonal'
loop_
_space_group_symop_operation_xyz
x,y,z
-y,x,z
-x,-y,z
y,-x,z
x,-y,1/2-z
-x,y,1/2-z
y,x,1/2-z
-y,-x,1/2-z
-x,-y,-z
y,-x,-z
x,y,-z
-y,x,-z
-x,y,1/2+z
x,-y,1/2+z
-y,-x,1/2+z
y,x,1/2+z
1/2+x,1/2+y,1/2+z
1/2-y,1/2+x,1/2+z
1/2-x,1/2-y,1/2+z
1/2+y,1/2-x,1/2+z
1/2+x,1/2-y,-z
1/2-x,1/2+y,-z
1/2+y,1/2+x,-z
1/2-y,1/2-x,-z
1/2-x,1/2-y,1/2-z
1/2+y,1/2-x,1/2-z
1/2+x,1/2+y,1/2-z
1/2-y,1/2+x,1/2-z
1/2-x,1/2+y,z
1/2+x,1/2-y,z
1/2-y,1/2-x,z
1/2+y,1/2+x,z
loop_
_atom_site_type_symbol
_atom_site_label
_atom_site_fract_x
_atom_site_fract_y
_atom_site_fract_z
Si Si1 0.829085 0.520969 0.618200
Si Si2 0.831737 0.179775 0.121291
Si Si3 0.168000 0.521265 0.000000
Si Si4 0.731062 0.911424 0.284952
Si Si5 0.673825 0.321872 0.500000
O O1 0.911184 0.588816 0.619529
O O2 0.740286 0.580623 0.624728
O O3 0.827752 0.474375 0.558489
O O4 0.829908 0.454827 0.667915
O O5 0.749352 0.249352 0.118075
O O6 0.812793 0.127321 0.178221
O O7 0.835761 0.132597 0.060525
O O8 0.077039 0.577039 0.000000
O O9 0.246097 0.595966 0.000000
O O10 0.670156 0.829845 0.259234
O O11 0.754682 0.000000 0.250000
O O12 0.765754 0.265754 0.500000
#
# Coordination Sequence:
#
# PCOD9572663 Si02
#       5
#    32  32  16  32  16
#     4   9  17  32  53  73  98 131 166 207 258 316
#     4   8  16  31  51  74  96 126 168 210 254 303
#     4   7  12  25  47  74  98 122 155 204 264 310
#     4  11  23  35  48  70 102 138 175 215 252 288
#     4   7  10  23  48  73  96 118 154 211 259 298
#
# _framework density 23.531997
#
# number of rings (size 3 to 8) (size 9 to 14) (size 15 to 20)
#    0.000    3.250    0.000    3.750    0.000    3.750 
#    0.000    5.625    0.000    3.000    0.000    1.750 
#    0.000    6.000    0.000    0.000    0.000    0.000 
#
# Total GULP energy -356609.752827 kJ/mol
# GULP energy per Si atom -5572.027388 kJ/mol
# Density = 2.347844 g / cm^3
# Si number density = 23.531997 Si / 1000 Ang^3
#
#
#
# Elastic Constant Matrix: (Units=GPa)
#
#
# Indices 1 2 3 4 5 6 
#
# 1 54.8533 37.3790 18.3083 0.0000 0.0000 0.0000
# 2 37.3790 54.8533 18.3083 0.0000 0.0000 0.0000
# 3 18.3083 18.3083 105.4990 0.0000 0.0000 0.0000
# 4 0.0000 0.0000 0.0000 -386.3933 0.0000 0.0000
# 5 0.0000 0.0000 0.0000 0.0000 -386.3933 0.0000
# 6 0.0000 0.0000 0.0000 0.0000 0.0000 37.6546
#
#
#
# Elastic Compliance Matrix: (Units=1/GPa)
#
#
# Indices 1 2 3 4 5 6 
#
# 1 0.034436 -0.022791 -0.002021 0.000000 0.000000 0.000000
# 2 -0.022791 0.034436 -0.002021 0.000000 0.000000 0.000000
# 3 -0.002021 -0.002021 0.010180 0.000000 0.000000 0.000000
# 4 0.000000 0.000000 0.000000 -0.002588 0.000000 0.000000
# 5 0.000000 0.000000 0.000000 0.000000 -0.002588 0.000000
# 6 0.000000 0.000000 0.000000 0.000000 0.000000 0.026557
#
#
# Mechanical properties :
#
#
# Convention : Reuss Voigt Hill
#
# Bulk Modulus (GPa) = 39.39195 40.35523 39.87359
# Shear Modulus (GPa) = 30.75785 -137.61241 -53.42728
#
# Velocity S-wave (km/s) = 3.61926 -7.65544 -4.77005
# Velocity P-wave (km/s) = 5.85162 7.80735 3.65468
#
# Compressibility (1/GPa) = 0.02538589
#
# Stress axis : x y z
#
# Youngs Moduli (GPa) = 29.03966 29.03966 98.23047
#
# Poissons Ratio (x) = 0.66185 0.19850
# Poissons Ratio (y) = 0.66185 0.19850
# Poissons Ratio (z) = 0.05868 0.05868
#
# Static dielectric constant tensor:
#      x y z
#    x 1.955010 0.000000 0.000000 
#    y 0.000000 1.955010 0.000000 
#    z 0.000000 0.000000 1.988130 
# 
# From -- ./inp_files/9313.got.cif
#   From: 2010.05.17/outbox.cif.g08.bks.cpg/sg140_5_cif.got.tgz:9313.got - 2010.06.21 00:45:31.
