data_PCOD9572018
_publ_section_title
;
Structure prediction by ZEFSAII (Michael W. Deem and Ramdas Pophale) SiO2 
 PCOD9572018
Probable space group: I 4/M C M
;
_chemical_formula_sum "Si O2"
_cell_formula_units_Z 160
_cell_length_a 16.265568
_cell_length_b 16.265568
_cell_length_c 31.093076
_cell_angle_alpha 90.000000
_cell_angle_beta 90.000000
_cell_angle_gamma 90.000000
_cell_volume 8226.254770
_symmetry_space_group_name_H-M "I 4/M C M"
_symmetry_group_IT_number 140
_symmetry_cell_setting 'tetragonal'
loop_
_space_group_symop_operation_xyz
x,y,z
-y,x,z
-x,-y,z
y,-x,z
x,-y,1/2-z
-x,y,1/2-z
y,x,1/2-z
-y,-x,1/2-z
-x,-y,-z
y,-x,-z
x,y,-z
-y,x,-z
-x,y,1/2+z
x,-y,1/2+z
-y,-x,1/2+z
y,x,1/2+z
1/2+x,1/2+y,1/2+z
1/2-y,1/2+x,1/2+z
1/2-x,1/2-y,1/2+z
1/2+y,1/2-x,1/2+z
1/2+x,1/2-y,-z
1/2-x,1/2+y,-z
1/2+y,1/2+x,-z
1/2-y,1/2-x,-z
1/2-x,1/2-y,1/2-z
1/2+y,1/2-x,1/2-z
1/2+x,1/2+y,1/2-z
1/2-y,1/2+x,1/2-z
1/2-x,1/2+y,z
1/2+x,1/2-y,z
1/2-y,1/2-x,z
1/2+y,1/2+x,z
loop_
_atom_site_type_symbol
_atom_site_label
_atom_site_fract_x
_atom_site_fract_y
_atom_site_fract_z
Si Si1 0.630908 0.004147 0.619442
Si Si2 0.237978 0.120816 0.615427
Si Si3 0.182226 0.178674 0.201085
Si Si4 0.185829 0.552545 0.790933
Si Si5 0.896924 0.908478 0.450211
O O1 0.560770 0.939230 0.607299
O O2 0.714976 0.963744 0.603391
O O3 0.594355 0.094355 0.608336
O O4 0.641445 0.003548 0.671231
O O5 0.305626 0.194375 0.614287
O O6 0.201222 0.118168 0.663990
O O7 0.164271 0.135214 0.582536
O O8 0.157453 0.157453 0.250000
O O9 0.241644 0.258357 0.204002
O O10 0.239538 0.102407 0.187693
O O11 0.211048 0.500000 0.750000
O O12 0.121555 0.621555 0.774795
O O13 0.876715 0.890518 0.500000
O O14 0.992964 0.888949 0.443714
#
# Coordination Sequence:
#
# PCOD9572018 Si02
#       5
#    32  32  32  32  32
#     4   9  18  31  47  72 106 142 181 223 268 321
#     4  10  20  34  57  85 113 148 184 228 283 333
#     4   9  18  31  44  67 106 148 188 227 270 319
#     4  10  18  27  43  66  97 142 192 237 272 313
#     4   9  20  40  63  84 108 141 182 230 281 334
#
# _framework density 19.449919000000001
#
# number of rings (size 3 to 8) (size 9 to 14) (size 15 to 20)
#    0.000    2.600    0.000    2.400    2.800    4.600 
#    0.000    0.000    0.000    1.800    0.000    4.200 
#    0.000    0.000    0.000    0.000    0.000    0.000 
#
# Total GULP energy -445507.963880 kJ/mol
# GULP energy per Si atom -5568.849548 kJ/mol
# Density = 1.940565 g / cm^3
# Si number density = 19.449919 Si / 1000 Ang^3
#
#
#
# Elastic Constant Matrix: (Units=GPa)
#
#
# Indices 1 2 3 4 5 6 
#
# 1 42.9877 9.0325 17.7401 0.0000 0.0000 0.0000
# 2 9.0325 42.9877 17.7401 0.0000 0.0000 0.0000
# 3 17.7401 17.7401 54.8378 0.0000 0.0000 0.0000
# 4 0.0000 0.0000 0.0000 25.6204 0.0000 0.0000
# 5 0.0000 0.0000 0.0000 0.0000 25.6204 0.0000
# 6 0.0000 0.0000 0.0000 0.0000 0.0000 12.0876
#
#
#
# Elastic Compliance Matrix: (Units=1/GPa)
#
#
# Indices 1 2 3 4 5 6 
#
# 1 0.027058 -0.002393 -0.007979 0.000000 0.000000 0.000000
# 2 -0.002393 0.027058 -0.007979 0.000000 0.000000 0.000000
# 3 -0.007979 -0.007979 0.023398 0.000000 0.000000 0.000000
# 4 0.000000 0.000000 0.000000 0.039031 0.000000 0.000000
# 5 0.000000 0.000000 0.000000 0.000000 0.039031 0.000000
# 6 0.000000 0.000000 0.000000 0.000000 0.000000 0.082730
#
#
# Mechanical properties :
#
#
# Convention : Reuss Voigt Hill
#
# Bulk Modulus (GPa) = 24.50256 25.53760 25.02008
# Shear Modulus (GPa) = 17.32422 19.08571 18.20497
#
# Velocity S-wave (km/s) = 2.98771 3.13593 3.06272
# Velocity P-wave (km/s) = 4.95248 5.12548 5.03972
#
# Compressibility (1/GPa) = 0.04081206
#
# Stress axis : x y z
#
# Youngs Moduli (GPa) = 36.95750 36.95750 42.73827
#
# Poissons Ratio (x) = 0.08842 0.34102
# Poissons Ratio (y) = 0.08842 0.34102
# Poissons Ratio (z) = 0.29490 0.29490
#
# Static dielectric constant tensor:
#      x y z
#    x 1.730230 0.000000 0.000000 
#    y 0.000000 1.730230 0.000000 
#    z 0.000000 0.000000 1.652440 
# 
# From -- ./inp_files/10503.got.cif
#   From: 2010.05.17/outbox.cif.g08.bks.cpg/sg140_6_cif.got.tgz:10503.got - 2010.06.21 00:45:31.
