data_PCOD9572731
_publ_section_title
;
Structure prediction by ZEFSAII (Michael W. Deem and Ramdas Pophale) SiO2 
 PCOD9572731
Probable space group: I 41/A M D
;
_chemical_formula_sum "Si O2"
_cell_formula_units_Z 160
_cell_length_a 24.094237
_cell_length_b 24.094237
_cell_length_c 16.773368
_cell_angle_alpha 90.000000
_cell_angle_beta 90.000000
_cell_angle_gamma 90.000000
_cell_volume 9737.481176
_symmetry_space_group_name_H-M "I 41/A M D"
_symmetry_group_IT_number 141
_space_group.IT_coordinate_system_code '2'
_symmetry_cell_setting 'tetragonal'
loop_
_space_group_symop_operation_xyz
x,y,z
1/4-y,3/4+x,1/4+z
-x,1/2-y,z
1/4+y,1/4-x,3/4+z
x,-y,-z
-x,1/2+y,-z
1/4+y,3/4+x,1/4-z
1/4-y,1/4-x,3/4-z
-x,-y,-z
3/4+y,1/4-x,3/4-z
x,1/2+y,-z
3/4-y,3/4+x,1/4-z
-x,y,z
x,1/2-y,z
3/4-y,1/4-x,3/4+z
3/4+y,3/4+x,1/4+z
1/2+x,1/2+y,1/2+z
3/4-y,1/4+x,3/4+z
1/2-x,-y,1/2+z
3/4+y,3/4-x,1/4+z
1/2+x,1/2-y,1/2-z
1/2-x,y,1/2-z
3/4+y,1/4+x,3/4-z
3/4-y,3/4-x,1/4-z
1/2-x,1/2-y,1/2-z
1/4+y,3/4-x,1/4-z
1/2+x,y,1/2-z
1/4-y,1/4+x,3/4-z
1/2-x,1/2+y,1/2+z
1/2+x,-y,1/2+z
1/4-y,3/4-x,1/4+z
1/4+y,1/4+x,3/4+z
loop_
_atom_site_type_symbol
_atom_site_label
_atom_site_fract_x
_atom_site_fract_y
_atom_site_fract_z
Si Si1 0.894005 0.683696 0.543855
Si Si2 0.934601 0.872989 0.014304
Si Si3 0.432959 0.250000 0.311211
Si Si4 0.564367 0.063897 0.349285
Si Si5 0.500000 0.182271 0.756215
Si Si6 0.141020 0.530211 0.082281
O O1 0.899378 0.649378 0.625000
O O2 0.899227 0.750000 0.562510
O O3 0.946032 0.667558 0.488555
O O4 0.841149 0.676606 0.486934
O O5 0.929643 0.889909 0.920039
O O6 0.915559 0.809576 0.028867
O O7 0.000000 0.876858 0.033380
O O8 0.899528 0.918782 0.060034
O O9 0.500000 0.250000 0.316690
O O10 0.413202 0.250000 0.401807
O O11 0.500000 0.045235 0.354863
O O12 0.606147 0.014192 0.367012
O O13 0.500000 0.250000 0.754374
O O14 0.194009 0.555992 0.125000
O O15 0.156123 0.500000 0.000000
#
# Coordination Sequence:
#
# PCOD9572731 Si02
#       6
#    32  32  16  32  16  32
#     4  10  16  22  38  69 108 148 178 201 232 281
#     4   9  16  29  50  74 103 133 159 193 243 307
#     4   9  14  20  34  62 107 147 170 192 231 287
#     4   9  17  30  49  71 100 137 171 204 245 294
#     4   9  14  24  42  70 106 139 163 184 236 311
#     4  10  21  38  56  73  92 120 169 216 257 296
#
# _framework density 16.431353999999999
#
# number of rings (size 3 to 8) (size 9 to 14) (size 15 to 20)
#    0.000    2.600    3.000    0.600    0.000    2.400 
#    3.600    1.000    0.000    0.000    0.000    0.000 
#    0.000    8.800    0.000    0.000    0.000    0.000 
#
# Total GULP energy -445897.353606 kJ/mol
# GULP energy per Si atom -5573.716920 kJ/mol
# Density = 1.639396 g / cm^3
# Si number density = 16.431354 Si / 1000 Ang^3
#
#
#
# Elastic Constant Matrix: (Units=GPa)
#
#
# Indices 1 2 3 4 5 6 
#
# 1 86.0879 50.2200 41.5349 0.0000 0.0000 0.0000
# 2 50.2200 86.0889 41.5348 0.0000 0.0000 0.0000
# 3 41.5349 41.5348 78.5950 0.0000 0.0000 0.0000
# 4 0.0000 0.0000 0.0000 15.6247 0.0000 0.0000
# 5 0.0000 0.0000 0.0000 0.0000 15.6232 0.0000
# 6 0.0000 0.0000 0.0000 0.0000 0.0000 22.5322
#
#
#
# Elastic Compliance Matrix: (Units=1/GPa)
#
#
# Indices 1 2 3 4 5 6 
#
# 1 0.019351 -0.008529 -0.005719 0.000000 0.000000 0.000000
# 2 -0.008529 0.019350 -0.005719 0.000000 0.000000 0.000000
# 3 -0.005719 -0.005719 0.018768 0.000000 0.000000 0.000000
# 4 0.000000 0.000000 0.000000 0.064001 0.000000 0.000000
# 5 0.000000 0.000000 0.000000 0.000000 0.064007 0.000000
# 6 0.000000 0.000000 0.000000 0.000000 0.000000 0.044381
#
#
# Mechanical properties :
#
#
# Convention : Reuss Voigt Hill
#
# Bulk Modulus (GPa) = 57.02674 57.48345 57.25510
# Shear Modulus (GPa) = 18.13979 18.58816 18.36398
#
# Velocity S-wave (km/s) = 3.32622 3.36707 3.34671
# Velocity P-wave (km/s) = 7.03797 7.08351 7.06078
#
# Compressibility (1/GPa) = 0.01753563
#
# Stress axis : x y z
#
# Youngs Moduli (GPa) = 51.67761 51.67849 53.28259
#
# Poissons Ratio (x) = 0.44077 0.30472
# Poissons Ratio (y) = 0.44076 0.30471
# Poissons Ratio (z) = 0.29554 0.29553
#
# Static dielectric constant tensor:
#      x y z
#    x 1.543170 0.000000 0.000000 
#    y 0.000000 1.543170 0.000000 
#    z 0.000000 0.000000 1.583820 
# 
# From -- ./inp_files/8657.got.cif
#   From: 2010.05.17/outbox.cif.g08.bks.cpg/sg141_5_cif.got.tgz:8657.got - 2010.05.20 13:30:51.
