data_PCOD9572496
_publ_section_title
;
Structure prediction by ZEFSAII (Michael W. Deem and Ramdas Pophale) SiO2 
 PCOD9572496
Probable space group: I 4/M C M
;
_chemical_formula_sum "Si O2"
_cell_formula_units_Z 192
_cell_length_a 17.819301
_cell_length_b 17.819301
_cell_length_c 32.061936
_cell_angle_alpha 90.000000
_cell_angle_beta 90.000000
_cell_angle_gamma 90.000000
_cell_volume 10180.546003
_symmetry_space_group_name_H-M "I 4/M C M"
_symmetry_group_IT_number 140
_symmetry_cell_setting 'tetragonal'
loop_
_space_group_symop_operation_xyz
x,y,z
-y,x,z
-x,-y,z
y,-x,z
x,-y,1/2-z
-x,y,1/2-z
y,x,1/2-z
-y,-x,1/2-z
-x,-y,-z
y,-x,-z
x,y,-z
-y,x,-z
-x,y,1/2+z
x,-y,1/2+z
-y,-x,1/2+z
y,x,1/2+z
1/2+x,1/2+y,1/2+z
1/2-y,1/2+x,1/2+z
1/2-x,1/2-y,1/2+z
1/2+y,1/2-x,1/2+z
1/2+x,1/2-y,-z
1/2-x,1/2+y,-z
1/2+y,1/2+x,-z
1/2-y,1/2-x,-z
1/2-x,1/2-y,1/2-z
1/2+y,1/2-x,1/2-z
1/2+x,1/2+y,1/2-z
1/2-y,1/2+x,1/2-z
1/2-x,1/2+y,z
1/2+x,1/2-y,z
1/2-y,1/2-x,z
1/2+y,1/2+x,z
loop_
_atom_site_type_symbol
_atom_site_label
_atom_site_fract_x
_atom_site_fract_y
_atom_site_fract_z
Si Si1 0.478426 0.377775 0.637850
Si Si2 0.646044 0.853957 0.948814
Si Si3 0.188519 0.074645 0.275350
Si Si4 0.475040 0.139655 0.451609
Si Si5 0.599334 0.710422 0.573415
Si Si6 0.282268 0.782268 0.792924
Si Si7 0.255832 0.244169 0.885096
Si Si8 0.098768 0.920012 0.000000
O O1 0.557916 0.416297 0.630991
O O2 0.461396 0.350053 0.684083
O O3 0.466699 0.313418 0.604407
O O4 0.558621 0.841362 0.938010
O O5 0.693852 0.806149 0.916041
O O6 0.659223 0.840778 0.000000
O O7 0.127266 0.127266 0.250000
O O8 0.255536 0.130629 0.290230
O O9 0.212628 0.000000 0.250000
O O10 0.485570 0.121085 0.500000
O O11 0.430382 0.069619 0.431700
O O12 0.423067 0.212420 0.448333
O O13 0.671902 0.723730 0.601184
O O14 0.609041 0.644190 0.539965
O O15 0.250000 0.750000 0.750000
O O16 0.244941 0.744941 0.834437
O O17 0.011312 0.898065 0.000000
#
# Coordination Sequence:
#
# PCOD9572496 Si02
#       8
#    32  16  32  32  32  16  16  16
#     4  11  23  37  59  92 129 163 206 257 314 376
#     4  10  25  40  66  94 129 162 222 271 315 378
#     4  11  21  38  67  94 123 161 202 256 318 386
#     4  10  21  41  63  88 119 172 216 269 322 365
#     4  12  24  38  62  87 129 171 214 260 315 382
#     4  10  24  46  63  90 133 167 206 259 327 390
#     4  12  26  39  62  99 126 167 212 267 321 391
#     4  11  26  43  60  84 129 186 223 256 314 394
#
# _framework density 18.859500000000001
#
# number of rings (size 3 to 8) (size 9 to 14) (size 15 to 20)
#    0.000    1.083    5.000    1.250    5.833    2.500 
#    0.000    0.000    0.000    0.250    0.000    0.000 
#    0.000    0.000    0.000    0.000    0.000    0.000 
#
# Total GULP energy -535234.554403 kJ/mol
# GULP energy per Si atom -5575.359942 kJ/mol
# Density = 1.881658 g / cm^3
# Si number density = 18.859500 Si / 1000 Ang^3
#
#
#
# Elastic Constant Matrix: (Units=GPa)
#
#
# Indices 1 2 3 4 5 6 
#
# 1 53.6810 44.6729 21.8452 0.0000 0.0000 0.0000
# 2 44.6729 53.6812 21.8453 0.0000 0.0000 0.0000
# 3 21.8452 21.8453 96.8742 0.0000 0.0000 0.0000
# 4 0.0000 0.0000 0.0000 22.6751 0.0000 0.0000
# 5 0.0000 0.0000 0.0000 0.0000 22.6752 0.0000
# 6 0.0000 0.0000 0.0000 0.0000 0.0000 4.4906
#
#
#
# Elastic Compliance Matrix: (Units=1/GPa)
#
#
# Indices 1 2 3 4 5 6 
#
# 1 0.061155 -0.049856 -0.002548 0.000000 0.000000 0.000000
# 2 -0.049856 0.061155 -0.002548 0.000000 0.000000 0.000000
# 3 -0.002548 -0.002548 0.011472 0.000000 0.000000 0.000000
# 4 0.000000 0.000000 0.000000 0.044101 0.000000 0.000000
# 5 0.000000 0.000000 0.000000 0.000000 0.044101 0.000000
# 6 0.000000 0.000000 0.000000 0.000000 0.000000 0.222690
#
#
# Mechanical properties :
#
#
# Convention : Reuss Voigt Hill
#
# Bulk Modulus (GPa) = 41.87903 42.32923 42.10413
# Shear Modulus (GPa) = 8.88832 17.69304 13.29068
#
# Velocity S-wave (km/s) = 2.17328 3.06625 2.65754
# Velocity P-wave (km/s) = 5.34336 5.91854 5.63829
#
# Compressibility (1/GPa) = 0.02387830
#
# Stress axis : x y z
#
# Youngs Moduli (GPa) = 16.35193 16.35199 87.17016
#
# Poissons Ratio (x) = 0.81524 0.22211
# Poissons Ratio (y) = 0.81523 0.22211
# Poissons Ratio (z) = 0.04166 0.04166
#
# Static dielectric constant tensor:
#      x y z
#    x 1.673270 0.000000 0.000000 
#    y 0.000000 1.673270 0.000000 
#    z 0.000000 0.000000 1.672670 
# 
# From -- ./inp_files/11669.got.cif
#   From: 2010.05.17/outbox.cif.g08.bks.cpg/sg140_6_cif.got.tgz:11669.got - 2010.06.21 00:45:31.
