data_PCOD9572965
_publ_section_title
;
Structure prediction by ZEFSAII (Michael W. Deem and Ramdas Pophale) SiO2 
 PCOD9572965
Probable space group: I 41/A M D
;
_chemical_formula_sum "Si O2"
_cell_formula_units_Z 240
_cell_length_a 21.893669
_cell_length_b 21.893669
_cell_length_c 28.462067
_cell_angle_alpha 90.000000
_cell_angle_beta 90.000000
_cell_angle_gamma 90.000000
_cell_volume 13642.800626
_symmetry_space_group_name_H-M "I 41/A M D"
_symmetry_group_IT_number 141
_space_group.IT_coordinate_system_code '2'
_symmetry_cell_setting 'tetragonal'
loop_
_space_group_symop_operation_xyz
x,y,z
1/4-y,3/4+x,1/4+z
-x,1/2-y,z
1/4+y,1/4-x,3/4+z
x,-y,-z
-x,1/2+y,-z
1/4+y,3/4+x,1/4-z
1/4-y,1/4-x,3/4-z
-x,-y,-z
3/4+y,1/4-x,3/4-z
x,1/2+y,-z
3/4-y,3/4+x,1/4-z
-x,y,z
x,1/2-y,z
3/4-y,1/4-x,3/4+z
3/4+y,3/4+x,1/4+z
1/2+x,1/2+y,1/2+z
3/4-y,1/4+x,3/4+z
1/2-x,-y,1/2+z
3/4+y,3/4-x,1/4+z
1/2+x,1/2-y,1/2-z
1/2-x,y,1/2-z
3/4+y,1/4+x,3/4-z
3/4-y,3/4-x,1/4-z
1/2-x,1/2-y,1/2-z
1/4+y,3/4-x,1/4-z
1/2+x,y,1/2-z
1/4-y,1/4+x,3/4-z
1/2-x,1/2+y,1/2+z
1/2+x,-y,1/2+z
1/4-y,3/4-x,1/4+z
1/4+y,1/4+x,3/4+z
loop_
_atom_site_type_symbol
_atom_site_label
_atom_site_fract_x
_atom_site_fract_y
_atom_site_fract_z
Si Si1 0.568990 0.426267 0.843508
Si Si2 0.429227 0.639221 0.527885
Si Si3 0.671007 0.631566 0.794401
Si Si4 0.181361 0.993572 0.669581
Si Si5 0.690457 0.322172 0.304847
Si Si6 0.362335 0.177227 0.668832
Si Si7 0.925503 0.675503 0.625000
Si Si8 0.628782 0.514183 0.553975
O O1 0.500000 0.447735 0.846354
O O2 0.573541 0.370932 0.806954
O O3 0.612603 0.482030 0.831252
O O4 0.589270 0.408157 0.896274
O O5 0.500000 0.656923 0.534191
O O6 0.415636 0.638938 0.471723
O O7 0.417506 0.571104 0.548794
O O8 0.681867 0.558808 0.791749
O O9 0.658921 0.652249 0.741433
O O10 0.738071 0.658506 0.807497
O O11 0.618316 0.652906 0.831291
O O12 0.218274 0.056387 0.673915
O O13 0.206539 0.956539 0.625000
O O14 0.689686 0.250000 0.299807
O O15 0.397554 0.147554 0.625000
O O16 0.361528 0.250000 0.663145
O O17 0.293677 0.151249 0.671424
O O18 0.916633 0.750000 0.618575
O O19 0.643510 0.500000 0.500000
#
# Coordination Sequence:
#
# PCOD9572965 Si02
#       8
#    32  32  32  32  32  32  16  32
#     4  10  21  37  54  77 108 142 181 225 272 319
#     4   9  19  37  59  81 107 146 190 224 272 339
#     4  11  20  34  54  82 107 142 184 227 276 332
#     4  11  20  32  52  82 109 142 176 221 275 330
#     4  10  20  35  56  78 107 142 181 229 272 326
#     4  10  20  36  57  85 114 146 184 230 276 325
#     4  11  22  36  54  76 108 146 186 230 273 324
#     4   9  19  33  55  81 113 146 178 222 277 334
#
# _framework density 17.591695999999999
#
# number of rings (size 3 to 8) (size 9 to 14) (size 15 to 20)
#    0.000    1.933    2.000    2.400    1.867    4.133 
#    0.000    2.000    0.000    2.400    0.000    0.000 
#    0.000    0.000    0.000    0.000    0.000    0.000 
#
# Total GULP energy -668063.495374 kJ/mol
# GULP energy per Si atom -5567.195795 kJ/mol
# Density = 1.755166 g / cm^3
# Si number density = 17.591696 Si / 1000 Ang^3
#
#
#
# Elastic Constant Matrix: (Units=GPa)
#
#
# Indices 1 2 3 4 5 6 
#
# 1 73.9954 26.5520 51.3099 0.0000 0.0000 0.0000
# 2 26.5520 73.9954 51.3099 0.0000 0.0000 0.0000
# 3 51.3099 51.3099 95.7527 0.0000 0.0000 0.0000
# 4 0.0000 0.0000 0.0000 21.5566 0.0000 0.0000
# 5 0.0000 0.0000 0.0000 0.0000 21.5566 0.0000
# 6 0.0000 0.0000 0.0000 0.0000 0.0000 2.8912
#
#
#
# Elastic Compliance Matrix: (Units=1/GPa)
#
#
# Indices 1 2 3 4 5 6 
#
# 1 0.021514 0.000436 -0.011762 0.000000 0.000000 0.000000
# 2 0.000436 0.021514 -0.011762 0.000000 0.000000 0.000000
# 3 -0.011762 -0.011762 0.023049 0.000000 0.000000 0.000000
# 4 0.000000 0.000000 0.000000 0.046389 0.000000 0.000000
# 5 0.000000 0.000000 0.000000 0.000000 0.046389 0.000000
# 6 0.000000 0.000000 0.000000 0.000000 0.000000 0.345881
#
#
# Mechanical properties :
#
#
# Convention : Reuss Voigt Hill
#
# Bulk Modulus (GPa) = 50.24898 55.78749 53.01823
# Shear Modulus (GPa) = 8.96786 16.83899 12.90342
#
# Velocity S-wave (km/s) = 2.26028 3.09724 2.71125
# Velocity P-wave (km/s) = 5.95297 6.67621 6.32494
#
# Compressibility (1/GPa) = 0.01990090
#
# Stress axis : x y z
#
# Youngs Moduli (GPa) = 46.48140 46.48140 43.38519
#
# Poissons Ratio (x) = -0.02028 0.51031
# Poissons Ratio (y) = -0.02028 0.51031
# Poissons Ratio (z) = 0.54672 0.54672
#
# Static dielectric constant tensor:
#      x y z
#    x 1.604620 0.000000 0.000000 
#    y 0.000000 1.604620 0.000000 
#    z 0.000000 0.000000 1.631260 
# 
# From -- ./inp_files/14610.got.cif
#   From: 2010.05.17/outbox.cif.g08.bks.cpg/sg141_8_cif.got.tgz:14610.got - 2010.05.20 13:30:51.
