data_PCOD9572051
_publ_section_title
;
Structure prediction by ZEFSAII (Michael W. Deem and Ramdas Pophale) SiO2 
 PCOD9572051
Probable space group: I 4/M C M
;
_chemical_formula_sum "Si O2"
_cell_formula_units_Z 128
_cell_length_a 20.382952
_cell_length_b 20.382952
_cell_length_c 15.047379
_cell_angle_alpha 90.000000
_cell_angle_beta 90.000000
_cell_angle_gamma 90.000000
_cell_volume 6251.655287
_symmetry_space_group_name_H-M "I 4/M C M"
_symmetry_group_IT_number 140
_symmetry_cell_setting 'tetragonal'
loop_
_space_group_symop_operation_xyz
x,y,z
-y,x,z
-x,-y,z
y,-x,z
x,-y,1/2-z
-x,y,1/2-z
y,x,1/2-z
-y,-x,1/2-z
-x,-y,-z
y,-x,-z
x,y,-z
-y,x,-z
-x,y,1/2+z
x,-y,1/2+z
-y,-x,1/2+z
y,x,1/2+z
1/2+x,1/2+y,1/2+z
1/2-y,1/2+x,1/2+z
1/2-x,1/2-y,1/2+z
1/2+y,1/2-x,1/2+z
1/2+x,1/2-y,-z
1/2-x,1/2+y,-z
1/2+y,1/2+x,-z
1/2-y,1/2-x,-z
1/2-x,1/2-y,1/2-z
1/2+y,1/2-x,1/2-z
1/2+x,1/2+y,1/2-z
1/2-y,1/2+x,1/2-z
1/2-x,1/2+y,z
1/2+x,1/2-y,z
1/2-y,1/2-x,z
1/2+y,1/2+x,z
loop_
_atom_site_type_symbol
_atom_site_label
_atom_site_fract_x
_atom_site_fract_y
_atom_site_fract_z
Si Si1 0.832641 0.902314 0.500000
Si Si2 0.980858 0.376859 0.604034
Si Si3 0.556015 0.694981 0.000000
Si Si4 0.872700 0.732205 0.853019
Si Si5 0.399470 0.206000 0.152926
O O1 0.904391 0.872552 0.500000
O O2 0.796050 0.875868 0.587699
O O3 0.821809 0.979767 0.500000
O O4 0.999525 0.384577 0.500000
O O5 0.943004 0.443004 0.632880
O O6 0.926458 0.319377 0.609758
O O7 0.043398 0.349641 0.656302
O O8 0.576460 0.740193 0.916553
O O9 0.802780 0.697221 0.861734
O O10 0.888768 0.737889 0.749151
O O11 0.333346 0.166655 0.127350
#
# Coordination Sequence:
#
# PCOD9572051 Si02
#       5
#    16  32  16  32  32
#     4  12  25  46  69  90 121 156 208 267 330 387
#     4  10  18  32  58  92 131 179 215 244 292 353
#     4  12  27  44  67  91 120 161 203 268 327 382
#     4  10  20  37  66  94 126 169 207 247 301 373
#     4  11  22  38  62  98 135 168 211 254 301 364
#
# _framework density 20.474577
#
# number of rings (size 3 to 8) (size 9 to 14) (size 15 to 20)
#    0.000    1.250    5.000    1.500    0.000    3.750 
#    0.000    3.750    0.000    4.500    0.000    3.500 
#    0.000    0.000    0.000    0.000    0.000    0.000 
#
# Total GULP energy -357930.645668 kJ/mol
# GULP energy per Si atom -5592.666339 kJ/mol
# Density = 2.042798 g / cm^3
# Si number density = 20.474577 Si / 1000 Ang^3
#
#
#
# Elastic Constant Matrix: (Units=GPa)
#
#
# Indices 1 2 3 4 5 6 
#
# 1 48.6867 65.4608 46.4728 0.0000 0.0000 0.0000
# 2 65.4608 48.6867 46.4728 0.0000 0.0000 0.0000
# 3 46.4728 46.4728 103.9937 0.0000 0.0000 0.0000
# 4 0.0000 0.0000 0.0000 -2.8740 0.0000 0.0000
# 5 0.0000 0.0000 0.0000 0.0000 -2.8740 0.0000
# 6 0.0000 0.0000 0.0000 0.0000 0.0000 31.0180
#
#
#
# Elastic Compliance Matrix: (Units=1/GPa)
#
#
# Indices 1 2 3 4 5 6 
#
# 1 -0.022922 0.036694 -0.006154 0.000000 0.000000 0.000000
# 2 0.036694 -0.022922 -0.006154 0.000000 0.000000 0.000000
# 3 -0.006154 -0.006154 0.015116 0.000000 0.000000 0.000000
# 4 0.000000 0.000000 0.000000 -0.347942 0.000000 0.000000
# 5 0.000000 0.000000 0.000000 0.000000 -0.347942 0.000000
# 6 0.000000 0.000000 0.000000 0.000000 0.000000 0.032239
#
#
# Mechanical properties :
#
#
# Convention : Reuss Voigt Hill
#
# Bulk Modulus (GPa) = 55.42405 57.57554 56.49979
# Shear Modulus (GPa) = -6.78308 7.91804 0.56748
#
# Velocity S-wave (km/s) = -1.82212 1.96867 0.52703
# Velocity P-wave (km/s) = 4.76462 5.77487 5.29390
#
# Compressibility (1/GPa) = 0.01804271
#
# Stress axis : x y z
#
# Youngs Moduli (GPa) = -43.62649 -43.62649 66.15289
#
# Poissons Ratio (x) = 1.60082 0.40713
# Poissons Ratio (y) = 1.60082 0.40713
# Poissons Ratio (z) = -0.26849 -0.26849
#
# Static dielectric constant tensor:
#      x y z
#    x 1.720750 0.000000 0.000000 
#    y 0.000000 1.720750 0.000000 
#    z 0.000000 0.000000 1.739250 
# 
# From -- ./inp_files/4372.got.cif
#   From: 2010.05.17/outbox.cif.g08.bks.cpg/sg140_3_cif.got.tgz:4372.got - 2010.06.21 00:45:31.
