data_PCOD9572480
_publ_section_title
;
Structure prediction by ZEFSAII (Michael W. Deem and Ramdas Pophale) SiO2 
 PCOD9572480
Probable space group: I 4/M C M
;
_chemical_formula_sum "Si O2"
_cell_formula_units_Z 232
_cell_length_a 20.758696
_cell_length_b 20.758696
_cell_length_c 26.206319
_cell_angle_alpha 90.000000
_cell_angle_beta 90.000000
_cell_angle_gamma 90.000000
_cell_volume 11292.917647
_symmetry_space_group_name_H-M "I 4/M C M"
_symmetry_group_IT_number 140
_symmetry_cell_setting 'tetragonal'
loop_
_space_group_symop_operation_xyz
x,y,z
-y,x,z
-x,-y,z
y,-x,z
x,-y,1/2-z
-x,y,1/2-z
y,x,1/2-z
-y,-x,1/2-z
-x,-y,-z
y,-x,-z
x,y,-z
-y,x,-z
-x,y,1/2+z
x,-y,1/2+z
-y,-x,1/2+z
y,x,1/2+z
1/2+x,1/2+y,1/2+z
1/2-y,1/2+x,1/2+z
1/2-x,1/2-y,1/2+z
1/2+y,1/2-x,1/2+z
1/2+x,1/2-y,-z
1/2-x,1/2+y,-z
1/2+y,1/2+x,-z
1/2-y,1/2-x,-z
1/2-x,1/2-y,1/2-z
1/2+y,1/2-x,1/2-z
1/2+x,1/2+y,1/2-z
1/2-y,1/2+x,1/2-z
1/2-x,1/2+y,z
1/2+x,1/2-y,z
1/2-y,1/2-x,z
1/2+y,1/2+x,z
loop_
_atom_site_type_symbol
_atom_site_label
_atom_site_fract_x
_atom_site_fract_y
_atom_site_fract_z
Si Si1 0.574382 0.577781 0.194123
Si Si2 0.729693 0.121400 0.442622
Si Si3 0.505757 0.157678 0.607141
Si Si4 0.352607 0.339197 0.381592
Si Si5 0.882841 0.721184 0.940711
Si Si6 0.745630 0.348793 0.719245
Si Si7 0.670092 0.939541 0.782342
Si Si8 0.500000 0.000000 0.893090
O O1 0.498155 0.587546 0.193857
O O2 0.600490 0.600490 0.250000
O O3 0.602958 0.608598 0.143631
O O4 0.757415 0.117376 0.500000
O O5 0.681787 0.181787 0.440667
O O6 0.686822 0.058397 0.431664
O O7 0.783953 0.134279 0.400187
O O8 0.436890 0.187159 0.593212
O O9 0.531843 0.181569 0.661874
O O10 0.500893 0.080329 0.606727
O O11 0.379451 0.296520 0.427790
O O12 0.356499 0.288719 0.334640
O O13 0.813990 0.686011 0.931688
O O14 0.898889 0.710953 0.000000
O O15 0.700086 0.299915 0.750000
O O16 0.812366 0.312366 0.708763
O O17 0.767400 0.409748 0.753583
O O18 0.616505 0.883496 0.787102
O O19 0.644545 0.000000 0.750000
#
# Coordination Sequence:
#
# PCOD9572480 Si02
#       8
#    32  32  32  32  32  32  32   8
#     4   9  21  44  68  95 133 174 215 260 326 411
#     4  11  24  43  67  97 132 178 232 291 352 410
#     4  12  24  45  66  97 135 182 238 293 343 408
#     4  12  23  39  70  98 132 171 218 280 344 412
#     4  11  25  44  65  93 131 177 229 288 351 416
#     4  10  21  39  58  89 129 170 211 260 325 394
#     4  11  24  38  60  91 131 176 222 273 333 405
#     4  12  24  44  74  96 130 194 246 280 350 400
#
# _framework density 20.543849999999999
#
# number of rings (size 3 to 8) (size 9 to 14) (size 15 to 20)
#    0.000    1.103    2.069    4.552    2.897    3.448 
#    7.448    1.379    0.000    0.000    0.000    3.862 
#    0.000    0.000    0.000    0.000    0.000    0.000 
#
# Total GULP energy -646690.764913 kJ/mol
# GULP energy per Si atom -5574.920387 kJ/mol
# Density = 2.049709 g / cm^3
# Si number density = 20.543850 Si / 1000 Ang^3
#
#
#
# Elastic Constant Matrix: (Units=GPa)
#
#
# Indices 1 2 3 4 5 6 
#
# 1 98.1117 16.6458 33.3116 0.0000 0.0000 0.0000
# 2 16.6458 98.1118 33.3116 0.0000 0.0000 0.0000
# 3 33.3116 33.3116 95.2765 0.0000 0.0000 0.0000
# 4 0.0000 0.0000 0.0000 31.2171 0.0000 0.0000
# 5 0.0000 0.0000 0.0000 0.0000 31.2165 0.0000
# 6 0.0000 0.0000 0.0000 0.0000 0.0000 25.9160
#
#
#
# Elastic Compliance Matrix: (Units=1/GPa)
#
#
# Indices 1 2 3 4 5 6 
#
# 1 0.011604 -0.000671 -0.003823 0.000000 0.000000 0.000000
# 2 -0.000671 0.011604 -0.003823 0.000000 0.000000 0.000000
# 3 -0.003823 -0.003823 0.013169 0.000000 0.000000 0.000000
# 4 0.000000 0.000000 0.000000 0.032034 0.000000 0.000000
# 5 0.000000 0.000000 0.000000 0.000000 0.032034 0.000000
# 6 0.000000 0.000000 0.000000 0.000000 0.000000 0.038586
#
#
# Mechanical properties :
#
#
# Convention : Reuss Voigt Hill
#
# Bulk Modulus (GPa) = 50.64606 50.89310 50.76958
# Shear Modulus (GPa) = 30.81756 31.55199 31.18477
#
# Velocity S-wave (km/s) = 3.87730 3.92323 3.90033
# Velocity P-wave (km/s) = 6.68960 6.73416 6.71192
#
# Compressibility (1/GPa) = 0.01974487
#
# Stress axis : x y z
#
# Youngs Moduli (GPa) = 86.17590 86.17596 75.93721
#
# Poissons Ratio (x) = 0.05782 0.29028
# Poissons Ratio (y) = 0.05782 0.29028
# Poissons Ratio (z) = 0.32942 0.32942
#
# Static dielectric constant tensor:
#      x y z
#    x 1.743090 0.000000 0.000000 
#    y 0.000000 1.743090 0.000000 
#    z 0.000000 0.000000 1.756070 
# 
# From -- ./inp_files/10978.got.cif
#   From: 2010.05.17/outbox.cif.g08.bks.cpg/sg140_6_cif.got.tgz:10978.got - 2010.06.21 00:45:31.
