data_PCOD9572152
_publ_section_title
;
Structure prediction by ZEFSAII (Michael W. Deem and Ramdas Pophale) SiO2 
 PCOD9572152
Probable space group: I 4/M C M
;
_chemical_formula_sum "Si O2"
_cell_formula_units_Z 192
_cell_length_a 20.057726
_cell_length_b 20.057726
_cell_length_c 27.614626
_cell_angle_alpha 90.000000
_cell_angle_beta 90.000000
_cell_angle_gamma 90.000000
_cell_volume 11109.705696
_symmetry_space_group_name_H-M "I 4/M C M"
_symmetry_group_IT_number 140
_symmetry_cell_setting 'tetragonal'
loop_
_space_group_symop_operation_xyz
x,y,z
-y,x,z
-x,-y,z
y,-x,z
x,-y,1/2-z
-x,y,1/2-z
y,x,1/2-z
-y,-x,1/2-z
-x,-y,-z
y,-x,-z
x,y,-z
-y,x,-z
-x,y,1/2+z
x,-y,1/2+z
-y,-x,1/2+z
y,x,1/2+z
1/2+x,1/2+y,1/2+z
1/2-y,1/2+x,1/2+z
1/2-x,1/2-y,1/2+z
1/2+y,1/2-x,1/2+z
1/2+x,1/2-y,-z
1/2-x,1/2+y,-z
1/2+y,1/2+x,-z
1/2-y,1/2-x,-z
1/2-x,1/2-y,1/2-z
1/2+y,1/2-x,1/2-z
1/2+x,1/2+y,1/2-z
1/2-y,1/2+x,1/2-z
1/2-x,1/2+y,z
1/2+x,1/2-y,z
1/2-y,1/2-x,z
1/2+y,1/2+x,z
loop_
_atom_site_type_symbol
_atom_site_label
_atom_site_fract_x
_atom_site_fract_y
_atom_site_fract_z
Si Si1 0.628217 0.235288 0.857714
Si Si2 0.780325 0.829989 0.203363
Si Si3 0.855348 0.532736 0.196891
Si Si4 0.569398 0.307913 0.444141
Si Si5 0.181217 0.919238 0.055700
Si Si6 0.302156 0.085980 0.137866
O O1 0.673602 0.173602 0.873235
O O2 0.677638 0.291640 0.837484
O O3 0.581587 0.206997 0.814873
O O4 0.590018 0.262741 0.903829
O O5 0.827593 0.827593 0.250000
O O6 0.715634 0.784367 0.215593
O O7 0.749550 0.896635 0.181538
O O8 0.853412 0.500000 0.250000
O O9 0.921670 0.578331 0.192949
O O10 0.847066 0.475160 0.156538
O O11 0.577829 0.285888 0.500000
O O12 0.496055 0.340327 0.440186
O O13 0.624359 0.364553 0.434584
O O14 0.574417 0.244896 0.408379
O O15 0.204071 0.909189 0.000000
O O16 0.350129 0.149872 0.130282
#
# Coordination Sequence:
#
# PCOD9572152 Si02
#       6
#    32  32  32  32  32  32
#     4  10  19  33  54  81 111 145 186 233 282 335
#     4   9  17  30  49  76 108 139 176 224 278 331
#     4  11  23  38  56  80 113 154 197 235 277 331
#     4  10  21  37  58  84 111 142 182 228 283 345
#     4  10  20  36  58  83 112 143 180 228 282 343
#     4  11  21  34  55  81 111 147 187 235 286 333
#
# _framework density 17.282185999999999
#
# number of rings (size 3 to 8) (size 9 to 14) (size 15 to 20)
#    0.000    1.833    3.333    1.500    0.000    4.833 
#    0.000    3.333    0.000    0.500    0.000    1.167 
#    0.000    2.667    0.000    0.000    0.000    0.000 
#
# Total GULP energy -534794.242560 kJ/mol
# GULP energy per Si atom -5570.773360 kJ/mol
# Density = 1.724285 g / cm^3
# Si number density = 17.282186 Si / 1000 Ang^3
#
#
#
# Elastic Constant Matrix: (Units=GPa)
#
#
# Indices 1 2 3 4 5 6 
#
# 1 79.3613 40.1233 48.0122 0.0000 0.0000 0.0000
# 2 40.1233 79.3613 48.0122 0.0000 0.0000 0.0000
# 3 48.0122 48.0122 98.8233 0.0000 0.0000 0.0000
# 4 0.0000 0.0000 0.0000 23.3149 0.0000 0.0000
# 5 0.0000 0.0000 0.0000 0.0000 23.3149 0.0000
# 6 0.0000 0.0000 0.0000 0.0000 0.0000 25.4702
#
#
#
# Elastic Compliance Matrix: (Units=1/GPa)
#
#
# Indices 1 2 3 4 5 6 
#
# 1 0.019608 -0.005878 -0.006671 0.000000 0.000000 0.000000
# 2 -0.005878 0.019608 -0.006671 0.000000 0.000000 0.000000
# 3 -0.006671 -0.006671 0.016601 0.000000 0.000000 0.000000
# 4 0.000000 0.000000 0.000000 0.042891 0.000000 0.000000
# 5 0.000000 0.000000 0.000000 0.000000 0.042891 0.000000
# 6 0.000000 0.000000 0.000000 0.000000 0.000000 0.039262
#
#
# Mechanical properties :
#
#
# Convention : Reuss Voigt Hill
#
# Bulk Modulus (GPa) = 57.54221 58.87123 58.20672
# Shear Modulus (GPa) = 22.21325 22.51321 22.36323
#
# Velocity S-wave (km/s) = 3.58903 3.61319 3.60113
# Velocity P-wave (km/s) = 7.10935 7.17952 7.14452
#
# Compressibility (1/GPa) = 0.01737855
#
# Stress axis : x y z
#
# Youngs Moduli (GPa) = 50.99998 50.99998 60.23813
#
# Poissons Ratio (x) = 0.29976 0.40183
# Poissons Ratio (y) = 0.29976 0.40183
# Poissons Ratio (z) = 0.34020 0.34020
#
# Static dielectric constant tensor:
#      x y z
#    x 1.596490 0.000000 0.000000 
#    y 0.000000 1.596490 0.000000 
#    z 0.000000 0.000000 1.601780 
# 
# From -- ./inp_files/9799.got.cif
#   From: 2010.05.17/outbox.cif.g08.bks.cpg/sg140_5_cif.got.tgz:9799.got - 2010.06.21 00:45:31.
