data_PCOD9572070
_publ_section_title
;
Structure prediction by ZEFSAII (Michael W. Deem and Ramdas Pophale) SiO2 
 PCOD9572070
Probable space group: I 4/M C M
;
_chemical_formula_sum "Si O2"
_cell_formula_units_Z 176
_cell_length_a 28.215972
_cell_length_b 28.215972
_cell_length_c 13.834599
_cell_angle_alpha 90.000000
_cell_angle_beta 90.000000
_cell_angle_gamma 90.000000
_cell_volume 11014.292533
_symmetry_space_group_name_H-M "I 4/M C M"
_symmetry_group_IT_number 140
_symmetry_cell_setting 'tetragonal'
loop_
_space_group_symop_operation_xyz
x,y,z
-y,x,z
-x,-y,z
y,-x,z
x,-y,1/2-z
-x,y,1/2-z
y,x,1/2-z
-y,-x,1/2-z
-x,-y,-z
y,-x,-z
x,y,-z
-y,x,-z
-x,y,1/2+z
x,-y,1/2+z
-y,-x,1/2+z
y,x,1/2+z
1/2+x,1/2+y,1/2+z
1/2-y,1/2+x,1/2+z
1/2-x,1/2-y,1/2+z
1/2+y,1/2-x,1/2+z
1/2+x,1/2-y,-z
1/2-x,1/2+y,-z
1/2+y,1/2+x,-z
1/2-y,1/2-x,-z
1/2-x,1/2-y,1/2-z
1/2+y,1/2-x,1/2-z
1/2+x,1/2+y,1/2-z
1/2-y,1/2+x,1/2-z
1/2-x,1/2+y,z
1/2+x,1/2-y,z
1/2-y,1/2-x,z
1/2+y,1/2+x,z
loop_
_atom_site_type_symbol
_atom_site_label
_atom_site_fract_x
_atom_site_fract_y
_atom_site_fract_z
Si Si1 0.217875 0.644232 0.612273
Si Si2 0.157844 0.157844 0.250000
Si Si3 0.979605 0.926368 0.617289
Si Si4 0.816767 0.974493 0.887543
Si Si5 0.789493 0.073068 0.802949
Si Si6 0.225560 0.799346 0.610523
O O1 0.209967 0.631492 0.500000
O O2 0.170412 0.670412 0.649479
O O3 0.241936 0.600504 0.666389
O O4 0.258360 0.685291 0.611356
O O5 0.110383 0.166703 0.191239
O O6 0.161822 0.203398 0.320353
O O7 0.979467 0.927146 0.500000
O O8 0.943257 0.967723 0.647867
O O9 0.969377 0.872190 0.642525
O O10 0.788280 0.945490 0.806976
O O11 0.801349 0.028880 0.871424
O O12 0.811382 0.960897 0.000000
O O13 0.231644 0.814752 0.500000
O O14 0.273697 0.773697 0.644452
#
# Coordination Sequence:
#
# PCOD9572070 Si02
#       6
#    32  16  32  32  32  32
#     4   8  14  28  50  70  88 112 143 181 222 265
#     4  10  19  28  42  62  87 106 140 188 228 266
#     4   8  15  29  48  65  79 104 148 201 253 296
#     4  10  21  35  48  62  89 122 151 188 240 297
#     4  10  21  32  44  67  89 113 149 188 232 281
#     4   8  14  25  41  62  86 111 135 164 215 273
#
# _framework density 15.979238
#
# number of rings (size 3 to 8) (size 9 to 14) (size 15 to 20)
#    0.000    3.091    0.000    2.455    2.545    2.182 
#    0.000    0.000    0.000    4.909    0.000    0.000 
#    0.000    0.000    0.000    0.000    0.000    7.273 
#
# Total GULP energy -490319.797183 kJ/mol
# GULP energy per Si atom -5571.815877 kJ/mol
# Density = 1.594287 g / cm^3
# Si number density = 15.979238 Si / 1000 Ang^3
#
#
#
# Elastic Constant Matrix: (Units=GPa)
#
#
# Indices 1 2 3 4 5 6 
#
# 1 44.9041 32.0612 15.0649 0.0000 0.0000 0.0000
# 2 32.0612 44.9041 15.0649 0.0000 0.0000 0.0000
# 3 15.0649 15.0649 70.0314 0.0000 0.0000 0.0000
# 4 0.0000 0.0000 0.0000 15.3466 0.0000 0.0000
# 5 0.0000 0.0000 0.0000 0.0000 15.3466 0.0000
# 6 0.0000 0.0000 0.0000 0.0000 0.0000 21.6221
#
#
#
# Elastic Compliance Matrix: (Units=1/GPa)
#
#
# Indices 1 2 3 4 5 6 
#
# 1 0.046026 -0.031838 -0.003052 0.000000 0.000000 0.000000
# 2 -0.031838 0.046026 -0.003052 0.000000 0.000000 0.000000
# 3 -0.003052 -0.003052 0.015592 0.000000 0.000000 0.000000
# 4 0.000000 0.000000 0.000000 0.065161 0.000000 0.000000
# 5 0.000000 0.000000 0.000000 0.000000 0.065161 0.000000
# 6 0.000000 0.000000 0.000000 0.000000 0.000000 0.046249
#
#
# Mechanical properties :
#
#
# Convention : Reuss Voigt Hill
#
# Bulk Modulus (GPa) = 31.48647 31.58019 31.53333
# Shear Modulus (GPa) = 13.48848 16.97297 15.23072
#
# Velocity S-wave (km/s) = 2.90854 3.26266 3.09067
# Velocity P-wave (km/s) = 5.57017 5.83090 5.70203
#
# Compressibility (1/GPa) = 0.03175967
#
# Stress axis : x y z
#
# Youngs Moduli (GPa) = 21.72680 21.72680 64.13385
#
# Poissons Ratio (x) = 0.69175 0.19574
# Poissons Ratio (y) = 0.69175 0.19574
# Poissons Ratio (z) = 0.06631 0.06631
#
# Static dielectric constant tensor:
#      x y z
#    x 1.548530 0.000000 0.000000 
#    y 0.000000 1.548530 0.000000 
#    z 0.000000 0.000000 1.616310 
# 
# From -- ./inp_files/5113.got.cif
#   From: 2010.05.17/outbox.cif.g08.bks.cpg/sg140_3_cif.got.tgz:5113.got - 2010.06.21 00:45:31.
