data_PCOD9572128
_publ_section_title
;
Structure prediction by ZEFSAII (Michael W. Deem and Ramdas Pophale) SiO2 
 PCOD9572128
Probable space group: I 4/M C M
;
_chemical_formula_sum "Si O2"
_cell_formula_units_Z 192
_cell_length_a 21.354897
_cell_length_b 21.354897
_cell_length_c 21.067401
_cell_angle_alpha 90.000000
_cell_angle_beta 90.000000
_cell_angle_gamma 90.000000
_cell_volume 9607.401131
_symmetry_space_group_name_H-M "I 4/M C M"
_symmetry_group_IT_number 140
_symmetry_cell_setting 'tetragonal'
loop_
_space_group_symop_operation_xyz
x,y,z
-y,x,z
-x,-y,z
y,-x,z
x,-y,1/2-z
-x,y,1/2-z
y,x,1/2-z
-y,-x,1/2-z
-x,-y,-z
y,-x,-z
x,y,-z
-y,x,-z
-x,y,1/2+z
x,-y,1/2+z
-y,-x,1/2+z
y,x,1/2+z
1/2+x,1/2+y,1/2+z
1/2-y,1/2+x,1/2+z
1/2-x,1/2-y,1/2+z
1/2+y,1/2-x,1/2+z
1/2+x,1/2-y,-z
1/2-x,1/2+y,-z
1/2+y,1/2+x,-z
1/2-y,1/2-x,-z
1/2-x,1/2-y,1/2-z
1/2+y,1/2-x,1/2-z
1/2+x,1/2+y,1/2-z
1/2-y,1/2+x,1/2-z
1/2-x,1/2+y,z
1/2+x,1/2-y,z
1/2-y,1/2-x,z
1/2+y,1/2+x,z
loop_
_atom_site_type_symbol
_atom_site_label
_atom_site_fract_x
_atom_site_fract_y
_atom_site_fract_z
Si Si1 0.907651 0.304688 0.391236
Si Si2 0.925716 0.323084 0.754090
Si Si3 0.681464 0.339722 0.573216
Si Si4 0.599227 0.003648 0.423773
Si Si5 0.164563 0.233196 0.301998
Si Si6 0.567760 0.572296 0.923146
O O1 0.856346 0.356346 0.413226
O O2 0.903911 0.300300 0.315612
O O3 0.887598 0.239690 0.421779
O O4 0.976099 0.333793 0.404949
O O5 0.887104 0.387104 0.767166
O O6 0.903438 0.266169 0.799410
O O7 0.000000 0.333858 0.750000
O O8 0.677867 0.317387 0.500000
O O9 0.685729 0.288757 0.628468
O O10 0.618859 0.376813 0.592086
O O11 0.597981 0.003144 0.500000
O O12 0.548351 0.951650 0.401247
O O13 0.570754 0.070754 0.403502
O O14 0.179064 0.179064 0.250000
O O15 0.209401 0.290600 0.282428
O O16 0.497378 0.585797 0.901089
O O17 0.566122 0.570049 0.000000
#
# Coordination Sequence:
#
# PCOD9572128 Si02
#       6
#    32  32  32  32  32  32
#     4  10  19  32  51  77 111 149 194 246 295 346
#     4  10  22  39  60  84 114 160 213 263 313 366
#     4  11  21  32  57  94 121 149 196 251 296 354
#     4   8  14  25  42  67 102 143 183 228 289 349
#     4  10  20  39  60  81 119 163 195 234 303 371
#     4   8  16  33  54  77 111 150 182 221 283 350
#
# _framework density 19.984594000000001
#
# number of rings (size 3 to 8) (size 9 to 14) (size 15 to 20)
#    0.000    2.500    1.667    2.000    0.000    4.167 
#    0.000    1.667    0.000    1.000    0.000    1.167 
#    0.000    0.000    0.000    0.000    0.000    0.167 
#
# Total GULP energy -534670.473391 kJ/mol
# GULP energy per Si atom -5569.484098 kJ/mol
# Density = 1.993911 g / cm^3
# Si number density = 19.984594 Si / 1000 Ang^3
#
#
#
# Elastic Constant Matrix: (Units=GPa)
#
#
# Indices 1 2 3 4 5 6 
#
# 1 52.0714 40.0152 19.3101 0.0000 0.0000 0.0000
# 2 40.0152 52.0714 19.3101 0.0000 0.0000 0.0000
# 3 19.3101 19.3101 78.1703 0.0000 0.0000 0.0000
# 4 0.0000 0.0000 0.0000 21.2172 0.0000 0.0000
# 5 0.0000 0.0000 0.0000 0.0000 21.2172 0.0000
# 6 0.0000 0.0000 0.0000 0.0000 0.0000 21.8733
#
#
#
# Elastic Compliance Matrix: (Units=1/GPa)
#
#
# Indices 1 2 3 4 5 6 
#
# 1 0.047529 -0.035415 -0.002993 0.000000 0.000000 0.000000
# 2 -0.035415 0.047529 -0.002993 0.000000 0.000000 0.000000
# 3 -0.002993 -0.002993 0.014271 0.000000 0.000000 0.000000
# 4 0.000000 0.000000 0.000000 0.047132 0.000000 0.000000
# 5 0.000000 0.000000 0.000000 0.000000 0.047132 0.000000
# 6 0.000000 0.000000 0.000000 0.000000 0.000000 0.045718
#
#
# Mechanical properties :
#
#
# Convention : Reuss Voigt Hill
#
# Bulk Modulus (GPa) = 37.69378 37.73155 37.71267
# Shear Modulus (GPa) = 14.66473 19.77341 17.21907
#
# Velocity S-wave (km/s) = 2.71182 3.14894 2.93852
# Velocity P-wave (km/s) = 5.35795 5.66943 5.51589
#
# Compressibility (1/GPa) = 0.02652957
#
# Stress axis : x y z
#
# Youngs Moduli (GPa) = 21.03961 21.03961 70.07180
#
# Poissons Ratio (x) = 0.74512 0.20970
# Poissons Ratio (y) = 0.74512 0.20970
# Poissons Ratio (z) = 0.06296 0.06296
#
# Static dielectric constant tensor:
#      x y z
#    x 1.747630 0.000000 0.000000 
#    y 0.000000 1.747630 0.000000 
#    z 0.000000 0.000000 1.715040 
# 
# From -- ./inp_files/9784.got.cif
#   From: 2010.05.17/outbox.cif.g08.bks.cpg/sg140_5_cif.got.tgz:9784.got - 2010.06.21 00:45:31.
