data_PCOD9572568
_publ_section_title
;
Structure prediction by ZEFSAII (Michael W. Deem and Ramdas Pophale) SiO2 
 PCOD9572568
Probable space group: I 4/M C M
;
_chemical_formula_sum "Si O2"
_cell_formula_units_Z 136
_cell_length_a 16.545392
_cell_length_b 16.545392
_cell_length_c 23.345931
_cell_angle_alpha 90.000000
_cell_angle_beta 90.000000
_cell_angle_gamma 90.000000
_cell_volume 6390.948528
_symmetry_space_group_name_H-M "I 4/M C M"
_symmetry_group_IT_number 140
_symmetry_cell_setting 'tetragonal'
loop_
_space_group_symop_operation_xyz
x,y,z
-y,x,z
-x,-y,z
y,-x,z
x,-y,1/2-z
-x,y,1/2-z
y,x,1/2-z
-y,-x,1/2-z
-x,-y,-z
y,-x,-z
x,y,-z
-y,x,-z
-x,y,1/2+z
x,-y,1/2+z
-y,-x,1/2+z
y,x,1/2+z
1/2+x,1/2+y,1/2+z
1/2-y,1/2+x,1/2+z
1/2-x,1/2-y,1/2+z
1/2+y,1/2-x,1/2+z
1/2+x,1/2-y,-z
1/2-x,1/2+y,-z
1/2+y,1/2+x,-z
1/2-y,1/2-x,-z
1/2-x,1/2-y,1/2-z
1/2+y,1/2-x,1/2-z
1/2+x,1/2+y,1/2-z
1/2-y,1/2+x,1/2-z
1/2-x,1/2+y,z
1/2+x,1/2-y,z
1/2-y,1/2-x,z
1/2+y,1/2+x,z
loop_
_atom_site_type_symbol
_atom_site_label
_atom_site_fract_x
_atom_site_fract_y
_atom_site_fract_z
Si Si1 0.078800 0.194711 0.136297
Si Si2 0.374651 0.874651 0.583128
Si Si3 0.500000 0.000000 0.898740
Si Si4 0.582899 0.308930 0.435105
Si Si5 0.619393 0.880608 0.665212
Si Si6 0.662742 0.162742 0.287894
Si Si7 0.347247 0.347247 0.750000
O O1 0.144934 0.157473 0.093617
O O2 0.096671 0.289704 0.145679
O O3 0.088525 0.153416 0.198801
O O4 0.993382 0.179992 0.106557
O O5 0.398409 0.785983 0.563227
O O6 0.369179 0.869179 0.652375
O O7 0.440794 0.940794 0.567215
O O8 0.442928 0.942928 0.860900
O O9 0.567324 0.337503 0.500000
O O10 0.620750 0.879251 0.733972
O O11 0.649226 0.259067 0.280698
#
# Coordination Sequence:
#
# PCOD9572568 Si02
#       7
#    32  16   8  32  16  16  16
#     4  11  23  44  70 101 136 180 234 290 359 412
#     4  12  23  44  66 100 143 179 229 281 340 422
#     4  12  24  43  65 110 144 176 227 277 350 414
#     4  12  26  45  70  98 135 186 240 286 342 419
#     4  10  22  42  69 100 145 183 222 288 362 429
#     4   9  18  36  66 100 138 177 224 275 342 420
#     4   9  18  38  70 101 132 178 223 287 348 414
#
# _framework density 21.280094999999999
#
# number of rings (size 3 to 8) (size 9 to 14) (size 15 to 20)
#    0.000    1.176    4.706    2.471    0.000    2.824 
#    0.000    5.294    0.000    1.412    0.000    0.000 
#    0.000    0.000    0.000    0.000    0.000    0.000 
#
# Total GULP energy -380534.687827 kJ/mol
# GULP energy per Si atom -5596.098350 kJ/mol
# Density = 2.123166 g / cm^3
# Si number density = 21.280095 Si / 1000 Ang^3
#
#
#
# Elastic Constant Matrix: (Units=GPa)
#
#
# Indices 1 2 3 4 5 6 
#
# 1 289.8963 -169.1363 48.4631 0.0000 0.0000 0.0000
# 2 -169.1363 289.8963 48.4630 0.0000 0.0000 0.0000
# 3 48.4631 48.4630 172.9744 0.0000 0.0000 0.0000
# 4 0.0000 0.0000 0.0000 10.5222 0.0000 0.0000
# 5 0.0000 0.0000 0.0000 0.0000 10.5222 0.0000
# 6 0.0000 0.0000 0.0000 0.0000 0.0000 42.8388
#
#
#
# Elastic Compliance Matrix: (Units=1/GPa)
#
#
# Indices 1 2 3 4 5 6 
#
# 1 0.006431 0.004252 -0.002993 0.000000 0.000000 0.000000
# 2 0.004252 0.006431 -0.002993 0.000000 0.000000 0.000000
# 3 -0.002993 -0.002993 0.007458 0.000000 0.000000 0.000000
# 4 0.000000 0.000000 0.000000 0.095037 0.000000 0.000000
# 5 0.000000 0.000000 0.000000 0.000000 0.095037 0.000000
# 6 0.000000 0.000000 0.000000 0.000000 0.000000 0.023343
#
#
# Mechanical properties :
#
#
# Convention : Reuss Voigt Hill
#
# Bulk Modulus (GPa) = 59.33903 67.59406 63.46655
# Shear Modulus (GPa) = 20.59116 67.77513 44.18315
#
# Velocity S-wave (km/s) = 3.11404 5.64962 4.56155
# Velocity P-wave (km/s) = 6.39335 8.62500 7.59162
#
# Compressibility (1/GPa) = 0.01685231
#
# Stress axis : x y z
#
# Youngs Moduli (GPa) = 155.49883 155.49883 134.07631
#
# Poissons Ratio (x) = -0.66125 0.40132
# Poissons Ratio (y) = -0.66125 0.40132
# Poissons Ratio (z) = 0.46544 0.46544
#
# Static dielectric constant tensor:
#      x y z
#    x 1.754620 0.000000 0.000000 
#    y 0.000000 1.754620 0.000000 
#    z 0.000000 0.000000 1.753000 
# 
# From -- ./inp_files/8170.got.cif
#   From: 2010.05.17/outbox.cif.g08.bks.cpg/sg140_5_cif.got.tgz:8170.got - 2010.06.21 00:45:31.
