data_PCOD9572625
_publ_section_title
;
Structure prediction by ZEFSAII (Michael W. Deem and Ramdas Pophale) SiO2 
 PCOD9572625
Probable space group: I 4/M C M
;
_chemical_formula_sum "Si O2"
_cell_formula_units_Z 160
_cell_length_a 30.261625
_cell_length_b 30.261625
_cell_length_c 8.902127
_cell_angle_alpha 90.000000
_cell_angle_beta 90.000000
_cell_angle_gamma 90.000000
_cell_volume 8152.264768
_symmetry_space_group_name_H-M "I 4/M C M"
_symmetry_group_IT_number 140
_symmetry_cell_setting 'tetragonal'
loop_
_space_group_symop_operation_xyz
x,y,z
-y,x,z
-x,-y,z
y,-x,z
x,-y,1/2-z
-x,y,1/2-z
y,x,1/2-z
-y,-x,1/2-z
-x,-y,-z
y,-x,-z
x,y,-z
-y,x,-z
-x,y,1/2+z
x,-y,1/2+z
-y,-x,1/2+z
y,x,1/2+z
1/2+x,1/2+y,1/2+z
1/2-y,1/2+x,1/2+z
1/2-x,1/2-y,1/2+z
1/2+y,1/2-x,1/2+z
1/2+x,1/2-y,-z
1/2-x,1/2+y,-z
1/2+y,1/2+x,-z
1/2-y,1/2-x,-z
1/2-x,1/2-y,1/2-z
1/2+y,1/2-x,1/2-z
1/2+x,1/2+y,1/2-z
1/2-y,1/2+x,1/2-z
1/2-x,1/2+y,z
1/2+x,1/2-y,z
1/2-y,1/2-x,z
1/2+y,1/2+x,z
loop_
_atom_site_type_symbol
_atom_site_label
_atom_site_fract_x
_atom_site_fract_y
_atom_site_fract_z
Si Si1 0.557369 0.720234 0.331693
Si Si2 0.703388 0.203388 0.671335
Si Si3 0.785444 0.160770 0.164864
Si Si4 0.871503 0.628498 0.324335
Si Si5 0.320152 0.045495 0.682553
Si Si6 0.617918 0.452544 0.684025
O O1 0.537150 0.719781 0.500000
O O2 0.609773 0.723806 0.343549
O O3 0.546774 0.768363 0.262542
O O4 0.550065 0.670526 0.269616
O O5 0.713078 0.213078 0.500000
O O6 0.746337 0.184823 0.750776
O O7 0.666055 0.166055 0.679366
O O8 0.830695 0.169306 0.250000
O O9 0.789387 0.179535 0.000000
O O10 0.881299 0.618702 0.500000
O O11 0.913758 0.650698 0.243495
O O12 0.319788 0.046371 0.500000
O O13 0.338554 0.000000 0.750000
O O14 0.602361 0.500000 0.750000
O O15 0.586873 0.413128 0.750000
O O16 0.616409 0.451151 0.500000
#
# Coordination Sequence:
#
# PCOD9572625 Si02
#       6
#    32  16  32  16  32  32
#     4   9  20  37  60  88 122 158 199 245 301 361
#     4  11  22  36  53  79 113 155 205 254 297 345
#     4  11  21  35  53  78 114 160 206 249 298 355
#     4  11  23  40  62  92 126 162 209 258 303 360
#     4  11  22  40  65  95 128 166 205 250 304 361
#     4  11  23  42  64  90 119 154 197 250 309 371
#
# _framework density 19.626449000000001
#
# number of rings (size 3 to 8) (size 9 to 14) (size 15 to 20)
#    0.000    1.400    2.000    3.900    0.000    1.000 
#    0.000    7.000    0.000    0.300    0.000    2.100 
#    0.000    0.000    0.000    0.000    0.000    0.000 
#
# Total GULP energy -445849.562824 kJ/mol
# GULP energy per Si atom -5573.119535 kJ/mol
# Density = 1.958178 g / cm^3
# Si number density = 19.626449 Si / 1000 Ang^3
#
#
#
# Elastic Constant Matrix: (Units=GPa)
#
#
# Indices 1 2 3 4 5 6 
#
# 1 121.1551 51.3911 39.8751 0.0000 0.0000 0.0000
# 2 51.3911 121.1601 39.8750 0.0000 0.0000 0.0000
# 3 39.8751 39.8750 103.0147 0.0000 0.0000 0.0000
# 4 0.0000 0.0000 0.0000 26.5742 0.0000 0.0000
# 5 0.0000 0.0000 0.0000 0.0000 26.5830 0.0000
# 6 0.0000 0.0000 0.0000 0.0000 0.0000 13.3329
#
#
#
# Elastic Compliance Matrix: (Units=1/GPa)
#
#
# Indices 1 2 3 4 5 6 
#
# 1 0.010696 -0.003638 -0.002732 0.000000 0.000000 0.000000
# 2 -0.003638 0.010696 -0.002732 0.000000 0.000000 0.000000
# 3 -0.002732 -0.002732 0.011822 0.000000 0.000000 0.000000
# 4 0.000000 0.000000 0.000000 0.037631 0.000000 0.000000
# 5 0.000000 0.000000 0.000000 0.000000 0.037618 0.000000
# 6 0.000000 0.000000 0.000000 0.000000 0.000000 0.075002
#
#
# Mechanical properties :
#
#
# Convention : Reuss Voigt Hill
#
# Bulk Modulus (GPa) = 66.62021 67.51249 67.06635
# Shear Modulus (GPa) = 24.19291 27.57727 25.88509
#
# Velocity S-wave (km/s) = 3.51475 3.75254 3.63559
# Velocity P-wave (km/s) = 7.10556 7.29718 7.20201
#
# Compressibility (1/GPa) = 0.01501046
#
# Stress axis : x y z
#
# Youngs Moduli (GPa) = 93.49181 93.49626 84.58488
#
# Poissons Ratio (x) = 0.34011 0.23110
# Poissons Ratio (y) = 0.34009 0.23109
# Poissons Ratio (z) = 0.25544 0.25543
#
# Static dielectric constant tensor:
#      x y z
#    x 1.685730 0.000000 0.000000 
#    y 0.000000 1.685730 0.000000 
#    z 0.000000 0.000000 1.742060 
# 
# From -- ./inp_files/1878.got.cif
#   From: 2010.05.17/outbox.cif.g08.bks.cpg/sg140_1_cif.got.tgz:1878.got - 2010.06.21 00:45:31.
