data_PCOD9572451
_publ_section_title
;
Structure prediction by ZEFSAII (Michael W. Deem and Ramdas Pophale) SiO2 
 PCOD9572451
Probable space group: I 4/M C M
;
_chemical_formula_sum "Si O2"
_cell_formula_units_Z 176
_cell_length_a 25.769673
_cell_length_b 25.769673
_cell_length_c 14.789752
_cell_angle_alpha 90.000000
_cell_angle_beta 90.000000
_cell_angle_gamma 90.000000
_cell_volume 9821.520037
_symmetry_space_group_name_H-M "I 4/M C M"
_symmetry_group_IT_number 140
_symmetry_cell_setting 'tetragonal'
loop_
_space_group_symop_operation_xyz
x,y,z
-y,x,z
-x,-y,z
y,-x,z
x,-y,1/2-z
-x,y,1/2-z
y,x,1/2-z
-y,-x,1/2-z
-x,-y,-z
y,-x,-z
x,y,-z
-y,x,-z
-x,y,1/2+z
x,-y,1/2+z
-y,-x,1/2+z
y,x,1/2+z
1/2+x,1/2+y,1/2+z
1/2-y,1/2+x,1/2+z
1/2-x,1/2-y,1/2+z
1/2+y,1/2-x,1/2+z
1/2+x,1/2-y,-z
1/2-x,1/2+y,-z
1/2+y,1/2+x,-z
1/2-y,1/2-x,-z
1/2-x,1/2-y,1/2-z
1/2+y,1/2-x,1/2-z
1/2+x,1/2+y,1/2-z
1/2-y,1/2+x,1/2-z
1/2-x,1/2+y,z
1/2+x,1/2-y,z
1/2-y,1/2-x,z
1/2+y,1/2+x,z
loop_
_atom_site_type_symbol
_atom_site_label
_atom_site_fract_x
_atom_site_fract_y
_atom_site_fract_z
Si Si1 0.200182 0.614286 0.892095
Si Si2 0.274046 0.998777 0.608029
Si Si3 0.135651 0.219512 0.237816
Si Si4 0.473347 0.584565 0.000000
Si Si5 0.838648 0.966831 0.670049
Si Si6 0.308575 0.110106 0.608132
O O1 0.151774 0.651774 0.870189
O O2 0.194681 0.553215 0.870591
O O3 0.249598 0.627763 0.831092
O O4 0.209843 0.619285 0.000000
O O5 0.269267 0.000777 0.500000
O O6 0.215008 0.002804 0.643903
O O7 0.303314 0.050654 0.638056
O O8 0.186261 0.186261 0.250000
O O9 0.088244 0.181876 0.207923
O O10 0.139270 0.262640 0.159732
O O11 0.436824 0.533057 0.000000
O O12 0.463232 0.621812 0.913406
O O13 0.864014 0.000000 0.750000
O O14 0.300879 0.112682 0.500000
O O15 0.362502 0.137499 0.629667
#
# Coordination Sequence:
#
# PCOD9572451 Si02
#       6
#    32  32  32  16  32  32
#     4  10  21  37  57  84 119 158 198 246 304 360
#     4   9  17  35  58  83 113 150 198 244 283 347
#     4  11  24  37  55  87 114 151 194 250 297 363
#     4  11  28  46  64  90 124 156 194 257 322 372
#     4  11  22  40  65  89 112 155 204 251 294 362
#     4   9  19  35  56  82 115 153 194 243 300 360
#
# _framework density 17.919833000000001
#
# number of rings (size 3 to 8) (size 9 to 14) (size 15 to 20)
#    0.000    1.909    2.727    0.545    3.818    2.182 
#    0.000    2.727    0.000    0.545    0.000    3.818 
#    0.000    3.273    0.000    0.364    0.000    0.000 
#
# Total GULP energy -490612.909468 kJ/mol
# GULP energy per Si atom -5575.146698 kJ/mol
# Density = 1.787905 g / cm^3
# Si number density = 17.919833 Si / 1000 Ang^3
#
#
#
# Elastic Constant Matrix: (Units=GPa)
#
#
# Indices 1 2 3 4 5 6 
#
# 1 101.8936 85.1018 47.2030 0.0000 0.0000 0.0000
# 2 85.1018 101.8936 47.2030 0.0000 0.0000 0.0000
# 3 47.2030 47.2030 86.6209 0.0000 0.0000 0.0000
# 4 0.0000 0.0000 0.0000 24.0706 0.0000 0.0000
# 5 0.0000 0.0000 0.0000 0.0000 24.0706 0.0000
# 6 0.0000 0.0000 0.0000 0.0000 0.0000 24.7475
#
#
#
# Elastic Compliance Matrix: (Units=1/GPa)
#
#
# Indices 1 2 3 4 5 6 
#
# 1 0.033465 -0.026088 -0.004020 0.000000 0.000000 0.000000
# 2 -0.026088 0.033465 -0.004020 0.000000 0.000000 0.000000
# 3 -0.004020 -0.004020 0.015926 0.000000 0.000000 0.000000
# 4 0.000000 0.000000 0.000000 0.041544 0.000000 0.000000
# 5 0.000000 0.000000 0.000000 0.000000 0.041544 0.000000
# 6 0.000000 0.000000 0.000000 0.000000 0.000000 0.040408
#
#
# Mechanical properties :
#
#
# Convention : Reuss Voigt Hill
#
# Bulk Modulus (GPa) = 68.49323 72.15820 70.32572
# Shear Modulus (GPa) = 17.89060 21.97111 19.93086
#
# Velocity S-wave (km/s) = 3.16313 3.50534 3.33862
# Velocity P-wave (km/s) = 7.18648 7.53245 7.36150
#
# Compressibility (1/GPa) = 0.01459998
#
# Stress axis : x y z
#
# Youngs Moduli (GPa) = 29.88183 29.88183 62.79017
#
# Poissons Ratio (x) = 0.77955 0.25243
# Poissons Ratio (y) = 0.77955 0.25243
# Poissons Ratio (z) = 0.12013 0.12013
#
# Static dielectric constant tensor:
#      x y z
#    x 1.629090 0.000000 0.000000 
#    y 0.000000 1.629090 0.000000 
#    z 0.000000 0.000000 1.650180 
# 
# From -- ./inp_files/4891.got.cif
#   From: 2010.05.17/outbox.cif.g08.bks.cpg/sg140_3_cif.got.tgz:4891.got - 2010.06.21 00:45:31.
