data_PCOD9572787
_publ_section_title
;
Structure prediction by ZEFSAII (Michael W. Deem and Ramdas Pophale) SiO2 
 PCOD9572787
Probable space group: I 41/A M D
;
_chemical_formula_sum "Si O2"
_cell_formula_units_Z 160
_cell_length_a 23.063846
_cell_length_b 23.063846
_cell_length_c 17.276151
_cell_angle_alpha 90.000000
_cell_angle_beta 90.000000
_cell_angle_gamma 90.000000
_cell_volume 9189.892906
_symmetry_space_group_name_H-M "I 41/A M D"
_symmetry_group_IT_number 141
_space_group.IT_coordinate_system_code '2'
_symmetry_cell_setting 'tetragonal'
loop_
_space_group_symop_operation_xyz
x,y,z
1/4-y,3/4+x,1/4+z
-x,1/2-y,z
1/4+y,1/4-x,3/4+z
x,-y,-z
-x,1/2+y,-z
1/4+y,3/4+x,1/4-z
1/4-y,1/4-x,3/4-z
-x,-y,-z
3/4+y,1/4-x,3/4-z
x,1/2+y,-z
3/4-y,3/4+x,1/4-z
-x,y,z
x,1/2-y,z
3/4-y,1/4-x,3/4+z
3/4+y,3/4+x,1/4+z
1/2+x,1/2+y,1/2+z
3/4-y,1/4+x,3/4+z
1/2-x,-y,1/2+z
3/4+y,3/4-x,1/4+z
1/2+x,1/2-y,1/2-z
1/2-x,y,1/2-z
3/4+y,1/4+x,3/4-z
3/4-y,3/4-x,1/4-z
1/2-x,1/2-y,1/2-z
1/4+y,3/4-x,1/4-z
1/2+x,y,1/2-z
1/4-y,1/4+x,3/4-z
1/2-x,1/2+y,1/2+z
1/2+x,-y,1/2+z
1/4-y,3/4-x,1/4+z
1/4+y,1/4+x,3/4+z
loop_
_atom_site_type_symbol
_atom_site_label
_atom_site_fract_x
_atom_site_fract_y
_atom_site_fract_z
Si Si1 0.937146 0.057543 0.551635
Si Si2 0.569985 0.750000 0.180762
Si Si3 0.771376 0.817085 0.980165
Si Si4 0.143887 0.861880 0.539551
Si Si5 0.000000 0.320130 0.253697
Si Si6 0.106201 0.320009 0.960872
O O1 0.933078 0.039875 0.640279
O O2 0.885520 0.096651 0.522854
O O3 0.000000 0.087784 0.540058
O O4 0.937524 0.000000 0.500000
O O5 0.500000 0.750000 0.186829
O O6 0.582349 0.750000 0.089358
O O7 0.590171 0.807981 0.226369
O O8 0.762284 0.750000 0.004068
O O9 0.709592 0.847938 0.983903
O O10 0.828161 0.840965 0.023742
O O11 0.139772 0.889772 0.625000
O O12 0.103220 0.805041 0.539300
O O13 0.000000 0.250000 0.265288
O O14 0.108312 0.250000 0.967697
O O15 0.085902 0.335902 0.875000
#
# Coordination Sequence:
#
# PCOD9572787 Si02
#       6
#    32  16  32  32  16  32
#     4  10  20  36  59  81 108 147 199 242 282 340
#     4   9  18  34  55  91 120 144 179 239 301 352
#     4  10  21  38  57  85 118 157 192 236 296 357
#     4  12  23  35  57  81 115 156 196 240 280 346
#     4  11  24  34  51  84 124 151 178 236 309 341
#     4  10  18  32  62  90 118 145 190 243 294 357
#
# _framework density 17.410432
#
# number of rings (size 3 to 8) (size 9 to 14) (size 15 to 20)
#    0.000    1.600    4.000    1.800    2.800    3.200 
#    0.000    0.000    4.400    4.800    0.000    0.000 
#    0.000    0.000    0.000    0.000    0.000    0.000 
#
# Total GULP energy -446250.570618 kJ/mol
# GULP energy per Si atom -5578.132133 kJ/mol
# Density = 1.737081 g / cm^3
# Si number density = 17.410432 Si / 1000 Ang^3
#
#
#
# Elastic Constant Matrix: (Units=GPa)
#
#
# Indices 1 2 3 4 5 6 
#
# 1 93.1729 41.7012 8.5304 0.0000 0.0000 0.0000
# 2 41.7012 93.1729 8.5304 0.0000 0.0000 0.0000
# 3 8.5304 8.5304 35.2752 0.0000 0.0000 0.0000
# 4 0.0000 0.0000 0.0000 25.7083 0.0000 0.0000
# 5 0.0000 0.0000 0.0000 0.0000 25.7083 0.0000
# 6 0.0000 0.0000 0.0000 0.0000 0.0000 64.8510
#
#
#
# Elastic Compliance Matrix: (Units=1/GPa)
#
#
# Indices 1 2 3 4 5 6 
#
# 1 0.013538 -0.005890 -0.001850 0.000000 0.000000 0.000000
# 2 -0.005890 0.013538 -0.001850 0.000000 0.000000 0.000000
# 3 -0.001850 -0.001850 0.029243 0.000000 0.000000 0.000000
# 4 0.000000 0.000000 0.000000 0.038898 0.000000 0.000000
# 5 0.000000 0.000000 0.000000 0.000000 0.038898 0.000000
# 6 0.000000 0.000000 0.000000 0.000000 0.000000 0.015420
#
#
# Mechanical properties :
#
#
# Convention : Reuss Voigt Hill
#
# Bulk Modulus (GPa) = 26.92411 37.68280 32.30345
# Shear Modulus (GPa) = 27.61000 34.11078 30.86039
#
# Velocity S-wave (km/s) = 3.98657 4.43110 4.21470
# Velocity P-wave (km/s) = 6.05708 6.91884 6.50225
#
# Compressibility (1/GPa) = 0.03714143
#
# Stress axis : x y z
#
# Youngs Moduli (GPa) = 73.86497 73.86497 34.19617
#
# Poissons Ratio (x) = 0.43506 0.06325
# Poissons Ratio (y) = 0.43506 0.06325
# Poissons Ratio (z) = 0.13662 0.13662
#
# Static dielectric constant tensor:
#      x y z
#    x 1.738410 0.000000 0.000000 
#    y 0.000000 1.738410 0.000000 
#    z 0.000000 0.000000 1.584910 
# 
# From -- ./inp_files/8647.got.cif
#   From: 2010.05.17/outbox.cif.g08.bks.cpg/sg141_5_cif.got.tgz:8647.got - 2010.05.20 13:30:51.
